
     RDKit          3D

 32 32  0  0  0  0  0  0  0  0999 V2000
   49.4839  -20.1073  -22.8427 C   0  0  0  0  0  0  0  0  0  0  0  0
   49.5643  -20.3428  -24.0213 O   0  0  0  0  0  0  0  0  0  0  0  0
   50.2312  -19.1408  -22.3229 O   0  0  0  0  0  0  0  0  0  0  0  0
   48.5768  -20.8568  -21.9322 C   0  0  0  0  0  0  0  0  0  0  0  0
   48.0738  -22.0763  -22.3749 C   0  0  0  0  0  0  0  0  0  0  0  0
   47.2169  -22.8215  -21.5864 C   0  0  0  0  0  0  0  0  0  0  0  0
   46.6720  -24.0203  -22.0991 N   0  0  0  0  0  0  0  0  0  0  0  0
   45.4662  -24.0426  -22.6875 C   0  0  0  0  0  0  0  0  0  0  0  0
   44.7838  -23.0608  -22.9060 O   0  0  0  0  0  0  0  0  0  0  0  0
   44.9908  -25.4355  -23.0572 C   0  0  0  0  0  0  0  0  0  0  0  0
   43.8188  -25.3412  -23.9441 N   0  0  0  0  0  0  0  0  0  0  0  0
   46.8469  -22.3542  -20.3219 C   0  0  0  0  0  0  0  0  0  0  0  0
   45.9825  -23.0802  -19.4977 N   0  0  0  0  0  0  0  0  0  0  0  0
   46.2165  -24.3593  -19.0772 C   0  0  0  0  0  0  0  0  0  0  0  0
   47.1628  -25.0128  -19.4719 O   0  0  0  0  0  0  0  0  0  0  0  0
   45.2016  -24.8699  -18.0912 C   0  0  0  0  0  0  0  0  0  0  0  0
   47.3202  -21.1178  -19.8952 C   0  0  0  0  0  0  0  0  0  0  0  0
   48.1705  -20.3733  -20.6912 C   0  0  0  0  0  0  0  0  0  0  0  0
   50.1916  -19.0991  -21.3594 H   0  0  0  0  0  0  0  0  0  0  0  0
   48.3414  -22.4562  -23.3520 H   0  0  0  0  0  0  0  0  0  0  0  0
   47.1527  -24.8877  -21.9058 H   0  0  0  0  0  0  0  0  0  0  0  0
   44.6911  -25.9847  -22.1650 H   0  0  0  0  0  0  0  0  0  0  0  0
   45.7607  -26.0083  -23.5696 H   0  0  0  0  0  0  0  0  0  0  0  0
   43.0712  -24.7819  -23.5327 H   0  0  0  0  0  0  0  0  0  0  0  0
   43.4349  -26.2660  -24.1363 H   0  0  0  0  0  0  0  0  0  0  0  0
   44.0496  -24.9206  -24.8441 H   0  0  0  0  0  0  0  0  0  0  0  0
   45.2997  -22.5432  -18.9832 H   0  0  0  0  0  0  0  0  0  0  0  0
   45.4239  -25.8975  -17.8185 H   0  0  0  0  0  0  0  0  0  0  0  0
   45.2047  -24.2576  -17.1879 H   0  0  0  0  0  0  0  0  0  0  0  0
   44.1963  -24.8220  -18.5111 H   0  0  0  0  0  0  0  0  0  0  0  0
   47.0218  -20.7392  -18.9266 H   0  0  0  0  0  0  0  0  0  0  0  0
   48.4911  -19.4087  -20.3178 H   0  0  0  0  0  0  0  0  0  0  0  0
  1  2  2  0
  1  3  1  0
  1  4  1  0
  3 19  1  0
  4  5  2  0
  4 18  1  0
  5  6  1  0
  5 20  1  0
  6  7  1  0
  6 12  2  0
  7  8  1  0
  7 21  1  0
  8  9  2  0
  8 10  1  0
 10 11  1  0
 10 22  1  0
 10 23  1  0
 11 24  1  0
 11 25  1  0
 11 26  1  0
 12 13  1  0
 12 17  1  0
 13 14  1  0
 13 27  1  0
 14 15  2  0
 14 16  1  0
 16 28  1  0
 16 29  1  0
 16 30  1  0
 17 18  2  0
 17 31  1  0
 18 32  1  0
M  CHG  1  11   1
M  END
