
     RDKit          3D

 20 19  0  0  0  0  0  0  0  0999 V2000
   -2.2756   -1.7404   -0.1545 C   0  0  0  0  0  0  0  0  0  0  0  0
   -2.0845   -0.2887    0.0206 C   0  0  0  0  0  0  0  0  0  0  0  0
   -0.8963    0.3361   -0.0152 C   0  0  0  0  0  0  0  0  0  0  0  0
    0.3884   -0.2837   -0.2953 C   0  0  0  0  0  0  0  0  0  0  0  0
    1.5336    0.1235    0.2707 C   0  0  0  0  0  0  0  0  0  0  0  0
    3.8362   -0.0072    0.5481 O   0  0  0  0  0  0  0  0  0  0  0  0
    2.8192   -0.5413   -0.1067 C   0  0  0  0  0  0  0  0  0  0  0  0
    2.9071   -1.4360   -0.9056 O   0  0  0  0  0  0  0  0  0  0  0  0
    1.5478    1.0868    1.1957 O   0  0  0  0  0  0  0  0  0  0  0  0
   -0.9508    1.8257    0.1900 C   0  0  0  0  0  0  0  0  0  0  0  0
   -0.1963    2.4649   -0.6848 O   0  0  0  0  0  0  0  0  0  0  0  0
   -1.6425    2.3624    1.0157 O   0  0  0  0  0  0  0  0  0  0  0  0
   -3.5686   -2.0429   -0.1675 O   0  0  0  0  0  0  0  0  0  0  0  0
   -1.3989   -2.5643   -0.2612 O   0  0  0  0  0  0  0  0  0  0  0  0
   -2.9812    0.2927    0.1930 H   0  0  0  0  0  0  0  0  0  0  0  0
    0.4253   -1.1266   -0.9666 H   0  0  0  0  0  0  0  0  0  0  0  0
    4.6750   -0.4249    0.2988 H   0  0  0  0  0  0  0  0  0  0  0  0
    2.4456    1.3659    1.4153 H   0  0  0  0  0  0  0  0  0  0  0  0
   -0.2534    3.4218   -0.5386 H   0  0  0  0  0  0  0  0  0  0  0  0
   -3.6858   -2.9997   -0.2678 H   0  0  0  0  0  0  0  0  0  0  0  0
  8  7  2  0
 12 10  2  0
  7  6  1  0
  7  5  1  0
  5  9  1  0
  5  4  2  0
 10 11  1  0
 10  3  1  0
  4  3  1  0
  3  2  2  0
  2  1  1  0
 14  1  2  0
  1 13  1  0
  2 15  1  0
  4 16  1  0
  6 17  1  0
  9 18  1  0
 11 19  1  0
 13 20  1  0
M  END
