
     RDKit          3D

 42 44  0  0  0  0  0  0  0  0999 V2000
   -6.9173    1.3827    0.1050 C   0  0  0  0  0  0  0  0  0  0  0  0
   -6.5232    0.0257    0.0662 O   0  0  0  0  0  0  0  0  0  0  0  0
   -5.2085   -0.2514    0.0327 C   0  0  0  0  0  0  0  0  0  0  0  0
   -4.1980    0.6874    0.0449 C   0  0  0  0  0  0  0  0  0  0  0  0
   -4.8776   -1.6237   -0.0200 C   0  0  0  0  0  0  0  0  0  0  0  0
   -5.9142   -2.4699   -0.0293 O   0  0  0  0  0  0  0  0  0  0  0  0
   -5.6496   -3.8593   -0.0834 C   0  0  0  0  0  0  0  0  0  0  0  0
   -3.5417   -1.9971   -0.0577 C   0  0  0  0  0  0  0  0  0  0  0  0
   -2.5312   -1.0447   -0.0443 C   0  0  0  0  0  0  0  0  0  0  0  0
   -2.8412    0.3122    0.0074 C   0  0  0  0  0  0  0  0  0  0  0  0
   -1.8663    1.3830    0.0230 C   0  0  0  0  0  0  0  0  0  0  0  0
   -0.5281    1.3544    0.0129 C   0  0  0  0  0  0  0  0  0  0  0  0
    0.3639    2.5401    0.0314 C   0  0  0  0  0  0  0  0  0  0  0  0
    0.0209    3.7072    0.0545 O   0  0  0  0  0  0  0  0  0  0  0  0
    0.2314    0.2106   -0.0127 O   0  0  0  0  0  0  0  0  0  0  0  0
    1.5358    0.5786   -0.0072 C   0  0  0  0  0  0  0  0  0  0  0  0
    2.5927   -0.2994   -0.0215 C   0  0  0  0  0  0  0  0  0  0  0  0
    1.6958    1.9600    0.0170 C   0  0  0  0  0  0  0  0  0  0  0  0
    2.9725    2.5045    0.0237 C   0  0  0  0  0  0  0  0  0  0  0  0
    4.0642    1.6572    0.0086 C   0  0  0  0  0  0  0  0  0  0  0  0
    3.8727    0.2638   -0.0116 C   0  0  0  0  0  0  0  0  0  0  0  0
    4.8799   -0.6191   -0.0210 O   0  0  0  0  0  0  0  0  0  0  0  0
    6.2019   -0.1453   -0.0012 C   0  0  0  0  0  0  0  0  0  0  0  0
    7.1158   -1.3462    0.0160 C   0  0  0  0  0  0  0  0  0  0  0  0
    6.7515   -2.4897    0.0197 O   0  0  0  0  0  0  0  0  0  0  0  0
    8.3787   -0.9512    0.0273 O   0  0  0  0  0  0  0  0  0  0  0  0
   -8.0042    1.3883    0.1230 H   0  0  0  0  0  0  0  0  0  0  0  0
   -6.5476    1.8895    1.0005 H   0  0  0  0  0  0  0  0  0  0  0  0
   -6.5756    1.9308   -0.7770 H   0  0  0  0  0  0  0  0  0  0  0  0
   -4.4360    1.7426    0.0872 H   0  0  0  0  0  0  0  0  0  0  0  0
   -5.1130   -4.1356   -0.9946 H   0  0  0  0  0  0  0  0  0  0  0  0
   -5.0754   -4.1971    0.7829 H   0  0  0  0  0  0  0  0  0  0  0  0
   -6.6164   -4.3560   -0.0804 H   0  0  0  0  0  0  0  0  0  0  0  0
   -3.2649   -3.0418   -0.1003 H   0  0  0  0  0  0  0  0  0  0  0  0
   -1.5087   -1.3878   -0.0772 H   0  0  0  0  0  0  0  0  0  0  0  0
   -2.2711    2.3896    0.0492 H   0  0  0  0  0  0  0  0  0  0  0  0
    2.4574   -1.3729   -0.0375 H   0  0  0  0  0  0  0  0  0  0  0  0
    3.1172    3.5767    0.0405 H   0  0  0  0  0  0  0  0  0  0  0  0
    5.0572    2.0831    0.0132 H   0  0  0  0  0  0  0  0  0  0  0  0
    6.4286    0.4649   -0.8828 H   0  0  0  0  0  0  0  0  0  0  0  0
    6.4018    0.4678    0.8849 H   0  0  0  0  0  0  0  0  0  0  0  0
    8.9739   -1.7161    0.0410 H   0  0  0  0  0  0  0  0  0  0  0  0
 25 24  2  0
 23 24  1  0
 23 22  1  0
 20 19  1  0
 20 21  2  0
 24 26  1  0
 19 18  2  0
 14 13  2  0
 21 22  1  0
 21 17  1  0
 18 13  1  0
 18 16  1  0
 13 12  1  0
 17 16  2  0
 16 15  1  0
 12 15  1  0
 12 11  2  0
 11 10  1  0
 10  4  1  0
 10  9  2  0
  4  3  2  0
  9  8  1  0
  3  2  1  0
  3  5  1  0
  2  1  1  0
  8  5  2  0
  5  6  1  0
  6  7  1  0
  1 27  1  0
  1 28  1  0
  1 29  1  0
  4 30  1  0
  7 31  1  0
  7 32  1  0
  7 33  1  0
  8 34  1  0
  9 35  1  0
 11 36  1  0
 17 37  1  0
 19 38  1  0
 20 39  1  0
 23 40  1  0
 23 41  1  0
 26 42  1  0
M  END
