
     RDKit          3D

 31 32  0  0  0  0  0  0  0  0999 V2000
    1.2494    1.5428   -0.0022 N   0  0  0  0  0  0  0  0  0  0  0  0
    2.4578    2.1121   -0.0039 C   0  0  0  0  0  0  0  0  0  0  0  0
    3.6373    1.5318   -0.0026 N   0  0  0  0  0  0  0  0  0  0  0  0
    3.5645    0.1919   -0.0032 C   0  0  0  0  0  0  0  0  0  0  0  0
    2.3633   -0.5083   -0.0045 C   0  0  0  0  0  0  0  0  0  0  0  0
    1.1566    0.2135   -0.0022 C   0  0  0  0  0  0  0  0  0  0  0  0
   -0.0505   -0.3640   -0.0066 N   0  0  0  0  0  0  0  0  0  0  0  0
    2.7177   -1.8308   -0.0059 N   0  0  0  0  0  0  0  0  0  0  0  0
    4.0650   -1.8638   -0.0060 C   0  0  0  0  0  0  0  0  0  0  0  0
    4.6166   -0.6764   -0.0036 N   0  0  0  0  0  0  0  0  0  0  0  0
   -4.0958    1.1501   -0.9645 C   0  0  0  0  0  0  0  0  0  0  0  0
   -4.9097   -0.9565    0.1481 C   0  0  0  0  0  0  0  0  0  0  0  0
   -1.2921    0.3811    0.0394 C   0  0  0  0  0  0  0  0  0  0  0  0
   -2.4708   -0.5747   -0.0594 C   0  0  0  0  0  0  0  0  0  0  0  0
   -3.8253    0.1116    0.1200 C   0  0  1  0  0  0  0  0  0  0  0  0
    2.4536    3.1975   -0.0037 H   0  0  0  0  0  0  0  0  0  0  0  0
   -0.1055   -1.3661    0.0664 H   0  0  0  0  0  0  0  0  0  0  0  0
    4.6013   -2.8005   -0.0076 H   0  0  0  0  0  0  0  0  0  0  0  0
   -5.0776    1.6052   -0.8426 H   0  0  0  0  0  0  0  0  0  0  0  0
   -3.3633    1.9574   -0.9494 H   0  0  0  0  0  0  0  0  0  0  0  0
   -6.8347   -1.0416    0.3559 H   0  0  0  0  0  0  0  0  0  0  0  0
   -4.6610   -1.7011    0.9169 H   0  0  0  0  0  0  0  0  0  0  0  0
   -4.9102   -1.4850   -0.8163 H   0  0  0  0  0  0  0  0  0  0  0  0
   -1.3553    0.9580    0.9682 H   0  0  0  0  0  0  0  0  0  0  0  0
   -1.3070    1.1016   -0.7801 H   0  0  0  0  0  0  0  0  0  0  0  0
   -2.4439   -1.0881   -1.0272 H   0  0  0  0  0  0  0  0  0  0  0  0
   -2.3606   -1.3469    0.7097 H   0  0  0  0  0  0  0  0  0  0  0  0
   -3.8224    0.6135    1.0958 H   0  0  0  0  0  0  0  0  0  0  0  0
    2.1139   -2.6380   -0.0141 H   0  0  0  0  0  0  0  0  0  0  0  0
   -4.0620    0.6904   -1.9559 H   0  0  0  0  0  0  0  0  0  0  0  0
   -6.1602   -0.3590    0.4079 O   0  0  0  0  0  0  0  0  0  0  0  0
  1  6  2  0
  1  2  1  0
  2  3  2  0
  2 16  1  0
  3  4  1  0
  5  4  2  0
  4 10  1  0
  6  5  1  0
  5  8  1  0
  7  6  1  0
 13  7  1  0
  7 17  1  0
  8  9  1  0
  9 10  2  0
  9 18  1  0
 11 15  1  0
 11 30  1  0
 11 19  1  0
 11 20  1  0
 12 31  1  0
 31 21  1  0
 12 15  1  0
 12 22  1  0
 12 23  1  0
 14 13  1  0
 13 24  1  0
 13 25  1  0
 15 14  1  0
 14 26  1  0
 14 27  1  0
 15 28  1  1
  8 29  1  0
M  END
