
     RDKit          3D

 19 20  0  0  0  0  0  0  0  0999 V2000
   -4.8197    0.7666    0.0460 C   0  0  0  0  0  0  0  0  0  0  0  0
   -3.6749   -1.0960    0.0054 C   0  0  0  0  0  0  0  0  0  0  0  0
   -2.8313   -0.0120    0.0169 C   0  0  0  0  0  0  0  0  0  0  0  0
   -1.3710    0.0073    0.0037 C   0  0  0  0  0  0  0  0  0  0  0  0
   -0.6804    1.2200    0.0011 C   0  0  0  0  0  0  0  0  0  0  0  0
    0.7051    1.2594   -0.0127 C   0  0  0  0  0  0  0  0  0  0  0  0
    1.4176    0.0699   -0.0240 C   0  0  0  0  0  0  0  0  0  0  0  0
    0.7586   -1.1516   -0.0216 C   0  0  0  0  0  0  0  0  0  0  0  0
    3.3060    0.1102   -0.0428 Br  0  0  0  0  0  0  0  0  0  0  0  0
   -0.6262   -1.1738   -0.0081 C   0  0  0  0  0  0  0  0  0  0  0  0
   -3.5688    1.1415    0.0422 N   0  0  0  0  0  0  0  0  0  0  0  0
   -4.9307   -0.5763    0.0230 N   0  0  0  0  0  0  0  0  0  0  0  0
   -5.6789    1.4186    0.0636 H   0  0  0  0  0  0  0  0  0  0  0  0
   -3.4983   -2.1579   -0.0139 H   0  0  0  0  0  0  0  0  0  0  0  0
   -1.2341    2.1493    0.0106 H   0  0  0  0  0  0  0  0  0  0  0  0
    1.2128    2.2148   -0.0142 H   0  0  0  0  0  0  0  0  0  0  0  0
    1.3082   -2.0834   -0.0299 H   0  0  0  0  0  0  0  0  0  0  0  0
   -1.1228   -2.1360   -0.0045 H   0  0  0  0  0  0  0  0  0  0  0  0
   -5.7899   -1.1033    0.0184 H   0  0  0  0  0  0  0  0  0  0  0  0
  9  7  1  0
  7  6  1  0
  7  8  2  0
  6  5  2  0
  8 10  1  0
  5  4  1  0
 10  4  2  0
  4  3  1  0
  3  2  2  0
  3 11  1  0
  2 12  1  0
 11  1  2  0
 12  1  1  0
  1 13  1  0
  2 14  1  0
  5 15  1  0
  6 16  1  0
  8 17  1  0
 10 18  1  0
 12 19  1  0
M  END
