
     RDKit          3D

 24 25  0  0  0  0  0  0  0  0999 V2000
   -0.9431   -0.0035    1.6102 C   0  0  0  0  0  0  0  0  0  0  0  0
    0.0903   -0.0055    2.5139 C   0  0  0  0  0  0  0  0  0  0  0  0
    1.4311   -0.0140    2.0576 C   0  0  0  0  0  0  0  0  0  0  0  0
    1.7009   -0.0200    0.7193 C   0  0  0  0  0  0  0  0  0  0  0  0
    0.6529   -0.0180   -0.2310 C   0  0  0  0  0  0  0  0  0  0  0  0
    0.9069   -0.0242   -1.6176 C   0  0  0  0  0  0  0  0  0  0  0  0
   -0.1265   -0.0225   -2.5213 C   0  0  0  0  0  0  0  0  0  0  0  0
   -1.4672   -0.0144   -2.0651 C   0  0  0  0  0  0  0  0  0  0  0  0
   -1.7371   -0.0083   -0.7268 C   0  0  0  0  0  0  0  0  0  0  0  0
   -0.6893   -0.0098    0.2235 C   0  0  0  0  0  0  0  0  0  0  0  0
   -0.2482    0.0012    3.9612 C   0  0  0  0  0  0  0  0  0  0  0  0
   -1.3781    0.0064    4.3869 O   0  0  0  0  0  0  0  0  0  0  0  0
    0.8232    0.0007    4.7396 O   0  0  0  0  0  0  0  0  0  0  0  0
    0.2120   -0.0293   -3.9686 C   0  0  0  0  0  0  0  0  0  0  0  0
    1.3419   -0.0363   -4.3943 O   0  0  0  0  0  0  0  0  0  0  0  0
   -0.8594   -0.0272   -4.7470 O   0  0  0  0  0  0  0  0  0  0  0  0
   -1.9693    0.0039    1.9557 H   0  0  0  0  0  0  0  0  0  0  0  0
    2.2499   -0.0160    2.7625 H   0  0  0  0  0  0  0  0  0  0  0  0
    2.7271   -0.0264    0.3738 H   0  0  0  0  0  0  0  0  0  0  0  0
    1.9330   -0.0306   -1.9633 H   0  0  0  0  0  0  0  0  0  0  0  0
   -2.2863   -0.0137   -2.7697 H   0  0  0  0  0  0  0  0  0  0  0  0
   -2.7633   -0.0016   -0.3814 H   0  0  0  0  0  0  0  0  0  0  0  0
    0.5568    0.0051    5.6711 H   0  0  0  0  0  0  0  0  0  0  0  0
   -0.5933   -0.0316   -5.6786 H   0  0  0  0  0  0  0  0  0  0  0  0
  1  2  2  0
  1 10  1  0
  1 17  1  0
  2  3  1  0
  2 11  1  0
  3  4  2  0
  3 18  1  0
  4  5  1  0
  4 19  1  0
  5  6  1  0
  5 10  2  0
  6  7  2  0
  6 20  1  0
  7  8  1  0
  7 14  1  0
  8  9  2  0
  8 21  1  0
  9 10  1  0
  9 22  1  0
 11 12  2  0
 11 13  1  0
 13 23  1  0
 14 15  2  0
 14 16  1  0
 16 24  1  0
M  END
