
     RDKit          3D

 36 37  0  0  0  0  0  0  0  0999 V2000
   -2.3889    0.7054    0.3214 C   0  0  0  0  0  0  0  0  0  0  0  0
   -2.5897    3.0932    0.3249 C   0  0  0  0  0  0  0  0  0  0  0  0
    4.0511   -0.8483   -1.0677 C   0  0  0  0  0  0  0  0  0  0  0  0
    4.3462   -0.1082    0.0732 C   0  0  0  0  0  0  0  0  0  0  0  0
    3.3495    0.0937    1.0273 C   0  0  0  0  0  0  0  0  0  0  0  0
    2.0775   -0.4097    0.8273 C   0  0  0  0  0  0  0  0  0  0  0  0
    1.7751   -1.1427   -0.3192 C   0  0  0  0  0  0  0  0  0  0  0  0
    0.3893   -1.6985   -0.5273 C   0  0  0  0  0  0  0  0  0  0  0  0
   -1.5260   -0.5136    0.4685 C   0  0  0  0  0  0  0  0  0  0  0  0
   -1.7940    1.9617    0.3456 C   0  0  0  0  0  0  0  0  0  0  0  0
   -3.9647    2.9282    0.2742 C   0  0  0  0  0  0  0  0  0  0  0  0
   -3.7787    0.6603    0.2527 C   0  0  0  0  0  0  0  0  0  0  0  0
   -4.5299   -0.6495    0.1885 C   0  0  1  0  0  0  0  0  0  0  0  0
    2.7745   -1.3589   -1.2586 C   0  0  0  0  0  0  0  0  0  0  0  0
   -4.7300   -1.1624    1.4070 F   0  0  0  0  0  0  0  0  0  0  0  0
   -5.7245   -0.4996   -0.3770 F   0  0  0  0  0  0  0  0  0  0  0  0
   -3.8653   -1.5635   -0.5280 F   0  0  0  0  0  0  0  0  0  0  0  0
    6.4230    0.7224   -0.7675 N   0  0  0  0  0  0  0  0  0  0  0  0
   -0.6189   -0.6622   -0.5059 N   0  0  0  0  0  0  0  0  0  0  0  0
   -4.5426    1.7365    0.2287 N   0  0  0  0  0  0  0  0  0  0  0  0
    6.1207    0.6268    1.4743 O   0  0  0  0  0  0  0  0  0  0  0  0
    7.6099    1.3791   -0.6297 O   0  0  0  0  0  0  0  0  0  0  0  0
   -1.6461   -1.2502    1.4326 O   0  0  0  0  0  0  0  0  0  0  0  0
   -2.1555    4.0824    0.3504 H   0  0  0  0  0  0  0  0  0  0  0  0
    4.8120   -1.0542   -1.8095 H   0  0  0  0  0  0  0  0  0  0  0  0
    3.5702    0.6528    1.9269 H   0  0  0  0  0  0  0  0  0  0  0  0
    1.3165   -0.2395    1.5794 H   0  0  0  0  0  0  0  0  0  0  0  0
    0.3370   -2.2258   -1.4805 H   0  0  0  0  0  0  0  0  0  0  0  0
    0.1525   -2.4215    0.2526 H   0  0  0  0  0  0  0  0  0  0  0  0
   -0.7164    2.0544    0.3950 H   0  0  0  0  0  0  0  0  0  0  0  0
   -4.6249    3.7865    0.2639 H   0  0  0  0  0  0  0  0  0  0  0  0
    2.5604   -1.9375   -2.1490 H   0  0  0  0  0  0  0  0  0  0  0  0
    5.9711    0.8824   -1.6572 H   0  0  0  0  0  0  0  0  0  0  0  0
   -0.6241   -0.0120   -1.2766 H   0  0  0  0  0  0  0  0  0  0  0  0
    8.2968    0.7105   -0.7459 H   0  0  0  0  0  0  0  0  0  0  0  0
    5.7020    0.4528    0.3447 C   0  0  0  0  0  0  0  0  0  0  0  0
 22 18  1  0
 18 36  1  0
 21 36  2  0
 36  4  1  0
 13 15  1  1
 17 13  1  0
  4  5  1  0
  4  3  2  0
  5  6  2  0
 16 13  1  0
 13 12  1  0
  3 14  1  0
  6  7  1  0
 20 12  2  0
 20 11  1  0
 14  7  2  0
 12  1  1  0
  7  8  1  0
 23  9  2  0
 11  2  2  0
  1  9  1  0
  1 10  2  0
  9 19  1  0
 19  8  1  0
  2 10  1  0
  2 24  1  0
  3 25  1  0
  5 26  1  0
  6 27  1  0
  8 28  1  0
  8 29  1  0
 10 30  1  0
 11 31  1  0
 14 32  1  0
 18 33  1  0
 19 34  1  0
 22 35  1  0
M  END
