
     RDKit          3D

 23 23  0  0  0  0  0  0  0  0999 V2000
    0.0406   -1.2662    0.0901 C   0  0  0  0  0  0  0  0  0  0  0  0
   -1.3443   -1.2228    0.1370 C   0  0  0  0  0  0  0  0  0  0  0  0
   -2.0189   -0.0067    0.0566 C   0  0  0  0  0  0  0  0  0  0  0  0
   -3.5073    0.0661    0.1218 C   0  0  0  0  0  0  0  0  0  0  0  0
   -4.0358    1.1370    0.5728 N   0  0  0  0  0  0  0  0  0  0  0  0
   -4.1625   -1.0646   -0.2646 N   0  0  0  0  0  0  0  0  0  0  0  0
   -1.2869    1.1724   -0.0690 C   0  0  0  0  0  0  0  0  0  0  0  0
    0.0948    1.1420   -0.1267 C   0  0  0  0  0  0  0  0  0  0  0  0
    0.7471   -0.0813   -0.0420 C   0  0  0  0  0  0  0  0  0  0  0  0
    2.5211   -0.1278   -0.0994 S   0  0  2  0  0  0  0  0  0  0  0  0
    3.0020    0.0676    1.6006 C   0  0  0  0  0  0  0  0  0  0  0  0
    2.9854    1.0378   -0.8484 O   0  0  0  0  0  0  0  0  0  0  0  0
    2.9315   -1.4579   -0.5439 O   0  0  0  0  0  0  0  0  0  0  0  0
    0.5507   -2.2173    0.1602 H   0  0  0  0  0  0  0  0  0  0  0  0
   -1.8887   -2.1499    0.2575 H   0  0  0  0  0  0  0  0  0  0  0  0
   -5.0507    1.0860    0.5502 H   0  0  0  0  0  0  0  0  0  0  0  0
   -3.7281   -1.6702   -0.9416 H   0  0  0  0  0  0  0  0  0  0  0  0
   -5.1651   -1.0140   -0.3524 H   0  0  0  0  0  0  0  0  0  0  0  0
   -1.8064    2.1181   -0.1337 H   0  0  0  0  0  0  0  0  0  0  0  0
    0.6496    2.0634   -0.2426 H   0  0  0  0  0  0  0  0  0  0  0  0
    2.6424    1.0247    1.9714 H   0  0  0  0  0  0  0  0  0  0  0  0
    2.5866   -0.7475    2.1887 H   0  0  0  0  0  0  0  0  0  0  0  0
    4.0907    0.0370    1.6360 H   0  0  0  0  0  0  0  0  0  0  0  0
  1  2  2  0
  1  9  1  0
  1 14  1  0
  2  3  1  0
  2 15  1  0
  3  4  1  0
  3  7  2  0
  4  5  2  0
  4  6  1  0
  5 16  1  0
  6 17  1  0
  6 18  1  0
  7  8  1  0
  7 19  1  0
  8  9  2  0
  8 20  1  0
  9 10  1  0
 10 11  1  1
 10 12  2  0
 10 13  2  0
 11 21  1  0
 11 22  1  0
 11 23  1  0
M  END
