
     RDKit          3D

 33 32  0  0  0  0  0  0  0  0999 V2000
   -2.9558   -0.6345   -0.2861 N   0  0  0  0  0  0  0  0  0  0  0  0
   -0.1256   -0.2275    0.1985 C   0  0  0  0  0  0  0  0  0  0  0  0
    1.1867    0.3316    0.0826 O   0  0  0  0  0  0  0  0  0  0  0  0
   -3.1886   -0.2723   -1.6674 C   0  0  0  0  0  0  0  0  0  0  0  0
    3.4077    0.1073   -0.0110 N   0  0  0  0  0  0  0  0  0  0  0  0
    2.0858   -1.7213    0.2192 O   0  0  0  0  0  0  0  0  0  0  0  0
   -2.5229    0.4693    0.5663 C   0  0  1  0  0  0  0  0  0  0  0  0
   -1.1074    0.9242    0.2136 C   0  0  0  0  0  0  0  0  0  0  0  0
    2.2175   -0.5164    0.0990 C   0  0  0  0  0  0  0  0  0  0  0  0
   -4.0791   -1.3595    0.2636 C   0  0  0  0  0  0  0  0  0  0  0  0
   -3.4713    1.6706    0.6064 C   0  0  0  0  0  0  0  0  0  0  0  0
    4.6179   -0.6859   -0.0039 C   0  0  0  0  0  0  0  0  0  0  0  0
    3.5815    1.5165   -0.2964 C   0  0  0  0  0  0  0  0  0  0  0  0
   -2.3018    0.1855   -2.1069 H   0  0  0  0  0  0  0  0  0  0  0  0
   -3.4052   -1.1724   -2.2449 H   0  0  0  0  0  0  0  0  0  0  0  0
   -4.0295    0.4211   -1.8134 H   0  0  0  0  0  0  0  0  0  0  0  0
   -2.4761    0.0534    1.5796 H   0  0  0  0  0  0  0  0  0  0  0  0
   -4.2730   -2.2508   -0.3361 H   0  0  0  0  0  0  0  0  0  0  0  0
   -3.8523   -1.6896    1.2789 H   0  0  0  0  0  0  0  0  0  0  0  0
   -5.0166   -0.7843    0.3010 H   0  0  0  0  0  0  0  0  0  0  0  0
   -0.3183   -0.9044   -0.6347 H   0  0  0  0  0  0  0  0  0  0  0  0
   -0.2067   -0.8072    1.1221 H   0  0  0  0  0  0  0  0  0  0  0  0
   -0.7975    1.6559    0.9645 H   0  0  0  0  0  0  0  0  0  0  0  0
   -1.0941    1.4491   -0.7468 H   0  0  0  0  0  0  0  0  0  0  0  0
    4.9073   -1.0000   -1.0099 H   0  0  0  0  0  0  0  0  0  0  0  0
    5.4288   -0.0870    0.4087 H   0  0  0  0  0  0  0  0  0  0  0  0
    4.5040   -1.5699    0.6170 H   0  0  0  0  0  0  0  0  0  0  0  0
    2.6310    2.0256   -0.4043 H   0  0  0  0  0  0  0  0  0  0  0  0
    4.1428    2.0014    0.5048 H   0  0  0  0  0  0  0  0  0  0  0  0
    4.1419    1.6442   -1.2248 H   0  0  0  0  0  0  0  0  0  0  0  0
   -4.4957    1.3713    0.8314 H   0  0  0  0  0  0  0  0  0  0  0  0
   -3.1605    2.3721    1.3816 H   0  0  0  0  0  0  0  0  0  0  0  0
   -3.4796    2.2143   -0.3401 H   0  0  0  0  0  0  0  0  0  0  0  0
  1  4  1  0
  1  7  1  0
  1 10  1  0
  2  3  1  0
  2  8  1  0
  3  9  1  0
  5  9  1  0
  5 12  1  0
  5 13  1  0
  6  9  2  0
  7  8  1  0
  7 11  1  0
  4 14  1  0
  4 15  1  0
  4 16  1  0
  7 17  1  1
 10 18  1  0
 10 19  1  0
 10 20  1  0
  2 21  1  0
  2 22  1  0
  8 23  1  0
  8 24  1  0
 12 25  1  0
 12 26  1  0
 12 27  1  0
 13 28  1  0
 13 29  1  0
 13 30  1  0
 11 31  1  0
 11 32  1  0
 11 33  1  0
M  END
