
     RDKit          3D

 36 38  0  0  0  0  0  0  0  0999 V2000
    0.2775    0.5325   -0.0313 C   0  0  0  0  0  0  0  0  0  0  0  0
    0.3377    1.9196   -0.1509 C   0  0  0  0  0  0  0  0  0  0  0  0
   -0.8390    2.6712   -0.1370 C   0  0  0  0  0  0  0  0  0  0  0  0
   -2.0675    2.0579    0.0064 C   0  0  0  0  0  0  0  0  0  0  0  0
   -2.1207    0.6768    0.1540 C   0  0  0  0  0  0  0  0  0  0  0  0
   -0.9632   -0.0769    0.1389 C   0  0  0  0  0  0  0  0  0  0  0  0
    1.5332   -0.3119   -0.0729 C   0  0  2  0  0  0  0  0  0  0  0  0
    2.7292    0.5490   -0.4981 C   0  0  0  0  0  0  0  0  0  0  0  0
    2.7081    1.9481    0.1061 C   0  0  1  0  0  0  0  0  0  0  0  0
    1.4869    2.5997   -0.2933 O   0  0  0  0  0  0  0  0  0  0  0  0
    1.3648   -1.4389   -1.1010 C   0  0  0  0  0  0  0  0  0  0  0  0
    1.5165   -2.5899   -0.3908 N   0  0  0  0  0  0  0  0  0  0  0  0
    1.7374   -2.2490    0.9431 C   0  0  0  0  0  0  0  0  0  0  0  0
    1.7544   -0.9915    1.1896 N   0  0  0  0  0  0  0  0  0  0  0  0
    1.1499   -1.3457   -2.2875 O   0  0  0  0  0  0  0  0  0  0  0  0
    1.8556   -3.2338    1.8527 N   0  0  0  0  0  0  0  0  0  0  0  0
    1.4191   -3.9260   -0.9276 C   0  0  0  0  0  0  0  0  0  0  0  0
   -3.7928   -0.1754    0.3772 Br  0  0  0  0  0  0  0  0  0  0  0  0
    2.8030    1.9545    1.6276 C   0  0  0  0  0  0  0  0  0  0  0  0
    3.8234    2.7869   -0.4957 C   0  0  0  0  0  0  0  0  0  0  0  0
   -0.7823    3.7479   -0.2348 H   0  0  0  0  0  0  0  0  0  0  0  0
   -2.9665    2.6592    0.0140 H   0  0  0  0  0  0  0  0  0  0  0  0
   -1.0177   -1.1533    0.2532 H   0  0  0  0  0  0  0  0  0  0  0  0
    3.6547    0.0411   -0.2226 H   0  0  0  0  0  0  0  0  0  0  0  0
    2.7264    0.6529   -1.5869 H   0  0  0  0  0  0  0  0  0  0  0  0
    2.1659   -4.1466    1.5637 H   0  0  0  0  0  0  0  0  0  0  0  0
    2.1695   -2.9563    2.7683 H   0  0  0  0  0  0  0  0  0  0  0  0
    2.3436   -4.4807   -0.7711 H   0  0  0  0  0  0  0  0  0  0  0  0
    0.5916   -4.4696   -0.4733 H   0  0  0  0  0  0  0  0  0  0  0  0
    1.2420   -3.8559   -1.9970 H   0  0  0  0  0  0  0  0  0  0  0  0
    3.7295    1.4738    1.9419 H   0  0  0  0  0  0  0  0  0  0  0  0
    2.8123    2.9801    1.9993 H   0  0  0  0  0  0  0  0  0  0  0  0
    1.9824    1.4194    2.1029 H   0  0  0  0  0  0  0  0  0  0  0  0
    3.7784    2.7878   -1.5855 H   0  0  0  0  0  0  0  0  0  0  0  0
    3.7680    3.8190   -0.1474 H   0  0  0  0  0  0  0  0  0  0  0  0
    4.7919    2.3864   -0.1976 H   0  0  0  0  0  0  0  0  0  0  0  0
 15 11  2  0
  9 20  1  6
 11 12  1  0
 11  7  1  0
 17 12  1  0
  8  9  1  0
  8  7  1  0
 10  9  1  0
 10  2  1  0
  9 19  1  0
 12 13  1  0
  7  1  1  0
  7 14  1  1
  2  1  1  0
  2  3  2  0
  1  6  2  0
  3  4  1  0
  6  5  1  0
  4  5  2  0
 13 14  2  0
 13 16  1  0
  5 18  1  0
  3 21  1  0
  4 22  1  0
  6 23  1  0
  8 24  1  0
  8 25  1  0
 16 26  1  0
 16 27  1  0
 17 28  1  0
 17 29  1  0
 17 30  1  0
 19 31  1  0
 19 32  1  0
 19 33  1  0
 20 34  1  0
 20 35  1  0
 20 36  1  0
M  END
