
     RDKit          3D

 18 18  0  0  0  0  0  0  0  0999 V2000
    2.7385    1.1430    1.0899 O   0  0  0  0  0  0  0  0  0  0  0  0
    2.4230    0.5771    0.0776 C   0  0  0  0  0  0  0  0  0  0  0  0
    3.2688    0.1804   -0.8546 O   0  0  0  0  0  0  0  0  0  0  0  0
    0.9868    0.2462   -0.2902 C   0  0  1  0  0  0  0  0  0  0  0  0
    0.8714   -1.5467   -0.4270 Cl  0  0  0  0  0  0  0  0  0  0  0  0
   -0.0138    0.7730    0.7246 C   0  0  0  0  0  0  0  0  0  0  0  0
   -1.4307    0.5638    0.3247 C   0  0  0  0  0  0  0  0  0  0  0  0
   -2.3275    1.4072   -0.2728 C   0  0  0  0  0  0  0  0  0  0  0  0
   -3.5277    0.7835   -0.4609 N   0  0  0  0  0  0  0  0  0  0  0  0
   -3.3668   -0.4243    0.0164 C   0  0  0  0  0  0  0  0  0  0  0  0
   -2.1221   -0.6029    0.4999 N   0  0  0  0  0  0  0  0  0  0  0  0
    4.1787    0.3951   -0.5974 H   0  0  0  0  0  0  0  0  0  0  0  0
    0.7697    0.6401   -1.2847 H   0  0  0  0  0  0  0  0  0  0  0  0
    0.1893    0.3398    1.7060 H   0  0  0  0  0  0  0  0  0  0  0  0
    0.1527    1.8479    0.8173 H   0  0  0  0  0  0  0  0  0  0  0  0
   -2.1601    2.4326   -0.5682 H   0  0  0  0  0  0  0  0  0  0  0  0
   -4.1116   -1.2046    0.0410 H   0  0  0  0  0  0  0  0  0  0  0  0
   -1.7677   -1.4510    0.9129 H   0  0  0  0  0  0  0  0  0  0  0  0
  1  2  2  0
  2  3  1  0
  2  4  1  0
  9  8  1  0
  9 10  2  0
  8  7  2  0
 10 11  1  0
  4  5  1  0
  4  6  1  0
  7 11  1  0
  7  6  1  0
  3 12  1  0
  4 13  1  6
  6 14  1  0
  6 15  1  0
  8 16  1  0
 10 17  1  0
 11 18  1  0
M  END
