
     RDKit          3D

 27 27  0  0  0  0  0  0  0  0999 V2000
   -1.6065   -0.3909    0.4217 C   0  0  1  0  0  0  0  0  0  0  0  0
   -0.0960   -0.2932    0.4529 C   0  0  0  0  0  0  0  0  0  0  0  0
    0.5603    0.8574    0.8667 C   0  0  0  0  0  0  0  0  0  0  0  0
    1.9435    0.8786    0.8467 C   0  0  0  0  0  0  0  0  0  0  0  0
    2.6097   -0.2591    0.4150 C   0  0  0  0  0  0  0  0  0  0  0  0
    0.5530   -1.3726    0.0482 N   0  0  0  0  0  0  0  0  0  0  0  0
   -6.2793    0.9421    1.3511 C   0  0  0  0  0  0  0  0  0  0  0  0
   -5.7387    0.3708    0.0646 C   0  0  0  0  0  0  0  0  0  0  0  0
   -2.1444    0.4080   -0.7696 C   0  0  1  0  0  0  0  0  0  0  0  0
    1.8774   -1.3704    0.0256 C   0  0  0  0  0  0  0  0  0  0  0  0
   -1.4823    0.0334   -1.9189 F   0  0  0  0  0  0  0  0  0  0  0  0
   -2.0295   -1.7192    0.3611 O   0  0  0  0  0  0  0  0  0  0  0  0
    4.4866   -0.3103    0.3645 Br  0  0  0  0  0  0  0  0  0  0  0  0
   -2.0084    0.0712    1.3289 H   0  0  0  0  0  0  0  0  0  0  0  0
    0.0092    1.7236    1.2093 H   0  0  0  0  0  0  0  0  0  0  0  0
    2.4811    1.7601    1.1687 H   0  0  0  0  0  0  0  0  0  0  0  0
   -5.8487    0.4478    2.2217 H   0  0  0  0  0  0  0  0  0  0  0  0
   -6.0895    2.0128    1.4262 H   0  0  0  0  0  0  0  0  0  0  0  0
   -7.3580    0.7920    1.3805 H   0  0  0  0  0  0  0  0  0  0  0  0
   -5.9546   -0.6960   -0.0142 H   0  0  0  0  0  0  0  0  0  0  0  0
   -6.1742    0.8707   -0.8021 H   0  0  0  0  0  0  0  0  0  0  0  0
   -1.9868    1.4786   -0.6074 H   0  0  0  0  0  0  0  0  0  0  0  0
    2.3650   -2.2781   -0.3098 H   0  0  0  0  0  0  0  0  0  0  0  0
   -1.3012   -2.2305   -0.0249 H   0  0  0  0  0  0  0  0  0  0  0  0
   -3.6234    0.1370   -0.9747 C   0  0  0  0  0  0  0  0  0  0  0  0
   -4.0855   -0.3918   -1.9487 O   0  0  0  0  0  0  0  0  0  0  0  0
   -4.3114    0.5689    0.0627 O   0  0  0  0  0  0  0  0  0  0  0  0
 13  5  1  0
  5 10  2  0
  5  4  1  0
 10  6  1  0
  4  3  2  0
  6  2  2  0
  3  2  1  0
  2  1  1  0
  1 12  1  0
  1  9  1  0
  9 11  1  0
  9 25  1  0
 27 25  1  0
 27  8  1  0
 25 26  2  0
  8  7  1  0
  1 14  1  1
  3 15  1  0
  4 16  1  0
  7 17  1  0
  7 18  1  0
  7 19  1  0
  8 20  1  0
  8 21  1  0
  9 22  1  1
 10 23  1  0
 12 24  1  0
M  END
