
     RDKit          3D

 53 57  0  0  0  0  0  0  0  0999 V2000
    4.6125   -5.1595   -0.7125 C   0  0  0  0  0  0  0  0  0  0  0  0
    3.3677   -4.5784   -0.7710 C   0  0  0  0  0  0  0  0  0  0  0  0
    3.0426   -3.4707    0.0340 C   0  0  0  0  0  0  0  0  0  0  0  0
    4.0331   -2.9676    0.9078 C   0  0  0  0  0  0  0  0  0  0  0  0
    5.3002   -3.5773    0.9529 C   0  0  0  0  0  0  0  0  0  0  0  0
    3.7430   -1.8405    1.7397 C   0  0  0  0  0  0  0  0  0  0  0  0
    2.9453    4.1228   -1.7074 O   0  0  0  0  0  0  0  0  0  0  0  0
    2.5719    4.8453   -0.8064 C   0  0  0  0  0  0  0  0  0  0  0  0
    3.2813    6.1334   -0.4239 C   0  0  0  0  0  0  0  0  0  0  0  0
    4.4435    6.3604   -1.2480 N   0  0  0  0  0  0  0  0  0  0  0  0
    0.5696    3.5465   -0.0886 C   0  0  0  0  0  0  0  0  0  0  0  0
   -0.4144    3.5083    0.9043 C   0  0  0  0  0  0  0  0  0  0  0  0
   -1.3521    2.4950    0.9389 C   0  0  0  0  0  0  0  0  0  0  0  0
    0.5833    2.5439   -1.0612 C   0  0  0  0  0  0  0  0  0  0  0  0
   -0.3685    1.5376   -1.0299 C   0  0  0  0  0  0  0  0  0  0  0  0
   -1.3272    1.5042   -0.0313 C   0  0  0  0  0  0  0  0  0  0  0  0
   -2.2887    0.4635    0.0012 N   0  0  0  0  0  0  0  0  0  0  0  0
   -3.5781    0.7734    0.0128 N   0  0  0  0  0  0  0  0  0  0  0  0
   -4.2081   -0.3805   -0.0275 C   0  0  0  0  0  0  0  0  0  0  0  0
   -5.6922   -0.4372   -0.0169 C   0  0  1  0  0  0  0  0  0  0  0  0
   -6.1637   -1.0960   -1.0841 F   0  0  0  0  0  0  0  0  0  0  0  0
   -6.1516   -1.0863    1.0622 F   0  0  0  0  0  0  0  0  0  0  0  0
   -6.2389    0.7773   -0.0178 F   0  0  0  0  0  0  0  0  0  0  0  0
   -2.0744   -0.8800   -0.0421 C   0  0  0  0  0  0  0  0  0  0  0  0
   -3.3214   -1.4629   -0.0707 C   0  0  0  0  0  0  0  0  0  0  0  0
   -0.7583   -1.5182   -0.0153 C   0  0  0  0  0  0  0  0  0  0  0  0
    0.2510   -1.0820    0.8164 C   0  0  0  0  0  0  0  0  0  0  0  0
    1.5016   -1.7184    0.8370 C   0  0  0  0  0  0  0  0  0  0  0  0
    1.7440   -2.8315    0.0015 C   0  0  0  0  0  0  0  0  0  0  0  0
    0.6959   -3.2683   -0.8284 C   0  0  0  0  0  0  0  0  0  0  0  0
   -0.5202   -2.6319   -0.8401 C   0  0  0  0  0  0  0  0  0  0  0  0
    2.5331   -1.2415    1.7058 C   0  0  0  0  0  0  0  0  0  0  0  0
    5.5906   -4.6572    0.1560 C   0  0  0  0  0  0  0  0  0  0  0  0
    4.8356   -6.0107   -1.3423 H   0  0  0  0  0  0  0  0  0  0  0  0
    2.6394   -4.9932   -1.4542 H   0  0  0  0  0  0  0  0  0  0  0  0
    6.0472   -3.1789    1.6288 H   0  0  0  0  0  0  0  0  0  0  0  0
    4.5182   -1.4720    2.4002 H   0  0  0  0  0  0  0  0  0  0  0  0
    2.5350    6.9408   -0.4433 H   0  0  0  0  0  0  0  0  0  0  0  0
    3.5963    6.0467    0.6202 H   0  0  0  0  0  0  0  0  0  0  0  0
    4.1576    6.5892   -2.1910 H   0  0  0  0  0  0  0  0  0  0  0  0
    4.9321    7.1746   -0.9005 H   0  0  0  0  0  0  0  0  0  0  0  0
    1.2863    5.2862    0.6836 H   0  0  0  0  0  0  0  0  0  0  0  0
   -0.4415    4.2770    1.6670 H   0  0  0  0  0  0  0  0  0  0  0  0
   -2.0955    2.4756    1.7244 H   0  0  0  0  0  0  0  0  0  0  0  0
    1.3155    2.5405   -1.8502 H   0  0  0  0  0  0  0  0  0  0  0  0
   -0.3548    0.7805   -1.8027 H   0  0  0  0  0  0  0  0  0  0  0  0
   -3.5468   -2.5166   -0.0840 H   0  0  0  0  0  0  0  0  0  0  0  0
    0.0958   -0.2430    1.4838 H   0  0  0  0  0  0  0  0  0  0  0  0
    0.8307   -4.1160   -1.4856 H   0  0  0  0  0  0  0  0  0  0  0  0
   -1.2987   -2.9842   -1.5043 H   0  0  0  0  0  0  0  0  0  0  0  0
    2.3263   -0.3865    2.3376 H   0  0  0  0  0  0  0  0  0  0  0  0
    6.5685   -5.1185    0.1961 H   0  0  0  0  0  0  0  0  0  0  0  0
    1.4698    4.6076   -0.0410 N   0  0  0  0  0  0  0  0  0  0  0  0
 10  9  1  0
  9  8  1  0
  5 33  1  0
  5  4  2  0
  6  4  1  0
  6 32  2  0
 33  1  2  0
  8  7  2  0
  8 53  1  0
  4  3  1  0
 32 28  1  0
 53 11  1  0
  1  2  1  0
  3  2  2  0
  3 29  1  0
 11 12  2  0
 11 14  1  0
 28 29  2  0
 28 27  1  0
 12 13  1  0
 29 30  1  0
 14 15  2  0
 27 26  2  0
 13 16  2  0
 15 16  1  0
 16 17  1  0
 30 31  2  0
 26 31  1  0
 26 24  1  0
 17 24  1  0
 17 18  1  0
 24 25  2  0
 18 19  2  0
 25 19  1  0
 19 20  1  0
 20 21  1  6
 20 23  1  0
 20 22  1  0
  1 34  1  0
  2 35  1  0
  5 36  1  0
  6 37  1  0
  9 38  1  0
  9 39  1  0
 10 40  1  0
 10 41  1  0
 53 42  1  0
 12 43  1  0
 13 44  1  0
 14 45  1  0
 15 46  1  0
 25 47  1  0
 27 48  1  0
 30 49  1  0
 31 50  1  0
 32 51  1  0
 33 52  1  0
M  END
