
     RDKit          3D

 30 31  0  0  0  0  0  0  0  0999 V2000
    4.2788    1.2821   -0.0402 C   0  0  0  0  0  0  0  0  0  0  0  0
    3.1970    2.1521   -0.0564 C   0  0  0  0  0  0  0  0  0  0  0  0
    1.9015    1.6679   -0.0374 C   0  0  0  0  0  0  0  0  0  0  0  0
    1.6482    0.2912   -0.0018 C   0  0  0  0  0  0  0  0  0  0  0  0
    2.7428   -0.5719    0.0150 C   0  0  0  0  0  0  0  0  0  0  0  0
    4.0486   -0.0906   -0.0036 C   0  0  0  0  0  0  0  0  0  0  0  0
    5.1577   -1.0779    0.0164 C   0  0  0  0  0  0  0  0  0  0  0  0
    0.3053   -0.2853    0.0173 C   0  0  0  0  0  0  0  0  0  0  0  0
   -0.8442    0.4040    0.0143 C   0  0  0  0  0  0  0  0  0  0  0  0
   -2.1871   -0.1656    0.0358 C   0  0  0  0  0  0  0  0  0  0  0  0
   -2.4153   -1.5456    0.1131 C   0  0  0  0  0  0  0  0  0  0  0  0
   -3.6789   -2.0965    0.1334 C   0  0  0  0  0  0  0  0  0  0  0  0
   -4.7979   -1.2661    0.0770 C   0  0  0  0  0  0  0  0  0  0  0  0
   -4.6179    0.1106    0.0016 C   0  0  0  0  0  0  0  0  0  0  0  0
   -3.3367    0.6334   -0.0174 C   0  0  0  0  0  0  0  0  0  0  0  0
    6.3553   -0.5117   -0.0136 O   0  0  0  0  0  0  0  0  0  0  0  0
    4.9926   -2.2738    0.0549 O   0  0  0  0  0  0  0  0  0  0  0  0
   -6.0558   -1.7305    0.0910 O   0  0  0  0  0  0  0  0  0  0  0  0
   -3.2069    2.3627   -0.1179 Cl  0  0  0  0  0  0  0  0  0  0  0  0
    5.2832    1.6808   -0.0561 H   0  0  0  0  0  0  0  0  0  0  0  0
    3.3676    3.2199   -0.0844 H   0  0  0  0  0  0  0  0  0  0  0  0
    1.0844    2.3767   -0.0513 H   0  0  0  0  0  0  0  0  0  0  0  0
    2.5725   -1.6410    0.0428 H   0  0  0  0  0  0  0  0  0  0  0  0
    0.2865   -1.3702    0.0335 H   0  0  0  0  0  0  0  0  0  0  0  0
   -0.7969    1.4856   -0.0062 H   0  0  0  0  0  0  0  0  0  0  0  0
   -1.5724   -2.2215    0.1602 H   0  0  0  0  0  0  0  0  0  0  0  0
   -3.7940   -3.1721    0.1937 H   0  0  0  0  0  0  0  0  0  0  0  0
   -5.4777    0.7656   -0.0443 H   0  0  0  0  0  0  0  0  0  0  0  0
    7.0440   -1.1928   -0.0001 H   0  0  0  0  0  0  0  0  0  0  0  0
   -6.0636   -2.6939    0.1305 H   0  0  0  0  0  0  0  0  0  0  0  0
 17  7  2  0
 16  7  1  0
  7  6  1  0
  6  1  2  0
  6  5  1  0
  1  2  1  0
  5  4  2  0
  2  3  2  0
  4  3  1  0
  4  8  1  0
  8  9  2  0
  9 10  1  0
 11 10  2  0
 11 12  1  0
 10 15  1  0
 12 13  2  0
 15 19  1  0
 15 14  2  0
 13 14  1  0
 13 18  1  0
  1 20  1  0
  2 21  1  0
  3 22  1  0
  5 23  1  0
  8 24  1  0
  9 25  1  0
 11 26  1  0
 12 27  1  0
 14 28  1  0
 16 29  1  0
 18 30  1  0
M  END
