
     RDKit          3D

 64 63  0  0  0  0  0  0  0  0999 V2000
   -8.9788    2.1449    0.6306 N   0  0  0  0  0  0  0  0  0  0  0  0
   -6.6196    2.7051    0.4592 C   0  0  0  0  0  0  0  0  0  0  0  0
   -7.7146    1.7373    0.0348 C   0  0  1  0  0  0  0  0  0  0  0  0
   -1.9343   -2.7422    0.0468 C   0  0  0  0  0  0  0  0  0  0  0  0
   -7.3403    0.2784    0.3729 C   0  0  1  0  0  0  0  0  0  0  0  0
   -0.8794   -1.6967    0.4119 C   0  0  0  0  0  0  0  0  0  0  0  0
   -3.3010   -2.3510    0.5121 C   0  0  0  0  0  0  0  0  0  0  0  0
   -4.3274   -2.0687   -0.2851 C   0  0  0  0  0  0  0  0  0  0  0  0
   -5.9565   -0.0219   -1.6205 O   0  0  0  0  0  0  0  0  0  0  0  0
   -7.0025    4.0203    0.1323 O   0  0  0  0  0  0  0  0  0  0  0  0
   -8.3996   -0.5910    0.0142 O   0  0  0  0  0  0  0  0  0  0  0  0
   -6.0063   -0.1970   -0.2172 C   0  0  2  0  0  0  0  0  0  0  0  0
    0.5291   -2.0960   -0.0084 C   0  0  0  0  0  0  0  0  0  0  0  0
    1.5713   -1.0371    0.3281 C   0  0  0  0  0  0  0  0  0  0  0  0
    2.9819   -1.4344   -0.0899 C   0  0  0  0  0  0  0  0  0  0  0  0
    3.9986   -0.3541    0.2399 C   0  0  0  0  0  0  0  0  0  0  0  0
    5.4228   -0.6708   -0.1460 C   0  0  0  0  0  0  0  0  0  0  0  0
    6.4387    0.3956    0.1802 C   0  0  0  0  0  0  0  0  0  0  0  0
    7.8742    0.0624   -0.1902 C   0  0  0  0  0  0  0  0  0  0  0  0
    8.8332    1.1888    0.1769 C   0  0  0  0  0  0  0  0  0  0  0  0
   10.2804    0.8819   -0.1848 C   0  0  0  0  0  0  0  0  0  0  0  0
   11.2420    2.0086    0.1737 C   0  0  0  0  0  0  0  0  0  0  0  0
   12.6860    1.6911   -0.1884 C   0  0  0  0  0  0  0  0  0  0  0  0
    5.7290   -1.7116   -0.6840 O   0  0  0  0  0  0  0  0  0  0  0  0
   -9.6931    1.4668    0.3964 H   0  0  0  0  0  0  0  0  0  0  0  0
   -8.8995    2.1154    1.6420 H   0  0  0  0  0  0  0  0  0  0  0  0
   -7.8260    1.8111   -1.0546 H   0  0  0  0  0  0  0  0  0  0  0  0
   -6.4462    2.5928    1.5410 H   0  0  0  0  0  0  0  0  0  0  0  0
   -5.6811    2.4390   -0.0382 H   0  0  0  0  0  0  0  0  0  0  0  0
   -6.2647    4.5990    0.3439 H   0  0  0  0  0  0  0  0  0  0  0  0
   -7.2547    0.1993    1.4635 H   0  0  0  0  0  0  0  0  0  0  0  0
   -1.9386   -2.8965   -1.0361 H   0  0  0  0  0  0  0  0  0  0  0  0
   -1.6508   -3.7000    0.4975 H   0  0  0  0  0  0  0  0  0  0  0  0
   -1.1467   -0.7440   -0.0563 H   0  0  0  0  0  0  0  0  0  0  0  0
   -0.9018   -1.5213    1.4928 H   0  0  0  0  0  0  0  0  0  0  0  0
   -3.4348   -2.2724    1.5901 H   0  0  0  0  0  0  0  0  0  0  0  0
   -8.5976   -0.4687   -0.9209 H   0  0  0  0  0  0  0  0  0  0  0  0
   -5.2129    0.4383    0.1884 H   0  0  0  0  0  0  0  0  0  0  0  0
   -4.1881   -2.1464   -1.3607 H   0  0  0  0  0  0  0  0  0  0  0  0
   -6.4488   -2.3090   -0.2056 H   0  0  0  0  0  0  0  0  0  0  0  0
   -5.7325   -1.7130    1.2792 H   0  0  0  0  0  0  0  0  0  0  0  0
   -6.4523   -0.7313   -2.0425 H   0  0  0  0  0  0  0  0  0  0  0  0
    0.8013   -3.0412    0.4741 H   0  0  0  0  0  0  0  0  0  0  0  0
    0.5460   -2.2899   -1.0864 H   0  0  0  0  0  0  0  0  0  0  0  0
    1.2967   -0.0945   -0.1582 H   0  0  0  0  0  0  0  0  0  0  0  0
    1.5514   -0.8385    1.4052 H   0  0  0  0  0  0  0  0  0  0  0  0
    3.2598   -2.3678    0.4076 H   0  0  0  0  0  0  0  0  0  0  0  0
    2.9978   -1.6425   -1.1632 H   0  0  0  0  0  0  0  0  0  0  0  0
    3.7238    0.5910   -0.2428 H   0  0  0  0  0  0  0  0  0  0  0  0
    3.9875   -0.1302    1.3128 H   0  0  0  0  0  0  0  0  0  0  0  0
    6.1165    1.3183   -0.3165 H   0  0  0  0  0  0  0  0  0  0  0  0
    6.3579    0.6159    1.2510 H   0  0  0  0  0  0  0  0  0  0  0  0
    8.1850   -0.8567    0.3147 H   0  0  0  0  0  0  0  0  0  0  0  0
    7.9448   -0.1382   -1.2630 H   0  0  0  0  0  0  0  0  0  0  0  0
    8.5201    2.1108   -0.3255 H   0  0  0  0  0  0  0  0  0  0  0  0
    8.7628    1.3915    1.2513 H   0  0  0  0  0  0  0  0  0  0  0  0
   10.5962   -0.0371    0.3219 H   0  0  0  0  0  0  0  0  0  0  0  0
   10.3512    0.6740   -1.2583 H   0  0  0  0  0  0  0  0  0  0  0  0
   10.9274    2.9259   -0.3338 H   0  0  0  0  0  0  0  0  0  0  0  0
   11.1704    2.2170    1.2457 H   0  0  0  0  0  0  0  0  0  0  0  0
   13.0359    0.7999    0.3361 H   0  0  0  0  0  0  0  0  0  0  0  0
   12.7934    1.5051   -1.2587 H   0  0  0  0  0  0  0  0  0  0  0  0
   13.3558    2.5110    0.0736 H   0  0  0  0  0  0  0  0  0  0  0  0
   -5.6795   -1.6369    0.1896 C   0  0  0  0  0  0  0  0  0  0  0  0
  1  3  1  0
  2  3  1  0
  2 10  1  0
  3  5  1  0
  4  6  1  0
  4  7  1  0
  5 11  1  0
  5 12  1  0
  7  8  2  0
  8 64  1  0
 64 12  1  0
  9 12  1  0
  6 13  1  0
 13 14  1  0
 14 15  1  0
 15 16  1  0
 16 17  1  0
 17 18  1  0
 17 24  2  0
 18 19  1  0
 19 20  1  0
 20 21  1  0
 21 22  1  0
 22 23  1  0
  1 25  1  0
  1 26  1  0
  3 27  1  6
  2 28  1  0
  2 29  1  0
 10 30  1  0
  5 31  1  1
  4 32  1  0
  4 33  1  0
  6 34  1  0
  6 35  1  0
  7 36  1  0
 11 37  1  0
 12 38  1  1
  8 39  1  0
 64 40  1  0
 64 41  1  0
  9 42  1  0
 13 43  1  0
 13 44  1  0
 14 45  1  0
 14 46  1  0
 15 47  1  0
 15 48  1  0
 16 49  1  0
 16 50  1  0
 18 51  1  0
 18 52  1  0
 19 53  1  0
 19 54  1  0
 20 55  1  0
 20 56  1  0
 21 57  1  0
 21 58  1  0
 22 59  1  0
 22 60  1  0
 23 61  1  0
 23 62  1  0
 23 63  1  0
M  END
