
     RDKit          3D

 44 45  0  0  0  0  0  0  0  0999 V2000
    3.3879    1.5679   -1.5750 P   0  0  1  0  0  0  0  0  0  0  0  0
    4.3840    1.2879   -2.6301 O   0  0  0  0  0  0  0  0  0  0  0  0
    2.8095   -0.5769    1.5860 C   0  0  0  0  0  0  0  0  0  0  0  0
    2.8932    0.8393    1.0320 C   0  0  0  0  0  0  0  0  0  0  0  0
    1.5980   -0.2940   -2.1137 C   0  0  0  0  0  0  0  0  0  0  0  0
    1.8827    1.0827   -1.8600 O   0  0  0  0  0  0  0  0  0  0  0  0
    0.4796   -0.7633   -1.2186 C   0  0  1  0  0  0  0  0  0  0  0  0
   -0.7278   -0.0946   -1.5333 O   0  0  0  0  0  0  0  0  0  0  0  0
    0.1651   -2.2474   -1.3753 C   0  0  1  0  0  0  0  0  0  0  0  0
    1.0857   -2.9981   -0.6376 O   0  0  0  0  0  0  0  0  0  0  0  0
   -1.2748   -2.2955   -0.8720 C   0  0  0  0  0  0  0  0  0  0  0  0
   -1.8335   -0.9407   -1.3028 C   0  0  1  0  0  0  0  0  0  0  0  0
   -2.7167   -0.3347   -0.3113 N   0  0  0  0  0  0  0  0  0  0  0  0
   -4.0257   -0.0674   -0.6425 C   0  0  0  0  0  0  0  0  0  0  0  0
   -4.5189   -0.3333   -1.7199 O   0  0  0  0  0  0  0  0  0  0  0  0
   -4.7491    0.5285    0.3573 N   0  0  0  0  0  0  0  0  0  0  0  0
   -4.3229    0.8865    1.6229 C   0  0  0  0  0  0  0  0  0  0  0  0
    3.7700    0.8825   -0.1247 N   0  0  0  0  0  0  0  0  0  0  0  0
   -5.0884    1.4106    2.4102 O   0  0  0  0  0  0  0  0  0  0  0  0
   -2.9307    0.5818    1.8958 C   0  0  0  0  0  0  0  0  0  0  0  0
   -2.3653    0.9311    3.2324 C   0  0  0  0  0  0  0  0  0  0  0  0
   -2.2153   -0.0047    0.9227 C   0  0  0  0  0  0  0  0  0  0  0  0
    1.4800   -0.6465    2.8362 S   0  0  0  0  0  0  0  0  0  0  0  0
    3.1498    3.1457   -1.4327 O   0  0  0  0  0  0  0  0  0  0  0  0
    2.5786   -1.2849    0.7919 H   0  0  0  0  0  0  0  0  0  0  0  0
    3.7594   -0.8679    2.0348 H   0  0  0  0  0  0  0  0  0  0  0  0
    1.8967    1.1750    0.7422 H   0  0  0  0  0  0  0  0  0  0  0  0
    3.2375    1.5257    1.8095 H   0  0  0  0  0  0  0  0  0  0  0  0
    1.3164   -0.3999   -3.1636 H   0  0  0  0  0  0  0  0  0  0  0  0
    2.4701   -0.9298   -1.9350 H   0  0  0  0  0  0  0  0  0  0  0  0
    0.7518   -0.5778   -0.1690 H   0  0  0  0  0  0  0  0  0  0  0  0
    0.1922   -2.5148   -2.4408 H   0  0  0  0  0  0  0  0  0  0  0  0
    0.9911   -3.9257   -0.8740 H   0  0  0  0  0  0  0  0  0  0  0  0
   -1.8553   -3.1165   -1.2901 H   0  0  0  0  0  0  0  0  0  0  0  0
   -1.2739   -2.4064    0.2156 H   0  0  0  0  0  0  0  0  0  0  0  0
   -2.4150   -1.0198   -2.2185 H   0  0  0  0  0  0  0  0  0  0  0  0
   -5.7164    0.7256    0.1304 H   0  0  0  0  0  0  0  0  0  0  0  0
    4.7571    0.7989    0.0750 H   0  0  0  0  0  0  0  0  0  0  0  0
   -2.4356    2.0026    3.4243 H   0  0  0  0  0  0  0  0  0  0  0  0
   -2.9002    0.4225    4.0355 H   0  0  0  0  0  0  0  0  0  0  0  0
   -1.3160    0.6472    3.2973 H   0  0  0  0  0  0  0  0  0  0  0  0
   -1.1748   -0.2528    1.0906 H   0  0  0  0  0  0  0  0  0  0  0  0
    1.2705   -1.9657    2.7894 H   0  0  0  0  0  0  0  0  0  0  0  0
    2.6806    3.4449   -0.6436 H   0  0  0  0  0  0  0  0  0  0  0  0
  3  4  1  0
  3 23  1  0
  4 18  1  0
 18  1  1  0
  6  5  1  0
  1  6  1  6
  5  7  1  0
 10  9  1  0
  1  2  2  0
  9  7  1  0
  9 11  1  0
  7  8  1  0
  8 12  1  0
 11 12  1  0
 12 13  1  0
 13 22  1  0
 13 14  1  0
 22 20  2  0
 15 14  2  0
 14 16  1  0
 20 21  1  0
 20 17  1  0
 16 17  1  0
 17 19  2  0
  1 24  1  0
  3 25  1  0
  3 26  1  0
  4 27  1  0
  4 28  1  0
  5 29  1  0
  5 30  1  0
  7 31  1  1
  9 32  1  6
 10 33  1  0
 11 34  1  0
 11 35  1  0
 12 36  1  6
 16 37  1  0
 18 38  1  0
 21 39  1  0
 21 40  1  0
 21 41  1  0
 22 42  1  0
 23 43  1  0
 24 44  1  0
M  END
