
     RDKit          3D

 31 33  0  0  0  0  0  0  0  0999 V2000
   -3.8299   -0.6511   -0.0476 C   0  0  0  0  0  0  0  0  0  0  0  0
   -3.5689    0.4609    0.7463 C   0  0  0  0  0  0  0  0  0  0  0  0
   -2.3430    1.1076    0.6602 C   0  0  0  0  0  0  0  0  0  0  0  0
   -0.0679    1.3071   -0.3265 C   0  0  0  0  0  0  0  0  0  0  0  0
    2.1460    1.5544   -0.3280 C   0  0  0  0  0  0  0  0  0  0  0  0
    1.3147   -0.7004    0.2075 C   0  0  0  0  0  0  0  0  0  0  0  0
    1.8271   -1.6034   -0.7101 C   0  0  0  0  0  0  0  0  0  0  0  0
    2.0183   -2.9305   -0.3853 C   0  0  0  0  0  0  0  0  0  0  0  0
    1.6758   -3.3598    0.8897 C   0  0  0  0  0  0  0  0  0  0  0  0
    1.1517   -2.4706    1.8189 C   0  0  0  0  0  0  0  0  0  0  0  0
   -1.3647    0.6460   -0.2302 C   0  0  0  0  0  0  0  0  0  0  0  0
   -1.6478   -0.4716   -1.0115 C   0  0  0  0  0  0  0  0  0  0  0  0
   -2.8621   -1.1234   -0.9354 C   0  0  0  0  0  0  0  0  0  0  0  0
    0.1432    2.5542   -0.5858 N   0  0  0  0  0  0  0  0  0  0  0  0
    1.4835    2.6879   -0.5809 N   0  0  0  0  0  0  0  0  0  0  0  0
    1.1328    0.6492   -0.1621 N   0  0  0  0  0  0  0  0  0  0  0  0
    0.9769   -1.1382    1.4787 C   0  0  0  0  0  0  0  0  0  0  0  0
    3.7861    1.3000   -0.2150 S   0  0  0  0  0  0  0  0  0  0  0  0
    2.1194   -1.1712   -1.9387 F   0  0  0  0  0  0  0  0  0  0  0  0
   -2.0454    2.1692    1.4211 O   0  0  0  0  0  0  0  0  0  0  0  0
   -5.0312   -1.2314    0.0833 O   0  0  0  0  0  0  0  0  0  0  0  0
   -4.3272    0.8176    1.4346 H   0  0  0  0  0  0  0  0  0  0  0  0
    2.4212   -3.6150   -1.1200 H   0  0  0  0  0  0  0  0  0  0  0  0
    1.8182   -4.3990    1.1531 H   0  0  0  0  0  0  0  0  0  0  0  0
    0.8835   -2.8107    2.8093 H   0  0  0  0  0  0  0  0  0  0  0  0
   -0.9073   -0.8339   -1.7130 H   0  0  0  0  0  0  0  0  0  0  0  0
   -3.0536   -1.9876   -1.5593 H   0  0  0  0  0  0  0  0  0  0  0  0
    1.9055    3.5860   -0.7597 H   0  0  0  0  0  0  0  0  0  0  0  0
    0.5777   -0.4320    2.1951 H   0  0  0  0  0  0  0  0  0  0  0  0
   -2.7736    2.3718    2.0199 H   0  0  0  0  0  0  0  0  0  0  0  0
   -5.1084   -1.9874   -0.5099 H   0  0  0  0  0  0  0  0  0  0  0  0
 15  5  1  0
 15 14  1  0
 18  5  2  0
  5 16  1  0
 14  4  2  0
 19  7  1  0
 16  4  1  0
 16  6  1  0
  4 11  1  0
  7  6  2  0
  7  8  1  0
  6 17  1  0
 11 12  2  0
 11  3  1  0
 20  3  1  0
  8  9  2  0
 12 13  1  0
  3  2  2  0
 17 10  2  0
  9 10  1  0
 13  1  2  0
  2  1  1  0
  1 21  1  0
  2 22  1  0
  8 23  1  0
  9 24  1  0
 10 25  1  0
 12 26  1  0
 13 27  1  0
 15 28  1  0
 17 29  1  0
 20 30  1  0
 21 31  1  0
M  END
