
     RDKit          3D

 31 33  0  0  0  0  0  0  0  0999 V2000
    0.2732    1.5025    0.0323 C   0  0  0  0  0  0  0  0  0  0  0  0
    1.3971    0.5970   -0.2161 C   0  0  0  0  0  0  0  0  0  0  0  0
   -1.8620    2.0491    0.4470 N   0  0  0  0  0  0  0  0  0  0  0  0
    1.3214   -0.3775   -1.2112 C   0  0  0  0  0  0  0  0  0  0  0  0
    2.5741    0.7047    0.5331 C   0  0  0  0  0  0  0  0  0  0  0  0
   -1.1762    3.1521    0.2388 C   0  0  0  0  0  0  0  0  0  0  0  0
   -0.8584   -0.9523    1.6639 C   0  0  0  0  0  0  0  0  0  0  0  0
   -2.2429   -0.9285   -0.2990 C   0  0  0  0  0  0  0  0  0  0  0  0
    2.3698   -1.2410   -1.4606 C   0  0  0  0  0  0  0  0  0  0  0  0
    3.6397   -0.1563    0.2821 C   0  0  0  0  0  0  0  0  0  0  0  0
   -1.2275   -2.2651    1.9078 C   0  0  0  0  0  0  0  0  0  0  0  0
   -2.6332   -2.2344   -0.0470 C   0  0  0  0  0  0  0  0  0  0  0  0
    3.5345   -1.1252   -0.7031 C   0  0  0  0  0  0  0  0  0  0  0  0
   -0.9782    1.0576    0.3231 N   0  0  0  0  0  0  0  0  0  0  0  0
    0.1731    2.8753   -0.0427 C   0  0  0  0  0  0  0  0  0  0  0  0
   -1.3654   -0.2784    0.5620 C   0  0  0  0  0  0  0  0  0  0  0  0
   -2.1223   -2.8998    1.0573 C   0  0  0  0  0  0  0  0  0  0  0  0
    2.7276    1.5983    1.5259 O   0  0  0  0  0  0  0  0  0  0  0  0
    4.5725   -1.9889   -0.8877 O   0  0  0  0  0  0  0  0  0  0  0  0
    0.4190   -0.4470   -1.8057 H   0  0  0  0  0  0  0  0  0  0  0  0
   -1.6651    4.1134    0.2776 H   0  0  0  0  0  0  0  0  0  0  0  0
   -0.1784   -0.4368    2.3292 H   0  0  0  0  0  0  0  0  0  0  0  0
    2.2888   -2.0006   -2.2270 H   0  0  0  0  0  0  0  0  0  0  0  0
    4.5461   -0.0763    0.8699 H   0  0  0  0  0  0  0  0  0  0  0  0
   -0.8215   -2.7883    2.7625 H   0  0  0  0  0  0  0  0  0  0  0  0
   -3.3319   -2.7271   -0.7092 H   0  0  0  0  0  0  0  0  0  0  0  0
    0.9654    3.5771   -0.2477 H   0  0  0  0  0  0  0  0  0  0  0  0
   -2.4269   -3.9197    1.2490 H   0  0  0  0  0  0  0  0  0  0  0  0
    1.9518    2.1694    1.6013 H   0  0  0  0  0  0  0  0  0  0  0  0
    4.9919   -1.8235   -1.7394 H   0  0  0  0  0  0  0  0  0  0  0  0
   -2.8129   -0.1260   -1.7149 Cl  0  0  0  0  0  0  0  0  0  0  0  0
  6  3  2  0
  6 15  1  0
  3 14  1  0
 15  1  2  0
 14  1  1  0
 14 16  1  0
  1  2  1  0
  7 16  2  0
  7 11  1  0
 16  8  1  0
  2  4  2  0
  2  5  1  0
 18  5  1  0
  4  9  1  0
 11 17  2  0
  8 31  1  0
  8 12  2  0
  5 10  2  0
 17 12  1  0
  9 13  2  0
 10 13  1  0
 13 19  1  0
  4 20  1  0
  6 21  1  0
  7 22  1  0
  9 23  1  0
 10 24  1  0
 11 25  1  0
 12 26  1  0
 15 27  1  0
 17 28  1  0
 18 29  1  0
 19 30  1  0
M  END
