
     RDKit          3D

 51 55  0  0  0  0  0  0  0  0999 V2000
   -2.8905    3.2070    0.6859 C   0  0  0  0  0  0  0  0  0  0  0  0
    0.8948   -1.7401   -0.1234 C   0  0  0  0  0  0  0  0  0  0  0  0
    2.5795    0.7861    0.7167 C   0  0  0  0  0  0  0  0  0  0  0  0
    4.8017    0.8997    0.6607 C   0  0  0  0  0  0  0  0  0  0  0  0
    7.0413    0.2837    0.3362 C   0  0  0  0  0  0  0  0  0  0  0  0
    0.1110   -2.9209   -0.5378 C   0  0  0  0  0  0  0  0  0  0  0  0
   -5.9388   -1.0080    0.5367 C   0  0  0  0  0  0  0  0  0  0  0  0
   -3.5709   -1.1313    0.3315 C   0  0  0  0  0  0  0  0  0  0  0  0
   -3.6408   -2.4427   -0.1755 C   0  0  0  0  0  0  0  0  0  0  0  0
   -2.4881   -3.1322   -0.4964 C   0  0  0  0  0  0  0  0  0  0  0  0
   -1.2633   -2.5089   -0.3068 C   0  0  0  0  0  0  0  0  0  0  0  0
   -1.2247   -1.2113    0.1971 C   0  0  0  0  0  0  0  0  0  0  0  0
   -2.3412   -0.4778    0.5364 C   0  0  0  0  0  0  0  0  0  0  0  0
   -2.2737    0.9251    1.0699 C   0  0  0  0  0  0  0  0  0  0  0  0
   -2.6714    1.9069    0.0797 N   0  0  0  0  0  0  0  0  0  0  0  0
   -1.7277    2.0050   -1.0184 C   0  0  0  0  0  0  0  0  0  0  0  0
   -2.2215    3.0009   -2.0512 C   0  0  0  0  0  0  0  0  0  0  0  0
   -2.4162    4.2959   -1.4269 N   0  0  0  0  0  0  0  0  0  0  0  0
   -3.3842    4.1991   -0.3507 C   0  0  0  0  0  0  0  0  0  0  0  0
    0.0458   -0.7495    0.3091 O   0  0  0  0  0  0  0  0  0  0  0  0
    2.9935   -0.4470    0.2437 C   0  0  0  0  0  0  0  0  0  0  0  0
    3.6506    1.5731    0.9596 N   0  0  0  0  0  0  0  0  0  0  0  0
    4.4288   -0.3796    0.2044 C   0  0  0  0  0  0  0  0  0  0  0  0
    5.3061   -1.3063   -0.1755 N   0  0  0  0  0  0  0  0  0  0  0  0
    6.5818   -0.9648   -0.1049 C   0  0  0  0  0  0  0  0  0  0  0  0
    6.1399    1.2546    0.7340 C   0  0  0  0  0  0  0  0  0  0  0  0
    0.5488   -3.9736   -0.9689 O   0  0  0  0  0  0  0  0  0  0  0  0
   -3.6390    3.1065    1.4757 H   0  0  0  0  0  0  0  0  0  0  0  0
   -1.9718    3.6015    1.1548 H   0  0  0  0  0  0  0  0  0  0  0  0
    8.1043    0.4784    0.3621 H   0  0  0  0  0  0  0  0  0  0  0  0
   -6.1662   -1.2682   -0.4991 H   0  0  0  0  0  0  0  0  0  0  0  0
   -6.0447   -1.8980    1.1609 H   0  0  0  0  0  0  0  0  0  0  0  0
   -6.6457   -0.2547    0.8736 H   0  0  0  0  0  0  0  0  0  0  0  0
   -4.5958   -2.9251   -0.3258 H   0  0  0  0  0  0  0  0  0  0  0  0
   -2.5464   -4.1386   -0.8900 H   0  0  0  0  0  0  0  0  0  0  0  0
   -2.9504    1.0113    1.9231 H   0  0  0  0  0  0  0  0  0  0  0  0
   -1.2636    1.1260    1.4612 H   0  0  0  0  0  0  0  0  0  0  0  0
   -0.7254    2.3094   -0.6671 H   0  0  0  0  0  0  0  0  0  0  0  0
   -1.6197    1.0289   -1.4965 H   0  0  0  0  0  0  0  0  0  0  0  0
   -1.4800    3.0897   -2.8474 H   0  0  0  0  0  0  0  0  0  0  0  0
   -3.1438    2.6048   -2.5057 H   0  0  0  0  0  0  0  0  0  0  0  0
   -2.7379    4.9614   -2.1172 H   0  0  0  0  0  0  0  0  0  0  0  0
   -4.3778    3.8762   -0.6999 H   0  0  0  0  0  0  0  0  0  0  0  0
   -3.5065    5.1775    0.1179 H   0  0  0  0  0  0  0  0  0  0  0  0
    3.5959    2.5148    1.3139 H   0  0  0  0  0  0  0  0  0  0  0  0
    7.3009   -1.7155   -0.4131 H   0  0  0  0  0  0  0  0  0  0  0  0
    6.4633    2.2267    1.0821 H   0  0  0  0  0  0  0  0  0  0  0  0
    2.2255   -1.5897   -0.1458 C   0  0  0  0  0  0  0  0  0  0  0  0
   -4.6526   -0.4260    0.6627 O   0  0  0  0  0  0  0  0  0  0  0  0
    1.5864    1.1612    0.8989 H   0  0  0  0  0  0  0  0  0  0  0  0
    2.7833   -2.4473   -0.5063 H   0  0  0  0  0  0  0  0  0  0  0  0
  3 22  1  0
  3 21  2  0
 22  4  1  0
 27  6  2  0
 48 21  1  0
 48  2  2  0
 21 23  1  0
  4 23  2  0
  4 26  1  0
  6  2  1  0
  6 11  1  0
  2 20  1  0
 23 24  1  0
 26  5  2  0
 11 10  1  0
 11 12  2  0
 20 12  1  0
 24 25  2  0
 10  9  2  0
  5 25  1  0
 12 13  1  0
  9  8  1  0
 13  8  2  0
 13 14  1  0
  8 49  1  0
  1 15  1  0
  1 19  1  0
 14 15  1  0
 15 16  1  0
 19 18  1  0
 49  7  1  0
 16 17  1  0
 18 17  1  0
  1 28  1  0
  1 29  1  0
  3 50  1  0
  5 30  1  0
  7 31  1  0
  7 32  1  0
  7 33  1  0
  9 34  1  0
 10 35  1  0
 14 36  1  0
 14 37  1  0
 16 38  1  0
 16 39  1  0
 17 40  1  0
 17 41  1  0
 18 42  1  0
 19 43  1  0
 19 44  1  0
 48 51  1  0
 22 45  1  0
 25 46  1  0
 26 47  1  0
M  END
