
     RDKit          3D

 34 36  0  0  0  0  0  0  0  0999 V2000
    0.6312   -2.7759    0.1988 O   0  0  0  0  0  0  0  0  0  0  0  0
    1.3221   -1.7905    0.0601 C   0  0  0  0  0  0  0  0  0  0  0  0
    2.6698   -1.7295   -0.1773 N   0  0  0  0  0  0  0  0  0  0  0  0
    3.0992   -0.4243   -0.2953 C   0  0  0  0  0  0  0  0  0  0  0  0
    1.9734    0.3827   -0.1190 C   0  0  0  0  0  0  0  0  0  0  0  0
    2.0489    1.7579   -0.1862 C   0  0  0  0  0  0  0  0  0  0  0  0
    3.3018    2.3155   -0.4303 C   0  0  0  0  0  0  0  0  0  0  0  0
    4.4258    1.5150   -0.6004 C   0  0  0  0  0  0  0  0  0  0  0  0
    4.3417    0.1266   -0.5360 C   0  0  0  0  0  0  0  0  0  0  0  0
    0.9001   -0.4685    0.1168 N   0  0  0  0  0  0  0  0  0  0  0  0
   -0.4515   -0.0768    0.2381 C   0  0  0  0  0  0  0  0  0  0  0  0
   -1.2854   -0.0302   -0.8723 C   0  0  0  0  0  0  0  0  0  0  0  0
   -0.9487    0.2833    1.4876 C   0  0  0  0  0  0  0  0  0  0  0  0
   -0.2007    0.2644    2.6008 O   0  0  0  0  0  0  0  0  0  0  0  0
   -2.2739    0.6884    1.5961 C   0  0  0  0  0  0  0  0  0  0  0  0
   -3.0895    0.7254    0.4745 C   0  0  0  0  0  0  0  0  0  0  0  0
   -4.3766    1.1155    0.5515 O   0  0  0  0  0  0  0  0  0  0  0  0
   -2.6083    0.3620   -0.7920 C   0  0  0  0  0  0  0  0  0  0  0  0
   -3.4983    0.3649   -2.0039 C   0  0  0  0  0  0  0  0  0  0  0  0
   -4.4339   -0.8417   -2.0583 C   0  0  0  0  0  0  0  0  0  0  0  0
    3.2375   -2.5530   -0.2743 H   0  0  0  0  0  0  0  0  0  0  0  0
    1.1733    2.3802   -0.0593 H   0  0  0  0  0  0  0  0  0  0  0  0
    3.3993    3.3906   -0.4879 H   0  0  0  0  0  0  0  0  0  0  0  0
    5.3857    1.9773   -0.7845 H   0  0  0  0  0  0  0  0  0  0  0  0
    5.2174   -0.4931   -0.6737 H   0  0  0  0  0  0  0  0  0  0  0  0
   -0.8769   -0.3139   -1.8352 H   0  0  0  0  0  0  0  0  0  0  0  0
    0.6849   -0.0573    2.3996 H   0  0  0  0  0  0  0  0  0  0  0  0
   -2.6530    0.9708    2.5719 H   0  0  0  0  0  0  0  0  0  0  0  0
   -4.6083    1.3344    1.4582 H   0  0  0  0  0  0  0  0  0  0  0  0
   -4.0855    1.2849   -2.0401 H   0  0  0  0  0  0  0  0  0  0  0  0
   -2.8700    0.3718   -2.8975 H   0  0  0  0  0  0  0  0  0  0  0  0
   -5.0464   -0.8172   -2.9602 H   0  0  0  0  0  0  0  0  0  0  0  0
   -3.8684   -1.7739   -2.0639 H   0  0  0  0  0  0  0  0  0  0  0  0
   -5.1049   -0.8632   -1.2011 H   0  0  0  0  0  0  0  0  0  0  0  0
 17 16  1  0
 16 15  2  0
 16 18  1  0
 19 18  1  0
 19 20  1  0
 15 13  1  0
 18 12  2  0
 13 14  1  0
 13 11  2  0
 12 11  1  0
 11 10  1  0
  6  7  1  0
  6  5  2  0
  7  8  2  0
  5 10  1  0
  5  4  1  0
 10  2  1  0
  8  9  1  0
  4  9  2  0
  4  3  1  0
  2  1  2  0
  2  3  1  0
  3 21  1  0
  6 22  1  0
  7 23  1  0
  8 24  1  0
  9 25  1  0
 12 26  1  0
 14 27  1  0
 15 28  1  0
 17 29  1  0
 19 30  1  0
 19 31  1  0
 20 32  1  0
 20 33  1  0
 20 34  1  0
M  END
