
     RDKit          3D

 14 13  0  0  0  0  0  0  0  0999 V2000
    1.7698    0.5706   -0.3864 N   0  0  0  0  0  0  0  0  0  0  0  0
    0.3274    0.4132   -0.3913 C   0  0  2  0  0  0  0  0  0  0  0  0
   -0.1431   -0.0779    0.9714 C   0  0  0  0  0  0  0  0  0  0  0  0
    0.2569   -1.0449    1.6234 O   0  0  0  0  0  0  0  0  0  0  0  0
   -0.2133   -0.5482   -1.4197 C   0  0  0  0  0  0  0  0  0  0  0  0
   -1.1379    0.6763    1.5086 O   0  0  0  0  0  0  0  0  0  0  0  0
   -1.0046   -0.1698   -2.4181 C   0  0  0  0  0  0  0  0  0  0  0  0
    2.2206   -0.2658   -0.0681 H   0  0  0  0  0  0  0  0  0  0  0  0
    2.0900    0.7933   -1.3083 H   0  0  0  0  0  0  0  0  0  0  0  0
   -0.1148    1.4433   -0.5625 H   0  0  0  0  0  0  0  0  0  0  0  0
    0.0970   -1.5968   -1.2838 H   0  0  0  0  0  0  0  0  0  0  0  0
   -1.3921    0.3127    2.3734 H   0  0  0  0  0  0  0  0  0  0  0  0
   -1.3871   -0.8833   -3.1614 H   0  0  0  0  0  0  0  0  0  0  0  0
   -1.3276    0.8703   -2.5651 H   0  0  0  0  0  0  0  0  0  0  0  0
  1  2  1  0
  1  8  1  0
  1  9  1  0
  2  3  1  0
  2  5  1  0
  2 10  1  6
  3  4  2  0
  3  6  1  0
  5  7  2  0
  5 11  1  0
  6 12  1  0
  7 13  1  0
  7 14  1  0
M  END
