
     RDKit          3D

 24 24  0  0  0  0  0  0  0  0999 V2000
   -4.7657   -0.1093    0.1142 Br  0  0  0  0  0  0  0  0  0  0  0  0
   -2.9030   -0.3628    0.0847 C   0  0  0  0  0  0  0  0  0  0  0  0
   -2.0494    0.7242    0.1360 C   0  0  0  0  0  0  0  0  0  0  0  0
   -0.7285    0.6021    0.1181 N   0  0  0  0  0  0  0  0  0  0  0  0
   -2.3571   -1.6393    0.0114 C   0  0  0  0  0  0  0  0  0  0  0  0
   -0.9860   -1.7664   -0.0091 C   0  0  0  0  0  0  0  0  0  0  0  0
   -0.2011   -0.6071    0.0452 C   0  0  0  0  0  0  0  0  0  0  0  0
    1.1763   -0.7640    0.0289 N   0  0  0  0  0  0  0  0  0  0  0  0
    2.1639    0.1859    0.0020 C   0  0  0  0  0  0  0  0  0  0  0  0
    1.9641    1.3794   -0.0220 O   0  0  0  0  0  0  0  0  0  0  0  0
    3.5499   -0.4262    0.0035 C   0  0  0  0  0  0  0  0  0  0  0  0
    4.6416    0.6245    0.0006 C   0  0  0  0  0  0  0  0  0  0  0  0
    6.0198    0.0233    0.0063 C   0  0  0  0  0  0  0  0  0  0  0  0
    6.9607    0.9614    0.0065 O   0  0  0  0  0  0  0  0  0  0  0  0
    6.2664   -1.1569    0.0091 O   0  0  0  0  0  0  0  0  0  0  0  0
   -2.4367    1.7355    0.1947 H   0  0  0  0  0  0  0  0  0  0  0  0
   -2.9828   -2.5206   -0.0315 H   0  0  0  0  0  0  0  0  0  0  0  0
   -0.5298   -2.7461   -0.0671 H   0  0  0  0  0  0  0  0  0  0  0  0
    1.4916   -1.7230    0.0157 H   0  0  0  0  0  0  0  0  0  0  0  0
    3.6403   -1.0786    0.8764 H   0  0  0  0  0  0  0  0  0  0  0  0
    3.6398   -1.0805   -0.8683 H   0  0  0  0  0  0  0  0  0  0  0  0
    4.5577    1.2754   -0.8734 H   0  0  0  0  0  0  0  0  0  0  0  0
    4.5542    1.2838    0.8680 H   0  0  0  0  0  0  0  0  0  0  0  0
    7.8384    0.5508    0.0082 H   0  0  0  0  0  0  0  0  0  0  0  0
  1  2  1  0
  2  5  2  0
  2  3  1  0
  3  4  2  0
  3 16  1  0
  4  7  1  0
  5  6  1  0
  5 17  1  0
  6  7  2  0
  6 18  1  0
  7  8  1  0
  9  8  1  0
  8 19  1  0
 10  9  2  0
  9 11  1  0
 11 12  1  0
 11 20  1  0
 11 21  1  0
 13 12  1  0
 12 22  1  0
 12 23  1  0
 15 13  2  0
 13 14  1  0
 14 24  1  0
M  END
