
     RDKit          3D

 36 36  0  0  0  0  0  0  0  0999 V2000
   -1.4493    0.8615   -0.0519 C   0  0  0  0  0  0  0  0  0  0  0  0
   -0.1312    0.1116   -0.0387 C   0  0  0  0  0  0  0  0  0  0  0  0
    1.0036    0.9619    0.4661 C   0  0  0  0  0  0  0  0  0  0  0  0
    0.8850    2.0263    1.0202 O   0  0  0  0  0  0  0  0  0  0  0  0
    2.1752    0.3790    0.2426 O   0  0  0  0  0  0  0  0  0  0  0  0
   -2.5917   -0.0207   -0.5019 C   0  0  0  0  0  0  0  0  0  0  0  0
   -2.4590   -1.2146   -0.7161 O   0  0  0  0  0  0  0  0  0  0  0  0
   -3.7897    0.5969   -0.6773 N   0  0  0  0  0  0  0  0  0  0  0  0
   -4.9497   -0.1824   -1.0016 C   0  0  0  0  0  0  0  0  0  0  0  0
    5.0993   -0.7079    1.1119 C   0  0  0  0  0  0  0  0  0  0  0  0
    6.1730   -1.4807    0.6892 C   0  0  0  0  0  0  0  0  0  0  0  0
    6.6853   -1.3165   -0.5909 C   0  0  0  0  0  0  0  0  0  0  0  0
    6.1218   -0.3769   -1.4455 C   0  0  0  0  0  0  0  0  0  0  0  0
    5.0502    0.3946   -1.0194 C   0  0  0  0  0  0  0  0  0  0  0  0
    4.5306    0.2361    0.2627 C   0  0  0  0  0  0  0  0  0  0  0  0
   -5.5732   -0.7962    0.2334 C   0  0  0  0  0  0  0  0  0  0  0  0
    3.3571    1.0530    0.7079 C   0  0  0  0  0  0  0  0  0  0  0  0
   -5.1457   -0.6618    1.3497 O   0  0  0  0  0  0  0  0  0  0  0  0
   -4.0455    1.9036   -0.2801 N   0  0  0  0  0  0  0  0  0  0  0  0
   -6.6553   -1.4966   -0.0737 O   0  0  0  0  0  0  0  0  0  0  0  0
   -1.3832    1.7342   -0.7060 H   0  0  0  0  0  0  0  0  0  0  0  0
   -1.6747    1.2529    0.9440 H   0  0  0  0  0  0  0  0  0  0  0  0
   -0.1916   -0.7694    0.6068 H   0  0  0  0  0  0  0  0  0  0  0  0
    0.1213   -0.2627   -1.0324 H   0  0  0  0  0  0  0  0  0  0  0  0
   -5.6805    0.4643   -1.4887 H   0  0  0  0  0  0  0  0  0  0  0  0
   -4.7059   -0.9735   -1.7118 H   0  0  0  0  0  0  0  0  0  0  0  0
    6.6097   -2.2097    1.3593 H   0  0  0  0  0  0  0  0  0  0  0  0
    7.5247   -1.9148   -0.9210 H   0  0  0  0  0  0  0  0  0  0  0  0
    6.5187   -0.2434   -2.4434 H   0  0  0  0  0  0  0  0  0  0  0  0
    4.6172    1.1297   -1.6876 H   0  0  0  0  0  0  0  0  0  0  0  0
    3.3991    2.0598    0.2882 H   0  0  0  0  0  0  0  0  0  0  0  0
    3.3280    1.1385    1.7960 H   0  0  0  0  0  0  0  0  0  0  0  0
   -3.8149    2.0388    0.6963 H   0  0  0  0  0  0  0  0  0  0  0  0
   -3.5092    2.5562   -0.8371 H   0  0  0  0  0  0  0  0  0  0  0  0
   -7.0500   -1.8753    0.7264 H   0  0  0  0  0  0  0  0  0  0  0  0
    4.7048   -0.8366    2.1129 H   0  0  0  0  0  0  0  0  0  0  0  0
  1  2  1  0
  1  6  1  0
  1 21  1  0
  1 22  1  0
  2  3  1  0
  2 23  1  0
  2 24  1  0
  3  4  2  0
  3  5  1  0
  5 17  1  0
  6  7  2  0
  6  8  1  0
  8  9  1  0
  8 19  1  0
  9 16  1  0
  9 25  1  0
  9 26  1  0
 10 11  2  0
 10 15  1  0
 10 36  1  0
 11 12  1  0
 11 27  1  0
 12 13  2  0
 12 28  1  0
 13 14  1  0
 13 29  1  0
 14 15  2  0
 14 30  1  0
 15 17  1  0
 16 18  2  0
 16 20  1  0
 17 31  1  0
 17 32  1  0
 19 33  1  0
 19 34  1  0
 20 35  1  0
M  END
