
     RDKit          3D

 31 31  0  0  0  0  0  0  0  0999 V2000
   -4.5292    0.5524   -0.2322 C   0  0  0  0  0  0  0  0  0  0  0  0
   -3.3938   -0.7373    1.5661 N   0  0  0  0  0  0  0  0  0  0  0  0
   -5.3673   -0.3008   -0.5361 O   0  0  0  0  0  0  0  0  0  0  0  0
    0.6829    0.4245   -0.3446 C   0  0  1  0  0  0  0  0  0  0  0  0
    1.8097    1.1083    0.4219 C   0  0  1  0  0  0  0  0  0  0  0  0
    3.1736    0.4349    0.3483 C   0  0  0  0  0  0  0  0  0  0  0  0
    3.2153   -1.0260    0.2024 C   0  0  0  0  0  0  0  0  0  0  0  0
    2.1775   -1.6488   -0.4110 C   0  0  0  0  0  0  0  0  0  0  0  0
    1.0029   -0.9106   -0.9411 C   0  0  0  0  0  0  0  0  0  0  0  0
    4.3911   -1.7472    0.7362 C   0  0  0  0  0  0  0  0  0  0  0  0
    2.1929   -3.0108   -0.5581 O   0  0  0  0  0  0  0  0  0  0  0  0
    1.8827    2.4314   -0.0940 O   0  0  0  0  0  0  0  0  0  0  0  0
   -3.3124    0.3965    0.6789 C   0  0  1  0  0  0  0  0  0  0  0  0
   -2.0666    0.3864   -0.2075 C   0  0  0  0  0  0  0  0  0  0  0  0
   -0.6455    0.1932    0.8265 S   0  0  0  0  0  0  0  0  0  0  0  0
    4.1863    1.1425    0.4129 O   0  0  0  0  0  0  0  0  0  0  0  0
    0.3229   -1.4057   -1.8508 O   0  0  0  0  0  0  0  0  0  0  0  0
   -4.6844    1.7949   -0.7602 O   0  0  0  0  0  0  0  0  0  0  0  0
   -4.2585   -0.7289    2.0724 H   0  0  0  0  0  0  0  0  0  0  0  0
   -3.3078   -1.6011    1.0677 H   0  0  0  0  0  0  0  0  0  0  0  0
    0.3495    1.1119   -1.1745 H   0  0  0  0  0  0  0  0  0  0  0  0
    1.5379    1.1643    1.5224 H   0  0  0  0  0  0  0  0  0  0  0  0
    4.2030   -2.0445    1.7996 H   0  0  0  0  0  0  0  0  0  0  0  0
    4.5903   -2.6753    0.1437 H   0  0  0  0  0  0  0  0  0  0  0  0
    1.4385   -3.2617   -1.1208 H   0  0  0  0  0  0  0  0  0  0  0  0
    2.7385    2.8003    0.1716 H   0  0  0  0  0  0  0  0  0  0  0  0
   -3.2870    1.3303    1.3253 H   0  0  0  0  0  0  0  0  0  0  0  0
   -2.1076   -0.4370   -0.9641 H   0  0  0  0  0  0  0  0  0  0  0  0
   -2.0144    1.3582   -0.7618 H   0  0  0  0  0  0  0  0  0  0  0  0
    5.2981   -1.0927    0.7071 H   0  0  0  0  0  0  0  0  0  0  0  0
   -5.4752    1.8154   -1.3251 H   0  0  0  0  0  0  0  0  0  0  0  0
  1  3  2  0
  1 13  1  0
  1 18  1  0
  2 13  1  0
  2 19  1  0
  2 20  1  0
  4  5  1  0
  4  9  1  0
  4 15  1  0
  4 21  1  6
  5  6  1  0
  5 12  1  0
  5 22  1  1
  6  7  1  0
  6 16  2  0
  7  8  2  0
  7 10  1  0
  8  9  1  0
  8 11  1  0
  9 17  2  0
 10 23  1  0
 10 24  1  0
 10 30  1  0
 11 25  1  0
 12 26  1  0
 13 14  1  0
 13 27  1  1
 14 15  1  0
 14 28  1  0
 14 29  1  0
 18 31  1  0
M  END
