
     RDKit          3D

 27 28  0  0  0  0  0  0  0  0999 V2000
   -0.2132   -0.9455   -0.9748 N   0  0  0  0  0  0  0  0  0  0  0  0
   -1.2896   -0.8646    0.0150 C   0  0  2  0  0  0  0  0  0  0  0  0
   -2.2023    0.3036   -0.3164 C   0  0  0  0  0  0  0  0  0  0  0  0
   -1.9315    1.4931   -0.4881 O   0  0  0  0  0  0  0  0  0  0  0  0
   -3.5105   -0.0567   -0.4336 O   0  0  0  0  0  0  0  0  0  0  0  0
   -0.6518   -0.6801    1.4126 C   0  0  0  0  0  0  0  0  0  0  0  0
    0.8534   -0.5202    1.1533 C   0  0  1  0  0  0  0  0  0  0  0  0
    1.0460   -1.1592   -0.2482 C   0  0  2  0  0  0  0  0  0  0  0  0
    1.2323    0.9485    1.2242 C   0  0  0  0  0  0  0  0  0  0  0  0
    2.5492    1.2495    0.5469 C   0  0  0  0  0  0  0  0  0  0  0  0
    2.5053    0.8153   -0.9029 C   0  0  0  0  0  0  0  0  0  0  0  0
    2.2813   -0.6750   -1.0027 C   0  0  0  0  0  0  0  0  0  0  0  0
   -0.3828   -1.6690   -1.6426 H   0  0  0  0  0  0  0  0  0  0  0  0
   -1.9405   -1.7883    0.0069 H   0  0  0  0  0  0  0  0  0  0  0  0
   -4.0474    0.7242   -0.6450 H   0  0  0  0  0  0  0  0  0  0  0  0
   -1.0765    0.2103    1.9366 H   0  0  0  0  0  0  0  0  0  0  0  0
   -0.8510   -1.5863    2.0347 H   0  0  0  0  0  0  0  0  0  0  0  0
    1.4549   -1.0983    1.9005 H   0  0  0  0  0  0  0  0  0  0  0  0
    1.1970   -2.2723   -0.0781 H   0  0  0  0  0  0  0  0  0  0  0  0
    0.4220    1.5611    0.7384 H   0  0  0  0  0  0  0  0  0  0  0  0
    1.2828    1.2553    2.3023 H   0  0  0  0  0  0  0  0  0  0  0  0
    2.7539    2.3501    0.6065 H   0  0  0  0  0  0  0  0  0  0  0  0
    3.3845    0.7223    1.0769 H   0  0  0  0  0  0  0  0  0  0  0  0
    1.6813    1.3594   -1.4355 H   0  0  0  0  0  0  0  0  0  0  0  0
    3.4703    1.0801   -1.4083 H   0  0  0  0  0  0  0  0  0  0  0  0
    3.1669   -1.2093   -0.5653 H   0  0  0  0  0  0  0  0  0  0  0  0
    2.2090   -0.9720   -2.0822 H   0  0  0  0  0  0  0  0  0  0  0  0
  1  2  1  0
  1  8  1  0
  1 13  1  0
  2  3  1  0
  2  6  1  0
  2 14  1  1
  3  4  2  0
  3  5  1  0
  5 15  1  0
  6  7  1  0
  6 16  1  0
  6 17  1  0
  7  8  1  0
  7  9  1  0
  7 18  1  1
  8 12  1  0
  8 19  1  1
  9 10  1  0
  9 20  1  0
  9 21  1  0
 10 11  1  0
 10 22  1  0
 10 23  1  0
 11 12  1  0
 11 24  1  0
 11 25  1  0
 12 26  1  0
 12 27  1  0
M  END
