
     RDKit          3D

175176  0  0  0  0  0  0  0  0999 V2000
    5.8144    2.9120   -1.2105 O   0  0  0  0  0  0  0  0  0  0  0  0
    3.2034    3.4522   -0.1749 C   0  0  2  0  0  0  0  0  0  0  0  0
    2.9889    5.2709    1.3375 O   0  0  0  0  0  0  0  0  0  0  0  0
    5.0309    3.9287    1.4272 C   0  0  1  0  0  0  0  0  0  0  0  0
    5.7132    4.7213    0.3188 C   0  0  2  0  0  0  0  0  0  0  0  0
   19.3569  -13.6633    2.3192 C   0  0  0  0  0  0  0  0  0  0  0  0
   18.7627  -12.2972    2.6331 C   0  0  0  0  0  0  0  0  0  0  0  0
   17.6449  -11.9045    1.6749 C   0  0  0  0  0  0  0  0  0  0  0  0
   17.0416  -10.5390    1.9782 C   0  0  0  0  0  0  0  0  0  0  0  0
   15.9284  -10.1435    1.0162 C   0  0  0  0  0  0  0  0  0  0  0  0
   15.3280   -8.7770    1.3219 C   0  0  0  0  0  0  0  0  0  0  0  0
   14.2172   -8.3743    0.3602 C   0  0  0  0  0  0  0  0  0  0  0  0
   13.6226   -7.0067    0.6719 C   0  0  0  0  0  0  0  0  0  0  0  0
   12.5133   -6.5930   -0.2868 C   0  0  0  0  0  0  0  0  0  0  0  0
   11.9279   -5.2237    0.0349 C   0  0  0  0  0  0  0  0  0  0  0  0
   10.8195   -4.7939   -0.9178 C   0  0  0  0  0  0  0  0  0  0  0  0
   10.2493   -3.4219   -0.5816 C   0  0  0  0  0  0  0  0  0  0  0  0
    8.6034   -1.5930   -1.1597 C   0  0  0  0  0  0  0  0  0  0  0  0
    7.4979   -1.0859   -2.0817 C   0  0  1  0  0  0  0  0  0  0  0  0
    6.3791   -1.9417   -2.0751 O   0  0  0  0  0  0  0  0  0  0  0  0
    7.1548    0.3849   -1.7613 C   0  0  1  0  0  0  0  0  0  0  0  0
    8.2657    1.1956   -2.0643 O   0  0  0  0  0  0  0  0  0  0  0  0
    5.8775    0.8864   -2.4654 C   0  0  2  0  0  0  0  0  0  0  0  0
    5.7889    2.4059   -2.5299 C   0  0  0  0  0  0  0  0  0  0  0  0
    5.2852    4.1859   -1.0525 C   0  0  2  0  0  0  0  0  0  0  0  0
    7.1029    4.6403    0.5123 O   0  0  0  0  0  0  0  0  0  0  0  0
    5.3422    4.4310    2.7017 O   0  0  0  0  0  0  0  0  0  0  0  0
    3.8879    4.2014   -1.1656 O   0  0  0  0  0  0  0  0  0  0  0  0
    1.7237    3.4959   -0.4888 C   0  0  0  0  0  0  0  0  0  0  0  0
    1.5025    2.7895   -1.6869 O   0  0  0  0  0  0  0  0  0  0  0  0
    3.5183    3.9722    1.2239 C   0  0  2  0  0  0  0  0  0  0  0  0
    2.6149    5.6999    2.6320 C   0  0  0  0  0  0  0  0  0  0  0  0
    1.4935    6.6891    2.4973 C   0  0  0  0  0  0  0  0  0  0  0  0
    0.2527    6.2885    2.0009 C   0  0  0  0  0  0  0  0  0  0  0  0
   -0.7820    7.1965    1.8606 C   0  0  0  0  0  0  0  0  0  0  0  0
   -0.6150    8.5392    2.2088 C   0  0  0  0  0  0  0  0  0  0  0  0
   -1.7446    9.5152    2.0538 C   0  0  0  0  0  0  0  0  0  0  0  0
    0.6228    8.9350    2.7015 C   0  0  0  0  0  0  0  0  0  0  0  0
    1.6637    8.0224    2.8409 C   0  0  0  0  0  0  0  0  0  0  0  0
    4.7045    0.3707   -1.7968 N   0  0  0  0  0  0  0  0  0  0  0  0
    3.6399   -0.1610   -2.4254 C   0  0  0  0  0  0  0  0  0  0  0  0
    3.5980   -0.3337   -3.6353 O   0  0  0  0  0  0  0  0  0  0  0  0
    2.4965   -0.5417   -1.5091 C   0  0  0  0  0  0  0  0  0  0  0  0
    1.1521   -0.6258   -2.2172 C   0  0  0  0  0  0  0  0  0  0  0  0
   -0.0070   -0.6883   -1.2314 C   0  0  0  0  0  0  0  0  0  0  0  0
   -1.3654   -0.7713   -1.9153 C   0  0  0  0  0  0  0  0  0  0  0  0
   -2.5321   -0.7818   -0.9356 C   0  0  0  0  0  0  0  0  0  0  0  0
   -3.8916   -0.8419   -1.6208 C   0  0  0  0  0  0  0  0  0  0  0  0
   -5.0602   -0.8442   -0.6430 C   0  0  0  0  0  0  0  0  0  0  0  0
   -6.4194   -0.8759   -1.3308 C   0  0  0  0  0  0  0  0  0  0  0  0
   -7.5898   -0.8775   -0.3552 C   0  0  0  0  0  0  0  0  0  0  0  0
   -8.9479   -0.8784   -1.0460 C   0  0  0  0  0  0  0  0  0  0  0  0
  -10.1205   -0.8792   -0.0729 C   0  0  0  0  0  0  0  0  0  0  0  0
  -11.4767   -0.8491   -0.7668 C   0  0  0  0  0  0  0  0  0  0  0  0
  -12.6518   -0.8508    0.2032 C   0  0  0  0  0  0  0  0  0  0  0  0
  -14.0056   -0.7935   -0.4936 C   0  0  0  0  0  0  0  0  0  0  0  0
  -15.1833   -0.7960    0.4732 C   0  0  0  0  0  0  0  0  0  0  0  0
  -16.5346   -0.7168   -0.2263 C   0  0  0  0  0  0  0  0  0  0  0  0
  -17.7148   -0.7202    0.7375 C   0  0  0  0  0  0  0  0  0  0  0  0
  -19.0638   -0.6253    0.0356 C   0  0  0  0  0  0  0  0  0  0  0  0
  -20.2461   -0.6297    0.9968 C   0  0  0  0  0  0  0  0  0  0  0  0
  -21.5934   -0.5260    0.2929 C   0  0  0  0  0  0  0  0  0  0  0  0
  -22.7771   -0.5307    1.2523 C   0  0  0  0  0  0  0  0  0  0  0  0
  -24.1236   -0.4251    0.5470 C   0  0  0  0  0  0  0  0  0  0  0  0
  -25.3077   -0.4300    1.5058 C   0  0  0  0  0  0  0  0  0  0  0  0
  -26.6555   -0.3278    0.8017 C   0  0  0  0  0  0  0  0  0  0  0  0
  -27.8295   -0.3348    1.7712 C   0  0  0  0  0  0  0  0  0  0  0  0
    3.5156    2.4005   -0.2070 H   0  0  0  0  0  0  0  0  0  0  0  0
    5.3375    2.8745    1.3456 H   0  0  0  0  0  0  0  0  0  0  0  0
    5.3690    5.7617    0.3805 H   0  0  0  0  0  0  0  0  0  0  0  0
   19.7688  -13.6897    1.3085 H   0  0  0  0  0  0  0  0  0  0  0  0
   20.1606  -13.9219    3.0098 H   0  0  0  0  0  0  0  0  0  0  0  0
   18.5999  -14.4470    2.3853 H   0  0  0  0  0  0  0  0  0  0  0  0
   18.3792  -12.2902    3.6583 H   0  0  0  0  0  0  0  0  0  0  0  0
   19.5507  -11.5383    2.6004 H   0  0  0  0  0  0  0  0  0  0  0  0
   18.0289  -11.9113    0.6484 H   0  0  0  0  0  0  0  0  0  0  0  0
   16.8569  -12.6654    1.7066 H   0  0  0  0  0  0  0  0  0  0  0  0
   16.6544  -10.5338    3.0034 H   0  0  0  0  0  0  0  0  0  0  0  0
   17.8314   -9.7799    1.9505 H   0  0  0  0  0  0  0  0  0  0  0  0
   16.3155  -10.1480   -0.0090 H   0  0  0  0  0  0  0  0  0  0  0  0
   15.1377  -10.9016    1.0434 H   0  0  0  0  0  0  0  0  0  0  0  0
   14.9396   -8.7738    2.3467 H   0  0  0  0  0  0  0  0  0  0  0  0
   16.1202   -8.0202    1.2979 H   0  0  0  0  0  0  0  0  0  0  0  0
   14.6051   -8.3762   -0.6647 H   0  0  0  0  0  0  0  0  0  0  0  0
   13.4236   -9.1294    0.3841 H   0  0  0  0  0  0  0  0  0  0  0  0
   13.2346   -7.0066    1.6969 H   0  0  0  0  0  0  0  0  0  0  0  0
   14.4183   -6.2534    0.6514 H   0  0  0  0  0  0  0  0  0  0  0  0
   12.9000   -6.5910   -1.3121 H   0  0  0  0  0  0  0  0  0  0  0  0
   11.7154   -7.3437   -0.2663 H   0  0  0  0  0  0  0  0  0  0  0  0
   11.5418   -5.2283    1.0606 H   0  0  0  0  0  0  0  0  0  0  0  0
   12.7286   -4.4759    0.0185 H   0  0  0  0  0  0  0  0  0  0  0  0
   11.2031   -4.7870   -1.9443 H   0  0  0  0  0  0  0  0  0  0  0  0
   10.0148   -5.5374   -0.9005 H   0  0  0  0  0  0  0  0  0  0  0  0
    9.8687   -3.4320    0.4461 H   0  0  0  0  0  0  0  0  0  0  0  0
   11.0578   -2.6824   -0.5948 H   0  0  0  0  0  0  0  0  0  0  0  0
    9.5191   -2.9545   -2.5516 H   0  0  0  0  0  0  0  0  0  0  0  0
    8.3294   -3.7058   -1.5082 H   0  0  0  0  0  0  0  0  0  0  0  0
    8.2238   -1.6074   -0.1296 H   0  0  0  0  0  0  0  0  0  0  0  0
    9.4272   -0.8749   -1.1666 H   0  0  0  0  0  0  0  0  0  0  0  0
    7.8620   -1.1112   -3.1185 H   0  0  0  0  0  0  0  0  0  0  0  0
    6.0204   -1.9733   -1.1817 H   0  0  0  0  0  0  0  0  0  0  0  0
    7.0069    0.4871   -0.6791 H   0  0  0  0  0  0  0  0  0  0  0  0
    8.5038    1.0603   -2.9885 H   0  0  0  0  0  0  0  0  0  0  0  0
    5.8620    0.5213   -3.4953 H   0  0  0  0  0  0  0  0  0  0  0  0
    4.8519    2.6637   -3.0341 H   0  0  0  0  0  0  0  0  0  0  0  0
    6.6089    2.8271   -3.1213 H   0  0  0  0  0  0  0  0  0  0  0  0
    5.6412    4.8586   -1.8456 H   0  0  0  0  0  0  0  0  0  0  0  0
    7.5244    5.3722    0.0522 H   0  0  0  0  0  0  0  0  0  0  0  0
    6.3016    4.4619    2.7824 H   0  0  0  0  0  0  0  0  0  0  0  0
    1.1892    3.0389    0.3547 H   0  0  0  0  0  0  0  0  0  0  0  0
    1.3861    4.5362   -0.5619 H   0  0  0  0  0  0  0  0  0  0  0  0
    0.5564    2.7753   -1.8546 H   0  0  0  0  0  0  0  0  0  0  0  0
    3.0435    3.2986    1.9531 H   0  0  0  0  0  0  0  0  0  0  0  0
    2.2852    4.8430    3.2337 H   0  0  0  0  0  0  0  0  0  0  0  0
    3.4569    6.1566    3.1593 H   0  0  0  0  0  0  0  0  0  0  0  0
    0.0891    5.2517    1.7297 H   0  0  0  0  0  0  0  0  0  0  0  0
   -1.7382    6.8588    1.4780 H   0  0  0  0  0  0  0  0  0  0  0  0
   -2.0655    9.5880    1.0134 H   0  0  0  0  0  0  0  0  0  0  0  0
   -2.6160    9.2072    2.6342 H   0  0  0  0  0  0  0  0  0  0  0  0
   -1.4589   10.5127    2.3847 H   0  0  0  0  0  0  0  0  0  0  0  0
    0.7832    9.9705    2.9775 H   0  0  0  0  0  0  0  0  0  0  0  0
    2.6200    8.3609    3.2227 H   0  0  0  0  0  0  0  0  0  0  0  0
    4.6314    0.5474   -0.8073 H   0  0  0  0  0  0  0  0  0  0  0  0
    2.7386   -1.5029   -1.0429 H   0  0  0  0  0  0  0  0  0  0  0  0
    2.4344    0.1818   -0.6920 H   0  0  0  0  0  0  0  0  0  0  0  0
    1.0223    0.2472   -2.8608 H   0  0  0  0  0  0  0  0  0  0  0  0
    1.1262   -1.4992   -2.8737 H   0  0  0  0  0  0  0  0  0  0  0  0
    0.1178   -1.5460   -0.5609 H   0  0  0  0  0  0  0  0  0  0  0  0
    0.0233    0.2022   -0.5933 H   0  0  0  0  0  0  0  0  0  0  0  0
   -1.4771    0.0773   -2.5999 H   0  0  0  0  0  0  0  0  0  0  0  0
   -1.4060   -1.6704   -2.5403 H   0  0  0  0  0  0  0  0  0  0  0  0
   -2.4284   -1.6345   -0.2553 H   0  0  0  0  0  0  0  0  0  0  0  0
   -2.4828    0.1141   -0.3063 H   0  0  0  0  0  0  0  0  0  0  0  0
   -3.9917    0.0113   -2.3012 H   0  0  0  0  0  0  0  0  0  0  0  0
   -3.9434   -1.7372   -2.2506 H   0  0  0  0  0  0  0  0  0  0  0  0
   -4.9706   -1.7058    0.0281 H   0  0  0  0  0  0  0  0  0  0  0  0
   -4.9986    0.0436   -0.0034 H   0  0  0  0  0  0  0  0  0  0  0  0
   -6.5070   -0.0115   -1.9988 H   0  0  0  0  0  0  0  0  0  0  0  0
   -6.4820   -1.7610   -1.9741 H   0  0  0  0  0  0  0  0  0  0  0  0
   -7.5138   -1.7513    0.3018 H   0  0  0  0  0  0  0  0  0  0  0  0
   -7.5167   -0.0014    0.2991 H   0  0  0  0  0  0  0  0  0  0  0  0
   -9.0216   -0.0021   -1.7000 H   0  0  0  0  0  0  0  0  0  0  0  0
   -9.0218   -1.7519   -1.7036 H   0  0  0  0  0  0  0  0  0  0  0  0
  -10.0588   -1.7647    0.5697 H   0  0  0  0  0  0  0  0  0  0  0  0
  -10.0363   -0.0150    0.5958 H   0  0  0  0  0  0  0  0  0  0  0  0
  -11.5366    0.0392   -1.4058 H   0  0  0  0  0  0  0  0  0  0  0  0
  -11.5608   -1.7101   -1.4395 H   0  0  0  0  0  0  0  0  0  0  0  0
  -12.6027   -1.7471    0.8319 H   0  0  0  0  0  0  0  0  0  0  0  0
  -12.5588    0.0015    0.8857 H   0  0  0  0  0  0  0  0  0  0  0  0
  -14.0531    0.1052   -1.1191 H   0  0  0  0  0  0  0  0  0  0  0  0
  -14.0981   -1.6430   -1.1795 H   0  0  0  0  0  0  0  0  0  0  0  0
  -15.1448   -1.7009    1.0903 H   0  0  0  0  0  0  0  0  0  0  0  0
  -15.0839    0.0464    1.1670 H   0  0  0  0  0  0  0  0  0  0  0  0
  -16.5719    0.1898   -0.8409 H   0  0  0  0  0  0  0  0  0  0  0  0
  -16.6334   -1.5571   -0.9227 H   0  0  0  0  0  0  0  0  0  0  0  0
  -17.6841   -1.6313    1.3459 H   0  0  0  0  0  0  0  0  0  0  0  0
  -17.6113    0.1148    1.4395 H   0  0  0  0  0  0  0  0  0  0  0  0
  -19.0936    0.2869   -0.5712 H   0  0  0  0  0  0  0  0  0  0  0  0
  -19.1666   -1.4588   -0.6684 H   0  0  0  0  0  0  0  0  0  0  0  0
  -20.2201   -1.5444    1.5999 H   0  0  0  0  0  0  0  0  0  0  0  0
  -20.1408    0.2008    1.7039 H   0  0  0  0  0  0  0  0  0  0  0  0
  -21.6189    0.3892   -0.3096 H   0  0  0  0  0  0  0  0  0  0  0  0
  -21.6981   -1.3558   -0.4151 H   0  0  0  0  0  0  0  0  0  0  0  0
  -22.7527   -1.4464    1.8540 H   0  0  0  0  0  0  0  0  0  0  0  0
  -22.6721    0.2985    1.9609 H   0  0  0  0  0  0  0  0  0  0  0  0
  -24.1479    0.4906   -0.0547 H   0  0  0  0  0  0  0  0  0  0  0  0
  -24.2282   -1.2544   -0.1616 H   0  0  0  0  0  0  0  0  0  0  0  0
  -25.2828   -1.3448    2.1092 H   0  0  0  0  0  0  0  0  0  0  0  0
  -25.2048    0.4004    2.2136 H   0  0  0  0  0  0  0  0  0  0  0  0
  -26.6809    0.5861    0.1996 H   0  0  0  0  0  0  0  0  0  0  0  0
  -26.7575   -1.1575    0.0950 H   0  0  0  0  0  0  0  0  0  0  0  0
  -27.8432   -1.2512    2.3643 H   0  0  0  0  0  0  0  0  0  0  0  0
  -27.7703    0.5055    2.4652 H   0  0  0  0  0  0  0  0  0  0  0  0
  -28.7844   -0.2659    1.2488 H   0  0  0  0  0  0  0  0  0  0  0  0
    9.1396   -2.9716   -1.5236 C   0  0  0  0  0  0  0  0  0  0  0  0
  7  6  1  0
  7  8  1  0
  9  8  1  0
  9 10  1  0
 11 10  1  0
 11 12  1  0
 12 13  1  0
 13 14  1  0
 14 15  1  0
 15 16  1  0
 16 17  1  0
 20 19  1  0
 17175  1  0
175 18  1  0
 19 18  1  0
 19 21  1  0
 21 22  1  0
 21 23  1  0
 47 48  1  0
 47 46  1  0
 50 49  1  0
 50 51  1  0
 26  5  1  0
 49 48  1  0
 27  4  1  0
 45 46  1  0
 45 44  1  0
 40 23  1  0
 40 41  1  0
 37 36  1  0
 23 24  1  0
 67 66  1  0
  4  5  1  0
  4 31  1  0
  5 25  1  0
  1 24  1  0
  1 25  1  0
 52 51  1  0
 52 53  1  0
 43 41  1  0
 43 44  1  0
 36 38  2  0
 36 35  1  0
 38 39  1  0
 41 42  2  0
 66 65  1  0
 25 28  1  0
 53 54  1  0
 35 34  2  0
 39 33  2  0
 31  3  1  0
 31  2  1  0
 65 64  1  0
  3 32  1  0
 33 34  1  0
 33 32  1  0
  2 28  1  0
  2 29  1  0
 54 55  1  0
 64 63  1  0
 55 56  1  0
 29 30  1  0
 63 62  1  0
 56 57  1  0
 61 62  1  0
 61 60  1  0
 58 57  1  0
 58 59  1  0
 59 60  1  0
  2 68  1  1
  4 69  1  1
  5 70  1  6
  6 71  1  0
  6 72  1  0
  6 73  1  0
  7 74  1  0
  7 75  1  0
  8 76  1  0
  8 77  1  0
  9 78  1  0
  9 79  1  0
 10 80  1  0
 10 81  1  0
 11 82  1  0
 11 83  1  0
 12 84  1  0
 12 85  1  0
 13 86  1  0
 13 87  1  0
 14 88  1  0
 14 89  1  0
 15 90  1  0
 15 91  1  0
 16 92  1  0
 16 93  1  0
 17 94  1  0
 17 95  1  0
175 96  1  0
175 97  1  0
 18 98  1  0
 18 99  1  0
 19100  1  6
 20101  1  0
 21102  1  1
 22103  1  0
 23104  1  6
 24105  1  0
 24106  1  0
 25107  1  6
 26108  1  0
 27109  1  0
 29110  1  0
 29111  1  0
 30112  1  0
 31113  1  1
 32114  1  0
 32115  1  0
 34116  1  0
 35117  1  0
 37118  1  0
 37119  1  0
 37120  1  0
 38121  1  0
 39122  1  0
 40123  1  0
 43124  1  0
 43125  1  0
 44126  1  0
 44127  1  0
 45128  1  0
 45129  1  0
 46130  1  0
 46131  1  0
 47132  1  0
 47133  1  0
 48134  1  0
 48135  1  0
 49136  1  0
 49137  1  0
 50138  1  0
 50139  1  0
 51140  1  0
 51141  1  0
 52142  1  0
 52143  1  0
 53144  1  0
 53145  1  0
 54146  1  0
 54147  1  0
 55148  1  0
 55149  1  0
 56150  1  0
 56151  1  0
 57152  1  0
 57153  1  0
 58154  1  0
 58155  1  0
 59156  1  0
 59157  1  0
 60158  1  0
 60159  1  0
 61160  1  0
 61161  1  0
 62162  1  0
 62163  1  0
 63164  1  0
 63165  1  0
 64166  1  0
 64167  1  0
 65168  1  0
 65169  1  0
 66170  1  0
 66171  1  0
 67172  1  0
 67173  1  0
 67174  1  0
M  END
