
     RDKit          3D

 75 78  0  0  0  0  0  0  0  0999 V2000
   -4.5856    1.5446   -0.9664 C   0  0  0  0  0  0  0  0  0  0  0  0
   -8.1584    0.5144   -1.2522 O   0  0  0  0  0  0  0  0  0  0  0  0
   -6.1027    1.6838   -0.9898 C   0  0  0  0  0  0  0  0  0  0  0  0
    4.4968   -1.6719    0.1122 O   0  0  0  0  0  0  0  0  0  0  0  0
   -6.7563    0.3383   -1.2306 C   0  0  1  0  0  0  0  0  0  0  0  0
   -6.3222   -0.6432   -0.1458 C   0  0  0  0  0  0  0  0  0  0  0  0
   -4.8234   -0.7563   -0.0476 C   0  0  0  0  0  0  0  0  0  0  0  0
   -4.2360   -1.9521   -0.0540 C   0  0  0  0  0  0  0  0  0  0  0  0
   -2.7693   -2.1889    0.0846 C   0  0  0  0  0  0  0  0  0  0  0  0
   -1.9970   -0.9428    0.5046 C   0  0  2  0  0  0  0  0  0  0  0  0
   -2.5437    0.2899   -0.2260 C   0  0  1  0  0  0  0  0  0  0  0  0
   -4.0433    0.5429    0.0749 C   0  0  1  0  0  0  0  0  0  0  0  0
   -1.6596    1.5188    0.0094 C   0  0  0  0  0  0  0  0  0  0  0  0
   -0.1712    1.2770   -0.2585 C   0  0  0  0  0  0  0  0  0  0  0  0
    0.3724    0.0938    0.5491 C   0  0  1  0  0  0  0  0  0  0  0  0
   -0.5193   -1.1086    0.1924 C   0  0  1  0  0  0  0  0  0  0  0  0
    0.2052   -2.3013    0.7960 C   0  0  0  0  0  0  0  0  0  0  0  0
    1.6929   -1.9477    0.6161 C   0  0  0  0  0  0  0  0  0  0  0  0
    1.7612   -0.4727    0.1279 C   0  0  2  0  0  0  0  0  0  0  0  0
    0.3497    0.3861    2.0537 C   0  0  0  0  0  0  0  0  0  0  0  0
   -4.2538    1.0993    1.4919 C   0  0  0  0  0  0  0  0  0  0  0  0
    3.0446    0.2694    0.5643 C   0  0  2  0  0  0  0  0  0  0  0  0
    2.9566    1.7767    0.3231 C   0  0  0  0  0  0  0  0  0  0  0  0
    4.2948   -0.2965   -0.1540 C   0  0  1  0  0  0  0  0  0  0  0  0
    5.5834    0.4825    0.1316 C   0  0  0  0  0  0  0  0  0  0  0  0
    6.8147   -0.1085   -0.5468 C   0  0  0  0  0  0  0  0  0  0  0  0
    8.1245    0.6050   -0.2042 C   0  0  1  0  0  0  0  0  0  0  0  0
    9.3011   -0.1146   -0.8566 C   0  0  0  0  0  0  0  0  0  0  0  0
    8.1160    2.0769   -0.6063 C   0  0  0  0  0  0  0  0  0  0  0  0
   -4.2468    1.2295   -1.9600 H   0  0  0  0  0  0  0  0  0  0  0  0
   -4.1448    2.5279   -0.7892 H   0  0  0  0  0  0  0  0  0  0  0  0
   -8.5635   -0.3329   -1.4618 H   0  0  0  0  0  0  0  0  0  0  0  0
   -6.4665    2.1052   -0.0464 H   0  0  0  0  0  0  0  0  0  0  0  0
   -6.3875    2.3870   -1.7772 H   0  0  0  0  0  0  0  0  0  0  0  0
   -6.4054   -0.0468   -2.2014 H   0  0  0  0  0  0  0  0  0  0  0  0
   -6.7431   -0.2990    0.8068 H   0  0  0  0  0  0  0  0  0  0  0  0
   -6.7522   -1.6312   -0.3375 H   0  0  0  0  0  0  0  0  0  0  0  0
   -4.8597   -2.8359   -0.1630 H   0  0  0  0  0  0  0  0  0  0  0  0
   -2.6004   -2.9955    0.8050 H   0  0  0  0  0  0  0  0  0  0  0  0
   -2.3743   -2.5679   -0.8681 H   0  0  0  0  0  0  0  0  0  0  0  0
   -2.1241   -0.8097    1.5860 H   0  0  0  0  0  0  0  0  0  0  0  0
   -2.4809    0.0573   -1.3000 H   0  0  0  0  0  0  0  0  0  0  0  0
   -1.9918    2.3419   -0.6286 H   0  0  0  0  0  0  0  0  0  0  0  0
   -1.7805    1.8750    1.0355 H   0  0  0  0  0  0  0  0  0  0  0  0
   -0.0204    1.0712   -1.3251 H   0  0  0  0  0  0  0  0  0  0  0  0
    0.3632    2.2037   -0.0486 H   0  0  0  0  0  0  0  0  0  0  0  0
   -0.4510   -1.2138   -0.9026 H   0  0  0  0  0  0  0  0  0  0  0  0
   -0.0547   -2.4156    1.8524 H   0  0  0  0  0  0  0  0  0  0  0  0
   -0.0605   -3.2411    0.3082 H   0  0  0  0  0  0  0  0  0  0  0  0
    2.2341   -2.0644    1.5576 H   0  0  0  0  0  0  0  0  0  0  0  0
    2.1711   -2.6169   -0.0948 H   0  0  0  0  0  0  0  0  0  0  0  0
    1.7588   -0.4742   -0.9716 H   0  0  0  0  0  0  0  0  0  0  0  0
   -0.6539    0.5911    2.4263 H   0  0  0  0  0  0  0  0  0  0  0  0
    0.7354   -0.4499    2.6390 H   0  0  0  0  0  0  0  0  0  0  0  0
    0.9590    1.2564    2.3031 H   0  0  0  0  0  0  0  0  0  0  0  0
   -5.3083    1.1152    1.7692 H   0  0  0  0  0  0  0  0  0  0  0  0
   -3.7397    0.4901    2.2370 H   0  0  0  0  0  0  0  0  0  0  0  0
   -3.8882    2.1229    1.5862 H   0  0  0  0  0  0  0  0  0  0  0  0
    3.1854    0.1143    1.6443 H   0  0  0  0  0  0  0  0  0  0  0  0
    2.1096    2.2158    0.8412 H   0  0  0  0  0  0  0  0  0  0  0  0
    3.8395    2.2994    0.6863 H   0  0  0  0  0  0  0  0  0  0  0  0
    2.8479    2.0062   -0.7400 H   0  0  0  0  0  0  0  0  0  0  0  0
    4.1036   -0.2421   -1.2337 H   0  0  0  0  0  0  0  0  0  0  0  0
    5.4625    1.5116   -0.2060 H   0  0  0  0  0  0  0  0  0  0  0  0
    5.7445    0.5330    1.2170 H   0  0  0  0  0  0  0  0  0  0  0  0
    6.9181   -1.1622   -0.2772 H   0  0  0  0  0  0  0  0  0  0  0  0
    6.6734   -0.0852   -1.6350 H   0  0  0  0  0  0  0  0  0  0  0  0
    8.2574    0.5512    0.8836 H   0  0  0  0  0  0  0  0  0  0  0  0
    9.2378   -0.0567   -1.9463 H   0  0  0  0  0  0  0  0  0  0  0  0
   10.2537    0.3259   -0.5577 H   0  0  0  0  0  0  0  0  0  0  0  0
    9.3233   -1.1715   -0.5842 H   0  0  0  0  0  0  0  0  0  0  0  0
    9.0819    2.5438   -0.4044 H   0  0  0  0  0  0  0  0  0  0  0  0
    7.9123    2.1862   -1.6748 H   0  0  0  0  0  0  0  0  0  0  0  0
    7.3617    2.6501   -0.0662 H   0  0  0  0  0  0  0  0  0  0  0  0
    4.6573   -1.7691    1.0570 H   0  0  0  0  0  0  0  0  0  0  0  0
  1  3  1  0
  1 12  1  0
  2  5  1  0
  3  5  1  0
  4 24  1  0
  5  6  1  0
  6  7  1  0
  7  8  2  0
  7 12  1  0
  8  9  1  0
  9 10  1  0
 10 11  1  0
 10 16  1  0
 11 12  1  0
 11 13  1  0
 12 21  1  1
 13 14  1  0
 14 15  1  0
 15 16  1  0
 15 19  1  0
 15 20  1  1
 16 17  1  0
 17 18  1  0
 18 19  1  0
 19 22  1  0
 22 23  1  0
 22 24  1  0
 24 25  1  0
 25 26  1  0
 26 27  1  0
 27 28  1  0
 27 29  1  0
  1 30  1  0
  1 31  1  0
  2 32  1  0
  3 33  1  0
  3 34  1  0
  4 75  1  0
  5 35  1  6
  6 36  1  0
  6 37  1  0
  8 38  1  0
  9 39  1  0
  9 40  1  0
 10 41  1  1
 11 42  1  6
 13 43  1  0
 13 44  1  0
 14 45  1  0
 14 46  1  0
 16 47  1  6
 17 48  1  0
 17 49  1  0
 18 50  1  0
 18 51  1  0
 19 52  1  6
 20 53  1  0
 20 54  1  0
 20 55  1  0
 21 56  1  0
 21 57  1  0
 21 58  1  0
 22 59  1  1
 23 60  1  0
 23 61  1  0
 23 62  1  0
 24 63  1  6
 25 64  1  0
 25 65  1  0
 26 66  1  0
 26 67  1  0
 27 68  1  1
 28 69  1  0
 28 70  1  0
 28 71  1  0
 29 72  1  0
 29 73  1  0
 29 74  1  0
M  END
