
     RDKit          3D

 58 61  0  0  0  0  0  0  0  0999 V2000
   -3.0447   -0.1511    0.7340 C   0  0  2  0  0  0  0  0  0  0  0  0
   -3.3236   -1.4690    0.0138 C   0  0  0  0  0  0  0  0  0  0  0  0
   -2.3918   -2.5832    0.5006 C   0  0  1  0  0  0  0  0  0  0  0  0
   -0.7306   -0.7461    0.6552 C   0  0  0  0  0  0  0  0  0  0  0  0
   -2.3969   -3.7553   -0.4777 C   0  0  1  0  0  0  0  0  0  0  0  0
   -1.8203   -4.8497    0.0202 F   0  0  0  0  0  0  0  0  0  0  0  0
   -3.6553   -4.0929   -0.7866 F   0  0  0  0  0  0  0  0  0  0  0  0
   -3.9798    0.9279    0.2562 C   0  0  0  0  0  0  0  0  0  0  0  0
   -5.0557    1.3160    1.0453 C   0  0  0  0  0  0  0  0  0  0  0  0
   -5.9535    2.2750    0.5969 C   0  0  0  0  0  0  0  0  0  0  0  0
   -5.7994    2.8734   -0.6503 C   0  0  0  0  0  0  0  0  0  0  0  0
   -6.7429    3.9469   -1.1158 C   0  0  0  0  0  0  0  0  0  0  0  0
   -6.2761    5.3398   -0.6959 C   0  0  0  0  0  0  0  0  0  0  0  0
   -4.7154    2.4832   -1.4345 C   0  0  0  0  0  0  0  0  0  0  0  0
   -3.8176    1.5239   -0.9914 C   0  0  0  0  0  0  0  0  0  0  0  0
   -1.6638    0.2153    0.4760 N   0  0  0  0  0  0  0  0  0  0  0  0
   -1.0550   -2.0529    0.6418 N   0  0  0  0  0  0  0  0  0  0  0  0
    0.0145   -2.8549    0.8583 N   0  0  0  0  0  0  0  0  0  0  0  0
    1.0263   -2.0403    0.9886 C   0  0  0  0  0  0  0  0  0  0  0  0
    0.6446   -0.6832    0.8758 C   0  0  0  0  0  0  0  0  0  0  0  0
    1.4037    0.5548    0.9951 C   0  0  0  0  0  0  0  0  0  0  0  0
    0.8582    1.6501    0.8475 O   0  0  0  0  0  0  0  0  0  0  0  0
    2.7154    0.4260    1.2746 N   0  0  0  0  0  0  0  0  0  0  0  0
    3.6241    1.5369    1.4516 C   0  0  0  0  0  0  0  0  0  0  0  0
    4.9174    1.3141    0.7152 C   0  0  0  0  0  0  0  0  0  0  0  0
    4.9366    1.1816   -0.6747 C   0  0  0  0  0  0  0  0  0  0  0  0
    6.1192    0.9788   -1.3571 C   0  0  0  0  0  0  0  0  0  0  0  0
    7.3301    0.8986   -0.6615 C   0  0  0  0  0  0  0  0  0  0  0  0
    8.4330    0.6964   -1.4072 O   0  0  0  0  0  0  0  0  0  0  0  0
    9.6780    0.5762   -0.7494 C   0  0  0  0  0  0  0  0  0  0  0  0
    7.3274    1.0280    0.7231 C   0  0  0  0  0  0  0  0  0  0  0  0
    6.1234    1.2312    1.3923 C   0  0  0  0  0  0  0  0  0  0  0  0
   -3.2090   -0.3008    1.8099 H   0  0  0  0  0  0  0  0  0  0  0  0
   -4.3541   -1.7650    0.2008 H   0  0  0  0  0  0  0  0  0  0  0  0
   -3.2097   -1.3075   -1.0609 H   0  0  0  0  0  0  0  0  0  0  0  0
   -2.7381   -2.9596    1.4685 H   0  0  0  0  0  0  0  0  0  0  0  0
   -5.1964    0.8677    2.0221 H   0  0  0  0  0  0  0  0  0  0  0  0
   -6.7838    2.5637    1.2310 H   0  0  0  0  0  0  0  0  0  0  0  0
   -6.8352    3.9091   -2.2036 H   0  0  0  0  0  0  0  0  0  0  0  0
   -7.7406    3.7598   -0.7124 H   0  0  0  0  0  0  0  0  0  0  0  0
   -6.9740    6.1043   -1.0392 H   0  0  0  0  0  0  0  0  0  0  0  0
   -6.1998    5.4188    0.3894 H   0  0  0  0  0  0  0  0  0  0  0  0
   -5.2960    5.5683   -1.1167 H   0  0  0  0  0  0  0  0  0  0  0  0
   -4.5722    2.9323   -2.4106 H   0  0  0  0  0  0  0  0  0  0  0  0
   -2.9859    1.2383   -1.6242 H   0  0  0  0  0  0  0  0  0  0  0  0
   -1.3661    1.1403    0.7499 H   0  0  0  0  0  0  0  0  0  0  0  0
    2.0134   -2.4447    1.1621 H   0  0  0  0  0  0  0  0  0  0  0  0
    3.0898   -0.4926    1.4483 H   0  0  0  0  0  0  0  0  0  0  0  0
    3.1273    2.4360    1.0887 H   0  0  0  0  0  0  0  0  0  0  0  0
    3.8291    1.6950    2.5143 H   0  0  0  0  0  0  0  0  0  0  0  0
    4.0115    1.2389   -1.2364 H   0  0  0  0  0  0  0  0  0  0  0  0
    6.1173    0.8821   -2.4358 H   0  0  0  0  0  0  0  0  0  0  0  0
   10.4217    0.4060   -1.5239 H   0  0  0  0  0  0  0  0  0  0  0  0
    9.9422    1.4856   -0.2031 H   0  0  0  0  0  0  0  0  0  0  0  0
    9.6941   -0.2685   -0.0556 H   0  0  0  0  0  0  0  0  0  0  0  0
    8.2407    0.9715    1.2999 H   0  0  0  0  0  0  0  0  0  0  0  0
    6.1394    1.3248    2.4721 H   0  0  0  0  0  0  0  0  0  0  0  0
   -1.7709   -3.4546   -1.6189 F   0  0  0  0  0  0  0  0  0  0  0  0
  5  7  1  6
 58  5  1  0
  5  3  1  0
  5  6  1  0
  3  2  1  0
  3 17  1  0
  2  1  1  0
 15 14  2  0
 15  8  1  0
 17 18  1  0
 17  4  1  0
  1  8  1  0
  1 16  1  0
 14 11  1  0
 18 19  2  0
  8  9  2  0
 11 12  1  0
 11 10  2  0
  4 16  1  0
  4 20  2  0
 12 13  1  0
  9 10  1  0
 19 20  1  0
 20 21  1  0
 21 22  2  0
 21 23  1  0
 23 24  1  0
 24 25  1  0
 25 26  2  0
 25 32  1  0
 26 27  1  0
 32 31  2  0
 27 28  2  0
 31 28  1  0
 28 29  1  0
 29 30  1  0
  1 33  1  1
  2 34  1  0
  2 35  1  0
  3 36  1  1
  9 37  1  0
 10 38  1  0
 12 39  1  0
 12 40  1  0
 13 41  1  0
 13 42  1  0
 13 43  1  0
 14 44  1  0
 15 45  1  0
 16 46  1  0
 19 47  1  0
 23 48  1  0
 24 49  1  0
 24 50  1  0
 26 51  1  0
 27 52  1  0
 30 53  1  0
 30 54  1  0
 30 55  1  0
 31 56  1  0
 32 57  1  0
M  END
