
     RDKit          3D

 16 17  0  0  0  0  0  0  0  0999 V2000
   -1.2106   -0.6253   -0.0275 C   0  0  0  0  0  0  0  0  0  0  0  0
   -1.1113    0.7506   -0.0175 C   0  0  0  0  0  0  0  0  0  0  0  0
   -3.2218    0.1531   -0.0083 C   0  0  0  0  0  0  0  0  0  0  0  0
    0.9235   -0.1023   -0.0367 C   0  0  0  0  0  0  0  0  0  0  0  0
    2.3748   -0.1457   -0.0438 C   0  0  0  0  0  0  0  0  0  0  0  0
    3.0192   -1.1704   -0.0572 O   0  0  0  0  0  0  0  0  0  0  0  0
    2.9197    1.0686   -0.0337 O   0  0  0  0  0  0  0  0  0  0  0  0
    0.1986    1.0701   -0.0229 N   0  0  0  0  0  0  0  0  0  0  0  0
    0.0635   -1.1946   -0.0393 C   0  0  0  0  0  0  0  0  0  0  0  0
   -2.5054   -1.0051   -0.0223 O   0  0  0  0  0  0  0  0  0  0  0  0
   -2.4405    1.2641   -0.0046 C   0  0  0  0  0  0  0  0  0  0  0  0
   -4.2942    0.0434   -0.0016 H   0  0  0  0  0  0  0  0  0  0  0  0
    3.8854    0.9981   -0.0373 H   0  0  0  0  0  0  0  0  0  0  0  0
    0.3547   -2.2321   -0.0486 H   0  0  0  0  0  0  0  0  0  0  0  0
   -2.7866    2.2842    0.0070 H   0  0  0  0  0  0  0  0  0  0  0  0
    0.5867    1.9996   -0.0216 H   0  0  0  0  0  0  0  0  0  0  0  0
  9  1  1  0
  1 10  1  0
  1  2  2  0
  8  2  1  0
  2 11  1  0
 10  3  1  0
  3 11  2  0
  3 12  1  0
  5  4  1  0
  9  4  2  0
  4  8  1  0
  6  5  2  0
  5  7  1  0
  7 13  1  0
  9 14  1  0
 11 15  1  0
  8 16  1  0
M  END
