
     RDKit          3D

 13 13  0  0  0  0  0  0  0  0999 V2000
    1.2660   -2.7961   -0.0301 Cl  0  0  0  0  0  0  0  0  0  0  0  0
    0.4218   -1.2944   -0.0301 C   0  0  0  0  0  0  0  0  0  0  0  0
    1.1657   -0.1165   -0.1153 C   0  0  0  0  0  0  0  0  0  0  0  0
    0.4552    1.0843   -0.1120 C   0  0  0  0  0  0  0  0  0  0  0  0
    1.3461    2.5622   -0.2189 Cl  0  0  0  0  0  0  0  0  0  0  0  0
    2.4921   -0.2045   -0.1938 O   0  0  0  0  0  0  0  0  0  0  0  0
   -0.9586   -1.2842    0.0549 C   0  0  0  0  0  0  0  0  0  0  0  0
   -1.6216   -0.0679    0.0550 C   0  0  0  0  0  0  0  0  0  0  0  0
   -3.3467   -0.0400    0.1610 Cl  0  0  0  0  0  0  0  0  0  0  0  0
   -0.9256    1.1247   -0.0275 C   0  0  0  0  0  0  0  0  0  0  0  0
    2.8987    0.6700   -0.2608 H   0  0  0  0  0  0  0  0  0  0  0  0
   -1.5040   -2.2149    0.1220 H   0  0  0  0  0  0  0  0  0  0  0  0
   -1.4420    2.0742   -0.0264 H   0  0  0  0  0  0  0  0  0  0  0  0
  1  2  1  0
  9  8  1  0
  7  2  2  0
  7  8  1  0
  2  3  1  0
  8 10  2  0
  3  6  1  0
  3  4  2  0
 10  4  1  0
  4  5  1  0
  6 11  1  0
  7 12  1  0
 10 13  1  0
M  END
