
     RDKit          3D

 27 28  0  0  0  0  0  0  0  0999 V2000
   -0.1392    1.4321    0.2077 C   0  0  0  0  0  0  0  0  0  0  0  0
    3.0431    0.8213    0.4839 C   0  0  0  0  0  0  0  0  0  0  0  0
   -4.5939   -0.3071   -0.4193 C   0  0  0  0  0  0  0  0  0  0  0  0
    3.5741    0.3017   -0.6866 C   0  0  0  0  0  0  0  0  0  0  0  0
   -2.4165    0.7153   -0.2917 C   0  0  0  0  0  0  0  0  0  0  0  0
   -3.9013   -0.5350    0.7201 C   0  0  0  0  0  0  0  0  0  0  0  0
    4.2025   -1.6719    0.5358 C   0  0  0  0  0  0  0  0  0  0  0  0
    4.1512   -0.9555   -0.6589 C   0  0  0  0  0  0  0  0  0  0  0  0
    3.0859    0.1221    1.6783 C   0  0  0  0  0  0  0  0  0  0  0  0
    3.6731   -1.1308    1.6976 C   0  0  0  0  0  0  0  0  0  0  0  0
    0.8658    2.2042   -0.3440 N   0  0  0  0  0  0  0  0  0  0  0  0
   -1.2716    1.4257   -0.5664 N   0  0  0  0  0  0  0  0  0  0  0  0
   -2.6701    0.0516    0.7831 N   0  0  0  0  0  0  0  0  0  0  0  0
    2.0979    2.8895    1.7821 O   0  0  0  0  0  0  0  0  0  0  0  0
    3.0824    3.2551   -0.4993 O   0  0  0  0  0  0  0  0  0  0  0  0
    0.0034    0.8393    1.2473 O   0  0  0  0  0  0  0  0  0  0  0  0
    2.3289    2.4376    0.4294 S   0  0  1  0  0  0  0  0  0  0  0  0
   -3.6735    0.6844   -1.4939 S   0  0  0  0  0  0  0  0  0  0  0  0
    4.8061   -1.6121   -2.1038 Cl  0  0  0  0  0  0  0  0  0  0  0  0
    4.9240   -3.2263    0.5838 Cl  0  0  0  0  0  0  0  0  0  0  0  0
    3.5441    0.8533   -1.6167 H   0  0  0  0  0  0  0  0  0  0  0  0
   -4.2572   -1.1272    1.5510 H   0  0  0  0  0  0  0  0  0  0  0  0
    2.6786    0.5341    2.5895 H   0  0  0  0  0  0  0  0  0  0  0  0
    3.7221   -1.6906    2.6210 H   0  0  0  0  0  0  0  0  0  0  0  0
    0.7780    2.6475   -1.2512 H   0  0  0  0  0  0  0  0  0  0  0  0
   -1.2675    1.9678   -1.4185 H   0  0  0  0  0  0  0  0  0  0  0  0
   -6.2842   -0.9085   -0.8744 Br  0  0  0  0  0  0  0  0  0  0  0  0
 13  6  1  0
 13  5  2  0
 12  5  1  0
 12  1  1  0
 10  9  2  0
 10  7  1  0
  9  2  1  0
  6  3  2  0
 11  1  1  0
 17 11  1  6
  5 18  1  0
 15 17  2  0
  1 16  2  0
 20  7  1  0
  7  8  2  0
  2 17  1  0
  2  4  2  0
 17 14  2  0
  3 18  1  0
  3 27  1  0
  8  4  1  0
  8 19  1  0
  4 21  1  0
  6 22  1  0
  9 23  1  0
 10 24  1  0
 11 25  1  0
 12 26  1  0
M  END
