
     RDKit          3D

 55 58  0  0  0  0  0  0  0  0999 V2000
    5.6900   -0.7946    1.7459 O   0  0  0  0  0  0  0  0  0  0  0  0
    4.9600    0.2333    1.0142 S   0  0  1  0  0  0  0  0  0  0  0  0
    4.8661    1.5659    1.5968 O   0  0  0  0  0  0  0  0  0  0  0  0
    5.6059    0.2291   -0.4915 N   0  0  0  0  0  0  0  0  0  0  0  0
    5.4856    1.3224   -1.4809 C   0  0  1  0  0  0  0  0  0  0  0  0
    4.0306    1.7517   -1.6364 C   0  0  0  0  0  0  0  0  0  0  0  0
    6.3699    2.5123   -1.1067 C   0  0  0  0  0  0  0  0  0  0  0  0
    5.9700    0.7181   -2.7976 C   0  0  0  0  0  0  0  0  0  0  0  0
    3.3064   -0.3531    0.7637 C   0  0  0  0  0  0  0  0  0  0  0  0
    3.1199   -1.5700    0.1207 C   0  0  0  0  0  0  0  0  0  0  0  0
    1.8394   -2.0673   -0.0296 C   0  0  0  0  0  0  0  0  0  0  0  0
    0.7359   -1.3645    0.4633 C   0  0  0  0  0  0  0  0  0  0  0  0
    0.9509   -0.1491    1.1120 C   0  0  0  0  0  0  0  0  0  0  0  0
    2.2304    0.3604    1.2654 C   0  0  0  0  0  0  0  0  0  0  0  0
   -0.6259   -1.8963    0.2961 C   0  0  0  0  0  0  0  0  0  0  0  0
   -0.8761   -3.2867    0.4011 C   0  0  0  0  0  0  0  0  0  0  0  0
   -2.0570   -3.8261    0.3089 N   0  0  0  0  0  0  0  0  0  0  0  0
   -3.1284   -3.0299    0.0771 C   0  0  0  0  0  0  0  0  0  0  0  0
   -4.4041   -3.6255    0.0211 C   0  0  0  0  0  0  0  0  0  0  0  0
   -5.5016   -2.8391   -0.2005 C   0  0  0  0  0  0  0  0  0  0  0  0
   -5.3855   -1.4535   -0.4034 C   0  0  0  0  0  0  0  0  0  0  0  0
   -4.1543   -0.8368   -0.3648 C   0  0  0  0  0  0  0  0  0  0  0  0
   -2.9947   -1.6264   -0.0866 C   0  0  0  0  0  0  0  0  0  0  0  0
   -1.7033   -1.0810    0.0535 C   0  0  0  0  0  0  0  0  0  0  0  0
   -3.9722    0.5161   -0.6175 N   0  0  0  0  0  0  0  0  0  0  0  0
   -4.8279    1.5626   -0.3657 C   0  0  0  0  0  0  0  0  0  0  0  0
   -5.9105    1.3515    0.3666 N   0  0  0  0  0  0  0  0  0  0  0  0
   -6.7118    2.3831    0.6211 C   0  0  0  0  0  0  0  0  0  0  0  0
   -6.4820    3.6684    0.1721 C   0  0  0  0  0  0  0  0  0  0  0  0
   -5.3390    3.8847   -0.5964 C   0  0  0  0  0  0  0  0  0  0  0  0
   -4.4994    2.8302   -0.8756 C   0  0  0  0  0  0  0  0  0  0  0  0
    6.5181   -0.2150   -0.4777 H   0  0  0  0  0  0  0  0  0  0  0  0
    3.6261    2.2092   -0.7340 H   0  0  0  0  0  0  0  0  0  0  0  0
    3.9630    2.4959   -2.4302 H   0  0  0  0  0  0  0  0  0  0  0  0
    3.3957    0.9093   -1.9139 H   0  0  0  0  0  0  0  0  0  0  0  0
    7.4078    2.1972   -0.9837 H   0  0  0  0  0  0  0  0  0  0  0  0
    6.3419    3.2662   -1.8944 H   0  0  0  0  0  0  0  0  0  0  0  0
    6.0452    2.9824   -0.1801 H   0  0  0  0  0  0  0  0  0  0  0  0
    5.3497   -0.1286   -3.0933 H   0  0  0  0  0  0  0  0  0  0  0  0
    5.9290    1.4663   -3.5892 H   0  0  0  0  0  0  0  0  0  0  0  0
    7.0036    0.3739   -2.7221 H   0  0  0  0  0  0  0  0  0  0  0  0
    3.9598   -2.1175   -0.2863 H   0  0  0  0  0  0  0  0  0  0  0  0
    1.6990   -3.0016   -0.5576 H   0  0  0  0  0  0  0  0  0  0  0  0
    0.1159    0.4019    1.5250 H   0  0  0  0  0  0  0  0  0  0  0  0
    2.3751    1.3032    1.7743 H   0  0  0  0  0  0  0  0  0  0  0  0
   -0.0512   -3.9640    0.6003 H   0  0  0  0  0  0  0  0  0  0  0  0
   -4.4900   -4.6953    0.1566 H   0  0  0  0  0  0  0  0  0  0  0  0
   -6.4862   -3.2862   -0.2444 H   0  0  0  0  0  0  0  0  0  0  0  0
   -6.2750   -0.8779   -0.6066 H   0  0  0  0  0  0  0  0  0  0  0  0
   -1.5491   -0.0125   -0.0273 H   0  0  0  0  0  0  0  0  0  0  0  0
   -3.1272    0.7693   -1.1030 H   0  0  0  0  0  0  0  0  0  0  0  0
   -7.5870    2.1628    1.2226 H   0  0  0  0  0  0  0  0  0  0  0  0
   -7.1672    4.4693    0.4105 H   0  0  0  0  0  0  0  0  0  0  0  0
   -5.1088    4.8716   -0.9763 H   0  0  0  0  0  0  0  0  0  0  0  0
   -3.6070    2.9698   -1.4726 H   0  0  0  0  0  0  0  0  0  0  0  0
 20 19  1  0
 20 21  2  0
 19 18  2  0
 21 22  1  0
 18 17  1  0
 18 23  1  0
 17 16  2  0
 22 23  2  0
 22 25  1  0
 23 24  1  0
 25 26  1  0
 16 15  1  0
 24 15  2  0
 31 26  1  0
 31 30  2  0
 15 12  1  0
 26 27  2  0
 30 29  1  0
 27 28  1  0
 12 11  2  0
 12 13  1  0
 11 10  1  0
 29 28  2  0
 13 14  2  0
 10  9  2  0
 14  9  1  0
  9  2  1  0
  3  2  2  0
  2  1  2  0
  2  4  1  6
  5  4  1  1
  8  5  1  0
  5  7  1  0
  5  6  1  0
  4 32  1  0
  6 33  1  0
  6 34  1  0
  6 35  1  0
  7 36  1  0
  7 37  1  0
  7 38  1  0
  8 39  1  0
  8 40  1  0
  8 41  1  0
 10 42  1  0
 11 43  1  0
 13 44  1  0
 14 45  1  0
 16 46  1  0
 19 47  1  0
 20 48  1  0
 21 49  1  0
 24 50  1  0
 25 51  1  0
 28 52  1  0
 29 53  1  0
 30 54  1  0
 31 55  1  0
M  END
