
     RDKit          3D

 52 55  0  0  0  0  0  0  0  0999 V2000
    0.6128   -0.4080   -0.2739 C   0  0  0  0  0  0  0  0  0  0  0  0
    0.6919   -1.6398   -0.9465 C   0  0  0  0  0  0  0  0  0  0  0  0
    1.7899   -2.4609   -0.7973 C   0  0  0  0  0  0  0  0  0  0  0  0
    5.3568   -2.5851   -1.0867 C   0  0  0  0  0  0  0  0  0  0  0  0
   -1.6076    0.1536   -1.1884 C   0  0  2  0  0  0  0  0  0  0  0  0
   -2.4260    1.4294   -1.2862 C   0  0  0  0  0  0  0  0  0  0  0  0
   -2.9519    3.4563   -0.3788 C   0  0  0  0  0  0  0  0  0  0  0  0
   -3.8989    3.7135   -1.3552 C   0  0  0  0  0  0  0  0  0  0  0  0
   -4.0990    2.7579   -2.3428 C   0  0  0  0  0  0  0  0  0  0  0  0
   -3.3515    1.5936   -2.3097 C   0  0  0  0  0  0  0  0  0  0  0  0
   -2.4884   -0.9540   -0.6285 C   0  0  0  0  0  0  0  0  0  0  0  0
   -3.0822   -1.8786   -1.4775 C   0  0  0  0  0  0  0  0  0  0  0  0
   -3.9133   -2.8659   -0.9657 C   0  0  0  0  0  0  0  0  0  0  0  0
   -4.1586   -2.9425    0.3966 C   0  0  0  0  0  0  0  0  0  0  0  0
   -3.5567   -2.0136    1.2331 C   0  0  0  0  0  0  0  0  0  0  0  0
   -2.7266   -1.0222    0.7394 C   0  0  0  0  0  0  0  0  0  0  0  0
    1.9074    2.3971    0.6789 C   0  0  0  0  0  0  0  0  0  0  0  0
    2.3297    3.6169   -1.1703 C   0  0  0  0  0  0  0  0  0  0  0  0
    2.3880    4.7780   -0.4184 C   0  0  0  0  0  0  0  0  0  0  0  0
    2.8391   -2.0775    0.0286 C   0  0  0  0  0  0  0  0  0  0  0  0
    2.7898   -0.8570    0.6972 C   0  0  0  0  0  0  0  0  0  0  0  0
    1.6983   -0.0295    0.5538 C   0  0  0  0  0  0  0  0  0  0  0  0
   -0.4467    0.4154   -0.3923 N   0  0  0  0  0  0  0  0  0  0  0  0
    4.2465   -3.1150    0.1999 S   0  0  1  0  0  0  0  0  0  0  0  0
    3.8480   -4.4915   -0.0959 O   0  0  0  0  0  0  0  0  0  0  0  0
    4.8837   -2.8323    1.4865 O   0  0  0  0  0  0  0  0  0  0  0  0
   -2.2331    2.3391   -0.3447 N   0  0  0  0  0  0  0  0  0  0  0  0
   -3.8498   -2.0970    2.9407 Cl  0  0  0  0  0  0  0  0  0  0  0  0
    1.6346    1.1932    1.2538 N   0  0  0  0  0  0  0  0  0  0  0  0
    2.0958    2.4267   -0.6385 N   0  0  0  0  0  0  0  0  0  0  0  0
    2.1847    4.6217    0.9441 C   0  0  0  0  0  0  0  0  0  0  0  0
    1.9432    3.4472    1.5023 N   0  0  0  0  0  0  0  0  0  0  0  0
   -0.1186   -1.9720   -1.5794 H   0  0  0  0  0  0  0  0  0  0  0  0
    1.8146   -3.4059   -1.3235 H   0  0  0  0  0  0  0  0  0  0  0  0
    5.6236   -1.5427   -0.9293 H   0  0  0  0  0  0  0  0  0  0  0  0
    6.2466   -3.2118   -1.0312 H   0  0  0  0  0  0  0  0  0  0  0  0
    4.8737   -2.7090   -2.0532 H   0  0  0  0  0  0  0  0  0  0  0  0
   -1.3098   -0.1299   -2.2043 H   0  0  0  0  0  0  0  0  0  0  0  0
   -2.7608    4.1773    0.4073 H   0  0  0  0  0  0  0  0  0  0  0  0
   -4.4587    4.6382   -1.3438 H   0  0  0  0  0  0  0  0  0  0  0  0
   -4.8232    2.9203   -3.1299 H   0  0  0  0  0  0  0  0  0  0  0  0
   -3.4776    0.8295   -3.0657 H   0  0  0  0  0  0  0  0  0  0  0  0
   -2.8886   -1.8367   -2.5429 H   0  0  0  0  0  0  0  0  0  0  0  0
   -4.3697   -3.5881   -1.6294 H   0  0  0  0  0  0  0  0  0  0  0  0
   -4.8004   -3.7137    0.8001 H   0  0  0  0  0  0  0  0  0  0  0  0
   -2.2645   -0.3120    1.4136 H   0  0  0  0  0  0  0  0  0  0  0  0
    2.4803    3.6432   -2.2440 H   0  0  0  0  0  0  0  0  0  0  0  0
    2.5838    5.7417   -0.8629 H   0  0  0  0  0  0  0  0  0  0  0  0
    3.6023   -0.5408    1.3393 H   0  0  0  0  0  0  0  0  0  0  0  0
   -0.4973    1.2437    0.1841 H   0  0  0  0  0  0  0  0  0  0  0  0
    1.6385    1.1712    2.2622 H   0  0  0  0  0  0  0  0  0  0  0  0
    2.2180    5.4751    1.6124 H   0  0  0  0  0  0  0  0  0  0  0  0
 28 15  1  0
 15 14  2  0
 15 16  1  0
 14 13  1  0
 16 11  2  0
 13 12  2  0
 26 24  2  0
 11 12  1  0
 11  5  1  0
 24  4  1  6
  3  2  2  0
  3 20  1  0
  2  1  1  0
 24 20  1  0
 24 25  2  0
  5  6  1  0
  5 23  1  0
 10  6  2  0
 10  9  1  0
 20 21  2  0
  6 27  1  0
  1 23  1  0
  1 22  2  0
  9  8  2  0
 21 22  1  0
 22 29  1  0
 27  7  2  0
  8  7  1  0
 29 17  1  0
 17 32  2  0
 17 30  1  0
 32 31  1  0
 30 18  2  0
 31 19  2  0
 18 19  1  0
  2 33  1  0
  3 34  1  0
  4 35  1  0
  4 36  1  0
  4 37  1  0
  5 38  1  6
  7 39  1  0
  8 40  1  0
  9 41  1  0
 10 42  1  0
 12 43  1  0
 13 44  1  0
 14 45  1  0
 16 46  1  0
 18 47  1  0
 19 48  1  0
 21 49  1  0
 23 50  1  0
 29 51  1  0
 31 52  1  0
M  END
