
     RDKit          3D

 47 49  0  0  0  0  0  0  0  0999 V2000
    4.5575   -0.2137    0.1129 C   0  0  0  0  0  0  0  0  0  0  0  0
    4.2765   -1.4879    0.6617 C   0  0  0  0  0  0  0  0  0  0  0  0
    5.2781   -2.3968    0.8726 C   0  0  0  0  0  0  0  0  0  0  0  0
    6.6110   -2.0838    0.5410 C   0  0  0  0  0  0  0  0  0  0  0  0
    6.9093   -0.8691   -0.0114 C   0  0  0  0  0  0  0  0  0  0  0  0
    5.8976    0.0914   -0.2450 C   0  0  0  0  0  0  0  0  0  0  0  0
    6.1966    1.3398   -0.8373 C   0  0  0  0  0  0  0  0  0  0  0  0
    5.2061    2.2550   -1.0540 C   0  0  0  0  0  0  0  0  0  0  0  0
    3.8788    1.9815   -0.6740 C   0  0  0  0  0  0  0  0  0  0  0  0
    3.5561    0.7779   -0.1004 C   0  0  0  0  0  0  0  0  0  0  0  0
    2.2460    0.4929    0.3183 N   0  0  0  0  0  0  0  0  0  0  0  0
    1.1165    0.7918   -0.3388 C   0  0  0  0  0  0  0  0  0  0  0  0
    1.0231    1.3820   -1.3970 O   0  0  0  0  0  0  0  0  0  0  0  0
   -0.1300    0.2793    0.4050 C   0  0  0  0  0  0  0  0  0  0  0  0
   -0.0272   -0.3601    1.4351 O   0  0  0  0  0  0  0  0  0  0  0  0
   -1.2708    0.6247   -0.2007 N   0  0  0  0  0  0  0  0  0  0  0  0
   -2.5678    0.2403    0.2603 C   0  0  2  0  0  0  0  0  0  0  0  0
   -3.0161   -0.8201   -0.5449 O   0  0  0  0  0  0  0  0  0  0  0  0
   -4.2630   -1.3506   -0.1387 C   0  0  2  0  0  0  0  0  0  0  0  0
   -4.5672   -2.5363   -1.0293 C   0  0  0  0  0  0  0  0  0  0  0  0
   -3.5860   -3.5239   -0.8219 O   0  0  0  0  0  0  0  0  0  0  0  0
   -5.3429   -0.2717   -0.2352 C   0  0  1  0  0  0  0  0  0  0  0  0
   -6.5483   -0.8196    0.2359 O   0  0  0  0  0  0  0  0  0  0  0  0
   -4.9267    0.9424    0.5871 C   0  0  2  0  0  0  0  0  0  0  0  0
   -5.9010    1.9389    0.3999 O   0  0  0  0  0  0  0  0  0  0  0  0
   -3.5405    1.4182    0.1742 C   0  0  1  0  0  0  0  0  0  0  0  0
   -3.1657    2.4543    1.0447 O   0  0  0  0  0  0  0  0  0  0  0  0
    3.2608   -1.7688    0.9064 H   0  0  0  0  0  0  0  0  0  0  0  0
    5.0420   -3.3656    1.2923 H   0  0  0  0  0  0  0  0  0  0  0  0
    7.3940   -2.8093    0.7180 H   0  0  0  0  0  0  0  0  0  0  0  0
    7.9298   -0.6239   -0.2791 H   0  0  0  0  0  0  0  0  0  0  0  0
    7.2202    1.5600   -1.1136 H   0  0  0  0  0  0  0  0  0  0  0  0
    5.4359    3.2104   -1.5061 H   0  0  0  0  0  0  0  0  0  0  0  0
    3.1247    2.7407   -0.8194 H   0  0  0  0  0  0  0  0  0  0  0  0
    2.1256   -0.0275    1.1772 H   0  0  0  0  0  0  0  0  0  0  0  0
   -1.1981    1.1281   -1.0756 H   0  0  0  0  0  0  0  0  0  0  0  0
   -2.4791   -0.0769    1.3071 H   0  0  0  0  0  0  0  0  0  0  0  0
   -4.2031   -1.6923    0.9078 H   0  0  0  0  0  0  0  0  0  0  0  0
   -5.5690   -2.9034   -0.7847 H   0  0  0  0  0  0  0  0  0  0  0  0
   -4.5930   -2.1971   -2.0745 H   0  0  0  0  0  0  0  0  0  0  0  0
   -3.8264   -4.2935   -1.3449 H   0  0  0  0  0  0  0  0  0  0  0  0
   -5.4327    0.0361   -1.2892 H   0  0  0  0  0  0  0  0  0  0  0  0
   -7.2401   -0.1575    0.1360 H   0  0  0  0  0  0  0  0  0  0  0  0
   -4.8802    0.6324    1.6438 H   0  0  0  0  0  0  0  0  0  0  0  0
   -5.7254    2.6576    1.0156 H   0  0  0  0  0  0  0  0  0  0  0  0
   -3.5808    1.7624   -0.8704 H   0  0  0  0  0  0  0  0  0  0  0  0
   -2.4552    2.9629    0.6426 H   0  0  0  0  0  0  0  0  0  0  0  0
  1  2  2  0
  1  6  1  0
  1 10  1  0
  2  3  1  0
  3  4  2  0
  4  5  1  0
  5  6  2  0
  6  7  1  0
  7  8  2  0
  8  9  1  0
  9 10  2  0
 10 11  1  0
 11 12  1  0
 12 13  2  0
 12 14  1  0
 14 15  2  0
 14 16  1  0
 16 17  1  0
 17 18  1  0
 17 26  1  0
 18 19  1  0
 19 20  1  0
 19 22  1  0
 20 21  1  0
 22 23  1  0
 22 24  1  0
 24 25  1  0
 24 26  1  0
 26 27  1  0
  2 28  1  0
  3 29  1  0
  4 30  1  0
  5 31  1  0
  7 32  1  0
  8 33  1  0
  9 34  1  0
 11 35  1  0
 16 36  1  0
 17 37  1  1
 19 38  1  1
 20 39  1  0
 20 40  1  0
 21 41  1  0
 22 42  1  6
 23 43  1  0
 24 44  1  1
 25 45  1  0
 26 46  1  6
 27 47  1  0
M  END
