
     RDKit          3D

 21 22  0  0  0  0  0  0  0  0999 V2000
    2.7728    0.2859    0.0004 O   0  0  0  0  0  0  0  0  0  0  0  0
    1.6396    0.0189    0.3672 C   0  0  0  0  0  0  0  0  0  0  0  0
    0.5771   -0.4552   -0.6006 C   0  0  2  0  0  0  0  0  0  0  0  0
    0.6908    0.1066   -2.0111 C   0  0  0  0  0  0  0  0  0  0  0  0
   -0.7360   -0.0345   -2.5359 C   0  0  0  0  0  0  0  0  0  0  0  0
   -1.6139    0.2895   -1.3279 C   0  0  0  0  0  0  0  0  0  0  0  0
   -0.7607   -0.0445   -0.1933 N   0  0  0  0  0  0  0  0  0  0  0  0
   -1.1633    0.0116    1.0769 C   0  0  0  0  0  0  0  0  0  0  0  0
   -2.3022    0.2978    1.4182 O   0  0  0  0  0  0  0  0  0  0  0  0
   -0.0841   -0.3304    2.0838 C   0  0  0  0  0  0  0  0  0  0  0  0
    1.2248    0.0939    1.6382 N   0  0  0  0  0  0  0  0  0  0  0  0
    0.6399   -1.5527   -0.6354 H   0  0  0  0  0  0  0  0  0  0  0  0
    0.9873    1.1570   -1.9759 H   0  0  0  0  0  0  0  0  0  0  0  0
    1.4215   -0.4318   -2.6107 H   0  0  0  0  0  0  0  0  0  0  0  0
   -0.9421    0.6249   -3.3772 H   0  0  0  0  0  0  0  0  0  0  0  0
   -0.9137   -1.0597   -2.8662 H   0  0  0  0  0  0  0  0  0  0  0  0
   -1.8842    1.3473   -1.2927 H   0  0  0  0  0  0  0  0  0  0  0  0
   -2.5354   -0.2931   -1.3110 H   0  0  0  0  0  0  0  0  0  0  0  0
   -0.3143    0.1714    3.0209 H   0  0  0  0  0  0  0  0  0  0  0  0
   -0.1149   -1.4092    2.2777 H   0  0  0  0  0  0  0  0  0  0  0  0
    1.9004    0.3506    2.3433 H   0  0  0  0  0  0  0  0  0  0  0  0
  1  2  2  0
  2  3  1  0
  2 11  1  0
  3  4  1  0
  3  7  1  0
  3 12  1  6
  4  5  1  0
  4 13  1  0
  4 14  1  0
  5  6  1  0
  5 15  1  0
  5 16  1  0
  6  7  1  0
  6 17  1  0
  6 18  1  0
  7  8  1  0
  8  9  2  0
  8 10  1  0
 10 11  1  0
 10 19  1  0
 10 20  1  0
 11 21  1  0
M  END
