
     RDKit          3D

 56 58  0  0  0  0  0  0  0  0999 V2000
   -1.0299    0.0972   -3.1352 C   0  0  0  0  0  0  0  0  0  0  0  0
    0.1007    0.0435   -0.6608 N   0  0  0  0  0  0  0  0  0  0  0  0
   -1.8563    0.1214   -2.0179 C   0  0  0  0  0  0  0  0  0  0  0  0
   -0.1260   -0.0144   -8.3056 C   0  0  0  0  0  0  0  0  0  0  0  0
   -1.4780    0.1486   -8.0344 C   0  0  0  0  0  0  0  0  0  0  0  0
   -1.9013    0.1939   -6.7305 C   0  0  0  0  0  0  0  0  0  0  0  0
   -1.0352    0.0807   -5.6349 C   0  0  0  0  0  0  0  0  0  0  0  0
   -1.2336    0.0920   -0.7694 C   0  0  0  0  0  0  0  0  0  0  0  0
   -2.4104   -0.6398    2.5928 C   0  0  0  0  0  0  0  0  0  0  0  0
   -1.5775    0.0300    1.6936 C   0  0  0  0  0  0  0  0  0  0  0  0
    0.3181   -0.0799   -5.9246 C   0  0  0  0  0  0  0  0  0  0  0  0
    0.7567   -0.1285   -7.2452 C   0  0  0  0  0  0  0  0  0  0  0  0
   -2.1002   -0.7118    3.9362 C   0  0  0  0  0  0  0  0  0  0  0  0
    0.4487    0.3542    6.3001 C   0  0  0  0  0  0  0  0  0  0  0  0
   -0.0987    0.5463    3.5346 C   0  0  0  0  0  0  0  0  0  0  0  0
   -0.9314   -0.1263    4.4231 C   0  0  0  0  0  0  0  0  0  0  0  0
   -0.4239    0.6305    2.1853 C   0  0  0  0  0  0  0  0  0  0  0  0
    0.7754    0.0254   -1.7914 C   0  0  0  0  0  0  0  0  0  0  0  0
    0.3009    0.0498   -3.0240 N   0  0  0  0  0  0  0  0  0  0  0  0
   -1.6037    0.1265   -4.3747 N   0  0  0  0  0  0  0  0  0  0  0  0
   -1.9892    0.1050    0.3555 N   0  0  0  0  0  0  0  0  0  0  0  0
   -0.6967   -0.2619    5.7446 O   0  0  0  0  0  0  0  0  0  0  0  0
    2.2265   -0.2785   -7.4833 C   0  0  1  0  0  0  0  0  0  0  0  0
    2.5167   -0.5218   -8.7645 F   0  0  0  0  0  0  0  0  0  0  0  0
    2.9008    0.8288   -7.1353 F   0  0  0  0  0  0  0  0  0  0  0  0
    2.7516   -1.2817   -6.7660 F   0  0  0  0  0  0  0  0  0  0  0  0
    0.4900    0.0325    7.7764 C   0  0  1  0  0  0  0  0  0  0  0  0
    1.7956    0.5497    8.3832 C   0  0  0  0  0  0  0  0  0  0  0  0
    1.9313   -0.8572   10.3379 C   0  0  0  0  0  0  0  0  0  0  0  0
    2.6194    1.4296   10.4709 C   0  0  0  0  0  0  0  0  0  0  0  0
    1.7242    0.4864    9.8319 N   0  0  0  0  0  0  0  0  0  0  0  0
   -0.6018    0.6304    8.4297 O   0  0  0  0  0  0  0  0  0  0  0  0
   -2.9345    0.1561   -2.1100 H   0  0  0  0  0  0  0  0  0  0  0  0
    0.2051   -0.0510   -9.3331 H   0  0  0  0  0  0  0  0  0  0  0  0
   -2.1994    0.2406   -8.8351 H   0  0  0  0  0  0  0  0  0  0  0  0
   -3.3181   -1.1119    2.2363 H   0  0  0  0  0  0  0  0  0  0  0  0
    1.0153   -0.1643   -5.1065 H   0  0  0  0  0  0  0  0  0  0  0  0
   -2.7615   -1.2356    4.6151 H   0  0  0  0  0  0  0  0  0  0  0  0
    0.4143    1.4407    6.1531 H   0  0  0  0  0  0  0  0  0  0  0  0
    1.3625   -0.0212    5.8237 H   0  0  0  0  0  0  0  0  0  0  0  0
    0.8122    1.0253    3.8666 H   0  0  0  0  0  0  0  0  0  0  0  0
    0.2367    1.1712    1.5256 H   0  0  0  0  0  0  0  0  0  0  0  0
    1.8561   -0.0155   -1.7012 H   0  0  0  0  0  0  0  0  0  0  0  0
   -2.6104    0.1783   -4.3618 H   0  0  0  0  0  0  0  0  0  0  0  0
   -2.9835    0.0297    0.2083 H   0  0  0  0  0  0  0  0  0  0  0  0
    0.4545   -1.0632    7.8813 H   0  0  0  0  0  0  0  0  0  0  0  0
    1.9264    1.5972    8.0955 H   0  0  0  0  0  0  0  0  0  0  0  0
    2.6520   -0.0063    7.9735 H   0  0  0  0  0  0  0  0  0  0  0  0
    1.7820   -0.8740   11.4177 H   0  0  0  0  0  0  0  0  0  0  0  0
    1.2166   -1.5539    9.8997 H   0  0  0  0  0  0  0  0  0  0  0  0
    2.9419   -1.2368   10.1278 H   0  0  0  0  0  0  0  0  0  0  0  0
    2.3965    2.4433   10.1377 H   0  0  0  0  0  0  0  0  0  0  0  0
    2.4810    1.3942   11.5520 H   0  0  0  0  0  0  0  0  0  0  0  0
    3.6801    1.2284   10.2625 H   0  0  0  0  0  0  0  0  0  0  0  0
   -0.2854    0.7888    9.3341 H   0  0  0  0  0  0  0  0  0  0  0  0
   -3.2107    0.3509   -6.4760 F   0  0  0  0  0  0  0  0  0  0  0  0
  1  3  2  0
  1 19  1  0
  1 20  1  0
  2  8  2  0
  2 18  1  0
  3  8  1  0
  3 33  1  0
  4  5  2  0
  4 12  1  0
  4 34  1  0
  5  6  1  0
  5 35  1  0
  6  7  2  0
  6 56  1  0
  7 11  1  0
  7 20  1  0
  8 21  1  0
  9 10  2  0
  9 13  1  0
  9 36  1  0
 10 17  1  0
 10 21  1  0
 11 12  2  0
 11 37  1  0
 12 23  1  0
 13 16  2  0
 13 38  1  0
 14 22  1  0
 14 27  1  0
 14 39  1  0
 14 40  1  0
 15 16  1  0
 15 17  2  0
 15 41  1  0
 16 22  1  0
 17 42  1  0
 18 19  2  0
 18 43  1  0
 20 44  1  0
 21 45  1  0
 23 24  1  6
 23 25  1  0
 23 26  1  0
 27 28  1  0
 27 32  1  0
 27 46  1  6
 28 31  1  0
 28 47  1  0
 28 48  1  0
 29 31  1  0
 29 49  1  0
 29 50  1  0
 29 51  1  0
 30 31  1  0
 30 52  1  0
 30 53  1  0
 30 54  1  0
 32 55  1  0
M  END
