
     RDKit          3D

 41 41  0  0  0  0  0  0  0  0999 V2000
    1.1654    0.1409    1.2020 C   0  0  2  0  0  0  0  0  0  0  0  0
    2.6937    0.1264    1.2050 C   0  0  1  0  0  0  0  0  0  0  0  0
    3.2438    0.1413    2.5701 C   0  0  0  0  0  0  0  0  0  0  0  0
    2.6936    1.2559    3.3800 C   0  0  2  0  0  0  0  0  0  0  0  0
    1.1590    1.2707    3.3730 C   0  0  1  0  0  0  0  0  0  0  0  0
    0.6818    2.5079    4.0760 C   0  0  0  0  0  0  0  0  0  0  0  0
    0.7273    0.2731   -0.0830 O   0  0  0  0  0  0  0  0  0  0  0  0
    3.1499   -1.0676    0.5316 O   0  0  0  0  0  0  0  0  0  0  0  0
    3.1713    2.4981    2.8436 O   0  0  0  0  0  0  0  0  0  0  0  0
    0.6147    1.2574    2.0160 O   0  0  0  0  0  0  0  0  0  0  0  0
   -0.6701    2.3620    4.4117 O   0  0  0  0  0  0  0  0  0  0  0  0
   -0.4036   -0.4953   -0.3778 C   0  0  0  0  0  0  0  0  0  0  0  0
   -0.6396   -0.4957   -1.8866 C   0  0  0  0  0  0  0  0  0  0  0  0
   -2.0165   -1.0843   -2.1863 C   0  0  0  0  0  0  0  0  0  0  0  0
   -2.2352   -1.1242   -3.6972 C   0  0  0  0  0  0  0  0  0  0  0  0
   -3.5928   -1.7553   -3.9985 C   0  0  0  0  0  0  0  0  0  0  0  0
   -3.7830   -1.8558   -5.5104 C   0  0  0  0  0  0  0  0  0  0  0  0
    0.8058   -0.7975    1.6066 H   0  0  0  0  0  0  0  0  0  0  0  0
    3.0541    0.9978    0.6717 H   0  0  0  0  0  0  0  0  0  0  0  0
    4.3219    0.2479    2.5129 H   0  0  0  0  0  0  0  0  0  0  0  0
    3.0025   -0.7980    3.0561 H   0  0  0  0  0  0  0  0  0  0  0  0
    3.0389    1.1512    4.4015 H   0  0  0  0  0  0  0  0  0  0  0  0
    0.7983    0.3976    3.9033 H   0  0  0  0  0  0  0  0  0  0  0  0
    0.8014    3.3646    3.4213 H   0  0  0  0  0  0  0  0  0  0  0  0
    1.2643    2.6584    4.9786 H   0  0  0  0  0  0  0  0  0  0  0  0
    3.9846   -0.8993    0.1233 H   0  0  0  0  0  0  0  0  0  0  0  0
    3.8565    2.8375    3.3976 H   0  0  0  0  0  0  0  0  0  0  0  0
   -0.8866    2.9575    5.1120 H   0  0  0  0  0  0  0  0  0  0  0  0
   -0.2484   -1.5130   -0.0358 H   0  0  0  0  0  0  0  0  0  0  0  0
   -1.2682   -0.0733    0.1233 H   0  0  0  0  0  0  0  0  0  0  0  0
   -0.5921    0.5216   -2.2603 H   0  0  0  0  0  0  0  0  0  0  0  0
    0.1233   -1.0952   -2.3718 H   0  0  0  0  0  0  0  0  0  0  0  0
   -2.0745   -2.0908   -1.7858 H   0  0  0  0  0  0  0  0  0  0  0  0
   -2.7813   -0.4675   -1.7264 H   0  0  0  0  0  0  0  0  0  0  0  0
   -2.2099   -0.1146   -4.0930 H   0  0  0  0  0  0  0  0  0  0  0  0
   -1.4514   -1.7140   -4.1605 H   0  0  0  0  0  0  0  0  0  0  0  0
   -4.3795   -1.1400   -3.5752 H   0  0  0  0  0  0  0  0  0  0  0  0
   -3.6352   -2.7474   -3.5620 H   0  0  0  0  0  0  0  0  0  0  0  0
   -4.7691   -2.2574   -5.7253 H   0  0  0  0  0  0  0  0  0  0  0  0
   -3.6897   -0.8684   -5.9535 H   0  0  0  0  0  0  0  0  0  0  0  0
   -3.0255   -2.5130   -5.9278 H   0  0  0  0  0  0  0  0  0  0  0  0
  1  2  1  0
  1  7  1  0
  1 10  1  0
  1 18  1  1
  2  3  1  0
  2  8  1  0
  2 19  1  6
  3  4  1  0
  3 20  1  0
  3 21  1  0
  4  5  1  0
  4  9  1  0
  4 22  1  1
  5  6  1  0
  5 10  1  0
  5 23  1  1
  6 11  1  0
  6 24  1  0
  6 25  1  0
  7 12  1  0
  8 26  1  0
  9 27  1  0
 11 28  1  0
 12 13  1  0
 12 29  1  0
 12 30  1  0
 13 14  1  0
 13 31  1  0
 13 32  1  0
 14 15  1  0
 14 33  1  0
 14 34  1  0
 15 16  1  0
 15 35  1  0
 15 36  1  0
 16 17  1  0
 16 37  1  0
 16 38  1  0
 17 39  1  0
 17 40  1  0
 17 41  1  0
M  END
