
     RDKit          3D

 54 58  0  0  0  0  0  0  0  0999 V2000
   -3.7832   -1.8360   -1.5523 C   0  0  0  0  0  0  0  0  0  0  0  0
   -5.1277   -1.9241   -1.2283 C   0  0  0  0  0  0  0  0  0  0  0  0
   -0.4277    1.8867    1.1783 C   0  0  2  0  0  0  0  0  0  0  0  0
    2.1569    3.1108   -1.1521 C   0  0  0  0  0  0  0  0  0  0  0  0
    1.0226    2.9710   -0.3647 C   0  0  0  0  0  0  0  0  0  0  0  0
    0.8905    1.8517    0.4475 C   0  0  0  0  0  0  0  0  0  0  0  0
   -0.1721    3.8732   -0.2290 C   0  0  0  0  0  0  0  0  0  0  0  0
    3.1403    2.1337   -1.1060 C   0  0  0  0  0  0  0  0  0  0  0  0
    3.0156    1.0057   -0.2852 C   0  0  0  0  0  0  0  0  0  0  0  0
    4.0672   -0.0089   -0.2293 C   0  0  0  0  0  0  0  0  0  0  0  0
    5.2986    0.0025   -0.8485 C   0  0  0  0  0  0  0  0  0  0  0  0
    5.0445   -1.8046    0.3573 C   0  0  0  0  0  0  0  0  0  0  0  0
   -4.7120   -0.4134    0.6236 C   0  0  0  0  0  0  0  0  0  0  0  0
   -3.3672   -0.3225    0.2633 C   0  0  0  0  0  0  0  0  0  0  0  0
   -2.9005   -1.0475   -0.8241 C   0  0  0  0  0  0  0  0  0  0  0  0
    7.1353   -1.8581   -0.7038 C   0  0  0  0  0  0  0  0  0  0  0  0
   -2.7957    0.8583    2.2438 O   0  0  0  0  0  0  0  0  0  0  0  0
   -6.0714   -2.7696   -2.0274 C   0  0  0  0  0  0  0  0  0  0  0  0
   -5.5861   -1.1970   -0.1165 C   0  0  0  0  0  0  0  0  0  0  0  0
   -6.8978   -1.3211    0.1586 O   0  0  0  0  0  0  0  0  0  0  0  0
   -7.4337   -0.6115    1.2575 C   0  0  0  0  0  0  0  0  0  0  0  0
   -1.3604    0.9922    0.5130 N   0  0  0  0  0  0  0  0  0  0  0  0
   -0.8258    3.3721    1.0683 C   0  0  0  0  0  0  0  0  0  0  0  0
    5.8984   -1.1493   -0.4471 N   0  0  0  0  0  0  0  0  0  0  0  0
    5.6242   -3.1083    0.7876 C   0  0  0  0  0  0  0  0  0  0  0  0
    7.1086   -2.9315    0.4017 C   0  0  0  0  0  0  0  0  0  0  0  0
    3.9254   -1.1527    0.5214 N   0  0  0  0  0  0  0  0  0  0  0  0
    1.8632    0.8689    0.4926 C   0  0  0  0  0  0  0  0  0  0  0  0
   -3.4114   -2.4004   -2.3988 H   0  0  0  0  0  0  0  0  0  0  0  0
   -0.3376    1.5690    2.2174 H   0  0  0  0  0  0  0  0  0  0  0  0
    2.2848    3.9728   -1.7955 H   0  0  0  0  0  0  0  0  0  0  0  0
    0.0937    4.9301   -0.1830 H   0  0  0  0  0  0  0  0  0  0  0  0
   -0.8425    3.7539   -1.0857 H   0  0  0  0  0  0  0  0  0  0  0  0
    4.0240    2.2560   -1.7204 H   0  0  0  0  0  0  0  0  0  0  0  0
    5.7795    0.7153   -1.4969 H   0  0  0  0  0  0  0  0  0  0  0  0
   -5.0562    0.1420    1.4852 H   0  0  0  0  0  0  0  0  0  0  0  0
   -1.8566   -1.0367   -1.1096 H   0  0  0  0  0  0  0  0  0  0  0  0
    7.1199   -2.2905   -1.7056 H   0  0  0  0  0  0  0  0  0  0  0  0
   -6.5048   -3.5694   -1.4243 H   0  0  0  0  0  0  0  0  0  0  0  0
   -6.9027   -2.1824   -2.4209 H   0  0  0  0  0  0  0  0  0  0  0  0
   -5.5572   -3.2277   -2.8705 H   0  0  0  0  0  0  0  0  0  0  0  0
   -8.4943   -0.8476    1.2898 H   0  0  0  0  0  0  0  0  0  0  0  0
   -6.9755   -0.9149    2.2022 H   0  0  0  0  0  0  0  0  0  0  0  0
   -7.3171    0.4690    1.1412 H   0  0  0  0  0  0  0  0  0  0  0  0
   -1.2248    0.8335   -0.4724 H   0  0  0  0  0  0  0  0  0  0  0  0
   -1.9051    3.5162    1.0996 H   0  0  0  0  0  0  0  0  0  0  0  0
   -0.3983    3.9067    1.9192 H   0  0  0  0  0  0  0  0  0  0  0  0
    5.4888   -3.3035    1.8507 H   0  0  0  0  0  0  0  0  0  0  0  0
    7.5677   -3.8603    0.0698 H   0  0  0  0  0  0  0  0  0  0  0  0
    1.7461    0.0047    1.1346 H   0  0  0  0  0  0  0  0  0  0  0  0
    7.9945   -1.1942   -0.6287 H   0  0  0  0  0  0  0  0  0  0  0  0
    5.1613   -3.9339    0.2410 H   0  0  0  0  0  0  0  0  0  0  0  0
    7.6700   -2.5754    1.2659 H   0  0  0  0  0  0  0  0  0  0  0  0
   -2.4896    0.5562    1.0971 C   0  0  0  0  0  0  0  0  0  0  0  0
 18  2  1  0
  1  2  2  0
  1 15  1  0
  2 19  1  0
 15 14  2  0
 19 20  1  0
 19 13  2  0
 20 21  1  0
 14 13  1  0
 14 54  1  0
 54 22  1  0
 54 17  2  0
 22  3  1  0
 23  3  1  0
 23  7  1  0
  3  6  1  0
  7  5  1  0
  6  5  1  0
  6 28  2  0
  5  4  2  0
 28  9  1  0
  4  8  1  0
  9  8  2  0
  9 10  1  0
 27 10  1  0
 27 12  2  0
 10 11  2  0
 12 25  1  0
 12 24  1  0
 11 24  1  0
 25 26  1  0
 24 16  1  0
 16 26  1  0
  1 29  1  0
  3 30  1  1
  4 31  1  0
  7 32  1  0
  7 33  1  0
  8 34  1  0
 11 35  1  0
 13 36  1  0
 15 37  1  0
 16 38  1  0
 18 39  1  0
 18 40  1  0
 18 41  1  0
 21 42  1  0
 21 43  1  0
 21 44  1  0
 22 45  1  0
 23 46  1  0
 23 47  1  0
 25 48  1  0
 26 49  1  0
 28 50  1  0
 16 51  1  0
 25 52  1  0
 26 53  1  0
M  END
