
     RDKit          3D

 17 17  0  0  0  0  0  0  0  0999 V2000
    0.5444   -0.4607   -0.1103 C   0  0  0  0  0  0  0  0  0  0  0  0
    1.8755   -0.0046   -0.0726 C   0  0  0  0  0  0  0  0  0  0  0  0
    4.1644   -0.6372   -0.0967 C   0  0  0  0  0  0  0  0  0  0  0  0
    2.1477    1.3512   -0.0025 C   0  0  0  0  0  0  0  0  0  0  0  0
    1.0994    2.2678    0.0321 C   0  0  0  0  0  0  0  0  0  0  0  0
   -0.2133    1.8397   -0.0015 C   0  0  0  0  0  0  0  0  0  0  0  0
   -0.4771    0.4748   -0.0726 C   0  0  0  0  0  0  0  0  0  0  0  0
    0.2557   -1.7686   -0.1789 O   0  0  0  0  0  0  0  0  0  0  0  0
    2.7943   -0.9895   -0.1092 O   0  0  0  0  0  0  0  0  0  0  0  0
   -2.2578   -0.1373   -0.1200 Br  0  0  0  0  0  0  0  0  0  0  0  0
    4.4364   -0.1116    0.8217 H   0  0  0  0  0  0  0  0  0  0  0  0
    4.7232   -1.5677   -0.1502 H   0  0  0  0  0  0  0  0  0  0  0  0
    4.4288   -0.0147   -0.9549 H   0  0  0  0  0  0  0  0  0  0  0  0
    3.1678    1.7102    0.0270 H   0  0  0  0  0  0  0  0  0  0  0  0
    1.3169    3.3257    0.0864 H   0  0  0  0  0  0  0  0  0  0  0  0
   -1.0243    2.5540    0.0260 H   0  0  0  0  0  0  0  0  0  0  0  0
    1.0707   -2.2853   -0.2243 H   0  0  0  0  0  0  0  0  0  0  0  0
  3  9  1  0
  9  2  1  0
  8  1  1  0
  2  1  2  0
  2  4  1  0
  1  7  1  0
  4  5  2  0
  7 10  1  0
  7  6  2  0
  5  6  1  0
  3 11  1  0
  3 12  1  0
  3 13  1  0
  4 14  1  0
  5 15  1  0
  6 16  1  0
  8 17  1  0
M  END
