
     RDKit          3D

 18 18  0  0  0  0  0  0  0  0999 V2000
    2.7197   -1.4054   -0.2841 O   0  0  0  0  0  0  0  0  0  0  0  0
    1.7892   -0.2495    0.2936 P   0  0  1  0  0  0  0  0  0  0  0  0
    1.4678   -0.4716    1.7191 O   0  0  0  0  0  0  0  0  0  0  0  0
    2.6000    1.0761   -0.0859 O   0  0  0  0  0  0  0  0  0  0  0  0
    0.2937   -0.2124   -0.7449 C   0  0  1  0  0  0  0  0  0  0  0  0
   -0.5700   -1.4743   -0.6510 C   0  0  0  0  0  0  0  0  0  0  0  0
   -1.9517   -0.9823   -0.3162 C   0  0  0  0  0  0  0  0  0  0  0  0
   -2.9729   -1.6049   -0.2205 O   0  0  0  0  0  0  0  0  0  0  0  0
   -1.8434    0.3798   -0.0963 N   0  0  0  0  0  0  0  0  0  0  0  0
   -2.9093    1.1449    0.1971 O   0  0  0  0  0  0  0  0  0  0  0  0
   -0.5984    0.9160   -0.2890 C   0  0  0  0  0  0  0  0  0  0  0  0
   -0.2971    2.0694   -0.1155 O   0  0  0  0  0  0  0  0  0  0  0  0
    3.0210   -1.3100   -1.1978 H   0  0  0  0  0  0  0  0  0  0  0  0
    2.0938    1.8967    0.0110 H   0  0  0  0  0  0  0  0  0  0  0  0
    0.5813   -0.0087   -1.7810 H   0  0  0  0  0  0  0  0  0  0  0  0
   -0.5882   -2.0336   -1.5847 H   0  0  0  0  0  0  0  0  0  0  0  0
   -0.2573   -2.1667    0.1334 H   0  0  0  0  0  0  0  0  0  0  0  0
   -2.9966    1.1483    1.1622 H   0  0  0  0  0  0  0  0  0  0  0  0
  3  2  2  0
  5  6  1  0
  5  2  1  0
  5 11  1  0
  6  7  1  0
  2  4  1  1
  2  1  1  0
 12 11  2  0
 11  9  1  0
  7  9  1  0
  7  8  2  0
  9 10  1  0
  1 13  1  0
  4 14  1  0
  5 15  1  6
  6 16  1  0
  6 17  1  0
 10 18  1  0
M  END
