
     RDKit          3D

 30 31  0  0  0  0  0  0  0  0999 V2000
   -5.0276    1.7303    1.1766 Cl  0  0  0  0  0  0  0  0  0  0  0  0
    0.6225   -1.0693    0.2505 C   0  0  0  0  0  0  0  0  0  0  0  0
    0.6423   -1.5613   -0.8654 O   0  0  0  0  0  0  0  0  0  0  0  0
    1.6599   -1.1175    1.1124 N   0  0  0  0  0  0  0  0  0  0  0  0
   -1.7088   -0.2241    0.1807 C   0  0  0  0  0  0  0  0  0  0  0  0
   -0.4815   -0.4153    0.7698 N   0  0  0  0  0  0  0  0  0  0  0  0
   -2.6353    0.5598    0.8772 C   0  0  0  0  0  0  0  0  0  0  0  0
   -3.8771    0.7569    0.3106 C   0  0  0  0  0  0  0  0  0  0  0  0
   -4.2782    0.2713   -0.8401 N   0  0  0  0  0  0  0  0  0  0  0  0
   -3.3912   -0.4744   -1.4955 C   0  0  0  0  0  0  0  0  0  0  0  0
   -2.1150   -0.7563   -1.0500 C   0  0  0  0  0  0  0  0  0  0  0  0
    2.9626   -1.6292    0.7412 C   0  0  0  0  0  0  0  0  0  0  0  0
    3.8922   -0.5489    0.2457 C   0  0  0  0  0  0  0  0  0  0  0  0
    3.8293   -0.1067   -1.0746 C   0  0  0  0  0  0  0  0  0  0  0  0
    4.6604    0.9124   -1.5179 C   0  0  0  0  0  0  0  0  0  0  0  0
    5.5667    1.5038   -0.6459 C   0  0  0  0  0  0  0  0  0  0  0  0
    5.6386    1.0675    0.6698 C   0  0  0  0  0  0  0  0  0  0  0  0
    4.8051    0.0468    1.1104 C   0  0  0  0  0  0  0  0  0  0  0  0
    1.6029   -0.6255    1.9897 H   0  0  0  0  0  0  0  0  0  0  0  0
   -0.3790    0.0010    1.6838 H   0  0  0  0  0  0  0  0  0  0  0  0
   -2.3869    1.0008    1.8333 H   0  0  0  0  0  0  0  0  0  0  0  0
   -3.7200   -0.8805   -2.4447 H   0  0  0  0  0  0  0  0  0  0  0  0
   -1.4694   -1.3753   -1.6474 H   0  0  0  0  0  0  0  0  0  0  0  0
    3.3884   -2.1162    1.6190 H   0  0  0  0  0  0  0  0  0  0  0  0
    2.8305   -2.3999   -0.0160 H   0  0  0  0  0  0  0  0  0  0  0  0
    3.1267   -0.5642   -1.7602 H   0  0  0  0  0  0  0  0  0  0  0  0
    4.6034    1.2433   -2.5470 H   0  0  0  0  0  0  0  0  0  0  0  0
    6.2158    2.2977   -0.9926 H   0  0  0  0  0  0  0  0  0  0  0  0
    6.3452    1.5196    1.3538 H   0  0  0  0  0  0  0  0  0  0  0  0
    4.8692   -0.2903    2.1385 H   0  0  0  0  0  0  0  0  0  0  0  0
  1  8  1  0
  8  7  2  0
  8  9  1  0
  7  5  1  0
  9 10  2  0
  3  2  2  0
 14 15  2  0
 14 13  1  0
 15 16  1  0
  5  6  1  0
  5 11  2  0
 10 11  1  0
  2  6  1  0
  2  4  1  0
 12 13  1  0
 12  4  1  0
 13 18  2  0
 16 17  2  0
 18 17  1  0
  4 19  1  0
  6 20  1  0
  7 21  1  0
 10 22  1  0
 11 23  1  0
 12 24  1  0
 12 25  1  0
 14 26  1  0
 15 27  1  0
 16 28  1  0
 17 29  1  0
 18 30  1  0
M  END
