
     RDKit          3D

 19 19  0  0  0  0  0  0  0  0999 V2000
    2.7411   -1.1481    0.1706 C   0  0  0  0  0  0  0  0  0  0  0  0
    1.5163   -1.1834   -0.3399 N   0  0  0  0  0  0  0  0  0  0  0  0
    0.9061   -0.0322   -0.6019 C   0  0  0  0  0  0  0  0  0  0  0  0
    1.5059    1.2000   -0.3592 C   0  0  0  0  0  0  0  0  0  0  0  0
    2.7842    1.2286    0.1735 C   0  0  0  0  0  0  0  0  0  0  0  0
    3.4206    0.0278    0.4493 C   0  0  0  0  0  0  0  0  0  0  0  0
   -0.4840   -0.1135   -1.1645 C   0  0  0  0  0  0  0  0  0  0  0  0
   -1.7113   -0.0684    0.1628 P   0  0  1  0  0  0  0  0  0  0  0  0
   -1.5474   -1.0835    1.2278 O   0  0  0  0  0  0  0  0  0  0  0  0
   -1.6357    1.4003    0.8155 O   0  0  0  0  0  0  0  0  0  0  0  0
   -3.0727   -0.1313   -0.6862 O   0  0  0  0  0  0  0  0  0  0  0  0
    3.2081   -2.1072    0.3652 H   0  0  0  0  0  0  0  0  0  0  0  0
    0.9864    2.1194   -0.5935 H   0  0  0  0  0  0  0  0  0  0  0  0
    3.2751    2.1731    0.3679 H   0  0  0  0  0  0  0  0  0  0  0  0
    4.4182   -0.0016    0.8649 H   0  0  0  0  0  0  0  0  0  0  0  0
   -0.6780    0.6994   -1.8672 H   0  0  0  0  0  0  0  0  0  0  0  0
   -0.6116   -1.0548   -1.7017 H   0  0  0  0  0  0  0  0  0  0  0  0
   -1.8093    2.1361    0.2142 H   0  0  0  0  0  0  0  0  0  0  0  0
   -3.8736   -0.2185   -0.1504 H   0  0  0  0  0  0  0  0  0  0  0  0
  1  2  2  0
  1  6  1  0
  2  3  1  0
  3  4  2  0
  3  7  1  0
  4  5  1  0
  5  6  2  0
  7  8  1  0
  8  9  2  0
  8 10  1  1
  8 11  1  0
  1 12  1  0
  4 13  1  0
  5 14  1  0
  6 15  1  0
  7 16  1  0
  7 17  1  0
 10 18  1  0
 11 19  1  0
M  END
