
     RDKit          3D

 40 43  0  0  0  0  0  0  0  0999 V2000
    0.1034    0.0418   -4.5293 C   0  0  0  0  0  0  0  0  0  0  0  0
   -0.9610    0.3474   -3.6936 C   0  0  0  0  0  0  0  0  0  0  0  0
   -0.8767    0.1497   -2.3168 C   0  0  0  0  0  0  0  0  0  0  0  0
    0.2954   -0.3543   -1.7551 C   0  0  0  0  0  0  0  0  0  0  0  0
    1.3505   -0.6703   -2.6108 C   0  0  0  0  0  0  0  0  0  0  0  0
    1.2720   -0.4811   -3.9786 C   0  0  0  0  0  0  0  0  0  0  0  0
   -2.0815    0.4748   -1.4774 C   0  0  0  0  0  0  0  0  0  0  0  0
   -1.9281    0.1371   -0.0328 C   0  0  0  0  0  0  0  0  0  0  0  0
   -0.8105   -0.3315    0.5102 C   0  0  0  0  0  0  0  0  0  0  0  0
    0.4538   -0.5779   -0.2721 C   0  0  2  0  0  0  0  0  0  0  0  0
   -0.6188   -0.6005    1.9648 C   0  0  1  0  0  0  0  0  0  0  0  0
    0.4651    0.3340    2.5362 C   0  0  2  0  0  0  0  0  0  0  0  0
    1.7846    0.0810    1.8227 C   0  0  0  0  0  0  0  0  0  0  0  0
    1.6159    0.2592    0.3110 C   0  0  0  0  0  0  0  0  0  0  0  0
   -1.7609   -0.5109    2.9718 C   0  0  0  0  0  0  0  0  0  0  0  0
   -1.0147   -0.5029    4.3142 C   0  0  0  0  0  0  0  0  0  0  0  0
    0.3949   -0.0156    4.0060 C   0  0  0  0  0  0  0  0  0  0  0  0
    0.0611    1.8160    2.4469 C   0  0  0  0  0  0  0  0  0  0  0  0
   -0.0445    0.2603   -5.8536 O   0  0  0  0  0  0  0  0  0  0  0  0
    1.2961    0.0732    4.8044 O   0  0  0  0  0  0  0  0  0  0  0  0
   -1.8761    0.7410   -4.1228 H   0  0  0  0  0  0  0  0  0  0  0  0
    2.2642   -1.0835   -2.1996 H   0  0  0  0  0  0  0  0  0  0  0  0
    2.1131   -0.7416   -4.6115 H   0  0  0  0  0  0  0  0  0  0  0  0
   -2.9562   -0.0443   -1.8842 H   0  0  0  0  0  0  0  0  0  0  0  0
   -2.3215    1.5397   -1.5775 H   0  0  0  0  0  0  0  0  0  0  0  0
   -2.7967    0.3097    0.5947 H   0  0  0  0  0  0  0  0  0  0  0  0
    0.7259   -1.6326   -0.1167 H   0  0  0  0  0  0  0  0  0  0  0  0
   -0.2099   -1.6202    2.0489 H   0  0  0  0  0  0  0  0  0  0  0  0
    2.5675    0.7492    2.1892 H   0  0  0  0  0  0  0  0  0  0  0  0
    2.1203   -0.9403    2.0304 H   0  0  0  0  0  0  0  0  0  0  0  0
    1.4522    1.3122    0.0668 H   0  0  0  0  0  0  0  0  0  0  0  0
    2.5468   -0.0254   -0.1842 H   0  0  0  0  0  0  0  0  0  0  0  0
   -2.3445    0.4030    2.8461 H   0  0  0  0  0  0  0  0  0  0  0  0
   -2.4523   -1.3487    2.8868 H   0  0  0  0  0  0  0  0  0  0  0  0
   -1.4802    0.1175    5.0823 H   0  0  0  0  0  0  0  0  0  0  0  0
   -0.9378   -1.5111    4.7316 H   0  0  0  0  0  0  0  0  0  0  0  0
    0.8723    2.4450    2.8156 H   0  0  0  0  0  0  0  0  0  0  0  0
   -0.1539    2.1045    1.4188 H   0  0  0  0  0  0  0  0  0  0  0  0
   -0.8262    2.0522    3.0361 H   0  0  0  0  0  0  0  0  0  0  0  0
    0.7473   -0.0165   -6.3270 H   0  0  0  0  0  0  0  0  0  0  0  0
  1  2  2  0
  1  6  1  0
  1 19  1  0
  2  3  1  0
  2 21  1  0
  3  4  2  0
  3  7  1  0
  4  5  1  0
  4 10  1  0
  5  6  2  0
  5 22  1  0
  6 23  1  0
  7  8  1  0
  7 24  1  0
  7 25  1  0
  8  9  2  0
  8 26  1  0
  9 10  1  0
  9 11  1  0
 10 14  1  0
 10 27  1  6
 11 12  1  0
 11 15  1  0
 11 28  1  6
 12 13  1  0
 12 17  1  0
 12 18  1  1
 13 14  1  0
 13 29  1  0
 13 30  1  0
 14 31  1  0
 14 32  1  0
 15 16  1  0
 15 33  1  0
 15 34  1  0
 16 17  1  0
 16 35  1  0
 16 36  1  0
 17 20  2  0
 18 37  1  0
 18 38  1  0
 18 39  1  0
 19 40  1  0
M  END
