
     RDKit          3D

 21 21  0  0  0  0  0  0  0  0999 V2000
    3.0790    0.4003    0.0492 C   0  0  0  0  0  0  0  0  0  0  0  0
    1.6207    0.0448   -0.0003 C   0  0  0  0  0  0  0  0  0  0  0  0
    0.6438    1.0386    0.0650 C   0  0  0  0  0  0  0  0  0  0  0  0
   -0.7150    0.7480    0.0422 C   0  0  0  0  0  0  0  0  0  0  0  0
   -1.7283    1.8532    0.1101 C   0  0  0  0  0  0  0  0  0  0  0  0
    1.1982   -1.2744   -0.0958 C   0  0  0  0  0  0  0  0  0  0  0  0
   -0.1573   -1.5819   -0.1189 C   0  0  0  0  0  0  0  0  0  0  0  0
   -1.1285   -0.5907   -0.0497 C   0  0  0  0  0  0  0  0  0  0  0  0
   -2.5875   -0.9434   -0.0720 C   0  0  0  0  0  0  0  0  0  0  0  0
    3.3653    0.7542    1.0414 H   0  0  0  0  0  0  0  0  0  0  0  0
    3.7070   -0.4581   -0.1861 H   0  0  0  0  0  0  0  0  0  0  0  0
    3.3221    1.1966   -0.6556 H   0  0  0  0  0  0  0  0  0  0  0  0
    0.9551    2.0762    0.1353 H   0  0  0  0  0  0  0  0  0  0  0  0
   -2.3694    1.8637   -0.7743 H   0  0  0  0  0  0  0  0  0  0  0  0
   -2.3882    1.7420    0.9731 H   0  0  0  0  0  0  0  0  0  0  0  0
   -1.2493    2.8286    0.1828 H   0  0  0  0  0  0  0  0  0  0  0  0
    1.9290   -2.0728   -0.1509 H   0  0  0  0  0  0  0  0  0  0  0  0
   -0.4635   -2.6190   -0.1954 H   0  0  0  0  0  0  0  0  0  0  0  0
   -3.0934   -0.6217    0.8413 H   0  0  0  0  0  0  0  0  0  0  0  0
   -3.1086   -0.4625   -0.9030 H   0  0  0  0  0  0  0  0  0  0  0  0
   -2.7323   -2.0187   -0.1690 H   0  0  0  0  0  0  0  0  0  0  0  0
  1  2  1  0
  6  2  2  0
  6  7  1  0
  2  3  1  0
  7  8  2  0
  3  4  2  0
  8  4  1  0
  8  9  1  0
  4  5  1  0
  1 10  1  0
  1 11  1  0
  1 12  1  0
  3 13  1  0
  5 14  1  0
  5 15  1  0
  5 16  1  0
  6 17  1  0
  7 18  1  0
  9 19  1  0
  9 20  1  0
  9 21  1  0
M  END
