
     RDKit          3D

 20 20  0  0  0  0  0  0  0  0999 V2000
    0.2258   -0.6676    0.4668 C   0  0  0  0  0  0  0  0  0  0  0  0
   -0.9387   -0.5581   -0.2902 C   0  0  0  0  0  0  0  0  0  0  0  0
   -0.8895   -0.2801   -1.6458 C   0  0  0  0  0  0  0  0  0  0  0  0
    0.3543   -0.1076   -2.2691 C   0  0  0  0  0  0  0  0  0  0  0  0
    1.5138   -0.2193   -1.5216 C   0  0  0  0  0  0  0  0  0  0  0  0
    1.4506   -0.4989   -0.1605 C   0  0  0  0  0  0  0  0  0  0  0  0
    0.1430   -0.9502    1.9362 C   0  0  0  0  0  0  0  0  0  0  0  0
   -0.1161    0.2892    2.7581 C   0  0  0  0  0  0  0  0  0  0  0  0
   -0.2329    1.4039    2.3189 O   0  0  0  0  0  0  0  0  0  0  0  0
   -0.2002    0.0007    4.0527 O   0  0  0  0  0  0  0  0  0  0  0  0
   -2.0456   -0.1816   -2.3363 O   0  0  0  0  0  0  0  0  0  0  0  0
    0.3254    0.1584   -3.5960 O   0  0  0  0  0  0  0  0  0  0  0  0
   -1.9078   -0.6932    0.1772 H   0  0  0  0  0  0  0  0  0  0  0  0
    2.4767   -0.0887   -2.0028 H   0  0  0  0  0  0  0  0  0  0  0  0
    2.3695   -0.5868    0.4058 H   0  0  0  0  0  0  0  0  0  0  0  0
    1.0689   -1.4066    2.2977 H   0  0  0  0  0  0  0  0  0  0  0  0
   -0.6478   -1.6737    2.1549 H   0  0  0  0  0  0  0  0  0  0  0  0
   -0.3699    0.8070    4.5624 H   0  0  0  0  0  0  0  0  0  0  0  0
   -1.8696    0.0165   -3.2635 H   0  0  0  0  0  0  0  0  0  0  0  0
    1.2152    0.3015   -3.9362 H   0  0  0  0  0  0  0  0  0  0  0  0
  1  2  2  0
  1  6  1  0
  1  7  1  0
  2  3  1  0
  2 13  1  0
  3  4  2  0
  3 11  1  0
  4  5  1  0
  4 12  1  0
  5  6  2  0
  5 14  1  0
  6 15  1  0
  7  8  1  0
  7 16  1  0
  7 17  1  0
  8  9  2  0
  8 10  1  0
 10 18  1  0
 11 19  1  0
 12 20  1  0
M  END
