
     RDKit          3D

 30 31  0  0  0  0  0  0  0  0999 V2000
   -1.1645   -0.1210   -0.8743 C   0  0  0  0  0  0  0  0  0  0  0  0
    0.0622   -0.1947   -1.4711 C   0  0  0  0  0  0  0  0  0  0  0  0
    1.2559   -0.0674   -0.7324 C   0  0  0  0  0  0  0  0  0  0  0  0
    1.1816    0.0987    0.6206 C   0  0  0  0  0  0  0  0  0  0  0  0
   -0.0646    0.1369    1.2915 C   0  0  0  0  0  0  0  0  0  0  0  0
   -0.1557    0.2868    2.7113 C   0  0  0  0  0  0  0  0  0  0  0  0
   -1.4005    0.4527    3.2765 C   0  0  0  0  0  0  0  0  0  0  0  0
   -2.5730    0.4241    2.4971 C   0  0  0  0  0  0  0  0  0  0  0  0
   -2.5137    0.2071    1.1502 C   0  0  0  0  0  0  0  0  0  0  0  0
   -1.2549    0.0655    0.5230 C   0  0  0  0  0  0  0  0  0  0  0  0
    1.0294    0.2868    3.4595 N   0  0  0  0  0  0  0  0  0  0  0  0
    0.9899    0.9705    4.7341 C   0  0  0  0  0  0  0  0  0  0  0  0
    1.6793   -1.0119    3.5741 C   0  0  0  0  0  0  0  0  0  0  0  0
    0.1667   -0.4474   -3.2082 S   0  0  2  0  0  0  0  0  0  0  0  0
    1.3080   -1.2865   -3.5183 O   0  0  0  0  0  0  0  0  0  0  0  0
    0.5027    1.0567   -3.6417 O   0  0  0  0  0  0  0  0  0  0  0  0
   -1.1327   -0.8184   -3.7302 O   0  0  0  0  0  0  0  0  0  0  0  0
   -2.0768   -0.1988   -1.4516 H   0  0  0  0  0  0  0  0  0  0  0  0
    2.2193   -0.0937   -1.2232 H   0  0  0  0  0  0  0  0  0  0  0  0
    2.0933    0.2257    1.1874 H   0  0  0  0  0  0  0  0  0  0  0  0
   -1.4990    0.5870    4.3456 H   0  0  0  0  0  0  0  0  0  0  0  0
   -3.5300    0.5523    2.9857 H   0  0  0  0  0  0  0  0  0  0  0  0
   -3.4145    0.1559    0.5518 H   0  0  0  0  0  0  0  0  0  0  0  0
    2.0095    1.0758    5.1057 H   0  0  0  0  0  0  0  0  0  0  0  0
    0.5704    1.9692    4.6173 H   0  0  0  0  0  0  0  0  0  0  0  0
    0.4134    0.4402    5.5037 H   0  0  0  0  0  0  0  0  0  0  0  0
    1.7024   -1.5306    2.6180 H   0  0  0  0  0  0  0  0  0  0  0  0
    2.7094   -0.8777    3.9051 H   0  0  0  0  0  0  0  0  0  0  0  0
    1.1704   -1.6639    4.2960 H   0  0  0  0  0  0  0  0  0  0  0  0
    0.9117    1.0893   -4.5243 H   0  0  0  0  0  0  0  0  0  0  0  0
  1  2  2  0
  1 10  1  0
  1 18  1  0
  2  3  1  0
  2 14  1  0
  3  4  2  0
  3 19  1  0
  4  5  1  0
  4 20  1  0
  5  6  1  0
  5 10  2  0
  6  7  2  0
  6 11  1  0
  7  8  1  0
  7 21  1  0
  8  9  2  0
  8 22  1  0
  9 10  1  0
  9 23  1  0
 11 12  1  0
 11 13  1  0
 12 24  1  0
 12 25  1  0
 12 26  1  0
 13 27  1  0
 13 28  1  0
 13 29  1  0
 14 15  2  0
 14 16  1  6
 14 17  2  0
 16 30  1  0
M  END
