
     RDKit          3D

 44 44  0  0  0  0  0  0  0  0999 V2000
   -1.1403    1.1863   -4.7866 N   0  0  0  0  0  0  0  0  0  0  0  0
   -0.0234    0.6247   -5.5065 C   0  0  2  0  0  0  0  0  0  0  0  0
   -0.4648    0.2413   -6.9034 C   0  0  0  0  0  0  0  0  0  0  0  0
   -1.6112    0.1119   -7.2495 O   0  0  0  0  0  0  0  0  0  0  0  0
    0.5712    0.0273   -7.7050 O   0  0  0  0  0  0  0  0  0  0  0  0
    0.6478   -0.6007   -4.8314 C   0  0  0  0  0  0  0  0  0  0  0  0
    1.1664   -0.2429   -3.4792 C   0  0  0  0  0  0  0  0  0  0  0  0
    0.6699   -0.6273   -2.2910 C   0  0  0  0  0  0  0  0  0  0  0  0
   -0.3923   -1.4412   -2.1143 O   0  0  0  0  0  0  0  0  0  0  0  0
    1.2927   -0.1793   -1.0538 C   0  0  0  0  0  0  0  0  0  0  0  0
    0.8877   -0.5503    0.1694 C   0  0  0  0  0  0  0  0  0  0  0  0
    1.4486   -0.1292    1.4543 C   0  0  0  0  0  0  0  0  0  0  0  0
    2.7956    0.1960    1.6431 C   0  0  0  0  0  0  0  0  0  0  0  0
    3.6289    0.1286    0.5911 O   0  0  0  0  0  0  0  0  0  0  0  0
    3.2565    0.5659    2.9143 C   0  0  0  0  0  0  0  0  0  0  0  0
    4.7007    0.9091    3.1294 C   0  0  0  0  0  0  0  0  0  0  0  0
    2.4428    0.6200    3.9548 N   0  0  0  0  0  0  0  0  0  0  0  0
    1.1606    0.3095    3.7984 C   0  0  0  0  0  0  0  0  0  0  0  0
    0.6156   -0.0739    2.5860 C   0  0  0  0  0  0  0  0  0  0  0  0
   -0.8431   -0.4067    2.4444 C   0  0  0  0  0  0  0  0  0  0  0  0
   -3.0665   -0.1089    3.7747 P   0  0  2  0  0  0  0  0  0  0  0  0
   -3.8763   -0.9818    2.9061 O   0  0  0  0  0  0  0  0  0  0  0  0
   -3.2148   -0.2695    5.3514 O   0  0  0  0  0  0  0  0  0  0  0  0
   -3.3420    1.4204    3.4045 O   0  0  0  0  0  0  0  0  0  0  0  0
   -1.4824   -0.3136    3.7126 O   0  0  0  0  0  0  0  0  0  0  0  0
   -0.8383    1.4496   -3.8569 H   0  0  0  0  0  0  0  0  0  0  0  0
   -1.8730    0.4967   -4.6689 H   0  0  0  0  0  0  0  0  0  0  0  0
    0.7424    1.4010   -5.6050 H   0  0  0  0  0  0  0  0  0  0  0  0
    0.2648   -0.2639   -8.5772 H   0  0  0  0  0  0  0  0  0  0  0  0
    1.4798   -0.9490   -5.4481 H   0  0  0  0  0  0  0  0  0  0  0  0
   -0.0717   -1.4261   -4.8036 H   0  0  0  0  0  0  0  0  0  0  0  0
    2.0236    0.4199   -3.4553 H   0  0  0  0  0  0  0  0  0  0  0  0
   -0.7510   -1.7304   -2.9601 H   0  0  0  0  0  0  0  0  0  0  0  0
    2.1163    0.5074   -1.1878 H   0  0  0  0  0  0  0  0  0  0  0  0
    0.0371   -1.2191    0.2362 H   0  0  0  0  0  0  0  0  0  0  0  0
    4.5344    0.3323    0.8510 H   0  0  0  0  0  0  0  0  0  0  0  0
    5.3620    0.0641    2.9192 H   0  0  0  0  0  0  0  0  0  0  0  0
    5.0261    1.7449    2.5048 H   0  0  0  0  0  0  0  0  0  0  0  0
    4.8585    1.1940    4.1667 H   0  0  0  0  0  0  0  0  0  0  0  0
    0.5467    0.3759    4.6869 H   0  0  0  0  0  0  0  0  0  0  0  0
   -1.3024    0.2739    1.7191 H   0  0  0  0  0  0  0  0  0  0  0  0
   -0.9732   -1.4216    2.0590 H   0  0  0  0  0  0  0  0  0  0  0  0
   -4.1313   -0.3060    5.6576 H   0  0  0  0  0  0  0  0  0  0  0  0
   -2.9054    2.0752    3.9658 H   0  0  0  0  0  0  0  0  0  0  0  0
  1  2  1  0
  1 26  1  0
  1 27  1  0
  2  3  1  0
  2  6  1  0
  2 28  1  6
  3  4  2  0
  3  5  1  0
  5 29  1  0
  6  7  1  0
  6 30  1  0
  6 31  1  0
  7  8  2  0
  7 32  1  0
  8  9  1  0
  8 10  1  0
  9 33  1  0
 10 11  2  0
 10 34  1  0
 11 12  1  0
 11 35  1  0
 12 13  2  0
 12 19  1  0
 13 14  1  0
 13 15  1  0
 14 36  1  0
 15 16  1  0
 15 17  2  0
 16 37  1  0
 16 38  1  0
 16 39  1  0
 17 18  1  0
 18 19  2  0
 18 40  1  0
 19 20  1  0
 20 25  1  0
 20 41  1  0
 20 42  1  0
 21 22  2  0
 21 23  1  1
 21 24  1  0
 21 25  1  0
 23 43  1  0
 24 44  1  0
M  END
