
     RDKit          3D

 28 30  0  0  0  0  0  0  0  0999 V2000
   -4.9306   -0.2777    0.1367 O   0  0  0  0  0  0  0  0  0  0  0  0
   -3.8940    0.3567   -0.0163 C   0  0  0  0  0  0  0  0  0  0  0  0
   -3.8617    1.6625   -0.2947 N   0  0  0  0  0  0  0  0  0  0  0  0
   -2.5655   -0.3276    0.1023 C   0  0  0  0  0  0  0  0  0  0  0  0
   -2.5333   -1.6715    0.3568 C   0  0  0  0  0  0  0  0  0  0  0  0
   -1.3093   -2.3620    0.4916 C   0  0  0  0  0  0  0  0  0  0  0  0
   -0.1333   -1.7004    0.3577 C   0  0  0  0  0  0  0  0  0  0  0  0
   -0.1489   -0.3672    0.0821 N   0  0  0  0  0  0  0  0  0  0  0  0
    0.8897    0.5287   -0.0764 C   0  0  0  0  0  0  0  0  0  0  0  0
    0.2762    1.7389   -0.2739 C   0  0  0  0  0  0  0  0  0  0  0  0
   -1.0708    1.6289   -0.2510 N   0  0  0  0  0  0  0  0  0  0  0  0
   -1.3271    0.3526   -0.0323 C   0  0  0  0  0  0  0  0  0  0  0  0
    2.3046    0.1838   -0.0383 C   0  0  0  0  0  0  0  0  0  0  0  0
    2.8489   -0.8813   -0.7549 C   0  0  0  0  0  0  0  0  0  0  0  0
    4.2117   -1.1122   -0.6844 C   0  0  0  0  0  0  0  0  0  0  0  0
    4.9921   -0.2607    0.0838 C   0  0  0  0  0  0  0  0  0  0  0  0
    4.4916    0.7654    0.7624 N   0  0  0  0  0  0  0  0  0  0  0  0
    3.1849    0.9710    0.7068 C   0  0  0  0  0  0  0  0  0  0  0  0
   -4.7255    2.1691   -0.3999 H   0  0  0  0  0  0  0  0  0  0  0  0
   -2.9834    2.1525   -0.4133 H   0  0  0  0  0  0  0  0  0  0  0  0
   -3.4613   -2.2153    0.4652 H   0  0  0  0  0  0  0  0  0  0  0  0
   -1.2958   -3.4197    0.7071 H   0  0  0  0  0  0  0  0  0  0  0  0
    0.8291   -2.1756    0.4714 H   0  0  0  0  0  0  0  0  0  0  0  0
    0.7656    2.6845   -0.4526 H   0  0  0  0  0  0  0  0  0  0  0  0
    2.2244   -1.5078   -1.3790 H   0  0  0  0  0  0  0  0  0  0  0  0
    4.6667   -1.9296   -1.2260 H   0  0  0  0  0  0  0  0  0  0  0  0
    6.0631   -0.4133    0.1519 H   0  0  0  0  0  0  0  0  0  0  0  0
    2.7981    1.8048    1.2840 H   0  0  0  0  0  0  0  0  0  0  0  0
 15 16  1  0
 15 14  2  0
 16 17  2  0
 14 13  1  0
  6  7  2  0
  6  5  1  0
  7  8  1  0
 17 18  1  0
 13 18  2  0
 13  9  1  0
  5  4  2  0
  8  9  1  0
  8 12  1  0
  9 10  2  0
  4 12  1  0
  4  2  1  0
 12 11  2  0
 10 11  1  0
  3  2  1  0
  2  1  2  0
  3 19  1  0
  3 20  1  0
  5 21  1  0
  6 22  1  0
  7 23  1  0
 10 24  1  0
 14 25  1  0
 15 26  1  0
 16 27  1  0
 18 28  1  0
M  END
