
     RDKit          3D

 26 26  0  0  0  0  0  0  0  0999 V2000
   -3.0344    1.6104   -0.8333 O   0  0  0  0  0  0  0  0  0  0  0  0
   -1.6667    1.6104   -0.8333 C   0  0  1  0  0  0  0  0  0  0  0  0
   -1.1740    1.6104    0.6058 C   0  0  0  0  0  0  0  0  0  0  0  0
    0.2784    1.4561    0.6895 C   0  0  0  0  0  0  0  0  0  0  0  0
    0.7576    0.2704   -0.0658 C   0  0  1  0  0  0  0  0  0  0  0  0
    0.2845   -0.9183    0.5881 O   0  0  0  0  0  0  0  0  0  0  0  0
    0.8138   -2.6927    2.3189 C   0  0  0  0  0  0  0  0  0  0  0  0
    1.2077   -1.4831    1.4741 C   0  0  0  0  0  0  0  0  0  0  0  0
    2.2944   -1.0216    1.5710 O   0  0  0  0  0  0  0  0  0  0  0  0
    0.2593    0.2703   -1.5101 C   0  0  2  0  0  0  0  0  0  0  0  0
   -1.1843    0.4224   -1.5907 O   0  0  0  0  0  0  0  0  0  0  0  0
    0.6503   -1.0341   -2.1619 C   0  0  0  0  0  0  0  0  0  0  0  0
   -3.3488    1.9781   -1.6426 H   0  0  0  0  0  0  0  0  0  0  0  0
   -1.3101    2.5073   -1.3252 H   0  0  0  0  0  0  0  0  0  0  0  0
   -1.6445    0.7920    1.1373 H   0  0  0  0  0  0  0  0  0  0  0  0
   -1.4543    2.5471    1.0721 H   0  0  0  0  0  0  0  0  0  0  0  0
    0.5598    1.3462    1.7298 H   0  0  0  0  0  0  0  0  0  0  0  0
    0.7491    2.3436    0.2841 H   0  0  0  0  0  0  0  0  0  0  0  0
    1.8409    0.2702   -0.0683 H   0  0  0  0  0  0  0  0  0  0  0  0
    0.5522   -2.3657    3.3180 H   0  0  0  0  0  0  0  0  0  0  0  0
    1.6469   -3.3831    2.3716 H   0  0  0  0  0  0  0  0  0  0  0  0
   -0.0371   -3.1875    1.8665 H   0  0  0  0  0  0  0  0  0  0  0  0
    0.7278    1.0895   -2.0421 H   0  0  0  0  0  0  0  0  0  0  0  0
    1.6986   -1.2320   -1.9733 H   0  0  0  0  0  0  0  0  0  0  0  0
    0.0513   -1.8374   -1.7502 H   0  0  0  0  0  0  0  0  0  0  0  0
    0.4817   -0.9688   -3.2300 H   0  0  0  0  0  0  0  0  0  0  0  0
  1  2  1  0
  1 13  1  0
  2  3  1  0
  2 11  1  0
  2 14  1  6
  3  4  1  0
  3 15  1  0
  3 16  1  0
  4  5  1  0
  4 17  1  0
  4 18  1  0
  5  6  1  0
  5 10  1  0
  5 19  1  6
  6  8  1  0
  7  8  1  0
  7 20  1  0
  7 21  1  0
  7 22  1  0
  8  9  2  0
 10 11  1  0
 10 12  1  0
 10 23  1  6
 12 24  1  0
 12 25  1  0
 12 26  1  0
M  END
