
     RDKit          3D

 63 66  0  0  0  0  0  0  0  0999 V2000
   -2.5031    0.4936    0.0333 C   0  0  0  0  0  0  0  0  0  0  0  0
   -1.2566    1.3529    0.0186 C   0  0  0  0  0  0  0  0  0  0  0  0
    0.0068    0.5004    0.0319 C   0  0  0  0  0  0  0  0  0  0  0  0
    4.8804    0.8356    0.0268 C   0  0  0  0  0  0  0  0  0  0  0  0
    5.1608   -0.5265    0.1339 C   0  0  0  0  0  0  0  0  0  0  0  0
    6.4782   -0.9578    0.1786 C   0  0  0  0  0  0  0  0  0  0  0  0
    7.5412   -0.0644    0.1076 C   0  0  0  0  0  0  0  0  0  0  0  0
    7.2456    1.2964    0.0026 C   0  0  0  0  0  0  0  0  0  0  0  0
    5.9389    1.7438   -0.0353 C   0  0  0  0  0  0  0  0  0  0  0  0
   -4.8645    0.8194    0.0614 C   0  0  0  0  0  0  0  0  0  0  0  0
   -5.9326    1.7221    0.0921 C   0  0  0  0  0  0  0  0  0  0  0  0
   -7.2327    1.2631    0.1175 C   0  0  0  0  0  0  0  0  0  0  0  0
   -5.1328   -0.5467    0.0567 C   0  0  0  0  0  0  0  0  0  0  0  0
    8.9376   -0.5654    0.1641 C   0  0  0  0  0  0  0  0  0  0  0  0
   -8.9282   -0.5671    0.1407 C   0  0  0  0  0  0  0  0  0  0  0  0
   -9.1571   -1.7988   -0.3918 N   0  0  0  0  0  0  0  0  0  0  0  0
    9.1733   -1.6615    0.7825 N   0  0  0  0  0  0  0  0  0  0  0  0
  -11.5133   -1.2259   -0.4604 C   0  0  0  0  0  0  0  0  0  0  0  0
   11.3610   -1.6895   -0.4071 C   0  0  0  0  0  0  0  0  0  0  0  0
   10.5303   -2.1660    0.7767 C   0  0  0  0  0  0  0  0  0  0  0  0
    1.2702    1.3518   -0.0027 C   0  0  0  0  0  0  0  0  0  0  0  0
    2.5182    0.4952    0.0401 C   0  0  0  0  0  0  0  0  0  0  0  0
    3.6439    1.3583   -0.0222 O   0  0  0  0  0  0  0  0  0  0  0  0
   -3.6325    1.3543    0.0406 O   0  0  0  0  0  0  0  0  0  0  0  0
   -7.5184   -0.1041    0.1030 C   0  0  0  0  0  0  0  0  0  0  0  0
   -6.4490   -0.9921    0.0762 C   0  0  0  0  0  0  0  0  0  0  0  0
   -9.8083    0.1872    0.6848 N   0  0  0  0  0  0  0  0  0  0  0  0
    9.8693    0.2234   -0.4381 N   0  0  0  0  0  0  0  0  0  0  0  0
  -11.1890   -0.2468    0.6601 C   0  0  0  0  0  0  0  0  0  0  0  0
  -10.4954   -2.3527   -0.4400 C   0  0  0  0  0  0  0  0  0  0  0  0
   11.2611   -0.1767   -0.5010 C   0  0  0  0  0  0  0  0  0  0  0  0
   -2.5244   -0.1572   -0.8486 H   0  0  0  0  0  0  0  0  0  0  0  0
   -2.5091   -0.1501    0.9207 H   0  0  0  0  0  0  0  0  0  0  0  0
   -1.2617    1.9893   -0.8711 H   0  0  0  0  0  0  0  0  0  0  0  0
   -1.2599    2.0162    0.8883 H   0  0  0  0  0  0  0  0  0  0  0  0
    0.0128   -0.1309    0.9266 H   0  0  0  0  0  0  0  0  0  0  0  0
    0.0002   -0.1804   -0.8255 H   0  0  0  0  0  0  0  0  0  0  0  0
    4.3715   -1.2639    0.1798 H   0  0  0  0  0  0  0  0  0  0  0  0
    6.6828   -2.0166    0.2648 H   0  0  0  0  0  0  0  0  0  0  0  0
    8.0399    2.0316   -0.0280 H   0  0  0  0  0  0  0  0  0  0  0  0
    5.7294    2.8040   -0.1060 H   0  0  0  0  0  0  0  0  0  0  0  0
   -5.7303    2.7861    0.0936 H   0  0  0  0  0  0  0  0  0  0  0  0
   -8.0484    1.9729    0.1438 H   0  0  0  0  0  0  0  0  0  0  0  0
   -4.3390   -1.2802    0.0457 H   0  0  0  0  0  0  0  0  0  0  0  0
   -8.4835   -2.1593   -1.0455 H   0  0  0  0  0  0  0  0  0  0  0  0
  -12.5220   -1.6246   -0.3442 H   0  0  0  0  0  0  0  0  0  0  0  0
  -11.4747   -0.7135   -1.4255 H   0  0  0  0  0  0  0  0  0  0  0  0
   12.4027   -1.9930   -0.2936 H   0  0  0  0  0  0  0  0  0  0  0  0
   10.9881   -2.1416   -1.3303 H   0  0  0  0  0  0  0  0  0  0  0  0
   11.0303   -1.8759    1.7094 H   0  0  0  0  0  0  0  0  0  0  0  0
   10.4923   -3.2585    0.7912 H   0  0  0  0  0  0  0  0  0  0  0  0
    1.2763    1.9617   -0.9108 H   0  0  0  0  0  0  0  0  0  0  0  0
    1.2723    2.0406    0.8470 H   0  0  0  0  0  0  0  0  0  0  0  0
    2.5396   -0.0960    0.9629 H   0  0  0  0  0  0  0  0  0  0  0  0
    2.5279   -0.2055   -0.8029 H   0  0  0  0  0  0  0  0  0  0  0  0
   -6.6199   -2.0614    0.0925 H   0  0  0  0  0  0  0  0  0  0  0  0
    9.5492    0.8896   -1.1197 H   0  0  0  0  0  0  0  0  0  0  0  0
  -11.8259    0.6380    0.5773 H   0  0  0  0  0  0  0  0  0  0  0  0
  -11.4450   -0.7011    1.6252 H   0  0  0  0  0  0  0  0  0  0  0  0
  -10.5771   -2.9808   -1.3263 H   0  0  0  0  0  0  0  0  0  0  0  0
  -10.6694   -2.9990    0.4263 H   0  0  0  0  0  0  0  0  0  0  0  0
   11.8273    0.2855    0.3139 H   0  0  0  0  0  0  0  0  0  0  0  0
   11.6852    0.1921   -1.4343 H   0  0  0  0  0  0  0  0  0  0  0  0
 19 31  1  0
 19 20  1  0
 31 28  1  0
 29 27  1  0
 29 18  1  0
 20 17  1  0
 27 15  2  0
 28 14  1  0
 17 14  2  0
 18 30  1  0
 14  7  1  0
 26 13  2  0
 26 25  1  0
  6  7  1  0
  6  5  2  0
 13 10  1  0
  7  8  2  0
 15 25  1  0
 15 16  1  0
  5  4  1  0
 25 12  2  0
 30 16  1  0
  8  9  1  0
  4  9  2  0
  4 23  1  0
 10 24  1  0
 10 11  2  0
  3  2  1  0
  3 21  1  0
  1 24  1  0
  1  2  1  0
 23 22  1  0
 22 21  1  0
 12 11  1  0
  1 32  1  0
  1 33  1  0
  2 34  1  0
  2 35  1  0
  3 36  1  0
  3 37  1  0
  5 38  1  0
  6 39  1  0
  8 40  1  0
  9 41  1  0
 11 42  1  0
 12 43  1  0
 13 44  1  0
 16 45  1  0
 18 46  1  0
 18 47  1  0
 19 48  1  0
 19 49  1  0
 20 50  1  0
 20 51  1  0
 21 52  1  0
 21 53  1  0
 22 54  1  0
 22 55  1  0
 26 56  1  0
 28 57  1  0
 29 58  1  0
 29 59  1  0
 30 60  1  0
 30 61  1  0
 31 62  1  0
 31 63  1  0
M  END
