
     RDKit          3D

 33 32  0  0  0  0  0  0  0  0999 V2000
   -0.0117    0.2546    0.0566 C   0  0  1  0  0  0  0  0  0  0  0  0
    1.2479   -0.5164    0.4637 C   0  0  0  0  0  0  0  0  0  0  0  0
    2.4457    0.0816   -0.0872 N   0  0  0  0  0  0  0  0  0  0  0  0
    3.6357   -0.7134    0.1496 C   0  0  0  0  0  0  0  0  0  0  0  0
    4.8488   -0.0788   -0.5101 C   0  0  0  0  0  0  0  0  0  0  0  0
    6.0346   -0.8862   -0.2706 N   0  0  0  0  0  0  0  0  0  0  0  0
   -1.2657   -0.5241    0.4662 C   0  0  0  0  0  0  0  0  0  0  0  0
   -2.4688    0.0732   -0.0745 N   0  0  0  0  0  0  0  0  0  0  0  0
   -3.6536   -0.7314    0.1567 C   0  0  0  0  0  0  0  0  0  0  0  0
   -4.8714   -0.0999   -0.4975 C   0  0  0  0  0  0  0  0  0  0  0  0
   -6.0517   -0.9167   -0.2612 N   0  0  0  0  0  0  0  0  0  0  0  0
   -0.0149    1.5875    0.7458 C   0  0  0  0  0  0  0  0  0  0  0  0
   -0.0120    2.6653    0.2048 O   0  0  0  0  0  0  0  0  0  0  0  0
   -0.0129    0.3974   -1.0265 H   0  0  0  0  0  0  0  0  0  0  0  0
    1.1605   -1.5310    0.0661 H   0  0  0  0  0  0  0  0  0  0  0  0
    1.2789   -0.6215    1.5606 H   0  0  0  0  0  0  0  0  0  0  0  0
    2.5899    1.0012    0.3154 H   0  0  0  0  0  0  0  0  0  0  0  0
    3.4792   -1.7084   -0.2777 H   0  0  0  0  0  0  0  0  0  0  0  0
    3.8395   -0.8645    1.2228 H   0  0  0  0  0  0  0  0  0  0  0  0
    4.9451    0.9604   -0.1606 H   0  0  0  0  0  0  0  0  0  0  0  0
    4.6745   -0.0276   -1.5873 H   0  0  0  0  0  0  0  0  0  0  0  0
    6.8140   -0.5030   -0.7888 H   0  0  0  0  0  0  0  0  0  0  0  0
    6.2963   -0.8202    0.7053 H   0  0  0  0  0  0  0  0  0  0  0  0
   -1.1763   -1.5359    0.0620 H   0  0  0  0  0  0  0  0  0  0  0  0
   -1.2899   -0.6353    1.5624 H   0  0  0  0  0  0  0  0  0  0  0  0
   -2.6171    0.9863    0.3413 H   0  0  0  0  0  0  0  0  0  0  0  0
   -3.4907   -1.7215   -0.2789 H   0  0  0  0  0  0  0  0  0  0  0  0
   -3.8560   -0.8926    1.2286 H   0  0  0  0  0  0  0  0  0  0  0  0
   -4.9745    0.9362   -0.1411 H   0  0  0  0  0  0  0  0  0  0  0  0
   -4.6990   -0.0407   -1.5746 H   0  0  0  0  0  0  0  0  0  0  0  0
   -6.3149   -0.8551    0.7145 H   0  0  0  0  0  0  0  0  0  0  0  0
   -6.8333   -0.5379   -0.7795 H   0  0  0  0  0  0  0  0  0  0  0  0
   -0.0193    1.5094    1.8519 H   0  0  0  0  0  0  0  0  0  0  0  0
  1  2  1  0
  1  7  1  0
  1 12  1  0
  1 14  1  6
  2  3  1  0
  2 15  1  0
  2 16  1  0
  3  4  1  0
  3 17  1  0
  4  5  1  0
  4 18  1  0
  4 19  1  0
  5  6  1  0
  5 20  1  0
  5 21  1  0
  6 22  1  0
  6 23  1  0
  7  8  1  0
  7 24  1  0
  7 25  1  0
  8  9  1  0
  8 26  1  0
  9 10  1  0
  9 27  1  0
  9 28  1  0
 10 11  1  0
 10 29  1  0
 10 30  1  0
 11 31  1  0
 11 32  1  0
 12 13  2  0
 12 33  1  0
M  END
