
     RDKit          3D

 77 80  0  0  0  0  0  0  0  0999 V2000
    0.8795    0.5665   -2.2497 N   0  0  0  0  0  0  0  0  0  0  0  0
    0.5870   -0.2264   -1.0880 C   0  0  1  0  0  0  0  0  0  0  0  0
    1.8587   -0.5138   -0.2582 C   0  0  0  0  0  0  0  0  0  0  0  0
    2.9166   -1.1669   -1.0973 C   0  0  0  0  0  0  0  0  0  0  0  0
    3.8848   -0.4004   -1.7399 C   0  0  0  0  0  0  0  0  0  0  0  0
    4.8170   -0.9912   -2.5828 C   0  0  0  0  0  0  0  0  0  0  0  0
    4.7975   -2.3641   -2.7864 C   0  0  0  0  0  0  0  0  0  0  0  0
    3.8421   -3.1400   -2.1416 C   0  0  0  0  0  0  0  0  0  0  0  0
    2.9080   -2.5432   -1.3075 C   0  0  0  0  0  0  0  0  0  0  0  0
   -0.4106    0.5193   -0.2088 C   0  0  0  0  0  0  0  0  0  0  0  0
   -1.3078   -0.2614    0.4121 N   0  0  0  0  0  0  0  0  0  0  0  0
   -2.3062    0.2155    1.3494 C   0  0  1  0  0  0  0  0  0  0  0  0
   -3.6900   -0.3049    0.9696 C   0  0  0  0  0  0  0  0  0  0  0  0
   -4.1432    0.1383   -0.4210 C   0  0  0  0  0  0  0  0  0  0  0  0
   -5.5271   -0.3611   -0.7301 C   0  0  0  0  0  0  0  0  0  0  0  0
   -6.6506    0.3810   -0.3716 C   0  0  0  0  0  0  0  0  0  0  0  0
   -7.9302   -0.1013   -0.6127 C   0  0  0  0  0  0  0  0  0  0  0  0
   -8.1062   -1.3398   -1.2166 C   0  0  0  0  0  0  0  0  0  0  0  0
   -6.9941   -2.0882   -1.5802 C   0  0  0  0  0  0  0  0  0  0  0  0
   -5.7167   -1.6008   -1.3375 C   0  0  0  0  0  0  0  0  0  0  0  0
   -0.2160   -0.0532    4.8918 S   0  0  2  0  0  0  0  0  0  0  0  0
    1.4324    0.5633    5.1104 C   0  0  0  0  0  0  0  0  0  0  0  0
    1.6159    1.8540    5.5876 C   0  0  0  0  0  0  0  0  0  0  0  0
    2.9085    2.3354    5.7341 C   0  0  0  0  0  0  0  0  0  0  0  0
    3.9928    1.5332    5.4035 C   0  0  0  0  0  0  0  0  0  0  0  0
    3.7936    0.2434    4.9275 C   0  0  0  0  0  0  0  0  0  0  0  0
    2.5072   -0.2522    4.7796 C   0  0  0  0  0  0  0  0  0  0  0  0
   -1.1188    0.7200    5.7433 O   0  0  0  0  0  0  0  0  0  0  0  0
   -0.1919   -1.5081    5.0372 O   0  0  0  0  0  0  0  0  0  0  0  0
   -0.3383    1.7304   -0.0636 O   0  0  0  0  0  0  0  0  0  0  0  0
    1.0085    0.0080   -3.4849 C   0  0  0  0  0  0  0  0  0  0  0  0
    0.6348   -1.1357   -3.7149 O   0  0  0  0  0  0  0  0  0  0  0  0
    1.5218    0.8102   -4.4732 N   0  0  0  0  0  0  0  0  0  0  0  0
    1.8758    0.1704   -5.7311 C   0  0  0  0  0  0  0  0  0  0  0  0
    1.8421    1.1815   -6.8589 C   0  0  0  0  0  0  0  0  0  0  0  0
    2.6715    2.2901   -6.5935 O   0  0  0  0  0  0  0  0  0  0  0  0
    2.2610    2.9359   -5.4131 C   0  0  0  0  0  0  0  0  0  0  0  0
    2.2992    2.0103   -4.2089 C   0  0  0  0  0  0  0  0  0  0  0  0
   -1.9520   -0.1807    2.7850 C   0  0  0  0  0  0  0  0  0  0  0  0
    1.2347    1.4887   -2.0644 H   0  0  0  0  0  0  0  0  0  0  0  0
    0.1625   -1.1723   -1.4234 H   0  0  0  0  0  0  0  0  0  0  0  0
    2.2299    0.4269    0.1574 H   0  0  0  0  0  0  0  0  0  0  0  0
    1.5897   -1.1539    0.5859 H   0  0  0  0  0  0  0  0  0  0  0  0
    3.9127    0.6709   -1.5779 H   0  0  0  0  0  0  0  0  0  0  0  0
    5.5602   -0.3786   -3.0770 H   0  0  0  0  0  0  0  0  0  0  0  0
    5.5258   -2.8292   -3.4384 H   0  0  0  0  0  0  0  0  0  0  0  0
    3.8240   -4.2121   -2.2912 H   0  0  0  0  0  0  0  0  0  0  0  0
    2.1609   -3.1548   -0.8142 H   0  0  0  0  0  0  0  0  0  0  0  0
   -1.2967   -1.2518    0.2177 H   0  0  0  0  0  0  0  0  0  0  0  0
   -2.3118    1.3048    1.2800 H   0  0  0  0  0  0  0  0  0  0  0  0
   -3.7034   -1.3984    1.0313 H   0  0  0  0  0  0  0  0  0  0  0  0
   -4.4041    0.0538    1.7152 H   0  0  0  0  0  0  0  0  0  0  0  0
   -4.1189    1.2299   -0.4785 H   0  0  0  0  0  0  0  0  0  0  0  0
   -3.4426   -0.2334   -1.1719 H   0  0  0  0  0  0  0  0  0  0  0  0
   -6.5225    1.3495    0.0992 H   0  0  0  0  0  0  0  0  0  0  0  0
   -8.7914    0.4916   -0.3314 H   0  0  0  0  0  0  0  0  0  0  0  0
   -9.1026   -1.7177   -1.4055 H   0  0  0  0  0  0  0  0  0  0  0  0
   -7.1217   -3.0517   -2.0574 H   0  0  0  0  0  0  0  0  0  0  0  0
   -4.8537   -2.1900   -1.6275 H   0  0  0  0  0  0  0  0  0  0  0  0
    0.2131   -0.1289    2.5892 H   0  0  0  0  0  0  0  0  0  0  0  0
   -0.4985    1.4186    3.0797 H   0  0  0  0  0  0  0  0  0  0  0  0
    0.7707    2.4771    5.8473 H   0  0  0  0  0  0  0  0  0  0  0  0
    3.0680    3.3370    6.1097 H   0  0  0  0  0  0  0  0  0  0  0  0
    4.9986    1.9139    5.5206 H   0  0  0  0  0  0  0  0  0  0  0  0
    4.6404   -0.3806    4.6757 H   0  0  0  0  0  0  0  0  0  0  0  0
    2.3528   -1.2603    4.4182 H   0  0  0  0  0  0  0  0  0  0  0  0
    2.8752   -0.2793   -5.6623 H   0  0  0  0  0  0  0  0  0  0  0  0
    1.1707   -0.6264   -5.9534 H   0  0  0  0  0  0  0  0  0  0  0  0
    2.1992    0.7156   -7.7779 H   0  0  0  0  0  0  0  0  0  0  0  0
    0.8065    1.5096   -7.0264 H   0  0  0  0  0  0  0  0  0  0  0  0
    2.9354    3.7756   -5.2416 H   0  0  0  0  0  0  0  0  0  0  0  0
    1.2432    3.3348   -5.5261 H   0  0  0  0  0  0  0  0  0  0  0  0
    1.8926    2.5800   -3.3745 H   0  0  0  0  0  0  0  0  0  0  0  0
    3.3367    1.7525   -3.9616 H   0  0  0  0  0  0  0  0  0  0  0  0
   -2.7137    0.2339    3.4481 H   0  0  0  0  0  0  0  0  0  0  0  0
   -1.9870   -1.2681    2.8848 H   0  0  0  0  0  0  0  0  0  0  0  0
   -0.5773    0.3346    3.1815 C   0  0  0  0  0  0  0  0  0  0  0  0
  1  2  1  0
  1 31  1  0
  1 40  1  0
  2  3  1  0
  2 10  1  0
  2 41  1  6
  3  4  1  0
  3 42  1  0
  3 43  1  0
  4  5  2  0
  4  9  1  0
  5  6  1  0
  5 44  1  0
  6  7  2  0
  6 45  1  0
  7  8  1  0
  7 46  1  0
  8  9  2  0
  8 47  1  0
  9 48  1  0
 10 11  1  0
 10 30  2  0
 11 12  1  0
 11 49  1  0
 12 13  1  0
 12 39  1  0
 12 50  1  1
 13 14  1  0
 13 51  1  0
 13 52  1  0
 14 15  1  0
 14 53  1  0
 14 54  1  0
 15 16  2  0
 15 20  1  0
 16 17  1  0
 16 55  1  0
 17 18  2  0
 17 56  1  0
 18 19  1  0
 18 57  1  0
 19 20  2  0
 19 58  1  0
 20 59  1  0
 21 77  1  6
 77 39  1  0
 77 60  1  0
 77 61  1  0
 21 22  1  0
 21 28  2  0
 21 29  2  0
 22 23  2  0
 22 27  1  0
 23 24  1  0
 23 62  1  0
 24 25  2  0
 24 63  1  0
 25 26  1  0
 25 64  1  0
 26 27  2  0
 26 65  1  0
 27 66  1  0
 31 32  2  0
 31 33  1  0
 33 34  1  0
 33 38  1  0
 34 35  1  0
 34 67  1  0
 34 68  1  0
 35 36  1  0
 35 69  1  0
 35 70  1  0
 36 37  1  0
 37 38  1  0
 37 71  1  0
 37 72  1  0
 38 73  1  0
 38 74  1  0
 39 75  1  0
 39 76  1  0
M  END
