
     RDKit          3D

 40 42  0  0  0  0  0  0  0  0999 V2000
    2.1806    0.9877    0.0887 C   0  0  0  0  0  0  0  0  0  0  0  0
   -0.4149   -0.4763    1.9783 C   0  0  2  0  0  0  0  0  0  0  0  0
   -2.0392    0.5548    0.3425 C   0  0  0  0  0  0  0  0  0  0  0  0
   -4.1115   -0.5298   -0.2099 C   0  0  0  0  0  0  0  0  0  0  0  0
   -2.5823   -1.5664    1.3210 C   0  0  0  0  0  0  0  0  0  0  0  0
   -5.3861   -0.5247   -0.9930 C   0  0  1  0  0  0  0  0  0  0  0  0
   -0.4789    0.5083    3.1351 C   0  0  0  0  0  0  0  0  0  0  0  0
    3.0239    2.1691   -0.2459 C   0  0  0  0  0  0  0  0  0  0  0  0
    4.3365    2.1472    0.4976 C   0  0  1  0  0  0  0  0  0  0  0  0
    1.5929   -2.9809   -1.0652 C   0  0  0  0  0  0  0  0  0  0  0  0
    2.9430   -0.9312   -1.5561 C   0  0  0  0  0  0  0  0  0  0  0  0
    2.2120   -0.2979   -0.4953 C   0  0  0  0  0  0  0  0  0  0  0  0
    2.5562   -2.2582   -1.7349 N   0  0  0  0  0  0  0  0  0  0  0  0
    1.3465   -4.1369   -1.3274 O   0  0  0  0  0  0  0  0  0  0  0  0
    0.9258   -2.2942   -0.0763 N   0  0  0  0  0  0  0  0  0  0  0  0
    1.2431   -1.0016    0.1870 C   0  0  0  0  0  0  0  0  0  0  0  0
    0.7119   -0.1850    1.0991 N   0  0  0  0  0  0  0  0  0  0  0  0
    1.2749    1.0402    1.0326 N   0  0  0  0  0  0  0  0  0  0  0  0
    4.1634    2.2213    1.8246 F   0  0  0  0  0  0  0  0  0  0  0  0
    5.0348    1.0287    0.2642 F   0  0  0  0  0  0  0  0  0  0  0  0
    5.1160    3.1786    0.1465 F   0  0  0  0  0  0  0  0  0  0  0  0
   -1.7042   -0.5010    1.1874 C   0  0  0  0  0  0  0  0  0  0  0  0
   -3.7853   -1.5855    0.6272 C   0  0  0  0  0  0  0  0  0  0  0  0
   -6.0317    0.6446   -0.8819 F   0  0  0  0  0  0  0  0  0  0  0  0
   -5.1623   -0.7115   -2.3029 F   0  0  0  0  0  0  0  0  0  0  0  0
   -6.2355   -1.4790   -0.6036 F   0  0  0  0  0  0  0  0  0  0  0  0
   -3.2329    0.5417   -0.3541 C   0  0  0  0  0  0  0  0  0  0  0  0
   -0.2348   -1.4717    2.3932 H   0  0  0  0  0  0  0  0  0  0  0  0
   -1.3688    1.3975    0.2276 H   0  0  0  0  0  0  0  0  0  0  0  0
   -2.3355   -2.3937    1.9756 H   0  0  0  0  0  0  0  0  0  0  0  0
   -1.2923    0.2126    3.7957 H   0  0  0  0  0  0  0  0  0  0  0  0
    0.4466    0.4989    3.7089 H   0  0  0  0  0  0  0  0  0  0  0  0
   -0.6693    1.5225    2.7900 H   0  0  0  0  0  0  0  0  0  0  0  0
    3.2327    2.1935   -1.3162 H   0  0  0  0  0  0  0  0  0  0  0  0
    2.4995    3.0900    0.0133 H   0  0  0  0  0  0  0  0  0  0  0  0
    3.0355   -2.7714   -2.4649 H   0  0  0  0  0  0  0  0  0  0  0  0
    0.2077   -2.7958    0.4273 H   0  0  0  0  0  0  0  0  0  0  0  0
   -4.4504   -2.4291    0.7503 H   0  0  0  0  0  0  0  0  0  0  0  0
   -3.4723    1.3730   -1.0047 H   0  0  0  0  0  0  0  0  0  0  0  0
    3.7977   -0.4294   -2.2560 O   0  0  0  0  0  0  0  0  0  0  0  0
 14 10  2  0
 10 13  1  0
 10 15  1  0
 13 11  1  0
 15 16  1  0
 11 40  2  0
 11 12  1  0
 16 12  2  0
 16 17  1  0
 12  1  1  0
  5 23  2  0
  5 22  1  0
 17  2  1  0
 17 18  1  0
 23  4  1  0
  2 22  1  0
  2  7  1  0
  1 18  2  0
  1  8  1  0
  9 19  1  1
 22  3  2  0
  8  9  1  0
  6 26  1  1
  4  6  1  0
  4 27  2  0
 24  6  1  0
  9 20  1  0
  9 21  1  0
  6 25  1  0
  3 27  1  0
  2 28  1  1
  3 29  1  0
  5 30  1  0
  7 31  1  0
  7 32  1  0
  7 33  1  0
  8 34  1  0
  8 35  1  0
 13 36  1  0
 15 37  1  0
 23 38  1  0
 27 39  1  0
M  END
