
     RDKit          3D

 43 44  0  0  0  0  0  0  0  0999 V2000
    0.1243   -1.8748   -1.1308 O   0  0  0  0  0  0  0  0  0  0  0  0
    1.2741   -2.2369   -1.3060 C   0  0  0  0  0  0  0  0  0  0  0  0
    1.6197   -3.5007   -1.6124 N   0  0  0  0  0  0  0  0  0  0  0  0
    0.6621   -4.3908   -1.9960 O   0  0  0  0  0  0  0  0  0  0  0  0
    2.4614   -1.3081   -1.1841 C   0  0  0  0  0  0  0  0  0  0  0  0
    2.2038   -0.1506   -0.2212 C   0  0  1  0  0  0  0  0  0  0  0  0
    3.4329    0.7675   -0.0888 C   0  0  0  0  0  0  0  0  0  0  0  0
    4.6113    0.1014    0.6112 C   0  0  0  0  0  0  0  0  0  0  0  0
    5.7932    1.0469    0.7877 C   0  0  0  0  0  0  0  0  0  0  0  0
    6.9647    0.3861    1.5009 C   0  0  0  0  0  0  0  0  0  0  0  0
    1.0232    0.6636   -0.6194 C   0  0  0  0  0  0  0  0  0  0  0  0
    0.8716    1.0102   -1.8890 O   0  0  0  0  0  0  0  0  0  0  0  0
   -0.2517    1.7973   -1.9654 N   0  0  0  0  0  0  0  0  0  0  0  0
   -0.6600    1.8687   -0.7374 C   0  0  0  0  0  0  0  0  0  0  0  0
    0.1168    1.1769    0.1439 N   0  0  0  0  0  0  0  0  0  0  0  0
    2.5579   -3.7422   -1.8989 H   0  0  0  0  0  0  0  0  0  0  0  0
    0.4804   -4.9379   -1.2212 H   0  0  0  0  0  0  0  0  0  0  0  0
    3.3400   -1.8618   -0.8516 H   0  0  0  0  0  0  0  0  0  0  0  0
    2.7053   -0.9293   -2.1817 H   0  0  0  0  0  0  0  0  0  0  0  0
    1.9697   -0.5498    0.7693 H   0  0  0  0  0  0  0  0  0  0  0  0
    3.7360    1.1179   -1.0801 H   0  0  0  0  0  0  0  0  0  0  0  0
    3.1441    1.6558    0.4802 H   0  0  0  0  0  0  0  0  0  0  0  0
    4.2874   -0.2641    1.5916 H   0  0  0  0  0  0  0  0  0  0  0  0
    4.9432   -0.7768    0.0494 H   0  0  0  0  0  0  0  0  0  0  0  0
    6.1168    1.4083   -0.1929 H   0  0  0  0  0  0  0  0  0  0  0  0
    5.4718    1.9308    1.3471 H   0  0  0  0  0  0  0  0  0  0  0  0
    7.8094    1.0683    1.6013 H   0  0  0  0  0  0  0  0  0  0  0  0
    6.6823    0.0590    2.5031 H   0  0  0  0  0  0  0  0  0  0  0  0
    7.3113   -0.4924    0.9537 H   0  0  0  0  0  0  0  0  0  0  0  0
   -1.8785    2.6216   -0.3332 C   0  0  0  0  0  0  0  0  0  0  0  0
   -2.8891    1.7088    0.3134 C   0  0  0  0  0  0  0  0  0  0  0  0
   -3.0841    1.7149    1.6895 C   0  0  0  0  0  0  0  0  0  0  0  0
   -4.0011    0.8606    2.2879 C   0  0  0  0  0  0  0  0  0  0  0  0
   -4.7171   -0.0043    1.4850 C   0  0  0  0  0  0  0  0  0  0  0  0
   -4.5485   -0.0418    0.1136 C   0  0  0  0  0  0  0  0  0  0  0  0
   -3.6292    0.8209   -0.4632 C   0  0  0  0  0  0  0  0  0  0  0  0
   -5.6073   -0.8355    2.0527 F   0  0  0  0  0  0  0  0  0  0  0  0
   -1.5857    3.4110    0.3623 H   0  0  0  0  0  0  0  0  0  0  0  0
   -2.3026    3.1078   -1.2126 H   0  0  0  0  0  0  0  0  0  0  0  0
   -2.5171    2.3962    2.3115 H   0  0  0  0  0  0  0  0  0  0  0  0
   -4.1533    0.8701    3.3593 H   0  0  0  0  0  0  0  0  0  0  0  0
   -5.1223   -0.7300   -0.4931 H   0  0  0  0  0  0  0  0  0  0  0  0
   -3.4887    0.7985   -1.5374 H   0  0  0  0  0  0  0  0  0  0  0  0
 10  9  1  0
  9  8  1  0
  8  7  1  0
  7  6  1  0
  6 11  1  0
  6  5  1  0
 12 11  1  0
 12 13  1  0
  4  3  1  0
 11 15  2  0
  3  2  1  0
 13 14  2  0
 15 14  1  0
  2  5  1  0
  2  1  2  0
  3 16  1  0
  4 17  1  0
  5 18  1  0
  5 19  1  0
  6 20  1  1
  7 21  1  0
  7 22  1  0
  8 23  1  0
  8 24  1  0
  9 25  1  0
  9 26  1  0
 10 27  1  0
 10 28  1  0
 10 29  1  0
 14 30  1  0
 30 31  1  0
 31 32  2  0
 32 33  1  0
 33 34  2  0
 34 35  1  0
 35 36  2  0
 36 31  1  0
 34 37  1  0
 30 38  1  0
 30 39  1  0
 32 40  1  0
 33 41  1  0
 35 42  1  0
 36 43  1  0
M  END
