
     RDKit          3D

 26 26  0  0  0  0  0  0  0  0999 V2000
    0.7190    1.6920    0.9147 N   0  0  0  0  0  0  0  0  0  0  0  0
    0.9579    0.3798    0.3536 C   0  0  2  0  0  0  0  0  0  0  0  0
    2.4071    0.2498   -0.0929 C   0  0  0  0  0  0  0  0  0  0  0  0
    0.0859   -0.0128   -0.8585 C   0  0  0  0  0  0  0  0  0  0  0  0
   -1.3463   -0.1244   -0.4782 C   0  0  0  0  0  0  0  0  0  0  0  0
   -2.1992    0.9790   -0.6022 C   0  0  0  0  0  0  0  0  0  0  0  0
   -1.8558   -1.3347    0.0077 C   0  0  0  0  0  0  0  0  0  0  0  0
   -3.5426    0.8728   -0.2450 C   0  0  0  0  0  0  0  0  0  0  0  0
   -3.1995   -1.4384    0.3642 C   0  0  0  0  0  0  0  0  0  0  0  0
   -4.0447   -0.3356    0.2386 C   0  0  0  0  0  0  0  0  0  0  0  0
    3.0920    1.0628   -0.7139 O   0  0  0  0  0  0  0  0  0  0  0  0
    4.3507   -1.1223    0.0124 C   0  0  0  0  0  0  0  0  0  0  0  0
    2.9482   -0.9603    0.2346 O   0  0  0  0  0  0  0  0  0  0  0  0
    0.3408    2.3140    0.2261 H   0  0  0  0  0  0  0  0  0  0  0  0
    0.0824    1.6185    1.6863 H   0  0  0  0  0  0  0  0  0  0  0  0
    0.7707   -0.3724    1.1799 H   0  0  0  0  0  0  0  0  0  0  0  0
    0.2135    0.7491   -1.6736 H   0  0  0  0  0  0  0  0  0  0  0  0
    0.4568   -0.9961   -1.2516 H   0  0  0  0  0  0  0  0  0  0  0  0
   -1.8070    1.9335   -0.9830 H   0  0  0  0  0  0  0  0  0  0  0  0
   -1.1912   -2.2055    0.1075 H   0  0  0  0  0  0  0  0  0  0  0  0
   -4.2065    1.7441   -0.3452 H   0  0  0  0  0  0  0  0  0  0  0  0
   -3.5929   -2.3924    0.7452 H   0  0  0  0  0  0  0  0  0  0  0  0
   -5.1048   -0.4186    0.5202 H   0  0  0  0  0  0  0  0  0  0  0  0
    4.5748   -1.0425   -1.0780 H   0  0  0  0  0  0  0  0  0  0  0  0
    4.9173   -0.3446    0.5778 H   0  0  0  0  0  0  0  0  0  0  0  0
    4.5623   -2.1489    0.4014 H   0  0  0  0  0  0  0  0  0  0  0  0
  1  2  1  0
  1 14  1  0
  1 15  1  0
  2  3  1  0
  2  4  1  0
  2 16  1  1
  3 11  2  0
  3 13  1  0
  4  5  1  0
  4 17  1  0
  4 18  1  0
  5  6  2  0
  5  7  1  0
  6  8  1  0
  6 19  1  0
  7  9  2  0
  7 20  1  0
  8 10  2  0
  8 21  1  0
  9 10  1  0
  9 22  1  0
 10 23  1  0
 12 24  1  0
 13 12  1  0
 12 25  1  0
 12 26  1  0
M  END
