
     RDKit          3D

 53 55  0  0  0  0  0  0  0  0999 V2000
    4.1419    3.0754    0.0603 C   0  0  0  0  0  0  0  0  0  0  0  0
    3.5894    0.7739    0.0080 C   0  0  0  0  0  0  0  0  0  0  0  0
    4.5426    1.7265   -0.0494 O   0  0  0  0  0  0  0  0  0  0  0  0
    2.2411    1.0101    0.1885 C   0  0  0  0  0  0  0  0  0  0  0  0
    1.3087   -0.0364    0.2314 C   0  0  0  0  0  0  0  0  0  0  0  0
   -0.1588    0.2834    0.4324 C   0  0  2  0  0  0  0  0  0  0  0  0
    1.7636   -1.3401    0.1278 C   0  0  0  0  0  0  0  0  0  0  0  0
    0.8117   -2.4962    0.2488 C   0  0  0  0  0  0  0  0  0  0  0  0
   -0.4823   -2.0539    0.9024 C   0  0  0  0  0  0  0  0  0  0  0  0
   -0.9918   -0.8888    0.2126 N   0  0  0  0  0  0  0  0  0  0  0  0
   -2.3810   -0.6183    0.5309 C   0  0  0  0  0  0  0  0  0  0  0  0
   -2.9590    0.4650   -0.3722 C   0  0  1  0  0  0  0  0  0  0  0  0
   -4.4375    0.7240   -0.0832 C   0  0  0  0  0  0  0  0  0  0  0  0
   -5.3609   -0.4225   -0.4829 C   0  0  0  0  0  0  0  0  0  0  0  0
   -6.8272   -0.1386   -0.1816 C   0  0  0  0  0  0  0  0  0  0  0  0
   -7.7433   -1.2894   -0.5747 C   0  0  0  0  0  0  0  0  0  0  0  0
   -2.1092    1.7371   -0.2827 C   0  0  1  0  0  0  0  0  0  0  0  0
   -2.2604    2.3696    1.0224 N   0  0  0  0  0  0  0  0  0  0  0  0
   -0.6408    1.3900   -0.5066 C   0  0  0  0  0  0  0  0  0  0  0  0
    3.1300   -1.5841   -0.0606 C   0  0  0  0  0  0  0  0  0  0  0  0
    4.0452   -0.5532   -0.1310 C   0  0  0  0  0  0  0  0  0  0  0  0
    5.3730   -0.6995   -0.3111 O   0  0  0  0  0  0  0  0  0  0  0  0
    5.8821   -2.0070   -0.4649 C   0  0  0  0  0  0  0  0  0  0  0  0
    3.4477    3.3630   -0.7345 H   0  0  0  0  0  0  0  0  0  0  0  0
    3.6745    3.2882    1.0259 H   0  0  0  0  0  0  0  0  0  0  0  0
    5.0442    3.6753   -0.0307 H   0  0  0  0  0  0  0  0  0  0  0  0
    1.8924    2.0274    0.3084 H   0  0  0  0  0  0  0  0  0  0  0  0
   -0.2786    0.6402    1.4725 H   0  0  0  0  0  0  0  0  0  0  0  0
    0.5935   -2.9142   -0.7390 H   0  0  0  0  0  0  0  0  0  0  0  0
    1.2699   -3.2986    0.8320 H   0  0  0  0  0  0  0  0  0  0  0  0
   -1.2228   -2.8535    0.8358 H   0  0  0  0  0  0  0  0  0  0  0  0
   -0.3190   -1.8627    1.9774 H   0  0  0  0  0  0  0  0  0  0  0  0
   -2.9382   -1.5475    0.3922 H   0  0  0  0  0  0  0  0  0  0  0  0
   -2.5119   -0.3257    1.5868 H   0  0  0  0  0  0  0  0  0  0  0  0
   -2.8755    0.1095   -1.4070 H   0  0  0  0  0  0  0  0  0  0  0  0
   -4.5766    0.9395    0.9820 H   0  0  0  0  0  0  0  0  0  0  0  0
   -4.7517    1.6275   -0.6192 H   0  0  0  0  0  0  0  0  0  0  0  0
   -5.2419   -0.6265   -1.5530 H   0  0  0  0  0  0  0  0  0  0  0  0
   -5.0665   -1.3416    0.0336 H   0  0  0  0  0  0  0  0  0  0  0  0
   -6.9408    0.0718    0.8865 H   0  0  0  0  0  0  0  0  0  0  0  0
   -7.1371    0.7721   -0.7036 H   0  0  0  0  0  0  0  0  0  0  0  0
   -7.4637   -2.2084   -0.0557 H   0  0  0  0  0  0  0  0  0  0  0  0
   -8.7848   -1.0762   -0.3311 H   0  0  0  0  0  0  0  0  0  0  0  0
   -7.6883   -1.4890   -1.6465 H   0  0  0  0  0  0  0  0  0  0  0  0
   -2.4201    2.4063   -1.1005 H   0  0  0  0  0  0  0  0  0  0  0  0
   -1.6359    3.1649    1.0807 H   0  0  0  0  0  0  0  0  0  0  0  0
   -3.1934    2.7516    1.1134 H   0  0  0  0  0  0  0  0  0  0  0  0
   -0.0399    2.2942   -0.3805 H   0  0  0  0  0  0  0  0  0  0  0  0
   -0.4951    1.0597   -1.5389 H   0  0  0  0  0  0  0  0  0  0  0  0
    3.4583   -2.6130   -0.1457 H   0  0  0  0  0  0  0  0  0  0  0  0
    5.4636   -2.5089   -1.3418 H   0  0  0  0  0  0  0  0  0  0  0  0
    6.9566   -1.9077   -0.5998 H   0  0  0  0  0  0  0  0  0  0  0  0
    5.6950   -2.6285    0.4153 H   0  0  0  0  0  0  0  0  0  0  0  0
  1  3  1  0
  1 24  1  0
  1 25  1  0
  1 26  1  0
  4  2  2  0
  2  3  1  0
  2 21  1  0
  5  4  1  0
  4 27  1  0
  6  5  1  0
  5  7  2  0
 19  6  1  0
 10  6  1  0
  6 28  1  1
  8  7  1  0
  7 20  1  0
  9  8  1  0
  8 29  1  0
  8 30  1  0
 10  9  1  0
  9 31  1  0
  9 32  1  0
 11 10  1  0
 12 11  1  0
 11 33  1  0
 11 34  1  0
 13 12  1  0
 12 17  1  0
 12 35  1  6
 14 13  1  0
 13 36  1  0
 13 37  1  0
 15 14  1  0
 14 38  1  0
 14 39  1  0
 16 15  1  0
 15 40  1  0
 15 41  1  0
 16 42  1  0
 16 43  1  0
 16 44  1  0
 18 17  1  0
 17 19  1  0
 17 45  1  6
 18 46  1  0
 18 47  1  0
 19 48  1  0
 19 49  1  0
 20 21  2  0
 20 50  1  0
 21 22  1  0
 22 23  1  0
 23 51  1  0
 23 52  1  0
 23 53  1  0
M  END
