
     RDKit          3D

 41 44  0  0  0  0  0  0  0  0999 V2000
    1.2114   -3.5376    0.1582 N   0  0  0  0  0  0  0  0  0  0  0  0
    0.0239   -1.8131   -0.4750 C   0  0  0  0  0  0  0  0  0  0  0  0
    1.9858   -2.4882    0.3992 N   0  0  0  0  0  0  0  0  0  0  0  0
    2.7370    0.2228    1.1839 C   0  0  0  0  0  0  0  0  0  0  0  0
    1.8718   -0.0855    0.1345 C   0  0  0  0  0  0  0  0  0  0  0  0
    3.0128    2.4282    0.3347 C   0  0  0  0  0  0  0  0  0  0  0  0
    1.6820   -4.8688    0.4567 C   0  0  0  0  0  0  0  0  0  0  0  0
    3.3121    1.4793    1.2931 C   0  0  0  0  0  0  0  0  0  0  0  0
   -3.2005    2.0222   -0.0091 C   0  0  0  0  0  0  0  0  0  0  0  0
   -1.9097    0.2433    2.1101 C   0  0  0  0  0  0  0  0  0  0  0  0
   -1.0842   -0.9980   -0.9732 C   0  0  0  0  0  0  0  0  0  0  0  0
   -1.6789   -1.2667   -2.2041 C   0  0  0  0  0  0  0  0  0  0  0  0
   -2.7340   -0.4817   -2.6299 C   0  0  0  0  0  0  0  0  0  0  0  0
   -3.2056    0.5419   -1.9289 N   0  0  0  0  0  0  0  0  0  0  0  0
    1.2893   -1.4259    0.0261 C   0  0  0  0  0  0  0  0  0  0  0  0
    2.1678    2.1585   -0.7241 C   0  0  0  0  0  0  0  0  0  0  0  0
    1.6042    0.8957   -0.8187 C   0  0  0  0  0  0  0  0  0  0  0  0
    3.5620    3.6504    0.4334 F   0  0  0  0  0  0  0  0  0  0  0  0
    0.0321   -3.1888   -0.3753 C   0  0  0  0  0  0  0  0  0  0  0  0
   -2.6553    0.8229   -0.7523 C   0  0  0  0  0  0  0  0  0  0  0  0
   -1.6052    0.0621   -0.2298 C   0  0  0  0  0  0  0  0  0  0  0  0
   -1.0564    0.3437    0.9722 O   0  0  0  0  0  0  0  0  0  0  0  0
   -3.7374    1.7833    1.3154 N   0  0  0  0  0  0  0  0  0  0  0  0
   -2.7503    1.4888    2.3313 C   0  0  0  0  0  0  0  0  0  0  0  0
    2.5502   -5.1121   -0.1528 H   0  0  0  0  0  0  0  0  0  0  0  0
    1.9490   -4.9451    1.5085 H   0  0  0  0  0  0  0  0  0  0  0  0
    0.8895   -5.5790    0.2407 H   0  0  0  0  0  0  0  0  0  0  0  0
    3.9765    1.7154    2.1138 H   0  0  0  0  0  0  0  0  0  0  0  0
   -2.4103    2.7751    0.0837 H   0  0  0  0  0  0  0  0  0  0  0  0
   -3.9795    2.4592   -0.6363 H   0  0  0  0  0  0  0  0  0  0  0  0
   -2.5512   -0.6413    2.0236 H   0  0  0  0  0  0  0  0  0  0  0  0
   -1.2477    0.0916    2.9646 H   0  0  0  0  0  0  0  0  0  0  0  0
   -1.3137   -2.0746   -2.8245 H   0  0  0  0  0  0  0  0  0  0  0  0
   -3.2097   -0.6790   -3.5841 H   0  0  0  0  0  0  0  0  0  0  0  0
    1.9592    2.9166   -1.4677 H   0  0  0  0  0  0  0  0  0  0  0  0
    0.9593    0.6771   -1.6595 H   0  0  0  0  0  0  0  0  0  0  0  0
   -0.7255   -3.9168   -0.6187 H   0  0  0  0  0  0  0  0  0  0  0  0
   -4.4402    1.0550    1.2814 H   0  0  0  0  0  0  0  0  0  0  0  0
   -3.2609    1.3790    3.2916 H   0  0  0  0  0  0  0  0  0  0  0  0
   -2.0862    2.3535    2.4288 H   0  0  0  0  0  0  0  0  0  0  0  0
    2.9576   -0.5253    1.9337 H   0  0  0  0  0  0  0  0  0  0  0  0
  7  1  1  0
  4  8  2  0
  4  5  1  0
  8  6  1  0
  3  1  1  0
  3 15  2  0
  1 19  1  0
 15  5  1  0
 15  2  1  0
  5 17  2  0
  6 18  1  0
  6 16  2  0
 19  2  2  0
  2 11  1  0
 17 16  1  0
 12 11  2  0
 12 13  1  0
 11 21  1  0
 13 14  2  0
 21 22  1  0
 21 20  2  0
 10 22  1  0
 10 24  1  0
 14 20  1  0
 20  9  1  0
 24 23  1  0
 23  9  1  0
  4 41  1  0
  7 25  1  0
  7 26  1  0
  7 27  1  0
  8 28  1  0
  9 29  1  0
  9 30  1  0
 10 31  1  0
 10 32  1  0
 12 33  1  0
 13 34  1  0
 16 35  1  0
 17 36  1  0
 19 37  1  0
 23 38  1  0
 24 39  1  0
 24 40  1  0
M  END
