
     RDKit          3D

 35 36  0  0  0  0  0  0  0  0999 V2000
   -3.1974   -2.9354   -0.3921 O   0  0  0  0  0  0  0  0  0  0  0  0
   -2.0861   -2.2785   -0.1145 C   0  0  0  0  0  0  0  0  0  0  0  0
   -1.0286   -2.7941    0.1251 O   0  0  0  0  0  0  0  0  0  0  0  0
   -2.3185   -0.7973   -0.1184 C   0  0  0  0  0  0  0  0  0  0  0  0
   -3.6155   -0.4152    0.1168 N   0  0  0  0  0  0  0  0  0  0  0  0
   -4.0338    0.8814    0.1812 C   0  0  0  0  0  0  0  0  0  0  0  0
   -5.1820    1.2005    0.4058 O   0  0  0  0  0  0  0  0  0  0  0  0
   -3.0307    1.7909   -0.0299 N   0  0  0  0  0  0  0  0  0  0  0  0
   -1.7022    1.5239   -0.2802 C   0  0  0  0  0  0  0  0  0  0  0  0
   -0.9126    2.4349   -0.4377 O   0  0  0  0  0  0  0  0  0  0  0  0
   -1.3359    0.1049   -0.3335 C   0  0  0  0  0  0  0  0  0  0  0  0
    0.1059   -0.1944   -0.6035 C   0  0  0  0  0  0  0  0  0  0  0  0
    0.9510   -0.1565    0.6799 C   0  0  0  0  0  0  0  0  0  0  0  0
    2.4038   -0.4135    0.3849 C   0  0  0  0  0  0  0  0  0  0  0  0
    2.8415   -1.7302    0.2750 C   0  0  0  0  0  0  0  0  0  0  0  0
    4.1593   -2.0301   -0.0386 C   0  0  0  0  0  0  0  0  0  0  0  0
    5.0594   -0.9960   -0.2450 C   0  0  0  0  0  0  0  0  0  0  0  0
    4.6374    0.3228   -0.1371 C   0  0  0  0  0  0  0  0  0  0  0  0
    3.3149    0.6296    0.1717 C   0  0  0  0  0  0  0  0  0  0  0  0
    2.8613    2.0609    0.3086 C   0  0  0  0  0  0  0  0  0  0  0  0
    3.8919    2.9383   -0.0643 O   0  0  0  0  0  0  0  0  0  0  0  0
   -3.0527   -3.8936   -0.3456 H   0  0  0  0  0  0  0  0  0  0  0  0
   -4.3228   -1.1184    0.2791 H   0  0  0  0  0  0  0  0  0  0  0  0
   -3.2995    2.7667    0.0138 H   0  0  0  0  0  0  0  0  0  0  0  0
    0.2240   -1.1625   -1.0835 H   0  0  0  0  0  0  0  0  0  0  0  0
    0.4866    0.5454   -1.3091 H   0  0  0  0  0  0  0  0  0  0  0  0
    0.8125    0.8023    1.1816 H   0  0  0  0  0  0  0  0  0  0  0  0
    0.5780   -0.9176    1.3662 H   0  0  0  0  0  0  0  0  0  0  0  0
    2.1303   -2.5328    0.4370 H   0  0  0  0  0  0  0  0  0  0  0  0
    4.4781   -3.0613   -0.1195 H   0  0  0  0  0  0  0  0  0  0  0  0
    6.0923   -1.2114   -0.4870 H   0  0  0  0  0  0  0  0  0  0  0  0
    5.3534    1.1169   -0.2967 H   0  0  0  0  0  0  0  0  0  0  0  0
    1.9641    2.2209   -0.3030 H   0  0  0  0  0  0  0  0  0  0  0  0
    2.5509    2.2332    1.3493 H   0  0  0  0  0  0  0  0  0  0  0  0
    3.5645    3.8369    0.0319 H   0  0  0  0  0  0  0  0  0  0  0  0
  7  6  2  0
  5  6  1  0
  5  4  1  0
  6  8  1  0
  3  2  2  0
  1  2  1  0
  8  9  1  0
  4  2  1  0
  4 11  2  0
  9 11  1  0
  9 10  2  0
 11 12  1  0
 12 13  1  0
 13 14  1  0
 20 21  1  0
 20 19  1  0
 14 19  1  0
 14 15  2  0
 19 18  2  0
 15 16  1  0
 18 17  1  0
 16 17  2  0
  1 22  1  0
  5 23  1  0
  8 24  1  0
 12 25  1  0
 12 26  1  0
 13 27  1  0
 13 28  1  0
 15 29  1  0
 16 30  1  0
 17 31  1  0
 18 32  1  0
 20 33  1  0
 20 34  1  0
 21 35  1  0
M  END
