
     RDKit          3D

 15 15  0  0  0  0  0  0  0  0999 V2000
    2.3980   -1.2341    0.0682 O   0  0  0  0  0  0  0  0  0  0  0  0
    1.9614   -0.1115    0.0457 C   0  0  0  0  0  0  0  0  0  0  0  0
    2.6998    0.9844    0.0275 O   0  0  0  0  0  0  0  0  0  0  0  0
    0.5186    0.1953    0.0336 C   0  0  0  0  0  0  0  0  0  0  0  0
    0.2302    1.5168    0.0153 O   0  0  0  0  0  0  0  0  0  0  0  0
   -1.0235    1.9333    0.0009 C   0  0  0  0  0  0  0  0  0  0  0  0
   -2.0854    1.1036    0.0029 C   0  0  0  0  0  0  0  0  0  0  0  0
   -1.8826   -0.3129    0.0213 C   0  0  0  0  0  0  0  0  0  0  0  0
   -2.7518   -1.1788    0.0229 O   0  0  0  0  0  0  0  0  0  0  0  0
   -0.4693   -0.7331    0.0375 C   0  0  0  0  0  0  0  0  0  0  0  0
   -0.2501   -2.0346    0.0539 O   0  0  0  0  0  0  0  0  0  0  0  0
    3.6395    0.7471    0.0343 H   0  0  0  0  0  0  0  0  0  0  0  0
   -1.0983    3.0114   -0.0129 H   0  0  0  0  0  0  0  0  0  0  0  0
   -3.0837    1.5170   -0.0108 H   0  0  0  0  0  0  0  0  0  0  0  0
   -1.1216   -2.4696    0.0518 H   0  0  0  0  0  0  0  0  0  0  0  0
  9  8  2  0
 11 10  1  0
  8 10  1  0
  8  7  1  0
 10  4  2  0
  7  6  2  0
  4  2  1  0
  4  5  1  0
  1  2  2  0
  6  5  1  0
  2  3  1  0
  3 12  1  0
  6 13  1  0
  7 14  1  0
 11 15  1  0
M  END
