
     RDKit          3D

 47 51  0  0  0  0  0  0  0  0999 V2000
    2.3114    0.3709    0.3682 C   0  0  1  0  0  0  0  0  0  0  0  0
    3.1994   -0.5499   -0.4119 C   0  0  0  0  0  0  0  0  0  0  0  0
    2.9247   -1.5007   -1.3750 C   0  0  0  0  0  0  0  0  0  0  0  0
    3.9850   -2.2269   -1.9130 C   0  0  0  0  0  0  0  0  0  0  0  0
    5.2890   -1.9992   -1.4871 C   0  0  0  0  0  0  0  0  0  0  0  0
    5.5767   -1.0411   -0.5174 C   0  0  0  0  0  0  0  0  0  0  0  0
   -5.2187   -0.5611   -1.2383 C   0  0  0  0  0  0  0  0  0  0  0  0
   -3.9254   -0.0740   -0.6506 C   0  0  0  0  0  0  0  0  0  0  0  0
   -3.2790    1.0462   -1.2655 C   0  0  0  0  0  0  0  0  0  0  0  0
   -1.5536    0.8029    0.4201 C   0  0  0  0  0  0  0  0  0  0  0  0
    0.3011    0.4841    1.9454 C   0  0  0  0  0  0  0  0  0  0  0  0
    1.3308   -0.4123    1.2690 C   0  0  0  0  0  0  0  0  0  0  0  0
    4.5045   -0.3419   -0.0102 C   0  0  0  0  0  0  0  0  0  0  0  0
    3.3480    1.1085    1.2146 C   0  0  0  0  0  0  0  0  0  0  0  0
    1.5403    1.3533   -0.5372 C   0  0  0  0  0  0  0  0  0  0  0  0
    0.5038    2.1623    0.2341 C   0  0  0  0  0  0  0  0  0  0  0  0
   -3.3335   -0.6313    0.4499 C   0  0  0  0  0  0  0  0  0  0  0  0
   -3.9605   -1.7949    1.1617 C   0  0  0  0  0  0  0  0  0  0  0  0
   -5.4295   -1.9836    0.8122 C   0  0  0  0  0  0  0  0  0  0  0  0
   -5.6194   -1.9276   -0.6970 C   0  0  0  0  0  0  0  0  0  0  0  0
   -2.0821    1.4216   -0.6661 N   0  0  0  0  0  0  0  0  0  0  0  0
   -0.4015    1.2804    0.9512 N   0  0  0  0  0  0  0  0  0  0  0  0
   -2.1572   -0.2124    0.9762 N   0  0  0  0  0  0  0  0  0  0  0  0
    4.5910    0.6366    0.9495 O   0  0  0  0  0  0  0  0  0  0  0  0
    3.1895    1.9812    2.0157 O   0  0  0  0  0  0  0  0  0  0  0  0
    1.9103   -1.6831   -1.7073 H   0  0  0  0  0  0  0  0  0  0  0  0
    3.7939   -2.9780   -2.6675 H   0  0  0  0  0  0  0  0  0  0  0  0
    6.0985   -2.5772   -1.9124 H   0  0  0  0  0  0  0  0  0  0  0  0
    6.5889   -0.8613   -0.1812 H   0  0  0  0  0  0  0  0  0  0  0  0
   -6.0134    0.1651   -1.0322 H   0  0  0  0  0  0  0  0  0  0  0  0
   -5.1360   -0.6008   -2.3274 H   0  0  0  0  0  0  0  0  0  0  0  0
   -0.4099   -0.1178    2.5022 H   0  0  0  0  0  0  0  0  0  0  0  0
    0.8068   -1.1352    0.6371 H   0  0  0  0  0  0  0  0  0  0  0  0
    2.2329    2.0219   -1.0520 H   0  0  0  0  0  0  0  0  0  0  0  0
    1.0346    0.7674   -1.3102 H   0  0  0  0  0  0  0  0  0  0  0  0
    0.9818    2.8121    0.9672 H   0  0  0  0  0  0  0  0  0  0  0  0
   -0.0229    2.8359   -0.4393 H   0  0  0  0  0  0  0  0  0  0  0  0
   -3.3969   -2.6957    0.8936 H   0  0  0  0  0  0  0  0  0  0  0  0
   -3.8195   -1.6626    2.2367 H   0  0  0  0  0  0  0  0  0  0  0  0
   -5.7838   -2.9340    1.2151 H   0  0  0  0  0  0  0  0  0  0  0  0
   -6.0274   -1.1987    1.2857 H   0  0  0  0  0  0  0  0  0  0  0  0
   -6.6551   -2.1415   -0.9668 H   0  0  0  0  0  0  0  0  0  0  0  0
   -5.0056   -2.7044   -1.1637 H   0  0  0  0  0  0  0  0  0  0  0  0
   -1.6220    2.2166   -1.0862 H   0  0  0  0  0  0  0  0  0  0  0  0
    0.7756    1.1687    2.6494 H   0  0  0  0  0  0  0  0  0  0  0  0
    1.8779   -0.9894    2.0174 H   0  0  0  0  0  0  0  0  0  0  0  0
   -3.6832    1.6720   -2.2388 O   0  0  0  0  0  0  0  0  0  0  0  0
 20  7  1  0
 20 19  1  0
  7  8  1  0
 19 18  1  0
 47  9  2  0
  8  9  1  0
  8 17  2  0
  9 21  1  0
 18 17  1  0
 17 23  1  0
 21 10  1  0
 23 10  2  0
 10 22  1  0
 22 16  1  0
 22 11  1  0
 16 15  1  0
 11 12  1  0
 15  1  1  0
 12  1  1  0
 25 14  2  0
  1 14  1  1
  1  2  1  0
 14 24  1  0
  2  3  2  0
  2 13  1  0
 24 13  1  0
  3  4  1  0
 13  6  2  0
  4  5  2  0
  6  5  1  0
  3 26  1  0
  4 27  1  0
  5 28  1  0
  6 29  1  0
  7 30  1  0
  7 31  1  0
 11 32  1  0
 12 33  1  0
 15 34  1  0
 15 35  1  0
 16 36  1  0
 16 37  1  0
 18 38  1  0
 18 39  1  0
 19 40  1  0
 19 41  1  0
 20 42  1  0
 20 43  1  0
 21 44  1  0
 11 45  1  0
 12 46  1  0
M  END
