
     RDKit          3D

 36 36  0  0  0  0  0  0  0  0999 V2000
    1.0267   -4.2464    0.8593 C   0  0  0  0  0  0  0  0  0  0  0  0
   -0.3396   -2.3043    0.4128 N   0  0  0  0  0  0  0  0  0  0  0  0
    0.1743   -4.7019    1.5759 O   0  0  0  0  0  0  0  0  0  0  0  0
   -0.1947    2.7176    0.8763 Cl  0  0  0  0  0  0  0  0  0  0  0  0
    0.9532   -2.8883    0.1908 C   0  0  1  0  0  0  0  0  0  0  0  0
    2.0841   -1.9577    0.7054 C   0  0  0  0  0  0  0  0  0  0  0  0
    1.9379   -0.5836    0.1211 C   0  0  0  0  0  0  0  0  0  0  0  0
   -0.6484   -1.5290   -1.6971 O   0  0  0  0  0  0  0  0  0  0  0  0
    2.2804    0.9646   -1.7065 C   0  0  0  0  0  0  0  0  0  0  0  0
   -2.4648    0.3781   -0.6260 C   0  0  0  0  0  0  0  0  0  0  0  0
   -2.0391   -0.6899    0.0398 C   0  0  0  0  0  0  0  0  0  0  0  0
   -0.9571   -1.5451   -0.5181 C   0  0  0  0  0  0  0  0  0  0  0  0
    1.4417    1.9030   -1.1089 C   0  0  0  0  0  0  0  0  0  0  0  0
    1.2267    3.0633   -1.7465 O   0  0  0  0  0  0  0  0  0  0  0  0
   -4.0113    1.1283    1.0288 O   0  0  0  0  0  0  0  0  0  0  0  0
   -3.4639    1.2947   -0.0338 C   0  0  0  0  0  0  0  0  0  0  0  0
    0.8761    1.5778    0.1219 C   0  0  0  0  0  0  0  0  0  0  0  0
   -3.6792    2.3323   -0.8255 O   0  0  0  0  0  0  0  0  0  0  0  0
   -4.6119    3.3172   -0.3807 C   0  0  0  0  0  0  0  0  0  0  0  0
    1.1266    0.3621    0.7353 C   0  0  0  0  0  0  0  0  0  0  0  0
    2.5133   -0.2575   -1.1039 C   0  0  0  0  0  0  0  0  0  0  0  0
    2.1605   -4.8627    0.5667 O   0  0  0  0  0  0  0  0  0  0  0  0
   -0.6458   -2.2237    1.3709 H   0  0  0  0  0  0  0  0  0  0  0  0
    1.0827   -3.0304   -0.8840 H   0  0  0  0  0  0  0  0  0  0  0  0
    2.0414   -1.9159    1.7964 H   0  0  0  0  0  0  0  0  0  0  0  0
    3.0490   -2.3859    0.4324 H   0  0  0  0  0  0  0  0  0  0  0  0
    2.7365    1.2021   -2.6594 H   0  0  0  0  0  0  0  0  0  0  0  0
   -2.0662    0.6210   -1.6032 H   0  0  0  0  0  0  0  0  0  0  0  0
   -2.4225   -0.9139    1.0295 H   0  0  0  0  0  0  0  0  0  0  0  0
    0.6395    3.6384   -1.2397 H   0  0  0  0  0  0  0  0  0  0  0  0
   -4.6333    4.0786   -1.1540 H   0  0  0  0  0  0  0  0  0  0  0  0
   -5.6086    2.8935   -0.2610 H   0  0  0  0  0  0  0  0  0  0  0  0
   -4.2969    3.7656    0.5612 H   0  0  0  0  0  0  0  0  0  0  0  0
    0.6720    0.1519    1.6953 H   0  0  0  0  0  0  0  0  0  0  0  0
    3.1522   -0.9741   -1.6054 H   0  0  0  0  0  0  0  0  0  0  0  0
    2.2052   -5.7175    1.0214 H   0  0  0  0  0  0  0  0  0  0  0  0
  1  3  2  0
  1  5  1  0
  1 22  1  0
  2  5  1  0
  2 12  1  0
  4 17  1  0
  5  6  1  0
  6  7  1  0
  7 20  2  0
  7 21  1  0
  8 12  2  0
  9 13  1  0
  9 21  2  0
 10 11  2  0
 10 16  1  0
 11 12  1  0
 13 14  1  0
 13 17  2  0
 15 16  2  0
 16 18  1  0
 17 20  1  0
 18 19  1  0
  2 23  1  0
  5 24  1  6
  6 25  1  0
  6 26  1  0
  9 27  1  0
 10 28  1  0
 11 29  1  0
 14 30  1  0
 19 31  1  0
 19 32  1  0
 19 33  1  0
 20 34  1  0
 21 35  1  0
 22 36  1  0
M  END
