
     RDKit          3D

 27 28  0  0  0  0  0  0  0  0999 V2000
    5.2837    1.3494    0.7175 Cl  0  0  0  0  0  0  0  0  0  0  0  0
   -0.8677   -0.2004    0.1436 C   0  0  0  0  0  0  0  0  0  0  0  0
   -0.9678   -1.3924   -0.0672 O   0  0  0  0  0  0  0  0  0  0  0  0
    1.6046   -0.0991    0.2903 C   0  0  0  0  0  0  0  0  0  0  0  0
    1.9097   -1.4470    0.0675 C   0  0  0  0  0  0  0  0  0  0  0  0
    3.2387   -1.8236    0.0640 C   0  0  0  0  0  0  0  0  0  0  0  0
    4.2631   -0.9965    0.2578 N   0  0  0  0  0  0  0  0  0  0  0  0
    3.9531    0.2613    0.4637 C   0  0  0  0  0  0  0  0  0  0  0  0
    2.6748    0.7783    0.4936 C   0  0  0  0  0  0  0  0  0  0  0  0
   -1.9237    0.6577    0.2305 N   0  0  0  0  0  0  0  0  0  0  0  0
   -3.2768    0.3428    0.0537 C   0  0  0  0  0  0  0  0  0  0  0  0
   -3.8223   -0.9137    0.3185 C   0  0  0  0  0  0  0  0  0  0  0  0
   -5.1844   -1.1208    0.1448 C   0  0  0  0  0  0  0  0  0  0  0  0
   -6.0206   -0.0967   -0.2759 C   0  0  0  0  0  0  0  0  0  0  0  0
   -5.4771    1.1565   -0.5246 C   0  0  0  0  0  0  0  0  0  0  0  0
   -4.1183    1.3743   -0.3669 C   0  0  0  0  0  0  0  0  0  0  0  0
    0.3112    1.4347    0.5088 H   0  0  0  0  0  0  0  0  0  0  0  0
    1.1500   -2.1905   -0.0969 H   0  0  0  0  0  0  0  0  0  0  0  0
    3.4919   -2.8631   -0.1065 H   0  0  0  0  0  0  0  0  0  0  0  0
    2.5090    1.8328    0.6700 H   0  0  0  0  0  0  0  0  0  0  0  0
   -1.7251    1.6456    0.2888 H   0  0  0  0  0  0  0  0  0  0  0  0
   -3.2060   -1.7280    0.6646 H   0  0  0  0  0  0  0  0  0  0  0  0
   -5.5927   -2.1012    0.3540 H   0  0  0  0  0  0  0  0  0  0  0  0
   -7.0806   -0.2708   -0.4035 H   0  0  0  0  0  0  0  0  0  0  0  0
   -6.1096    1.9728   -0.8488 H   0  0  0  0  0  0  0  0  0  0  0  0
   -3.7039    2.3542   -0.5733 H   0  0  0  0  0  0  0  0  0  0  0  0
    0.3389    0.4425    0.3281 N   0  0  0  0  0  0  0  0  0  0  0  0
  1  8  1  0
 13 12  2  0
 13 14  1  0
  8  9  2  0
  8  7  1  0
 12 11  1  0
 14 15  2  0
  3  2  2  0
  9  4  1  0
  7  6  2  0
  2 10  1  0
  2 27  1  0
 11 10  1  0
 11 16  2  0
  4 27  1  0
  4  5  2  0
  6  5  1  0
 15 16  1  0
 27 17  1  0
  5 18  1  0
  6 19  1  0
  9 20  1  0
 10 21  1  0
 12 22  1  0
 13 23  1  0
 14 24  1  0
 15 25  1  0
 16 26  1  0
M  END
