
     RDKit          3D

 59 60  0  0  0  0  0  0  0  0999 V2000
   -1.3472   -1.6241   -0.8435 C   0  0  0  0  0  0  0  0  0  0  0  0
    4.4924    1.1889    0.3273 C   0  0  0  0  0  0  0  0  0  0  0  0
   -1.6028   -2.9822   -0.8273 C   0  0  0  0  0  0  0  0  0  0  0  0
   -6.7752    0.4453    2.4154 C   0  0  0  0  0  0  0  0  0  0  0  0
   -5.8825    0.2361    1.2000 C   0  0  0  0  0  0  0  0  0  0  0  0
   -4.7669    1.2698    1.1316 C   0  0  0  0  0  0  0  0  0  0  0  0
   -3.2285    2.3287   -0.3940 C   0  0  0  0  0  0  0  0  0  0  0  0
   -4.1078    3.2250   -1.2541 C   0  0  0  0  0  0  0  0  0  0  0  0
   -3.3977    4.5157   -1.6405 C   0  0  0  0  0  0  0  0  0  0  0  0
   -2.9185    0.0199    0.2184 C   0  0  0  0  0  0  0  0  0  0  0  0
   -2.4319   -0.6136   -1.0868 C   0  0  0  0  0  0  0  0  0  0  0  0
   -0.0420   -1.1879   -0.5859 C   0  0  0  0  0  0  0  0  0  0  0  0
    0.9783   -2.0839   -0.3202 C   0  0  0  0  0  0  0  0  0  0  0  0
    2.5969   -0.3685   -0.0394 C   0  0  0  0  0  0  0  0  0  0  0  0
    4.0834   -0.2571    0.2571 C   0  0  0  0  0  0  0  0  0  0  0  0
    4.8985    1.8690   -0.8188 C   0  0  0  0  0  0  0  0  0  0  0  0
    5.2405    3.2136   -0.7649 C   0  0  0  0  0  0  0  0  0  0  0  0
    5.1794    3.8997    0.4412 C   0  0  0  0  0  0  0  0  0  0  0  0
    4.7747    3.2320    1.5901 C   0  0  0  0  0  0  0  0  0  0  0  0
    4.4329    1.8875    1.5309 C   0  0  0  0  0  0  0  0  0  0  0  0
    0.7042   -3.4674   -0.3063 C   0  0  0  0  0  0  0  0  0  0  0  0
    1.5343   -5.6606    0.0062 C   0  0  0  0  0  0  0  0  0  0  0  0
   -0.5851   -3.9001   -0.5619 C   0  0  0  0  0  0  0  0  0  0  0  0
   -3.8798    1.0857   -0.0067 N   0  0  0  0  0  0  0  0  0  0  0  0
    2.2578   -1.7429   -0.0671 O   0  0  0  0  0  0  0  0  0  0  0  0
    1.7565   -4.2671   -0.0395 O   0  0  0  0  0  0  0  0  0  0  0  0
   -2.6026   -3.3487   -1.0268 H   0  0  0  0  0  0  0  0  0  0  0  0
   -6.2046    0.3752    3.3436 H   0  0  0  0  0  0  0  0  0  0  0  0
   -7.2486    1.4290    2.3972 H   0  0  0  0  0  0  0  0  0  0  0  0
   -7.5690   -0.3006    2.4604 H   0  0  0  0  0  0  0  0  0  0  0  0
   -5.4656   -0.7742    1.2294 H   0  0  0  0  0  0  0  0  0  0  0  0
   -6.4750    0.2983    0.2834 H   0  0  0  0  0  0  0  0  0  0  0  0
   -5.2293    2.2570    1.0569 H   0  0  0  0  0  0  0  0  0  0  0  0
   -4.2047    1.2754    2.0815 H   0  0  0  0  0  0  0  0  0  0  0  0
   -2.3304    2.0902   -0.9694 H   0  0  0  0  0  0  0  0  0  0  0  0
   -2.8730    2.8865    0.4892 H   0  0  0  0  0  0  0  0  0  0  0  0
   -4.3979    2.6730   -2.1519 H   0  0  0  0  0  0  0  0  0  0  0  0
   -5.0355    3.4669   -0.7286 H   0  0  0  0  0  0  0  0  0  0  0  0
   -4.0367    5.1547   -2.2506 H   0  0  0  0  0  0  0  0  0  0  0  0
   -3.1055    5.0879   -0.7576 H   0  0  0  0  0  0  0  0  0  0  0  0
   -2.4904    4.3119   -2.2124 H   0  0  0  0  0  0  0  0  0  0  0  0
   -3.3858   -0.7658    0.8157 H   0  0  0  0  0  0  0  0  0  0  0  0
   -2.0547    0.3721    0.8069 H   0  0  0  0  0  0  0  0  0  0  0  0
   -2.0618    0.1617   -1.7630 H   0  0  0  0  0  0  0  0  0  0  0  0
   -3.2824   -1.0824   -1.5860 H   0  0  0  0  0  0  0  0  0  0  0  0
    0.1561   -0.1228   -0.6001 H   0  0  0  0  0  0  0  0  0  0  0  0
    2.0191    0.1539    0.7323 H   0  0  0  0  0  0  0  0  0  0  0  0
    2.3688    0.1050   -1.0011 H   0  0  0  0  0  0  0  0  0  0  0  0
    4.6496   -0.7708   -0.5234 H   0  0  0  0  0  0  0  0  0  0  0  0
    4.3030   -0.7559    1.2037 H   0  0  0  0  0  0  0  0  0  0  0  0
    4.9520    1.3386   -1.7629 H   0  0  0  0  0  0  0  0  0  0  0  0
    5.5569    3.7248   -1.6651 H   0  0  0  0  0  0  0  0  0  0  0  0
    5.4482    4.9472    0.4864 H   0  0  0  0  0  0  0  0  0  0  0  0
    4.7288    3.7581    2.5352 H   0  0  0  0  0  0  0  0  0  0  0  0
    4.1208    1.3736    2.4329 H   0  0  0  0  0  0  0  0  0  0  0  0
    2.4866   -6.1182    0.2639 H   0  0  0  0  0  0  0  0  0  0  0  0
    0.7968   -5.9342    0.7656 H   0  0  0  0  0  0  0  0  0  0  0  0
    1.2056   -6.0554   -0.9594 H   0  0  0  0  0  0  0  0  0  0  0  0
   -0.8221   -4.9558   -0.5640 H   0  0  0  0  0  0  0  0  0  0  0  0
  9  8  1  0
  4  5  1  0
  8  7  1  0
  5  6  1  0
  7 24  1  0
  6 24  1  0
 24 10  1  0
 10 11  1  0
 11  1  1  0
  1  3  2  0
  1 12  1  0
  3 23  1  0
 12 13  2  0
 23 21  2  0
 13 21  1  0
 13 25  1  0
 21 26  1  0
 25 14  1  0
 14 15  1  0
 26 22  1  0
 15  2  1  0
 16  2  2  0
 16 17  1  0
  2 20  1  0
 17 18  2  0
 20 19  2  0
 18 19  1  0
  3 27  1  0
  4 28  1  0
  4 29  1  0
  4 30  1  0
  5 31  1  0
  5 32  1  0
  6 33  1  0
  6 34  1  0
  7 35  1  0
  7 36  1  0
  8 37  1  0
  8 38  1  0
  9 39  1  0
  9 40  1  0
  9 41  1  0
 10 42  1  0
 10 43  1  0
 11 44  1  0
 11 45  1  0
 12 46  1  0
 14 47  1  0
 14 48  1  0
 15 49  1  0
 15 50  1  0
 16 51  1  0
 17 52  1  0
 18 53  1  0
 19 54  1  0
 20 55  1  0
 22 56  1  0
 22 57  1  0
 22 58  1  0
 23 59  1  0
M  END
