
     RDKit          3D

 17 17  0  0  0  0  0  0  0  0999 V2000
   -0.0771    1.2248    0.0198 C   0  0  0  0  0  0  0  0  0  0  0  0
   -1.4467    1.1998    0.0429 C   0  0  0  0  0  0  0  0  0  0  0  0
   -0.0948   -1.1391   -0.1590 C   0  0  0  0  0  0  0  0  0  0  0  0
    0.6492    0.0297   -0.0691 C   0  0  0  0  0  0  0  0  0  0  0  0
   -2.0998   -0.0479   -0.0366 C   0  0  0  0  0  0  0  0  0  0  0  0
    2.1326    0.0808   -0.0973 C   0  0  0  0  0  0  0  0  0  0  0  0
   -1.4178   -1.1902   -0.1445 N   0  0  0  0  0  0  0  0  0  0  0  0
   -3.4471   -0.1311   -0.0425 N   0  0  0  0  0  0  0  0  0  0  0  0
    2.7852   -1.0721    0.1272 N   0  0  0  0  0  0  0  0  0  0  0  0
    2.7228    1.1328   -0.3173 O   0  0  0  0  0  0  0  0  0  0  0  0
    0.4439    2.1712    0.0820 H   0  0  0  0  0  0  0  0  0  0  0  0
   -2.0215    2.1132    0.1236 H   0  0  0  0  0  0  0  0  0  0  0  0
    0.3931   -2.1030   -0.2683 H   0  0  0  0  0  0  0  0  0  0  0  0
   -3.9939    0.6615    0.2464 H   0  0  0  0  0  0  0  0  0  0  0  0
   -3.8670   -1.0339    0.1012 H   0  0  0  0  0  0  0  0  0  0  0  0
    2.3256   -1.9136    0.4262 H   0  0  0  0  0  0  0  0  0  0  0  0
    3.7916   -1.0827    0.1184 H   0  0  0  0  0  0  0  0  0  0  0  0
  8  5  1  0
  2  5  1  0
  2  1  2  0
  5  7  2  0
  1  4  1  0
  7  3  1  0
  4  3  2  0
  4  6  1  0
  6 10  2  0
  6  9  1  0
  1 11  1  0
  2 12  1  0
  3 13  1  0
  8 14  1  0
  8 15  1  0
  9 16  1  0
  9 17  1  0
M  END
