
     RDKit          3D

 54 57  0  0  0  0  0  0  0  0999 V2000
    3.7895   -2.4246   -1.1667 C   0  0  0  0  0  0  0  0  0  0  0  0
    4.9677   -1.6666   -1.0917 C   0  0  0  0  0  0  0  0  0  0  0  0
    4.9493   -0.3213   -0.8326 C   0  0  0  0  0  0  0  0  0  0  0  0
    1.9938    1.6552   -0.3020 C   0  0  0  0  0  0  0  0  0  0  0  0
    1.4139    0.4315   -0.5267 C   0  0  0  0  0  0  0  0  0  0  0  0
    1.3254    2.9521   -0.0504 C   0  0  0  0  0  0  0  0  0  0  0  0
   -0.0064    0.0752   -0.4867 C   0  0  0  0  0  0  0  0  0  0  0  0
   -0.5884   -0.6459   -1.5183 C   0  0  0  0  0  0  0  0  0  0  0  0
   -2.1548    0.0243    0.6385 C   0  0  0  0  0  0  0  0  0  0  0  0
   -0.8220    0.4046    0.6129 C   0  0  0  0  0  0  0  0  0  0  0  0
   -4.5975   -1.9094   -1.4057 C   0  0  0  0  0  0  0  0  0  0  0  0
   -1.7639    2.7926    2.3285 C   0  0  0  0  0  0  0  0  0  0  0  0
    2.5555   -1.8577   -0.9973 C   0  0  0  0  0  0  0  0  0  0  0  0
    2.4957   -0.4800   -0.7477 C   0  0  0  0  0  0  0  0  0  0  0  0
    3.6927    0.2585   -0.6528 C   0  0  0  0  0  0  0  0  0  0  0  0
    3.3601    1.5430   -0.3610 N   0  0  0  0  0  0  0  0  0  0  0  0
    1.9893    3.7837    0.7722 N   0  0  0  0  0  0  0  0  0  0  0  0
    0.2692    3.2326   -0.5919 O   0  0  0  0  0  0  0  0  0  0  0  0
    3.9075   -3.7392   -1.4094 F   0  0  0  0  0  0  0  0  0  0  0  0
    6.1330   -2.2999   -1.2755 F   0  0  0  0  0  0  0  0  0  0  0  0
   -1.9255   -1.0189   -1.5115 C   0  0  0  0  0  0  0  0  0  0  0  0
   -2.7373   -0.6871   -0.4239 C   0  0  0  0  0  0  0  0  0  0  0  0
   -4.0757   -1.0626   -0.3485 N   0  0  0  0  0  0  0  0  0  0  0  0
   -5.9299   -2.5124   -0.9991 C   0  0  0  0  0  0  0  0  0  0  0  0
   -6.8651   -1.4605   -0.6577 N   0  0  0  0  0  0  0  0  0  0  0  0
   -6.3579   -0.6952    0.4628 C   0  0  0  0  0  0  0  0  0  0  0  0
   -5.0376   -0.0538    0.0825 C   0  0  0  0  0  0  0  0  0  0  0  0
   -0.2081    1.0522    1.6169 O   0  0  0  0  0  0  0  0  0  0  0  0
   -0.9342    1.5828    2.7259 C   0  0  1  0  0  0  0  0  0  0  0  0
    0.1081    1.9346    3.7698 C   0  0  0  0  0  0  0  0  0  0  0  0
    5.8675    0.2473   -0.7649 H   0  0  0  0  0  0  0  0  0  0  0  0
    0.0127   -0.9012   -2.3830 H   0  0  0  0  0  0  0  0  0  0  0  0
   -2.7543    0.2434    1.5100 H   0  0  0  0  0  0  0  0  0  0  0  0
   -4.7176   -1.3547   -2.3488 H   0  0  0  0  0  0  0  0  0  0  0  0
   -3.8972   -2.7241   -1.5921 H   0  0  0  0  0  0  0  0  0  0  0  0
   -2.2746    3.1877    3.2072 H   0  0  0  0  0  0  0  0  0  0  0  0
   -1.1297    3.5796    1.9200 H   0  0  0  0  0  0  0  0  0  0  0  0
   -2.5257    2.5549    1.5861 H   0  0  0  0  0  0  0  0  0  0  0  0
    1.6638   -2.4687   -1.0577 H   0  0  0  0  0  0  0  0  0  0  0  0
    4.0078    2.3146   -0.3433 H   0  0  0  0  0  0  0  0  0  0  0  0
    1.5848    4.6756    1.0085 H   0  0  0  0  0  0  0  0  0  0  0  0
    2.7525    3.4677    1.3462 H   0  0  0  0  0  0  0  0  0  0  0  0
   -2.3192   -1.5415   -2.3710 H   0  0  0  0  0  0  0  0  0  0  0  0
   -6.3212   -3.0907   -1.8381 H   0  0  0  0  0  0  0  0  0  0  0  0
   -5.7581   -3.2147   -0.1677 H   0  0  0  0  0  0  0  0  0  0  0  0
   -7.7635   -1.8615   -0.4233 H   0  0  0  0  0  0  0  0  0  0  0  0
   -7.0680    0.0928    0.7205 H   0  0  0  0  0  0  0  0  0  0  0  0
   -6.2047   -1.3098    1.3643 H   0  0  0  0  0  0  0  0  0  0  0  0
   -4.6598    0.4863    0.9474 H   0  0  0  0  0  0  0  0  0  0  0  0
   -5.2052    0.6829   -0.7166 H   0  0  0  0  0  0  0  0  0  0  0  0
   -1.5877    0.8062    3.1416 H   0  0  0  0  0  0  0  0  0  0  0  0
   -0.3772    2.3527    4.6511 H   0  0  0  0  0  0  0  0  0  0  0  0
    0.6691    1.0537    4.0832 H   0  0  0  0  0  0  0  0  0  0  0  0
    0.8110    2.6755    3.3859 H   0  0  0  0  0  0  0  0  0  0  0  0
 30 29  1  0
 12 29  1  0
 29 28  1  0
 26 27  1  0
 26 25  1  0
 27 23  1  0
 28 10  1  0
 25 24  1  0
  9 10  2  0
  9 22  1  0
 10  7  1  0
 23 22  1  0
 23 11  1  0
 22 21  2  0
 24 11  1  0
 17  6  1  0
  7  5  1  0
  7  8  2  0
  6 18  2  0
  6  4  1  0
  5  4  2  0
  5 14  1  0
  4 16  1  0
 21  8  1  0
 14 13  1  0
 14 15  2  0
 16 15  1  0
 13  1  2  0
 15  3  1  0
  1 19  1  0
  1  2  1  0
  3  2  2  0
  2 20  1  0
  3 31  1  0
  8 32  1  0
  9 33  1  0
 11 34  1  0
 11 35  1  0
 12 36  1  0
 12 37  1  0
 12 38  1  0
 13 39  1  0
 16 40  1  0
 17 41  1  0
 17 42  1  0
 21 43  1  0
 24 44  1  0
 24 45  1  0
 25 46  1  0
 26 47  1  0
 26 48  1  0
 27 49  1  0
 27 50  1  0
 29 51  1  1
 30 52  1  0
 30 53  1  0
 30 54  1  0
M  END
