
     RDKit          3D

 66 69  0  0  0  0  0  0  0  0999 V2000
    2.7335   -2.2733    1.1107 O   0  0  0  0  0  0  0  0  0  0  0  0
    2.5353   -1.3413    0.3467 C   0  0  0  0  0  0  0  0  0  0  0  0
    3.5894   -0.6317   -0.1779 N   0  0  0  0  0  0  0  0  0  0  0  0
    3.3009    0.4718   -0.9176 N   0  0  0  0  0  0  0  0  0  0  0  0
    4.1954    1.3739   -1.0252 C   0  0  0  0  0  0  0  0  0  0  0  0
    5.4761    1.3399   -0.3457 C   0  0  0  0  0  0  0  0  0  0  0  0
    6.2952    2.4633   -0.2539 C   0  0  0  0  0  0  0  0  0  0  0  0
    7.4706    2.3986    0.4760 C   0  0  0  0  0  0  0  0  0  0  0  0
    7.8223    1.2157    1.1180 C   0  0  0  0  0  0  0  0  0  0  0  0
    7.0058    0.0956    1.0246 C   0  0  0  0  0  0  0  0  0  0  0  0
    5.8348    0.1510    0.2846 C   0  0  0  0  0  0  0  0  0  0  0  0
    4.9705   -1.0593    0.0700 C   0  0  2  0  0  0  0  0  0  0  0  0
    5.5380   -1.9648   -1.0480 C   0  0  1  0  0  0  0  0  0  0  0  0
    4.7806   -3.2826   -1.1691 C   0  0  0  0  0  0  0  0  0  0  0  0
    5.6449   -1.2897   -2.4111 C   0  0  0  0  0  0  0  0  0  0  0  0
    1.1763   -0.9216   -0.0553 C   0  0  0  0  0  0  0  0  0  0  0  0
    0.1135   -1.5183    0.4961 C   0  0  0  0  0  0  0  0  0  0  0  0
   -1.2814   -1.2134    0.1879 C   0  0  0  0  0  0  0  0  0  0  0  0
   -2.2752   -2.1007    0.5951 C   0  0  0  0  0  0  0  0  0  0  0  0
   -1.9613   -3.2264    1.2862 O   0  0  0  0  0  0  0  0  0  0  0  0
   -1.7764   -4.3873    0.4833 C   0  0  0  0  0  0  0  0  0  0  0  0
   -3.6267   -1.8317    0.3124 C   0  0  0  0  0  0  0  0  0  0  0  0
   -4.5047   -2.7530    0.7388 O   0  0  0  0  0  0  0  0  0  0  0  0
   -5.8814   -2.5287    0.5038 C   0  0  0  0  0  0  0  0  0  0  0  0
   -3.9667   -0.6671   -0.3569 C   0  0  0  0  0  0  0  0  0  0  0  0
   -2.9792    0.2362   -0.7580 C   0  0  0  0  0  0  0  0  0  0  0  0
   -3.3717    1.5023   -1.4869 C   0  0  0  0  0  0  0  0  0  0  0  0
   -4.5112    2.2406   -0.8516 C   0  0  0  0  0  0  0  0  0  0  0  0
   -5.7230    2.4128   -1.4779 C   0  0  0  0  0  0  0  0  0  0  0  0
   -6.7642    3.0630   -0.9625 N   0  0  0  0  0  0  0  0  0  0  0  0
   -6.5709    3.5666    0.2564 C   0  0  0  0  0  0  0  0  0  0  0  0
   -7.6192    4.1951    0.8398 N   0  0  0  0  0  0  0  0  0  0  0  0
   -5.4507    3.4780    0.9726 N   0  0  0  0  0  0  0  0  0  0  0  0
   -4.4247    2.8260    0.4348 C   0  0  0  0  0  0  0  0  0  0  0  0
   -3.2865    2.7790    1.1527 N   0  0  0  0  0  0  0  0  0  0  0  0
   -1.6551   -0.0385   -0.4821 C   0  0  0  0  0  0  0  0  0  0  0  0
    3.9235    2.2391   -1.6192 H   0  0  0  0  0  0  0  0  0  0  0  0
    6.0049    3.3837   -0.7461 H   0  0  0  0  0  0  0  0  0  0  0  0
    8.1107    3.2674    0.5514 H   0  0  0  0  0  0  0  0  0  0  0  0
    8.7378    1.1659    1.6928 H   0  0  0  0  0  0  0  0  0  0  0  0
    7.2885   -0.8238    1.5238 H   0  0  0  0  0  0  0  0  0  0  0  0
    4.9540   -1.6493    0.9867 H   0  0  0  0  0  0  0  0  0  0  0  0
    6.5550   -2.1971   -0.7111 H   0  0  0  0  0  0  0  0  0  0  0  0
    3.7720   -3.1362   -1.5606 H   0  0  0  0  0  0  0  0  0  0  0  0
    5.3011   -3.9443   -1.8631 H   0  0  0  0  0  0  0  0  0  0  0  0
    4.7008   -3.7983   -0.2125 H   0  0  0  0  0  0  0  0  0  0  0  0
    6.2354   -0.3731   -2.3807 H   0  0  0  0  0  0  0  0  0  0  0  0
    6.1349   -1.9638   -3.1152 H   0  0  0  0  0  0  0  0  0  0  0  0
    4.6632   -1.0500   -2.8231 H   0  0  0  0  0  0  0  0  0  0  0  0
    1.0718   -0.1507   -0.8033 H   0  0  0  0  0  0  0  0  0  0  0  0
    0.2836   -2.2963    1.2311 H   0  0  0  0  0  0  0  0  0  0  0  0
   -2.6876   -4.6584   -0.0540 H   0  0  0  0  0  0  0  0  0  0  0  0
   -0.9691   -4.2468   -0.2401 H   0  0  0  0  0  0  0  0  0  0  0  0
   -1.5097   -5.2007    1.1549 H   0  0  0  0  0  0  0  0  0  0  0  0
   -6.2361   -1.6218    1.0003 H   0  0  0  0  0  0  0  0  0  0  0  0
   -6.1068   -2.4591   -0.5632 H   0  0  0  0  0  0  0  0  0  0  0  0
   -6.4079   -3.3845    0.9181 H   0  0  0  0  0  0  0  0  0  0  0  0
   -5.0020   -0.4346   -0.5709 H   0  0  0  0  0  0  0  0  0  0  0  0
   -2.4922    2.1480   -1.5723 H   0  0  0  0  0  0  0  0  0  0  0  0
   -3.6556    1.2465   -2.5119 H   0  0  0  0  0  0  0  0  0  0  0  0
   -5.8670    1.9978   -2.4724 H   0  0  0  0  0  0  0  0  0  0  0  0
   -8.3815    4.4825    0.2506 H   0  0  0  0  0  0  0  0  0  0  0  0
   -7.4383    4.7701    1.6442 H   0  0  0  0  0  0  0  0  0  0  0  0
   -2.5586    2.1258    0.9196 H   0  0  0  0  0  0  0  0  0  0  0  0
   -3.3180    3.0826    2.1114 H   0  0  0  0  0  0  0  0  0  0  0  0
   -0.8951    0.6756   -0.7757 H   0  0  0  0  0  0  0  0  0  0  0  0
 15 13  1  0
 13 14  1  0
 13 12  1  0
 20 21  1  0
 20 19  1  0
  1  2  2  0
 12  3  1  0
 12 11  1  0
 23 22  1  0
 23 24  1  0
  2  3  1  0
  2 16  1  0
 19 22  2  0
 19 18  1  0
 17 16  2  0
 17 18  1  0
  3  4  1  0
 22 25  1  0
 18 36  2  0
 10 11  1  0
 10  9  2  0
 11  6  2  0
  4  5  2  0
 30 29  2  0
 30 31  1  0
 25 26  2  0
 29 28  1  0
 36 26  1  0
 32 31  1  0
  9  8  1  0
 26 27  1  0
  6  5  1  0
  6  7  1  0
 31 33  2  0
 28 27  1  0
 28 34  2  0
  8  7  2  0
 33 34  1  0
 34 35  1  0
  5 37  1  0
  7 38  1  0
  8 39  1  0
  9 40  1  0
 10 41  1  0
 12 42  1  1
 13 43  1  1
 14 44  1  0
 14 45  1  0
 14 46  1  0
 15 47  1  0
 15 48  1  0
 15 49  1  0
 16 50  1  0
 17 51  1  0
 21 52  1  0
 21 53  1  0
 21 54  1  0
 24 55  1  0
 24 56  1  0
 24 57  1  0
 25 58  1  0
 27 59  1  0
 27 60  1  0
 29 61  1  0
 32 62  1  0
 32 63  1  0
 35 64  1  0
 35 65  1  0
 36 66  1  0
M  END
