
     RDKit          3D

 38 39  0  0  0  0  0  0  0  0999 V2000
    3.2556   -2.5615   -0.6300 C   0  0  0  0  0  0  0  0  0  0  0  0
    2.2298   -1.7682   -1.0774 C   0  0  0  0  0  0  0  0  0  0  0  0
    1.6656   -0.7458   -0.3107 C   0  0  0  0  0  0  0  0  0  0  0  0
    2.1893   -0.5548    0.9679 C   0  0  0  0  0  0  0  0  0  0  0  0
    3.2330   -1.3330    1.4358 C   0  0  0  0  0  0  0  0  0  0  0  0
    3.7820   -2.3444    0.6475 C   0  0  0  0  0  0  0  0  0  0  0  0
    4.8540   -3.1492    1.1292 C   0  0  0  0  0  0  0  0  0  0  0  0
    5.7596   -3.8317    1.5341 C   0  0  0  0  0  0  0  0  0  0  0  0
    0.6426    0.0123   -0.8471 N   0  0  0  0  0  0  0  0  0  0  0  0
    0.1407    1.1552   -0.2353 C   0  0  0  0  0  0  0  0  0  0  0  0
   -1.2086    1.3058    0.1119 C   0  0  0  0  0  0  0  0  0  0  0  0
   -1.6577    2.5102    0.6448 C   0  0  0  0  0  0  0  0  0  0  0  0
   -0.7921    3.5681    0.8692 C   0  0  0  0  0  0  0  0  0  0  0  0
    0.5345    3.4145    0.5283 C   0  0  0  0  0  0  0  0  0  0  0  0
    0.9902    2.2379   -0.0350 C   0  0  0  0  0  0  0  0  0  0  0  0
    2.2681    2.1472   -0.4035 F   0  0  0  0  0  0  0  0  0  0  0  0
    1.4016    4.4101    0.7090 F   0  0  0  0  0  0  0  0  0  0  0  0
   -2.1436    0.1436   -0.0022 C   0  0  0  0  0  0  0  0  0  0  0  0
   -1.8533   -0.9767    0.3717 O   0  0  0  0  0  0  0  0  0  0  0  0
   -3.3416    0.4805   -0.5168 N   0  0  0  0  0  0  0  0  0  0  0  0
   -4.2779   -0.4809   -0.7127 O   0  0  0  0  0  0  0  0  0  0  0  0
   -5.2559   -0.4678    0.3299 C   0  0  0  0  0  0  0  0  0  0  0  0
   -6.2643   -1.5492    0.0474 C   0  0  0  0  0  0  0  0  0  0  0  0
   -5.6515   -2.8103    0.1675 O   0  0  0  0  0  0  0  0  0  0  0  0
    1.7277   -1.9756   -2.3067 F   0  0  0  0  0  0  0  0  0  0  0  0
    3.6551   -3.3359   -1.2715 H   0  0  0  0  0  0  0  0  0  0  0  0
    1.7642    0.1953    1.6215 H   0  0  0  0  0  0  0  0  0  0  0  0
    3.6156   -1.1599    2.4322 H   0  0  0  0  0  0  0  0  0  0  0  0
    6.5591   -4.4374    1.8949 H   0  0  0  0  0  0  0  0  0  0  0  0
    0.0073   -0.4745   -1.4605 H   0  0  0  0  0  0  0  0  0  0  0  0
   -2.6954    2.6203    0.9285 H   0  0  0  0  0  0  0  0  0  0  0  0
   -1.1394    4.4941    1.3061 H   0  0  0  0  0  0  0  0  0  0  0  0
   -3.4991    1.3468   -1.0152 H   0  0  0  0  0  0  0  0  0  0  0  0
   -4.7786   -0.6261    1.3018 H   0  0  0  0  0  0  0  0  0  0  0  0
   -5.7710    0.4974    0.3541 H   0  0  0  0  0  0  0  0  0  0  0  0
   -7.0802   -1.4150    0.7685 H   0  0  0  0  0  0  0  0  0  0  0  0
   -6.6958   -1.3940   -0.9498 H   0  0  0  0  0  0  0  0  0  0  0  0
   -6.3138   -3.4823   -0.0164 H   0  0  0  0  0  0  0  0  0  0  0  0
  1  2  2  0
  1  6  1  0
  1 26  1  0
  2 25  1  0
  2  3  1  0
  3  9  1  0
  3  4  2  0
  4  5  1  0
  4 27  1  0
  5  6  2  0
  5 28  1  0
  6  7  1  0
  7  8  3  0
  8 29  1  0
  9 10  1  0
  9 30  1  0
 10 15  1  0
 10 11  2  0
 11 18  1  0
 11 12  1  0
 12 13  2  0
 12 31  1  0
 13 14  1  0
 13 32  1  0
 14 15  2  0
 14 17  1  0
 15 16  1  0
 18 19  2  0
 18 20  1  0
 20 21  1  0
 20 33  1  0
 21 22  1  0
 22 23  1  0
 22 34  1  0
 22 35  1  0
 23 24  1  0
 23 36  1  0
 23 37  1  0
 24 38  1  0
M  END
