
     RDKit          3D

 19 20  0  0  0  0  0  0  0  0999 V2000
    0.3502   -0.1982   -0.0354 C   0  0  0  0  0  0  0  0  0  0  0  0
    1.4112    0.7408   -0.0375 C   0  0  0  0  0  0  0  0  0  0  0  0
   -0.9682    0.3240   -0.0390 C   0  0  0  0  0  0  0  0  0  0  0  0
    1.1359    2.1253   -0.0459 C   0  0  0  0  0  0  0  0  0  0  0  0
   -1.2229    1.6668   -0.0098 C   0  0  0  0  0  0  0  0  0  0  0  0
   -0.1539    2.5790   -0.0283 C   0  0  0  0  0  0  0  0  0  0  0  0
    1.7917   -1.9586    0.0423 C   0  0  0  0  0  0  0  0  0  0  0  0
    2.9229   -1.1175    0.0172 C   0  0  0  0  0  0  0  0  0  0  0  0
    0.5582   -1.5291    0.0166 N   0  0  0  0  0  0  0  0  0  0  0  0
    2.7288    0.2326   -0.0180 C   0  0  0  0  0  0  0  0  0  0  0  0
   -2.1043   -0.5801   -0.0836 N   0  0  0  0  0  0  0  0  0  0  0  0
   -2.0913   -1.4635   -0.9036 O   0  0  0  0  0  0  0  0  0  0  0  0
   -3.0109   -0.3731    0.6893 O   0  0  0  0  0  0  0  0  0  0  0  0
    1.9628    2.8237   -0.0587 H   0  0  0  0  0  0  0  0  0  0  0  0
   -2.2403    2.0337    0.0006 H   0  0  0  0  0  0  0  0  0  0  0  0
   -0.3638    3.6392   -0.0292 H   0  0  0  0  0  0  0  0  0  0  0  0
    1.9286   -3.0333    0.0884 H   0  0  0  0  0  0  0  0  0  0  0  0
    3.9141   -1.5481    0.0355 H   0  0  0  0  0  0  0  0  0  0  0  0
    3.5642    0.9212   -0.0251 H   0  0  0  0  0  0  0  0  0  0  0  0
 12 11  2  0
 11 13  1  0
 11  3  1  0
  5  3  2  0
  5  6  1  0
  3  1  1  0
  6  4  2  0
  1  9  2  0
  1  2  1  0
  4  2  1  0
  9  7  1  0
  2 10  2  0
  7  8  2  0
 10  8  1  0
  4 14  1  0
  5 15  1  0
  6 16  1  0
  7 17  1  0
  8 18  1  0
 10 19  1  0
M  CHG  2  11   1  13  -1
M  END
