
     RDKit          3D

 32 33  0  0  0  0  0  0  0  0999 V2000
   -1.0496   -1.5610   -0.0442 C   0  0  0  0  0  0  0  0  0  0  0  0
   -2.4115   -1.6810   -0.1299 C   0  0  0  0  0  0  0  0  0  0  0  0
   -3.2105   -0.5390   -0.0909 C   0  0  0  0  0  0  0  0  0  0  0  0
   -2.6266    0.7156    0.0123 C   0  0  0  0  0  0  0  0  0  0  0  0
   -1.2542    0.8626    0.0805 C   0  0  0  0  0  0  0  0  0  0  0  0
   -0.4229   -0.2993    0.0829 C   0  0  0  0  0  0  0  0  0  0  0  0
    0.9097   -0.2025    0.1785 N   0  0  0  0  0  0  0  0  0  0  0  0
   -0.6541    2.2244    0.1802 C   0  0  0  0  0  0  0  0  0  0  0  0
   -1.3718    3.2364   -0.3231 N   0  0  0  0  0  0  0  0  0  0  0  0
    0.4433    2.4065    0.7054 O   0  0  0  0  0  0  0  0  0  0  0  0
   -4.6368   -0.6579   -0.1492 N   0  0  0  0  0  0  0  0  0  0  0  0
   -5.1171   -1.7663   -0.2646 O   0  0  0  0  0  0  0  0  0  0  0  0
   -5.3068    0.3522   -0.0815 O   0  0  0  0  0  0  0  0  0  0  0  0
    1.8164   -1.3285    0.1782 C   0  0  0  0  0  0  0  0  0  0  0  0
    5.8182   -0.0206   -0.1404 C   0  0  0  0  0  0  0  0  0  0  0  0
    5.4298   -0.6442    0.9641 N   0  0  0  0  0  0  0  0  0  0  0  0
    4.1648   -1.0411    1.0400 C   0  0  0  0  0  0  0  0  0  0  0  0
    3.2303   -0.8464    0.0313 C   0  0  0  0  0  0  0  0  0  0  0  0
    3.6532   -0.1893   -1.1198 C   0  0  0  0  0  0  0  0  0  0  0  0
    4.9685    0.2316   -1.2093 C   0  0  0  0  0  0  0  0  0  0  0  0
   -0.4517   -2.4609   -0.0526 H   0  0  0  0  0  0  0  0  0  0  0  0
   -2.8494   -2.6654   -0.2121 H   0  0  0  0  0  0  0  0  0  0  0  0
   -3.2628    1.5885    0.0561 H   0  0  0  0  0  0  0  0  0  0  0  0
    1.2679    0.7023    0.4550 H   0  0  0  0  0  0  0  0  0  0  0  0
   -2.1827    3.0985   -0.9001 H   0  0  0  0  0  0  0  0  0  0  0  0
   -1.0013    4.1719   -0.2764 H   0  0  0  0  0  0  0  0  0  0  0  0
    1.7164   -1.9218    1.0935 H   0  0  0  0  0  0  0  0  0  0  0  0
    1.5780   -1.9930   -0.6563 H   0  0  0  0  0  0  0  0  0  0  0  0
    3.8710   -1.5483    1.9543 H   0  0  0  0  0  0  0  0  0  0  0  0
    2.9629   -0.0153   -1.9365 H   0  0  0  0  0  0  0  0  0  0  0  0
    5.3351    0.7420   -2.0891 H   0  0  0  0  0  0  0  0  0  0  0  0
    6.8548    0.2946   -0.1817 H   0  0  0  0  0  0  0  0  0  0  0  0
  1  2  2  0
  1  6  1  0
  1 21  1  0
  2  3  1  0
  2 22  1  0
  3  4  2  0
  3 11  1  0
  4  5  1  0
  4 23  1  0
  5  6  2  0
  5  8  1  0
  6  7  1  0
  7 14  1  0
  7 24  1  0
  8  9  1  0
  8 10  2  0
  9 25  1  0
  9 26  1  0
 11 12  2  0
 11 13  1  0
 14 18  1  0
 14 27  1  0
 14 28  1  0
 15 16  2  0
 15 20  1  0
 15 32  1  0
 16 17  1  0
 17 18  2  0
 17 29  1  0
 18 19  1  0
 19 20  2  0
 19 30  1  0
 20 31  1  0
M  CHG  2  11   1  13  -1
M  END
