
     RDKit          3D

 24 24  0  0  0  0  0  0  0  0999 V2000
   -1.0319   -1.4334   -0.1738 C   0  0  2  0  0  0  0  0  0  0  0  0
   -1.2610   -1.7200    1.1896 O   0  0  0  0  0  0  0  0  0  0  0  0
    0.4545   -1.2883   -0.4856 C   0  0  0  0  0  0  0  0  0  0  0  0
    1.0711   -0.1121    0.2622 C   0  0  1  0  0  0  0  0  0  0  0  0
    2.5377    0.0421   -0.0536 C   0  0  0  0  0  0  0  0  0  0  0  0
    3.1298   -0.5513   -0.9209 O   0  0  0  0  0  0  0  0  0  0  0  0
    3.1246    0.9351    0.7373 O   0  0  0  0  0  0  0  0  0  0  0  0
    0.3140    1.1842   -0.0626 C   0  0  0  0  0  0  0  0  0  0  0  0
   -1.1735    1.0390    0.2442 C   0  0  1  0  0  0  0  0  0  0  0  0
   -1.8962    2.1860   -0.1568 O   0  0  0  0  0  0  0  0  0  0  0  0
   -1.7652   -0.1443   -0.5145 C   0  0  2  0  0  0  0  0  0  0  0  0
   -3.1340   -0.3174   -0.2433 O   0  0  0  0  0  0  0  0  0  0  0  0
   -0.7851   -2.5271    1.4091 H   0  0  0  0  0  0  0  0  0  0  0  0
    0.9680   -2.2198   -0.2321 H   0  0  0  0  0  0  0  0  0  0  0  0
    0.5769   -1.1537   -1.5634 H   0  0  0  0  0  0  0  0  0  0  0  0
    0.9916   -0.2899    1.3405 H   0  0  0  0  0  0  0  0  0  0  0  0
    4.0569    1.0314    0.4921 H   0  0  0  0  0  0  0  0  0  0  0  0
    0.7193    2.0225    0.5084 H   0  0  0  0  0  0  0  0  0  0  0  0
    0.4378    1.4257   -1.1238 H   0  0  0  0  0  0  0  0  0  0  0  0
   -1.2987    0.8661    1.3215 H   0  0  0  0  0  0  0  0  0  0  0  0
   -1.7185    2.8940    0.4697 H   0  0  0  0  0  0  0  0  0  0  0  0
   -1.6018    0.0364   -1.5901 H   0  0  0  0  0  0  0  0  0  0  0  0
   -3.5774    0.5135   -0.4424 H   0  0  0  0  0  0  0  0  0  0  0  0
   -1.4380   -2.2354   -0.8070 H   0  0  0  0  0  0  0  0  0  0  0  0
 12 11  1  0
 11  1  1  0
 11  9  1  0
  1  2  1  0
  1  3  1  0
 10  9  1  0
  9  8  1  0
  3  4  1  0
  8  4  1  0
  4  5  1  0
  5  6  2  0
  5  7  1  0
  2 13  1  0
  3 14  1  0
  3 15  1  0
  4 16  1  1
  7 17  1  0
  8 18  1  0
  8 19  1  0
  9 20  1  1
 10 21  1  0
 11 22  1  6
 12 23  1  0
  1 24  1  6
M  END
