
     RDKit          3D

 15 14  0  0  0  0  0  0  0  0999 V2000
    0.4012   -0.0785    1.9431 C   0  0  0  0  0  0  0  0  0  0  0  0
    1.5451   -0.2493    1.6100 O   0  0  0  0  0  0  0  0  0  0  0  0
    0.0172    0.3307    3.1390 O   0  0  0  0  0  0  0  0  0  0  0  0
   -0.7456   -0.3239    1.0251 C   0  0  0  0  0  0  0  0  0  0  0  0
   -2.0258   -0.2022    1.3455 C   0  0  0  0  0  0  0  0  0  0  0  0
   -0.3495   -0.7602   -0.2150 O   0  0  0  0  0  0  0  0  0  0  0  0
    0.0052    0.3278   -1.3559 P   0  0  1  0  0  0  0  0  0  0  0  0
    0.5260    1.6116   -0.8606 O   0  0  0  0  0  0  0  0  0  0  0  0
    0.9507   -0.6171   -2.2143 O   0  0  0  0  0  0  0  0  0  0  0  0
   -1.3385    0.5618   -2.1783 O   0  0  0  0  0  0  0  0  0  0  0  0
    0.7892    0.4719    3.7075 H   0  0  0  0  0  0  0  0  0  0  0  0
   -2.8047   -0.4112    0.6252 H   0  0  0  0  0  0  0  0  0  0  0  0
   -2.3314    0.0997    2.3349 H   0  0  0  0  0  0  0  0  0  0  0  0
    1.2752   -0.2239   -3.0363 H   0  0  0  0  0  0  0  0  0  0  0  0
   -1.7348   -0.2235   -2.5806 H   0  0  0  0  0  0  0  0  0  0  0  0
  1  2  2  0
  1  3  1  0
  1  4  1  0
  3 11  1  0
  4  5  2  0
  4  6  1  0
  5 12  1  0
  5 13  1  0
  7  6  1  1
  7  8  2  0
  7  9  1  0
  7 10  1  0
  9 14  1  0
 10 15  1  0
M  END
