
     RDKit          3D

 29 30  0  0  0  0  0  0  0  0999 V2000
    1.4347   -0.6357    0.8988 C   0  0  0  0  0  0  0  0  0  0  0  0
    2.7158   -1.4339    0.7045 C   0  0  0  0  0  0  0  0  0  0  0  0
    3.8161   -0.5467    0.3792 N   0  0  0  0  0  0  0  0  0  0  0  0
    3.5778    0.1734   -0.8587 C   0  0  0  0  0  0  0  0  0  0  0  0
    2.3411    1.0499   -0.7208 C   0  0  0  0  0  0  0  0  0  0  0  0
    1.1312    0.1907   -0.3644 C   0  0  2  0  0  0  0  0  0  0  0  0
   -0.1282    1.0001   -0.1562 C   0  0  0  0  0  0  0  0  0  0  0  0
   -0.0844    2.1992    0.0267 O   0  0  0  0  0  0  0  0  0  0  0  0
   -1.4443    0.2928   -0.1309 C   0  0  0  0  0  0  0  0  0  0  0  0
   -2.5641    0.9814    0.3419 C   0  0  0  0  0  0  0  0  0  0  0  0
   -3.8055    0.3694    0.3774 C   0  0  0  0  0  0  0  0  0  0  0  0
   -3.9489   -0.9394   -0.0687 C   0  0  0  0  0  0  0  0  0  0  0  0
   -2.8447   -1.6322   -0.5448 C   0  0  0  0  0  0  0  0  0  0  0  0
   -1.5993   -1.0213   -0.5723 C   0  0  0  0  0  0  0  0  0  0  0  0
    0.6151   -1.3191    1.1282 H   0  0  0  0  0  0  0  0  0  0  0  0
    1.5479    0.0373    1.7538 H   0  0  0  0  0  0  0  0  0  0  0  0
    2.9536   -1.9729    1.6240 H   0  0  0  0  0  0  0  0  0  0  0  0
    2.5375   -2.1925   -0.0762 H   0  0  0  0  0  0  0  0  0  0  0  0
    4.6696   -1.0838    0.3005 H   0  0  0  0  0  0  0  0  0  0  0  0
    4.4485    0.7946   -1.0781 H   0  0  0  0  0  0  0  0  0  0  0  0
    3.4405   -0.5021   -1.7200 H   0  0  0  0  0  0  0  0  0  0  0  0
    2.5145    1.7952    0.0586 H   0  0  0  0  0  0  0  0  0  0  0  0
    2.1676    1.5874   -1.6555 H   0  0  0  0  0  0  0  0  0  0  0  0
    0.9656   -0.5154   -1.1867 H   0  0  0  0  0  0  0  0  0  0  0  0
   -2.4594    2.0008    0.6888 H   0  0  0  0  0  0  0  0  0  0  0  0
   -4.6639    0.9120    0.7509 H   0  0  0  0  0  0  0  0  0  0  0  0
   -4.9199   -1.4169   -0.0462 H   0  0  0  0  0  0  0  0  0  0  0  0
   -2.9522   -2.6497   -0.8965 H   0  0  0  0  0  0  0  0  0  0  0  0
   -0.7564   -1.5816   -0.9540 H   0  0  0  0  0  0  0  0  0  0  0  0
 13 14  2  0
 13 12  1  0
  4  5  1  0
  4  3  1  0
 14  9  1  0
  5  6  1  0
  6  7  1  0
  6  1  1  0
  9  7  1  0
  9 10  2  0
 12 11  2  0
  7  8  2  0
 11 10  1  0
  3  2  1  0
  2  1  1  0
  1 15  1  0
  1 16  1  0
  2 17  1  0
  2 18  1  0
  3 19  1  0
  4 20  1  0
  4 21  1  0
  5 22  1  0
  5 23  1  0
  6 24  1  6
 10 25  1  0
 11 26  1  0
 12 27  1  0
 13 28  1  0
 14 29  1  0
M  END
