
     RDKit          3D

 35 36  0  0  0  0  0  0  0  0999 V2000
   -2.0949    3.1173   -0.7500 C   0  0  0  0  0  0  0  0  0  0  0  0
   -1.4823    2.0473   -0.0765 O   0  0  0  0  0  0  0  0  0  0  0  0
   -0.1017    1.9783   -0.3207 C   0  0  0  0  0  0  0  0  0  0  0  0
    0.4636    0.7724    0.4153 C   0  0  1  0  0  0  0  0  0  0  0  0
   -0.0502   -0.4919   -0.1290 N   0  0  0  0  0  0  0  0  0  0  0  0
    0.9394   -1.3148   -0.8448 C   0  0  2  0  0  0  0  0  0  0  0  0
    1.9703   -1.8290    0.1546 C   0  0  0  0  0  0  0  0  0  0  0  0
    2.4308   -0.6312    1.0058 C   0  0  0  0  0  0  0  0  0  0  0  0
    2.0007    0.6822    0.3420 C   0  0  2  0  0  0  0  0  0  0  0  0
    2.4949    1.8021    1.0368 O   0  0  0  0  0  0  0  0  0  0  0  0
    2.4489    0.6533   -1.1227 C   0  0  0  0  0  0  0  0  0  0  0  0
    1.6335   -0.4198   -1.8670 C   0  0  0  0  0  0  0  0  0  0  0  0
   -1.4000   -1.2042    0.4795 S   0  0  1  0  0  0  0  0  0  0  0  0
   -1.1725   -2.6437    0.5775 O   0  0  0  0  0  0  0  0  0  0  0  0
   -1.8101   -0.4926    1.6822 O   0  0  0  0  0  0  0  0  0  0  0  0
   -2.6399   -0.9713   -0.7715 C   0  0  0  0  0  0  0  0  0  0  0  0
   -1.6986    4.0863   -0.4241 H   0  0  0  0  0  0  0  0  0  0  0  0
   -1.9648    3.0483   -1.8366 H   0  0  0  0  0  0  0  0  0  0  0  0
   -3.1611    3.0883   -0.5286 H   0  0  0  0  0  0  0  0  0  0  0  0
    0.0909    1.8926   -1.3989 H   0  0  0  0  0  0  0  0  0  0  0  0
    0.3990    2.8908    0.0285 H   0  0  0  0  0  0  0  0  0  0  0  0
    0.1948    0.8569    1.4722 H   0  0  0  0  0  0  0  0  0  0  0  0
    0.4306   -2.1294   -1.3580 H   0  0  0  0  0  0  0  0  0  0  0  0
    1.5414   -2.6125    0.7777 H   0  0  0  0  0  0  0  0  0  0  0  0
    2.8061   -2.2738   -0.3894 H   0  0  0  0  0  0  0  0  0  0  0  0
    2.0086   -0.6807    2.0131 H   0  0  0  0  0  0  0  0  0  0  0  0
    3.5183   -0.6318    1.1184 H   0  0  0  0  0  0  0  0  0  0  0  0
    3.4557    1.7988    0.9681 H   0  0  0  0  0  0  0  0  0  0  0  0
    2.3239    1.6360   -1.5809 H   0  0  0  0  0  0  0  0  0  0  0  0
    3.5182    0.4249   -1.1608 H   0  0  0  0  0  0  0  0  0  0  0  0
    2.2784   -1.0372   -2.4932 H   0  0  0  0  0  0  0  0  0  0  0  0
    0.8879    0.0314   -2.5244 H   0  0  0  0  0  0  0  0  0  0  0  0
   -2.2992   -1.4323   -1.6962 H   0  0  0  0  0  0  0  0  0  0  0  0
   -3.5563   -1.4532   -0.4347 H   0  0  0  0  0  0  0  0  0  0  0  0
   -2.7999    0.0920   -0.9167 H   0  0  0  0  0  0  0  0  0  0  0  0
  1  2  1  0
  2  3  1  0
 15 13  2  0
  3  4  1  0
 12 11  1  0
 12  6  1  0
 13  5  1  0
 13 14  2  0
 13 16  1  6
 11  9  1  0
  5  4  1  0
  5  6  1  0
  4  9  1  0
  6  7  1  0
  9 10  1  1
  9  8  1  0
  7  8  1  0
  1 17  1  0
  1 18  1  0
  1 19  1  0
  3 20  1  0
  3 21  1  0
  4 22  1  1
  6 23  1  6
  7 24  1  0
  7 25  1  0
  8 26  1  0
  8 27  1  0
 10 28  1  0
 11 29  1  0
 11 30  1  0
 12 31  1  0
 12 32  1  0
 16 33  1  0
 16 34  1  0
 16 35  1  0
M  END
