
     RDKit          3D

 34 36  0  0  0  0  0  0  0  0999 V2000
   -3.6021   -0.3546   -0.1467 C   0  0  0  0  0  0  0  0  0  0  0  0
   -2.8407    0.8055   -0.1503 C   0  0  0  0  0  0  0  0  0  0  0  0
   -1.4313    0.7259   -0.0929 C   0  0  0  0  0  0  0  0  0  0  0  0
   -0.8381   -0.5336   -0.0322 C   0  0  0  0  0  0  0  0  0  0  0  0
   -1.5762   -1.7013   -0.0220 C   0  0  0  0  0  0  0  0  0  0  0  0
   -2.9634   -1.6025   -0.0744 C   0  0  0  0  0  0  0  0  0  0  0  0
   -5.6141   -0.1684    1.0248 C   0  0  0  0  0  0  0  0  0  0  0  0
   -0.6046    1.9134   -0.1100 C   0  0  0  0  0  0  0  0  0  0  0  0
    0.8106    1.6740   -0.0734 C   0  0  0  0  0  0  0  0  0  0  0  0
    1.3081    0.4160   -0.0013 C   0  0  0  0  0  0  0  0  0  0  0  0
    2.7246    0.0608    0.0411 C   0  0  0  0  0  0  0  0  0  0  0  0
    3.6861    1.0107    0.3932 C   0  0  0  0  0  0  0  0  0  0  0  0
    5.0297    0.6942    0.4164 C   0  0  0  0  0  0  0  0  0  0  0  0
    5.4492   -0.5942    0.0843 C   0  0  0  0  0  0  0  0  0  0  0  0
    4.4996   -1.5559   -0.2608 C   0  0  0  0  0  0  0  0  0  0  0  0
   -4.9553   -0.2884   -0.2309 O   0  0  0  0  0  0  0  0  0  0  0  0
   -3.4559    1.9811   -0.2161 O   0  0  0  0  0  0  0  0  0  0  0  0
   -3.7580   -2.6747   -0.0678 O   0  0  0  0  0  0  0  0  0  0  0  0
    0.5056   -0.6563    0.0252 O   0  0  0  0  0  0  0  0  0  0  0  0
   -1.0969    3.0529   -0.1644 O   0  0  0  0  0  0  0  0  0  0  0  0
    6.7379   -0.9587    0.0843 O   0  0  0  0  0  0  0  0  0  0  0  0
    3.1580   -1.2309   -0.2773 C   0  0  0  0  0  0  0  0  0  0  0  0
   -1.0832   -2.6643    0.0297 H   0  0  0  0  0  0  0  0  0  0  0  0
   -5.4271   -1.0337    1.6651 H   0  0  0  0  0  0  0  0  0  0  0  0
   -5.3088    0.7355    1.5565 H   0  0  0  0  0  0  0  0  0  0  0  0
   -6.6817   -0.1096    0.8213 H   0  0  0  0  0  0  0  0  0  0  0  0
    1.4809    2.5195   -0.1246 H   0  0  0  0  0  0  0  0  0  0  0  0
    3.3919    2.0125    0.6761 H   0  0  0  0  0  0  0  0  0  0  0  0
    5.7530    1.4497    0.7002 H   0  0  0  0  0  0  0  0  0  0  0  0
    4.8186   -2.5571   -0.5204 H   0  0  0  0  0  0  0  0  0  0  0  0
   -2.7529    2.6763   -0.2115 H   0  0  0  0  0  0  0  0  0  0  0  0
   -3.2365   -3.4848   -0.0232 H   0  0  0  0  0  0  0  0  0  0  0  0
    7.3036   -0.2172    0.3297 H   0  0  0  0  0  0  0  0  0  0  0  0
    2.4491   -1.9980   -0.5569 H   0  0  0  0  0  0  0  0  0  0  0  0
  7 16  1  0
 17  2  1  0
 20  8  2  0
 16  1  1  0
  2  1  2  0
  2  3  1  0
  8  3  1  0
  8  9  1  0
  1  6  1  0
  3  4  2  0
  9 10  2  0
  6 18  1  0
  6  5  2  0
  4  5  1  0
  4 19  1  0
 10 19  1  0
 10 11  1  0
 12 11  2  0
 12 13  1  0
 11 22  1  0
 13 14  2  0
 22 15  2  0
 14 15  1  0
 14 21  1  0
  5 23  1  0
  7 24  1  0
  7 25  1  0
  7 26  1  0
  9 27  1  0
 12 28  1  0
 13 29  1  0
 15 30  1  0
 17 31  1  0
 18 32  1  0
 21 33  1  0
 22 34  1  0
M  END
