
     RDKit          3D

 81 82  0  0  0  0  0  0  0  0999 V2000
    1.5952    0.0031    0.1051 C   0  0  1  0  0  0  0  0  0  0  0  0
    0.0569    0.0740    0.1497 C   0  0  1  0  0  0  0  0  0  0  0  0
   -0.5453   -1.2683    0.6126 C   0  0  2  0  0  0  0  0  0  0  0  0
    0.0452   -2.4404   -0.2039 C   0  0  1  0  0  0  0  0  0  0  0  0
    1.5739   -2.3305   -0.1206 C   0  0  1  0  0  0  0  0  0  0  0  0
    2.2194   -3.4935   -0.8648 C   0  0  0  0  0  0  0  0  0  0  0  0
    2.0833   -0.0514    1.4045 O   0  0  0  0  0  0  0  0  0  0  0  0
   -0.2731    1.0789    1.0227 O   0  0  0  0  0  0  0  0  0  0  0  0
   -1.9162   -1.2459    0.5798 O   0  0  0  0  0  0  0  0  0  0  0  0
   -0.3549   -3.6487    0.3187 O   0  0  0  0  0  0  0  0  0  0  0  0
    2.0345   -1.1027   -0.6226 O   0  0  0  0  0  0  0  0  0  0  0  0
    2.1359   -3.2926   -2.2185 O   0  0  0  0  0  0  0  0  0  0  0  0
    4.9582    1.6510    3.8316 C   0  0  2  0  0  0  0  0  0  0  0  0
    3.6684    2.4835    3.6771 C   0  0  1  0  0  0  0  0  0  0  0  0
    2.5346    1.6492    3.0180 C   0  0  2  0  0  0  0  0  0  0  0  0
    3.0442    0.9104    1.7710 C   0  0  1  0  0  0  0  0  0  0  0  0
    4.3102    0.1659    2.2327 C   0  0  1  0  0  0  0  0  0  0  0  0
    4.8576   -0.8154    1.2313 C   0  0  0  0  0  0  0  0  0  0  0  0
    5.9977    2.4552    4.1951 O   0  0  0  0  0  0  0  0  0  0  0  0
    3.2563    2.8651    4.9292 O   0  0  0  0  0  0  0  0  0  0  0  0
    1.4828    2.4490    2.6825 O   0  0  0  0  0  0  0  0  0  0  0  0
    5.3008    1.0874    2.5814 O   0  0  0  0  0  0  0  0  0  0  0  0
    6.1666   -1.0193    1.5804 O   0  0  0  0  0  0  0  0  0  0  0  0
    7.0486    1.7902    4.8556 C   0  0  0  0  0  0  0  0  0  0  0  0
    7.5469    2.7767    5.8679 C   0  0  0  0  0  0  0  0  0  0  0  0
    8.8197    2.4266    6.5655 C   0  0  0  0  0  0  0  0  0  0  0  0
    8.9950    3.4025    7.6986 C   0  0  0  0  0  0  0  0  0  0  0  0
   10.3061    3.1823    8.3729 C   0  0  0  0  0  0  0  0  0  0  0  0
   10.3631    3.8365    9.7121 C   0  0  0  0  0  0  0  0  0  0  0  0
   11.6875    3.5561   10.3592 C   0  0  0  0  0  0  0  0  0  0  0  0
   11.6987    4.1690   11.7164 C   0  0  0  0  0  0  0  0  0  0  0  0
   12.9179    3.8563   12.5211 C   0  0  0  0  0  0  0  0  0  0  0  0
   12.6227    4.2372   13.9445 C   0  0  0  0  0  0  0  0  0  0  0  0
   13.8701    4.2886   14.7678 C   0  0  0  0  0  0  0  0  0  0  0  0
   13.5722    4.5662   16.2034 C   0  0  0  0  0  0  0  0  0  0  0  0
    1.9519    0.8998   -0.4804 H   0  0  0  0  0  0  0  0  0  0  0  0
   -0.2945    0.2457   -0.9081 H   0  0  0  0  0  0  0  0  0  0  0  0
   -0.2309   -1.3995    1.6839 H   0  0  0  0  0  0  0  0  0  0  0  0
   -0.2397   -2.3069   -1.2819 H   0  0  0  0  0  0  0  0  0  0  0  0
    1.8674   -2.4208    0.9576 H   0  0  0  0  0  0  0  0  0  0  0  0
    3.2566   -3.6261   -0.4644 H   0  0  0  0  0  0  0  0  0  0  0  0
    1.7195   -4.4450   -0.5288 H   0  0  0  0  0  0  0  0  0  0  0  0
   -0.9332    1.6208    0.5803 H   0  0  0  0  0  0  0  0  0  0  0  0
   -2.1787   -1.2612   -0.3552 H   0  0  0  0  0  0  0  0  0  0  0  0
   -1.1286   -3.9327   -0.1806 H   0  0  0  0  0  0  0  0  0  0  0  0
    2.6640   -4.0035   -2.6109 H   0  0  0  0  0  0  0  0  0  0  0  0
    4.7467    0.8126    4.5772 H   0  0  0  0  0  0  0  0  0  0  0  0
    3.9092    3.3329    2.9784 H   0  0  0  0  0  0  0  0  0  0  0  0
    2.2679    0.8428    3.7647 H   0  0  0  0  0  0  0  0  0  0  0  0
    3.2943    1.6523    0.9581 H   0  0  0  0  0  0  0  0  0  0  0  0
    3.9816   -0.4477    3.1315 H   0  0  0  0  0  0  0  0  0  0  0  0
    4.2346   -1.7521    1.2683 H   0  0  0  0  0  0  0  0  0  0  0  0
    4.6735   -0.4417    0.1903 H   0  0  0  0  0  0  0  0  0  0  0  0
    3.1066    3.8122    4.8869 H   0  0  0  0  0  0  0  0  0  0  0  0
    0.9069    2.4468    3.4548 H   0  0  0  0  0  0  0  0  0  0  0  0
    6.5207   -1.6215    0.9209 H   0  0  0  0  0  0  0  0  0  0  0  0
    6.7519    0.8265    5.3538 H   0  0  0  0  0  0  0  0  0  0  0  0
    7.8404    1.4860    4.1357 H   0  0  0  0  0  0  0  0  0  0  0  0
    7.6848    3.7576    5.3612 H   0  0  0  0  0  0  0  0  0  0  0  0
    6.7506    2.9381    6.6294 H   0  0  0  0  0  0  0  0  0  0  0  0
    8.8130    1.3840    6.9517 H   0  0  0  0  0  0  0  0  0  0  0  0
    9.6927    2.4845    5.8785 H   0  0  0  0  0  0  0  0  0  0  0  0
    8.1520    3.3037    8.4209 H   0  0  0  0  0  0  0  0  0  0  0  0
    8.9275    4.4467    7.3190 H   0  0  0  0  0  0  0  0  0  0  0  0
   10.4942    2.0894    8.4769 H   0  0  0  0  0  0  0  0  0  0  0  0
   11.1217    3.5671    7.7245 H   0  0  0  0  0  0  0  0  0  0  0  0
   10.1990    4.9339    9.6221 H   0  0  0  0  0  0  0  0  0  0  0  0
    9.5306    3.4789   10.3617 H   0  0  0  0  0  0  0  0  0  0  0  0
   12.5146    3.9584    9.7347 H   0  0  0  0  0  0  0  0  0  0  0  0
   11.8677    2.4585   10.4107 H   0  0  0  0  0  0  0  0  0  0  0  0
   10.7934    3.8364   12.2796 H   0  0  0  0  0  0  0  0  0  0  0  0
   11.5930    5.2724   11.6279 H   0  0  0  0  0  0  0  0  0  0  0  0
   13.1941    2.7816   12.4495 H   0  0  0  0  0  0  0  0  0  0  0  0
   13.8030    4.4079   12.1334 H   0  0  0  0  0  0  0  0  0  0  0  0
   12.1021    5.2218   13.9755 H   0  0  0  0  0  0  0  0  0  0  0  0
   11.8975    3.5164   14.3816 H   0  0  0  0  0  0  0  0  0  0  0  0
   14.4062    3.3210   14.6702 H   0  0  0  0  0  0  0  0  0  0  0  0
   14.5511    5.0673   14.3628 H   0  0  0  0  0  0  0  0  0  0  0  0
   12.9490    3.7765   16.6456 H   0  0  0  0  0  0  0  0  0  0  0  0
   13.0334    5.5166   16.3309 H   0  0  0  0  0  0  0  0  0  0  0  0
   14.4992    4.6203   16.7827 H   0  0  0  0  0  0  0  0  0  0  0  0
  1  2  1  0
  1  7  1  0
  1 11  1  0
  1 36  1  6
  2  3  1  0
  2  8  1  0
  2 37  1  6
  3  4  1  0
  3  9  1  0
  3 38  1  1
  4  5  1  0
  4 10  1  0
  4 39  1  6
  5  6  1  0
  5 11  1  0
  5 40  1  1
  6 12  1  0
  6 41  1  0
  6 42  1  0
  7 16  1  0
  8 43  1  0
  9 44  1  0
 10 45  1  0
 12 46  1  0
 13 14  1  0
 13 19  1  0
 13 22  1  0
 13 47  1  1
 14 15  1  0
 14 20  1  0
 14 48  1  6
 15 16  1  0
 15 21  1  0
 15 49  1  1
 16 17  1  0
 16 50  1  6
 17 18  1  0
 17 22  1  0
 17 51  1  1
 18 23  1  0
 18 52  1  0
 18 53  1  0
 19 24  1  0
 20 54  1  0
 21 55  1  0
 23 56  1  0
 24 25  1  0
 24 57  1  0
 24 58  1  0
 25 26  1  0
 25 59  1  0
 25 60  1  0
 26 27  1  0
 26 61  1  0
 26 62  1  0
 27 28  1  0
 27 63  1  0
 27 64  1  0
 28 29  1  0
 28 65  1  0
 28 66  1  0
 29 30  1  0
 29 67  1  0
 29 68  1  0
 30 31  1  0
 30 69  1  0
 30 70  1  0
 31 32  1  0
 31 71  1  0
 31 72  1  0
 32 33  1  0
 32 73  1  0
 32 74  1  0
 33 34  1  0
 33 75  1  0
 33 76  1  0
 34 35  1  0
 34 77  1  0
 34 78  1  0
 35 79  1  0
 35 80  1  0
 35 81  1  0
M  END
