
     RDKit          3D

 62 63  0  0  0  0  0  0  0  0999 V2000
   -6.9983    3.0417    2.0790 N   0  0  0  0  0  0  0  0  0  0  0  0
   -6.4979    3.3799    0.7696 C   0  0  2  0  0  0  0  0  0  0  0  0
   -7.5434    4.0210   -0.1356 C   0  0  0  0  0  0  0  0  0  0  0  0
   -6.9962    4.5916   -1.2029 O   0  0  0  0  0  0  0  0  0  0  0  0
   -5.9238    2.1394    0.0726 C   0  0  0  0  0  0  0  0  0  0  0  0
   -4.7741    1.5290    0.8603 C   0  0  0  0  0  0  0  0  0  0  0  0
   -4.2383    0.2739    0.2140 C   0  0  0  0  0  0  0  0  0  0  0  0
   -4.9384   -0.5047   -0.4177 O   0  0  0  0  0  0  0  0  0  0  0  0
   -8.7302    4.0110    0.0748 O   0  0  0  0  0  0  0  0  0  0  0  0
   -2.9228    0.0489    0.3880 N   0  0  0  0  0  0  0  0  0  0  0  0
   -2.3060   -1.1516   -0.1046 C   0  0  2  0  0  0  0  0  0  0  0  0
   -2.9106   -2.3894    0.5672 C   0  0  0  0  0  0  0  0  0  0  0  0
   -3.2623   -2.3846    1.7338 O   0  0  0  0  0  0  0  0  0  0  0  0
   -0.8094   -1.1353    0.1871 C   0  0  0  0  0  0  0  0  0  0  0  0
   -0.0397    0.2905   -0.6361 S   0  0  0  0  0  0  0  0  0  0  0  0
    9.1537    1.1085   -0.7143 C   0  0  0  0  0  0  0  0  0  0  0  0
   10.5203    1.0380   -0.4901 C   0  0  0  0  0  0  0  0  0  0  0  0
   11.0059    0.5710    0.7242 C   0  0  0  0  0  0  0  0  0  0  0  0
   10.1140    0.1726    1.7115 C   0  0  0  0  0  0  0  0  0  0  0  0
    8.7474    0.2397    1.4863 C   0  0  0  0  0  0  0  0  0  0  0  0
    8.2474    0.7098    0.2702 C   0  0  0  0  0  0  0  0  0  0  0  0
    6.7939    0.7827    0.0298 C   0  0  0  0  0  0  0  0  0  0  0  0
    6.2413    1.8237   -0.7222 C   0  0  0  0  0  0  0  0  0  0  0  0
    4.8807    1.8907   -0.9496 C   0  0  0  0  0  0  0  0  0  0  0  0
    4.0238    0.9174   -0.4329 C   0  0  0  0  0  0  0  0  0  0  0  0
    4.5697   -0.1220    0.3196 C   0  0  0  0  0  0  0  0  0  0  0  0
    5.9333   -0.1874    0.5459 C   0  0  0  0  0  0  0  0  0  0  0  0
    2.1088    1.9319   -1.3570 O   0  0  0  0  0  0  0  0  0  0  0  0
   -2.9531   -3.4749   -0.2144 N   0  0  0  0  0  0  0  0  0  0  0  0
   -3.4248   -4.7414    0.2707 C   0  0  0  0  0  0  0  0  0  0  0  0
   -3.2570   -5.8005   -0.7882 C   0  0  0  0  0  0  0  0  0  0  0  0
    1.6645   -0.0450   -0.1392 C   0  0  0  0  0  0  0  0  0  0  0  0
   -2.8012   -5.6025   -1.8852 O   0  0  0  0  0  0  0  0  0  0  0  0
    2.5695    1.0217   -0.7029 C   0  0  0  0  0  0  0  0  0  0  0  0
   -3.6778   -6.9750   -0.3536 O   0  0  0  0  0  0  0  0  0  0  0  0
   -7.3064    3.8723    2.5677 H   0  0  0  0  0  0  0  0  0  0  0  0
   -7.8088    2.4394    2.0000 H   0  0  0  0  0  0  0  0  0  0  0  0
   -5.6909    4.1104    0.8902 H   0  0  0  0  0  0  0  0  0  0  0  0
   -6.7199    1.4014   -0.0552 H   0  0  0  0  0  0  0  0  0  0  0  0
   -5.5778    2.4075   -0.9271 H   0  0  0  0  0  0  0  0  0  0  0  0
   -7.6850    4.9682   -1.7712 H   0  0  0  0  0  0  0  0  0  0  0  0
   -3.9722    2.2613    0.9859 H   0  0  0  0  0  0  0  0  0  0  0  0
   -5.1117    1.2688    1.8671 H   0  0  0  0  0  0  0  0  0  0  0  0
   -2.3812    0.6788    0.9587 H   0  0  0  0  0  0  0  0  0  0  0  0
   -2.4522   -1.2226   -1.1876 H   0  0  0  0  0  0  0  0  0  0  0  0
   -0.6322   -1.0836    1.2639 H   0  0  0  0  0  0  0  0  0  0  0  0
   -0.3607   -2.0567   -0.1865 H   0  0  0  0  0  0  0  0  0  0  0  0
   -2.7054   -3.4030   -1.1896 H   0  0  0  0  0  0  0  0  0  0  0  0
    1.7455   -0.0613    0.9512 H   0  0  0  0  0  0  0  0  0  0  0  0
    1.9783   -1.0287   -0.4983 H   0  0  0  0  0  0  0  0  0  0  0  0
   10.4825   -0.1875    2.6631 H   0  0  0  0  0  0  0  0  0  0  0  0
   12.0723    0.5178    0.9004 H   0  0  0  0  0  0  0  0  0  0  0  0
   11.2069    1.3425   -1.2694 H   0  0  0  0  0  0  0  0  0  0  0  0
    8.7922    1.4567   -1.6736 H   0  0  0  0  0  0  0  0  0  0  0  0
    6.3319   -1.0185    1.1130 H   0  0  0  0  0  0  0  0  0  0  0  0
    6.8780    2.6039   -1.1191 H   0  0  0  0  0  0  0  0  0  0  0  0
    3.9437   -0.9005    0.7354 H   0  0  0  0  0  0  0  0  0  0  0  0
    4.4791    2.7125   -1.5272 H   0  0  0  0  0  0  0  0  0  0  0  0
   -2.8743   -5.0507    1.1637 H   0  0  0  0  0  0  0  0  0  0  0  0
   -4.4804   -4.6971    0.5570 H   0  0  0  0  0  0  0  0  0  0  0  0
   -3.5624   -7.6513   -1.0384 H   0  0  0  0  0  0  0  0  0  0  0  0
    8.0651   -0.0566    2.2733 H   0  0  0  0  0  0  0  0  0  0  0  0
  1  2  1  0
  2  3  1  0
  2  5  1  0
  3  4  1  0
  3  9  2  0
  5  6  1  0
  6  7  1  0
  7  8  2  0
  7 10  1  0
 10 11  1  0
 11 12  1  0
 11 14  1  0
 12 13  2  0
 12 29  1  0
 14 15  1  0
 15 32  1  0
 20 19  1  0
 20 21  2  0
 19 18  2  0
 18 17  1  0
 17 16  2  0
 16 21  1  0
 21 22  1  0
 22 27  1  0
 22 23  2  0
 27 26  2  0
 26 25  1  0
 25 24  2  0
 25 34  1  0
 24 23  1  0
 28 34  2  0
 29 30  1  0
 30 31  1  0
 31 33  2  0
 31 35  1  0
 32 34  1  0
  1 36  1  0
  1 37  1  0
  2 38  1  1
  5 39  1  0
  5 40  1  0
  4 41  1  0
  6 42  1  0
  6 43  1  0
 10 44  1  0
 11 45  1  6
 14 46  1  0
 14 47  1  0
 29 48  1  0
 32 49  1  0
 32 50  1  0
 20 62  1  0
 19 51  1  0
 18 52  1  0
 17 53  1  0
 16 54  1  0
 27 55  1  0
 23 56  1  0
 26 57  1  0
 24 58  1  0
 30 59  1  0
 30 60  1  0
 35 61  1  0
M  END
