
     RDKit          3D

 34 35  0  0  0  0  0  0  0  0999 V2000
    5.2098   -2.7610   -0.1665 C   0  0  0  0  0  0  0  0  0  0  0  0
    3.9235   -2.2997   -0.8043 C   0  0  0  0  0  0  0  0  0  0  0  0
    3.1006   -1.7211    0.2272 O   0  0  0  0  0  0  0  0  0  0  0  0
    1.9381   -1.2087   -0.1227 C   0  0  0  0  0  0  0  0  0  0  0  0
    1.5048   -1.1719   -1.2439 O   0  0  0  0  0  0  0  0  0  0  0  0
    1.2021   -0.6717    1.0896 C   0  0  0  0  0  0  0  0  0  0  0  0
   -3.7743   -1.6575    0.0513 C   0  0  0  0  0  0  0  0  0  0  0  0
   -2.7639   -2.5091    0.5034 C   0  0  0  0  0  0  0  0  0  0  0  0
   -1.4835   -2.0350    0.7390 C   0  0  0  0  0  0  0  0  0  0  0  0
   -1.2152   -0.6918    0.5196 C   0  0  0  0  0  0  0  0  0  0  0  0
   -0.0162   -0.0211    0.7058 N   0  0  0  0  0  0  0  0  0  0  0  0
   -0.0179    1.2896    0.3439 C   0  0  0  0  0  0  0  0  0  0  0  0
    1.0539    1.9907    0.4028 N   0  0  0  0  0  0  0  0  0  0  0  0
    1.0128    3.3240    0.0497 C   0  0  0  0  0  0  0  0  0  0  0  0
    2.2314    3.9259    0.1758 N   0  0  0  0  0  0  0  0  0  0  0  0
   -0.0824    3.8872   -0.3053 N   0  0  0  0  0  0  0  0  0  0  0  0
   -1.6319    1.7875   -0.1681 S   0  0  0  0  0  0  0  0  0  0  0  0
   -2.2191    0.1519    0.0627 C   0  0  0  0  0  0  0  0  0  0  0  0
   -3.5028   -0.3112   -0.1731 C   0  0  0  0  0  0  0  0  0  0  0  0
    5.7597   -1.9310    0.2766 H   0  0  0  0  0  0  0  0  0  0  0  0
    5.0314   -3.5129    0.6019 H   0  0  0  0  0  0  0  0  0  0  0  0
    5.8423   -3.2094   -0.9319 H   0  0  0  0  0  0  0  0  0  0  0  0
    4.1141   -1.5541   -1.5778 H   0  0  0  0  0  0  0  0  0  0  0  0
    3.3911   -3.1349   -1.2625 H   0  0  0  0  0  0  0  0  0  0  0  0
    0.9864   -1.4859    1.7841 H   0  0  0  0  0  0  0  0  0  0  0  0
    1.8380    0.0342    1.6232 H   0  0  0  0  0  0  0  0  0  0  0  0
   -5.6063   -1.5240   -0.4808 H   0  0  0  0  0  0  0  0  0  0  0  0
   -2.9846   -3.5559    0.6678 H   0  0  0  0  0  0  0  0  0  0  0  0
   -0.7185   -2.7200    1.0811 H   0  0  0  0  0  0  0  0  0  0  0  0
    3.0370    3.3232    0.1992 H   0  0  0  0  0  0  0  0  0  0  0  0
    2.3764    4.8008   -0.2993 H   0  0  0  0  0  0  0  0  0  0  0  0
    0.0352    4.8646   -0.5469 H   0  0  0  0  0  0  0  0  0  0  0  0
   -4.2756    0.3614   -0.5284 H   0  0  0  0  0  0  0  0  0  0  0  0
   -4.9949   -2.1942   -0.1565 O   0  0  0  0  0  0  0  0  0  0  0  0
  1  2  1  0
  1 20  1  0
  1 21  1  0
  1 22  1  0
  3  2  1  0
  2 23  1  0
  2 24  1  0
  3  4  1  0
  6  4  1  0
  4  5  2  0
  6 11  1  0
  6 25  1  0
  6 26  1  0
  7 34  1  0
 34 27  1  0
  8  7  2  0
 19  7  1  0
  9  8  1  0
  8 28  1  0
 10  9  2  0
  9 29  1  0
 11 10  1  0
 10 18  1  0
 12 11  1  0
 13 12  2  0
 12 17  1  0
 14 13  1  0
 16 14  2  0
 14 15  1  0
 15 30  1  0
 15 31  1  0
 16 32  1  0
 17 18  1  0
 18 19  2  0
 19 33  1  0
M  END
