
     RDKit          3D

 22 23  0  0  0  0  0  0  0  0999 V2000
   -2.9009   -0.0254    0.4596 C   0  0  0  0  0  0  0  0  0  0  0  0
   -2.1384    0.0222   -0.8461 C   0  0  0  0  0  0  0  0  0  0  0  0
    0.0243    1.1636   -0.4065 C   0  0  0  0  0  0  0  0  0  0  0  0
    1.3938    0.6939   -0.0934 C   0  0  0  0  0  0  0  0  0  0  0  0
    2.5417    1.4111    0.1685 C   0  0  0  0  0  0  0  0  0  0  0  0
    3.6980    0.6833    0.4427 C   0  0  0  0  0  0  0  0  0  0  0  0
    3.6875   -0.7089    0.4514 C   0  0  0  0  0  0  0  0  0  0  0  0
    2.5204   -1.4226    0.1856 C   0  0  0  0  0  0  0  0  0  0  0  0
    1.3836   -0.6918   -0.0854 C   0  0  0  0  0  0  0  0  0  0  0  0
    0.0069   -1.1443   -0.3950 C   0  0  0  0  0  0  0  0  0  0  0  0
   -2.3885   -0.0306    1.5458 O   0  0  0  0  0  0  0  0  0  0  0  0
   -0.7273    0.0200   -0.6164 N   0  0  0  0  0  0  0  0  0  0  0  0
   -0.3906    2.2925   -0.4769 O   0  0  0  0  0  0  0  0  0  0  0  0
   -2.4145   -0.8336   -1.4642 H   0  0  0  0  0  0  0  0  0  0  0  0
   -2.4220    0.9172   -1.4023 H   0  0  0  0  0  0  0  0  0  0  0  0
    2.5504    2.4927    0.1633 H   0  0  0  0  0  0  0  0  0  0  0  0
    4.6201    1.2074    0.6554 H   0  0  0  0  0  0  0  0  0  0  0  0
    4.6017   -1.2439    0.6707 H   0  0  0  0  0  0  0  0  0  0  0  0
    2.5108   -2.5042    0.1933 H   0  0  0  0  0  0  0  0  0  0  0  0
   -4.2071   -0.0579    0.2434 O   0  0  0  0  0  0  0  0  0  0  0  0
   -4.6805   -0.0886    1.0861 H   0  0  0  0  0  0  0  0  0  0  0  0
   -0.4332   -2.2584   -0.4565 O   0  0  0  0  0  0  0  0  0  0  0  0
 22 10  2  0
  8  7  1  0
  8  9  2  0
  7  6  2  0
 10  9  1  0
 10 12  1  0
  9  4  1  0
  6  5  1  0
  1 11  2  0
  1  2  1  0
 12  2  1  0
 12  3  1  0
  4  5  2  0
  4  3  1  0
  3 13  2  0
  2 14  1  0
  2 15  1  0
  5 16  1  0
  6 17  1  0
  7 18  1  0
  8 19  1  0
  1 20  1  0
 20 21  1  0
M  END
