
     RDKit          3D

 26 27  0  0  0  0  0  0  0  0999 V2000
   -2.5244    0.3300    0.3113 C   0  0  0  0  0  0  0  0  0  0  0  0
   -4.5903    1.3297    0.7937 O   0  0  0  0  0  0  0  0  0  0  0  0
   -1.8210   -0.7472   -0.5019 C   0  0  0  0  0  0  0  0  0  0  0  0
   -0.3355   -0.7489   -0.2598 C   0  0  0  0  0  0  0  0  0  0  0  0
    0.3228   -1.9535    0.0896 C   0  0  0  0  0  0  0  0  0  0  0  0
    1.6707   -1.9426    0.3016 C   0  0  0  0  0  0  0  0  0  0  0  0
    2.3823   -0.7307    0.1705 C   0  0  0  0  0  0  0  0  0  0  0  0
    3.7762   -0.6280    0.3759 C   0  0  0  0  0  0  0  0  0  0  0  0
    4.4069    0.5783    0.2362 C   0  0  0  0  0  0  0  0  0  0  0  0
    3.6683    1.7286   -0.1146 C   0  0  0  0  0  0  0  0  0  0  0  0
    2.3169    1.6558   -0.3198 C   0  0  0  0  0  0  0  0  0  0  0  0
    1.6389    0.4228   -0.1816 C   0  0  0  0  0  0  0  0  0  0  0  0
   -4.0079    0.3745    0.0754 C   0  0  0  0  0  0  0  0  0  0  0  0
   -4.6179   -0.3534   -0.6679 O   0  0  0  0  0  0  0  0  0  0  0  0
    0.3023    0.3865   -0.3890 N   0  0  0  0  0  0  0  0  0  0  0  0
   -2.3508    0.1792    1.3810 H   0  0  0  0  0  0  0  0  0  0  0  0
   -2.1081    1.3134    0.0798 H   0  0  0  0  0  0  0  0  0  0  0  0
   -5.5439    1.3365    0.6230 H   0  0  0  0  0  0  0  0  0  0  0  0
   -2.2279   -1.7301   -0.2619 H   0  0  0  0  0  0  0  0  0  0  0  0
   -2.0024   -0.5848   -1.5679 H   0  0  0  0  0  0  0  0  0  0  0  0
   -0.2496   -2.8665    0.1878 H   0  0  0  0  0  0  0  0  0  0  0  0
    2.1982   -2.8490    0.5729 H   0  0  0  0  0  0  0  0  0  0  0  0
    4.3353   -1.5163    0.6447 H   0  0  0  0  0  0  0  0  0  0  0  0
    5.4746    0.6564    0.3925 H   0  0  0  0  0  0  0  0  0  0  0  0
    4.1794    2.6766   -0.2220 H   0  0  0  0  0  0  0  0  0  0  0  0
    1.7442    2.5340   -0.5898 H   0  0  0  0  0  0  0  0  0  0  0  0
 11 10  1  0
 11 12  2  0
 10  9  2  0
 15 12  1  0
 15  4  2  0
 12  7  1  0
  3  4  1  0
  3  1  1  0
  9  8  1  0
 14 13  2  0
  4  5  1  0
  7  8  2  0
  7  6  1  0
  1 13  1  0
 13  2  1  0
  5  6  2  0
  1 16  1  0
  1 17  1  0
  2 18  1  0
  3 19  1  0
  3 20  1  0
  5 21  1  0
  6 22  1  0
  8 23  1  0
  9 24  1  0
 10 25  1  0
 11 26  1  0
M  END
