
     RDKit          3D

 57 58  0  0  0  0  0  0  0  0999 V2000
   -8.0483   -0.9442   -0.7147 N   0  0  0  0  0  0  0  0  0  0  0  0
   -9.0822   -0.3454   -1.2392 C   0  0  0  0  0  0  0  0  0  0  0  0
   -9.2857    1.0016   -1.1520 N   0  0  0  0  0  0  0  0  0  0  0  0
   -8.4416    1.9126   -0.5076 C   0  0  0  0  0  0  0  0  0  0  0  0
   -6.0583   -0.4932    0.5303 N   0  0  0  0  0  0  0  0  0  0  0  0
   -5.4256    0.6058    1.0847 C   0  0  0  0  0  0  0  0  0  0  0  0
   -6.1770    1.7109    0.8091 C   0  0  0  0  0  0  0  0  0  0  0  0
   -7.3102    1.2683    0.0618 C   0  0  0  0  0  0  0  0  0  0  0  0
   -7.1965   -0.1111   -0.0864 C   0  0  0  0  0  0  0  0  0  0  0  0
   -8.7262    3.1029   -0.4896 O   0  0  0  0  0  0  0  0  0  0  0  0
   -9.9886   -1.0518   -1.9449 N   0  0  0  0  0  0  0  0  0  0  0  0
    3.3462   -0.9054    1.2947 C   0  0  0  0  0  0  0  0  0  0  0  0
    2.0171   -0.8330    0.5490 C   0  0  0  0  0  0  0  0  0  0  0  0
    0.8574   -0.4673    1.4660 C   0  0  0  0  0  0  0  0  0  0  0  0
    4.4828   -1.3327    0.3962 C   0  0  0  0  0  0  0  0  0  0  0  0
    4.4007   -2.2968   -0.3513 O   0  0  0  0  0  0  0  0  0  0  0  0
    5.5947   -0.5740    0.4608 N   0  0  0  0  0  0  0  0  0  0  0  0
    6.7845   -0.8999   -0.2734 C   0  0  1  0  0  0  0  0  0  0  0  0
    7.7171    0.3123   -0.3579 C   0  0  0  0  0  0  0  0  0  0  0  0
    7.0610    1.4631   -1.1048 C   0  0  0  0  0  0  0  0  0  0  0  0
    7.9598    2.6613   -1.2363 C   0  0  0  0  0  0  0  0  0  0  0  0
    9.0851    2.7350   -0.8099 O   0  0  0  0  0  0  0  0  0  0  0  0
    7.3622    3.6528   -1.8879 O   0  0  0  0  0  0  0  0  0  0  0  0
    7.5006   -2.0825    0.3658 C   0  0  0  0  0  0  0  0  0  0  0  0
    8.4356   -2.5677   -0.4385 O   0  0  0  0  0  0  0  0  0  0  0  0
    7.2631   -2.5147    1.4623 O   0  0  0  0  0  0  0  0  0  0  0  0
   -4.1272    0.4705    1.7995 C   0  0  0  0  0  0  0  0  0  0  0  0
   -2.9588    0.1072    0.8792 C   0  0  0  0  0  0  0  0  0  0  0  0
   -1.6399   -0.0116    1.6315 C   0  0  0  0  0  0  0  0  0  0  0  0
   -0.4682   -0.3608    0.7230 C   0  0  0  0  0  0  0  0  0  0  0  0
  -10.1080    1.3956   -1.5902 H   0  0  0  0  0  0  0  0  0  0  0  0
   -5.7379   -1.4466    0.5965 H   0  0  0  0  0  0  0  0  0  0  0  0
   -5.9402    2.7211    1.1039 H   0  0  0  0  0  0  0  0  0  0  0  0
   -9.9520   -2.0528   -1.8480 H   0  0  0  0  0  0  0  0  0  0  0  0
  -10.9057   -0.6693   -2.1032 H   0  0  0  0  0  0  0  0  0  0  0  0
    3.5641    0.0548    1.7683 H   0  0  0  0  0  0  0  0  0  0  0  0
    3.2742   -1.6411    2.1021 H   0  0  0  0  0  0  0  0  0  0  0  0
    2.0921   -0.0947   -0.2556 H   0  0  0  0  0  0  0  0  0  0  0  0
    1.8142   -1.7942    0.0713 H   0  0  0  0  0  0  0  0  0  0  0  0
    0.7721   -1.2169    2.2603 H   0  0  0  0  0  0  0  0  0  0  0  0
    1.0714    0.4835    1.9656 H   0  0  0  0  0  0  0  0  0  0  0  0
    5.6528    0.1443    1.1651 H   0  0  0  0  0  0  0  0  0  0  0  0
    6.5049   -1.1936   -1.2893 H   0  0  0  0  0  0  0  0  0  0  0  0
    8.0053    0.6237    0.6493 H   0  0  0  0  0  0  0  0  0  0  0  0
    8.6312    0.0163   -0.8717 H   0  0  0  0  0  0  0  0  0  0  0  0
    6.7630    1.1446   -2.1086 H   0  0  0  0  0  0  0  0  0  0  0  0
    6.1390    1.7830   -0.6124 H   0  0  0  0  0  0  0  0  0  0  0  0
    7.9605    4.4116   -1.9588 H   0  0  0  0  0  0  0  0  0  0  0  0
    8.9050   -3.2983   -0.0081 H   0  0  0  0  0  0  0  0  0  0  0  0
   -3.9138    1.4174    2.2997 H   0  0  0  0  0  0  0  0  0  0  0  0
   -4.2118   -0.2835    2.5898 H   0  0  0  0  0  0  0  0  0  0  0  0
   -3.1702   -0.8371    0.3677 H   0  0  0  0  0  0  0  0  0  0  0  0
   -2.8714    0.8670    0.0970 H   0  0  0  0  0  0  0  0  0  0  0  0
   -1.4305    0.9313    2.1482 H   0  0  0  0  0  0  0  0  0  0  0  0
   -1.7349   -0.7727    2.4137 H   0  0  0  0  0  0  0  0  0  0  0  0
   -0.3814    0.3958   -0.0645 H   0  0  0  0  0  0  0  0  0  0  0  0
   -0.6757   -1.3075    0.2126 H   0  0  0  0  0  0  0  0  0  0  0  0
 22 21  2  0
 23 21  1  0
 21 20  1  0
 16 15  2  0
 20 19  1  0
 12 15  1  0
 12 13  1  0
 15 17  1  0
 19 18  1  0
 26 24  2  0
 17 18  1  0
 13 14  1  0
 18 24  1  0
 24 25  1  0
 14 30  1  0
 30 29  1  0
 29 28  1  0
 28 27  1  0
 27  6  1  0
  6  5  1  0
  6  7  2  0
  5  9  1  0
  7  8  1  0
  9  8  2  0
  9  1  1  0
  8  4  1  0
  1  2  2  0
  4 10  2  0
  4  3  1  0
  2  3  1  0
  2 11  1  0
  3 31  1  0
  5 32  1  0
  7 33  1  0
 11 34  1  0
 11 35  1  0
 12 36  1  0
 12 37  1  0
 13 38  1  0
 13 39  1  0
 14 40  1  0
 14 41  1  0
 17 42  1  0
 18 43  1  6
 19 44  1  0
 19 45  1  0
 20 46  1  0
 20 47  1  0
 23 48  1  0
 25 49  1  0
 27 50  1  0
 27 51  1  0
 28 52  1  0
 28 53  1  0
 29 54  1  0
 29 55  1  0
 30 56  1  0
 30 57  1  0
M  END
