
     RDKit          3D

 69 73  0  0  0  0  0  0  0  0999 V2000
    3.4961   -2.5212    0.1843 C   0  0  0  0  0  0  0  0  0  0  0  0
    3.9473   -3.4325    1.1380 C   0  0  0  0  0  0  0  0  0  0  0  0
    5.1413   -3.2042    1.8013 C   0  0  0  0  0  0  0  0  0  0  0  0
    5.9065   -2.0723    1.5410 C   0  0  0  0  0  0  0  0  0  0  0  0
    5.4587   -1.1575    0.5909 C   0  0  0  0  0  0  0  0  0  0  0  0
    4.2581   -1.3926   -0.0809 C   0  0  0  0  0  0  0  0  0  0  0  0
    2.1972   -2.7301   -0.5415 C   0  0  0  0  0  0  0  0  0  0  0  0
    6.1104   -0.0284    0.2535 O   0  0  0  0  0  0  0  0  0  0  0  0
    1.0635   -1.8713    0.0259 C   0  0  1  0  0  0  0  0  0  0  0  0
   -0.1571   -1.9996   -0.8791 C   0  0  0  0  0  0  0  0  0  0  0  0
   -1.1605   -1.1326   -0.3712 O   0  0  0  0  0  0  0  0  0  0  0  0
    0.8221   -2.2159    1.4127 N   0  0  0  0  0  0  0  0  0  0  0  0
   -2.3602   -1.0944   -0.9695 C   0  0  0  0  0  0  0  0  0  0  0  0
   -2.7091   -1.8278   -2.1018 C   0  0  0  0  0  0  0  0  0  0  0  0
   -3.9145   -1.7417   -2.6540 N   0  0  0  0  0  0  0  0  0  0  0  0
   -4.8188   -0.9427   -2.1190 C   0  0  0  0  0  0  0  0  0  0  0  0
   -4.5813   -0.1723   -0.9754 C   0  0  0  0  0  0  0  0  0  0  0  0
   -3.3212   -0.2616   -0.4025 C   0  0  0  0  0  0  0  0  0  0  0  0
   -5.2798    1.9426    0.1661 C   0  0  0  0  0  0  0  0  0  0  0  0
   -6.2084    2.7902    0.7211 C   0  0  0  0  0  0  0  0  0  0  0  0
   -7.5425    2.3689    0.7023 C   0  0  0  0  0  0  0  0  0  0  0  0
   -7.9190    1.1393    0.1389 C   0  0  0  0  0  0  0  0  0  0  0  0
   -6.9549    0.2959   -0.4185 C   0  0  0  0  0  0  0  0  0  0  0  0
   -5.6298    0.6936   -0.4059 C   0  0  0  0  0  0  0  0  0  0  0  0
   -8.6838    2.9326    1.1518 N   0  0  0  0  0  0  0  0  0  0  0  0
   -9.7541    2.1603    0.9230 N   0  0  0  0  0  0  0  0  0  0  0  0
   -9.3334    1.0776    0.3179 C   0  0  0  0  0  0  0  0  0  0  0  0
  -10.2520   -0.0146   -0.0993 C   0  0  0  0  0  0  0  0  0  0  0  0
    7.3346    0.2907    0.8935 C   0  0  0  0  0  0  0  0  0  0  0  0
    7.8520    1.5942    0.3150 C   0  0  1  0  0  0  0  0  0  0  0  0
    9.0969    2.0474    1.0806 C   0  0  0  0  0  0  0  0  0  0  0  0
    9.6449    3.3603    0.5297 C   0  0  0  0  0  0  0  0  0  0  0  0
    9.9412    3.2551   -0.9628 C   0  0  0  0  0  0  0  0  0  0  0  0
    8.7074    2.7955   -1.7333 C   0  0  0  0  0  0  0  0  0  0  0  0
    8.1598    1.4844   -1.1786 C   0  0  0  0  0  0  0  0  0  0  0  0
    3.3655   -4.3194    1.3562 H   0  0  0  0  0  0  0  0  0  0  0  0
    3.9228   -0.6729   -0.8203 H   0  0  0  0  0  0  0  0  0  0  0  0
    2.3260   -2.4897   -1.6001 H   0  0  0  0  0  0  0  0  0  0  0  0
    1.9104   -3.7853   -0.4936 H   0  0  0  0  0  0  0  0  0  0  0  0
    5.4932   -3.9153    2.5380 H   0  0  0  0  0  0  0  0  0  0  0  0
    6.8351   -1.9259    2.0755 H   0  0  0  0  0  0  0  0  0  0  0  0
    1.3875   -0.8247   -0.0048 H   0  0  0  0  0  0  0  0  0  0  0  0
    7.1820    0.3905    1.9752 H   0  0  0  0  0  0  0  0  0  0  0  0
    8.0716   -0.5078    0.7358 H   0  0  0  0  0  0  0  0  0  0  0  0
    0.0967   -1.7224   -1.9088 H   0  0  0  0  0  0  0  0  0  0  0  0
   -0.5148   -3.0372   -0.8864 H   0  0  0  0  0  0  0  0  0  0  0  0
    0.0595   -1.6630    1.7828 H   0  0  0  0  0  0  0  0  0  0  0  0
    0.5311   -3.1844    1.4840 H   0  0  0  0  0  0  0  0  0  0  0  0
   -2.0085   -2.4987   -2.5840 H   0  0  0  0  0  0  0  0  0  0  0  0
   -3.0760    0.2942    0.4951 H   0  0  0  0  0  0  0  0  0  0  0  0
   -5.7779   -0.8923   -2.6235 H   0  0  0  0  0  0  0  0  0  0  0  0
   -5.9148    3.7409    1.1452 H   0  0  0  0  0  0  0  0  0  0  0  0
   -8.7972    3.8168    1.6191 H   0  0  0  0  0  0  0  0  0  0  0  0
   -7.2425   -0.6630   -0.8324 H   0  0  0  0  0  0  0  0  0  0  0  0
   -9.9554   -0.9672    0.3421 H   0  0  0  0  0  0  0  0  0  0  0  0
  -11.2752    0.1978    0.2049 H   0  0  0  0  0  0  0  0  0  0  0  0
  -10.2400   -0.1459   -1.1825 H   0  0  0  0  0  0  0  0  0  0  0  0
    7.0756    2.3586    0.4558 H   0  0  0  0  0  0  0  0  0  0  0  0
    8.8653    2.1536    2.1443 H   0  0  0  0  0  0  0  0  0  0  0  0
    9.8694    1.2730    1.0044 H   0  0  0  0  0  0  0  0  0  0  0  0
    8.9004    0.6886   -1.3296 H   0  0  0  0  0  0  0  0  0  0  0  0
    7.2664    1.1893   -1.7329 H   0  0  0  0  0  0  0  0  0  0  0  0
    8.9102    4.1557    0.6981 H   0  0  0  0  0  0  0  0  0  0  0  0
   10.5452    3.6483    1.0778 H   0  0  0  0  0  0  0  0  0  0  0  0
   10.2939    4.2149   -1.3480 H   0  0  0  0  0  0  0  0  0  0  0  0
   10.7538    2.5368   -1.1193 H   0  0  0  0  0  0  0  0  0  0  0  0
    7.9319    3.5660   -1.6649 H   0  0  0  0  0  0  0  0  0  0  0  0
    8.9414    2.6844   -2.7948 H   0  0  0  0  0  0  0  0  0  0  0  0
   -4.2423    2.2523    0.1515 H   0  0  0  0  0  0  0  0  0  0  0  0
  1  2  2  0
  2  3  1  0
  3  4  2  0
  4  5  1  0
  1  6  1  0
  5  6  2  0
  1  7  1  0
  5  8  1  0
  7  9  1  0
  9 10  1  0
 10 11  1  0
  9 12  1  0
 11 13  1  0
 13 14  2  0
 14 15  1  0
 15 16  2  0
 16 17  1  0
 13 18  1  0
 17 18  2  0
 19 20  2  0
 20 21  1  0
 21 22  2  0
 22 23  1  0
 17 24  1  0
 19 24  1  0
 23 24  2  0
 21 25  1  0
 25 26  1  0
 22 27  1  0
 26 27  2  0
 27 28  1  0
  8 29  1  0
 29 30  1  0
 30 31  1  0
 31 32  1  0
 32 33  1  0
 33 34  1  0
 30 35  1  0
 34 35  1  0
  2 36  1  0
  6 37  1  0
  7 38  1  0
  7 39  1  0
  3 40  1  0
  4 41  1  0
  9 42  1  1
 29 43  1  0
 29 44  1  0
 10 45  1  0
 10 46  1  0
 12 47  1  0
 12 48  1  0
 14 49  1  0
 18 50  1  0
 16 51  1  0
 19 69  1  0
 20 52  1  0
 25 53  1  0
 23 54  1  0
 28 55  1  0
 28 56  1  0
 28 57  1  0
 30 58  1  6
 31 59  1  0
 31 60  1  0
 35 61  1  0
 35 62  1  0
 32 63  1  0
 32 64  1  0
 33 65  1  0
 33 66  1  0
 34 67  1  0
 34 68  1  0
M  END
