
     RDKit          3D

 35 36  0  0  0  0  0  0  0  0999 V2000
   45.1861   28.6266   10.1129 O   0  0  0  0  0  0  0  0  0  0  0  0
   46.1996   29.4833   10.1185 C   0  0  0  0  0  0  0  0  0  0  0  0
   46.3841   30.2998    9.2520 O   0  0  0  0  0  0  0  0  0  0  0  0
   47.0432   29.3507   11.3591 C   0  0  0  0  0  0  0  0  0  0  0  0
   47.5173   27.9215   11.6908 C   0  0  1  0  0  0  0  0  0  0  0  0
   48.5213   27.4396   10.6614 C   0  0  0  0  0  0  0  0  0  0  0  0
   49.6579   27.1318   10.9064 O   0  0  0  0  0  0  0  0  0  0  0  0
   47.9863   27.4236    9.4528 O   0  0  0  0  0  0  0  0  0  0  0  0
   48.1247   27.8614   12.9902 N   0  0  0  0  0  0  0  0  0  0  0  0
   47.4021   27.7707   14.1181 C   0  0  0  0  0  0  0  0  0  0  0  0
   46.1793   27.7502   14.1203 O   0  0  0  0  0  0  0  0  0  0  0  0
   48.1969   27.7375   15.4139 C   0  0  0  0  0  0  0  0  0  0  0  0
   49.6243   27.3282   15.2956 C   0  0  0  0  0  0  0  0  0  0  0  0
   50.7313   28.1124   15.4676 C   0  0  0  0  0  0  0  0  0  0  0  0
   51.8627   27.3735   15.2800 N   0  0  0  0  0  0  0  0  0  0  0  0
   50.1099   26.0171   14.9793 C   0  0  0  0  0  0  0  0  0  0  0  0
   49.4859   24.7988   14.6913 C   0  0  0  0  0  0  0  0  0  0  0  0
   51.5193   26.0868   14.9792 C   0  0  0  0  0  0  0  0  0  0  0  0
   52.3161   24.9763   14.7052 C   0  0  0  0  0  0  0  0  0  0  0  0
   51.6732   23.7853   14.4273 C   0  0  0  0  0  0  0  0  0  0  0  0
   50.2710   23.6956   14.4207 C   0  0  0  0  0  0  0  0  0  0  0  0
   44.6572   28.7370    9.3085 H   0  0  0  0  0  0  0  0  0  0  0  0
   46.4352   29.6929   12.2005 H   0  0  0  0  0  0  0  0  0  0  0  0
   47.8979   30.0227   11.2835 H   0  0  0  0  0  0  0  0  0  0  0  0
   46.6599   27.2429   11.6702 H   0  0  0  0  0  0  0  0  0  0  0  0
   48.6435   27.1572    8.7913 H   0  0  0  0  0  0  0  0  0  0  0  0
   49.1326   27.8540   13.0516 H   0  0  0  0  0  0  0  0  0  0  0  0
   47.6558   27.0785   16.0974 H   0  0  0  0  0  0  0  0  0  0  0  0
   48.1281   28.7400   15.8463 H   0  0  0  0  0  0  0  0  0  0  0  0
   50.7944   29.1604   15.7162 H   0  0  0  0  0  0  0  0  0  0  0  0
   52.8009   27.7274   15.3612 H   0  0  0  0  0  0  0  0  0  0  0  0
   48.4052   24.7180   14.6833 H   0  0  0  0  0  0  0  0  0  0  0  0
   53.3967   25.0429   14.7080 H   0  0  0  0  0  0  0  0  0  0  0  0
   52.2615   22.9033   14.2091 H   0  0  0  0  0  0  0  0  0  0  0  0
   49.8036   22.7455   14.1961 H   0  0  0  0  0  0  0  0  0  0  0  0
  1  2  1  0
  1 22  1  0
  2  3  2  0
  2  4  1  0
  4  5  1  0
  4 23  1  0
  4 24  1  0
  5  6  1  0
  5  9  1  0
  5 25  1  1
  6  7  2  0
  6  8  1  0
  8 26  1  0
  9 10  1  0
  9 27  1  0
 10 11  2  0
 10 12  1  0
 12 13  1  0
 12 28  1  0
 12 29  1  0
 13 14  2  0
 13 16  1  0
 14 15  1  0
 14 30  1  0
 15 18  1  0
 15 31  1  0
 16 17  2  0
 16 18  1  0
 17 21  1  0
 17 32  1  0
 18 19  2  0
 19 20  1  0
 19 33  1  0
 20 21  2  0
 20 34  1  0
 21 35  1  0
M  END
