
     RDKit          3D

 34 35  0  0  0  0  0  0  0  0999 V2000
   -5.0420   -2.1160   -0.6213 N   0  0  0  0  0  0  0  0  0  0  0  0
   -0.4328    3.9050    0.4361 O   0  0  0  0  0  0  0  0  0  0  0  0
    0.0651    2.9603   -1.8463 O   0  0  0  0  0  0  0  0  0  0  0  0
    1.1421    2.0035    0.1910 N   0  0  0  0  0  0  0  0  0  0  0  0
    1.6276    0.7947   -0.4604 C   0  0  0  0  0  0  0  0  0  0  0  0
    2.8528    0.1609    0.3079 B   0  0  0  0  0  0  0  0  0  0  0  0
    3.2411    0.6410    1.4985 O   0  0  0  0  0  0  0  0  0  0  0  0
    3.4533   -0.9200   -0.3280 O   0  0  0  0  0  0  0  0  0  0  0  0
   -1.5267    1.6279   -0.2620 C   0  0  0  0  0  0  0  0  0  0  0  0
   -2.1886    1.5392    0.9569 C   0  0  0  0  0  0  0  0  0  0  0  0
   -3.2056    0.6169    1.1093 C   0  0  0  0  0  0  0  0  0  0  0  0
   -3.5631   -0.2171    0.0494 C   0  0  0  0  0  0  0  0  0  0  0  0
   -2.8969   -0.1107   -1.1679 C   0  0  0  0  0  0  0  0  0  0  0  0
   -1.8765    0.8123   -1.3278 C   0  0  0  0  0  0  0  0  0  0  0  0
   -4.6357   -1.1834    0.2447 C   0  0  0  0  0  0  0  0  0  0  0  0
   -6.0333   -2.8016   -0.0844 N   0  0  0  0  0  0  0  0  0  0  0  0
   -6.2288   -2.3056    1.0739 N   0  0  0  0  0  0  0  0  0  0  0  0
   -5.3876   -1.3054    1.3154 N   0  0  0  0  0  0  0  0  0  0  0  0
    4.6580   -1.8257    0.2107 P   0  0  1  0  0  0  0  0  0  0  0  0
    5.6461   -1.6791   -1.0253 O   0  0  0  0  0  0  0  0  0  0  0  0
    5.1629   -1.4423    1.5473 O   0  0  0  0  0  0  0  0  0  0  0  0
    4.1012   -3.3118    0.2223 O   0  0  0  0  0  0  0  0  0  0  0  0
   -4.7111   -2.3447   -1.5483 H   0  0  0  0  0  0  0  0  0  0  0  0
    1.1213    1.9754    1.2045 H   0  0  0  0  0  0  0  0  0  0  0  0
    0.8498    0.0210   -0.5438 H   0  0  0  0  0  0  0  0  0  0  0  0
    1.9331    1.0326   -1.4811 H   0  0  0  0  0  0  0  0  0  0  0  0
    3.9768    0.1589    1.9095 H   0  0  0  0  0  0  0  0  0  0  0  0
   -1.9248    2.1824    1.7855 H   0  0  0  0  0  0  0  0  0  0  0  0
   -3.7237    0.5457    2.0556 H   0  0  0  0  0  0  0  0  0  0  0  0
   -3.1609   -0.7352   -2.0111 H   0  0  0  0  0  0  0  0  0  0  0  0
   -1.3732    0.8891   -2.2812 H   0  0  0  0  0  0  0  0  0  0  0  0
    6.4887   -2.1441   -0.9251 H   0  0  0  0  0  0  0  0  0  0  0  0
    3.8268   -3.6751   -0.6312 H   0  0  0  0  0  0  0  0  0  0  0  0
   -0.1716    2.7657   -0.4264 S   0  0  1  0  0  0  0  0  0  0  0  0
 16  1  1  0
 16 17  2  0
  1 15  1  0
 17 18  1  0
 15 18  2  0
 15 12  1  0
 13 12  2  0
 13 14  1  0
 12 11  1  0
 14  9  2  0
 11 10  2  0
  9 10  1  0
  9 34  1  0
  3 34  2  0
  5  6  1  0
  5  4  1  0
 34  4  1  1
 34  2  2  0
  6  7  1  0
  6  8  1  0
 19  8  1  6
 19 21  2  0
 19 20  1  0
 19 22  1  0
  1 23  1  0
  4 24  1  0
  5 25  1  0
  5 26  1  0
  7 27  1  0
 10 28  1  0
 11 29  1  0
 13 30  1  0
 14 31  1  0
 20 32  1  0
 22 33  1  0
M  END
