
     RDKit          3D

 31 33  0  0  0  0  0  0  0  0999 V2000
   -1.5764    0.6310    0.0169 C   0  0  0  0  0  0  0  0  0  0  0  0
   -2.9425    0.4276    0.0170 C   0  0  0  0  0  0  0  0  0  0  0  0
   -4.2078    1.6212    0.0173 S   0  0  0  0  0  0  0  0  0  0  0  0
   -5.3874    0.3041    0.0094 C   0  0  0  0  0  0  0  0  0  0  0  0
   -6.6996    0.5998    0.0542 N   0  0  0  0  0  0  0  0  0  0  0  0
   -4.8964   -0.8880    0.0089 N   0  0  0  0  0  0  0  0  0  0  0  0
   -3.5206   -0.8537    0.0154 C   0  0  0  0  0  0  0  0  0  0  0  0
   -2.6731   -1.9533    0.0176 C   0  0  0  0  0  0  0  0  0  0  0  0
   -1.2965   -1.7727    0.0190 C   0  0  0  0  0  0  0  0  0  0  0  0
   -0.7456   -0.4886    0.0172 C   0  0  0  0  0  0  0  0  0  0  0  0
    0.5829   -0.2301    0.0149 O   0  0  0  0  0  0  0  0  0  0  0  0
    1.4875   -1.3210    0.0225 C   0  0  0  0  0  0  0  0  0  0  0  0
    2.8677   -0.7344    0.0028 C   0  0  0  0  0  0  0  0  0  0  0  0
    3.5196   -0.4319    1.1945 C   0  0  0  0  0  0  0  0  0  0  0  0
    4.7769    0.1460    1.1846 C   0  0  0  0  0  0  0  0  0  0  0  0
    5.3896    0.4288   -0.0352 C   0  0  0  0  0  0  0  0  0  0  0  0
    6.6880    1.0221   -0.0543 C   0  0  0  0  0  0  0  0  0  0  0  0
    7.7372    1.4980   -0.0705 N   0  0  0  0  0  0  0  0  0  0  0  0
    4.7470    0.1314   -1.2365 C   0  0  0  0  0  0  0  0  0  0  0  0
    3.4898   -0.4456   -1.2081 C   0  0  0  0  0  0  0  0  0  0  0  0
   -1.1496    1.6260    0.0160 H   0  0  0  0  0  0  0  0  0  0  0  0
   -7.0113    1.5164   -0.2189 H   0  0  0  0  0  0  0  0  0  0  0  0
   -7.3391   -0.1485   -0.1615 H   0  0  0  0  0  0  0  0  0  0  0  0
   -3.0852   -2.9542    0.0183 H   0  0  0  0  0  0  0  0  0  0  0  0
   -0.6648   -2.6500    0.0211 H   0  0  0  0  0  0  0  0  0  0  0  0
    1.3466   -1.9377    0.9165 H   0  0  0  0  0  0  0  0  0  0  0  0
    1.3332   -1.9623   -0.8517 H   0  0  0  0  0  0  0  0  0  0  0  0
    3.0455   -0.6533    2.1420 H   0  0  0  0  0  0  0  0  0  0  0  0
    5.2799    0.3754    2.1140 H   0  0  0  0  0  0  0  0  0  0  0  0
    5.2277    0.3482   -2.1805 H   0  0  0  0  0  0  0  0  0  0  0  0
    2.9928   -0.6781   -2.1413 H   0  0  0  0  0  0  0  0  0  0  0  0
 18 17  3  0
 17 16  1  0
 19 16  2  0
 19 20  1  0
 16 15  1  0
 20 13  2  0
 15 14  2  0
 13 14  1  0
 13 12  1  0
 12 11  1  0
  9  8  2  0
  9 10  1  0
  8  7  1  0
 11 10  1  0
 10  1  2  0
  7  6  1  0
  7  2  2  0
  6  4  2  0
  1  2  1  0
  2  3  1  0
  4  3  1  0
  4  5  1  0
  1 21  1  0
  5 22  1  0
  5 23  1  0
  8 24  1  0
  9 25  1  0
 12 26  1  0
 12 27  1  0
 14 28  1  0
 15 29  1  0
 19 30  1  0
 20 31  1  0
M  END
