
     RDKit          3D

 31 32  0  0  0  0  0  0  0  0999 V2000
    0.7173   -0.4990    0.1444 N   0  0  0  0  0  0  0  0  0  0  0  0
   -4.0748   -1.0236   -0.0048 C   0  0  0  0  0  0  0  0  0  0  0  0
   -2.7938   -1.5360   -0.1615 C   0  0  0  0  0  0  0  0  0  0  0  0
   -1.6878   -0.6999   -0.2831 C   0  0  0  0  0  0  0  0  0  0  0  0
   -0.3144   -1.2787   -0.5032 C   0  0  0  0  0  0  0  0  0  0  0  0
    2.0507   -0.9937   -0.1258 C   0  0  0  0  0  0  0  0  0  0  0  0
    4.5252   -0.7106    0.3552 C   0  0  0  0  0  0  0  0  0  0  0  0
   -1.8905    0.6776   -0.2316 C   0  0  0  0  0  0  0  0  0  0  0  0
   -3.1617    1.2111   -0.0716 C   0  0  0  0  0  0  0  0  0  0  0  0
   -4.2344    0.3470    0.0361 C   0  0  0  0  0  0  0  0  0  0  0  0
    3.1158   -0.1365    0.5306 C   0  0  1  0  0  0  0  0  0  0  0  0
    5.3804    0.5380    0.1808 C   0  0  0  0  0  0  0  0  0  0  0  0
    4.4217    1.4420   -0.5750 C   0  0  0  0  0  0  0  0  0  0  0  0
    3.1417    1.1741   -0.0282 O   0  0  0  0  0  0  0  0  0  0  0  0
   -5.4698    0.8561    0.1897 F   0  0  0  0  0  0  0  0  0  0  0  0
    0.5581   -0.5034    1.1458 H   0  0  0  0  0  0  0  0  0  0  0  0
   -2.6588   -2.6108   -0.1856 H   0  0  0  0  0  0  0  0  0  0  0  0
   -0.1023   -1.2845   -1.5783 H   0  0  0  0  0  0  0  0  0  0  0  0
   -0.3179   -2.3372   -0.1988 H   0  0  0  0  0  0  0  0  0  0  0  0
    2.1975   -2.0346    0.2073 H   0  0  0  0  0  0  0  0  0  0  0  0
    2.2106   -0.9949   -1.2096 H   0  0  0  0  0  0  0  0  0  0  0  0
    4.8242   -1.3298    1.2002 H   0  0  0  0  0  0  0  0  0  0  0  0
    4.5762   -1.3333   -0.5427 H   0  0  0  0  0  0  0  0  0  0  0  0
   -1.0417    1.3441   -0.3097 H   0  0  0  0  0  0  0  0  0  0  0  0
   -3.3135    2.2821   -0.0324 H   0  0  0  0  0  0  0  0  0  0  0  0
    2.8829   -0.0416    1.6005 H   0  0  0  0  0  0  0  0  0  0  0  0
    5.6369    0.9727    1.1495 H   0  0  0  0  0  0  0  0  0  0  0  0
    6.3070    0.3551   -0.3629 H   0  0  0  0  0  0  0  0  0  0  0  0
    4.6412    2.5052   -0.4570 H   0  0  0  0  0  0  0  0  0  0  0  0
    4.4457    1.2124   -1.6486 H   0  0  0  0  0  0  0  0  0  0  0  0
   -4.9285   -1.6817    0.0903 H   0  0  0  0  0  0  0  0  0  0  0  0
 12 13  1  0
 12  7  1  0
 13 14  1  0
  7 11  1  0
 14 11  1  0
 11  6  1  0
  6  1  1  0
  1  5  1  0
  5  4  1  0
  4  8  2  0
  4  3  1  0
  8  9  1  0
  3  2  2  0
  9 10  2  0
  2 10  1  0
 10 15  1  0
  1 16  1  0
  2 31  1  0
  3 17  1  0
  5 18  1  0
  5 19  1  0
  6 20  1  0
  6 21  1  0
  7 22  1  0
  7 23  1  0
  8 24  1  0
  9 25  1  0
 11 26  1  1
 12 27  1  0
 12 28  1  0
 13 29  1  0
 13 30  1  0
M  END
