
     RDKit          3D

 40 41  0  0  0  0  0  0  0  0999 V2000
    7.3128   -1.9256   -0.1346 C   0  0  0  0  0  0  0  0  0  0  0  0
    5.8385   -2.0534    0.1302 C   0  0  0  0  0  0  0  0  0  0  0  0
    5.0602   -0.7877   -0.1892 C   0  0  0  0  0  0  0  0  0  0  0  0
    3.5892   -1.0023    0.0942 C   0  0  0  0  0  0  0  0  0  0  0  0
    1.5895    0.2699   -0.0483 C   0  0  0  0  0  0  0  0  0  0  0  0
    0.7950   -0.7748    0.4085 C   0  0  0  0  0  0  0  0  0  0  0  0
   -0.5709   -0.5979    0.5311 C   0  0  0  0  0  0  0  0  0  0  0  0
   -1.1973    0.6080    0.2362 C   0  0  0  0  0  0  0  0  0  0  0  0
   -0.3927    1.6586   -0.2246 C   0  0  0  0  0  0  0  0  0  0  0  0
    7.8635   -0.9296   -0.5315 O   0  0  0  0  0  0  0  0  0  0  0  0
    7.9575   -3.0583    0.1251 O   0  0  0  0  0  0  0  0  0  0  0  0
    2.9071    0.2107   -0.2105 O   0  0  0  0  0  0  0  0  0  0  0  0
    0.9749    1.4879   -0.3770 C   0  0  0  0  0  0  0  0  0  0  0  0
    1.9691    2.7580   -0.9682 Cl  0  0  0  0  0  0  0  0  0  0  0  0
   -1.0730    3.1680   -0.6904 Cl  0  0  0  0  0  0  0  0  0  0  0  0
   -2.6648    0.7591    0.4700 C   0  0  0  0  0  0  0  0  0  0  0  0
   -3.1270    1.7970    0.8843 O   0  0  0  0  0  0  0  0  0  0  0  0
   -3.5312   -0.4323    0.1522 C   0  0  0  0  0  0  0  0  0  0  0  0
   -5.0089   -0.1797    0.3962 C   0  0  0  0  0  0  0  0  0  0  0  0
   -5.8383   -1.3623    0.0231 C   0  0  0  0  0  0  0  0  0  0  0  0
   -7.1092   -1.5244    0.4515 N   0  0  0  0  0  0  0  0  0  0  0  0
   -7.5976   -2.6785   -0.0924 C   0  0  0  0  0  0  0  0  0  0  0  0
   -6.5731   -3.1763   -0.8417 C   0  0  0  0  0  0  0  0  0  0  0  0
   -5.4849   -2.3503   -0.7623 N   0  0  0  0  0  0  0  0  0  0  0  0
    5.4590   -2.9012   -0.4488 H   0  0  0  0  0  0  0  0  0  0  0  0
    5.7076   -2.3352    1.1799 H   0  0  0  0  0  0  0  0  0  0  0  0
    5.4308    0.0447    0.4123 H   0  0  0  0  0  0  0  0  0  0  0  0
    5.1933   -0.5183   -1.2387 H   0  0  0  0  0  0  0  0  0  0  0  0
    3.1942   -1.8191   -0.5190 H   0  0  0  0  0  0  0  0  0  0  0  0
    3.4335   -1.2657    1.1457 H   0  0  0  0  0  0  0  0  0  0  0  0
    1.2254   -1.7286    0.6776 H   0  0  0  0  0  0  0  0  0  0  0  0
   -1.1533   -1.4319    0.8960 H   0  0  0  0  0  0  0  0  0  0  0  0
    8.9041   -2.9472   -0.0478 H   0  0  0  0  0  0  0  0  0  0  0  0
   -3.3495   -0.7124   -0.8891 H   0  0  0  0  0  0  0  0  0  0  0  0
   -3.1991   -1.2944    0.7373 H   0  0  0  0  0  0  0  0  0  0  0  0
   -5.1815    0.0689    1.4457 H   0  0  0  0  0  0  0  0  0  0  0  0
   -5.3411    0.6897   -0.1786 H   0  0  0  0  0  0  0  0  0  0  0  0
   -7.6114   -0.9075    1.0701 H   0  0  0  0  0  0  0  0  0  0  0  0
   -8.5959   -3.0317    0.1008 H   0  0  0  0  0  0  0  0  0  0  0  0
   -6.5588   -4.0823   -1.4276 H   0  0  0  0  0  0  0  0  0  0  0  0
  1  2  1  0
  1 10  2  0
  1 11  1  0
  2  3  1  0
  3  4  1  0
  4 12  1  0
  5  6  2  0
  5 12  1  0
  5 13  1  0
  6  7  1  0
  7  8  2  0
  8  9  1  0
  8 16  1  0
  9 13  2  0
 16 17  2  0
 16 18  1  0
 18 19  1  0
 19 20  1  0
 20 21  1  0
 20 24  2  0
 21 22  1  0
 22 23  2  0
 23 24  1  0
  9 15  1  0
 13 14  1  0
  2 25  1  0
  2 26  1  0
  3 27  1  0
  3 28  1  0
  4 29  1  0
  4 30  1  0
  6 31  1  0
  7 32  1  0
 11 33  1  0
 18 34  1  0
 18 35  1  0
 19 36  1  0
 19 37  1  0
 21 38  1  0
 22 39  1  0
 23 40  1  0
M  END
