
     RDKit          3D

 39 40  0  0  0  0  0  0  0  0999 V2000
   -1.1367   -1.1738   -0.1917 C   0  0  0  0  0  0  0  0  0  0  0  0
   -0.6452   -1.7165    0.9913 C   0  0  0  0  0  0  0  0  0  0  0  0
   -0.7373   -3.0816    1.2412 C   0  0  0  0  0  0  0  0  0  0  0  0
   -1.0979    0.3090   -0.4978 C   0  0  1  0  0  0  0  0  0  0  0  0
   -2.4462    0.9495   -0.2417 C   0  0  0  0  0  0  0  0  0  0  0  0
   -4.2626    1.5189    1.2476 C   0  0  0  0  0  0  0  0  0  0  0  0
   -3.1132    1.6092   -1.2690 C   0  0  0  0  0  0  0  0  0  0  0  0
    1.3869    0.5744   -0.1208 C   0  0  0  0  0  0  0  0  0  0  0  0
   -1.8136   -3.3958   -0.8772 C   0  0  0  0  0  0  0  0  0  0  0  0
   -1.7199   -2.0345   -1.1212 C   0  0  0  0  0  0  0  0  0  0  0  0
    0.0015    1.0664    0.2466 C   0  0  0  0  0  0  0  0  0  0  0  0
    2.2786    0.5706    0.8851 N   0  0  0  0  0  0  0  0  0  0  0  0
    3.6657    0.2153    0.7069 C   0  0  0  0  0  0  0  0  0  0  0  0
    4.4880    1.3808    0.1684 C   0  0  0  0  0  0  0  0  0  0  0  0
    6.2061    0.8126   -0.0620 S   0  0  0  0  0  0  0  0  0  0  0  0
    1.6703    0.2267   -1.2582 O   0  0  0  0  0  0  0  0  0  0  0  0
   -4.3427    2.2180   -1.0462 C   0  0  0  0  0  0  0  0  0  0  0  0
   -4.9212    2.1752    0.2140 C   0  0  0  0  0  0  0  0  0  0  0  0
   -3.0373    0.9100    1.0198 C   0  0  0  0  0  0  0  0  0  0  0  0
   -1.3226   -3.9265    0.3104 C   0  0  0  0  0  0  0  0  0  0  0  0
   -0.1773   -1.0856    1.7365 H   0  0  0  0  0  0  0  0  0  0  0  0
   -0.3450   -3.4812    2.1674 H   0  0  0  0  0  0  0  0  0  0  0  0
   -0.8923    0.4117   -1.5664 H   0  0  0  0  0  0  0  0  0  0  0  0
   -4.7060    1.4806    2.2344 H   0  0  0  0  0  0  0  0  0  0  0  0
   -2.6679    1.6463   -2.2565 H   0  0  0  0  0  0  0  0  0  0  0  0
   -2.2671   -4.0442   -1.6161 H   0  0  0  0  0  0  0  0  0  0  0  0
   -2.1050   -1.6311   -2.0509 H   0  0  0  0  0  0  0  0  0  0  0  0
   -0.0541    2.1223   -0.0351 H   0  0  0  0  0  0  0  0  0  0  0  0
   -0.1538    1.0391    1.3279 H   0  0  0  0  0  0  0  0  0  0  0  0
    1.9910    0.9043    1.7903 H   0  0  0  0  0  0  0  0  0  0  0  0
    4.0560   -0.1017    1.6736 H   0  0  0  0  0  0  0  0  0  0  0  0
    3.7334   -0.6388    0.0317 H   0  0  0  0  0  0  0  0  0  0  0  0
    4.0831    1.7197   -0.7840 H   0  0  0  0  0  0  0  0  0  0  0  0
    4.4709    2.2109    0.8738 H   0  0  0  0  0  0  0  0  0  0  0  0
    6.7320    1.9906   -0.4111 H   0  0  0  0  0  0  0  0  0  0  0  0
   -4.8462    2.7256   -1.8591 H   0  0  0  0  0  0  0  0  0  0  0  0
   -5.8782    2.6481    0.3921 H   0  0  0  0  0  0  0  0  0  0  0  0
   -2.5418    0.3950    1.8349 H   0  0  0  0  0  0  0  0  0  0  0  0
   -1.3926   -4.9889    0.5046 H   0  0  0  0  0  0  0  0  0  0  0  0
  1  2  2  0
  1  4  1  0
  1 10  1  0
  2  3  1  0
  3 20  2  0
  4  5  1  0
  4 11  1  0
  5  7  1  0
  5 19  2  0
  6 18  2  0
  6 19  1  0
  7 17  2  0
  8 11  1  0
  8 12  1  0
  8 16  2  0
  9 10  2  0
  9 20  1  0
 12 13  1  0
 13 14  1  0
 14 15  1  0
 17 18  1  0
  2 21  1  0
  3 22  1  0
  4 23  1  6
  6 24  1  0
  7 25  1  0
  9 26  1  0
 10 27  1  0
 11 28  1  0
 11 29  1  0
 12 30  1  0
 13 31  1  0
 13 32  1  0
 14 33  1  0
 14 34  1  0
 15 35  1  0
 17 36  1  0
 18 37  1  0
 19 38  1  0
 20 39  1  0
M  END
