
     RDKit          3D

 93 95  0  0  0  0  0  0  0  0999 V2000
   -4.6245   -1.4167    0.5600 O   0  0  0  0  0  0  0  0  0  0  0  0
   -3.9653   -1.6919   -0.4218 C   0  0  0  0  0  0  0  0  0  0  0  0
   -4.3860   -2.3918   -1.4726 O   0  0  0  0  0  0  0  0  0  0  0  0
   -5.7196   -2.9651   -1.5503 C   0  0  1  0  0  0  0  0  0  0  0  0
   -6.7837   -1.8748   -1.5469 C   0  0  0  0  0  0  0  0  0  0  0  0
   -5.7112   -3.6712   -2.9010 C   0  0  0  0  0  0  0  0  0  0  0  0
   -5.9404   -3.9814   -0.4365 C   0  0  0  0  0  0  0  0  0  0  0  0
   -1.4369    0.7458   -0.3305 C   0  0  0  0  0  0  0  0  0  0  0  0
    5.5860   -1.3926   -0.6815 N   0  0  0  0  0  0  0  0  0  0  0  0
    6.1806   -2.5932   -1.2359 C   0  0  0  0  0  0  0  0  0  0  0  0
    6.4929   -3.6258   -0.1593 C   0  0  0  0  0  0  0  0  0  0  0  0
    5.3265   -4.5116    0.2684 C   0  0  0  0  0  0  0  0  0  0  0  0
    4.1632   -3.8073    0.9580 C   0  0  0  0  0  0  0  0  0  0  0  0
    3.1611   -4.8387    1.4905 C   0  0  0  0  0  0  0  0  0  0  0  0
   -1.9474   -0.5229    0.3408 C   0  0  2  0  0  0  0  0  0  0  0  0
   -0.7153   -1.2524    0.8923 C   0  0  0  0  0  0  0  0  0  0  0  0
   -1.0877   -2.5045    1.6832 C   0  0  0  0  0  0  0  0  0  0  0  0
    0.1066   -3.2129    2.1946 C   0  0  0  0  0  0  0  0  0  0  0  0
    0.4262   -3.5037    3.4037 N   0  0  0  0  0  0  0  0  0  0  0  0
    1.6276   -4.1699    3.3474 N   0  0  0  0  0  0  0  0  0  0  0  0
    1.9601   -4.2356    2.1084 C   0  0  0  0  0  0  0  0  0  0  0  0
    1.0371   -3.6463    1.3258 O   0  0  0  0  0  0  0  0  0  0  0  0
   -2.6740   -1.3307   -0.5991 N   0  0  0  0  0  0  0  0  0  0  0  0
    1.6766    3.1224   -0.5825 N   0  0  0  0  0  0  0  0  0  0  0  0
    3.0938    2.8181   -0.5459 C   0  0  1  0  0  0  0  0  0  0  0  0
    3.3918    1.4653   -1.2060 C   0  0  0  0  0  0  0  0  0  0  0  0
    4.6923    0.8505   -0.7037 C   0  0  0  0  0  0  0  0  0  0  0  0
    5.0703   -0.4156   -1.4430 C   0  0  0  0  0  0  0  0  0  0  0  0
    4.9363   -0.5266   -2.6553 O   0  0  0  0  0  0  0  0  0  0  0  0
    3.8745    3.9347   -1.2153 C   0  0  0  0  0  0  0  0  0  0  0  0
    3.6937    5.1262   -0.4906 O   0  0  0  0  0  0  0  0  0  0  0  0
   -1.4702    1.8542    0.4278 N   0  0  0  0  0  0  0  0  0  0  0  0
   -0.6529    2.9987    0.1001 C   0  0  2  0  0  0  0  0  0  0  0  0
    0.8165    2.6276    0.3145 C   0  0  0  0  0  0  0  0  0  0  0  0
    1.1546    1.9481    1.2728 O   0  0  0  0  0  0  0  0  0  0  0  0
   -1.0115    4.1946    0.9798 C   0  0  0  0  0  0  0  0  0  0  0  0
   -2.4626    4.6619    0.8727 C   0  0  1  0  0  0  0  0  0  0  0  0
   -2.7016    5.8300    1.8316 C   0  0  0  0  0  0  0  0  0  0  0  0
   -4.1382    6.3370    1.7663 C   0  0  0  0  0  0  0  0  0  0  0  0
   -4.5254    6.7258    0.3442 C   0  0  0  0  0  0  0  0  0  0  0  0
   -4.2944    5.5676   -0.6199 C   0  0  0  0  0  0  0  0  0  0  0  0
   -2.8580    5.0561   -0.5496 C   0  0  0  0  0  0  0  0  0  0  0  0
   -6.5880   -1.1366   -2.3261 H   0  0  0  0  0  0  0  0  0  0  0  0
   -7.7555   -2.3231   -1.7567 H   0  0  0  0  0  0  0  0  0  0  0  0
   -6.8533   -1.3641   -0.5896 H   0  0  0  0  0  0  0  0  0  0  0  0
   -4.9459   -4.4478   -2.9421 H   0  0  0  0  0  0  0  0  0  0  0  0
   -6.6773   -4.1453   -3.0741 H   0  0  0  0  0  0  0  0  0  0  0  0
   -5.5345   -2.9671   -3.7159 H   0  0  0  0  0  0  0  0  0  0  0  0
   -6.0159   -3.5156    0.5433 H   0  0  0  0  0  0  0  0  0  0  0  0
   -6.8714   -4.5184   -0.6213 H   0  0  0  0  0  0  0  0  0  0  0  0
   -5.1351   -4.7176   -0.4132 H   0  0  0  0  0  0  0  0  0  0  0  0
    5.5037   -3.0238   -1.9768 H   0  0  0  0  0  0  0  0  0  0  0  0
    7.1017   -2.3324   -1.7662 H   0  0  0  0  0  0  0  0  0  0  0  0
    7.2745   -4.2774   -0.5553 H   0  0  0  0  0  0  0  0  0  0  0  0
    6.9353   -3.1312    0.7119 H   0  0  0  0  0  0  0  0  0  0  0  0
    4.9488   -5.0451   -0.6102 H   0  0  0  0  0  0  0  0  0  0  0  0
    5.7196   -5.2800    0.9409 H   0  0  0  0  0  0  0  0  0  0  0  0
    4.5299   -3.2010    1.7914 H   0  0  0  0  0  0  0  0  0  0  0  0
    3.6620   -3.1274    0.2658 H   0  0  0  0  0  0  0  0  0  0  0  0
    2.8471   -5.4989    0.6774 H   0  0  0  0  0  0  0  0  0  0  0  0
    3.6391   -5.4652    2.2446 H   0  0  0  0  0  0  0  0  0  0  0  0
   -2.6187   -0.2757    1.1647 H   0  0  0  0  0  0  0  0  0  0  0  0
   -0.0619   -1.5150    0.0572 H   0  0  0  0  0  0  0  0  0  0  0  0
   -0.1540   -0.5631    1.5273 H   0  0  0  0  0  0  0  0  0  0  0  0
   -1.7127   -2.2474    2.5388 H   0  0  0  0  0  0  0  0  0  0  0  0
   -1.6627   -3.1893    1.0538 H   0  0  0  0  0  0  0  0  0  0  0  0
   -2.2115   -1.5828   -1.4594 H   0  0  0  0  0  0  0  0  0  0  0  0
    1.3115    3.5845   -1.4014 H   0  0  0  0  0  0  0  0  0  0  0  0
    3.3906    2.7712    0.5052 H   0  0  0  0  0  0  0  0  0  0  0  0
    2.5711    0.7777   -0.9923 H   0  0  0  0  0  0  0  0  0  0  0  0
    3.4209    1.5867   -2.2915 H   0  0  0  0  0  0  0  0  0  0  0  0
    5.5244    1.5508   -0.8344 H   0  0  0  0  0  0  0  0  0  0  0  0
    4.6200    0.6638    0.3705 H   0  0  0  0  0  0  0  0  0  0  0  0
    4.9303    3.6413   -1.2576 H   0  0  0  0  0  0  0  0  0  0  0  0
    3.5343    4.0344   -2.2564 H   0  0  0  0  0  0  0  0  0  0  0  0
    4.2235    5.8122   -0.9064 H   0  0  0  0  0  0  0  0  0  0  0  0
   -1.7781    1.7644    1.3842 H   0  0  0  0  0  0  0  0  0  0  0  0
   -0.8196    3.2583   -0.9470 H   0  0  0  0  0  0  0  0  0  0  0  0
   -0.7866    3.9491    2.0232 H   0  0  0  0  0  0  0  0  0  0  0  0
   -0.3441    5.0188    0.7086 H   0  0  0  0  0  0  0  0  0  0  0  0
   -3.1181    3.8394    1.1882 H   0  0  0  0  0  0  0  0  0  0  0  0
   -2.4579    5.5242    2.8535 H   0  0  0  0  0  0  0  0  0  0  0  0
   -2.0129    6.6462    1.5817 H   0  0  0  0  0  0  0  0  0  0  0  0
   -4.8114    5.5491    2.1213 H   0  0  0  0  0  0  0  0  0  0  0  0
   -4.2676    7.1847    2.4434 H   0  0  0  0  0  0  0  0  0  0  0  0
   -5.5695    7.0466    0.3087 H   0  0  0  0  0  0  0  0  0  0  0  0
   -3.9256    7.5857    0.0257 H   0  0  0  0  0  0  0  0  0  0  0  0
   -4.9827    4.7504   -0.3773 H   0  0  0  0  0  0  0  0  0  0  0  0
   -4.5289    5.8722   -1.6429 H   0  0  0  0  0  0  0  0  0  0  0  0
   -2.1766    5.8385   -0.9063 H   0  0  0  0  0  0  0  0  0  0  0  0
   -2.7442    4.2094   -1.2317 H   0  0  0  0  0  0  0  0  0  0  0  0
    5.7398   -1.2070    0.2966 H   0  0  0  0  0  0  0  0  0  0  0  0
   -0.9694    0.7183   -1.4575 O   0  0  0  0  0  0  0  0  0  0  0  0
 29 28  2  0
 28  9  1  0
 28 27  1  0
  9 10  1  0
 30 31  1  0
 30 25  1  0
 11 10  1  0
 11 12  1  0
 26 27  1  0
 26 25  1  0
 25 24  1  0
 12 13  1  0
 13 14  1  0
 24 34  1  0
 14 21  1  0
 35 34  2  0
 34 33  1  0
 21 20  2  0
 21 22  1  0
 20 19  1  0
 33 36  1  0
 33 32  1  0
 93  8  2  0
 22 18  1  0
 36 37  1  0
 19 18  2  0
  8 32  1  0
  8 15  1  0
 18 17  1  0
 16 15  1  0
 16 17  1  0
 42 37  1  0
 42 41  1  0
 37 38  1  0
 38 39  1  0
 15 23  1  0
 23  2  1  0
 40 41  1  0
 40 39  1  0
  2  3  1  0
  2  1  2  0
  4  3  1  1
  6  4  1  0
  4  5  1  0
  4  7  1  0
 32 77  1  0
 33 78  1  6
 36 79  1  0
 36 80  1  0
 37 81  1  1
 38 83  1  0
 38 82  1  0
 39 85  1  0
 39 84  1  0
 40 87  1  0
 40 86  1  0
 41 89  1  0
 41 88  1  0
 42 90  1  0
 42 91  1  0
 24 68  1  0
 25 69  1  1
 26 70  1  0
 26 71  1  0
 27 72  1  0
 27 73  1  0
  9 92  1  0
 10 52  1  0
 10 53  1  0
 11 54  1  0
 11 55  1  0
 12 57  1  0
 12 56  1  0
 13 58  1  0
 13 59  1  0
 14 60  1  0
 14 61  1  0
 30 74  1  0
 30 75  1  0
 31 76  1  0
 15 62  1  1
 16 63  1  0
 16 64  1  0
 17 65  1  0
 17 66  1  0
 23 67  1  0
  5 43  1  0
  5 44  1  0
  5 45  1  0
  6 46  1  0
  6 47  1  0
  6 48  1  0
  7 49  1  0
  7 50  1  0
  7 51  1  0
M  END
