
     RDKit          3D

 45 47  0  0  0  0  0  0  0  0999 V2000
   -4.0812    0.0357   -0.5404 C   0  0  0  0  0  0  0  0  0  0  0  0
   -5.2209    0.6753   -0.9846 C   0  0  0  0  0  0  0  0  0  0  0  0
   -5.5731    0.5363   -2.2718 F   0  0  0  0  0  0  0  0  0  0  0  0
   -6.0126    1.4498   -0.1578 C   0  0  0  0  0  0  0  0  0  0  0  0
   -5.6337    1.5828    1.1693 C   0  0  0  0  0  0  0  0  0  0  0  0
   -4.4895    0.9549    1.6437 C   0  0  0  0  0  0  0  0  0  0  0  0
   -3.7096    0.1786    0.7926 C   0  0  0  0  0  0  0  0  0  0  0  0
   -2.4953   -0.5279    1.3426 C   0  0  0  0  0  0  0  0  0  0  0  0
   -1.3740   -0.5796    0.4123 N   0  0  0  0  0  0  0  0  0  0  0  0
   -0.6083    0.5400    0.1848 C   0  0  0  0  0  0  0  0  0  0  0  0
   -0.9815    1.6795    0.7628 N   0  0  0  0  0  0  0  0  0  0  0  0
   -1.0911   -1.7968   -0.1946 C   0  0  0  0  0  0  0  0  0  0  0  0
   -1.7834   -2.7782   -0.0212 O   0  0  0  0  0  0  0  0  0  0  0  0
    0.0050   -1.8093   -0.9964 N   0  0  0  0  0  0  0  0  0  0  0  0
    0.8669   -0.7507   -1.2709 C   0  0  0  0  0  0  0  0  0  0  0  0
    1.7928   -0.9112   -2.0483 O   0  0  0  0  0  0  0  0  0  0  0  0
    0.5315    0.4609   -0.5993 C   0  0  0  0  0  0  0  0  0  0  0  0
    1.2757    1.6376   -0.8303 N   0  0  0  0  0  0  0  0  0  0  0  0
    1.3771    2.1539   -2.1958 C   0  0  0  0  0  0  0  0  0  0  0  0
    2.5660    1.8844    0.1977 S   0  0  1  0  0  0  0  0  0  0  0  0
    3.1968    3.1270   -0.2196 O   0  0  0  0  0  0  0  0  0  0  0  0
    2.0558    1.7613    1.5531 O   0  0  0  0  0  0  0  0  0  0  0  0
    3.6983    0.5551   -0.0743 C   0  0  0  0  0  0  0  0  0  0  0  0
    4.6307    0.6624   -1.0976 C   0  0  0  0  0  0  0  0  0  0  0  0
    5.4803   -0.4040   -1.3438 C   0  0  0  0  0  0  0  0  0  0  0  0
    5.3937   -1.5573   -0.5744 C   0  0  0  0  0  0  0  0  0  0  0  0
    4.4628   -1.6462    0.4518 C   0  0  0  0  0  0  0  0  0  0  0  0
    3.6080   -0.5860    0.7107 C   0  0  0  0  0  0  0  0  0  0  0  0
   -3.5010   -0.5605   -1.2331 H   0  0  0  0  0  0  0  0  0  0  0  0
   -6.8979    1.9382   -0.5424 H   0  0  0  0  0  0  0  0  0  0  0  0
   -6.2314    2.1887    1.8367 H   0  0  0  0  0  0  0  0  0  0  0  0
   -4.2023    1.0723    2.6814 H   0  0  0  0  0  0  0  0  0  0  0  0
   -2.1646   -0.0569    2.2692 H   0  0  0  0  0  0  0  0  0  0  0  0
   -2.7534   -1.5530    1.5975 H   0  0  0  0  0  0  0  0  0  0  0  0
   -1.9036    1.8286    1.1345 H   0  0  0  0  0  0  0  0  0  0  0  0
   -0.4511    2.5074    0.5463 H   0  0  0  0  0  0  0  0  0  0  0  0
    0.1994   -2.6876   -1.4606 H   0  0  0  0  0  0  0  0  0  0  0  0
    1.5754    3.2217   -2.1831 H   0  0  0  0  0  0  0  0  0  0  0  0
    2.1393    1.6484   -2.7895 H   0  0  0  0  0  0  0  0  0  0  0  0
    0.4111    1.9964   -2.6692 H   0  0  0  0  0  0  0  0  0  0  0  0
    4.7034    1.5625   -1.6933 H   0  0  0  0  0  0  0  0  0  0  0  0
    2.8880   -0.6541    1.5144 H   0  0  0  0  0  0  0  0  0  0  0  0
    6.2132   -0.3328   -2.1361 H   0  0  0  0  0  0  0  0  0  0  0  0
    6.0597   -2.3871   -0.7717 H   0  0  0  0  0  0  0  0  0  0  0  0
    4.4033   -2.5411    1.0565 H   0  0  0  0  0  0  0  0  0  0  0  0
  1  2  2  0
  1  7  1  0
  2  3  1  0
  2  4  1  0
  4  5  2  0
  5  6  1  0
  6  7  2  0
  7  8  1  0
  8  9  1  0
  9 10  1  0
  9 12  1  0
 10 11  1  0
 10 17  2  0
 12 13  2  0
 12 14  1  0
 14 15  1  0
 15 16  2  0
 15 17  1  0
 17 18  1  0
 18 19  1  0
 20 18  1  6
 20 21  2  0
 20 22  2  0
 20 23  1  0
 23 24  2  0
 23 28  1  0
 24 25  1  0
 25 26  2  0
 26 27  1  0
 27 28  2  0
  1 29  1  0
  4 30  1  0
  5 31  1  0
  6 32  1  0
  8 33  1  0
  8 34  1  0
 11 35  1  0
 11 36  1  0
 14 37  1  0
 19 38  1  0
 19 39  1  0
 19 40  1  0
 24 41  1  0
 28 42  1  0
 25 43  1  0
 26 44  1  0
 27 45  1  0
M  END
