
     RDKit          3D

 18 18  0  0  0  0  0  0  0  0999 V2000
   -2.4676    0.0809    0.0431 O   0  0  0  0  0  0  0  0  0  0  0  0
   -1.7700   -1.1001    0.3679 C   0  0  0  0  0  0  0  0  0  0  0  0
   -0.4545   -1.1995   -0.3818 C   0  0  0  0  0  0  0  0  0  0  0  0
    0.3368   -0.0048   -0.1467 N   0  0  0  0  0  0  0  0  0  0  0  0
   -0.3788    1.2369   -0.3922 C   0  0  0  0  0  0  0  0  0  0  0  0
   -1.7003    1.2200    0.3567 C   0  0  0  0  0  0  0  0  0  0  0  0
    1.6744   -0.1002   -0.0073 C   0  0  0  0  0  0  0  0  0  0  0  0
    2.2912   -1.1470    0.0676 O   0  0  0  0  0  0  0  0  0  0  0  0
   -1.5786   -1.1491    1.4492 H   0  0  0  0  0  0  0  0  0  0  0  0
   -2.4083   -1.9430    0.1006 H   0  0  0  0  0  0  0  0  0  0  0  0
    0.0874   -2.0784   -0.0415 H   0  0  0  0  0  0  0  0  0  0  0  0
   -0.6427   -1.3162   -1.4553 H   0  0  0  0  0  0  0  0  0  0  0  0
    0.2001    2.0924   -0.0559 H   0  0  0  0  0  0  0  0  0  0  0  0
   -0.5593    1.3559   -1.4667 H   0  0  0  0  0  0  0  0  0  0  0  0
   -2.2854    2.0981    0.0806 H   0  0  0  0  0  0  0  0  0  0  0  0
   -1.5056    1.2678    1.4375 H   0  0  0  0  0  0  0  0  0  0  0  0
    2.2738    1.0925    0.0574 O   0  0  0  0  0  0  0  0  0  0  0  0
    3.2230    0.9532    0.1702 H   0  0  0  0  0  0  0  0  0  0  0  0
  1  2  1  0
  1  6  1  0
  2  3  1  0
  2  9  1  0
  2 10  1  0
  3  4  1  0
  3 11  1  0
  3 12  1  0
  4  5  1  0
  4  7  1  0
  5  6  1  0
  5 13  1  0
  5 14  1  0
  6 15  1  0
  6 16  1  0
  7  8  2  0
  7 17  1  0
 17 18  1  0
M  END
