
     RDKit          3D

 38 39  0  0  0  0  0  0  0  0999 V2000
   -0.7734    0.4052    0.2633 C   0  0  0  0  0  0  0  0  0  0  0  0
   -2.7911    0.3616   -0.8096 C   0  0  0  0  0  0  0  0  0  0  0  0
   -3.2067   -0.7254    0.0163 C   0  0  0  0  0  0  0  0  0  0  0  0
   -2.2430   -1.1696    0.9123 C   0  0  0  0  0  0  0  0  0  0  0  0
    5.8017   -2.1710   -1.1602 C   0  0  0  0  0  0  0  0  0  0  0  0
    4.5592   -1.3285   -1.3944 C   0  0  0  0  0  0  0  0  0  0  0  0
    4.1731   -1.2119    0.9771 O   0  0  0  0  0  0  0  0  0  0  0  0
    3.3299    0.4384   -0.3003 N   0  0  0  0  0  0  0  0  0  0  0  0
    2.7226    1.1720    0.7925 C   0  0  2  0  0  0  0  0  0  0  0  0
    1.4537    0.4948    1.3108 C   0  0  0  0  0  0  0  0  0  0  0  0
    2.1857    2.5044    0.2791 C   0  0  0  0  0  0  0  0  0  0  0  0
    0.8529    2.1359   -0.3672 C   0  0  0  0  0  0  0  0  0  0  0  0
    0.4262    0.9807    0.4051 N   0  0  0  0  0  0  0  0  0  0  0  0
   -1.5870    0.9108   -0.6602 N   0  0  0  0  0  0  0  0  0  0  0  0
   -3.5776    0.8944   -1.7459 N   0  0  0  0  0  0  0  0  0  0  0  0
   -1.0453   -0.6428    1.0635 N   0  0  0  0  0  0  0  0  0  0  0  0
   -4.5338   -1.3522   -0.1090 C   0  0  0  0  0  0  0  0  0  0  0  0
   -5.2563   -1.1625   -1.0895 O   0  0  0  0  0  0  0  0  0  0  0  0
   -4.9252   -2.1630    0.8920 N   0  0  0  0  0  0  0  0  0  0  0  0
   -2.4444   -2.0286    1.5455 H   0  0  0  0  0  0  0  0  0  0  0  0
    5.6081   -2.9788   -0.4567 H   0  0  0  0  0  0  0  0  0  0  0  0
    6.1352   -2.6172   -2.0963 H   0  0  0  0  0  0  0  0  0  0  0  0
    6.6234   -1.5723   -0.7666 H   0  0  0  0  0  0  0  0  0  0  0  0
    4.7562   -0.5537   -2.1383 H   0  0  0  0  0  0  0  0  0  0  0  0
    3.7634   -1.9503   -1.8168 H   0  0  0  0  0  0  0  0  0  0  0  0
    3.2817    0.8303   -1.2278 H   0  0  0  0  0  0  0  0  0  0  0  0
    3.4513    1.3002    1.5942 H   0  0  0  0  0  0  0  0  0  0  0  0
    1.5187   -0.5910    1.2986 H   0  0  0  0  0  0  0  0  0  0  0  0
    1.2561    0.8053    2.3417 H   0  0  0  0  0  0  0  0  0  0  0  0
    2.0257    3.1719    1.1264 H   0  0  0  0  0  0  0  0  0  0  0  0
    2.8645    3.0052   -0.4112 H   0  0  0  0  0  0  0  0  0  0  0  0
    0.1254    2.9454   -0.3106 H   0  0  0  0  0  0  0  0  0  0  0  0
    0.9693    1.8780   -1.4243 H   0  0  0  0  0  0  0  0  0  0  0  0
   -4.4433    0.4408   -1.9868 H   0  0  0  0  0  0  0  0  0  0  0  0
   -3.2069    1.6174   -2.3383 H   0  0  0  0  0  0  0  0  0  0  0  0
   -4.4673   -2.1868    1.7858 H   0  0  0  0  0  0  0  0  0  0  0  0
   -5.8398   -2.5815    0.8455 H   0  0  0  0  0  0  0  0  0  0  0  0
    4.0175   -0.7043   -0.1253 C   0  0  0  0  0  0  0  0  0  0  0  0
 12 11  1  0
 12 13  1  0
 11  9  1  0
 16  4  2  0
 16  1  1  0
  4  3  1  0
 19 17  1  0
 13  1  1  0
 13 10  1  0
  8  9  1  0
  8 38  1  0
  1 14  2  0
  9 10  1  0
  3 17  1  0
  3  2  2  0
  6 38  1  0
  6  5  1  0
 17 18  2  0
 38  7  2  0
 14  2  1  0
  2 15  1  0
  4 20  1  0
  5 21  1  0
  5 22  1  0
  5 23  1  0
  6 24  1  0
  6 25  1  0
  8 26  1  0
  9 27  1  1
 10 28  1  0
 10 29  1  0
 11 30  1  0
 11 31  1  0
 12 32  1  0
 12 33  1  0
 15 34  1  0
 15 35  1  0
 19 36  1  0
 19 37  1  0
M  END
