
     RDKit          3D

 62 66  0  0  0  0  0  0  0  0999 V2000
   -2.5207   -0.0814    0.8825 C   0  0  1  0  0  0  0  0  0  0  0  0
   -1.0337   -0.3150    0.7588 C   0  0  0  0  0  0  0  0  0  0  0  0
   -3.7122   -4.4488   -0.4032 C   0  0  0  0  0  0  0  0  0  0  0  0
   -3.4375   -2.1624    0.2666 C   0  0  0  0  0  0  0  0  0  0  0  0
   -3.7412   -1.7208   -1.0178 C   0  0  0  0  0  0  0  0  0  0  0  0
   -4.0393   -2.6687   -1.9977 C   0  0  0  0  0  0  0  0  0  0  0  0
   -4.0224   -4.0194   -1.6869 C   0  0  0  0  0  0  0  0  0  0  0  0
   -3.4132   -3.5191    0.5850 C   0  0  0  0  0  0  0  0  0  0  0  0
   -3.1281    0.5167   -0.3608 C   0  0  0  0  0  0  0  0  0  0  0  0
   -3.7268   -0.2742   -1.2666 C   0  0  0  0  0  0  0  0  0  0  0  0
   -3.1959   -1.2820    1.2670 O   0  0  0  0  0  0  0  0  0  0  0  0
   -3.1135   -3.9448    1.8289 O   0  0  0  0  0  0  0  0  0  0  0  0
   -0.4358   -0.6929   -0.4428 C   0  0  0  0  0  0  0  0  0  0  0  0
    0.9182   -0.9571   -0.5137 C   0  0  0  0  0  0  0  0  0  0  0  0
    1.7203   -0.8437    0.6246 C   0  0  0  0  0  0  0  0  0  0  0  0
    1.1385   -0.4584    1.8311 C   0  0  0  0  0  0  0  0  0  0  0  0
   -0.2256   -0.2020    1.8822 C   0  0  0  0  0  0  0  0  0  0  0  0
    3.0251   -1.1167    0.4612 O   0  0  0  0  0  0  0  0  0  0  0  0
    3.9009   -0.9865    1.5670 C   0  0  0  0  0  0  0  0  0  0  0  0
    5.2994   -1.3301    1.1097 C   0  0  0  0  0  0  0  0  0  0  0  0
    5.7753   -0.4254    0.0986 N   0  0  0  0  0  0  0  0  0  0  0  0
    7.1434   -0.6016   -0.3900 C   0  0  0  0  0  0  0  0  0  0  0  0
    7.2825    0.9281   -0.4590 C   0  0  1  0  0  0  0  0  0  0  0  0
    6.0652    0.9599    0.4792 C   0  0  0  0  0  0  0  0  0  0  0  0
    8.5763    1.5120    0.0261 C   0  0  0  0  0  0  0  0  0  0  0  0
    8.4683    2.9021    0.0973 F   0  0  0  0  0  0  0  0  0  0  0  0
   -2.9325    1.9724   -0.5180 C   0  0  0  0  0  0  0  0  0  0  0  0
   -2.2288    2.4802   -1.6109 C   0  0  0  0  0  0  0  0  0  0  0  0
   -2.0308    3.8473   -1.7278 C   0  0  0  0  0  0  0  0  0  0  0  0
   -2.5194    4.7232   -0.7699 C   0  0  0  0  0  0  0  0  0  0  0  0
   -3.2166    4.2210    0.3260 C   0  0  0  0  0  0  0  0  0  0  0  0
   -3.4146    2.8486    0.4509 C   0  0  0  0  0  0  0  0  0  0  0  0
   -3.7211    5.0138    1.2923 O   0  0  0  0  0  0  0  0  0  0  0  0
   -2.6917    0.5942    1.7237 H   0  0  0  0  0  0  0  0  0  0  0  0
   -3.6923   -5.5046   -0.1629 H   0  0  0  0  0  0  0  0  0  0  0  0
   -4.2809   -2.3525   -3.0034 H   0  0  0  0  0  0  0  0  0  0  0  0
   -4.2498   -4.7511   -2.4508 H   0  0  0  0  0  0  0  0  0  0  0  0
   -5.3789   -0.1975   -2.6259 H   0  0  0  0  0  0  0  0  0  0  0  0
   -4.4724    1.3111   -2.5232 H   0  0  0  0  0  0  0  0  0  0  0  0
   -3.8156   -0.0611   -3.4070 H   0  0  0  0  0  0  0  0  0  0  0  0
   -2.8792   -3.1921    2.3858 H   0  0  0  0  0  0  0  0  0  0  0  0
   -1.0317   -0.7733   -1.3435 H   0  0  0  0  0  0  0  0  0  0  0  0
    1.3688   -1.2483   -1.4543 H   0  0  0  0  0  0  0  0  0  0  0  0
    1.7256   -0.3518    2.7332 H   0  0  0  0  0  0  0  0  0  0  0  0
   -0.6598    0.0982    2.8289 H   0  0  0  0  0  0  0  0  0  0  0  0
    3.8672    0.0349    1.9655 H   0  0  0  0  0  0  0  0  0  0  0  0
    3.6099   -1.6637    2.3774 H   0  0  0  0  0  0  0  0  0  0  0  0
    5.9435   -1.3331    2.0058 H   0  0  0  0  0  0  0  0  0  0  0  0
    5.3147   -2.3485    0.7111 H   0  0  0  0  0  0  0  0  0  0  0  0
    7.8181   -1.0386    0.3611 H   0  0  0  0  0  0  0  0  0  0  0  0
    7.2440   -1.1714   -1.3161 H   0  0  0  0  0  0  0  0  0  0  0  0
    7.0391    1.3086   -1.4529 H   0  0  0  0  0  0  0  0  0  0  0  0
    5.2730    1.6819    0.2704 H   0  0  0  0  0  0  0  0  0  0  0  0
    6.3660    1.0688    1.5325 H   0  0  0  0  0  0  0  0  0  0  0  0
    8.8251    1.1431    1.0234 H   0  0  0  0  0  0  0  0  0  0  0  0
    9.3976    1.2691   -0.6515 H   0  0  0  0  0  0  0  0  0  0  0  0
   -1.8265    1.8087   -2.3581 H   0  0  0  0  0  0  0  0  0  0  0  0
   -1.4828    4.2411   -2.5739 H   0  0  0  0  0  0  0  0  0  0  0  0
   -2.3546    5.7895   -0.8743 H   0  0  0  0  0  0  0  0  0  0  0  0
   -3.9672    2.4729    1.3046 H   0  0  0  0  0  0  0  0  0  0  0  0
   -3.5328    5.9393    1.1010 H   0  0  0  0  0  0  0  0  0  0  0  0
   -4.3795    0.2281   -2.5174 C   0  0  0  0  0  0  0  0  0  0  0  0
 24 23  1  0
 24 21  1  0
 25 23  1  0
 25 26  1  0
 23 22  1  0
 21 20  1  0
 21 22  1  0
 20 19  1  0
 18 19  1  0
 18 15  1  0
  7  3  2  0
  7  6  1  0
 14 15  1  0
 14 13  2  0
  3  8  1  0
  6  5  2  0
 15 16  2  0
 13  2  1  0
  8 12  1  0
  8  4  2  0
  5  4  1  0
  5 10  1  0
 62 10  1  0
  4 11  1  0
 10  9  2  0
 16 17  1  0
  2 17  2  0
  2  1  1  0
 28 29  2  0
 28 27  1  0
  9  1  1  0
  9 27  1  0
 11  1  1  0
 29 30  1  0
 27 32  2  0
 30 31  2  0
 32 31  1  0
 31 33  1  0
  1 34  1  1
  3 35  1  0
  6 36  1  0
  7 37  1  0
 62 38  1  0
 62 39  1  0
 62 40  1  0
 12 41  1  0
 13 42  1  0
 14 43  1  0
 16 44  1  0
 17 45  1  0
 19 46  1  0
 19 47  1  0
 20 48  1  0
 20 49  1  0
 22 50  1  0
 22 51  1  0
 23 52  1  6
 24 53  1  0
 24 54  1  0
 25 55  1  0
 25 56  1  0
 28 57  1  0
 29 58  1  0
 30 59  1  0
 32 60  1  0
 33 61  1  0
M  END
