
     RDKit          3D

 84 88  0  0  0  0  0  0  0  0999 V2000
   -0.3745    2.2744   -1.1196 C   0  0  0  0  0  0  0  0  0  0  0  0
   -0.7177    1.0839   -0.2282 C   0  0  1  0  0  0  0  0  0  0  0  0
   -2.2240    1.0736    0.0250 C   0  0  0  0  0  0  0  0  0  0  0  0
   -0.2657   -0.1332   -0.7585 O   0  0  0  0  0  0  0  0  0  0  0  0
   -2.6245    0.0133    0.9391 N   0  0  0  0  0  0  0  0  0  0  0  0
   -2.4636    0.2779    2.3640 C   0  0  0  0  0  0  0  0  0  0  0  0
   -3.4732    1.2545    2.9345 C   0  0  0  0  0  0  0  0  0  0  0  0
   -3.0205   -1.8743   -0.9158 C   0  0  0  0  0  0  0  0  0  0  0  0
   -1.9818   -2.7641   -0.5692 C   0  0  0  0  0  0  0  0  0  0  0  0
   -1.3778   -3.4906   -1.5889 C   0  0  0  0  0  0  0  0  0  0  0  0
   -1.7592   -3.3358   -2.9092 C   0  0  0  0  0  0  0  0  0  0  0  0
   -2.7617   -2.4429   -3.2294 C   0  0  0  0  0  0  0  0  0  0  0  0
   -3.4223   -1.6953   -2.2526 C   0  0  0  0  0  0  0  0  0  0  0  0
   -4.5008   -0.7711   -2.7569 C   0  0  0  0  0  0  0  0  0  0  0  0
   -1.4519   -2.9756    0.8205 C   0  0  0  0  0  0  0  0  0  0  0  0
    3.2265    3.1341   -0.3835 C   0  0  2  0  0  0  0  0  0  0  0  0
    3.5114    3.9451   -1.6433 C   0  0  0  0  0  0  0  0  0  0  0  0
    2.7671    3.3706   -2.8408 C   0  0  0  0  0  0  0  0  0  0  0  0
    1.2833    3.2554   -2.5365 C   0  0  0  0  0  0  0  0  0  0  0  0
    1.0458    2.4537   -1.3464 N   0  0  0  0  0  0  0  0  0  0  0  0
    1.7111    3.0283   -0.1919 C   0  0  0  0  0  0  0  0  0  0  0  0
    3.8751    3.7410    0.8788 C   0  0  0  0  0  0  0  0  0  0  0  0
    4.5905    2.5904    1.5968 C   0  0  0  0  0  0  0  0  0  0  0  0
    4.0740    1.3926    0.9471 N   0  0  0  0  0  0  0  0  0  0  0  0
    3.8454    1.7369   -0.4532 C   0  0  0  0  0  0  0  0  0  0  0  0
    4.4820    0.1731    1.3718 C   0  0  0  0  0  0  0  0  0  0  0  0
    3.8804   -1.0513    0.9088 C   0  0  0  0  0  0  0  0  0  0  0  0
    4.5244   -2.2419    1.3138 C   0  0  0  0  0  0  0  0  0  0  0  0
    5.5838   -2.2335    2.1680 N   0  0  0  0  0  0  0  0  0  0  0  0
    5.9269   -1.0665    2.6297 C   0  0  0  0  0  0  0  0  0  0  0  0
    5.4403    0.1318    2.2792 N   0  0  0  0  0  0  0  0  0  0  0  0
    2.6769   -1.1362    0.1837 C   0  0  0  0  0  0  0  0  0  0  0  0
    2.1855   -2.3556   -0.2071 C   0  0  0  0  0  0  0  0  0  0  0  0
    2.8795   -3.5345    0.1128 C   0  0  0  0  0  0  0  0  0  0  0  0
    4.0231   -3.4817    0.8671 C   0  0  0  0  0  0  0  0  0  0  0  0
   -4.7427    0.6665    2.8919 O   0  0  0  0  0  0  0  0  0  0  0  0
   -7.1089    0.8229    2.7727 C   0  0  0  0  0  0  0  0  0  0  0  0
   -5.8105    1.5837    2.9154 C   0  0  0  0  0  0  0  0  0  0  0  0
   -3.8276   -0.9963    0.4271 S   0  0  1  0  0  0  0  0  0  0  0  0
   -4.1046   -1.9449    1.4938 O   0  0  0  0  0  0  0  0  0  0  0  0
   -4.9547   -0.2487   -0.1098 O   0  0  0  0  0  0  0  0  0  0  0  0
   -0.8549    2.1161   -2.0922 H   0  0  0  0  0  0  0  0  0  0  0  0
   -0.8379    3.1835   -0.6998 H   0  0  0  0  0  0  0  0  0  0  0  0
   -0.2084    1.1868    0.7354 H   0  0  0  0  0  0  0  0  0  0  0  0
   -2.5374    2.0471    0.4143 H   0  0  0  0  0  0  0  0  0  0  0  0
   -2.7452    0.9659   -0.9302 H   0  0  0  0  0  0  0  0  0  0  0  0
   -0.6686   -0.2732   -1.6223 H   0  0  0  0  0  0  0  0  0  0  0  0
   -2.4883   -0.6608    2.9168 H   0  0  0  0  0  0  0  0  0  0  0  0
   -1.4598    0.6838    2.5044 H   0  0  0  0  0  0  0  0  0  0  0  0
   -3.1774    1.5106    3.9615 H   0  0  0  0  0  0  0  0  0  0  0  0
   -3.4537    2.1918    2.3610 H   0  0  0  0  0  0  0  0  0  0  0  0
   -0.5880   -4.1885   -1.3398 H   0  0  0  0  0  0  0  0  0  0  0  0
   -1.2716   -3.9087   -3.6869 H   0  0  0  0  0  0  0  0  0  0  0  0
   -3.0533   -2.3174   -4.2641 H   0  0  0  0  0  0  0  0  0  0  0  0
   -5.4869   -1.0487   -2.3920 H   0  0  0  0  0  0  0  0  0  0  0  0
   -4.3339    0.2686   -2.4820 H   0  0  0  0  0  0  0  0  0  0  0  0
   -4.5250   -0.8197   -3.8439 H   0  0  0  0  0  0  0  0  0  0  0  0
   -2.1898   -3.4220    1.4821 H   0  0  0  0  0  0  0  0  0  0  0  0
   -0.5919   -3.6416    0.7848 H   0  0  0  0  0  0  0  0  0  0  0  0
   -1.1222   -2.0389    1.2655 H   0  0  0  0  0  0  0  0  0  0  0  0
    3.1870    4.9785   -1.4792 H   0  0  0  0  0  0  0  0  0  0  0  0
    4.5884    3.9806   -1.8303 H   0  0  0  0  0  0  0  0  0  0  0  0
    2.9049    4.0084   -3.7165 H   0  0  0  0  0  0  0  0  0  0  0  0
    3.1664    2.3856   -3.0999 H   0  0  0  0  0  0  0  0  0  0  0  0
    0.8620    4.2712   -2.4249 H   0  0  0  0  0  0  0  0  0  0  0  0
    0.7652    2.7901   -3.3780 H   0  0  0  0  0  0  0  0  0  0  0  0
    1.5048    2.4129    0.6877 H   0  0  0  0  0  0  0  0  0  0  0  0
    1.3185    4.0381    0.0319 H   0  0  0  0  0  0  0  0  0  0  0  0
    4.5867    4.5260    0.6201 H   0  0  0  0  0  0  0  0  0  0  0  0
    3.1214    4.2027    1.5198 H   0  0  0  0  0  0  0  0  0  0  0  0
    5.6756    2.6655    1.4725 H   0  0  0  0  0  0  0  0  0  0  0  0
    4.3884    2.5595    2.6664 H   0  0  0  0  0  0  0  0  0  0  0  0
    3.2109    1.0303   -0.9759 H   0  0  0  0  0  0  0  0  0  0  0  0
    4.8072    1.7731   -0.9837 H   0  0  0  0  0  0  0  0  0  0  0  0
    6.7224   -1.0443    3.3681 H   0  0  0  0  0  0  0  0  0  0  0  0
    2.0992   -0.2526   -0.0423 H   0  0  0  0  0  0  0  0  0  0  0  0
    1.2487   -2.4025   -0.7451 H   0  0  0  0  0  0  0  0  0  0  0  0
    2.4912   -4.4918   -0.2109 H   0  0  0  0  0  0  0  0  0  0  0  0
    4.5435   -4.3846    1.1596 H   0  0  0  0  0  0  0  0  0  0  0  0
   -7.9503    1.5155    2.7739 H   0  0  0  0  0  0  0  0  0  0  0  0
   -7.1269    0.2653    1.8365 H   0  0  0  0  0  0  0  0  0  0  0  0
   -7.2524    0.1209    3.5952 H   0  0  0  0  0  0  0  0  0  0  0  0
   -5.8086    2.1617    3.8501 H   0  0  0  0  0  0  0  0  0  0  0  0
   -5.7068    2.3072    2.0955 H   0  0  0  0  0  0  0  0  0  0  0  0
  2  1  1  0
 20  1  1  0
  1 42  1  0
  1 43  1  0
  4  2  1  0
  2  3  1  0
  2 44  1  1
  5  3  1  0
  3 45  1  0
  3 46  1  0
  4 47  1  0
  6  5  1  0
 39  5  1  1
  6  7  1  0
  6 48  1  0
  6 49  1  0
 36  7  1  0
  7 50  1  0
  7 51  1  0
 13  8  1  0
  8  9  2  0
  8 39  1  0
 10  9  1  0
  9 15  1  0
 11 10  2  0
 10 52  1  0
 12 11  1  0
 11 53  1  0
 12 13  2  0
 12 54  1  0
 14 13  1  0
 14 55  1  0
 14 56  1  0
 14 57  1  0
 15 58  1  0
 15 59  1  0
 15 60  1  0
 16 25  1  6
 22 16  1  0
 16 21  1  0
 16 17  1  0
 17 18  1  0
 17 61  1  0
 17 62  1  0
 18 19  1  0
 18 63  1  0
 18 64  1  0
 20 19  1  0
 19 65  1  0
 19 66  1  0
 21 20  1  0
 21 67  1  0
 21 68  1  0
 23 22  1  0
 22 69  1  0
 22 70  1  0
 24 23  1  0
 23 71  1  0
 23 72  1  0
 26 24  1  0
 24 25  1  0
 25 73  1  0
 25 74  1  0
 31 26  1  0
 27 26  2  0
 28 27  1  0
 27 32  1  0
 29 28  2  0
 35 28  1  0
 29 30  1  0
 30 31  2  0
 30 75  1  0
 33 32  2  0
 32 76  1  0
 34 33  1  0
 33 77  1  0
 35 34  2  0
 34 78  1  0
 35 79  1  0
 36 38  1  0
 37 38  1  0
 37 80  1  0
 37 81  1  0
 37 82  1  0
 38 83  1  0
 38 84  1  0
 41 39  2  0
 39 40  2  0
M  END
