
     RDKit          3D

 29 30  0  0  0  0  0  0  0  0999 V2000
   -0.3647   -0.4425    0.5439 N   0  0  0  0  0  0  0  0  0  0  0  0
   -1.7367    1.5097   -0.0895 C   0  0  0  0  0  0  0  0  0  0  0  0
   -3.0092    2.0217   -0.2986 C   0  0  0  0  0  0  0  0  0  0  0  0
   -4.1471    1.2468   -0.1365 C   0  0  0  0  0  0  0  0  0  0  0  0
   -3.9806   -0.0742    0.2476 C   0  0  0  0  0  0  0  0  0  0  0  0
   -2.7284   -0.6175    0.4613 C   0  0  0  0  0  0  0  0  0  0  0  0
    4.1427    0.2148    1.1140 C   0  0  0  0  0  0  0  0  0  0  0  0
    5.0836   -0.4769   -1.3993 C   0  0  0  0  0  0  0  0  0  0  0  0
    0.8982    0.0043    0.2878 C   0  0  0  0  0  0  0  0  0  0  0  0
   -1.5895    0.1754    0.2938 C   0  0  0  0  0  0  0  0  0  0  0  0
    1.1489    1.0835   -0.2074 O   0  0  0  0  0  0  0  0  0  0  0  0
    3.3417   -0.5518    0.2736 C   0  0  0  0  0  0  0  0  0  0  0  0
    5.4022    0.6332    0.7052 C   0  0  0  0  0  0  0  0  0  0  0  0
    5.8759    0.2893   -0.5540 C   0  0  0  0  0  0  0  0  0  0  0  0
    3.8254   -0.8934   -0.9859 C   0  0  0  0  0  0  0  0  0  0  0  0
   -0.4296   -1.3757    0.9231 H   0  0  0  0  0  0  0  0  0  0  0  0
   -0.8793    2.1478   -0.2204 H   0  0  0  0  0  0  0  0  0  0  0  0
   -3.1145    3.0575   -0.5932 H   0  0  0  0  0  0  0  0  0  0  0  0
   -5.1318    1.6598   -0.3030 H   0  0  0  0  0  0  0  0  0  0  0  0
   -2.6287   -1.6554    0.7546 H   0  0  0  0  0  0  0  0  0  0  0  0
    5.4453   -0.7529   -2.3814 H   0  0  0  0  0  0  0  0  0  0  0  0
    6.0134    1.2284    1.3714 H   0  0  0  0  0  0  0  0  0  0  0  0
    6.8580    0.6139   -0.8723 H   0  0  0  0  0  0  0  0  0  0  0  0
    3.2151   -1.4949   -1.6495 H   0  0  0  0  0  0  0  0  0  0  0  0
   -5.3760   -1.0802    0.4638 Cl  0  0  0  0  0  0  0  0  0  0  0  0
    1.9735   -0.9855    0.7046 C   0  0  0  0  0  0  0  0  0  0  0  0
    3.7824    0.4853    2.0996 H   0  0  0  0  0  0  0  0  0  0  0  0
    1.9263   -1.0920    1.7924 H   0  0  0  0  0  0  0  0  0  0  0  0
    1.7322   -1.9698    0.2946 H   0  0  0  0  0  0  0  0  0  0  0  0
 25  5  1  0
  5  6  2  0
  5  4  1  0
  6 10  1  0
  4  3  2  0
 11  9  2  0
 15  8  2  0
 15 12  1  0
  8 14  1  0
 10  1  1  0
 10  2  2  0
  9  1  1  0
  9 26  1  0
  3  2  1  0
 12 26  1  0
 12  7  2  0
 14 13  2  0
  7 13  1  0
  1 16  1  0
  2 17  1  0
  3 18  1  0
  4 19  1  0
  6 20  1  0
  7 27  1  0
  8 21  1  0
 26 28  1  0
 26 29  1  0
 13 22  1  0
 14 23  1  0
 15 24  1  0
M  END
