
     RDKit          3D

106112  0  0  0  0  0  0  0  0999 V2000
   -5.8985    5.1458   -0.5304 O   0  0  0  0  0  0  0  0  0  0  0  0
   -6.7937    4.3513    0.0542 C   0  0  0  0  0  0  0  0  0  0  0  0
   -7.9412    4.8970    0.6393 C   0  0  0  0  0  0  0  0  0  0  0  0
   -8.8738    4.0891    1.2514 C   0  0  0  0  0  0  0  0  0  0  0  0
   -6.5902    2.9584    0.0920 C   0  0  0  0  0  0  0  0  0  0  0  0
   -7.5577    2.1566    0.7298 C   0  0  0  0  0  0  0  0  0  0  0  0
   -8.6878    2.7138    1.3012 C   0  0  0  0  0  0  0  0  0  0  0  0
   -5.4048    2.3358   -0.5178 C   0  0  0  0  0  0  0  0  0  0  0  0
   -4.5655    3.0055   -1.1197 O   0  0  0  0  0  0  0  0  0  0  0  0
   -5.2257    0.8852   -0.3998 C   0  0  0  0  0  0  0  0  0  0  0  0
   -6.1770    0.0796    0.2415 C   0  0  0  0  0  0  0  0  0  0  0  0
   -7.3977    0.6822    0.8165 C   0  0  0  0  0  0  0  0  0  0  0  0
   -8.2451   -0.0051    1.3487 O   0  0  0  0  0  0  0  0  0  0  0  0
   -4.0738    0.2795   -0.9360 C   0  0  0  0  0  0  0  0  0  0  0  0
   -3.1444    0.9787   -1.5683 O   0  0  0  0  0  0  0  0  0  0  0  0
   -3.8826   -1.1125   -0.8273 C   0  0  0  0  0  0  0  0  0  0  0  0
   -4.8453   -1.8818   -0.1978 C   0  0  0  0  0  0  0  0  0  0  0  0
   -5.9886   -1.2822    0.3359 C   0  0  0  0  0  0  0  0  0  0  0  0
   -4.7545   -3.3932   -0.1410 C   0  0  1  0  0  0  0  0  0  0  0  0
   -5.4668   -3.9548   -1.2208 O   0  0  0  0  0  0  0  0  0  0  0  0
   -3.3005   -3.8730   -0.2100 C   0  0  1  0  0  0  0  0  0  0  0  0
   -2.6316   -3.3950    0.9404 O   0  0  0  0  0  0  0  0  0  0  0  0
   -3.1931   -5.3988   -0.3138 C   0  0  0  0  0  0  0  0  0  0  0  0
   -3.9029   -6.1788    0.7864 C   0  0  0  0  0  0  0  0  0  0  0  0
   -2.6461   -3.2255   -1.4207 C   0  0  0  0  0  0  0  0  0  0  0  0
   -2.6032   -1.7022   -1.3677 C   0  0  2  0  0  0  0  0  0  0  0  0
   -1.5583   -1.1899   -0.5591 O   0  0  0  0  0  0  0  0  0  0  0  0
   -0.3793   -0.8502   -1.2250 C   0  0  1  0  0  0  0  0  0  0  0  0
    0.4358    0.0483   -0.3071 C   0  0  0  0  0  0  0  0  0  0  0  0
    1.0300   -0.7297    0.8671 C   0  0  2  0  0  0  0  0  0  0  0  0
    1.8534    0.0948    1.7418 N   0  0  0  0  0  0  0  0  0  0  0  0
    1.2287    1.3544    2.0969 C   0  0  0  0  0  0  0  0  0  0  0  0
    2.2236   -0.6228    2.9456 C   0  0  0  0  0  0  0  0  0  0  0  0
    0.3390   -1.9810   -1.6327 O   0  0  0  0  0  0  0  0  0  0  0  0
    0.8670   -2.7621   -0.5699 C   0  0  1  0  0  0  0  0  0  0  0  0
    1.5194   -3.9775   -1.1950 C   0  0  0  0  0  0  0  0  0  0  0  0
    1.8086   -1.9239    0.2944 C   0  0  1  0  0  0  0  0  0  0  0  0
    2.8875   -1.4505   -0.4860 O   0  0  0  0  0  0  0  0  0  0  0  0
    4.1223   -2.0792   -0.3343 C   0  0  1  0  0  0  0  0  0  0  0  0
    4.9464   -1.7722   -1.5728 C   0  0  0  0  0  0  0  0  0  0  0  0
    5.3265   -0.2971   -1.6186 C   0  0  2  0  0  0  0  0  0  0  0  0
    6.1889   -0.0090   -2.6962 O   0  0  0  0  0  0  0  0  0  0  0  0
    4.7980   -1.6769    0.8249 O   0  0  0  0  0  0  0  0  0  0  0  0
    5.1708   -0.3044    0.8862 C   0  0  1  0  0  0  0  0  0  0  0  0
    5.8953   -0.1075    2.2017 C   0  0  0  0  0  0  0  0  0  0  0  0
    6.0385    0.0658   -0.3240 C   0  0  2  0  0  0  0  0  0  0  0  0
    6.2766    1.4629   -0.2775 O   0  0  0  0  0  0  0  0  0  0  0  0
    7.5648    1.8795   -0.5383 C   0  0  2  0  0  0  0  0  0  0  0  0
    8.3218    1.7038    0.6423 O   0  0  0  0  0  0  0  0  0  0  0  0
    9.7018    1.9612    0.4745 C   0  0  2  0  0  0  0  0  0  0  0  0
   10.4221    1.6056    1.7547 C   0  0  0  0  0  0  0  0  0  0  0  0
    7.5509    3.3466   -0.9164 C   0  0  0  0  0  0  0  0  0  0  0  0
    8.9837    3.8542   -1.0768 C   0  0  0  0  0  0  0  0  0  0  0  0
    9.8913    3.4113    0.0417 C   0  0  0  0  0  0  0  0  0  0  0  0
   10.7380    4.1252    0.5253 O   0  0  0  0  0  0  0  0  0  0  0  0
   -6.1857    6.0653   -0.4701 H   0  0  0  0  0  0  0  0  0  0  0  0
   -8.0944    5.9698    0.6066 H   0  0  0  0  0  0  0  0  0  0  0  0
   -9.7539    4.5332    1.6960 H   0  0  0  0  0  0  0  0  0  0  0  0
   -9.4204    2.0844    1.7852 H   0  0  0  0  0  0  0  0  0  0  0  0
   -3.4414    1.9220   -1.5733 H   0  0  0  0  0  0  0  0  0  0  0  0
   -6.7269   -1.8930    0.8404 H   0  0  0  0  0  0  0  0  0  0  0  0
   -5.1913   -3.7180    0.8147 H   0  0  0  0  0  0  0  0  0  0  0  0
   -6.4067   -3.7929   -1.0911 H   0  0  0  0  0  0  0  0  0  0  0  0
   -3.0237   -3.8079    1.7175 H   0  0  0  0  0  0  0  0  0  0  0  0
   -2.1269   -5.6464   -0.3022 H   0  0  0  0  0  0  0  0  0  0  0  0
   -3.5674   -5.7270   -1.2849 H   0  0  0  0  0  0  0  0  0  0  0  0
   -3.5740   -5.8908    1.7872 H   0  0  0  0  0  0  0  0  0  0  0  0
   -4.9856   -6.0588    0.7431 H   0  0  0  0  0  0  0  0  0  0  0  0
   -3.6937   -7.2439    0.6866 H   0  0  0  0  0  0  0  0  0  0  0  0
   -1.6367   -3.6108   -1.5672 H   0  0  0  0  0  0  0  0  0  0  0  0
   -3.2086   -3.5195   -2.3102 H   0  0  0  0  0  0  0  0  0  0  0  0
   -2.4668   -1.3474   -2.3988 H   0  0  0  0  0  0  0  0  0  0  0  0
   -0.6154   -0.3157   -2.1538 H   0  0  0  0  0  0  0  0  0  0  0  0
    1.2385    0.5080   -0.8882 H   0  0  0  0  0  0  0  0  0  0  0  0
   -0.2187    0.8528    0.0269 H   0  0  0  0  0  0  0  0  0  0  0  0
    0.1919   -1.1587    1.4472 H   0  0  0  0  0  0  0  0  0  0  0  0
    0.2352    1.2409    2.5599 H   0  0  0  0  0  0  0  0  0  0  0  0
    1.8655    1.8776    2.8102 H   0  0  0  0  0  0  0  0  0  0  0  0
    1.1226    2.0056    1.2306 H   0  0  0  0  0  0  0  0  0  0  0  0
    2.8594   -1.4766    2.7206 H   0  0  0  0  0  0  0  0  0  0  0  0
    2.7985    0.0338    3.5989 H   0  0  0  0  0  0  0  0  0  0  0  0
    1.3517   -0.9852    3.5148 H   0  0  0  0  0  0  0  0  0  0  0  0
    0.0534   -3.1104    0.0799 H   0  0  0  0  0  0  0  0  0  0  0  0
    1.9614   -4.6111   -0.4259 H   0  0  0  0  0  0  0  0  0  0  0  0
    0.7781   -4.5776   -1.7250 H   0  0  0  0  0  0  0  0  0  0  0  0
    2.2983   -3.7066   -1.9090 H   0  0  0  0  0  0  0  0  0  0  0  0
    2.1621   -2.5639    1.1118 H   0  0  0  0  0  0  0  0  0  0  0  0
    3.9988   -3.1619   -0.2150 H   0  0  0  0  0  0  0  0  0  0  0  0
    5.8549   -2.3805   -1.5467 H   0  0  0  0  0  0  0  0  0  0  0  0
    4.3914   -2.0600   -2.4696 H   0  0  0  0  0  0  0  0  0  0  0  0
    4.4137    0.3106   -1.6828 H   0  0  0  0  0  0  0  0  0  0  0  0
    5.6821   -0.0677   -3.5122 H   0  0  0  0  0  0  0  0  0  0  0  0
    4.2665    0.3156    0.8767 H   0  0  0  0  0  0  0  0  0  0  0  0
    6.1738    0.9345    2.3394 H   0  0  0  0  0  0  0  0  0  0  0  0
    5.2497   -0.3904    3.0332 H   0  0  0  0  0  0  0  0  0  0  0  0
    6.8036   -0.7107    2.2498 H   0  0  0  0  0  0  0  0  0  0  0  0
    6.9834   -0.4938   -0.2691 H   0  0  0  0  0  0  0  0  0  0  0  0
    8.0255    1.2845   -1.3447 H   0  0  0  0  0  0  0  0  0  0  0  0
   10.0998    1.3439   -0.3509 H   0  0  0  0  0  0  0  0  0  0  0  0
   10.0735    2.2115    2.5913 H   0  0  0  0  0  0  0  0  0  0  0  0
   10.2560    0.5562    1.9957 H   0  0  0  0  0  0  0  0  0  0  0  0
   11.4944    1.7564    1.6470 H   0  0  0  0  0  0  0  0  0  0  0  0
    6.9999    3.4921   -1.8467 H   0  0  0  0  0  0  0  0  0  0  0  0
    7.0372    3.9123   -0.1346 H   0  0  0  0  0  0  0  0  0  0  0  0
    9.4138    3.4340   -1.9946 H   0  0  0  0  0  0  0  0  0  0  0  0
    9.0174    4.9388   -1.1790 H   0  0  0  0  0  0  0  0  0  0  0  0
  1  2  1  0
  1 56  1  0
  2  3  2  0
  2  5  1  0
  3  4  1  0
  3 57  1  0
  4  7  2  0
  4 58  1  0
  5  6  2  0
  5  8  1  0
  6  7  1  0
  6 12  1  0
  7 59  1  0
  8  9  2  0
  8 10  1  0
 10 11  2  0
 10 14  1  0
 11 12  1  0
 11 18  1  0
 12 13  2  0
 14 15  1  0
 14 16  2  0
 15 60  1  0
 16 17  1  0
 16 26  1  0
 17 18  2  0
 17 19  1  0
 18 61  1  0
 19 20  1  0
 19 21  1  0
 19 62  1  1
 20 63  1  0
 21 22  1  1
 21 23  1  0
 21 25  1  0
 22 64  1  0
 23 24  1  0
 23 65  1  0
 23 66  1  0
 24 67  1  0
 24 68  1  0
 24 69  1  0
 25 26  1  0
 25 70  1  0
 25 71  1  0
 26 27  1  0
 26 72  1  6
 27 28  1  0
 28 29  1  0
 28 34  1  0
 28 73  1  6
 29 30  1  0
 29 74  1  0
 29 75  1  0
 30 31  1  0
 30 37  1  0
 30 76  1  1
 31 32  1  0
 31 33  1  0
 32 77  1  0
 32 78  1  0
 32 79  1  0
 33 80  1  0
 33 81  1  0
 33 82  1  0
 34 35  1  0
 35 36  1  0
 35 37  1  0
 35 83  1  1
 36 84  1  0
 36 85  1  0
 36 86  1  0
 37 38  1  0
 37 87  1  1
 38 39  1  0
 39 40  1  0
 39 43  1  0
 39 88  1  1
 40 41  1  0
 40 89  1  0
 40 90  1  0
 41 42  1  0
 41 46  1  0
 41 91  1  6
 42 92  1  0
 43 44  1  0
 44 45  1  0
 44 46  1  0
 44 93  1  1
 45 94  1  0
 45 95  1  0
 45 96  1  0
 46 47  1  0
 46 97  1  1
 47 48  1  0
 48 49  1  0
 48 52  1  0
 48 98  1  6
 49 50  1  0
 50 51  1  0
 50 54  1  0
 50 99  1  6
 51100  1  0
 51101  1  0
 51102  1  0
 52 53  1  0
 52103  1  0
 52104  1  0
 53 54  1  0
 53105  1  0
 53106  1  0
 54 55  2  0
M  END
