
     RDKit          3D

 59 62  0  0  0  0  0  0  0  0999 V2000
    5.8485   -1.0962   -2.2568 C   0  0  0  0  0  0  0  0  0  0  0  0
    5.6785    1.8314   -2.3521 C   0  0  0  0  0  0  0  0  0  0  0  0
   -0.9879   -0.1400   -0.7887 C   0  0  0  0  0  0  0  0  0  0  0  0
   -3.2836   -0.9441   -2.1308 C   0  0  0  0  0  0  0  0  0  0  0  0
   -2.0313   -1.2530   -2.6589 C   0  0  0  0  0  0  0  0  0  0  0  0
   -0.8971   -0.8454   -1.9812 C   0  0  0  0  0  0  0  0  0  0  0  0
   -3.4110    2.0293    2.7278 C   0  0  0  0  0  0  0  0  0  0  0  0
    2.3292   -0.1528    2.8288 C   0  0  0  0  0  0  0  0  0  0  0  0
    3.6155    0.2236    3.1853 C   0  0  0  0  0  0  0  0  0  0  0  0
    4.3993    0.8996    2.2663 C   0  0  0  0  0  0  0  0  0  0  0  0
    3.8770    1.1950    1.0071 C   0  0  0  0  0  0  0  0  0  0  0  0
    2.6393    0.8421    0.6807 N   0  0  0  0  0  0  0  0  0  0  0  0
    1.8917    0.1849    1.5581 C   0  0  0  0  0  0  0  0  0  0  0  0
    4.6870    1.8931   -0.0445 C   0  0  0  0  0  0  0  0  0  0  0  0
    4.9019    1.0410   -1.2999 C   0  0  2  0  0  0  0  0  0  0  0  0
    5.6170   -0.2742   -0.9921 C   0  0  0  0  0  0  0  0  0  0  0  0
    6.6191   -0.3012   -3.3051 C   0  0  0  0  0  0  0  0  0  0  0  0
    5.9166    1.0158   -3.6191 C   0  0  0  0  0  0  0  0  0  0  0  0
    0.5176   -0.2185    1.1113 C   0  0  0  0  0  0  0  0  0  0  0  0
   -0.2151   -0.8961    1.8066 O   0  0  0  0  0  0  0  0  0  0  0  0
    0.1884    0.2382   -0.1201 N   0  0  0  0  0  0  0  0  0  0  0  0
   -2.2451    0.2148   -0.2707 C   0  0  0  0  0  0  0  0  0  0  0  0
   -3.3818   -0.2059   -0.9586 C   0  0  0  0  0  0  0  0  0  0  0  0
   -4.5464   -1.3512   -2.7965 C   0  0  0  0  0  0  0  0  0  0  0  0
   -4.3461   -2.0054   -3.9314 O   0  0  0  0  0  0  0  0  0  0  0  0
   -5.6459   -1.1138   -2.3561 O   0  0  0  0  0  0  0  0  0  0  0  0
   -2.3290    1.0236    0.8434 N   0  0  0  0  0  0  0  0  0  0  0  0
   -3.2569    0.9358    1.8706 C   0  0  0  0  0  0  0  0  0  0  0  0
   -4.3032    1.9872    3.7866 C   0  0  0  0  0  0  0  0  0  0  0  0
   -5.0620    0.8493    3.9781 C   0  0  0  0  0  0  0  0  0  0  0  0
   -4.9333   -0.2480    3.1512 C   0  0  0  0  0  0  0  0  0  0  0  0
   -4.0226   -0.2082    2.1058 C   0  0  0  0  0  0  0  0  0  0  0  0
   -5.9453    0.8092    4.9944 F   0  0  0  0  0  0  0  0  0  0  0  0
    6.3803   -2.0187   -2.0111 H   0  0  0  0  0  0  0  0  0  0  0  0
    4.8801   -1.3971   -2.6711 H   0  0  0  0  0  0  0  0  0  0  0  0
    5.1451    2.7558   -2.5922 H   0  0  0  0  0  0  0  0  0  0  0  0
    6.6443    2.1324   -1.9284 H   0  0  0  0  0  0  0  0  0  0  0  0
   -1.9276   -1.8166   -3.5746 H   0  0  0  0  0  0  0  0  0  0  0  0
    0.0828   -1.0964   -2.3666 H   0  0  0  0  0  0  0  0  0  0  0  0
    1.6900   -0.6918    3.5131 H   0  0  0  0  0  0  0  0  0  0  0  0
    4.0030   -0.0145    4.1670 H   0  0  0  0  0  0  0  0  0  0  0  0
    5.4096    1.1970    2.5134 H   0  0  0  0  0  0  0  0  0  0  0  0
    4.1763    2.8187   -0.3281 H   0  0  0  0  0  0  0  0  0  0  0  0
    5.6555    2.1834    0.3714 H   0  0  0  0  0  0  0  0  0  0  0  0
    3.9141    0.8014   -1.7143 H   0  0  0  0  0  0  0  0  0  0  0  0
    5.0427   -0.8627   -0.2711 H   0  0  0  0  0  0  0  0  0  0  0  0
    6.5821   -0.0552   -0.5178 H   0  0  0  0  0  0  0  0  0  0  0  0
    7.6269   -0.0921   -2.9294 H   0  0  0  0  0  0  0  0  0  0  0  0
    6.7428   -0.8922   -4.2160 H   0  0  0  0  0  0  0  0  0  0  0  0
    4.9551    0.8078   -4.1017 H   0  0  0  0  0  0  0  0  0  0  0  0
    6.5039    1.5981   -4.3335 H   0  0  0  0  0  0  0  0  0  0  0  0
    0.9357    0.6777   -0.6433 H   0  0  0  0  0  0  0  0  0  0  0  0
   -4.3594    0.0735   -0.5897 H   0  0  0  0  0  0  0  0  0  0  0  0
   -5.1969   -2.2455   -4.3278 H   0  0  0  0  0  0  0  0  0  0  0  0
   -1.5379    1.6235    1.0162 H   0  0  0  0  0  0  0  0  0  0  0  0
   -4.4117    2.8391    4.4451 H   0  0  0  0  0  0  0  0  0  0  0  0
   -5.5239   -1.1383    3.3238 H   0  0  0  0  0  0  0  0  0  0  0  0
   -3.9072   -1.0866    1.4858 H   0  0  0  0  0  0  0  0  0  0  0  0
   -2.8238    2.9248    2.5647 H   0  0  0  0  0  0  0  0  0  0  0  0
 18 17  1  0
 18  2  1  0
 17  1  1  0
  2 15  1  0
  1 16  1  0
 33 30  1  0
 16 15  1  0
 15 14  1  0
 29 30  1  0
 29  7  2  0
 30 31  2  0
  9  8  2  0
  9 10  1  0
  8 13  1  0
 10 11  2  0
  7 28  1  0
 13 12  2  0
 13 19  1  0
 11 12  1  0
 11 14  1  0
 20 19  2  0
 19 21  1  0
  6  5  1  0
  6  3  2  0
 21  3  1  0
  5  4  2  0
  3 22  1  0
 31 32  1  0
 26 24  2  0
 28 32  2  0
 28 27  1  0
  4 23  1  0
  4 24  1  0
 22 23  2  0
 22 27  1  0
 24 25  1  0
  1 34  1  0
  1 35  1  0
  2 36  1  0
  2 37  1  0
  5 38  1  0
  6 39  1  0
  7 59  1  0
  8 40  1  0
  9 41  1  0
 10 42  1  0
 14 43  1  0
 14 44  1  0
 15 45  1  6
 16 46  1  0
 16 47  1  0
 17 48  1  0
 17 49  1  0
 18 50  1  0
 18 51  1  0
 21 52  1  0
 23 53  1  0
 25 54  1  0
 27 55  1  0
 29 56  1  0
 31 57  1  0
 32 58  1  0
M  END
