
     RDKit          3D

 42 43  0  0  0  0  0  0  0  0999 V2000
    3.7829    0.4248   -0.0452 C   0  0  0  0  0  0  0  0  0  0  0  0
    1.9248    1.4971    0.5573 C   0  0  0  0  0  0  0  0  0  0  0  0
   -0.2619    0.4766    1.0871 C   0  0  0  0  0  0  0  0  0  0  0  0
   -2.9952   -1.1359    0.1451 C   0  0  0  0  0  0  0  0  0  0  0  0
   -3.6836   -0.6504   -0.9712 C   0  0  0  0  0  0  0  0  0  0  0  0
   -4.1014    0.7766   -1.1255 C   0  0  0  0  0  0  0  0  0  0  0  0
   -5.8430    2.1790   -1.8979 C   0  0  0  0  0  0  0  0  0  0  0  0
   -7.2511    2.0052   -2.4089 C   0  0  0  0  0  0  0  0  0  0  0  0
   -3.9105   -1.5149   -2.0348 C   0  0  0  0  0  0  0  0  0  0  0  0
   -3.4441   -2.8219   -1.9999 C   0  0  0  0  0  0  0  0  0  0  0  0
   -2.7588   -3.2860   -0.8906 C   0  0  0  0  0  0  0  0  0  0  0  0
   -2.5439   -2.4454    0.1921 C   0  0  0  0  0  0  0  0  0  0  0  0
    3.7840    2.7358    0.2579 C   0  0  0  0  0  0  0  0  0  0  0  0
    3.6974    5.0753    0.5639 C   0  0  0  0  0  0  0  0  0  0  0  0
    4.5169    1.5820   -0.0697 C   0  0  0  0  0  0  0  0  0  0  0  0
    4.7217   -1.4024   -0.5222 I   0  0  0  0  0  0  0  0  0  0  0  0
    2.5002    0.3501    0.2566 N   0  0  0  0  0  0  0  0  0  0  0  0
    0.5865    1.5353    0.8847 N   0  0  0  0  0  0  0  0  0  0  0  0
   -1.5619    0.9127    1.3047 N   0  0  0  0  0  0  0  0  0  0  0  0
    2.5062    2.6923    0.5694 N   0  0  0  0  0  0  0  0  0  0  0  0
   -5.3324    0.8688   -1.5765 O   0  0  0  0  0  0  0  0  0  0  0  0
   -3.3713    1.7127   -0.9172 O   0  0  0  0  0  0  0  0  0  0  0  0
   -3.9819    0.6743    1.7745 O   0  0  0  0  0  0  0  0  0  0  0  0
   -2.3900   -1.0264    2.6916 O   0  0  0  0  0  0  0  0  0  0  0  0
    0.0404   -0.6886    1.0973 O   0  0  0  0  0  0  0  0  0  0  0  0
    4.4215    3.8865    0.2461 O   0  0  0  0  0  0  0  0  0  0  0  0
   -2.8056   -0.1561    1.6147 S   0  0  1  0  0  0  0  0  0  0  0  0
   -5.2024    2.6395   -2.6519 H   0  0  0  0  0  0  0  0  0  0  0  0
   -5.8207    2.8037   -1.0035 H   0  0  0  0  0  0  0  0  0  0  0  0
   -7.6568    2.9817   -2.6709 H   0  0  0  0  0  0  0  0  0  0  0  0
   -7.2786    1.3808   -3.3018 H   0  0  0  0  0  0  0  0  0  0  0  0
   -7.9010    1.5657   -1.6526 H   0  0  0  0  0  0  0  0  0  0  0  0
   -4.4409   -1.1644   -2.9096 H   0  0  0  0  0  0  0  0  0  0  0  0
   -3.6239   -3.4762   -2.8419 H   0  0  0  0  0  0  0  0  0  0  0  0
   -2.3985   -4.3047   -0.8550 H   0  0  0  0  0  0  0  0  0  0  0  0
   -2.0359   -2.8214    1.0676 H   0  0  0  0  0  0  0  0  0  0  0  0
    2.8837    5.2451   -0.1405 H   0  0  0  0  0  0  0  0  0  0  0  0
    3.2931    5.0362    1.5747 H   0  0  0  0  0  0  0  0  0  0  0  0
    4.4173    5.8845    0.4900 H   0  0  0  0  0  0  0  0  0  0  0  0
    5.5663    1.6249   -0.3181 H   0  0  0  0  0  0  0  0  0  0  0  0
    0.2361    2.4681    1.0509 H   0  0  0  0  0  0  0  0  0  0  0  0
   -1.8612    1.8259    0.9814 H   0  0  0  0  0  0  0  0  0  0  0  0
  7  8  1  0
  7 21  1  0
 22  6  2  0
 21  6  1  0
  6  5  1  0
 16  1  1  0
  9  5  2  0
  9 10  1  0
  5  4  1  0
  1 17  2  0
  1 15  1  0
 17  2  1  0
 10 11  2  0
 18  2  1  0
 18  3  1  0
 15 13  2  0
  2 20  2  0
 24 27  2  0
 19  3  1  0
 27 19  1  6
  4 27  1  0
  4 12  2  0
  3 25  2  0
 13 20  1  0
 13 26  1  0
 27 23  2  0
 11 12  1  0
 14 26  1  0
  7 28  1  0
  7 29  1  0
  8 30  1  0
  8 31  1  0
  8 32  1  0
  9 33  1  0
 10 34  1  0
 11 35  1  0
 12 36  1  0
 14 37  1  0
 14 38  1  0
 14 39  1  0
 15 40  1  0
 18 41  1  0
 19 42  1  0
M  END
