
     RDKit          3D

 40 41  0  0  0  0  0  0  0  0999 V2000
    4.1569    1.7204    1.3009 C   0  0  0  0  0  0  0  0  0  0  0  0
    3.4475    0.5307    1.2935 C   0  0  0  0  0  0  0  0  0  0  0  0
    3.0685   -0.0151    0.0729 C   0  0  0  0  0  0  0  0  0  0  0  0
    3.3876    0.5944   -1.1315 C   0  0  0  0  0  0  0  0  0  0  0  0
    4.1042    1.7820   -1.1078 C   0  0  0  0  0  0  0  0  0  0  0  0
    4.4850    2.3442    0.1029 C   0  0  0  0  0  0  0  0  0  0  0  0
    0.2117    0.2181   -1.2733 O   0  0  0  0  0  0  0  0  0  0  0  0
   -6.8201   -0.2098   -0.1740 N   0  0  0  0  0  0  0  0  0  0  0  0
   -5.8792    0.7234    0.4278 C   0  0  0  0  0  0  0  0  0  0  0  0
    2.1664   -1.5326    0.0756 S   0  0  1  0  0  0  0  0  0  0  0  0
    0.6149   -1.0814    0.5234 N   0  0  0  0  0  0  0  0  0  0  0  0
    2.1411   -2.0734   -1.2669 O   0  0  0  0  0  0  0  0  0  0  0  0
    2.6206   -2.3581    1.1796 O   0  0  0  0  0  0  0  0  0  0  0  0
   -4.4566    0.4977   -0.0700 C   0  0  1  0  0  0  0  0  0  0  0  0
   -3.5108    1.5489    0.5061 C   0  0  0  0  0  0  0  0  0  0  0  0
   -2.0816    1.3631    0.0120 C   0  0  0  0  0  0  0  0  0  0  0  0
   -1.5674   -0.0379    0.3322 C   0  0  1  0  0  0  0  0  0  0  0  0
   -2.5116   -1.1108   -0.2363 C   0  0  0  0  0  0  0  0  0  0  0  0
   -0.1844   -0.2539   -0.2313 C   0  0  0  0  0  0  0  0  0  0  0  0
   -3.9394   -0.9006    0.2548 C   0  0  0  0  0  0  0  0  0  0  0  0
    4.4550    2.1585    2.2435 H   0  0  0  0  0  0  0  0  0  0  0  0
    3.1983    0.0444    2.2272 H   0  0  0  0  0  0  0  0  0  0  0  0
    5.0418    3.2718    0.1144 H   0  0  0  0  0  0  0  0  0  0  0  0
    3.0902    0.1580   -2.0738 H   0  0  0  0  0  0  0  0  0  0  0  0
    4.3597    2.2686   -2.0391 H   0  0  0  0  0  0  0  0  0  0  0  0
   -7.7470   -0.0362    0.1936 H   0  0  0  0  0  0  0  0  0  0  0  0
   -6.8831   -0.0219   -1.1674 H   0  0  0  0  0  0  0  0  0  0  0  0
   -6.1445    1.7772    0.2541 H   0  0  0  0  0  0  0  0  0  0  0  0
   -5.9010    0.5787    1.5131 H   0  0  0  0  0  0  0  0  0  0  0  0
   -4.4577    0.6162   -1.1636 H   0  0  0  0  0  0  0  0  0  0  0  0
    0.3042   -1.4153    1.4281 H   0  0  0  0  0  0  0  0  0  0  0  0
   -3.8558    2.5514    0.2392 H   0  0  0  0  0  0  0  0  0  0  0  0
   -3.5352    1.4939    1.6010 H   0  0  0  0  0  0  0  0  0  0  0  0
   -3.9758   -1.0498    1.3409 H   0  0  0  0  0  0  0  0  0  0  0  0
   -4.5910   -1.6566   -0.1857 H   0  0  0  0  0  0  0  0  0  0  0  0
   -2.0500    1.5228   -1.0692 H   0  0  0  0  0  0  0  0  0  0  0  0
   -1.4287    2.1139    0.4634 H   0  0  0  0  0  0  0  0  0  0  0  0
   -1.5334   -0.1627    1.4210 H   0  0  0  0  0  0  0  0  0  0  0  0
   -2.4866   -1.0659   -1.3298 H   0  0  0  0  0  0  0  0  0  0  0  0
   -2.1628   -2.1068    0.0471 H   0  0  0  0  0  0  0  0  0  0  0  0
  1  2  2  0
  1  6  1  0
  2  3  1  0
  3  4  2  0
  3 10  1  0
  4  5  1  0
  5  6  2  0
  7 19  2  0
  8  9  1  0
  9 14  1  0
 10 11  1  1
 10 12  2  0
 10 13  2  0
 11 19  1  0
 14 15  1  0
 14 20  1  0
 15 16  1  0
 16 17  1  0
 17 18  1  0
 17 19  1  0
 18 20  1  0
  1 21  1  0
  2 22  1  0
  6 23  1  0
  4 24  1  0
  5 25  1  0
  8 26  1  0
  8 27  1  0
  9 28  1  0
  9 29  1  0
 14 30  1  6
 11 31  1  0
 15 32  1  0
 15 33  1  0
 20 34  1  0
 20 35  1  0
 16 36  1  0
 16 37  1  0
 17 38  1  1
 18 39  1  0
 18 40  1  0
M  END
