
     RDKit          3D

 51 55  0  0  0  0  0  0  0  0999 V2000
    3.9522   -0.7794    1.8946 C   0  0  0  0  0  0  0  0  0  0  0  0
    5.2543   -0.6817    1.1383 C   0  0  0  0  0  0  0  0  0  0  0  0
    1.5376   -1.1877   -2.2598 C   0  0  0  0  0  0  0  0  0  0  0  0
    3.9445   -0.8745   -0.9324 C   0  0  0  0  0  0  0  0  0  0  0  0
    3.8341   -1.8201   -1.9444 C   0  0  0  0  0  0  0  0  0  0  0  0
    2.6285   -1.9679   -2.6105 C   0  0  0  0  0  0  0  0  0  0  0  0
    1.6424   -0.2137   -1.2664 C   0  0  0  0  0  0  0  0  0  0  0  0
    2.8677   -0.0359   -0.6158 C   0  0  0  0  0  0  0  0  0  0  0  0
    3.5240    1.6058    2.6507 C   0  0  0  0  0  0  0  0  0  0  0  0
    3.0673    0.4788    1.7409 C   0  0  1  0  0  0  0  0  0  0  0  0
    6.3414   -0.5703    1.6799 O   0  0  0  0  0  0  0  0  0  0  0  0
    5.1478   -0.7447   -0.2188 N   0  0  0  0  0  0  0  0  0  0  0  0
    3.0180    0.9703    0.3677 N   0  0  0  0  0  0  0  0  0  0  0  0
    0.4613    0.6104   -0.9261 C   0  0  0  0  0  0  0  0  0  0  0  0
    0.5353    2.0254   -0.9530 C   0  0  0  0  0  0  0  0  0  0  0  0
   -0.5484    2.8220   -0.6772 C   0  0  0  0  0  0  0  0  0  0  0  0
   -1.7499    2.1786   -0.3542 C   0  0  0  0  0  0  0  0  0  0  0  0
   -1.8590    0.7791   -0.3374 C   0  0  0  0  0  0  0  0  0  0  0  0
   -0.7351   -0.0073   -0.6217 C   0  0  0  0  0  0  0  0  0  0  0  0
   -3.2195    0.5382    0.0190 C   0  0  0  0  0  0  0  0  0  0  0  0
   -3.8458    1.6813    0.1947 N   0  0  0  0  0  0  0  0  0  0  0  0
   -2.9650    2.6647   -0.0130 N   0  0  0  0  0  0  0  0  0  0  0  0
   -3.3873    4.0410    0.0120 C   0  0  0  0  0  0  0  0  0  0  0  0
   -3.9051   -0.7260    0.2024 C   0  0  0  0  0  0  0  0  0  0  0  0
   -3.5302   -2.0148   -0.2253 C   0  0  0  0  0  0  0  0  0  0  0  0
   -4.4287   -2.9181    0.1184 N   0  0  0  0  0  0  0  0  0  0  0  0
   -5.3790   -2.2461    0.7584 N   0  0  0  0  0  0  0  0  0  0  0  0
   -5.1161   -0.9338    0.8372 C   0  0  0  0  0  0  0  0  0  0  0  0
   -6.5225   -2.9436    1.2956 C   0  0  0  0  0  0  0  0  0  0  0  0
    3.4026   -1.6539    1.5356 H   0  0  0  0  0  0  0  0  0  0  0  0
    4.1711   -0.9521    2.9480 H   0  0  0  0  0  0  0  0  0  0  0  0
    0.5972   -1.3139   -2.7815 H   0  0  0  0  0  0  0  0  0  0  0  0
    4.6808   -2.4478   -2.1933 H   0  0  0  0  0  0  0  0  0  0  0  0
    2.5370   -2.7035   -3.3985 H   0  0  0  0  0  0  0  0  0  0  0  0
    4.5423    1.9253    2.4144 H   0  0  0  0  0  0  0  0  0  0  0  0
    2.8676    2.4703    2.5502 H   0  0  0  0  0  0  0  0  0  0  0  0
    3.5089    1.2882    3.6927 H   0  0  0  0  0  0  0  0  0  0  0  0
    2.0530    0.1875    2.0296 H   0  0  0  0  0  0  0  0  0  0  0  0
    6.0135   -0.8155   -0.7357 H   0  0  0  0  0  0  0  0  0  0  0  0
    3.8575    1.5074    0.1747 H   0  0  0  0  0  0  0  0  0  0  0  0
    1.4744    2.4923   -1.2127 H   0  0  0  0  0  0  0  0  0  0  0  0
   -0.4686    3.9004   -0.7143 H   0  0  0  0  0  0  0  0  0  0  0  0
   -0.7898   -1.0879   -0.5881 H   0  0  0  0  0  0  0  0  0  0  0  0
   -3.7555    4.3643   -0.9623 H   0  0  0  0  0  0  0  0  0  0  0  0
   -4.1773    4.1587    0.7486 H   0  0  0  0  0  0  0  0  0  0  0  0
   -2.5508    4.6748    0.2985 H   0  0  0  0  0  0  0  0  0  0  0  0
   -2.6540   -2.3139   -0.7798 H   0  0  0  0  0  0  0  0  0  0  0  0
   -5.7834   -0.2463    1.3309 H   0  0  0  0  0  0  0  0  0  0  0  0
   -6.2135   -3.6399    2.0729 H   0  0  0  0  0  0  0  0  0  0  0  0
   -7.2084   -2.2191    1.7241 H   0  0  0  0  0  0  0  0  0  0  0  0
   -7.0336   -3.4909    0.5067 H   0  0  0  0  0  0  0  0  0  0  0  0
 29 27  1  0
 27 26  1  0
 27 28  1  0
 12  4  1  0
 12  2  1  0
  5  6  1  0
  5  4  2  0
 26 25  2  0
 11  2  2  0
 28 24  2  0
  6  3  2  0
  4  8  1  0
  2  1  1  0
  3  7  1  0
 25 24  1  0
  8  7  2  0
  8 13  1  0
 24 20  1  0
  7 14  1  0
 13 10  1  0
 19 14  1  0
 19 18  2  0
  9 10  1  0
  1 10  1  0
 14 15  2  0
 20 18  1  0
 20 21  2  0
 18 17  1  0
 21 22  1  0
 15 16  1  0
 17 16  2  0
 17 22  1  0
 22 23  1  0
  1 30  1  0
  1 31  1  0
  3 32  1  0
  5 33  1  0
  6 34  1  0
  9 35  1  0
  9 36  1  0
  9 37  1  0
 10 38  1  1
 12 39  1  0
 13 40  1  0
 15 41  1  0
 16 42  1  0
 19 43  1  0
 23 44  1  0
 23 45  1  0
 23 46  1  0
 25 47  1  0
 28 48  1  0
 29 49  1  0
 29 50  1  0
 29 51  1  0
M  END
