
     RDKit          3D

 51 52  0  0  0  0  0  0  0  0999 V2000
    2.7597   -0.2303    0.5556 C   0  0  0  0  0  0  0  0  0  0  0  0
    3.6179    0.7993    0.3367 N   0  0  0  0  0  0  0  0  0  0  0  0
    2.9412   -1.0293    1.4579 O   0  0  0  0  0  0  0  0  0  0  0  0
    3.5273    1.6617   -0.7477 N   0  0  0  0  0  0  0  0  0  0  0  0
    4.8354    0.8867    1.0916 C   0  0  0  0  0  0  0  0  0  0  0  0
    5.9267    0.0304    0.4857 C   0  0  0  0  0  0  0  0  0  0  0  0
    7.0544    0.1357    1.1731 O   0  0  0  0  0  0  0  0  0  0  0  0
    5.7886   -0.6534   -0.4942 O   0  0  0  0  0  0  0  0  0  0  0  0
    1.5466   -0.2778   -0.3481 C   0  0  0  0  0  0  0  0  0  0  0  0
    0.6697   -1.4995   -0.0786 C   0  0  2  0  0  0  0  0  0  0  0  0
    1.3135   -2.6785   -0.4572 O   0  0  0  0  0  0  0  0  0  0  0  0
   -0.6396   -1.3716   -0.8736 C   0  0  0  0  0  0  0  0  0  0  0  0
   -1.5740   -0.4840   -0.4813 N   0  0  0  0  0  0  0  0  0  0  0  0
   -0.7723   -2.0786   -1.8651 O   0  0  0  0  0  0  0  0  0  0  0  0
   -1.5053    0.3072    0.7281 C   0  0  0  0  0  0  0  0  0  0  0  0
   -2.8218   -0.3614   -1.2305 C   0  0  0  0  0  0  0  0  0  0  0  0
   -3.9653   -1.0673   -0.5488 C   0  0  0  0  0  0  0  0  0  0  0  0
   -4.9880   -0.3379    0.0482 C   0  0  0  0  0  0  0  0  0  0  0  0
   -6.0381   -0.9831    0.6913 C   0  0  0  0  0  0  0  0  0  0  0  0
   -6.0723   -2.3687    0.7436 C   0  0  0  0  0  0  0  0  0  0  0  0
   -5.0544   -3.1063    0.1488 C   0  0  0  0  0  0  0  0  0  0  0  0
   -4.0091   -2.4598   -0.4932 C   0  0  0  0  0  0  0  0  0  0  0  0
   -1.3414    1.7925    0.4947 C   0  0  0  0  0  0  0  0  0  0  0  0
   -1.6239    2.6622    1.5459 C   0  0  0  0  0  0  0  0  0  0  0  0
   -1.4489    4.0300    1.4019 C   0  0  0  0  0  0  0  0  0  0  0  0
   -0.9942    4.5520    0.1967 C   0  0  0  0  0  0  0  0  0  0  0  0
   -0.7199    3.6945   -0.8582 C   0  0  0  0  0  0  0  0  0  0  0  0
   -0.8935    2.3229   -0.7107 C   0  0  0  0  0  0  0  0  0  0  0  0
    3.5537    1.1539   -1.6227 H   0  0  0  0  0  0  0  0  0  0  0  0
    2.6744    2.2040   -0.7047 H   0  0  0  0  0  0  0  0  0  0  0  0
    5.1621    1.9270    1.1120 H   0  0  0  0  0  0  0  0  0  0  0  0
    4.6762    0.5841    2.1274 H   0  0  0  0  0  0  0  0  0  0  0  0
    7.7433   -0.4193    0.7776 H   0  0  0  0  0  0  0  0  0  0  0  0
    0.9860    0.6517   -0.2179 H   0  0  0  0  0  0  0  0  0  0  0  0
    1.8490   -0.2877   -1.3995 H   0  0  0  0  0  0  0  0  0  0  0  0
    0.4510   -1.5702    0.9903 H   0  0  0  0  0  0  0  0  0  0  0  0
    0.9770   -2.9071   -1.3361 H   0  0  0  0  0  0  0  0  0  0  0  0
   -2.4178    0.1370    1.3074 H   0  0  0  0  0  0  0  0  0  0  0  0
   -0.7008   -0.0487    1.3697 H   0  0  0  0  0  0  0  0  0  0  0  0
   -3.0537    0.7000   -1.3369 H   0  0  0  0  0  0  0  0  0  0  0  0
   -2.6670   -0.7526   -2.2335 H   0  0  0  0  0  0  0  0  0  0  0  0
   -4.9671    0.7453    0.0083 H   0  0  0  0  0  0  0  0  0  0  0  0
   -6.8272   -0.4023    1.1511 H   0  0  0  0  0  0  0  0  0  0  0  0
   -6.8890   -2.8742    1.2423 H   0  0  0  0  0  0  0  0  0  0  0  0
   -5.0787   -4.1880    0.1821 H   0  0  0  0  0  0  0  0  0  0  0  0
   -3.2246   -3.0415   -0.9615 H   0  0  0  0  0  0  0  0  0  0  0  0
   -1.9844    2.2642    2.4875 H   0  0  0  0  0  0  0  0  0  0  0  0
   -1.6727    4.6902    2.2299 H   0  0  0  0  0  0  0  0  0  0  0  0
   -0.8602    5.6196    0.0808 H   0  0  0  0  0  0  0  0  0  0  0  0
   -0.3706    4.0888   -1.8034 H   0  0  0  0  0  0  0  0  0  0  0  0
   -0.6844    1.6731   -1.5522 H   0  0  0  0  0  0  0  0  0  0  0  0
  1  2  1  0
  1  3  2  0
  1  9  1  0
  2  4  1  0
  2  5  1  0
  4 29  1  0
  4 30  1  0
  5  6  1  0
  5 31  1  0
  5 32  1  0
  6  7  1  0
  6  8  2  0
  7 33  1  0
  9 10  1  0
  9 34  1  0
  9 35  1  0
 10 11  1  0
 10 12  1  0
 10 36  1  1
 11 37  1  0
 12 13  1  0
 12 14  2  0
 13 15  1  0
 13 16  1  0
 15 23  1  0
 15 38  1  0
 15 39  1  0
 16 17  1  0
 16 40  1  0
 16 41  1  0
 17 18  2  0
 17 22  1  0
 18 19  1  0
 18 42  1  0
 19 20  2  0
 19 43  1  0
 20 21  1  0
 20 44  1  0
 21 22  2  0
 21 45  1  0
 22 46  1  0
 23 24  2  0
 23 28  1  0
 24 25  1  0
 24 47  1  0
 25 26  2  0
 25 48  1  0
 26 27  1  0
 26 49  1  0
 27 28  2  0
 27 50  1  0
 28 51  1  0
M  END
