
     RDKit          3D

 49 50  0  0  0  0  0  0  0  0999 V2000
    5.8768    2.7781    1.3724 Cl  0  0  0  0  0  0  0  0  0  0  0  0
    3.6594   -1.1485   -1.0894 N   0  0  0  0  0  0  0  0  0  0  0  0
    2.0398    0.4469   -0.8231 O   0  0  0  0  0  0  0  0  0  0  0  0
   -2.3970   -1.0588   -1.4939 S   0  0  0  0  0  0  0  0  0  0  0  0
    6.9279    0.2975    1.1732 C   0  0  0  0  0  0  0  0  0  0  0  0
    1.6028   -1.4052   -2.0481 N   0  0  0  0  0  0  0  0  0  0  0  0
   -4.9525   -0.0415    0.2183 O   0  0  0  0  0  0  0  0  0  0  0  0
    6.8437   -1.0135    0.7092 C   0  0  0  0  0  0  0  0  0  0  0  0
   -8.2271    1.3764    0.8556 N   0  0  0  0  0  0  0  0  0  0  0  0
    5.8569    1.1211    0.8447 C   0  0  0  0  0  0  0  0  0  0  0  0
    5.7633   -1.4710   -0.0211 C   0  0  0  0  0  0  0  0  0  0  0  0
    4.7592    0.7021    0.1086 C   0  0  0  0  0  0  0  0  0  0  0  0
    4.6997   -0.6201   -0.3312 C   0  0  0  0  0  0  0  0  0  0  0  0
    2.4036   -0.6262   -1.2815 C   0  0  0  0  0  0  0  0  0  0  0  0
    0.2176   -1.0780   -2.2778 C   0  0  0  0  0  0  0  0  0  0  0  0
   -0.6785   -1.5079   -1.1199 C   0  0  0  0  0  0  0  0  0  0  0  0
   -3.2022   -1.7068    0.0135 C   0  0  0  0  0  0  0  0  0  0  0  0
   -4.6340   -1.3441    0.0265 C   0  0  0  0  0  0  0  0  0  0  0  0
   -5.7677   -2.0691   -0.1285 C   0  0  0  0  0  0  0  0  0  0  0  0
   -6.8542   -1.1479   -0.0211 C   0  0  0  0  0  0  0  0  0  0  0  0
   -6.2984    0.0701    0.1885 C   0  0  0  0  0  0  0  0  0  0  0  0
   -6.8770    1.4356    0.3388 C   0  0  0  0  0  0  0  0  0  0  0  0
   -8.2580    1.0349    2.2625 C   0  0  0  0  0  0  0  0  0  0  0  0
   -8.9476    2.6064    0.6037 C   0  0  0  0  0  0  0  0  0  0  0  0
    8.6169    1.6006    1.4799 H   0  0  0  0  0  0  0  0  0  0  0  0
    7.8032    1.1240    2.9598 H   0  0  0  0  0  0  0  0  0  0  0  0
    8.8236   -0.0314    2.1084 H   0  0  0  0  0  0  0  0  0  0  0  0
    3.8325   -2.0745   -1.4501 H   0  0  0  0  0  0  0  0  0  0  0  0
    1.9151   -2.3169   -2.3393 H   0  0  0  0  0  0  0  0  0  0  0  0
    7.6502   -1.7008    0.9330 H   0  0  0  0  0  0  0  0  0  0  0  0
    5.7444   -2.5019   -0.3537 H   0  0  0  0  0  0  0  0  0  0  0  0
    3.9710    1.4009   -0.1167 H   0  0  0  0  0  0  0  0  0  0  0  0
    0.1209   -0.0062   -2.4513 H   0  0  0  0  0  0  0  0  0  0  0  0
   -0.0926   -1.5802   -3.1941 H   0  0  0  0  0  0  0  0  0  0  0  0
   -0.3686   -1.0128   -0.1980 H   0  0  0  0  0  0  0  0  0  0  0  0
   -0.6076   -2.5871   -0.9718 H   0  0  0  0  0  0  0  0  0  0  0  0
   -3.1097   -2.7926    0.0377 H   0  0  0  0  0  0  0  0  0  0  0  0
   -2.6823   -1.3022    0.8851 H   0  0  0  0  0  0  0  0  0  0  0  0
   -5.8236   -3.1334   -0.2930 H   0  0  0  0  0  0  0  0  0  0  0  0
   -7.9079   -1.3639   -0.0855 H   0  0  0  0  0  0  0  0  0  0  0  0
   -6.9082    1.9210   -0.6423 H   0  0  0  0  0  0  0  0  0  0  0  0
   -6.2087    2.0545    0.9615 H   0  0  0  0  0  0  0  0  0  0  0  0
   -9.2918    0.9285    2.5936 H   0  0  0  0  0  0  0  0  0  0  0  0
   -7.7562    0.0834    2.4387 H   0  0  0  0  0  0  0  0  0  0  0  0
   -7.7774    1.7945    2.8986 H   0  0  0  0  0  0  0  0  0  0  0  0
   -8.5153    3.4801    1.1150 H   0  0  0  0  0  0  0  0  0  0  0  0
   -8.9641    2.8208   -0.4658 H   0  0  0  0  0  0  0  0  0  0  0  0
   -9.9799    2.5040    0.9405 H   0  0  0  0  0  0  0  0  0  0  0  0
    8.1027    0.7729    1.9711 C   0  0  0  0  0  0  0  0  0  0  0  0
 17  4  1  0
 17 18  1  0
  4 16  1  0
 18 19  2  0
 18  7  1  0
 19 20  1  0
  1 10  1  0
  7 21  1  0
 20 21  2  0
 21 22  1  0
 12 10  1  0
 12 13  2  0
 10  5  2  0
 16 15  1  0
  6 15  1  0
  6 14  1  0
  2 13  1  0
  2 14  1  0
 22  9  1  0
 13 11  1  0
 14  3  2  0
  5 49  1  0
  5  8  1  0
 11  8  2  0
  9 23  1  0
  9 24  1  0
 49 25  1  0
 49 26  1  0
 49 27  1  0
  2 28  1  0
  6 29  1  0
  8 30  1  0
 11 31  1  0
 12 32  1  0
 15 33  1  0
 15 34  1  0
 16 35  1  0
 16 36  1  0
 17 37  1  0
 17 38  1  0
 19 39  1  0
 20 40  1  0
 22 41  1  0
 22 42  1  0
 23 43  1  0
 23 44  1  0
 23 45  1  0
 24 46  1  0
 24 47  1  0
 24 48  1  0
M  END
