
     RDKit          3D

107111  0  0  0  0  0  0  0  0999 V2000
   -2.2981   -0.8665   -0.2429 C   0  0  1  0  0  0  0  0  0  0  0  0
   -6.4850    1.1336   -1.7930 C   0  0  0  0  0  0  0  0  0  0  0  0
   -5.6032    0.1431   -1.6749 C   0  0  0  0  0  0  0  0  0  0  0  0
    3.2460   -3.1011   -0.9009 N   0  0  0  0  0  0  0  0  0  0  0  0
   -3.5730   -0.7989   -0.8906 N   0  0  0  0  0  0  0  0  0  0  0  0
  -10.3389    1.0294   -2.0247 C   0  0  0  0  0  0  0  0  0  0  0  0
    1.9136    2.2821   -0.2702 N   0  0  0  0  0  0  0  0  0  0  0  0
   -7.8309    0.9999   -2.4184 C   0  0  0  0  0  0  0  0  0  0  0  0
  -11.4620    1.0743   -0.9985 C   0  0  0  0  0  0  0  0  0  0  0  0
   -8.9570    1.0947   -1.3855 C   0  0  0  0  0  0  0  0  0  0  0  0
   -4.2905    0.3392   -1.0170 C   0  0  0  0  0  0  0  0  0  0  0  0
   -3.8914    1.4268   -0.6268 O   0  0  0  0  0  0  0  0  0  0  0  0
   -2.4162   -1.4630    1.1758 C   0  0  0  0  0  0  0  0  0  0  0  0
   -3.2671   -0.5913    2.0500 C   0  0  0  0  0  0  0  0  0  0  0  0
   -4.6233   -0.8539    2.2060 C   0  0  0  0  0  0  0  0  0  0  0  0
   -5.3852    0.0084    2.9705 C   0  0  0  0  0  0  0  0  0  0  0  0
   -6.6938   -0.2426    3.1183 F   0  0  0  0  0  0  0  0  0  0  0  0
   -4.8589    1.1212    3.5958 C   0  0  0  0  0  0  0  0  0  0  0  0
   -3.5064    1.3478    3.4198 C   0  0  0  0  0  0  0  0  0  0  0  0
   -2.9595    2.4178    4.0150 F   0  0  0  0  0  0  0  0  0  0  0  0
   -2.7011    0.5229    2.6642 C   0  0  0  0  0  0  0  0  0  0  0  0
   -1.3183   -1.6766   -1.0900 C   0  0  0  0  0  0  0  0  0  0  0  0
   -1.6629   -2.3313   -2.0577 O   0  0  0  0  0  0  0  0  0  0  0  0
   -0.0498   -1.6085   -0.6465 N   0  0  0  0  0  0  0  0  0  0  0  0
    1.0631   -2.1103   -1.4030 C   0  0  1  0  0  0  0  0  0  0  0  0
    1.4626   -1.1180   -2.5076 C   0  0  0  0  0  0  0  0  0  0  0  0
    1.6487    0.1763   -1.9452 O   0  0  0  0  0  0  0  0  0  0  0  0
    0.6771    1.0798   -2.0580 C   0  0  0  0  0  0  0  0  0  0  0  0
   -0.3518    0.9100   -2.6564 O   0  0  0  0  0  0  0  0  0  0  0  0
    1.0543    2.4043   -1.4331 C   0  0  2  0  0  0  0  0  0  0  0  0
    1.8827    3.2600   -2.4082 C   0  0  0  0  0  0  0  0  0  0  0  0
    2.7963    4.0668   -1.4836 C   0  0  1  0  0  0  0  0  0  0  0  0
    2.0937    5.2781   -0.8829 C   0  0  0  0  0  0  0  0  0  0  0  0
    3.1558    3.0271   -0.4259 C   0  0  0  0  0  0  0  0  0  0  0  0
    1.4759    1.6072    0.8009 C   0  0  0  0  0  0  0  0  0  0  0  0
    0.3605    1.0938    0.8085 O   0  0  0  0  0  0  0  0  0  0  0  0
    2.4320    1.4664    1.9843 C   0  0  1  0  0  0  0  0  0  0  0  0
    1.7338    0.9041    3.2113 C   0  0  0  0  0  0  0  0  0  0  0  0
    3.5308    0.6222    1.5637 N   0  0  0  0  0  0  0  0  0  0  0  0
    4.8272    0.9314    1.7195 C   0  0  0  0  0  0  0  0  0  0  0  0
    5.2197    1.9920    2.1818 O   0  0  0  0  0  0  0  0  0  0  0  0
    5.8246   -0.1706    1.3370 C   0  0  2  0  0  0  0  0  0  0  0  0
    7.1383    0.3973    0.8036 C   0  0  0  0  0  0  0  0  0  0  0  0
    7.0025    0.9232   -0.6171 C   0  0  0  0  0  0  0  0  0  0  0  0
    6.4496   -0.1731   -1.5143 C   0  0  0  0  0  0  0  0  0  0  0  0
    5.1350   -0.7060   -0.9681 C   0  0  0  0  0  0  0  0  0  0  0  0
    5.2617   -1.1494    0.4149 N   0  0  0  0  0  0  0  0  0  0  0  0
    4.9369   -2.3783    0.8877 C   0  0  0  0  0  0  0  0  0  0  0  0
    5.1546   -2.7020    2.0454 O   0  0  0  0  0  0  0  0  0  0  0  0
    4.3670   -3.4558   -0.0358 C   0  0  2  0  0  0  0  0  0  0  0  0
    5.4226   -4.0534   -0.9971 C   0  0  0  0  0  0  0  0  0  0  0  0
    4.7619   -4.0790   -2.3813 C   0  0  0  0  0  0  0  0  0  0  0  0
    3.2744   -3.9370   -2.0996 C   0  0  0  0  0  0  0  0  0  0  0  0
    2.2223   -2.3723   -0.4444 C   0  0  0  0  0  0  0  0  0  0  0  0
    2.2259   -1.8836    0.6810 O   0  0  0  0  0  0  0  0  0  0  0  0
   -1.9075    0.1504   -0.1627 H   0  0  0  0  0  0  0  0  0  0  0  0
   -6.2303    2.1103   -1.3908 H   0  0  0  0  0  0  0  0  0  0  0  0
   -5.8409   -0.8465   -2.0543 H   0  0  0  0  0  0  0  0  0  0  0  0
   -3.9646   -1.6608   -1.2359 H   0  0  0  0  0  0  0  0  0  0  0  0
  -10.4192    0.1137   -2.6187 H   0  0  0  0  0  0  0  0  0  0  0  0
  -10.4494    1.8587   -2.7301 H   0  0  0  0  0  0  0  0  0  0  0  0
   -7.9609    1.7983   -3.1560 H   0  0  0  0  0  0  0  0  0  0  0  0
   -7.9064    0.0516   -2.9565 H   0  0  0  0  0  0  0  0  0  0  0  0
  -12.4417    1.0339   -1.4757 H   0  0  0  0  0  0  0  0  0  0  0  0
  -11.3954    0.2330   -0.3068 H   0  0  0  0  0  0  0  0  0  0  0  0
  -11.4201    1.9913   -0.4079 H   0  0  0  0  0  0  0  0  0  0  0  0
   -8.8610    2.0262   -0.8177 H   0  0  0  0  0  0  0  0  0  0  0  0
   -8.8468    0.2814   -0.6615 H   0  0  0  0  0  0  0  0  0  0  0  0
   -2.8394   -2.4672    1.1044 H   0  0  0  0  0  0  0  0  0  0  0  0
   -1.4234   -1.5688    1.6162 H   0  0  0  0  0  0  0  0  0  0  0  0
   -5.0815   -1.7149    1.7368 H   0  0  0  0  0  0  0  0  0  0  0  0
   -5.4725    1.7802    4.1955 H   0  0  0  0  0  0  0  0  0  0  0  0
   -1.6492    0.7496    2.5366 H   0  0  0  0  0  0  0  0  0  0  0  0
    0.1632   -0.9575    0.0992 H   0  0  0  0  0  0  0  0  0  0  0  0
    0.7676   -3.0426   -1.8896 H   0  0  0  0  0  0  0  0  0  0  0  0
    2.4109   -1.3891   -2.9699 H   0  0  0  0  0  0  0  0  0  0  0  0
    0.6998   -1.1088   -3.2853 H   0  0  0  0  0  0  0  0  0  0  0  0
    0.1218    2.9095   -1.1691 H   0  0  0  0  0  0  0  0  0  0  0  0
    2.4843    2.6260   -3.0635 H   0  0  0  0  0  0  0  0  0  0  0  0
    1.2434    3.8789   -3.0356 H   0  0  0  0  0  0  0  0  0  0  0  0
    3.6932    4.3919   -2.0132 H   0  0  0  0  0  0  0  0  0  0  0  0
    2.7570    5.8157   -0.2045 H   0  0  0  0  0  0  0  0  0  0  0  0
    1.7833    5.9713   -1.6653 H   0  0  0  0  0  0  0  0  0  0  0  0
    1.2026    4.9951   -0.3187 H   0  0  0  0  0  0  0  0  0  0  0  0
    3.4774    3.4776    0.5119 H   0  0  0  0  0  0  0  0  0  0  0  0
    3.9593    2.3762   -0.7830 H   0  0  0  0  0  0  0  0  0  0  0  0
    2.8435    2.4462    2.2324 H   0  0  0  0  0  0  0  0  0  0  0  0
    1.3375   -0.0933    3.0259 H   0  0  0  0  0  0  0  0  0  0  0  0
    2.4438    0.8449    4.0352 H   0  0  0  0  0  0  0  0  0  0  0  0
    0.9096    1.5450    3.5232 H   0  0  0  0  0  0  0  0  0  0  0  0
    3.2738   -0.3026    1.2400 H   0  0  0  0  0  0  0  0  0  0  0  0
    6.0398   -0.6916    2.2717 H   0  0  0  0  0  0  0  0  0  0  0  0
    7.4969    1.1711    1.4811 H   0  0  0  0  0  0  0  0  0  0  0  0
    7.8790   -0.4065    0.8228 H   0  0  0  0  0  0  0  0  0  0  0  0
    6.3333    1.7907   -0.6378 H   0  0  0  0  0  0  0  0  0  0  0  0
    7.9702    1.2679   -0.9847 H   0  0  0  0  0  0  0  0  0  0  0  0
    6.2769    0.1937   -2.5278 H   0  0  0  0  0  0  0  0  0  0  0  0
    7.1736   -0.9911   -1.5878 H   0  0  0  0  0  0  0  0  0  0  0  0
    4.3671    0.0741   -1.0304 H   0  0  0  0  0  0  0  0  0  0  0  0
    4.7847   -1.5207   -1.5900 H   0  0  0  0  0  0  0  0  0  0  0  0
    4.0313   -4.2351    0.6519 H   0  0  0  0  0  0  0  0  0  0  0  0
    6.3457   -3.4729   -1.0067 H   0  0  0  0  0  0  0  0  0  0  0  0
    5.6813   -5.0558   -0.6623 H   0  0  0  0  0  0  0  0  0  0  0  0
    5.1084   -3.2450   -2.9931 H   0  0  0  0  0  0  0  0  0  0  0  0
    4.9806   -4.9937   -2.9288 H   0  0  0  0  0  0  0  0  0  0  0  0
    2.8161   -4.9063   -1.8833 H   0  0  0  0  0  0  0  0  0  0  0  0
    2.7358   -3.4887   -2.9302 H   0  0  0  0  0  0  0  0  0  0  0  0
  9  6  1  0
  6 10  1  0
 10  8  1  0
  8  2  1  0
  2  3  2  0
 33 32  1  0
  3 11  1  0
 32 34  1  0
 32 31  1  0
 20 19  1  0
 34  7  1  0
 11 12  2  0
 11  5  1  0
 31 30  1  0
 19 21  2  0
 19 18  1  0
  5  1  1  0
 21 14  1  0
  7 30  1  0
  7 35  1  0
 36 35  2  0
 18 16  2  0
 30 28  1  0
 35 37  1  0
 27 28  1  0
 27 26  1  0
  1 13  1  0
  1 22  1  0
 14 13  1  0
 14 15  2  0
 16 15  1  0
 16 17  1  0
 28 29  2  0
 26 25  1  0
 24 22  1  0
 24 25  1  0
 22 23  2  0
 37 38  1  0
 37 39  1  0
 25 54  1  0
 55 54  2  0
 39 40  1  0
 54  4  1  0
 41 40  2  0
 40 42  1  0
  4 50  1  0
  4 53  1  0
 50 48  1  0
 50 51  1  0
 42 47  1  0
 42 43  1  0
 48 47  1  0
 48 49  2  0
 53 52  1  0
 47 46  1  0
 46 45  1  0
 52 51  1  0
 43 44  1  0
 45 44  1  0
  1 56  1  1
  2 57  1  0
  3 58  1  0
  5 59  1  0
  6 60  1  0
  6 61  1  0
  8 62  1  0
  8 63  1  0
  9 64  1  0
  9 65  1  0
  9 66  1  0
 10 67  1  0
 10 68  1  0
 13 69  1  0
 13 70  1  0
 15 71  1  0
 18 72  1  0
 21 73  1  0
 24 74  1  0
 25 75  1  6
 26 76  1  0
 26 77  1  0
 30 78  1  1
 31 79  1  0
 31 80  1  0
 32 81  1  6
 33 82  1  0
 33 83  1  0
 33 84  1  0
 34 85  1  0
 34 86  1  0
 37 87  1  1
 38 88  1  0
 38 89  1  0
 38 90  1  0
 39 91  1  0
 42 92  1  1
 43 93  1  0
 43 94  1  0
 44 95  1  0
 44 96  1  0
 45 97  1  0
 45 98  1  0
 46 99  1  0
 46100  1  0
 50101  1  1
 51102  1  0
 51103  1  0
 52104  1  0
 52105  1  0
 53106  1  0
 53107  1  0
M  END
