
     RDKit          3D

 21 20  0  0  0  0  0  0  0  0999 V2000
    2.1858   -1.7988   -0.0480 C   0  0  0  0  0  0  0  0  0  0  0  0
    1.1774   -1.2347    0.9394 C   0  0  0  0  0  0  0  0  0  0  0  0
    0.6374    0.0662    0.5653 N   0  0  0  0  0  0  0  0  0  0  0  0
   -0.9086    0.2409    0.0403 P   0  0  1  0  0  0  0  0  0  0  0  0
   -1.9345   -0.2950    1.1640 O   0  0  0  0  0  0  0  0  0  0  0  0
   -1.2742    1.6303   -0.3147 O   0  0  0  0  0  0  0  0  0  0  0  0
    1.5204    1.2269    0.6576 C   0  0  0  0  0  0  0  0  0  0  0  0
    2.0893    1.6937   -0.6733 C   0  0  0  0  0  0  0  0  0  0  0  0
   -1.0040   -0.8553   -1.1348 O   0  0  0  0  0  0  0  0  0  0  0  0
    3.0654   -1.1609   -0.1383 H   0  0  0  0  0  0  0  0  0  0  0  0
    2.5254   -2.7788    0.2893 H   0  0  0  0  0  0  0  0  0  0  0  0
    1.7433   -1.9135   -1.0371 H   0  0  0  0  0  0  0  0  0  0  0  0
    0.3601   -1.9488    1.0575 H   0  0  0  0  0  0  0  0  0  0  0  0
    1.6352   -1.1463    1.9287 H   0  0  0  0  0  0  0  0  0  0  0  0
    0.9968    2.0531    1.1405 H   0  0  0  0  0  0  0  0  0  0  0  0
    2.3317    0.9494    1.3333 H   0  0  0  0  0  0  0  0  0  0  0  0
   -1.8504   -1.2223    1.4182 H   0  0  0  0  0  0  0  0  0  0  0  0
   -1.9022   -1.0240   -1.4500 H   0  0  0  0  0  0  0  0  0  0  0  0
    2.6345    0.8984   -1.1806 H   0  0  0  0  0  0  0  0  0  0  0  0
    1.2962    2.0382   -1.3361 H   0  0  0  0  0  0  0  0  0  0  0  0
    2.7772    2.5256   -0.5161 H   0  0  0  0  0  0  0  0  0  0  0  0
  1  2  1  0
  2  3  1  0
  3  4  1  0
  3  7  1  0
  4  5  1  1
  4  6  2  0
  4  9  1  0
  7  8  1  0
  1 10  1  0
  1 11  1  0
  1 12  1  0
  2 13  1  0
  2 14  1  0
  7 15  1  0
  7 16  1  0
  5 17  1  0
  9 18  1  0
  8 19  1  0
  8 20  1  0
  8 21  1  0
M  END
