
     RDKit          3D

 45 47  0  0  0  0  0  0  0  0999 V2000
   -0.6969    3.0331   -0.3550 C   0  0  0  0  0  0  0  0  0  0  0  0
   -0.7034    1.6361   -0.9492 C   0  0  0  0  0  0  0  0  0  0  0  0
   -1.2425    0.6384   -0.0416 N   0  0  0  0  0  0  0  0  0  0  0  0
   -2.5444    0.2060   -0.0201 C   0  0  0  0  0  0  0  0  0  0  0  0
   -3.6445    0.5333   -0.8002 C   0  0  0  0  0  0  0  0  0  0  0  0
   -4.8288   -0.1185   -0.5002 C   0  0  0  0  0  0  0  0  0  0  0  0
   -4.9101   -1.0608    0.5416 C   0  0  0  0  0  0  0  0  0  0  0  0
   -3.8088   -1.3720    1.3104 C   0  0  0  0  0  0  0  0  0  0  0  0
   -2.6052   -0.7262    1.0267 C   0  0  0  0  0  0  0  0  0  0  0  0
   -1.3800   -0.8388    1.6210 N   0  0  0  0  0  0  0  0  0  0  0  0
   -0.6056   -0.0193    0.9639 C   0  0  0  0  0  0  0  0  0  0  0  0
    0.8329    0.2142    1.3249 C   0  0  1  0  0  0  0  0  0  0  0  0
    0.9352    0.9413    2.6610 C   0  0  0  0  0  0  0  0  0  0  0  0
    1.5205   -1.0676    1.4305 N   0  0  0  0  0  0  0  0  0  0  0  0
    2.0562   -1.7947    0.0611 S   0  0  1  0  0  0  0  0  0  0  0  0
    2.5835   -3.0867    0.4576 O   0  0  0  0  0  0  0  0  0  0  0  0
    0.9780   -1.6929   -0.9076 O   0  0  0  0  0  0  0  0  0  0  0  0
    3.4036   -0.8070   -0.5353 C   0  0  0  0  0  0  0  0  0  0  0  0
    4.6285   -0.8802    0.1182 C   0  0  0  0  0  0  0  0  0  0  0  0
    5.6788   -0.0894   -0.3113 C   0  0  0  0  0  0  0  0  0  0  0  0
    5.4879    0.7630   -1.3913 C   0  0  0  0  0  0  0  0  0  0  0  0
    4.2710    0.8343   -2.0500 C   0  0  0  0  0  0  0  0  0  0  0  0
    3.2193    0.0410   -1.6171 C   0  0  0  0  0  0  0  0  0  0  0  0
    6.7973    1.7513   -1.9261 Cl  0  0  0  0  0  0  0  0  0  0  0  0
   -6.0711    0.1652   -1.2795 C   0  0  1  0  0  0  0  0  0  0  0  0
   -6.5459   -0.9361   -1.8832 F   0  0  0  0  0  0  0  0  0  0  0  0
   -7.0617    0.6148   -0.4923 F   0  0  0  0  0  0  0  0  0  0  0  0
   -5.8892    1.0826   -2.2348 F   0  0  0  0  0  0  0  0  0  0  0  0
   -0.0406    3.0999    0.5132 H   0  0  0  0  0  0  0  0  0  0  0  0
   -0.3389    3.7442   -1.0984 H   0  0  0  0  0  0  0  0  0  0  0  0
   -1.6980    3.3361   -0.0496 H   0  0  0  0  0  0  0  0  0  0  0  0
   -1.3072    1.6095   -1.8552 H   0  0  0  0  0  0  0  0  0  0  0  0
    0.2987    1.3327   -1.2493 H   0  0  0  0  0  0  0  0  0  0  0  0
   -3.5756    1.2627   -1.5956 H   0  0  0  0  0  0  0  0  0  0  0  0
   -5.8506   -1.5545    0.7507 H   0  0  0  0  0  0  0  0  0  0  0  0
   -3.8761   -2.0961    2.1113 H   0  0  0  0  0  0  0  0  0  0  0  0
    1.3112    0.8484    0.5698 H   0  0  0  0  0  0  0  0  0  0  0  0
    1.9783    1.1434    2.9033 H   0  0  0  0  0  0  0  0  0  0  0  0
    0.4115    1.8945    2.6104 H   0  0  0  0  0  0  0  0  0  0  0  0
    0.4908    0.3484    3.4592 H   0  0  0  0  0  0  0  0  0  0  0  0
    2.1425   -1.1743    2.2244 H   0  0  0  0  0  0  0  0  0  0  0  0
    4.7785   -1.5474    0.9567 H   0  0  0  0  0  0  0  0  0  0  0  0
    2.2746    0.0860   -2.1409 H   0  0  0  0  0  0  0  0  0  0  0  0
    6.6357   -0.1400    0.1890 H   0  0  0  0  0  0  0  0  0  0  0  0
    4.1379    1.4964   -2.8939 H   0  0  0  0  0  0  0  0  0  0  0  0
  1  2  1  0
  2  3  1  0
  3  4  1  0
  3 11  1  0
  4  5  2  0
  4  9  1  0
  5  6  1  0
  6  7  2  0
  6 25  1  0
  7  8  1  0
  8  9  2  0
  9 10  1  0
 10 11  2  0
 11 12  1  0
 12 13  1  0
 12 14  1  0
 15 14  1  1
 15 16  2  0
 15 17  2  0
 15 18  1  0
 18 19  2  0
 18 23  1  0
 19 20  1  0
 20 21  2  0
 21 22  1  0
 21 24  1  0
 22 23  2  0
 25 26  1  6
 25 27  1  0
 25 28  1  0
  1 29  1  0
  1 30  1  0
  1 31  1  0
  2 32  1  0
  2 33  1  0
  5 34  1  0
  7 35  1  0
  8 36  1  0
 12 37  1  6
 13 38  1  0
 13 39  1  0
 13 40  1  0
 14 41  1  0
 19 42  1  0
 23 43  1  0
 20 44  1  0
 22 45  1  0
M  END
