
     RDKit          3D

 14 13  0  0  0  0  0  0  0  0999 V2000
   -0.1221    0.0324    1.9408 C   0  0  0  0  0  0  0  0  0  0  0  0
    0.5273    0.0273    0.5637 C   0  0  0  0  0  0  0  0  0  0  0  0
   -0.4887    0.0471   -0.5720 C   0  0  0  0  0  0  0  0  0  0  0  0
    0.1609    0.0421   -1.9489 C   0  0  0  0  0  0  0  0  0  0  0  0
   -0.7704   -0.8363    2.0734 H   0  0  0  0  0  0  0  0  0  0  0  0
    0.6224    0.0134    2.7374 H   0  0  0  0  0  0  0  0  0  0  0  0
   -0.7366    0.9238    2.0827 H   0  0  0  0  0  0  0  0  0  0  0  0
    1.1926    0.8910    0.4673 H   0  0  0  0  0  0  0  0  0  0  0  0
    1.1647   -0.8568    0.4616 H   0  0  0  0  0  0  0  0  0  0  0  0
   -1.1535   -0.8171   -0.4755 H   0  0  0  0  0  0  0  0  0  0  0  0
   -1.1267    0.9306   -0.4696 H   0  0  0  0  0  0  0  0  0  0  0  0
   -0.5835    0.0605   -2.7456 H   0  0  0  0  0  0  0  0  0  0  0  0
    0.8087    0.9112   -2.0812 H   0  0  0  0  0  0  0  0  0  0  0  0
    0.7758   -0.8490   -2.0905 H   0  0  0  0  0  0  0  0  0  0  0  0
  1  2  1  0
  1  5  1  0
  1  6  1  0
  1  7  1  0
  2  3  1  0
  2  8  1  0
  2  9  1  0
  3  4  1  0
  3 10  1  0
  3 11  1  0
  4 12  1  0
  4 13  1  0
  4 14  1  0
M  END
