
     RDKit          3D

 28 30  0  0  0  0  0  0  0  0999 V2000
   -0.1432   -0.6849    0.0245 N   0  0  0  0  0  0  0  0  0  0  0  0
    4.4195   -0.2970    0.0535 N   0  0  0  0  0  0  0  0  0  0  0  0
   -2.0476    0.8860   -0.2200 C   0  0  0  0  0  0  0  0  0  0  0  0
   -1.5091   -0.3841   -0.0057 C   0  0  0  0  0  0  0  0  0  0  0  0
   -2.3837   -1.4558    0.1825 C   0  0  0  0  0  0  0  0  0  0  0  0
   -3.7547   -1.2652    0.1577 C   0  0  0  0  0  0  0  0  0  0  0  0
    0.9442    0.1098   -0.0102 C   0  0  0  0  0  0  0  0  0  0  0  0
    2.8526   -1.7336    0.1130 C   0  0  0  0  0  0  0  0  0  0  0  0
   -4.3076   -0.0055   -0.0547 C   0  0  0  0  0  0  0  0  0  0  0  0
   -3.4243    1.0544   -0.2405 C   0  0  0  0  0  0  0  0  0  0  0  0
    2.2367   -0.4605    0.0373 C   0  0  0  0  0  0  0  0  0  0  0  0
    4.1561   -1.6087    0.1211 N   0  0  0  0  0  0  0  0  0  0  0  0
    3.3003    0.4431    0.0005 C   0  0  0  0  0  0  0  0  0  0  0  0
    3.1978    1.7749   -0.0736 N   0  0  0  0  0  0  0  0  0  0  0  0
    1.9456    2.1721   -0.1121 C   0  0  0  0  0  0  0  0  0  0  0  0
    0.8340    1.4303   -0.0863 N   0  0  0  0  0  0  0  0  0  0  0  0
    0.0544   -1.6704    0.1104 H   0  0  0  0  0  0  0  0  0  0  0  0
    5.3737    0.0282    0.0463 H   0  0  0  0  0  0  0  0  0  0  0  0
   -1.4012    1.7357   -0.3656 H   0  0  0  0  0  0  0  0  0  0  0  0
   -1.9883   -2.4506    0.3545 H   0  0  0  0  0  0  0  0  0  0  0  0
   -4.4038   -2.1192    0.3102 H   0  0  0  0  0  0  0  0  0  0  0  0
    2.3996   -2.7124    0.1599 H   0  0  0  0  0  0  0  0  0  0  0  0
   -6.1017    0.9869    0.6061 H   0  0  0  0  0  0  0  0  0  0  0  0
   -6.1263    0.5139   -1.0830 H   0  0  0  0  0  0  0  0  0  0  0  0
   -6.3317   -0.7042    0.1704 H   0  0  0  0  0  0  0  0  0  0  0  0
   -3.8157    2.0512   -0.4095 H   0  0  0  0  0  0  0  0  0  0  0  0
    1.7818    3.2426   -0.1722 H   0  0  0  0  0  0  0  0  0  0  0  0
   -5.7930    0.2061   -0.0904 C   0  0  0  0  0  0  0  0  0  0  0  0
 10  3  2  0
 10  9  1  0
  3  4  1  0
 28  9  1  0
  9  6  2  0
  4  1  1  0
  4  5  2  0
  8 12  2  0
  8 11  1  0
  1  7  1  0
  6  5  1  0
 12  2  1  0
 11  7  1  0
 11 13  2  0
  7 16  2  0
  2 13  1  0
 13 14  1  0
 16 15  1  0
 15 14  2  0
  1 17  1  0
  2 18  1  0
  3 19  1  0
  5 20  1  0
  6 21  1  0
  8 22  1  0
 28 23  1  0
 28 24  1  0
 28 25  1  0
 10 26  1  0
 15 27  1  0
M  END
