
     RDKit          3D

 47 50  0  0  0  0  0  0  0  0999 V2000
   -4.4025    0.1826   -0.9140 C   0  0  0  0  0  0  0  0  0  0  0  0
   -5.7898    0.1477   -0.6668 C   0  0  0  0  0  0  0  0  0  0  0  0
   -6.7350    0.3027   -1.7096 C   0  0  0  0  0  0  0  0  0  0  0  0
   -8.0754    0.2644   -1.4424 C   0  0  0  0  0  0  0  0  0  0  0  0
   -8.5321    0.0685   -0.1212 C   0  0  0  0  0  0  0  0  0  0  0  0
   -7.6418   -0.0845    0.9069 C   0  0  0  0  0  0  0  0  0  0  0  0
   -6.2501   -0.0481    0.6618 C   0  0  0  0  0  0  0  0  0  0  0  0
   -5.2989   -0.1991    1.6982 C   0  0  0  0  0  0  0  0  0  0  0  0
   -3.9602   -0.1570    1.4336 C   0  0  0  0  0  0  0  0  0  0  0  0
   -3.4959    0.0352    0.1092 C   0  0  0  0  0  0  0  0  0  0  0  0
   -2.0471    0.0782   -0.2002 C   0  0  0  0  0  0  0  0  0  0  0  0
   -1.6327    0.1964   -1.3430 O   0  0  0  0  0  0  0  0  0  0  0  0
   -1.2230   -0.0210    0.8989 N   0  0  0  0  0  0  0  0  0  0  0  0
    0.0443   -0.0166    0.7074 C   0  0  0  0  0  0  0  0  0  0  0  0
    0.9159    0.0746   -0.7998 S   0  0  0  0  0  0  0  0  0  0  0  0
    0.8902   -0.0801    1.7697 N   0  0  0  0  0  0  0  0  0  0  0  0
    2.2356   -0.0757    1.5426 C   0  0  0  0  0  0  0  0  0  0  0  0
    3.0680   -0.0667    2.4122 O   0  0  0  0  0  0  0  0  0  0  0  0
    2.5431   -0.0505    0.0370 C   0  0  2  0  0  0  0  0  0  0  0  0
    3.2511    1.0850   -0.3293 O   0  0  0  0  0  0  0  0  0  0  0  0
    4.6514    1.1338   -0.0392 C   0  0  2  0  0  0  0  0  0  0  0  0
    5.1681    2.4068   -0.6722 C   0  0  0  0  0  0  0  0  0  0  0  0
    4.5539    3.5077   -0.0498 O   0  0  0  0  0  0  0  0  0  0  0  0
    5.3591   -0.1055   -0.5917 C   0  0  1  0  0  0  0  0  0  0  0  0
    6.7107   -0.1305   -0.1967 O   0  0  0  0  0  0  0  0  0  0  0  0
    4.6987   -1.3635   -0.0453 C   0  0  2  0  0  0  0  0  0  0  0  0
    5.2325   -2.5304   -0.6208 O   0  0  0  0  0  0  0  0  0  0  0  0
    3.2172   -1.3550   -0.3977 C   0  0  1  0  0  0  0  0  0  0  0  0
    2.4949   -2.3803    0.2213 O   0  0  0  0  0  0  0  0  0  0  0  0
   -4.0567    0.3317   -1.9297 H   0  0  0  0  0  0  0  0  0  0  0  0
   -6.3813    0.4536   -2.7223 H   0  0  0  0  0  0  0  0  0  0  0  0
   -8.7932    0.3841   -2.2430 H   0  0  0  0  0  0  0  0  0  0  0  0
   -9.5960    0.0399    0.0751 H   0  0  0  0  0  0  0  0  0  0  0  0
   -7.9951   -0.2353    1.9198 H   0  0  0  0  0  0  0  0  0  0  0  0
   -5.6460   -0.3499    2.7130 H   0  0  0  0  0  0  0  0  0  0  0  0
   -3.2458   -0.2717    2.2360 H   0  0  0  0  0  0  0  0  0  0  0  0
    0.5128   -0.1017    2.7101 H   0  0  0  0  0  0  0  0  0  0  0  0
    3.1437   -1.4164   -1.4951 H   0  0  0  0  0  0  0  0  0  0  0  0
    4.8163    1.1856    1.0434 H   0  0  0  0  0  0  0  0  0  0  0  0
    6.2571    2.4293   -0.5470 H   0  0  0  0  0  0  0  0  0  0  0  0
    4.9678    2.3782   -1.7522 H   0  0  0  0  0  0  0  0  0  0  0  0
    5.2653   -0.1099   -1.6872 H   0  0  0  0  0  0  0  0  0  0  0  0
    4.9207    4.3098   -0.4325 H   0  0  0  0  0  0  0  0  0  0  0  0
    7.2490    0.2732   -0.8828 H   0  0  0  0  0  0  0  0  0  0  0  0
    4.8193   -1.3792    1.0465 H   0  0  0  0  0  0  0  0  0  0  0  0
    6.1441   -2.6247   -0.3257 H   0  0  0  0  0  0  0  0  0  0  0  0
    2.8500   -3.2296   -0.0624 H   0  0  0  0  0  0  0  0  0  0  0  0
  1  2  2  0
  1 10  1  0
  2  3  1  0
  2  7  1  0
  3  4  2  0
  4  5  1  0
  5  6  2  0
  6  7  1  0
  7  8  2  0
  8  9  1  0
  9 10  2  0
 10 11  1  0
 11 12  2  0
 11 13  1  0
 13 14  2  0
 14 15  1  0
 14 16  1  0
 15 19  1  0
 16 17  1  0
 17 18  2  0
 17 19  1  0
 19 20  1  1
 19 28  1  0
 20 21  1  0
 21 22  1  0
 21 24  1  0
 22 23  1  0
 24 25  1  0
 24 26  1  0
 26 27  1  0
 26 28  1  0
 28 29  1  0
  1 30  1  0
  3 31  1  0
  4 32  1  0
  5 33  1  0
  6 34  1  0
  8 35  1  0
  9 36  1  0
 16 37  1  0
 28 38  1  6
 21 39  1  1
 22 40  1  0
 22 41  1  0
 24 42  1  6
 23 43  1  0
 25 44  1  0
 26 45  1  1
 27 46  1  0
 29 47  1  0
M  END
