
     RDKit          3D

 70 72  0  0  0  0  0  0  0  0999 V2000
    3.1964   -1.1092    0.3495 O   0  0  0  0  0  0  0  0  0  0  0  0
    2.4626   -1.2406   -0.9074 S   0  0  1  0  0  0  0  0  0  0  0  0
    3.2271   -1.3143   -2.1527 O   0  0  0  0  0  0  0  0  0  0  0  0
    1.4212   -2.7112   -0.7914 C   0  0  0  0  0  0  0  0  0  0  0  0
    2.2988   -3.9111   -0.6362 C   0  0  0  0  0  0  0  0  0  0  0  0
    2.7454   -4.5993   -1.7609 C   0  0  0  0  0  0  0  0  0  0  0  0
    3.5705   -5.7062   -1.6238 C   0  0  0  0  0  0  0  0  0  0  0  0
    3.9652   -6.1273   -0.3605 C   0  0  0  0  0  0  0  0  0  0  0  0
    3.5289   -5.4395    0.7646 C   0  0  0  0  0  0  0  0  0  0  0  0
    2.7028   -4.3333    0.6275 C   0  0  0  0  0  0  0  0  0  0  0  0
    1.2459    0.0779   -1.0644 C   0  0  0  0  0  0  0  0  0  0  0  0
    1.9019    1.3557   -1.5974 C   0  0  2  0  0  0  0  0  0  0  0  0
    3.1341    1.6535   -0.9320 N   0  0  0  0  0  0  0  0  0  0  0  0
    3.1446    1.9572    0.3931 C   0  0  0  0  0  0  0  0  0  0  0  0
    2.0945    2.0284    1.0216 O   0  0  0  0  0  0  0  0  0  0  0  0
    4.3615    2.1900    0.9727 N   0  0  0  0  0  0  0  0  0  0  0  0
    5.6127    1.7294    0.3896 C   0  0  0  0  0  0  0  0  0  0  0  0
    6.7738    2.5296    0.9534 C   0  0  0  0  0  0  0  0  0  0  0  0
    6.8073    2.4986    2.3594 O   0  0  0  0  0  0  0  0  0  0  0  0
    5.6125    3.0280    2.8883 C   0  0  0  0  0  0  0  0  0  0  0  0
    4.3993    2.2463    2.4271 C   0  0  0  0  0  0  0  0  0  0  0  0
    0.9620    2.5763   -1.5969 C   0  0  0  0  0  0  0  0  0  0  0  0
    1.4113    3.7015   -1.4713 O   0  0  0  0  0  0  0  0  0  0  0  0
   -0.3362    2.3175   -1.7994 N   0  0  0  0  0  0  0  0  0  0  0  0
   -1.3581    3.3466   -1.8705 C   0  0  1  0  0  0  0  0  0  0  0  0
   -1.5008    3.9122   -3.2774 C   0  0  0  0  0  0  0  0  0  0  0  0
   -2.6796    2.7627   -1.3882 C   0  0  0  0  0  0  0  0  0  0  0  0
   -2.5532    2.2234   -0.0604 N   0  0  0  0  0  0  0  0  0  0  0  0
   -3.5248    1.4758    0.5415 C   0  0  0  0  0  0  0  0  0  0  0  0
   -3.3972    1.1331    1.8990 C   0  0  0  0  0  0  0  0  0  0  0  0
   -4.3360    0.3405    2.5288 C   0  0  0  0  0  0  0  0  0  0  0  0
   -4.6533    1.0090   -0.1481 C   0  0  0  0  0  0  0  0  0  0  0  0
   -5.5915    0.2084    0.4853 C   0  0  0  0  0  0  0  0  0  0  0  0
   -5.4291   -0.1277    1.8156 C   0  0  0  0  0  0  0  0  0  0  0  0
   -6.4065   -0.8844    2.4649 O   0  0  0  0  0  0  0  0  0  0  0  0
   -6.2628   -2.2122    2.4512 C   0  0  1  0  0  0  0  0  0  0  0  0
   -5.1370   -2.6195    3.0439 F   0  0  0  0  0  0  0  0  0  0  0  0
   -7.2879   -2.7387    3.1050 F   0  0  0  0  0  0  0  0  0  0  0  0
   -6.2507   -2.7214    1.2165 F   0  0  0  0  0  0  0  0  0  0  0  0
    0.7567   -2.5613    0.0608 H   0  0  0  0  0  0  0  0  0  0  0  0
    0.8221   -2.7501   -1.7022 H   0  0  0  0  0  0  0  0  0  0  0  0
    2.4351   -4.2770   -2.7470 H   0  0  0  0  0  0  0  0  0  0  0  0
    3.9030   -6.2416   -2.5036 H   0  0  0  0  0  0  0  0  0  0  0  0
    4.6066   -6.9923   -0.2529 H   0  0  0  0  0  0  0  0  0  0  0  0
    3.8301   -5.7661    1.7513 H   0  0  0  0  0  0  0  0  0  0  0  0
    2.3609   -3.8044    1.5081 H   0  0  0  0  0  0  0  0  0  0  0  0
    0.7854    0.2088   -0.0865 H   0  0  0  0  0  0  0  0  0  0  0  0
    0.4975   -0.3057   -1.7603 H   0  0  0  0  0  0  0  0  0  0  0  0
    2.1564    1.1808   -2.6458 H   0  0  0  0  0  0  0  0  0  0  0  0
    3.9581    1.7093   -1.5015 H   0  0  0  0  0  0  0  0  0  0  0  0
    5.7540    0.6590    0.5798 H   0  0  0  0  0  0  0  0  0  0  0  0
    5.6328    1.8783   -0.6890 H   0  0  0  0  0  0  0  0  0  0  0  0
    7.7117    2.1097    0.5884 H   0  0  0  0  0  0  0  0  0  0  0  0
    6.7025    3.5656    0.5937 H   0  0  0  0  0  0  0  0  0  0  0  0
    5.6832    2.9811    3.9756 H   0  0  0  0  0  0  0  0  0  0  0  0
    5.5001    4.0828    2.6008 H   0  0  0  0  0  0  0  0  0  0  0  0
    3.5030    2.7336    2.8029 H   0  0  0  0  0  0  0  0  0  0  0  0
    4.4281    1.2324    2.8455 H   0  0  0  0  0  0  0  0  0  0  0  0
   -0.6362    1.3727   -1.9767 H   0  0  0  0  0  0  0  0  0  0  0  0
   -1.0604    4.1518   -1.1938 H   0  0  0  0  0  0  0  0  0  0  0  0
   -1.8115    3.1358   -3.9785 H   0  0  0  0  0  0  0  0  0  0  0  0
   -2.2441    4.7097   -3.3009 H   0  0  0  0  0  0  0  0  0  0  0  0
   -0.5554    4.3274   -3.6238 H   0  0  0  0  0  0  0  0  0  0  0  0
   -3.4495    3.5418   -1.4564 H   0  0  0  0  0  0  0  0  0  0  0  0
   -2.9809    1.9659   -2.0759 H   0  0  0  0  0  0  0  0  0  0  0  0
   -1.9307    2.7186    0.5577 H   0  0  0  0  0  0  0  0  0  0  0  0
   -2.5456    1.4933    2.4639 H   0  0  0  0  0  0  0  0  0  0  0  0
   -4.2176    0.1000    3.5775 H   0  0  0  0  0  0  0  0  0  0  0  0
   -4.8174    1.2683   -1.1847 H   0  0  0  0  0  0  0  0  0  0  0  0
   -6.4588   -0.1319   -0.0659 H   0  0  0  0  0  0  0  0  0  0  0  0
  1  2  2  0
  2  3  2  0
  2  4  1  1
  2 11  1  0
  4  5  1  0
  4 40  1  0
  4 41  1  0
  5  6  2  0
  5 10  1  0
  6  7  1  0
  6 42  1  0
  7  8  2  0
  7 43  1  0
  8  9  1  0
  8 44  1  0
  9 10  2  0
  9 45  1  0
 10 46  1  0
 11 12  1  0
 11 47  1  0
 11 48  1  0
 12 13  1  0
 12 22  1  0
 12 49  1  6
 13 14  1  0
 13 50  1  0
 14 15  2  0
 14 16  1  0
 16 17  1  0
 16 21  1  0
 17 18  1  0
 17 51  1  0
 17 52  1  0
 18 19  1  0
 18 53  1  0
 18 54  1  0
 19 20  1  0
 20 21  1  0
 20 55  1  0
 20 56  1  0
 21 57  1  0
 21 58  1  0
 22 23  2  0
 22 24  1  0
 24 25  1  0
 24 59  1  0
 25 26  1  0
 25 27  1  0
 25 60  1  1
 26 61  1  0
 26 62  1  0
 26 63  1  0
 27 28  1  0
 27 64  1  0
 27 65  1  0
 28 29  1  0
 28 66  1  0
 29 30  2  0
 29 32  1  0
 30 31  1  0
 30 67  1  0
 31 34  2  0
 31 68  1  0
 32 33  2  0
 32 69  1  0
 33 34  1  0
 33 70  1  0
 34 35  1  0
 35 36  1  0
 36 37  1  1
 36 38  1  0
 36 39  1  0
M  END
