
     RDKit          3D

 56 57  0  0  0  0  0  0  0  0999 V2000
   -2.3712    0.5853    1.5179 O   0  0  0  0  0  0  0  0  0  0  0  0
   -1.2045    1.1985    0.8238 P   0  0  2  0  0  0  0  0  0  0  0  0
    0.0913    1.1379    1.8040 O   0  0  0  0  0  0  0  0  0  0  0  0
   -1.4768    2.9525    0.3502 C   0  0  1  0  0  0  0  0  0  0  0  0
   -2.6131    3.0680   -0.5511 N   0  0  0  0  0  0  0  0  0  0  0  0
   -1.6853    3.8139    1.5894 C   0  0  0  0  0  0  0  0  0  0  0  0
   -0.6861    0.3485   -0.6942 C   0  0  0  0  0  0  0  0  0  0  0  0
   -0.5623   -1.1839   -0.5127 C   0  0  1  0  0  0  0  0  0  0  0  0
   -1.5162   -1.9443   -1.4421 C   0  0  0  0  0  0  0  0  0  0  0  0
   -2.9554   -1.5975   -1.1749 C   0  0  0  0  0  0  0  0  0  0  0  0
   -3.6452   -0.7038   -1.9900 C   0  0  0  0  0  0  0  0  0  0  0  0
   -4.9603   -0.3516   -1.7124 C   0  0  0  0  0  0  0  0  0  0  0  0
   -5.6097   -0.9014   -0.6168 C   0  0  0  0  0  0  0  0  0  0  0  0
   -4.9359   -1.8038    0.1972 C   0  0  0  0  0  0  0  0  0  0  0  0
   -3.6209   -2.1430   -0.0795 C   0  0  0  0  0  0  0  0  0  0  0  0
    0.8838   -1.5714   -0.7735 C   0  0  0  0  0  0  0  0  0  0  0  0
    1.2780   -1.9251   -1.8728 O   0  0  0  0  0  0  0  0  0  0  0  0
    1.6990   -1.4252    0.2902 N   0  0  0  0  0  0  0  0  0  0  0  0
    3.1228   -1.5841    0.2196 C   0  0  2  0  0  0  0  0  0  0  0  0
    3.5597   -2.8378    0.9597 C   0  0  0  0  0  0  0  0  0  0  0  0
    2.8205   -3.5608    1.5735 O   0  0  0  0  0  0  0  0  0  0  0  0
    4.8641   -3.0343    0.8422 O   0  0  0  0  0  0  0  0  0  0  0  0
    3.8588   -0.3418    0.7556 C   0  0  0  0  0  0  0  0  0  0  0  0
    3.3418    0.9372    0.1536 C   0  0  0  0  0  0  0  0  0  0  0  0
    3.1806    1.0851   -1.2229 C   0  0  0  0  0  0  0  0  0  0  0  0
    2.6886    2.2677   -1.7574 C   0  0  0  0  0  0  0  0  0  0  0  0
    2.3522    3.3302   -0.9270 C   0  0  0  0  0  0  0  0  0  0  0  0
    2.5280    3.2045    0.4440 C   0  0  0  0  0  0  0  0  0  0  0  0
    3.0177    2.0148    0.9768 C   0  0  0  0  0  0  0  0  0  0  0  0
    0.9110    1.5079    1.4416 H   0  0  0  0  0  0  0  0  0  0  0  0
   -0.5872    3.3069   -0.1813 H   0  0  0  0  0  0  0  0  0  0  0  0
   -2.4152    2.6651   -1.4571 H   0  0  0  0  0  0  0  0  0  0  0  0
   -3.4225    2.5869   -0.1773 H   0  0  0  0  0  0  0  0  0  0  0  0
   -0.8218    3.7836    2.2531 H   0  0  0  0  0  0  0  0  0  0  0  0
   -1.8467    4.8486    1.2887 H   0  0  0  0  0  0  0  0  0  0  0  0
   -2.5582    3.4843    2.1541 H   0  0  0  0  0  0  0  0  0  0  0  0
   -1.4232    0.5762   -1.4653 H   0  0  0  0  0  0  0  0  0  0  0  0
    0.2476    0.7999   -1.0434 H   0  0  0  0  0  0  0  0  0  0  0  0
   -0.8155   -1.4630    0.5152 H   0  0  0  0  0  0  0  0  0  0  0  0
   -1.2637   -1.7221   -2.4803 H   0  0  0  0  0  0  0  0  0  0  0  0
   -1.3646   -3.0171   -1.2999 H   0  0  0  0  0  0  0  0  0  0  0  0
   -3.1527   -0.2803   -2.8582 H   0  0  0  0  0  0  0  0  0  0  0  0
   -5.4784    0.3464   -2.3577 H   0  0  0  0  0  0  0  0  0  0  0  0
   -6.6362   -0.6339   -0.4010 H   0  0  0  0  0  0  0  0  0  0  0  0
   -5.4381   -2.2437    1.0495 H   0  0  0  0  0  0  0  0  0  0  0  0
   -3.1033   -2.8455    0.5644 H   0  0  0  0  0  0  0  0  0  0  0  0
    1.2932   -1.1880    1.1826 H   0  0  0  0  0  0  0  0  0  0  0  0
    3.3847   -1.7270   -0.8310 H   0  0  0  0  0  0  0  0  0  0  0  0
    5.1311   -3.8285    1.3296 H   0  0  0  0  0  0  0  0  0  0  0  0
    3.7592   -0.2952    1.8430 H   0  0  0  0  0  0  0  0  0  0  0  0
    4.9247   -0.4459    0.5447 H   0  0  0  0  0  0  0  0  0  0  0  0
    3.4356    0.2725   -1.8928 H   0  0  0  0  0  0  0  0  0  0  0  0
    2.5633    2.3582   -2.8286 H   0  0  0  0  0  0  0  0  0  0  0  0
    1.9621    4.2485   -1.3452 H   0  0  0  0  0  0  0  0  0  0  0  0
    2.2843    4.0275    1.1038 H   0  0  0  0  0  0  0  0  0  0  0  0
    3.1627    1.9286    2.0485 H   0  0  0  0  0  0  0  0  0  0  0  0
  1  2  2  0
  7  2  1  0
  2  3  1  1
  2  4  1  0
  3 30  1  0
  4  5  1  0
  4  6  1  0
  4 31  1  6
  5 32  1  0
  5 33  1  0
  6 34  1  0
  6 35  1  0
  6 36  1  0
  8  7  1  0
  7 37  1  0
  7 38  1  0
  9  8  1  0
  8 16  1  0
  8 39  1  1
 10  9  1  0
  9 40  1  0
  9 41  1  0
 15 10  1  0
 11 10  2  0
 12 11  1  0
 11 42  1  0
 13 12  2  0
 12 43  1  0
 13 14  1  0
 13 44  1  0
 14 15  2  0
 14 45  1  0
 15 46  1  0
 17 16  2  0
 16 18  1  0
 19 18  1  0
 18 47  1  0
 20 19  1  0
 19 23  1  0
 19 48  1  6
 21 20  2  0
 20 22  1  0
 22 49  1  0
 23 24  1  0
 23 50  1  0
 23 51  1  0
 25 24  2  0
 24 29  1  0
 25 26  1  0
 25 52  1  0
 26 27  2  0
 26 53  1  0
 27 28  1  0
 27 54  1  0
 29 28  2  0
 28 55  1  0
 29 56  1  0
M  END
