
     RDKit          3D

 48 50  0  0  0  0  0  0  0  0999 V2000
   -3.1507    1.4680   -0.4662 C   0  0  0  0  0  0  0  0  0  0  0  0
   -1.4716    0.8476   -2.6486 C   0  0  0  0  0  0  0  0  0  0  0  0
   -2.4933    0.2254   -0.5436 O   0  0  0  0  0  0  0  0  0  0  0  0
   -1.6342    0.0080   -1.5584 C   0  0  0  0  0  0  0  0  0  0  0  0
   -0.5537    0.5466   -3.6535 C   0  0  0  0  0  0  0  0  0  0  0  0
    0.2022   -0.6124   -3.5772 C   0  0  0  0  0  0  0  0  0  0  0  0
    1.1213   -1.0001   -4.4884 O   0  0  0  0  0  0  0  0  0  0  0  0
    1.4201   -0.1184   -5.5466 C   0  0  0  0  0  0  0  0  0  0  0  0
    0.0324   -1.4546   -2.4763 C   0  0  0  0  0  0  0  0  0  0  0  0
   -0.8556   -1.1562   -1.4610 C   0  0  0  0  0  0  0  0  0  0  0  0
   -0.9541   -2.0353   -0.2398 C   0  0  0  0  0  0  0  0  0  0  0  0
   -0.6000   -1.3520    1.0421 C   0  0  0  0  0  0  0  0  0  0  0  0
   -1.3952   -1.2786    2.0704 N   0  0  0  0  0  0  0  0  0  0  0  0
   -0.6765   -0.6043    3.0184 C   0  0  0  0  0  0  0  0  0  0  0  0
   -0.9540   -0.2157    4.3367 C   0  0  0  0  0  0  0  0  0  0  0  0
   -2.1411   -0.4539    4.9218 N   0  0  0  0  0  0  0  0  0  0  0  0
    0.5806   -0.2718    2.5405 C   0  0  0  0  0  0  0  0  0  0  0  0
    1.5360    0.3710    3.2031 N   0  0  0  0  0  0  0  0  0  0  0  0
    1.1553    0.6786    4.4302 C   0  0  0  0  0  0  0  0  0  0  0  0
   -0.0100    0.4271    5.0225 N   0  0  0  0  0  0  0  0  0  0  0  0
    0.6237   -0.7625    1.2689 N   0  0  0  0  0  0  0  0  0  0  0  0
    1.7753   -0.6696    0.3952 C   0  0  0  0  0  0  0  0  0  0  0  0
    1.8515    0.6385   -0.3804 C   0  0  0  0  0  0  0  0  0  0  0  0
    2.9968    0.6248   -1.3840 C   0  0  0  0  0  0  0  0  0  0  0  0
    3.0495    1.8906   -2.2267 C   0  0  0  0  0  0  0  0  0  0  0  0
   -3.7193    1.4599    0.4600 H   0  0  0  0  0  0  0  0  0  0  0  0
   -2.4463    2.3038   -0.4366 H   0  0  0  0  0  0  0  0  0  0  0  0
   -3.8438    1.6249   -1.2981 H   0  0  0  0  0  0  0  0  0  0  0  0
   -0.4547    1.2403   -4.4765 H   0  0  0  0  0  0  0  0  0  0  0  0
    2.2178   -0.5794   -6.1228 H   0  0  0  0  0  0  0  0  0  0  0  0
    0.5640    0.0405   -6.2083 H   0  0  0  0  0  0  0  0  0  0  0  0
    1.7684    0.8535   -5.1854 H   0  0  0  0  0  0  0  0  0  0  0  0
    0.6426   -2.3488   -2.4099 H   0  0  0  0  0  0  0  0  0  0  0  0
   -0.3109   -2.9093   -0.3795 H   0  0  0  0  0  0  0  0  0  0  0  0
   -1.9676   -2.4177   -0.1100 H   0  0  0  0  0  0  0  0  0  0  0  0
   -2.2375   -0.2868    5.9067 H   0  0  0  0  0  0  0  0  0  0  0  0
   -2.8021   -1.0610    4.4737 H   0  0  0  0  0  0  0  0  0  0  0  0
    1.8835    1.2024    5.0396 H   0  0  0  0  0  0  0  0  0  0  0  0
    1.7582   -1.5190   -0.2886 H   0  0  0  0  0  0  0  0  0  0  0  0
    2.6629   -0.7842    1.0197 H   0  0  0  0  0  0  0  0  0  0  0  0
    1.9731    1.4650    0.3246 H   0  0  0  0  0  0  0  0  0  0  0  0
    0.9112    0.8082   -0.9096 H   0  0  0  0  0  0  0  0  0  0  0  0
    2.8833   -0.2417   -2.0430 H   0  0  0  0  0  0  0  0  0  0  0  0
    3.9486    0.4907   -0.8608 H   0  0  0  0  0  0  0  0  0  0  0  0
    3.8665    1.8557   -2.9476 H   0  0  0  0  0  0  0  0  0  0  0  0
    2.1193    2.0245   -2.7823 H   0  0  0  0  0  0  0  0  0  0  0  0
    3.1913    2.7772   -1.6068 H   0  0  0  0  0  0  0  0  0  0  0  0
   -2.0455    1.7590   -2.7428 H   0  0  0  0  0  0  0  0  0  0  0  0
  1  3  1  0
  1 26  1  0
  1 27  1  0
  1 28  1  0
  2  4  2  0
  2  5  1  0
  2 48  1  0
  3  4  1  0
  4 10  1  0
  5  6  2  0
  5 29  1  0
  6  7  1  0
  6  9  1  0
  7  8  1  0
  8 30  1  0
  8 31  1  0
  8 32  1  0
  9 10  2  0
  9 33  1  0
 10 11  1  0
 11 12  1  0
 11 34  1  0
 11 35  1  0
 12 13  2  0
 12 21  1  0
 13 14  1  0
 14 15  2  0
 14 17  1  0
 15 16  1  0
 15 20  1  0
 16 36  1  0
 16 37  1  0
 17 18  2  0
 17 21  1  0
 18 19  1  0
 19 20  2  0
 19 38  1  0
 21 22  1  0
 22 23  1  0
 22 39  1  0
 22 40  1  0
 23 24  1  0
 23 41  1  0
 23 42  1  0
 24 25  1  0
 24 43  1  0
 24 44  1  0
 25 45  1  0
 25 46  1  0
 25 47  1  0
M  END
