
     RDKit          3D

 18 17  0  0  0  0  0  0  0  0999 V2000
   -0.0804   -0.1537    3.4252 S   0  0  0  0  0  0  0  0  0  0  0  0
    0.7360   -0.2428    1.7953 C   0  0  0  0  0  0  0  0  0  0  0  0
   -0.3235   -0.1281    0.7095 C   0  0  1  0  0  0  0  0  0  0  0  0
   -1.1579    0.9904    0.9117 O   0  0  0  0  0  0  0  0  0  0  0  0
    0.3229   -0.1216   -0.6849 C   0  0  2  0  0  0  0  0  0  0  0  0
    1.1335    1.0143   -0.8880 O   0  0  0  0  0  0  0  0  0  0  0  0
   -0.7340   -0.2597   -1.7709 C   0  0  0  0  0  0  0  0  0  0  0  0
    0.0807   -0.1490   -3.4004 S   0  0  0  0  0  0  0  0  0  0  0  0
    0.9535   -0.5978    4.1476 H   0  0  0  0  0  0  0  0  0  0  0  0
    1.2544   -1.1968    1.7036 H   0  0  0  0  0  0  0  0  0  0  0  0
    1.4731    0.5567    1.7059 H   0  0  0  0  0  0  0  0  0  0  0  0
   -0.9754   -1.0053    0.7705 H   0  0  0  0  0  0  0  0  0  0  0  0
   -0.6105    1.7653    1.0802 H   0  0  0  0  0  0  0  0  0  0  0  0
    0.9935   -0.9846   -0.7458 H   0  0  0  0  0  0  0  0  0  0  0  0
    0.5695    1.7788   -1.0494 H   0  0  0  0  0  0  0  0  0  0  0  0
   -1.2302   -1.2255   -1.6807 H   0  0  0  0  0  0  0  0  0  0  0  0
   -1.4892    0.5227   -1.6803 H   0  0  0  0  0  0  0  0  0  0  0  0
   -0.9450   -0.6080   -4.1254 H   0  0  0  0  0  0  0  0  0  0  0  0
  1  2  1  0
  1  9  1  0
  2  3  1  0
  2 10  1  0
  2 11  1  0
  3  4  1  0
  3  5  1  0
  3 12  1  6
  4 13  1  0
  5  6  1  0
  5  7  1  0
  5 14  1  1
  6 15  1  0
  7  8  1  0
  7 16  1  0
  7 17  1  0
  8 18  1  0
M  END
