
     RDKit          3D

 56 59  0  0  0  0  0  0  0  0999 V2000
    2.2702   -0.4052   -1.7079 C   0  0  0  0  0  0  0  0  0  0  0  0
    2.1493   -0.2488   -0.1870 C   0  0  2  0  0  0  0  0  0  0  0  0
    1.4785   -1.4845    0.4087 C   0  0  0  0  0  0  0  0  0  0  0  0
    0.0220   -1.5812   -0.0539 C   0  0  0  0  0  0  0  0  0  0  0  0
   -0.8032   -0.3201    0.2276 C   0  0  2  0  0  0  0  0  0  0  0  0
   -2.2669   -0.4388   -0.2690 C   0  0  1  0  0  0  0  0  0  0  0  0
   -2.3347   -0.8202   -1.7578 C   0  0  0  0  0  0  0  0  0  0  0  0
   -2.9827   -1.5152    0.5748 C   0  0  0  0  0  0  0  0  0  0  0  0
   -4.4944   -1.5639    0.3944 C   0  0  0  0  0  0  0  0  0  0  0  0
   -5.1104   -0.2167    0.7136 C   0  0  2  0  0  0  0  0  0  0  0  0
   -6.5101   -0.3096    0.5419 O   0  0  0  0  0  0  0  0  0  0  0  0
   -4.4947    0.8543   -0.1832 C   0  0  0  0  0  0  0  0  0  0  0  0
   -2.9916    0.8843   -0.0841 C   0  0  0  0  0  0  0  0  0  0  0  0
   -2.3520    2.0307    0.1421 C   0  0  0  0  0  0  0  0  0  0  0  0
   -0.8686    2.1830    0.2159 C   0  0  0  0  0  0  0  0  0  0  0  0
   -0.1166    0.9549   -0.2869 C   0  0  1  0  0  0  0  0  0  0  0  0
    1.3237    0.9872    0.1986 C   0  0  2  0  0  0  0  0  0  0  0  0
    2.2104    2.1642   -0.2056 C   0  0  0  0  0  0  0  0  0  0  0  0
    3.6526    1.6455   -0.0091 C   0  0  0  0  0  0  0  0  0  0  0  0
    3.5324    0.1644    0.4119 C   0  0  1  0  0  0  0  0  0  0  0  0
    3.4446    0.0373    1.8157 O   0  0  0  0  0  0  0  0  0  0  0  0
    4.6766   -0.7169   -0.0897 C   0  0  0  0  0  0  0  0  0  0  0  0
    5.3216   -0.4299   -1.0737 O   0  0  0  0  0  0  0  0  0  0  0  0
    4.9808   -1.9603    0.7037 C   0  0  0  0  0  0  0  0  0  0  0  0
    2.7979   -1.3248   -1.9677 H   0  0  0  0  0  0  0  0  0  0  0  0
    1.2915   -0.4654   -2.1806 H   0  0  0  0  0  0  0  0  0  0  0  0
    2.7982    0.4210   -2.1832 H   0  0  0  0  0  0  0  0  0  0  0  0
    2.0000   -2.4001    0.1132 H   0  0  0  0  0  0  0  0  0  0  0  0
    1.5092   -1.4381    1.4998 H   0  0  0  0  0  0  0  0  0  0  0  0
    0.0006   -1.8093   -1.1216 H   0  0  0  0  0  0  0  0  0  0  0  0
   -0.4389   -2.4394    0.4399 H   0  0  0  0  0  0  0  0  0  0  0  0
   -0.8577   -0.2101    1.3214 H   0  0  0  0  0  0  0  0  0  0  0  0
   -2.0039   -1.8455   -1.9275 H   0  0  0  0  0  0  0  0  0  0  0  0
   -3.3516   -0.7466   -2.1424 H   0  0  0  0  0  0  0  0  0  0  0  0
   -1.7138   -0.1617   -2.3675 H   0  0  0  0  0  0  0  0  0  0  0  0
   -2.5683   -2.4979    0.3404 H   0  0  0  0  0  0  0  0  0  0  0  0
   -2.7605   -1.3334    1.6323 H   0  0  0  0  0  0  0  0  0  0  0  0
   -4.7511   -1.8526   -0.6308 H   0  0  0  0  0  0  0  0  0  0  0  0
   -4.9117   -2.3335    1.0496 H   0  0  0  0  0  0  0  0  0  0  0  0
   -4.8694    0.0323    1.7591 H   0  0  0  0  0  0  0  0  0  0  0  0
   -6.9016    0.5282    0.8079 H   0  0  0  0  0  0  0  0  0  0  0  0
   -4.8077    0.6487   -1.2143 H   0  0  0  0  0  0  0  0  0  0  0  0
   -4.8974    1.8386    0.0740 H   0  0  0  0  0  0  0  0  0  0  0  0
   -2.9405    2.9338    0.2839 H   0  0  0  0  0  0  0  0  0  0  0  0
   -0.5636    3.0695   -0.3493 H   0  0  0  0  0  0  0  0  0  0  0  0
   -0.5792    2.3915    1.2546 H   0  0  0  0  0  0  0  0  0  0  0  0
   -0.1425    0.9644   -1.3829 H   0  0  0  0  0  0  0  0  0  0  0  0
    1.2637    0.9889    1.2944 H   0  0  0  0  0  0  0  0  0  0  0  0
    2.0404    2.4413   -1.2493 H   0  0  0  0  0  0  0  0  0  0  0  0
    2.0069    3.0538    0.3913 H   0  0  0  0  0  0  0  0  0  0  0  0
    4.2330    1.7386   -0.9252 H   0  0  0  0  0  0  0  0  0  0  0  0
    4.1943    2.2102    0.7535 H   0  0  0  0  0  0  0  0  0  0  0  0
    4.1473    0.5578    2.2183 H   0  0  0  0  0  0  0  0  0  0  0  0
    4.0827   -2.4565    1.0678 H   0  0  0  0  0  0  0  0  0  0  0  0
    5.5665   -2.6551    0.1052 H   0  0  0  0  0  0  0  0  0  0  0  0
    5.5677   -1.6923    1.5850 H   0  0  0  0  0  0  0  0  0  0  0  0
 12 13  1  0
 12 10  1  0
 14 15  1  0
 14 13  2  0
 15 16  1  0
 13  6  1  0
  6  7  1  6
 18 19  1  0
 18 17  1  0
 11 10  1  0
 16 17  1  0
 16  5  1  0
 10  9  1  0
  6  5  1  0
  6  8  1  0
 19 20  1  0
  2  1  1  6
 17  2  1  0
  9  8  1  0
  5  4  1  0
  2 20  1  0
  2  3  1  0
  4  3  1  0
 20 22  1  0
 20 21  1  1
 23 22  2  0
 22 24  1  0
  1 25  1  0
  1 26  1  0
  1 27  1  0
  3 28  1  0
  3 29  1  0
  4 30  1  0
  4 31  1  0
  5 32  1  1
  7 33  1  0
  7 34  1  0
  7 35  1  0
  8 36  1  0
  8 37  1  0
  9 38  1  0
  9 39  1  0
 10 40  1  1
 11 41  1  0
 12 42  1  0
 12 43  1  0
 14 44  1  0
 15 45  1  0
 15 46  1  0
 16 47  1  6
 17 48  1  1
 18 49  1  0
 18 50  1  0
 19 51  1  0
 19 52  1  0
 21 53  1  0
 24 54  1  0
 24 55  1  0
 24 56  1  0
M  END
