
     RDKit          3D

 63 65  0  0  0  0  0  0  0  0999 V2000
   -0.3769   -0.2030   -1.2407 C   0  0  0  0  0  0  0  0  0  0  0  0
    0.3556    0.5057   -1.9124 O   0  0  0  0  0  0  0  0  0  0  0  0
    9.3767    1.0717   -0.0591 O   0  0  0  0  0  0  0  0  0  0  0  0
    8.4644   -0.1988   -1.6466 O   0  0  0  0  0  0  0  0  0  0  0  0
    7.0836    0.6185    0.1113 C   0  0  0  0  0  0  0  0  0  0  0  0
    5.9572   -0.0264   -0.3821 C   0  0  0  0  0  0  0  0  0  0  0  0
    6.9922    1.3970    1.2631 C   0  0  0  0  0  0  0  0  0  0  0  0
    5.7674    1.5101    1.8985 C   0  0  0  0  0  0  0  0  0  0  0  0
    4.6360    0.8690    1.4149 C   0  0  0  0  0  0  0  0  0  0  0  0
    4.7262    0.0893    0.2599 C   0  0  0  0  0  0  0  0  0  0  0  0
    3.6540   -0.6036   -0.3080 N   0  0  0  0  0  0  0  0  0  0  0  0
    2.3501   -0.6175    0.0599 C   0  0  0  0  0  0  0  0  0  0  0  0
    1.8764    0.0293    0.9725 O   0  0  0  0  0  0  0  0  0  0  0  0
    1.5027   -1.5801   -0.7628 C   0  0  0  0  0  0  0  0  0  0  0  0
    0.0974   -1.3093   -0.6157 N   0  0  0  0  0  0  0  0  0  0  0  0
   -0.5921   -1.9078    0.5157 C   0  0  0  0  0  0  0  0  0  0  0  0
   -1.8166   -2.7169    0.1953 C   0  0  0  0  0  0  0  0  0  0  0  0
   -1.9031   -3.8352    0.8318 N   0  0  0  0  0  0  0  0  0  0  0  0
   -3.1393   -4.5006    0.6044 N   0  0  0  0  0  0  0  0  0  0  0  0
   -4.0319   -4.2298    1.7183 C   0  0  0  0  0  0  0  0  0  0  0  0
   -2.8767   -5.9191    0.4836 C   0  0  0  0  0  0  0  0  0  0  0  0
   -2.7832   -2.2120   -0.5927 N   0  0  0  0  0  0  0  0  0  0  0  0
   -2.6849   -1.1530   -1.5685 C   0  0  0  0  0  0  0  0  0  0  0  0
   -1.8704    0.0722   -1.1646 C   0  0  1  0  0  0  0  0  0  0  0  0
   -2.3286    0.7533    0.1442 C   0  0  0  0  0  0  0  0  0  0  0  0
   -3.5483    1.6084   -0.0780 C   0  0  0  0  0  0  0  0  0  0  0  0
   -3.3865    2.9055   -0.5431 C   0  0  0  0  0  0  0  0  0  0  0  0
   -4.8488    1.1282    0.1420 C   0  0  0  0  0  0  0  0  0  0  0  0
   -4.9529   -0.1317    0.5977 O   0  0  0  0  0  0  0  0  0  0  0  0
   -6.2362   -0.6973    0.7636 C   0  0  0  0  0  0  0  0  0  0  0  0
   -5.9448    1.9499   -0.1133 C   0  0  0  0  0  0  0  0  0  0  0  0
   -5.7650    3.2439   -0.5818 C   0  0  0  0  0  0  0  0  0  0  0  0
   -4.4837    3.7148   -0.7936 C   0  0  0  0  0  0  0  0  0  0  0  0
   -4.2400    5.3332   -1.3732 Cl  0  0  0  0  0  0  0  0  0  0  0  0
   10.1835    0.9338   -0.5775 H   0  0  0  0  0  0  0  0  0  0  0  0
    6.0385   -0.6308   -1.2774 H   0  0  0  0  0  0  0  0  0  0  0  0
    7.8532    1.9117    1.6642 H   0  0  0  0  0  0  0  0  0  0  0  0
    5.6835    2.1115    2.7938 H   0  0  0  0  0  0  0  0  0  0  0  0
    3.7004    0.9813    1.9370 H   0  0  0  0  0  0  0  0  0  0  0  0
    3.8924   -1.1618   -1.1148 H   0  0  0  0  0  0  0  0  0  0  0  0
    1.7890   -1.5457   -1.8148 H   0  0  0  0  0  0  0  0  0  0  0  0
    1.7047   -2.5969   -0.4198 H   0  0  0  0  0  0  0  0  0  0  0  0
    0.0975   -2.5836    1.0142 H   0  0  0  0  0  0  0  0  0  0  0  0
   -0.8442   -1.1485    1.2594 H   0  0  0  0  0  0  0  0  0  0  0  0
   -4.2237   -3.1587    1.7921 H   0  0  0  0  0  0  0  0  0  0  0  0
   -4.9861   -4.7296    1.5466 H   0  0  0  0  0  0  0  0  0  0  0  0
   -3.6303   -4.5737    2.6812 H   0  0  0  0  0  0  0  0  0  0  0  0
   -2.3946   -6.3433    1.3754 H   0  0  0  0  0  0  0  0  0  0  0  0
   -3.8173   -6.4463    0.3212 H   0  0  0  0  0  0  0  0  0  0  0  0
   -2.2321   -6.1073   -0.3746 H   0  0  0  0  0  0  0  0  0  0  0  0
   -2.2859   -1.5282   -2.5181 H   0  0  0  0  0  0  0  0  0  0  0  0
   -3.7031   -0.8259   -1.7778 H   0  0  0  0  0  0  0  0  0  0  0  0
   -2.0300    0.7950   -1.9680 H   0  0  0  0  0  0  0  0  0  0  0  0
   -2.5214    0.0166    0.9216 H   0  0  0  0  0  0  0  0  0  0  0  0
   -1.5234    1.3922    0.5142 H   0  0  0  0  0  0  0  0  0  0  0  0
   -2.3854    3.2825   -0.7139 H   0  0  0  0  0  0  0  0  0  0  0  0
   -6.0801   -1.7215    1.0924 H   0  0  0  0  0  0  0  0  0  0  0  0
   -6.8225   -0.1718    1.5220 H   0  0  0  0  0  0  0  0  0  0  0  0
   -6.8009   -0.7124   -0.1722 H   0  0  0  0  0  0  0  0  0  0  0  0
   -6.9553    1.6019    0.0491 H   0  0  0  0  0  0  0  0  0  0  0  0
   -6.6264    3.8689   -0.7743 H   0  0  0  0  0  0  0  0  0  0  0  0
   -3.5404   -2.8675   -0.7355 H   0  0  0  0  0  0  0  0  0  0  0  0
    8.3592    0.4452   -0.6304 C   0  0  0  0  0  0  0  0  0  0  0  0
 32 31  2  0
 32 33  1  0
 31 28  1  0
 30 29  1  0
 34 33  1  0
 33 27  2  0
 28 29  1  0
 28 26  2  0
 27 26  1  0
 26 25  1  0
 25 24  1  0
 21 19  1  0
 24 23  1  0
 24  1  1  0
 23 22  1  0
 22 17  1  0
 19 18  1  0
 19 20  1  0
 17 18  2  0
 17 16  1  0
 16 15  1  0
  1 15  1  0
  1  2  2  0
  4 63  2  0
 15 14  1  0
 13 12  2  0
 63  3  1  0
 63  5  1  0
 12 14  1  0
 12 11  1  0
  6  5  2  0
  6 10  1  0
  5  7  1  0
 11 10  1  0
 10  9  2  0
  7  8  2  0
  9  8  1  0
  3 35  1  0
  6 36  1  0
  7 37  1  0
  8 38  1  0
  9 39  1  0
 11 40  1  0
 14 41  1  0
 14 42  1  0
 16 43  1  0
 16 44  1  0
 20 45  1  0
 20 46  1  0
 20 47  1  0
 21 48  1  0
 21 49  1  0
 21 50  1  0
 23 51  1  0
 23 52  1  0
 24 53  1  6
 25 54  1  0
 25 55  1  0
 27 56  1  0
 30 57  1  0
 30 58  1  0
 30 59  1  0
 31 60  1  0
 32 61  1  0
 22 62  1  0
M  END
