
     RDKit          3D

 17 16  0  0  0  0  0  0  0  0999 V2000
    1.9238   -1.1644   -0.1601 C   0  0  0  0  0  0  0  0  0  0  0  0
    1.6202   -1.8874    0.7992 O   0  0  0  0  0  0  0  0  0  0  0  0
    1.2013   -0.0435   -0.5265 N   0  0  0  0  0  0  0  0  0  0  0  0
    0.0224    0.4006    0.1669 C   0  0  2  0  0  0  0  0  0  0  0  0
   -1.1764   -0.4993   -0.1138 C   0  0  0  0  0  0  0  0  0  0  0  0
   -1.4526   -1.1290   -1.1385 O   0  0  0  0  0  0  0  0  0  0  0  0
   -0.4153    1.8392   -0.2329 C   0  0  0  0  0  0  0  0  0  0  0  0
   -2.0395   -0.5982    0.9313 O   0  0  0  0  0  0  0  0  0  0  0  0
    0.4988    2.8464    0.2339 N   0  0  0  0  0  0  0  0  0  0  0  0
    2.7573   -1.4001   -0.8622 H   0  0  0  0  0  0  0  0  0  0  0  0
    1.4964    0.4973   -1.3078 H   0  0  0  0  0  0  0  0  0  0  0  0
    0.2245    0.3735    1.2834 H   0  0  0  0  0  0  0  0  0  0  0  0
   -0.5737    1.8630   -1.3515 H   0  0  0  0  0  0  0  0  0  0  0  0
   -1.4145    2.0228    0.2596 H   0  0  0  0  0  0  0  0  0  0  0  0
    1.4296    2.6878   -0.0925 H   0  0  0  0  0  0  0  0  0  0  0  0
   -2.7784   -1.1823    0.6913 H   0  0  0  0  0  0  0  0  0  0  0  0
    0.1920    3.7546   -0.0506 H   0  0  0  0  0  0  0  0  0  0  0  0
  1  2  2  0
  1 10  1  0
  1  3  1  0
  3  4  1  0
  3 11  1  0
  4  5  1  0
  4  7  1  0
  4 12  1  1
  5  6  2  0
  5  8  1  0
  7 13  1  0
  7 14  1  0
  7  9  1  0
  9 15  1  0
  8 16  1  0
  9 17  1  0
M  END
