
     RDKit          3D

 44 46  0  0  0  0  0  0  0  0999 V2000
   -2.6475    3.2664    0.4697 C   0  0  0  0  0  0  0  0  0  0  0  0
   -2.7425    2.3108   -0.7239 C   0  0  1  0  0  0  0  0  0  0  0  0
   -1.8740    2.8266   -1.8681 C   0  0  0  0  0  0  0  0  0  0  0  0
   -2.4143    0.8926   -0.3071 C   0  0  0  0  0  0  0  0  0  0  0  0
   -1.1823    0.3210   -0.5401 C   0  0  0  0  0  0  0  0  0  0  0  0
   -0.8391   -0.9823   -0.1545 C   0  0  0  0  0  0  0  0  0  0  0  0
    0.4753   -1.6127   -0.3974 C   0  0  0  0  0  0  0  0  0  0  0  0
    0.5394   -2.8512   -0.5036 O   0  0  0  0  0  0  0  0  0  0  0  0
    1.6038   -0.8900   -0.4664 N   0  0  0  0  0  0  0  0  0  0  0  0
    2.8797   -1.5906   -0.6406 C   0  0  0  0  0  0  0  0  0  0  0  0
    3.8798   -0.5752   -0.1918 C   0  0  0  0  0  0  0  0  0  0  0  0
    5.2534   -0.7103   -0.0693 C   0  0  0  0  0  0  0  0  0  0  0  0
    5.9904    0.3743    0.3908 C   0  0  0  0  0  0  0  0  0  0  0  0
    5.3589    1.5702    0.7220 C   0  0  0  0  0  0  0  0  0  0  0  0
    3.9814    1.7007    0.5937 C   0  0  0  0  0  0  0  0  0  0  0  0
    3.2538    0.6150    0.1340 C   0  0  0  0  0  0  0  0  0  0  0  0
    1.7819    0.5198   -0.1179 C   0  0  0  0  0  0  0  0  0  0  0  0
   -1.8423   -1.7686    0.4408 C   0  0  0  0  0  0  0  0  0  0  0  0
   -1.6599   -3.0510    0.7613 O   0  0  0  0  0  0  0  0  0  0  0  0
   -3.0861   -1.2080    0.7253 C   0  0  0  0  0  0  0  0  0  0  0  0
   -3.3694    0.1020    0.3678 C   0  0  0  0  0  0  0  0  0  0  0  0
   -4.5514    0.6834    0.6082 O   0  0  0  0  0  0  0  0  0  0  0  0
   -5.5661   -0.0512    1.2663 C   0  0  0  0  0  0  0  0  0  0  0  0
   -2.9402    4.2766    0.1771 H   0  0  0  0  0  0  0  0  0  0  0  0
   -3.2907    2.9601    1.2939 H   0  0  0  0  0  0  0  0  0  0  0  0
   -1.6226    3.3110    0.8439 H   0  0  0  0  0  0  0  0  0  0  0  0
   -3.7768    2.3236   -1.0794 H   0  0  0  0  0  0  0  0  0  0  0  0
   -0.8413    2.9975   -1.5563 H   0  0  0  0  0  0  0  0  0  0  0  0
   -1.8623    2.1422   -2.7174 H   0  0  0  0  0  0  0  0  0  0  0  0
   -2.2608    3.7847   -2.2170 H   0  0  0  0  0  0  0  0  0  0  0  0
   -0.4583    0.9022   -1.0897 H   0  0  0  0  0  0  0  0  0  0  0  0
    2.9112   -2.4953   -0.0310 H   0  0  0  0  0  0  0  0  0  0  0  0
    3.0288   -1.8914   -1.6818 H   0  0  0  0  0  0  0  0  0  0  0  0
    1.5025    1.1834   -0.9406 H   0  0  0  0  0  0  0  0  0  0  0  0
    1.1822    0.7939    0.7526 H   0  0  0  0  0  0  0  0  0  0  0  0
    5.7463   -1.6403   -0.3245 H   0  0  0  0  0  0  0  0  0  0  0  0
    7.0641    0.2877    0.4952 H   0  0  0  0  0  0  0  0  0  0  0  0
    5.9450    2.4058    1.0817 H   0  0  0  0  0  0  0  0  0  0  0  0
    3.4923    2.6319    0.8510 H   0  0  0  0  0  0  0  0  0  0  0  0
   -0.8077   -3.3217    0.3427 H   0  0  0  0  0  0  0  0  0  0  0  0
   -3.8239   -1.8356    1.2075 H   0  0  0  0  0  0  0  0  0  0  0  0
   -6.4186    0.6167    1.3566 H   0  0  0  0  0  0  0  0  0  0  0  0
   -5.8667   -0.9318    0.6941 H   0  0  0  0  0  0  0  0  0  0  0  0
   -5.2554   -0.3659    2.2651 H   0  0  0  0  0  0  0  0  0  0  0  0
  1  2  1  0
  2  3  1  0
  2  4  1  0
  4  5  2  0
  4 21  1  0
  5  6  1  0
  6  7  1  0
  6 18  2  0
  7  8  2  0
  7  9  1  0
  9 10  1  0
  9 17  1  0
 10 11  1  0
 11 12  1  0
 11 16  2  0
 12 13  2  0
 13 14  1  0
 14 15  2  0
 15 16  1  0
 16 17  1  0
 18 19  1  0
 18 20  1  0
 20 21  2  0
 21 22  1  0
 22 23  1  0
  1 24  1  0
  1 25  1  0
  1 26  1  0
  2 27  1  6
  3 28  1  0
  3 29  1  0
  3 30  1  0
  5 31  1  0
 10 32  1  0
 10 33  1  0
 17 34  1  0
 17 35  1  0
 12 36  1  0
 13 37  1  0
 14 38  1  0
 15 39  1  0
 19 40  1  0
 20 41  1  0
 23 42  1  0
 23 43  1  0
 23 44  1  0
M  END
