
     RDKit          3D

 21 21  0  0  0  0  0  0  0  0999 V2000
    1.6936   -0.5761   -2.3868 N   0  0  0  0  0  0  0  0  0  0  0  0
    2.0139   -0.2500   -0.9992 C   0  0  2  0  0  0  0  0  0  0  0  0
    0.8320   -0.6132   -0.1169 C   0  0  0  0  0  0  0  0  0  0  0  0
   -0.1152   -1.3478   -0.4058 O   0  0  0  0  0  0  0  0  0  0  0  0
    2.4207    1.2199   -0.8766 C   0  0  0  0  0  0  0  0  0  0  0  0
    3.1219    1.6746   -2.4380 S   0  0  0  0  0  0  0  0  0  0  0  0
    2.4902    0.2017   -3.3359 C   0  0  2  0  0  0  0  0  0  0  0  0
    1.6390    0.7049   -4.4982 C   0  0  0  0  0  0  0  0  0  0  0  0
    3.7092   -0.5288   -3.8919 C   0  0  0  0  0  0  0  0  0  0  0  0
    0.8335   -0.0596    1.1242 O   0  0  0  0  0  0  0  0  0  0  0  0
    1.7677   -1.5615   -2.5532 H   0  0  0  0  0  0  0  0  0  0  0  0
    2.8677   -0.8904   -0.6072 H   0  0  0  0  0  0  0  0  0  0  0  0
    1.5408    1.8680   -0.6456 H   0  0  0  0  0  0  0  0  0  0  0  0
    3.1765    1.3538   -0.0692 H   0  0  0  0  0  0  0  0  0  0  0  0
    0.7514    1.2722   -4.1296 H   0  0  0  0  0  0  0  0  0  0  0  0
    2.2589    1.3789   -5.1379 H   0  0  0  0  0  0  0  0  0  0  0  0
    1.2819   -0.1532   -5.1178 H   0  0  0  0  0  0  0  0  0  0  0  0
    4.3646   -0.9031   -3.0699 H   0  0  0  0  0  0  0  0  0  0  0  0
    3.3902   -1.3961   -4.5212 H   0  0  0  0  0  0  0  0  0  0  0  0
    4.3039    0.1707   -4.5280 H   0  0  0  0  0  0  0  0  0  0  0  0
    0.0425   -0.3499    1.6087 H   0  0  0  0  0  0  0  0  0  0  0  0
  1  2  1  0
  1  7  1  0
  1 11  1  0
  2  3  1  0
  2  5  1  0
  2 12  1  1
  3  4  2  0
  3 10  1  0
  5  6  1  0
  5 13  1  0
  5 14  1  0
  6  7  1  0
  7  8  1  6
  7  9  1  0
  8 15  1  0
  8 16  1  0
  8 17  1  0
  9 18  1  0
  9 19  1  0
  9 20  1  0
 10 21  1  0
M  END
