
     RDKit          3D

 29 30  0  0  0  0  0  0  0  0999 V2000
   -0.3822    1.6773    0.1437 O   0  0  0  0  0  0  0  0  0  0  0  0
   -0.3662    0.4812   -0.0337 C   0  0  0  0  0  0  0  0  0  0  0  0
   -1.4406   -0.3380   -0.1295 N   0  0  0  0  0  0  0  0  0  0  0  0
   -2.7655    0.0258   -0.0482 C   0  0  0  0  0  0  0  0  0  0  0  0
   -3.2171    1.2293    0.0514 N   0  0  0  0  0  0  0  0  0  0  0  0
   -3.9790   -1.2155   -0.0782 S   0  0  0  0  0  0  0  0  0  0  0  0
   -5.1786    0.0093    0.0520 C   0  0  0  0  0  0  0  0  0  0  0  0
   -4.5830    1.2238    0.1098 C   0  0  0  0  0  0  0  0  0  0  0  0
    0.9192   -1.5267   -0.3316 O   0  0  0  0  0  0  0  0  0  0  0  0
    0.9439   -0.3142   -0.1780 C   0  0  0  0  0  0  0  0  0  0  0  0
    2.0257    0.4494   -0.1253 N   0  0  0  0  0  0  0  0  0  0  0  0
    3.3764   -0.0607   -0.2018 C   0  0  1  0  0  0  0  0  0  0  0  0
    4.3592    0.9821   -0.7335 C   0  0  0  0  0  0  0  0  0  0  0  0
    3.9833   -0.4682    1.1410 C   0  0  0  0  0  0  0  0  0  0  0  0
    5.4689   -0.5903    0.8096 C   0  0  0  0  0  0  0  0  0  0  0  0
    5.7403    0.4972   -0.2562 C   0  0  0  0  0  0  0  0  0  0  0  0
   -1.2200   -1.3177   -0.2607 H   0  0  0  0  0  0  0  0  0  0  0  0
   -6.2288   -0.2313    0.0775 H   0  0  0  0  0  0  0  0  0  0  0  0
   -5.1126    2.1615    0.1959 H   0  0  0  0  0  0  0  0  0  0  0  0
    1.8950    1.4366    0.0448 H   0  0  0  0  0  0  0  0  0  0  0  0
    3.3702   -0.9287   -0.8657 H   0  0  0  0  0  0  0  0  0  0  0  0
    4.2949    1.0975   -1.8155 H   0  0  0  0  0  0  0  0  0  0  0  0
    4.1245    1.9547   -0.2913 H   0  0  0  0  0  0  0  0  0  0  0  0
    3.8103    0.3275    1.8718 H   0  0  0  0  0  0  0  0  0  0  0  0
    3.5493   -1.3870    1.5374 H   0  0  0  0  0  0  0  0  0  0  0  0
    5.6732   -1.5804    0.3970 H   0  0  0  0  0  0  0  0  0  0  0  0
    6.1025   -0.4797    1.6895 H   0  0  0  0  0  0  0  0  0  0  0  0
    6.3246    0.0916   -1.0824 H   0  0  0  0  0  0  0  0  0  0  0  0
    6.3157    1.3252    0.1578 H   0  0  0  0  0  0  0  0  0  0  0  0
  1  2  2  0
  2  3  1  0
  2 10  1  0
  3  4  1  0
  3 17  1  0
  4  5  2  0
  4  6  1  0
  5  8  1  0
  6  7  1  0
  7  8  2  0
  7 18  1  0
  8 19  1  0
  9 10  2  0
 10 11  1  0
 11 12  1  0
 11 20  1  0
 12 13  1  0
 12 14  1  0
 12 21  1  6
 13 16  1  0
 13 22  1  0
 13 23  1  0
 14 15  1  0
 14 24  1  0
 14 25  1  0
 15 16  1  0
 15 26  1  0
 15 27  1  0
 16 28  1  0
 16 29  1  0
M  END
