
     RDKit          3D

 26 27  0  0  0  0  0  0  0  0999 V2000
    0.2238    1.4247    0.1734 C   0  0  0  0  0  0  0  0  0  0  0  0
    0.9994    0.3146    0.2269 N   0  0  0  0  0  0  0  0  0  0  0  0
   -1.7415    0.0198    0.5432 C   0  0  2  0  0  0  0  0  0  0  0  0
   -0.9645   -1.1223   -0.1085 C   0  0  1  0  0  0  0  0  0  0  0  0
    0.5235   -1.0658    0.2504 C   0  0  1  0  0  0  0  0  0  0  0  0
    1.3211   -1.9557   -0.6924 C   0  0  0  0  0  0  0  0  0  0  0  0
    2.2325    2.1053    0.3474 C   0  0  0  0  0  0  0  0  0  0  0  0
    2.2954    0.7421    0.3491 C   0  0  0  0  0  0  0  0  0  0  0  0
    0.9381    2.5202    0.2405 N   0  0  0  0  0  0  0  0  0  0  0  0
   -3.1037   -0.2014    0.2841 O   0  0  0  0  0  0  0  0  0  0  0  0
   -1.6286    1.4527   -1.3572 O   0  0  0  0  0  0  0  0  0  0  0  0
   -1.4241   -2.3709    0.3413 O   0  0  0  0  0  0  0  0  0  0  0  0
   -1.2574    1.3587   -0.0011 C   0  0  2  0  0  0  0  0  0  0  0  0
    2.5835   -2.2277   -0.1311 O   0  0  0  0  0  0  0  0  0  0  0  0
   -1.7030    2.1738    0.5841 H   0  0  0  0  0  0  0  0  0  0  0  0
    0.6316   -1.4407    1.2740 H   0  0  0  0  0  0  0  0  0  0  0  0
    3.1244    0.0623    0.4288 H   0  0  0  0  0  0  0  0  0  0  0  0
   -1.5378    0.0055    1.6234 H   0  0  0  0  0  0  0  0  0  0  0  0
   -1.0691   -1.0363   -1.2003 H   0  0  0  0  0  0  0  0  0  0  0  0
   -3.6251    0.2202    0.9731 H   0  0  0  0  0  0  0  0  0  0  0  0
   -2.3706   -2.4147    0.1662 H   0  0  0  0  0  0  0  0  0  0  0  0
    0.7536   -2.8794   -0.8500 H   0  0  0  0  0  0  0  0  0  0  0  0
    1.4014   -1.4532   -1.6640 H   0  0  0  0  0  0  0  0  0  0  0  0
    3.1323   -2.6341   -0.8080 H   0  0  0  0  0  0  0  0  0  0  0  0
    3.0526    2.8023    0.4248 H   0  0  0  0  0  0  0  0  0  0  0  0
   -1.3398    2.3093   -1.6894 H   0  0  0  0  0  0  0  0  0  0  0  0
  1  2  1  0
  1  9  2  0
  1 13  1  0
  2  5  1  0
  2  8  1  0
  3  4  1  0
  3 10  1  0
  3 13  1  0
  4  5  1  0
  4 12  1  0
  5  6  1  0
  6 14  1  0
  7  8  2  0
  7  9  1  0
 11 13  1  0
 13 15  1  1
  5 16  1  1
  8 17  1  0
  3 18  1  1
  4 19  1  6
 10 20  1  0
 12 21  1  0
  6 22  1  0
  6 23  1  0
 14 24  1  0
  7 25  1  0
 11 26  1  0
M  END
