
     RDKit          3D

 54 57  0  0  0  0  0  0  0  0999 V2000
    2.8331   -0.2839   -0.9478 C   0  0  0  0  0  0  0  0  0  0  0  0
    5.5859    1.0419   -1.2459 C   0  0  0  0  0  0  0  0  0  0  0  0
    1.5838    1.2152    1.0169 C   0  0  0  0  0  0  0  0  0  0  0  0
    6.9287    1.0300   -1.3741 C   0  0  0  0  0  0  0  0  0  0  0  0
    3.5809    0.4536   -0.0449 C   0  0  0  0  0  0  0  0  0  0  0  0
    2.9662    1.2089    0.9395 C   0  0  0  0  0  0  0  0  0  0  0  0
    0.7984    0.4868    0.1261 C   0  0  0  0  0  0  0  0  0  0  0  0
    1.4510   -0.2528   -0.8572 C   0  0  0  0  0  0  0  0  0  0  0  0
    5.7503   -0.1805    0.8153 C   0  0  0  0  0  0  0  0  0  0  0  0
    7.1988   -0.1338    0.5832 C   0  0  0  0  0  0  0  0  0  0  0  0
    5.2309   -0.7264    1.7749 O   0  0  0  0  0  0  0  0  0  0  0  0
    5.0028    0.4482   -0.1624 N   0  0  0  0  0  0  0  0  0  0  0  0
    7.7294    0.4372   -0.4465 N   0  0  0  0  0  0  0  0  0  0  0  0
    0.5307   -1.1251   -2.0305 Cl  0  0  0  0  0  0  0  0  0  0  0  0
   -0.6722    0.5437    0.2159 C   0  0  0  0  0  0  0  0  0  0  0  0
   -1.3556    1.6854   -0.0154 C   0  0  0  0  0  0  0  0  0  0  0  0
   -2.7685    1.7061    0.0791 C   0  0  0  0  0  0  0  0  0  0  0  0
   -3.5684    2.8208   -0.1693 C   0  0  0  0  0  0  0  0  0  0  0  0
   -4.8777    2.8056   -0.0964 N   0  0  0  0  0  0  0  0  0  0  0  0
   -5.4378    1.6250    0.2349 C   0  0  0  0  0  0  0  0  0  0  0  0
   -4.7785    0.4912    0.4921 N   0  0  0  0  0  0  0  0  0  0  0  0
   -3.4624    0.5296    0.4208 C   0  0  0  0  0  0  0  0  0  0  0  0
   -2.7569   -0.6110    0.6926 N   0  0  0  0  0  0  0  0  0  0  0  0
   -1.3695   -0.6772    0.6043 C   0  0  0  0  0  0  0  0  0  0  0  0
   -0.7811   -1.7157    0.8546 O   0  0  0  0  0  0  0  0  0  0  0  0
   -3.4817   -1.8333    1.0419 C   0  0  0  0  0  0  0  0  0  0  0  0
   -3.8507   -2.6509   -0.1869 C   0  0  0  0  0  0  0  0  0  0  0  0
   -4.6620   -3.8820    0.1886 C   0  0  0  0  0  0  0  0  0  0  0  0
   -4.9792   -4.6666   -0.9948 N   0  0  0  0  0  0  0  0  0  0  0  0
   -6.7693    1.5819    0.3109 N   0  0  0  0  0  0  0  0  0  0  0  0
   -7.6314    2.7117    0.0674 C   0  0  0  0  0  0  0  0  0  0  0  0
    3.3208   -0.8677   -1.7175 H   0  0  0  0  0  0  0  0  0  0  0  0
    4.9273    1.5125   -1.9607 H   0  0  0  0  0  0  0  0  0  0  0  0
    1.0958    1.7953    1.7889 H   0  0  0  0  0  0  0  0  0  0  0  0
    7.4060    1.4991   -2.2218 H   0  0  0  0  0  0  0  0  0  0  0  0
    3.5555    1.7894    1.6357 H   0  0  0  0  0  0  0  0  0  0  0  0
    7.8385   -1.8621    1.6725 H   0  0  0  0  0  0  0  0  0  0  0  0
    9.1095   -0.6726    1.3473 H   0  0  0  0  0  0  0  0  0  0  0  0
    7.8898   -0.3747    2.5972 H   0  0  0  0  0  0  0  0  0  0  0  0
   -0.8344    2.5929   -0.2988 H   0  0  0  0  0  0  0  0  0  0  0  0
   -3.1004    3.7630   -0.4393 H   0  0  0  0  0  0  0  0  0  0  0  0
   -2.8559   -2.4136    1.7158 H   0  0  0  0  0  0  0  0  0  0  0  0
   -4.3749   -1.5419    1.5886 H   0  0  0  0  0  0  0  0  0  0  0  0
   -4.4303   -2.0276   -0.8747 H   0  0  0  0  0  0  0  0  0  0  0  0
   -2.9465   -2.9619   -0.7161 H   0  0  0  0  0  0  0  0  0  0  0  0
   -4.0730   -4.5084    0.8647 H   0  0  0  0  0  0  0  0  0  0  0  0
   -5.5483   -3.5642    0.7573 H   0  0  0  0  0  0  0  0  0  0  0  0
   -5.5079   -5.4859   -0.7243 H   0  0  0  0  0  0  0  0  0  0  0  0
   -5.5954   -4.1320   -1.5950 H   0  0  0  0  0  0  0  0  0  0  0  0
   -7.1825    0.7011    0.5666 H   0  0  0  0  0  0  0  0  0  0  0  0
   -7.4536    3.5196    0.7779 H   0  0  0  0  0  0  0  0  0  0  0  0
   -7.5037    3.1098   -0.9393 H   0  0  0  0  0  0  0  0  0  0  0  0
   -8.6593    2.3785    0.1768 H   0  0  0  0  0  0  0  0  0  0  0  0
    8.0603   -0.7954    1.6047 C   0  0  0  0  0  0  0  0  0  0  0  0
 30 31  1  0
 30 20  1  0
 19 20  2  0
 19 18  1  0
 20 21  1  0
 18 17  2  0
 21 22  2  0
 17 22  1  0
 17 16  1  0
 22 23  1  0
 16 15  2  0
 23 26  1  0
 23 24  1  0
 15 24  1  0
 15  7  1  0
 27 26  1  0
 27 28  1  0
 24 25  2  0
  7  3  2  0
  7  8  1  0
 14  8  1  0
 28 29  1  0
  3  6  1  0
  8  1  2  0
  6  5  2  0
  1  5  1  0
  5 12  1  0
  2 12  1  0
  2  4  2  0
 12  9  1  0
  4 13  1  0
  9 11  2  0
  9 10  1  0
 13 10  2  0
 10 54  1  0
  1 32  1  0
  2 33  1  0
  3 34  1  0
  4 35  1  0
  6 36  1  0
 54 37  1  0
 54 38  1  0
 54 39  1  0
 16 40  1  0
 18 41  1  0
 26 42  1  0
 26 43  1  0
 27 44  1  0
 27 45  1  0
 28 46  1  0
 28 47  1  0
 29 48  1  0
 29 49  1  0
 30 50  1  0
 31 51  1  0
 31 52  1  0
 31 53  1  0
M  END
