
     RDKit          3D

 37 39  0  0  0  0  0  0  0  0999 V2000
   -2.7823    2.0000   -0.2063 N   0  0  0  0  0  0  0  0  0  0  0  0
   -2.8727    0.6823    0.1352 C   0  0  0  0  0  0  0  0  0  0  0  0
   -1.6796    0.0539   -0.2874 C   0  0  0  0  0  0  0  0  0  0  0  0
   -1.5076   -1.3144   -0.0449 C   0  0  0  0  0  0  0  0  0  0  0  0
   -0.8686    1.0629   -0.9034 C   0  0  0  0  0  0  0  0  0  0  0  0
   -1.5811    2.2249   -0.8208 C   0  0  0  0  0  0  0  0  0  0  0  0
    2.5339   -0.3184   -1.4582 C   0  0  0  0  0  0  0  0  0  0  0  0
    3.6455   -0.4270    1.7118 C   0  0  0  0  0  0  0  0  0  0  0  0
    1.7145    0.8402    0.5264 C   0  0  0  0  0  0  0  0  0  0  0  0
   -2.5181   -2.0130    0.5868 C   0  0  0  0  0  0  0  0  0  0  0  0
   -3.6996   -1.3700    0.9941 C   0  0  0  0  0  0  0  0  0  0  0  0
   -3.8924   -0.0186    0.7788 C   0  0  0  0  0  0  0  0  0  0  0  0
    0.4676    0.8691   -1.5395 C   0  0  0  0  0  0  0  0  0  0  0  0
    1.3850    0.1213   -0.6943 N   0  0  0  0  0  0  0  0  0  0  0  0
    3.4907   -1.2530   -0.7258 C   0  0  0  0  0  0  0  0  0  0  0  0
    4.3306   -0.5748    0.3537 C   0  0  0  0  0  0  0  0  0  0  0  0
    2.1552   -0.0804    1.6609 C   0  0  0  0  0  0  0  0  0  0  0  0
   -3.4765    2.7042   -0.0228 H   0  0  0  0  0  0  0  0  0  0  0  0
   -0.5866   -1.8022   -0.3362 H   0  0  0  0  0  0  0  0  0  0  0  0
   -1.3158    3.2140   -1.1611 H   0  0  0  0  0  0  0  0  0  0  0  0
    3.1194    0.5413   -1.8358 H   0  0  0  0  0  0  0  0  0  0  0  0
    3.7634   -1.3517    2.2836 H   0  0  0  0  0  0  0  0  0  0  0  0
    4.1780    0.3396    2.2814 H   0  0  0  0  0  0  0  0  0  0  0  0
    2.4670    1.6290    0.3488 H   0  0  0  0  0  0  0  0  0  0  0  0
    0.8083    1.3552    0.8484 H   0  0  0  0  0  0  0  0  0  0  0  0
   -2.3991   -3.0713    0.7815 H   0  0  0  0  0  0  0  0  0  0  0  0
   -4.4723   -1.9423    1.4912 H   0  0  0  0  0  0  0  0  0  0  0  0
   -4.8002    0.4753    1.1022 H   0  0  0  0  0  0  0  0  0  0  0  0
    0.3452    0.2992   -2.4670 H   0  0  0  0  0  0  0  0  0  0  0  0
    0.8747    1.8505   -1.8409 H   0  0  0  0  0  0  0  0  0  0  0  0
    2.9388   -2.1060   -0.3190 H   0  0  0  0  0  0  0  0  0  0  0  0
    4.1620   -1.6639   -1.4845 H   0  0  0  0  0  0  0  0  0  0  0  0
    4.6290    0.4107   -0.0181 H   0  0  0  0  0  0  0  0  0  0  0  0
    5.2633   -1.1265    0.4958 H   0  0  0  0  0  0  0  0  0  0  0  0
    1.5500   -0.9874    1.5871 H   0  0  0  0  0  0  0  0  0  0  0  0
    1.8810    0.3806    2.6136 H   0  0  0  0  0  0  0  0  0  0  0  0
    2.1577   -0.8403   -2.3429 H   0  0  0  0  0  0  0  0  0  0  0  0
  8 16  1  0
  8 17  1  0
 16 15  1  0
 17  9  1  0
 15  7  1  0
  9 14  1  0
  7 14  1  0
 14 13  1  0
  4 10  2  0
  4  3  1  0
 10 11  1  0
 13  5  1  0
  3  5  1  0
  3  2  2  0
 11 12  2  0
  5  6  2  0
  2 12  1  0
  2  1  1  0
  6  1  1  0
  1 18  1  0
  4 19  1  0
  6 20  1  0
  7 37  1  0
  7 21  1  0
  8 22  1  0
  8 23  1  0
  9 24  1  0
  9 25  1  0
 10 26  1  0
 11 27  1  0
 12 28  1  0
 13 29  1  0
 13 30  1  0
 15 31  1  0
 15 32  1  0
 16 33  1  0
 16 34  1  0
 17 35  1  0
 17 36  1  0
M  END
