
     RDKit          3D

 47 50  0  0  0  0  0  0  0  0999 V2000
   -0.4088   -0.0249    0.0309 As  0  0  1  0  0  0  0  0  0  0  0  0
   -0.9304    0.0784   -1.7944 C   0  0  0  0  0  0  0  0  0  0  0  0
   -2.2841   -0.0112   -2.1153 C   0  0  0  0  0  0  0  0  0  0  0  0
   -2.6761    0.0842   -3.4416 C   0  0  0  0  0  0  0  0  0  0  0  0
   -1.7244    0.2622   -4.4377 C   0  0  0  0  0  0  0  0  0  0  0  0
   -0.3774    0.3435   -4.1127 C   0  0  0  0  0  0  0  0  0  0  0  0
    0.0272    0.2515   -2.7886 C   0  0  0  0  0  0  0  0  0  0  0  0
   -0.7890    1.6161    0.9109 C   0  0  0  0  0  0  0  0  0  0  0  0
   -0.1443    1.8929    2.1152 C   0  0  0  0  0  0  0  0  0  0  0  0
   -0.4294    3.0742    2.7828 C   0  0  0  0  0  0  0  0  0  0  0  0
   -1.3450    3.9719    2.2489 C   0  0  0  0  0  0  0  0  0  0  0  0
   -1.9795    3.6933    1.0460 C   0  0  0  0  0  0  0  0  0  0  0  0
   -1.7052    2.5132    0.3702 C   0  0  0  0  0  0  0  0  0  0  0  0
   -1.3946   -1.4383    0.8292 C   0  0  0  0  0  0  0  0  0  0  0  0
   -1.9344   -1.2866    2.1025 C   0  0  0  0  0  0  0  0  0  0  0  0
   -2.6348   -2.3400    2.6726 C   0  0  0  0  0  0  0  0  0  0  0  0
   -2.7912   -3.5313    1.9772 C   0  0  0  0  0  0  0  0  0  0  0  0
   -2.2512   -3.6766    0.7058 C   0  0  0  0  0  0  0  0  0  0  0  0
   -1.5525   -2.6302    0.1240 C   0  0  0  0  0  0  0  0  0  0  0  0
    1.4456   -0.3530    0.1862 C   0  0  0  0  0  0  0  0  0  0  0  0
    2.3401    0.6894   -0.0769 C   0  0  0  0  0  0  0  0  0  0  0  0
    3.6994    0.4643    0.0078 C   0  0  0  0  0  0  0  0  0  0  0  0
    4.1776   -0.8107    0.3662 C   0  0  0  0  0  0  0  0  0  0  0  0
    3.2772   -1.8310    0.6305 C   0  0  0  0  0  0  0  0  0  0  0  0
    1.9107   -1.6106    0.5418 C   0  0  0  0  0  0  0  0  0  0  0  0
    4.6405    1.3960   -0.2281 O   0  0  0  0  0  0  0  0  0  0  0  0
    5.4879   -1.0601    0.4627 O   0  0  0  0  0  0  0  0  0  0  0  0
   -3.0367   -0.1582   -1.3500 H   0  0  0  0  0  0  0  0  0  0  0  0
   -3.7255    0.0162   -3.6943 H   0  0  0  0  0  0  0  0  0  0  0  0
   -2.0336    0.3333   -5.4721 H   0  0  0  0  0  0  0  0  0  0  0  0
    0.3637    0.4746   -4.8892 H   0  0  0  0  0  0  0  0  0  0  0  0
    1.0820    0.3069   -2.5517 H   0  0  0  0  0  0  0  0  0  0  0  0
    0.5789    1.2058    2.5378 H   0  0  0  0  0  0  0  0  0  0  0  0
    0.0666    3.2935    3.7185 H   0  0  0  0  0  0  0  0  0  0  0  0
   -1.5616    4.8948    2.7704 H   0  0  0  0  0  0  0  0  0  0  0  0
   -2.6877    4.3951    0.6272 H   0  0  0  0  0  0  0  0  0  0  0  0
   -2.2013    2.3135   -0.5712 H   0  0  0  0  0  0  0  0  0  0  0  0
   -1.8285   -0.3612    2.6550 H   0  0  0  0  0  0  0  0  0  0  0  0
   -3.0606   -2.2245    3.6599 H   0  0  0  0  0  0  0  0  0  0  0  0
   -3.3405   -4.3484    2.4254 H   0  0  0  0  0  0  0  0  0  0  0  0
   -2.3756   -4.6037    0.1628 H   0  0  0  0  0  0  0  0  0  0  0  0
   -1.1451   -2.7553   -0.8720 H   0  0  0  0  0  0  0  0  0  0  0  0
    1.9882    1.6803   -0.3432 H   0  0  0  0  0  0  0  0  0  0  0  0
    3.6520   -2.8063    0.9121 H   0  0  0  0  0  0  0  0  0  0  0  0
    1.2339   -2.4261    0.7593 H   0  0  0  0  0  0  0  0  0  0  0  0
    4.2501    2.2406   -0.4813 H   0  0  0  0  0  0  0  0  0  0  0  0
    6.0089   -0.2775    0.2433 H   0  0  0  0  0  0  0  0  0  0  0  0
  1  2  1  6
  1  8  1  0
  1 14  1  0
  1 20  1  0
  2  3  2  0
  2  7  1  0
  3  4  1  0
  3 28  1  0
  4  5  2  0
  4 29  1  0
  5  6  1  0
  5 30  1  0
  6  7  2  0
  6 31  1  0
  7 32  1  0
  8  9  2  0
  8 13  1  0
  9 10  1  0
  9 33  1  0
 10 11  2  0
 10 34  1  0
 11 12  1  0
 11 35  1  0
 12 13  2  0
 12 36  1  0
 13 37  1  0
 14 15  2  0
 14 19  1  0
 15 16  1  0
 15 38  1  0
 16 17  2  0
 16 39  1  0
 17 18  1  0
 17 40  1  0
 18 19  2  0
 18 41  1  0
 19 42  1  0
 20 21  2  0
 20 25  1  0
 21 22  1  0
 21 43  1  0
 22 23  2  0
 22 26  1  0
 23 24  1  0
 23 27  1  0
 24 25  2  0
 24 44  1  0
 25 45  1  0
 26 46  1  0
 27 47  1  0
M  CHG  1   1   1
M  END
