
     RDKit          3D

 34 33  0  0  0  0  0  0  0  0999 V2000
    6.2355    0.9662   -0.0514 C   0  0  0  0  0  0  0  0  0  0  0  0
    5.1401   -0.0686    0.0283 C   0  0  0  0  0  0  0  0  0  0  0  0
    5.3849   -1.2644    0.1372 O   0  0  0  0  0  0  0  0  0  0  0  0
    3.8881    0.4072   -0.0273 N   0  0  0  0  0  0  0  0  0  0  0  0
    2.7169   -0.4418    0.0410 C   0  0  0  0  0  0  0  0  0  0  0  0
    1.4495    0.3967    0.0085 C   0  0  0  0  0  0  0  0  0  0  0  0
    0.2018   -0.4711    0.0587 C   0  0  0  0  0  0  0  0  0  0  0  0
   -0.9991    0.3396    0.0147 N   0  0  0  0  0  0  0  0  0  0  0  0
   -2.2167   -0.4486    0.0478 C   0  0  0  0  0  0  0  0  0  0  0  0
   -3.4530    0.4359    0.0175 C   0  0  0  0  0  0  0  0  0  0  0  0
   -4.7467   -0.3679    0.0278 C   0  0  0  0  0  0  0  0  0  0  0  0
   -5.9852    0.5148   -0.0031 C   0  0  0  0  0  0  0  0  0  0  0  0
   -7.1994   -0.2893   -0.0002 N   0  0  0  0  0  0  0  0  0  0  0  0
    6.8588    0.9039    0.8404 H   0  0  0  0  0  0  0  0  0  0  0  0
    6.8745    0.7555   -0.9089 H   0  0  0  0  0  0  0  0  0  0  0  0
    5.8656    1.9858   -0.1420 H   0  0  0  0  0  0  0  0  0  0  0  0
    3.7501    1.3999   -0.1216 H   0  0  0  0  0  0  0  0  0  0  0  0
    2.7163   -1.1460   -0.7964 H   0  0  0  0  0  0  0  0  0  0  0  0
    2.7448   -1.0395    0.9565 H   0  0  0  0  0  0  0  0  0  0  0  0
    1.4486    1.0884    0.8575 H   0  0  0  0  0  0  0  0  0  0  0  0
    1.4279    1.0042   -0.9008 H   0  0  0  0  0  0  0  0  0  0  0  0
    0.1939   -1.1422   -0.8063 H   0  0  0  0  0  0  0  0  0  0  0  0
    0.2422   -1.1200    0.9492 H   0  0  0  0  0  0  0  0  0  0  0  0
   -0.9970    0.9649    0.8133 H   0  0  0  0  0  0  0  0  0  0  0  0
   -2.2228   -1.1050   -0.8290 H   0  0  0  0  0  0  0  0  0  0  0  0
   -2.2653   -1.1131    0.9266 H   0  0  0  0  0  0  0  0  0  0  0  0
   -3.4383    1.1105    0.8812 H   0  0  0  0  0  0  0  0  0  0  0  0
   -3.4159    1.0715   -0.8728 H   0  0  0  0  0  0  0  0  0  0  0  0
   -4.7621   -1.0422   -0.8362 H   0  0  0  0  0  0  0  0  0  0  0  0
   -4.7851   -1.0051    0.9169 H   0  0  0  0  0  0  0  0  0  0  0  0
   -5.9918    1.1481    0.8886 H   0  0  0  0  0  0  0  0  0  0  0  0
   -5.9136    1.1971   -0.8629 H   0  0  0  0  0  0  0  0  0  0  0  0
   -8.0079    0.3189    0.0240 H   0  0  0  0  0  0  0  0  0  0  0  0
   -7.2648   -0.7921   -0.8771 H   0  0  0  0  0  0  0  0  0  0  0  0
  3  2  2  0
  2  1  1  0
  2  4  1  0
  4  5  1  0
  5  6  1  0
  6  7  1  0
  7  8  1  0
  8  9  1  0
  9 10  1  0
 10 11  1  0
 11 12  1  0
 12 13  1  0
  1 14  1  0
  1 15  1  0
  1 16  1  0
  4 17  1  0
  5 18  1  0
  5 19  1  0
  6 20  1  0
  6 21  1  0
  7 22  1  0
  7 23  1  0
  8 24  1  0
  9 25  1  0
  9 26  1  0
 10 27  1  0
 10 28  1  0
 11 29  1  0
 11 30  1  0
 12 31  1  0
 12 32  1  0
 13 33  1  0
 13 34  1  0
M  END
