
     RDKit          3D

 34 36  0  0  0  0  0  0  0  0999 V2000
    3.6888    0.2311    0.3225 N   0  0  0  0  0  0  0  0  0  0  0  0
    1.0717    1.7288   -0.1793 N   0  0  0  0  0  0  0  0  0  0  0  0
    0.3392   -0.3577   -0.4238 N   0  0  0  0  0  0  0  0  0  0  0  0
   -1.9995   -2.3597   -0.0868 N   0  0  0  0  0  0  0  0  0  0  0  0
    3.3570   -0.6861    1.3924 C   0  0  0  0  0  0  0  0  0  0  0  0
    5.0683    0.0752   -0.0877 C   0  0  0  0  0  0  0  0  0  0  0  0
   -2.4651    2.4327    0.6183 C   0  0  0  0  0  0  0  0  0  0  0  0
   -2.9455    1.1354    0.4365 C   0  0  0  0  0  0  0  0  0  0  0  0
   -1.1270    2.7315    0.4334 C   0  0  0  0  0  0  0  0  0  0  0  0
   -0.6213   -2.4739    0.3259 C   0  0  0  0  0  0  0  0  0  0  0  0
    0.3593   -1.7945   -0.6112 C   0  0  0  0  0  0  0  0  0  0  0  0
    2.7981    0.0863   -0.8117 C   0  0  0  0  0  0  0  0  0  0  0  0
   -2.7633   -1.2538   -0.1359 C   0  0  0  0  0  0  0  0  0  0  0  0
   -2.1173    0.0712    0.0904 C   0  0  0  0  0  0  0  0  0  0  0  0
    1.4026    0.5027   -0.4686 C   0  0  0  0  0  0  0  0  0  0  0  0
   -0.2728    1.6942    0.0758 C   0  0  0  0  0  0  0  0  0  0  0  0
   -0.7613    0.3823   -0.0788 C   0  0  0  0  0  0  0  0  0  0  0  0
   -2.4854   -3.2222   -0.2813 H   0  0  0  0  0  0  0  0  0  0  0  0
    4.0259   -0.5233    2.2378 H   0  0  0  0  0  0  0  0  0  0  0  0
    2.3389   -0.5179    1.7489 H   0  0  0  0  0  0  0  0  0  0  0  0
    3.4434   -1.7440    1.0969 H   0  0  0  0  0  0  0  0  0  0  0  0
    5.2946   -0.9285   -0.4794 H   0  0  0  0  0  0  0  0  0  0  0  0
    5.3136    0.8009   -0.8641 H   0  0  0  0  0  0  0  0  0  0  0  0
    5.7286    0.2568    0.7610 H   0  0  0  0  0  0  0  0  0  0  0  0
   -3.1576    3.2156    0.8976 H   0  0  0  0  0  0  0  0  0  0  0  0
   -4.0024    0.9483    0.5667 H   0  0  0  0  0  0  0  0  0  0  0  0
   -0.7508    3.7386    0.5593 H   0  0  0  0  0  0  0  0  0  0  0  0
   -0.4762   -2.1091    1.3464 H   0  0  0  0  0  0  0  0  0  0  0  0
   -0.3897   -3.5364    0.3383 H   0  0  0  0  0  0  0  0  0  0  0  0
    0.1306   -2.0494   -1.6473 H   0  0  0  0  0  0  0  0  0  0  0  0
    1.3602   -2.1596   -0.3914 H   0  0  0  0  0  0  0  0  0  0  0  0
    3.1455    0.7450   -1.6116 H   0  0  0  0  0  0  0  0  0  0  0  0
    2.8127   -0.9310   -1.2322 H   0  0  0  0  0  0  0  0  0  0  0  0
   -3.9644   -1.3240   -0.3682 O   0  0  0  0  0  0  0  0  0  0  0  0
 12  1  1  0
  1  5  1  0
  1  6  1  0
 16  2  1  0
  2 15  2  0
 17  3  1  0
  3 11  1  0
  3 15  1  0
 13  4  1  0
  4 10  1  0
  4 18  1  0
  5 19  1  0
  5 20  1  0
  5 21  1  0
  6 22  1  0
  6 23  1  0
  6 24  1  0
 34 13  2  0
  8  7  2  0
  7  9  1  0
  7 25  1  0
  8 14  1  0
  8 26  1  0
  9 16  2  0
  9 27  1  0
 10 11  1  0
 10 28  1  0
 10 29  1  0
 11 30  1  0
 11 31  1  0
 15 12  1  0
 12 32  1  0
 12 33  1  0
 13 14  1  0
 14 17  2  0
 17 16  1  0
M  END
