
     RDKit          3D

 30 31  0  0  0  0  0  0  0  0999 V2000
   -2.3572    0.0759   -0.4217 N   0  0  0  0  0  0  0  0  0  0  0  0
    2.4237   -1.1803   -0.2445 N   0  0  0  0  0  0  0  0  0  0  0  0
   -0.3020   -1.1792   -0.0570 C   0  0  0  0  0  0  0  0  0  0  0  0
   -0.2659    1.2572    0.0604 C   0  0  0  0  0  0  0  0  0  0  0  0
   -1.5997    1.2828   -0.6707 C   0  0  0  0  0  0  0  0  0  0  0  0
    1.8298   -0.0027   -0.0483 C   0  0  0  0  0  0  0  0  0  0  0  0
    2.5809    1.1325    0.3148 C   0  0  0  0  0  0  0  0  0  0  0  0
    4.5663   -0.2119    0.1955 C   0  0  0  0  0  0  0  0  0  0  0  0
   -4.2454   -1.2211    0.4361 C   0  0  0  0  0  0  0  0  0  0  0  0
   -3.5575    0.1035    0.1995 C   0  0  0  0  0  0  0  0  0  0  0  0
   -1.6212   -1.1099   -0.8053 C   0  0  0  0  0  0  0  0  0  0  0  0
    0.4666    0.0420   -0.2361 N   0  0  0  0  0  0  0  0  0  0  0  0
    3.9514    1.0141    0.4247 C   0  0  0  0  0  0  0  0  0  0  0  0
    3.7410   -1.2734   -0.1268 C   0  0  0  0  0  0  0  0  0  0  0  0
   -4.0824    1.1537    0.5488 O   0  0  0  0  0  0  0  0  0  0  0  0
   -0.5021   -1.3555    1.0093 H   0  0  0  0  0  0  0  0  0  0  0  0
    0.2717   -2.0229   -0.4290 H   0  0  0  0  0  0  0  0  0  0  0  0
    0.2969    2.1240   -0.2823 H   0  0  0  0  0  0  0  0  0  0  0  0
   -0.4304    1.3743    1.1405 H   0  0  0  0  0  0  0  0  0  0  0  0
   -1.4205    1.3716   -1.7469 H   0  0  0  0  0  0  0  0  0  0  0  0
   -2.1675    2.1526   -0.3539 H   0  0  0  0  0  0  0  0  0  0  0  0
    2.1154    2.0832    0.5261 H   0  0  0  0  0  0  0  0  0  0  0  0
    5.6359   -0.3413    0.2772 H   0  0  0  0  0  0  0  0  0  0  0  0
   -3.6578   -1.8789    1.0773 H   0  0  0  0  0  0  0  0  0  0  0  0
   -5.2011   -1.0390    0.9206 H   0  0  0  0  0  0  0  0  0  0  0  0
   -4.4290   -1.7518   -0.4987 H   0  0  0  0  0  0  0  0  0  0  0  0
   -2.1890   -2.0132   -0.6027 H   0  0  0  0  0  0  0  0  0  0  0  0
   -1.4331   -1.0774   -1.8830 H   0  0  0  0  0  0  0  0  0  0  0  0
    4.5379    1.8804    0.7031 H   0  0  0  0  0  0  0  0  0  0  0  0
    4.1613   -2.2588   -0.3004 H   0  0  0  0  0  0  0  0  0  0  0  0
 13  7  2  0
 13  8  1  0
  7  6  1  0
  8 14  2  0
  3 12  1  0
  3 11  1  0
  6 12  1  0
  6  2  2  0
 14  2  1  0
 12  4  1  0
 11  1  1  0
  4  5  1  0
  9 10  1  0
  1 10  1  0
  1  5  1  0
 10 15  2  0
  3 16  1  0
  3 17  1  0
  4 18  1  0
  4 19  1  0
  5 20  1  0
  5 21  1  0
  7 22  1  0
  8 23  1  0
  9 24  1  0
  9 25  1  0
  9 26  1  0
 11 27  1  0
 11 28  1  0
 13 29  1  0
 14 30  1  0
M  END
