
     RDKit          3D

 36 38  0  0  0  0  0  0  0  0999 V2000
    4.5912    2.9069   -0.0784 C   0  0  0  0  0  0  0  0  0  0  0  0
    3.7292   -1.3465    0.9632 C   0  0  0  0  0  0  0  0  0  0  0  0
    2.1939   -3.0815    0.2863 C   0  0  0  0  0  0  0  0  0  0  0  0
   -0.8780   -0.5032    1.3453 C   0  0  0  0  0  0  0  0  0  0  0  0
   -2.1951    1.2477   -0.3578 C   0  0  0  0  0  0  0  0  0  0  0  0
   -2.0516   -0.0773   -0.7364 C   0  0  0  0  0  0  0  0  0  0  0  0
   -1.0998   -2.6103   -0.3831 S   0  0  2  0  0  0  0  0  0  0  0  0
    1.4987   -2.1554   -0.4786 C   0  0  0  0  0  0  0  0  0  0  0  0
    1.9176   -0.8323   -0.5360 C   0  0  0  0  0  0  0  0  0  0  0  0
    3.0300   -0.4241    0.1901 C   0  0  0  0  0  0  0  0  0  0  0  0
    3.4091    0.9280    0.1583 N   0  0  0  0  0  0  0  0  0  0  0  0
    2.5031    2.0044    0.2091 C   0  0  0  0  0  0  0  0  0  0  0  0
    3.1302    3.1689    0.0839 C   0  0  0  0  0  0  0  0  0  0  0  0
    4.6915    1.3961   -0.0288 C   0  0  0  0  0  0  0  0  0  0  0  0
    5.6820    0.7088   -0.1455 O   0  0  0  0  0  0  0  0  0  0  0  0
    3.3085   -2.6670    0.9996 C   0  0  0  0  0  0  0  0  0  0  0  0
   -1.3898   -0.9369    0.1306 C   0  0  0  0  0  0  0  0  0  0  0  0
   -1.0337    0.8293    1.6960 C   0  0  0  0  0  0  0  0  0  0  0  0
   -1.6894    1.7117    0.8498 C   0  0  0  0  0  0  0  0  0  0  0  0
   -0.8913   -3.4090    0.8080 O   0  0  0  0  0  0  0  0  0  0  0  0
    4.9997    3.2760   -1.0231 H   0  0  0  0  0  0  0  0  0  0  0  0
    5.1996    3.3479    0.7165 H   0  0  0  0  0  0  0  0  0  0  0  0
    4.5843   -1.0380    1.5468 H   0  0  0  0  0  0  0  0  0  0  0  0
    1.8724   -4.1130    0.3151 H   0  0  0  0  0  0  0  0  0  0  0  0
   -0.3663   -1.1822    2.0129 H   0  0  0  0  0  0  0  0  0  0  0  0
   -2.4463   -0.4324   -1.6790 H   0  0  0  0  0  0  0  0  0  0  0  0
    0.2463   -2.1439   -2.1193 H   0  0  0  0  0  0  0  0  0  0  0  0
    1.3763   -0.1242   -1.1525 H   0  0  0  0  0  0  0  0  0  0  0  0
    1.4532    1.8085    0.3674 H   0  0  0  0  0  0  0  0  0  0  0  0
    2.6687    4.1422    0.1146 H   0  0  0  0  0  0  0  0  0  0  0  0
    3.8540   -3.3806    1.6019 H   0  0  0  0  0  0  0  0  0  0  0  0
   -0.6392    1.1862    2.6372 H   0  0  0  0  0  0  0  0  0  0  0  0
   -1.8033    2.7482    1.1371 H   0  0  0  0  0  0  0  0  0  0  0  0
    0.3477   -2.5688   -1.2023 N   0  0  0  0  0  0  0  0  0  0  0  0
   -3.0958    2.4396   -1.5043 Br  0  0  0  0  0  0  0  0  0  0  0  0
   -2.0998   -2.9846   -1.3644 O   0  0  0  0  0  0  0  0  0  0  0  0
 13  1  1  0
 13 12  2  0
  1 14  1  0
 12 11  1  0
 14 11  1  0
 14 15  2  0
 11 10  1  0
 10  9  1  0
 10  2  2  0
  9  8  2  0
 36  7  2  0
  2 16  1  0
  8 34  1  0
  8  3  1  0
  7 34  1  6
  7 20  2  0
  7 17  1  0
 16  3  2  0
 17  6  1  0
 17  4  2  0
  6  5  2  0
  4 18  1  0
  5 35  1  0
  5 19  1  0
 18 19  2  0
  1 21  1  0
  1 22  1  0
  2 23  1  0
  3 24  1  0
  4 25  1  0
  6 26  1  0
 34 27  1  0
  9 28  1  0
 12 29  1  0
 13 30  1  0
 16 31  1  0
 18 32  1  0
 19 33  1  0
M  END
