
     RDKit          3D

 43 46  0  0  0  0  0  0  0  0999 V2000
    1.4096    2.8330   -1.0549 O   0  0  0  0  0  0  0  0  0  0  0  0
    2.2532    2.2603   -0.3652 C   0  0  0  0  0  0  0  0  0  0  0  0
    2.9737    2.8757    0.7079 C   0  0  0  0  0  0  0  0  0  0  0  0
    3.9232    2.1949    1.4019 C   0  0  0  0  0  0  0  0  0  0  0  0
    4.2007    0.8523    1.0909 C   0  0  0  0  0  0  0  0  0  0  0  0
    3.5038    0.2342    0.0950 C   0  0  0  0  0  0  0  0  0  0  0  0
    2.5623    0.9186   -0.6173 N   0  0  0  0  0  0  0  0  0  0  0  0
    1.8670    0.3413   -1.7811 C   0  0  0  0  0  0  0  0  0  0  0  0
    2.0384   -1.1606   -1.9514 C   0  0  2  0  0  0  0  0  0  0  0  0
    1.0749   -1.9547   -1.0690 C   0  0  0  0  0  0  0  0  0  0  0  0
    3.4756   -1.5509   -1.6507 C   0  0  0  0  0  0  0  0  0  0  0  0
    3.7120   -1.2271   -0.1833 C   0  0  2  0  0  0  0  0  0  0  0  0
    2.7423   -2.0443    0.6862 C   0  0  0  0  0  0  0  0  0  0  0  0
    1.3690   -1.7322    0.3377 N   0  0  0  0  0  0  0  0  0  0  0  0
    0.6014   -1.0057    1.1781 C   0  0  0  0  0  0  0  0  0  0  0  0
    0.9852   -0.5965    2.2627 O   0  0  0  0  0  0  0  0  0  0  0  0
   -0.8082   -0.7224    0.7549 C   0  0  0  0  0  0  0  0  0  0  0  0
   -1.7296   -1.7516    0.5999 C   0  0  0  0  0  0  0  0  0  0  0  0
   -3.0529   -1.4665    0.3050 C   0  0  0  0  0  0  0  0  0  0  0  0
   -3.4571   -0.1466    0.1470 C   0  0  0  0  0  0  0  0  0  0  0  0
   -4.8923    0.1715   -0.1361 C   0  0  1  0  0  0  0  0  0  0  0  0
   -5.5177   -0.8260   -0.7694 F   0  0  0  0  0  0  0  0  0  0  0  0
   -5.5769    0.4006    0.9951 F   0  0  0  0  0  0  0  0  0  0  0  0
   -5.0272    1.2657   -0.8939 F   0  0  0  0  0  0  0  0  0  0  0  0
   -2.5395    0.8862    0.3024 C   0  0  0  0  0  0  0  0  0  0  0  0
   -1.2223    0.5975    0.6183 C   0  0  0  0  0  0  0  0  0  0  0  0
    2.7410    3.9087    0.9276 H   0  0  0  0  0  0  0  0  0  0  0  0
    4.4674    2.6854    2.1992 H   0  0  0  0  0  0  0  0  0  0  0  0
    4.9389    0.2895    1.6439 H   0  0  0  0  0  0  0  0  0  0  0  0
    0.8101    0.5961   -1.7025 H   0  0  0  0  0  0  0  0  0  0  0  0
    2.2442    0.8496   -2.6708 H   0  0  0  0  0  0  0  0  0  0  0  0
    1.7870   -1.3885   -2.9895 H   0  0  0  0  0  0  0  0  0  0  0  0
    0.0504   -1.6703   -1.2931 H   0  0  0  0  0  0  0  0  0  0  0  0
    1.1699   -3.0222   -1.2873 H   0  0  0  0  0  0  0  0  0  0  0  0
    3.6360   -2.6164   -1.8293 H   0  0  0  0  0  0  0  0  0  0  0  0
    4.1747   -1.0075   -2.2905 H   0  0  0  0  0  0  0  0  0  0  0  0
    4.7286   -1.4869    0.1164 H   0  0  0  0  0  0  0  0  0  0  0  0
    2.9167   -3.1096    0.5079 H   0  0  0  0  0  0  0  0  0  0  0  0
    2.9059   -1.8521    1.7427 H   0  0  0  0  0  0  0  0  0  0  0  0
   -1.4195   -2.7828    0.7100 H   0  0  0  0  0  0  0  0  0  0  0  0
   -3.7535   -2.2830    0.1970 H   0  0  0  0  0  0  0  0  0  0  0  0
   -2.8358    1.9195    0.1824 H   0  0  0  0  0  0  0  0  0  0  0  0
   -0.5174    1.4092    0.7419 H   0  0  0  0  0  0  0  0  0  0  0  0
 21 22  1  6
 16 15  2  0
  1  2  2  0
 24 21  1  0
 21 20  1  0
 21 23  1  0
 25 26  1  0
 25 20  2  0
 26 17  2  0
 20 19  1  0
 19 18  2  0
 18 17  1  0
 15 17  1  0
 15 14  1  0
  2  3  1  0
  2  7  1  0
  3  4  2  0
  8  7  1  0
  8  9  1  0
 10 14  1  0
 10  9  1  0
 14 13  1  0
  7  6  1  0
  4  5  1  0
  9 11  1  0
  6  5  2  0
  6 12  1  0
 13 12  1  0
 12 11  1  0
  3 27  1  0
  4 28  1  0
  5 29  1  0
  8 30  1  0
  8 31  1  0
  9 32  1  6
 10 33  1  0
 10 34  1  0
 11 35  1  0
 11 36  1  0
 12 37  1  1
 13 38  1  0
 13 39  1  0
 18 40  1  0
 19 41  1  0
 25 42  1  0
 26 43  1  0
M  END
