
     RDKit          3D

 53 56  0  0  0  0  0  0  0  0999 V2000
   -7.2158    0.4358    0.6815 C   0  0  1  0  0  0  0  0  0  0  0  0
    5.4934   -0.6906   -0.0416 C   0  0  0  0  0  0  0  0  0  0  0  0
    6.5093    0.2275   -0.3285 C   0  0  0  0  0  0  0  0  0  0  0  0
    7.8049   -0.2322   -0.4569 C   0  0  0  0  0  0  0  0  0  0  0  0
    8.1082   -1.5958   -0.3014 C   0  0  0  0  0  0  0  0  0  0  0  0
    7.1251   -2.5225   -0.0141 C   0  0  0  0  0  0  0  0  0  0  0  0
   -4.0604   -0.6509   -2.2265 C   0  0  0  0  0  0  0  0  0  0  0  0
   -5.1874   -0.8139   -1.4364 C   0  0  0  0  0  0  0  0  0  0  0  0
   -0.6479    1.5389   -0.4486 C   0  0  0  0  0  0  0  0  0  0  0  0
    0.2323    2.3634    0.4828 C   0  0  2  0  0  0  0  0  0  0  0  0
    2.4294    3.2866    0.0452 C   0  0  0  0  0  0  0  0  0  0  0  0
    1.4979    4.3993    0.5092 C   0  0  0  0  0  0  0  0  0  0  0  0
    0.1147    3.8613    0.1625 C   0  0  0  0  0  0  0  0  0  0  0  0
   -7.7958    0.5677   -0.5130 F   0  0  0  0  0  0  0  0  0  0  0  0
   -6.7834    1.6476    1.0350 F   0  0  0  0  0  0  0  0  0  0  0  0
   -8.1362    0.0519    1.5512 F   0  0  0  0  0  0  0  0  0  0  0  0
   -6.2436   -0.4840    0.6875 O   0  0  0  0  0  0  0  0  0  0  0  0
   -5.1560   -0.2884   -0.1569 C   0  0  0  0  0  0  0  0  0  0  0  0
   -4.0513    0.3752    0.3370 C   0  0  0  0  0  0  0  0  0  0  0  0
   -2.9212    0.5315   -0.4692 C   0  0  0  0  0  0  0  0  0  0  0  0
   -2.9333    0.0142   -1.7659 C   0  0  0  0  0  0  0  0  0  0  0  0
   -1.8407    1.2024    0.1029 N   0  0  0  0  0  0  0  0  0  0  0  0
   -0.3131    1.2795   -1.5866 O   0  0  0  0  0  0  0  0  0  0  0  0
    1.6319    2.0881    0.2625 N   0  0  0  0  0  0  0  0  0  0  0  0
    2.0867    0.8167    0.3770 C   0  0  0  0  0  0  0  0  0  0  0  0
    1.3524   -0.1003    0.7312 O   0  0  0  0  0  0  0  0  0  0  0  0
    3.4017    0.6320    0.0736 N   0  0  0  0  0  0  0  0  0  0  0  0
    4.0805   -0.5825    0.1547 C   0  0  0  0  0  0  0  0  0  0  0  0
    3.6182   -1.8438    0.4176 C   0  0  0  0  0  0  0  0  0  0  0  0
    4.6703   -2.7306    0.3978 N   0  0  0  0  0  0  0  0  0  0  0  0
    5.8160   -2.0565    0.1155 C   0  0  0  0  0  0  0  0  0  0  0  0
    8.6017    0.4660   -0.6778 H   0  0  0  0  0  0  0  0  0  0  0  0
    9.1337   -1.9252   -0.4081 H   0  0  0  0  0  0  0  0  0  0  0  0
    7.3656   -3.5712    0.1078 H   0  0  0  0  0  0  0  0  0  0  0  0
    4.8433   -4.7081   -0.2843 H   0  0  0  0  0  0  0  0  0  0  0  0
    5.2146   -4.4714    1.4309 H   0  0  0  0  0  0  0  0  0  0  0  0
    3.5435   -4.4005    0.8711 H   0  0  0  0  0  0  0  0  0  0  0  0
   -4.0539   -1.0549   -3.2299 H   0  0  0  0  0  0  0  0  0  0  0  0
   -6.0533   -1.3495   -1.8005 H   0  0  0  0  0  0  0  0  0  0  0  0
   -0.0443    2.1781    1.5277 H   0  0  0  0  0  0  0  0  0  0  0  0
    2.6964    3.4045   -1.0102 H   0  0  0  0  0  0  0  0  0  0  0  0
    3.3500    3.2618    0.6320 H   0  0  0  0  0  0  0  0  0  0  0  0
    1.5932    4.5377    1.5876 H   0  0  0  0  0  0  0  0  0  0  0  0
    1.7180    5.3503    0.0266 H   0  0  0  0  0  0  0  0  0  0  0  0
   -0.0867    4.0058   -0.9010 H   0  0  0  0  0  0  0  0  0  0  0  0
   -0.6891    4.3326    0.7249 H   0  0  0  0  0  0  0  0  0  0  0  0
   -4.0557    0.7559    1.3512 H   0  0  0  0  0  0  0  0  0  0  0  0
   -2.0779    0.1134   -2.4121 H   0  0  0  0  0  0  0  0  0  0  0  0
   -1.9749    1.4771    1.0648 H   0  0  0  0  0  0  0  0  0  0  0  0
    3.9184    1.3939   -0.3338 H   0  0  0  0  0  0  0  0  0  0  0  0
    2.6226   -2.1916    0.6267 H   0  0  0  0  0  0  0  0  0  0  0  0
    6.2971    1.2837   -0.4473 H   0  0  0  0  0  0  0  0  0  0  0  0
    4.5689   -4.1518    0.6127 C   0  0  0  0  0  0  0  0  0  0  0  0
  5  6  2  0
  5  4  1  0
  6 31  1  0
  4  3  2  0
 53 30  1  0
 31 30  1  0
 31  2  2  0
  3  2  1  0
 30 29  1  0
  2 28  1  0
 29 28  2  0
 28 27  1  0
 27 25  1  0
 25 26  2  0
 25 24  1  0
 11 24  1  0
 11 12  1  0
 23  9  2  0
 24 10  1  0
  1 15  1  1
  9 10  1  0
  9 22  1  0
 16  1  1  0
 10 13  1  0
  7 21  2  0
  7  8  1  0
 21 20  1  0
 12 13  1  0
  1 14  1  0
  1 17  1  0
  8 18  2  0
 20 22  1  0
 20 19  2  0
 18 19  1  0
 18 17  1  0
  3 52  1  0
  4 32  1  0
  5 33  1  0
  6 34  1  0
 53 35  1  0
 53 36  1  0
 53 37  1  0
  7 38  1  0
  8 39  1  0
 10 40  1  1
 11 41  1  0
 11 42  1  0
 12 43  1  0
 12 44  1  0
 13 45  1  0
 13 46  1  0
 19 47  1  0
 21 48  1  0
 22 49  1  0
 27 50  1  0
 29 51  1  0
M  END
