
     RDKit          3D

 66 70  0  0  0  0  0  0  0  0999 V2000
    4.3504    0.0373    0.0550 C   0  0  0  0  0  0  0  0  0  0  0  0
    8.1042    0.5013    0.3419 C   0  0  0  0  0  0  0  0  0  0  0  0
    0.6830    0.4148    0.8264 C   0  0  0  0  0  0  0  0  0  0  0  0
    6.7439    0.0335   -1.3555 C   0  0  0  0  0  0  0  0  0  0  0  0
   -2.1577    2.8420   -0.0646 C   0  0  0  0  0  0  0  0  0  0  0  0
   -2.4902   -0.5575   -0.4811 C   0  0  0  0  0  0  0  0  0  0  0  0
   -4.8830   -0.7029    0.2302 C   0  0  0  0  0  0  0  0  0  0  0  0
   -3.7727   -2.6826   -0.8570 C   0  0  0  0  0  0  0  0  0  0  0  0
   -6.0020   -1.6116    0.7274 C   0  0  0  0  0  0  0  0  0  0  0  0
   -4.8950   -3.5804   -0.3507 C   0  0  0  0  0  0  0  0  0  0  0  0
   -3.5691   -1.4770    0.0593 C   0  0  1  0  0  0  0  0  0  0  0  0
    1.7048   -0.3670    2.7003 C   0  0  0  0  0  0  0  0  0  0  0  0
    6.7286    0.2903    0.0265 C   0  0  0  0  0  0  0  0  0  0  0  0
   -4.4302    3.7573   -1.4186 C   0  0  0  0  0  0  0  0  0  0  0  0
   -3.1782    3.8429   -2.0159 C   0  0  0  0  0  0  0  0  0  0  0  0
   -4.5447    3.2187   -0.1449 C   0  0  0  0  0  0  0  0  0  0  0  0
    4.3919   -0.2175   -1.3402 C   0  0  0  0  0  0  0  0  0  0  0  0
   -2.0545    3.3870   -1.3428 C   0  0  0  0  0  0  0  0  0  0  0  0
   -3.4151    2.7666    0.5255 C   0  0  0  0  0  0  0  0  0  0  0  0
    5.5612   -0.2277   -2.0586 C   0  0  0  0  0  0  0  0  0  0  0  0
    2.9475   -0.3821    2.0903 C   0  0  0  0  0  0  0  0  0  0  0  0
    5.5270    0.2899    0.7365 C   0  0  0  0  0  0  0  0  0  0  0  0
    1.8835    0.4417    0.1337 C   0  0  0  0  0  0  0  0  0  0  0  0
    3.0587    0.0340    0.7638 C   0  0  0  0  0  0  0  0  0  0  0  0
   -6.2081   -2.8193   -0.1828 C   0  0  1  0  0  0  0  0  0  0  0  0
   -0.9416    2.3063    0.6329 C   0  0  0  0  0  0  0  0  0  0  0  0
   -0.5943    0.8797    0.1676 C   0  0  2  0  0  0  0  0  0  0  0  0
    0.5910    0.0205    2.0917 N   0  0  0  0  0  0  0  0  0  0  0  0
    8.8579    0.3848   -0.7124 N   0  0  0  0  0  0  0  0  0  0  0  0
    8.0310    0.1019   -1.7395 N   0  0  0  0  0  0  0  0  0  0  0  0
   -1.6623   -0.0468    0.4496 N   0  0  0  0  0  0  0  0  0  0  0  0
   -2.3944   -0.2987   -1.6726 O   0  0  0  0  0  0  0  0  0  0  0  0
    8.6622    0.7798    1.5233 O   0  0  0  0  0  0  0  0  0  0  0  0
   -5.1657   -0.2574   -0.7290 H   0  0  0  0  0  0  0  0  0  0  0  0
   -4.7400    0.1251    0.9283 H   0  0  0  0  0  0  0  0  0  0  0  0
   -2.8445   -3.2549   -0.9346 H   0  0  0  0  0  0  0  0  0  0  0  0
   -4.0132   -2.3326   -1.8642 H   0  0  0  0  0  0  0  0  0  0  0  0
   -5.7604   -1.9652    1.7373 H   0  0  0  0  0  0  0  0  0  0  0  0
   -6.9300   -1.0436    0.8109 H   0  0  0  0  0  0  0  0  0  0  0  0
   -5.0329   -4.4169   -1.0416 H   0  0  0  0  0  0  0  0  0  0  0  0
   -4.6070   -4.0177    0.6130 H   0  0  0  0  0  0  0  0  0  0  0  0
   -3.2682   -1.8427    1.0488 H   0  0  0  0  0  0  0  0  0  0  0  0
    1.6055   -0.6935    3.7294 H   0  0  0  0  0  0  0  0  0  0  0  0
   -5.3095    4.1110   -1.9415 H   0  0  0  0  0  0  0  0  0  0  0  0
   -3.0766    4.2681   -3.0064 H   0  0  0  0  0  0  0  0  0  0  0  0
   -5.5150    3.1483    0.3302 H   0  0  0  0  0  0  0  0  0  0  0  0
    3.4690   -0.4357   -1.8621 H   0  0  0  0  0  0  0  0  0  0  0  0
   -1.0818    3.4592   -1.8168 H   0  0  0  0  0  0  0  0  0  0  0  0
   -3.5144    2.3530    1.5221 H   0  0  0  0  0  0  0  0  0  0  0  0
    5.5644   -0.4347   -3.1201 H   0  0  0  0  0  0  0  0  0  0  0  0
    3.8059   -0.7397    2.6433 H   0  0  0  0  0  0  0  0  0  0  0  0
    5.5127    0.5041    1.7983 H   0  0  0  0  0  0  0  0  0  0  0  0
    1.8930    0.7916   -0.8907 H   0  0  0  0  0  0  0  0  0  0  0  0
   -6.5063   -2.4495   -1.1750 H   0  0  0  0  0  0  0  0  0  0  0  0
   -0.0799    2.9497    0.4371 H   0  0  0  0  0  0  0  0  0  0  0  0
   -1.0930    2.2978    1.7155 H   0  0  0  0  0  0  0  0  0  0  0  0
   -0.4478    0.8922   -0.9130 H   0  0  0  0  0  0  0  0  0  0  0  0
   -8.8922   -2.7974   -0.5011 H   0  0  0  0  0  0  0  0  0  0  0  0
   -9.2864   -3.7373    0.7467 H   0  0  0  0  0  0  0  0  0  0  0  0
   -1.7957   -0.3049    1.4152 H   0  0  0  0  0  0  0  0  0  0  0  0
    8.4128   -0.0319   -2.6605 H   0  0  0  0  0  0  0  0  0  0  0  0
    7.9880    0.8623    2.2058 H   0  0  0  0  0  0  0  0  0  0  0  0
   -7.3039   -3.7517    0.3191 C   0  0  0  0  0  0  0  0  0  0  0  0
   -8.5897   -3.0777    0.4243 N   0  0  0  0  0  0  0  0  0  0  0  0
   -7.3301   -4.6352   -0.3365 H   0  0  0  0  0  0  0  0  0  0  0  0
   -7.0261   -4.1178    1.3131 H   0  0  0  0  0  0  0  0  0  0  0  0
 12 28  2  0
 12 21  1  0
 28  3  1  0
 10  8  1  0
 10 25  1  0
 64 63  1  0
  8 11  1  0
 18 15  1  0
 18  5  2  0
 21 24  2  0
 26  5  1  0
 26 27  1  0
 63 25  1  0
 31 27  1  0
 31  6  1  0
 11  6  1  0
 11  7  1  0
 15 14  2  0
 25  9  1  0
  3 27  1  0
  3 23  2  0
  5 19  1  0
  6 32  2  0
  9  7  1  0
 24 23  1  0
 24  1  1  0
 14 16  1  0
 19 16  2  0
 22  1  1  0
 22 13  2  0
  1 17  2  0
 33  2  1  0
 13  2  1  0
 13  4  1  0
 17 20  1  0
  2 29  2  0
  4 20  2  0
  4 30  1  0
 29 30  1  0
  7 34  1  0
  7 35  1  0
  8 36  1  0
  8 37  1  0
  9 38  1  0
  9 39  1  0
 10 40  1  0
 10 41  1  0
 11 42  1  1
 12 43  1  0
 63 65  1  0
 63 66  1  0
 14 44  1  0
 15 45  1  0
 16 46  1  0
 17 47  1  0
 18 48  1  0
 19 49  1  0
 20 50  1  0
 21 51  1  0
 22 52  1  0
 23 53  1  0
 25 54  1  6
 26 55  1  0
 26 56  1  0
 27 57  1  6
 64 58  1  0
 64 59  1  0
 31 60  1  0
 30 61  1  0
 33 62  1  0
M  END
