
     RDKit          3D

 59 62  0  0  0  0  0  0  0  0999 V2000
   -6.4840   -0.3058    0.3519 Cl  0  0  0  0  0  0  0  0  0  0  0  0
   -4.8166    0.0272    0.0234 C   0  0  0  0  0  0  0  0  0  0  0  0
   -4.0340   -0.9446   -0.5780 C   0  0  0  0  0  0  0  0  0  0  0  0
   -2.7002   -0.6639   -0.8313 C   0  0  0  0  0  0  0  0  0  0  0  0
   -2.1545    0.5719   -0.5006 C   0  0  0  0  0  0  0  0  0  0  0  0
   -0.7311    0.9267   -0.7256 C   0  0  0  0  0  0  0  0  0  0  0  0
   -0.1330    1.8664   -0.1039 N   0  0  0  0  0  0  0  0  0  0  0  0
   -0.8574    2.6129    0.9134 C   0  0  1  0  0  0  0  0  0  0  0  0
   -0.7792    1.8602    2.2448 C   0  0  0  0  0  0  0  0  0  0  0  0
   -0.1779    3.9704    1.0625 C   0  0  0  0  0  0  0  0  0  0  0  0
   -2.3151    2.8326    0.4924 C   0  0  0  0  0  0  0  0  0  0  0  0
   -2.9542    1.5317    0.1236 C   0  0  0  0  0  0  0  0  0  0  0  0
   -4.2888    1.2580    0.3821 C   0  0  0  0  0  0  0  0  0  0  0  0
   -0.0706    0.1686   -1.6450 N   0  0  0  0  0  0  0  0  0  0  0  0
    1.3419    0.2449   -1.8503 C   0  0  1  0  0  0  0  0  0  0  0  0
    2.0573   -1.0167   -1.3137 C   0  0  0  0  0  0  0  0  0  0  0  0
    1.6561    0.4629   -3.3167 C   0  0  0  0  0  0  0  0  0  0  0  0
    0.8398    0.4624   -4.2029 O   0  0  0  0  0  0  0  0  0  0  0  0
    2.9539    0.6466   -3.5126 O   0  0  0  0  0  0  0  0  0  0  0  0
    1.8122   -1.1758    0.1538 C   0  0  0  0  0  0  0  0  0  0  0  0
    2.4419   -0.3577    1.1527 C   0  0  0  0  0  0  0  0  0  0  0  0
    2.0024   -0.6473    2.4095 C   0  0  0  0  0  0  0  0  0  0  0  0
    0.8240   -1.8878    2.4003 S   0  0  0  0  0  0  0  0  0  0  0  0
    0.9080   -2.0498    0.6863 C   0  0  0  0  0  0  0  0  0  0  0  0
    0.1081   -3.1051   -0.0059 C   0  0  0  0  0  0  0  0  0  0  0  0
    0.8573   -4.4340   -0.1268 C   0  0  0  0  0  0  0  0  0  0  0  0
    0.0424   -5.4877   -0.8613 C   0  0  0  0  0  0  0  0  0  0  0  0
    3.4236    0.6889    0.8759 C   0  0  0  0  0  0  0  0  0  0  0  0
    3.3990    1.9879    1.3391 C   0  0  0  0  0  0  0  0  0  0  0  0
    4.5001    2.5871    0.8636 N   0  0  0  0  0  0  0  0  0  0  0  0
    5.2506    1.7846    0.1188 N   0  0  0  0  0  0  0  0  0  0  0  0
    4.6111    0.6304    0.1151 C   0  0  0  0  0  0  0  0  0  0  0  0
   -4.4491   -1.9078   -0.8399 H   0  0  0  0  0  0  0  0  0  0  0  0
   -2.0968   -1.4422   -1.2796 H   0  0  0  0  0  0  0  0  0  0  0  0
    0.2630    1.7096    2.5271 H   0  0  0  0  0  0  0  0  0  0  0  0
   -1.2767    2.4172    3.0412 H   0  0  0  0  0  0  0  0  0  0  0  0
   -1.2376    0.8722    2.1800 H   0  0  0  0  0  0  0  0  0  0  0  0
   -0.2103    4.5302    0.1260 H   0  0  0  0  0  0  0  0  0  0  0  0
   -0.6656    4.5722    1.8317 H   0  0  0  0  0  0  0  0  0  0  0  0
    0.8690    3.8481    1.3433 H   0  0  0  0  0  0  0  0  0  0  0  0
   -2.8802    3.3311    1.2827 H   0  0  0  0  0  0  0  0  0  0  0  0
   -2.3348    3.4984   -0.3791 H   0  0  0  0  0  0  0  0  0  0  0  0
   -4.9094    2.0005    0.8674 H   0  0  0  0  0  0  0  0  0  0  0  0
   -0.6042   -0.4035   -2.2763 H   0  0  0  0  0  0  0  0  0  0  0  0
    1.7079    1.1140   -1.2964 H   0  0  0  0  0  0  0  0  0  0  0  0
    1.6932   -1.8907   -1.8591 H   0  0  0  0  0  0  0  0  0  0  0  0
    3.1248   -0.9493   -1.5227 H   0  0  0  0  0  0  0  0  0  0  0  0
    3.1363    0.7638   -4.4573 H   0  0  0  0  0  0  0  0  0  0  0  0
    2.3190   -0.1933    3.3361 H   0  0  0  0  0  0  0  0  0  0  0  0
   -0.8398   -3.2665    0.5149 H   0  0  0  0  0  0  0  0  0  0  0  0
   -0.1586   -2.7541   -1.0055 H   0  0  0  0  0  0  0  0  0  0  0  0
    1.8023   -4.2616   -0.6498 H   0  0  0  0  0  0  0  0  0  0  0  0
    1.1217   -4.7931    0.8713 H   0  0  0  0  0  0  0  0  0  0  0  0
   -0.8874   -5.7084   -0.3340 H   0  0  0  0  0  0  0  0  0  0  0  0
   -0.2209   -5.1511   -1.8657 H   0  0  0  0  0  0  0  0  0  0  0  0
    0.5968   -6.4212   -0.9594 H   0  0  0  0  0  0  0  0  0  0  0  0
    2.6787    2.5081    1.9479 H   0  0  0  0  0  0  0  0  0  0  0  0
    4.7800    3.5435    1.0103 H   0  0  0  0  0  0  0  0  0  0  0  0
    5.0227   -0.2162   -0.4137 H   0  0  0  0  0  0  0  0  0  0  0  0
  1  2  1  0
  3  2  2  0
  3  4  1  0
  2 13  1  0
  4  5  2  0
 30 31  1  0
 30 29  1  0
 18 17  2  0
 13 12  2  0
 31 32  2  0
  5 12  1  0
  5  6  1  0
 29 28  2  0
 12 11  1  0
 14  6  1  0
 14 15  1  0
 17 15  1  0
 17 19  1  0
  6  7  2  0
 32 28  1  0
 28 21  1  0
 15 16  1  0
 11  8  1  0
 16 20  1  0
  7  8  1  0
 21 20  1  0
 21 22  2  0
  8  9  1  1
  8 10  1  0
 20 24  2  0
 22 23  1  0
 24 25  1  0
 24 23  1  0
 25 26  1  0
 26 27  1  0
  3 33  1  0
  4 34  1  0
  9 35  1  0
  9 36  1  0
  9 37  1  0
 10 38  1  0
 10 39  1  0
 10 40  1  0
 11 41  1  0
 11 42  1  0
 13 43  1  0
 14 44  1  0
 15 45  1  1
 16 46  1  0
 16 47  1  0
 19 48  1  0
 22 49  1  0
 25 50  1  0
 25 51  1  0
 26 52  1  0
 26 53  1  0
 27 54  1  0
 27 55  1  0
 27 56  1  0
 29 57  1  0
 30 58  1  0
 32 59  1  0
M  END
