
     RDKit          3D

 38 40  0  0  0  0  0  0  0  0999 V2000
   -4.2244   -1.3221    0.3605 S   0  0  1  0  0  0  0  0  0  0  0  0
    5.3181   -0.8737    0.8798 N   0  0  0  0  0  0  0  0  0  0  0  0
    4.8096    0.2699    1.3295 C   0  0  0  0  0  0  0  0  0  0  0  0
    3.6136    0.7842    1.0991 N   0  0  0  0  0  0  0  0  0  0  0  0
    2.8841   -0.0019    0.3125 C   0  0  0  0  0  0  0  0  0  0  0  0
    3.2720   -1.2173   -0.2274 C   0  0  0  0  0  0  0  0  0  0  0  0
    4.5718   -1.6538    0.0892 C   0  0  0  0  0  0  0  0  0  0  0  0
    5.0799   -2.7996   -0.3639 N   0  0  0  0  0  0  0  0  0  0  0  0
    2.2649   -1.7574   -0.9862 N   0  0  0  0  0  0  0  0  0  0  0  0
    1.3019   -0.8906   -0.9094 C   0  0  0  0  0  0  0  0  0  0  0  0
    1.6109    0.2011   -0.1411 N   0  0  0  0  0  0  0  0  0  0  0  0
    0.7602    1.3167    0.1772 C   0  0  1  0  0  0  0  0  0  0  0  0
   -4.1491   -1.8750   -1.1952 N   0  0  0  0  0  0  0  0  0  0  0  0
    0.2397    2.0701   -1.0465 C   0  0  2  0  0  0  0  0  0  0  0  0
    1.1919    2.9973   -1.4697 O   0  0  0  0  0  0  0  0  0  0  0  0
   -5.3115   -0.3618    0.3718 O   0  0  0  0  0  0  0  0  0  0  0  0
   -1.0553    2.6726   -0.4965 C   0  0  2  0  0  0  0  0  0  0  0  0
   -0.7886    3.7932    0.3040 O   0  0  0  0  0  0  0  0  0  0  0  0
   -4.2138   -2.3929    1.3408 O   0  0  0  0  0  0  0  0  0  0  0  0
   -1.5502    1.5455    0.4013 C   0  0  2  0  0  0  0  0  0  0  0  0
   -0.3785    0.8605    0.8575 O   0  0  0  0  0  0  0  0  0  0  0  0
   -2.4670    0.5749   -0.3228 C   0  0  0  0  0  0  0  0  0  0  0  0
   -2.8173   -0.5145    0.5733 N   0  0  0  0  0  0  0  0  0  0  0  0
    6.0161   -3.0715   -0.1182 H   0  0  0  0  0  0  0  0  0  0  0  0
    4.5463   -3.4083   -0.9592 H   0  0  0  0  0  0  0  0  0  0  0  0
    0.3411   -0.9965   -1.3914 H   0  0  0  0  0  0  0  0  0  0  0  0
    1.3583    1.9853    0.8049 H   0  0  0  0  0  0  0  0  0  0  0  0
   -3.5098   -2.6548   -1.3068 H   0  0  0  0  0  0  0  0  0  0  0  0
   -5.0656   -2.1150   -1.5592 H   0  0  0  0  0  0  0  0  0  0  0  0
   -0.0090    1.3582   -1.8438 H   0  0  0  0  0  0  0  0  0  0  0  0
    1.0014    3.2477   -2.3795 H   0  0  0  0  0  0  0  0  0  0  0  0
   -1.7732    2.9013   -1.2954 H   0  0  0  0  0  0  0  0  0  0  0  0
   -0.1849    4.3703   -0.1787 H   0  0  0  0  0  0  0  0  0  0  0  0
   -2.0807    1.9417    1.2713 H   0  0  0  0  0  0  0  0  0  0  0  0
   -3.3751    1.1103   -0.6009 H   0  0  0  0  0  0  0  0  0  0  0  0
   -2.0123    0.2089   -1.2502 H   0  0  0  0  0  0  0  0  0  0  0  0
   -2.0502   -1.1216    0.8390 H   0  0  0  0  0  0  0  0  0  0  0  0
    5.4651    0.8526    1.9676 H   0  0  0  0  0  0  0  0  0  0  0  0
  1 13  1  6
  1 16  2  0
  1 19  2  0
  1 23  1  0
  2  3  2  0
  2  7  1  0
  3  4  1  0
  4  5  2  0
  5  6  1  0
  5 11  1  0
  6  7  2  0
  6  9  1  0
  7  8  1  0
  9 10  2  0
 10 11  1  0
 11 12  1  0
 12 14  1  0
 12 21  1  0
 14 15  1  0
 14 17  1  0
 17 18  1  0
 17 20  1  0
 20 21  1  0
 20 22  1  0
 22 23  1  0
  3 38  1  0
  8 24  1  0
  8 25  1  0
 10 26  1  0
 12 27  1  1
 13 28  1  0
 13 29  1  0
 14 30  1  6
 15 31  1  0
 17 32  1  6
 18 33  1  0
 20 34  1  1
 22 35  1  0
 22 36  1  0
 23 37  1  0
M  END
