
     RDKit          3D

 63 64  0  0  0  0  0  0  0  0999 V2000
    0.9149   -0.1973    2.2434 O   0  0  0  0  0  0  0  0  0  0  0  0
    1.4088    0.1057    1.1770 C   0  0  0  0  0  0  0  0  0  0  0  0
    2.4826   -0.4946    0.6519 O   0  0  0  0  0  0  0  0  0  0  0  0
    3.1020   -1.5236    1.4313 C   0  0  0  0  0  0  0  0  0  0  0  0
    4.3343   -1.9489    0.6924 C   0  0  0  0  0  0  0  0  0  0  0  0
    5.5362   -1.2726    0.8837 C   0  0  0  0  0  0  0  0  0  0  0  0
    6.6752   -1.6471    0.1851 C   0  0  0  0  0  0  0  0  0  0  0  0
    6.6216   -2.7044   -0.7149 C   0  0  0  0  0  0  0  0  0  0  0  0
    5.4264   -3.3833   -0.9122 C   0  0  0  0  0  0  0  0  0  0  0  0
    4.2882   -3.0047   -0.2128 C   0  0  0  0  0  0  0  0  0  0  0  0
    0.9840    1.0949    0.3679 N   0  0  0  0  0  0  0  0  0  0  0  0
   -0.1919    1.8907    0.6298 C   0  0  1  0  0  0  0  0  0  0  0  0
    0.1469    3.3787    0.5341 C   0  0  0  0  0  0  0  0  0  0  0  0
   -1.0285    4.3344    0.7412 C   0  0  1  0  0  0  0  0  0  0  0  0
   -1.6967    4.1554    2.1008 C   0  0  0  0  0  0  0  0  0  0  0  0
   -0.5525    5.7731    0.5643 C   0  0  0  0  0  0  0  0  0  0  0  0
   -1.2665    1.5174   -0.3914 C   0  0  0  0  0  0  0  0  0  0  0  0
   -1.0442    1.6225   -1.5871 O   0  0  0  0  0  0  0  0  0  0  0  0
   -2.4310    1.0956    0.1283 N   0  0  0  0  0  0  0  0  0  0  0  0
   -3.5307    0.5632   -0.6502 C   0  0  2  0  0  0  0  0  0  0  0  0
   -4.7963    1.4151   -0.4823 C   0  0  1  0  0  0  0  0  0  0  0  0
   -5.2350    1.4384    0.8620 O   0  0  0  0  0  0  0  0  0  0  0  0
   -4.6189    2.8146   -1.0452 C   0  0  0  0  0  0  0  0  0  0  0  0
   -3.7711   -0.9064   -0.2842 C   0  0  0  0  0  0  0  0  0  0  0  0
   -2.5554   -1.7584   -0.5125 C   0  0  0  0  0  0  0  0  0  0  0  0
   -2.2759   -2.2870   -1.7688 C   0  0  0  0  0  0  0  0  0  0  0  0
   -1.1405   -3.0498   -2.0006 C   0  0  0  0  0  0  0  0  0  0  0  0
   -0.2481   -3.2984   -0.9615 C   0  0  0  0  0  0  0  0  0  0  0  0
    0.8653   -4.0465   -1.1203 O   0  0  0  0  0  0  0  0  0  0  0  0
   -0.5061   -2.7705    0.2996 C   0  0  0  0  0  0  0  0  0  0  0  0
   -1.6459   -2.0117    0.5109 C   0  0  0  0  0  0  0  0  0  0  0  0
    3.3574   -1.1429    2.4224 H   0  0  0  0  0  0  0  0  0  0  0  0
    2.4158   -2.3634    1.5583 H   0  0  0  0  0  0  0  0  0  0  0  0
    5.5834   -0.4499    1.5874 H   0  0  0  0  0  0  0  0  0  0  0  0
    7.6047   -1.1160    0.3441 H   0  0  0  0  0  0  0  0  0  0  0  0
    7.5095   -2.9990   -1.2595 H   0  0  0  0  0  0  0  0  0  0  0  0
    5.3801   -4.2087   -1.6106 H   0  0  0  0  0  0  0  0  0  0  0  0
    3.3564   -3.5346   -0.3708 H   0  0  0  0  0  0  0  0  0  0  0  0
    1.4511    1.2324   -0.5154 H   0  0  0  0  0  0  0  0  0  0  0  0
   -0.5247    1.6559    1.6411 H   0  0  0  0  0  0  0  0  0  0  0  0
    0.5925    3.5727   -0.4461 H   0  0  0  0  0  0  0  0  0  0  0  0
    0.9201    3.5894    1.2790 H   0  0  0  0  0  0  0  0  0  0  0  0
   -1.7752    4.1423   -0.0383 H   0  0  0  0  0  0  0  0  0  0  0  0
   -2.4907    4.8905    2.2408 H   0  0  0  0  0  0  0  0  0  0  0  0
   -2.1516    3.1708    2.2196 H   0  0  0  0  0  0  0  0  0  0  0  0
   -0.9757    4.2850    2.9114 H   0  0  0  0  0  0  0  0  0  0  0  0
    0.2046    6.0305    1.3089 H   0  0  0  0  0  0  0  0  0  0  0  0
   -0.1140    5.9283   -0.4229 H   0  0  0  0  0  0  0  0  0  0  0  0
   -1.3793    6.4758    0.6757 H   0  0  0  0  0  0  0  0  0  0  0  0
   -2.4626    0.9412    1.1244 H   0  0  0  0  0  0  0  0  0  0  0  0
   -3.2376    0.6168   -1.7003 H   0  0  0  0  0  0  0  0  0  0  0  0
   -5.5884    0.9110   -1.0449 H   0  0  0  0  0  0  0  0  0  0  0  0
   -4.7275    2.1028    1.3395 H   0  0  0  0  0  0  0  0  0  0  0  0
   -4.3132    2.7750   -2.0908 H   0  0  0  0  0  0  0  0  0  0  0  0
   -5.5492    3.3798   -0.9859 H   0  0  0  0  0  0  0  0  0  0  0  0
   -3.8517    3.3703   -0.5002 H   0  0  0  0  0  0  0  0  0  0  0  0
   -4.0890   -0.9745    0.7595 H   0  0  0  0  0  0  0  0  0  0  0  0
   -4.6063   -1.2715   -0.8876 H   0  0  0  0  0  0  0  0  0  0  0  0
   -2.9613   -2.1070   -2.5894 H   0  0  0  0  0  0  0  0  0  0  0  0
   -0.9560   -3.4550   -2.9897 H   0  0  0  0  0  0  0  0  0  0  0  0
    0.9453   -4.3404   -2.0343 H   0  0  0  0  0  0  0  0  0  0  0  0
    0.1794   -2.9607    1.1157 H   0  0  0  0  0  0  0  0  0  0  0  0
   -1.8306   -1.6190    1.5036 H   0  0  0  0  0  0  0  0  0  0  0  0
  1  2  2  0
  2  3  1  0
  2 11  1  0
  3  4  1  0
  4  5  1  0
  4 32  1  0
  4 33  1  0
  5  6  2  0
  5 10  1  0
  6  7  1  0
  6 34  1  0
  7  8  2  0
  7 35  1  0
  8  9  1  0
  8 36  1  0
  9 10  2  0
  9 37  1  0
 10 38  1  0
 11 12  1  0
 11 39  1  0
 12 13  1  0
 12 17  1  0
 12 40  1  1
 13 14  1  0
 13 41  1  0
 13 42  1  0
 14 15  1  0
 14 16  1  0
 14 43  1  6
 15 44  1  0
 15 45  1  0
 15 46  1  0
 16 47  1  0
 16 48  1  0
 16 49  1  0
 17 18  2  0
 17 19  1  0
 19 20  1  0
 19 50  1  0
 20 21  1  0
 20 24  1  0
 20 51  1  6
 21 22  1  0
 21 23  1  0
 21 52  1  6
 22 53  1  0
 23 54  1  0
 23 55  1  0
 23 56  1  0
 24 25  1  0
 24 57  1  0
 24 58  1  0
 25 26  2  0
 25 31  1  0
 26 27  1  0
 26 59  1  0
 27 28  2  0
 27 60  1  0
 28 29  1  0
 28 30  1  0
 29 61  1  0
 30 31  2  0
 30 62  1  0
 31 63  1  0
M  END
