
     RDKit          3D

 26 27  0  0  0  0  0  0  0  0999 V2000
    2.4248    3.0040   -0.3397 C   0  0  0  0  0  0  0  0  0  0  0  0
    3.0834    1.3302   -0.1904 S   0  0  0  0  0  0  0  0  0  0  0  0
    1.6158    0.4043   -0.0787 C   0  0  0  0  0  0  0  0  0  0  0  0
    0.4215    0.9160   -0.1491 N   0  0  0  0  0  0  0  0  0  0  0  0
   -0.4347   -0.1416   -0.0402 N   0  0  0  0  0  0  0  0  0  0  0  0
    0.2083   -1.3140    0.1180 C   0  0  0  0  0  0  0  0  0  0  0  0
   -0.3983   -2.5099    0.2368 N   0  0  0  0  0  0  0  0  0  0  0  0
    1.5706   -1.0070    0.0886 C   0  0  0  0  0  0  0  0  0  0  0  0
    2.6375   -1.9033    0.2196 C   0  0  0  0  0  0  0  0  0  0  0  0
    3.5211   -2.6409    0.3277 N   0  0  0  0  0  0  0  0  0  0  0  0
   -1.8275    0.0896   -0.0484 C   0  0  0  0  0  0  0  0  0  0  0  0
   -2.3495    1.1051    0.7446 C   0  0  0  0  0  0  0  0  0  0  0  0
   -3.7142    1.3452    0.7301 C   0  0  0  0  0  0  0  0  0  0  0  0
   -4.5559    0.5694   -0.0583 C   0  0  0  0  0  0  0  0  0  0  0  0
   -4.0254   -0.4411   -0.8472 C   0  0  0  0  0  0  0  0  0  0  0  0
   -2.6576   -0.6783   -0.8563 C   0  0  0  0  0  0  0  0  0  0  0  0
    3.2881    3.6563   -0.4494 H   0  0  0  0  0  0  0  0  0  0  0  0
    1.7908    3.0973   -1.2177 H   0  0  0  0  0  0  0  0  0  0  0  0
    1.8709    3.2881    0.5516 H   0  0  0  0  0  0  0  0  0  0  0  0
   -1.3528   -2.5306    0.5614 H   0  0  0  0  0  0  0  0  0  0  0  0
    0.1626   -3.2650    0.5971 H   0  0  0  0  0  0  0  0  0  0  0  0
   -1.6917    1.6992    1.3645 H   0  0  0  0  0  0  0  0  0  0  0  0
   -4.1233    2.1373    1.3431 H   0  0  0  0  0  0  0  0  0  0  0  0
   -5.6213    0.7573   -0.0607 H   0  0  0  0  0  0  0  0  0  0  0  0
   -4.6719   -1.0393   -1.4749 H   0  0  0  0  0  0  0  0  0  0  0  0
   -2.2447   -1.4433   -1.5011 H   0  0  0  0  0  0  0  0  0  0  0  0
  1  2  1  0
  2  3  1  0
  3  4  2  0
  3  8  1  0
  4  5  1  0
  5  6  1  0
  5 11  1  0
  6  7  1  0
  6  8  2  0
  8  9  1  0
  9 10  3  0
 11 12  2  0
 11 16  1  0
 12 13  1  0
 13 14  2  0
 14 15  1  0
 15 16  2  0
  1 17  1  0
  1 18  1  0
  1 19  1  0
  7 20  1  0
  7 21  1  0
 12 22  1  0
 13 23  1  0
 14 24  1  0
 15 25  1  0
 16 26  1  0
M  END
