
     RDKit          3D

 22 24  0  0  0  0  0  0  0  0999 V2000
    1.4406    2.1632    0.0194 C   0  0  0  0  0  0  0  0  0  0  0  0
    0.2100    2.7663    0.0274 C   0  0  0  0  0  0  0  0  0  0  0  0
   -2.1125   -0.1849   -0.1779 C   0  0  0  0  0  0  0  0  0  0  0  0
   -0.8187   -2.1910    0.2392 C   0  0  0  0  0  0  0  0  0  0  0  0
    0.4518   -1.4255    0.0593 C   0  0  0  0  0  0  0  0  0  0  0  0
    1.6754   -2.0405    0.0333 C   0  0  0  0  0  0  0  0  0  0  0  0
    2.8585   -1.2755   -0.0023 C   0  0  0  0  0  0  0  0  0  0  0  0
    2.8054    0.0922   -0.0023 C   0  0  0  0  0  0  0  0  0  0  0  0
    1.5574    0.7551    0.0094 C   0  0  0  0  0  0  0  0  0  0  0  0
   -0.9636    1.9936   -0.0053 C   0  0  0  0  0  0  0  0  0  0  0  0
   -0.8868    0.6222   -0.0147 C   0  0  0  0  0  0  0  0  0  0  0  0
    0.3740   -0.0201    0.0192 C   0  0  0  0  0  0  0  0  0  0  0  0
   -3.2096    0.2909   -0.3331 O   0  0  0  0  0  0  0  0  0  0  0  0
   -1.9828   -1.5086   -0.2308 O   0  0  0  0  0  0  0  0  0  0  0  0
    2.3404    2.7658    0.0217 H   0  0  0  0  0  0  0  0  0  0  0  0
    0.1344    3.8450    0.0388 H   0  0  0  0  0  0  0  0  0  0  0  0
   -0.7902   -3.1400   -0.2944 H   0  0  0  0  0  0  0  0  0  0  0  0
   -0.9672   -2.4129    1.3003 H   0  0  0  0  0  0  0  0  0  0  0  0
    1.7419   -3.1214    0.0565 H   0  0  0  0  0  0  0  0  0  0  0  0
    3.8149   -1.7810   -0.0206 H   0  0  0  0  0  0  0  0  0  0  0  0
    3.7154    0.6794   -0.0133 H   0  0  0  0  0  0  0  0  0  0  0  0
   -1.9260    2.4862   -0.0413 H   0  0  0  0  0  0  0  0  0  0  0  0
  4 14  1  0
  4  5  1  0
  6  5  2  0
  6  7  1  0
 14  3  1  0
  5 12  1  0
  7  8  2  0
  3 13  2  0
  3 11  1  0
 12 11  2  0
 12  9  1  0
  8  9  1  0
 11 10  1  0
  9  1  2  0
 10  2  2  0
  1  2  1  0
  1 15  1  0
  2 16  1  0
  4 17  1  0
  4 18  1  0
  6 19  1  0
  7 20  1  0
  8 21  1  0
 10 22  1  0
M  END
