
     RDKit          3D

 14 13  0  0  0  0  0  0  0  0999 V2000
   -0.0035    0.0740    0.1192 C   0  0  1  0  0  0  0  0  0  0  0  0
    1.2363    0.8919   -0.2641 C   0  0  0  0  0  0  0  0  0  0  0  0
   -2.4644    0.1359    0.0849 C   0  0  0  0  0  0  0  0  0  0  0  0
   -1.2584    0.8730   -0.2531 C   0  0  0  0  0  0  0  0  0  0  0  0
    2.4550    0.1727    0.0655 C   0  0  0  0  0  0  0  0  0  0  0  0
   -3.4168   -0.4482    0.3580 N   0  0  0  0  0  0  0  0  0  0  0  0
    0.0039   -1.1990   -0.4536 O   0  0  0  0  0  0  0  0  0  0  0  0
    3.4177   -0.3977    0.3314 N   0  0  0  0  0  0  0  0  0  0  0  0
    0.0021   -0.0765    1.2004 H   0  0  0  0  0  0  0  0  0  0  0  0
    1.2446    1.1127   -1.3350 H   0  0  0  0  0  0  0  0  0  0  0  0
    1.2450    1.8466    0.2645 H   0  0  0  0  0  0  0  0  0  0  0  0
   -1.2773    1.8267    0.2770 H   0  0  0  0  0  0  0  0  0  0  0  0
   -1.2793    1.0955   -1.3234 H   0  0  0  0  0  0  0  0  0  0  0  0
   -0.0002   -1.1188   -1.4147 H   0  0  0  0  0  0  0  0  0  0  0  0
  2  5  1  0
  2  1  1  0
  7  1  1  0
  5  8  3  0
  1  4  1  0
  4  3  1  0
  3  6  3  0
  1  9  1  1
  2 10  1  0
  2 11  1  0
  4 12  1  0
  4 13  1  0
  7 14  1  0
M  END
