
     RDKit          3D

 41 43  0  0  0  0  0  0  0  0999 V2000
    2.6798   -0.0291    1.3291 C   0  0  0  0  0  0  0  0  0  0  0  0
   -1.7877   -1.6912    0.0259 N   0  0  0  0  0  0  0  0  0  0  0  0
    1.0382   -1.4496    0.4916 O   0  0  0  0  0  0  0  0  0  0  0  0
    6.4762    1.0810    0.1078 Br  0  0  0  0  0  0  0  0  0  0  0  0
    3.9261    0.5645    1.2642 C   0  0  0  0  0  0  0  0  0  0  0  0
   -4.2503   -0.3130   -0.2912 N   0  0  0  0  0  0  0  0  0  0  0  0
    4.7715    0.2694    0.2011 C   0  0  0  0  0  0  0  0  0  0  0  0
   -5.3836    1.6411   -1.0628 N   0  0  0  0  0  0  0  0  0  0  0  0
    4.3732   -0.6130   -0.7869 C   0  0  0  0  0  0  0  0  0  0  0  0
   -6.6045    2.2293   -0.7958 N   0  0  0  0  0  0  0  0  0  0  0  0
    3.1196   -1.2103   -0.7208 C   0  0  0  0  0  0  0  0  0  0  0  0
   -6.3949    0.4662    0.4704 N   0  0  0  0  0  0  0  0  0  0  0  0
    2.2626   -0.9230    0.3394 C   0  0  0  0  0  0  0  0  0  0  0  0
   -8.4406    1.6977    0.6375 N   0  0  0  0  0  0  0  0  0  0  0  0
    0.5454   -2.3415   -0.4950 C   0  0  0  0  0  0  0  0  0  0  0  0
   -0.8408   -2.7822   -0.0817 C   0  0  0  0  0  0  0  0  0  0  0  0
   -2.1871   -1.1647   -1.2646 C   0  0  0  0  0  0  0  0  0  0  0  0
   -3.0970    0.0368   -1.1032 C   0  0  0  0  0  0  0  0  0  0  0  0
   -3.8840   -0.8980    0.9912 C   0  0  0  0  0  0  0  0  0  0  0  0
   -2.9649   -2.0823    0.7757 C   0  0  0  0  0  0  0  0  0  0  0  0
   -5.2784    0.5913   -0.3051 C   0  0  0  0  0  0  0  0  0  0  0  0
   -7.1861    1.5167    0.1193 C   0  0  0  0  0  0  0  0  0  0  0  0
    2.0173    0.2001    2.1544 H   0  0  0  0  0  0  0  0  0  0  0  0
    4.2261    1.2521    2.0438 H   0  0  0  0  0  0  0  0  0  0  0  0
    5.0239   -0.8526   -1.6173 H   0  0  0  0  0  0  0  0  0  0  0  0
    2.8386   -1.8964   -1.5078 H   0  0  0  0  0  0  0  0  0  0  0  0
   -6.6244   -0.2703    1.1192 H   0  0  0  0  0  0  0  0  0  0  0  0
   -8.8161    2.6115    0.4330 H   0  0  0  0  0  0  0  0  0  0  0  0
   -8.5247    1.4915    1.6221 H   0  0  0  0  0  0  0  0  0  0  0  0
    0.5387   -1.8560   -1.4767 H   0  0  0  0  0  0  0  0  0  0  0  0
    1.1859   -3.2263   -0.5745 H   0  0  0  0  0  0  0  0  0  0  0  0
   -0.7730   -3.2770    0.8905 H   0  0  0  0  0  0  0  0  0  0  0  0
   -1.1697   -3.5530   -0.7982 H   0  0  0  0  0  0  0  0  0  0  0  0
   -1.3102   -0.8392   -1.8268 H   0  0  0  0  0  0  0  0  0  0  0  0
   -2.6958   -1.9321   -1.8733 H   0  0  0  0  0  0  0  0  0  0  0  0
   -3.4368    0.3628   -2.0851 H   0  0  0  0  0  0  0  0  0  0  0  0
   -2.5363    0.8676   -0.6542 H   0  0  0  0  0  0  0  0  0  0  0  0
   -3.3920   -0.1580    1.6365 H   0  0  0  0  0  0  0  0  0  0  0  0
   -4.7715   -1.2552    1.5132 H   0  0  0  0  0  0  0  0  0  0  0  0
   -3.5270   -2.8869    0.2714 H   0  0  0  0  0  0  0  0  0  0  0  0
   -2.6597   -2.4619    1.7527 H   0  0  0  0  0  0  0  0  0  0  0  0
  1  5  2  0
  1 13  1  0
  2 16  1  0
  2 17  1  0
  2 20  1  0
  3 13  1  0
  3 15  1  0
  4  7  1  0
  5  7  1  0
  6 18  1  0
  6 19  1  0
  6 21  1  0
  7  9  2  0
  8 10  1  0
  8 21  2  0
  9 11  1  0
 10 22  2  0
 11 13  2  0
 12 21  1  0
 12 22  1  0
 14 22  1  0
 15 16  1  0
 17 18  1  0
 19 20  1  0
  1 23  1  0
  5 24  1  0
  9 25  1  0
 11 26  1  0
 12 27  1  0
 14 28  1  0
 14 29  1  0
 15 30  1  0
 15 31  1  0
 16 32  1  0
 16 33  1  0
 17 34  1  0
 17 35  1  0
 18 36  1  0
 18 37  1  0
 19 38  1  0
 19 39  1  0
 20 40  1  0
 20 41  1  0
M  END
