
     RDKit          3D

 87 91  0  0  0  0  0  0  0  0999 V2000
    5.8828   -0.8249    0.0825 C   0  0  0  0  0  0  0  0  0  0  0  0
    4.9385   -1.9478   -0.1559 C   0  0  0  0  0  0  0  0  0  0  0  0
    5.2753   -2.9800   -0.9888 N   0  0  0  0  0  0  0  0  0  0  0  0
    4.2502   -3.8860   -1.0398 C   0  0  0  0  0  0  0  0  0  0  0  0
    4.1199   -5.0794   -1.7351 C   0  0  0  0  0  0  0  0  0  0  0  0
    2.9437   -5.7995   -1.5925 C   0  0  0  0  0  0  0  0  0  0  0  0
    1.9077   -5.3292   -0.7660 C   0  0  0  0  0  0  0  0  0  0  0  0
    0.7331   -5.9896   -0.5948 O   0  0  0  0  0  0  0  0  0  0  0  0
    0.5127   -7.1820   -1.3125 C   0  0  0  0  0  0  0  0  0  0  0  0
    2.0393   -4.1335   -0.0761 C   0  0  0  0  0  0  0  0  0  0  0  0
    3.2209   -3.4024   -0.2049 C   0  0  0  0  0  0  0  0  0  0  0  0
    3.6837   -2.1690    0.3548 C   0  0  0  0  0  0  0  0  0  0  0  0
    2.9451   -1.3004    1.3177 C   0  0  0  0  0  0  0  0  0  0  0  0
    1.8700   -0.4689    0.6463 C   0  0  0  0  0  0  0  0  0  0  0  0
    1.0864   -0.9441   -0.1598 O   0  0  0  0  0  0  0  0  0  0  0  0
    1.8264    0.8293    1.0005 N   0  0  0  0  0  0  0  0  0  0  0  0
    0.7579    1.6820    0.5441 C   0  0  2  0  0  0  0  0  0  0  0  0
    0.9933    3.1269    0.9788 C   0  0  0  0  0  0  0  0  0  0  0  0
    2.2741    3.7311    0.4137 C   0  0  0  0  0  0  0  0  0  0  0  0
    2.3920    5.2177    0.7256 C   0  0  0  0  0  0  0  0  0  0  0  0
    3.6983    5.8204    0.2265 C   0  0  0  0  0  0  0  0  0  0  0  0
    3.7762    7.3205    0.4993 C   0  0  0  0  0  0  0  0  0  0  0  0
    5.1068    7.9007    0.0820 C   0  0  0  0  0  0  0  0  0  0  0  0
    6.1756    7.4618    0.4705 O   0  0  0  0  0  0  0  0  0  0  0  0
    4.9979    8.9695   -0.7310 N   0  0  0  0  0  0  0  0  0  0  0  0
    6.1101    9.4965   -1.3163 O   0  0  0  0  0  0  0  0  0  0  0  0
   -0.5747    1.1771    1.1022 C   0  0  0  0  0  0  0  0  0  0  0  0
   -0.6722    0.7725    2.2507 O   0  0  0  0  0  0  0  0  0  0  0  0
   -1.6111    1.2533    0.2602 N   0  0  0  0  0  0  0  0  0  0  0  0
   -2.9144    0.7154    0.5880 C   0  0  0  0  0  0  0  0  0  0  0  0
   -3.7708    0.5888   -0.6692 C   0  0  0  0  0  0  0  0  0  0  0  0
   -5.0202   -0.1975   -0.4240 C   0  0  0  0  0  0  0  0  0  0  0  0
   -6.3474    0.3343   -0.4493 C   0  0  0  0  0  0  0  0  0  0  0  0
   -6.8773    1.5985   -0.7385 C   0  0  0  0  0  0  0  0  0  0  0  0
   -8.2444    1.7799   -0.6775 C   0  0  0  0  0  0  0  0  0  0  0  0
   -9.1024    0.7214   -0.3319 C   0  0  0  0  0  0  0  0  0  0  0  0
   -8.6088   -0.5346   -0.0370 C   0  0  0  0  0  0  0  0  0  0  0  0
   -7.2269   -0.7104   -0.0944 C   0  0  0  0  0  0  0  0  0  0  0  0
   -6.4657   -1.8121    0.1473 N   0  0  0  0  0  0  0  0  0  0  0  0
   -5.1382   -1.5217   -0.0572 C   0  0  0  0  0  0  0  0  0  0  0  0
   -4.1203   -2.5477    0.1773 C   0  0  0  0  0  0  0  0  0  0  0  0
   -4.3023   -3.5056    1.1799 C   0  0  0  0  0  0  0  0  0  0  0  0
   -3.3380   -4.4728    1.4190 C   0  0  0  0  0  0  0  0  0  0  0  0
   -2.1705   -4.4999    0.6676 C   0  0  0  0  0  0  0  0  0  0  0  0
   -1.9797   -3.5548   -0.3318 C   0  0  0  0  0  0  0  0  0  0  0  0
   -2.9472   -2.5940   -0.5799 C   0  0  0  0  0  0  0  0  0  0  0  0
    6.2016   -0.3697   -0.8567 H   0  0  0  0  0  0  0  0  0  0  0  0
    5.4194   -0.0470    0.6854 H   0  0  0  0  0  0  0  0  0  0  0  0
    6.7814   -1.1607    0.6039 H   0  0  0  0  0  0  0  0  0  0  0  0
    6.1455   -3.0543   -1.4889 H   0  0  0  0  0  0  0  0  0  0  0  0
    4.9091   -5.4502   -2.3768 H   0  0  0  0  0  0  0  0  0  0  0  0
    2.8422   -6.7292   -2.1354 H   0  0  0  0  0  0  0  0  0  0  0  0
    1.2241   -3.7720    0.5389 H   0  0  0  0  0  0  0  0  0  0  0  0
   -0.4870   -7.5213   -1.0503 H   0  0  0  0  0  0  0  0  0  0  0  0
    0.5552   -7.0285   -2.3949 H   0  0  0  0  0  0  0  0  0  0  0  0
    1.2274   -7.9654   -1.0436 H   0  0  0  0  0  0  0  0  0  0  0  0
    2.4397   -1.9205    2.0665 H   0  0  0  0  0  0  0  0  0  0  0  0
    3.6359   -0.6668    1.8769 H   0  0  0  0  0  0  0  0  0  0  0  0
    2.4187    1.1564    1.7465 H   0  0  0  0  0  0  0  0  0  0  0  0
    0.7276    1.6505   -0.5500 H   0  0  0  0  0  0  0  0  0  0  0  0
    0.1372    3.7185    0.6433 H   0  0  0  0  0  0  0  0  0  0  0  0
    1.0007    3.1848    2.0718 H   0  0  0  0  0  0  0  0  0  0  0  0
    3.1485    3.2104    0.8150 H   0  0  0  0  0  0  0  0  0  0  0  0
    2.2990    3.5828   -0.6707 H   0  0  0  0  0  0  0  0  0  0  0  0
    1.5462    5.7488    0.2770 H   0  0  0  0  0  0  0  0  0  0  0  0
    2.3123    5.3723    1.8070 H   0  0  0  0  0  0  0  0  0  0  0  0
    4.5406    5.3177    0.7076 H   0  0  0  0  0  0  0  0  0  0  0  0
    3.7990    5.6408   -0.8483 H   0  0  0  0  0  0  0  0  0  0  0  0
    2.9466    7.8320    0.0049 H   0  0  0  0  0  0  0  0  0  0  0  0
    3.6602    7.5056    1.5711 H   0  0  0  0  0  0  0  0  0  0  0  0
    4.1300    9.2063   -1.1894 H   0  0  0  0  0  0  0  0  0  0  0  0
    6.3647   10.2547   -0.7754 H   0  0  0  0  0  0  0  0  0  0  0  0
   -1.4367    1.5247   -0.6941 H   0  0  0  0  0  0  0  0  0  0  0  0
   -2.7863   -0.2650    1.0508 H   0  0  0  0  0  0  0  0  0  0  0  0
   -3.4251    1.3499    1.3171 H   0  0  0  0  0  0  0  0  0  0  0  0
   -4.0369    1.5864   -1.0269 H   0  0  0  0  0  0  0  0  0  0  0  0
   -3.1745    0.1416   -1.4684 H   0  0  0  0  0  0  0  0  0  0  0  0
   -6.2293    2.4235   -1.0098 H   0  0  0  0  0  0  0  0  0  0  0  0
   -8.6663    2.7509   -0.9025 H   0  0  0  0  0  0  0  0  0  0  0  0
  -10.1703    0.8941   -0.2956 H   0  0  0  0  0  0  0  0  0  0  0  0
   -9.2696   -1.3498    0.2297 H   0  0  0  0  0  0  0  0  0  0  0  0
   -6.8268   -2.7306    0.3468 H   0  0  0  0  0  0  0  0  0  0  0  0
   -5.1925   -3.4849    1.7966 H   0  0  0  0  0  0  0  0  0  0  0  0
   -2.7933   -1.8850   -1.3815 H   0  0  0  0  0  0  0  0  0  0  0  0
   -3.4957   -5.2021    2.2030 H   0  0  0  0  0  0  0  0  0  0  0  0
   -1.4129   -5.2488    0.8546 H   0  0  0  0  0  0  0  0  0  0  0  0
   -1.0760   -3.5702   -0.9265 H   0  0  0  0  0  0  0  0  0  0  0  0
  1  2  1  0
  1 47  1  0
  1 48  1  0
  1 49  1  0
  2  3  1  0
  2 12  2  0
  3  4  1  0
  3 50  1  0
  4  5  2  0
  4 11  1  0
  5  6  1  0
  5 51  1  0
  6  7  2  0
  6 52  1  0
  7  8  1  0
  7 10  1  0
  8  9  1  0
  9 54  1  0
  9 55  1  0
  9 56  1  0
 10 11  2  0
 10 53  1  0
 11 12  1  0
 12 13  1  0
 13 14  1  0
 13 57  1  0
 13 58  1  0
 14 15  2  0
 14 16  1  0
 16 17  1  0
 16 59  1  0
 17 18  1  0
 17 27  1  0
 17 60  1  6
 18 19  1  0
 18 61  1  0
 18 62  1  0
 19 20  1  0
 19 63  1  0
 19 64  1  0
 20 21  1  0
 20 65  1  0
 20 66  1  0
 21 22  1  0
 21 67  1  0
 21 68  1  0
 22 23  1  0
 22 69  1  0
 22 70  1  0
 23 24  2  0
 23 25  1  0
 25 26  1  0
 25 71  1  0
 26 72  1  0
 27 28  2  0
 27 29  1  0
 29 30  1  0
 29 73  1  0
 30 31  1  0
 30 74  1  0
 30 75  1  0
 31 32  1  0
 31 76  1  0
 31 77  1  0
 32 33  1  0
 32 40  2  0
 33 34  2  0
 33 38  1  0
 34 35  1  0
 34 78  1  0
 35 36  2  0
 35 79  1  0
 36 37  1  0
 36 80  1  0
 37 38  2  0
 37 81  1  0
 38 39  1  0
 39 40  1  0
 39 82  1  0
 40 41  1  0
 41 42  2  0
 41 46  1  0
 42 43  1  0
 42 83  1  0
 43 44  2  0
 43 85  1  0
 44 45  1  0
 44 86  1  0
 45 46  2  0
 45 87  1  0
 46 84  1  0
M  END
