
     RDKit          3D

 59 61  0  0  0  0  0  0  0  0999 V2000
   -0.9979    2.4416    0.7701 C   0  0  0  0  0  0  0  0  0  0  0  0
    0.2344    1.6883    0.3289 C   0  0  0  0  0  0  0  0  0  0  0  0
    0.0221    0.3104    0.5886 O   0  0  0  0  0  0  0  0  0  0  0  0
    0.9880   -0.5716    0.2775 C   0  0  0  0  0  0  0  0  0  0  0  0
    2.1876   -0.2403   -0.3302 C   0  0  0  0  0  0  0  0  0  0  0  0
    3.1430   -1.2063   -0.6689 C   0  0  0  0  0  0  0  0  0  0  0  0
    4.4339   -0.7338   -1.3268 C   0  0  2  0  0  0  0  0  0  0  0  0
    5.0291    0.4723   -0.5909 C   0  0  0  0  0  0  0  0  0  0  0  0
    4.1334   -0.3269   -2.7765 C   0  0  0  0  0  0  0  0  0  0  0  0
    5.4776   -1.8546   -1.2968 C   0  0  0  0  0  0  0  0  0  0  0  0
    4.9072   -3.1874   -1.7348 C   0  0  0  0  0  0  0  0  0  0  0  0
    3.8131   -3.6901   -0.7879 C   0  0  2  0  0  0  0  0  0  0  0  0
    4.4433   -4.2486    0.4951 C   0  0  0  0  0  0  0  0  0  0  0  0
    3.0614   -4.8214   -1.4994 C   0  0  0  0  0  0  0  0  0  0  0  0
    2.8658   -2.5528   -0.4233 C   0  0  0  0  0  0  0  0  0  0  0  0
    1.6638   -2.8623    0.2220 C   0  0  0  0  0  0  0  0  0  0  0  0
    0.7281   -1.9130    0.5893 C   0  0  0  0  0  0  0  0  0  0  0  0
   -0.5261   -2.3100    1.2637 C   0  0  0  0  0  0  0  0  0  0  0  0
   -1.4365   -3.1353    0.6300 C   0  0  0  0  0  0  0  0  0  0  0  0
   -0.7969   -1.8921    2.5786 C   0  0  0  0  0  0  0  0  0  0  0  0
    0.1198   -1.1325    3.1882 O   0  0  0  0  0  0  0  0  0  0  0  0
   -1.9699   -2.2957    3.2099 C   0  0  0  0  0  0  0  0  0  0  0  0
   -2.8648   -3.1187    2.5515 C   0  0  0  0  0  0  0  0  0  0  0  0
   -2.6184   -3.5589    1.2505 C   0  0  0  0  0  0  0  0  0  0  0  0
   -3.5900   -4.4243    0.6067 C   0  0  0  0  0  0  0  0  0  0  0  0
   -3.5423   -4.9102   -0.6418 C   0  0  0  0  0  0  0  0  0  0  0  0
   -4.6110   -5.7817   -1.1416 C   0  0  0  0  0  0  0  0  0  0  0  0
   -4.3832   -6.1652   -2.3967 O   0  0  0  0  0  0  0  0  0  0  0  0
   -5.5899   -6.1271   -0.5174 O   0  0  0  0  0  0  0  0  0  0  0  0
   -5.1005   -6.7414   -2.6988 H   0  0  0  0  0  0  0  0  0  0  0  0
   -2.7292   -4.6818   -1.3196 H   0  0  0  0  0  0  0  0  0  0  0  0
   -4.4421   -4.6979    1.2221 H   0  0  0  0  0  0  0  0  0  0  0  0
   -1.2132   -3.4513   -0.3818 H   0  0  0  0  0  0  0  0  0  0  0  0
   -0.1767   -0.8885    4.0729 H   0  0  0  0  0  0  0  0  0  0  0  0
   -2.1762   -1.9745    4.2242 H   0  0  0  0  0  0  0  0  0  0  0  0
   -3.7698   -3.4287    3.0597 H   0  0  0  0  0  0  0  0  0  0  0  0
    1.4453   -3.8959    0.4664 H   0  0  0  0  0  0  0  0  0  0  0  0
    2.4008    0.7945   -0.5597 H   0  0  0  0  0  0  0  0  0  0  0  0
    1.1157    2.0466    0.8724 H   0  0  0  0  0  0  0  0  0  0  0  0
    0.4193    1.8496   -0.7389 H   0  0  0  0  0  0  0  0  0  0  0  0
   -0.8652    3.5044    0.5703 H   0  0  0  0  0  0  0  0  0  0  0  0
   -1.8837    2.1070    0.2299 H   0  0  0  0  0  0  0  0  0  0  0  0
   -1.1759    2.3199    1.8385 H   0  0  0  0  0  0  0  0  0  0  0  0
    4.3865    1.3529   -0.6238 H   0  0  0  0  0  0  0  0  0  0  0  0
    5.2245    0.2393    0.4573 H   0  0  0  0  0  0  0  0  0  0  0  0
    5.9781    0.7495   -1.0544 H   0  0  0  0  0  0  0  0  0  0  0  0
    5.0439    0.0153   -3.2739 H   0  0  0  0  0  0  0  0  0  0  0  0
    3.7266   -1.1548   -3.3583 H   0  0  0  0  0  0  0  0  0  0  0  0
    3.4072    0.4869   -2.8189 H   0  0  0  0  0  0  0  0  0  0  0  0
    5.8785   -1.9433   -0.2815 H   0  0  0  0  0  0  0  0  0  0  0  0
    6.3219   -1.5693   -1.9307 H   0  0  0  0  0  0  0  0  0  0  0  0
    4.5009   -3.1017   -2.7475 H   0  0  0  0  0  0  0  0  0  0  0  0
    5.6997   -3.9389   -1.7915 H   0  0  0  0  0  0  0  0  0  0  0  0
    4.9849   -3.4823    1.0514 H   0  0  0  0  0  0  0  0  0  0  0  0
    3.6816   -4.6580    1.1615 H   0  0  0  0  0  0  0  0  0  0  0  0
    5.1449   -5.0524    0.2598 H   0  0  0  0  0  0  0  0  0  0  0  0
    3.7653   -5.5926   -1.8207 H   0  0  0  0  0  0  0  0  0  0  0  0
    2.3262   -5.3070   -0.8571 H   0  0  0  0  0  0  0  0  0  0  0  0
    2.5413   -4.4537   -2.3860 H   0  0  0  0  0  0  0  0  0  0  0  0
  1  2  1  0
  1 41  1  0
  1 42  1  0
  1 43  1  0
  2  3  1  0
  2 39  1  0
  2 40  1  0
  3  4  1  0
  4  5  2  0
  4 17  1  0
  5  6  1  0
  5 38  1  0
  6 15  2  0
  6  7  1  0
  7  8  1  1
  7  9  1  0
  7 10  1  0
  8 44  1  0
  8 45  1  0
  8 46  1  0
  9 47  1  0
  9 48  1  0
  9 49  1  0
 10 50  1  0
 10 51  1  0
 10 11  1  0
 11 52  1  0
 11 53  1  0
 11 12  1  0
 12 15  1  0
 12 13  1  1
 12 14  1  0
 13 54  1  0
 13 55  1  0
 13 56  1  0
 14 57  1  0
 14 58  1  0
 14 59  1  0
 15 16  1  0
 16 17  2  0
 16 37  1  0
 17 18  1  0
 18 19  2  0
 18 20  1  0
 19 24  1  0
 19 33  1  0
 20 21  1  0
 20 22  2  0
 21 34  1  0
 22 35  1  0
 22 23  1  0
 23 24  2  0
 23 36  1  0
 24 25  1  0
 25 26  2  0
 25 32  1  0
 26 27  1  0
 26 31  1  0
 27 28  1  0
 27 29  2  0
 28 30  1  0
M  END
