
     RDKit          3D

 30 32  0  0  0  0  0  0  0  0999 V2000
   -3.7550   -3.1874   -0.5677 O   0  0  0  0  0  0  0  0  0  0  0  0
   -4.0208   -2.0866    0.1126 C   0  0  0  0  0  0  0  0  0  0  0  0
   -5.0283   -1.9123    0.7491 O   0  0  0  0  0  0  0  0  0  0  0  0
   -2.9085   -1.0927    0.0265 C   0  0  0  0  0  0  0  0  0  0  0  0
   -1.6192   -1.5482    0.0166 C   0  0  0  0  0  0  0  0  0  0  0  0
   -0.5405   -0.6299    0.0265 C   0  0  0  0  0  0  0  0  0  0  0  0
    0.8700   -1.0834    0.0389 C   0  0  0  0  0  0  0  0  0  0  0  0
    1.2199   -2.4320    0.0842 C   0  0  0  0  0  0  0  0  0  0  0  0
    2.5526   -2.8145    0.0934 C   0  0  0  0  0  0  0  0  0  0  0  0
    3.5637   -1.8673    0.0578 C   0  0  0  0  0  0  0  0  0  0  0  0
    3.2092   -0.5256    0.0130 C   0  0  0  0  0  0  0  0  0  0  0  0
    4.5677    0.7864   -0.0355 Br  0  0  0  0  0  0  0  0  0  0  0  0
    1.8863   -0.1250    0.0032 C   0  0  0  0  0  0  0  0  0  0  0  0
   -0.7502    0.6596    0.0225 N   0  0  0  0  0  0  0  0  0  0  0  0
   -2.0061    1.1324    0.0066 C   0  0  0  0  0  0  0  0  0  0  0  0
   -2.1857    2.5359   -0.0246 C   0  0  0  0  0  0  0  0  0  0  0  0
   -1.0895    3.2964   -0.0263 F   0  0  0  0  0  0  0  0  0  0  0  0
   -3.4177    3.1100   -0.0604 C   0  0  0  0  0  0  0  0  0  0  0  0
   -4.5520    2.2766   -0.0664 C   0  0  0  0  0  0  0  0  0  0  0  0
   -4.4377    0.9131   -0.0277 C   0  0  0  0  0  0  0  0  0  0  0  0
   -3.1613    0.3076    0.0164 C   0  0  0  0  0  0  0  0  0  0  0  0
   -4.4621   -3.8393   -0.4420 H   0  0  0  0  0  0  0  0  0  0  0  0
   -1.4311   -2.6108    0.0211 H   0  0  0  0  0  0  0  0  0  0  0  0
    0.4679   -3.2070    0.1143 H   0  0  0  0  0  0  0  0  0  0  0  0
    2.8073   -3.8651    0.1298 H   0  0  0  0  0  0  0  0  0  0  0  0
    4.6007   -2.1746    0.0649 H   0  0  0  0  0  0  0  0  0  0  0  0
    1.6224    0.9229   -0.0323 H   0  0  0  0  0  0  0  0  0  0  0  0
   -3.5220    4.1864   -0.0888 H   0  0  0  0  0  0  0  0  0  0  0  0
   -5.5327    2.7310   -0.1040 H   0  0  0  0  0  0  0  0  0  0  0  0
   -5.3313    0.3092   -0.0348 H   0  0  0  0  0  0  0  0  0  0  0  0
  3  2  2  0
  2  1  1  0
  2  4  1  0
 20 19  2  0
 20 21  1  0
 19 18  1  0
  4 21  2  0
  4  5  1  0
 21 15  1  0
  5  6  2  0
 18 16  2  0
 15 16  1  0
 15 14  2  0
 16 17  1  0
  6 14  1  0
  6  7  1  0
  8  7  2  0
  8  9  1  0
  7 13  1  0
  9 10  2  0
 13 11  2  0
 10 11  1  0
 11 12  1  0
  1 22  1  0
  5 23  1  0
  8 24  1  0
  9 25  1  0
 10 26  1  0
 13 27  1  0
 18 28  1  0
 19 29  1  0
 20 30  1  0
M  END
