
     RDKit          3D

 27 27  0  0  0  0  0  0  0  0999 V2000
   -1.8474   -0.0245    2.7944 O   0  0  0  0  0  0  0  0  0  0  0  0
   -0.7112   -0.0053    2.3807 C   0  0  0  0  0  0  0  0  0  0  0  0
    0.3493   -0.0076    3.1749 O   0  0  0  0  0  0  0  0  0  0  0  0
    0.1225   -0.0328    4.5828 C   0  0  0  0  0  0  0  0  0  0  0  0
   -0.3531    0.0215    0.9447 C   0  0  0  0  0  0  0  0  0  0  0  0
   -1.3940    0.0265    0.0193 C   0  0  0  0  0  0  0  0  0  0  0  0
   -1.1164    0.0509   -1.3394 C   0  0  0  0  0  0  0  0  0  0  0  0
   -2.0411    0.0581   -2.3165 O   0  0  0  0  0  0  0  0  0  0  0  0
   -3.4042    0.0406   -1.9423 C   0  0  0  0  0  0  0  0  0  0  0  0
    0.9733    0.0409    0.5198 C   0  0  0  0  0  0  0  0  0  0  0  0
    1.2501    0.0655   -0.8381 C   0  0  0  0  0  0  0  0  0  0  0  0
    2.4843    0.0846   -1.3825 O   0  0  0  0  0  0  0  0  0  0  0  0
    3.6071    0.0989   -0.5220 C   0  0  0  0  0  0  0  0  0  0  0  0
    0.2121    0.0708   -1.7759 C   0  0  0  0  0  0  0  0  0  0  0  0
    0.4471    0.0950   -3.0969 O   0  0  0  0  0  0  0  0  0  0  0  0
    1.1068   -0.0286    5.0418 H   0  0  0  0  0  0  0  0  0  0  0  0
   -0.4335    0.8444    4.9130 H   0  0  0  0  0  0  0  0  0  0  0  0
   -0.4127   -0.9329    4.8842 H   0  0  0  0  0  0  0  0  0  0  0  0
   -2.4149    0.0105    0.3744 H   0  0  0  0  0  0  0  0  0  0  0  0
   -3.9772    0.0509   -2.8661 H   0  0  0  0  0  0  0  0  0  0  0  0
   -3.6616   -0.8601   -1.3785 H   0  0  0  0  0  0  0  0  0  0  0  0
   -3.6763    0.9178   -1.3493 H   0  0  0  0  0  0  0  0  0  0  0  0
    1.7773    0.0357    1.2404 H   0  0  0  0  0  0  0  0  0  0  0  0
    4.4851    0.1223   -1.1621 H   0  0  0  0  0  0  0  0  0  0  0  0
    3.6137    0.9832    0.1195 H   0  0  0  0  0  0  0  0  0  0  0  0
    3.6499   -0.7967    0.1021 H   0  0  0  0  0  0  0  0  0  0  0  0
    1.3988    0.1050   -3.2598 H   0  0  0  0  0  0  0  0  0  0  0  0
  1  2  2  0
  2  3  1  0
  2  5  1  0
  3  4  1  0
  4 16  1  0
  4 17  1  0
  4 18  1  0
  5  6  2  0
  5 10  1  0
  6  7  1  0
  6 19  1  0
  7  8  1  0
  7 14  2  0
  8  9  1  0
  9 20  1  0
  9 21  1  0
  9 22  1  0
 10 11  2  0
 10 23  1  0
 11 12  1  0
 11 14  1  0
 12 13  1  0
 13 24  1  0
 13 25  1  0
 13 26  1  0
 14 15  1  0
 15 27  1  0
M  END
