
     RDKit          3D

 53 55  0  0  0  0  0  0  0  0999 V2000
    1.4134  -14.4556    5.2738 N   0  0  0  0  0  0  0  0  0  0  0  0
    2.2267  -13.2647    5.1440 C   0  0  1  0  0  0  0  0  0  0  0  0
    2.1025  -12.2524    6.3038 C   0  0  0  0  0  0  0  0  0  0  0  0
    2.4839  -10.8746    5.8990 C   0  0  0  0  0  0  0  0  0  0  0  0
    1.5963  -10.0607    5.1609 C   0  0  0  0  0  0  0  0  0  0  0  0
    0.3709  -10.5969    4.8367 O   0  0  0  0  0  0  0  0  0  0  0  0
    1.9516   -8.7647    4.7786 C   0  0  0  0  0  0  0  0  0  0  0  0
    3.2100   -8.2675    5.1337 C   0  0  0  0  0  0  0  0  0  0  0  0
    3.4889   -6.9824    4.7220 O   0  0  0  0  0  0  0  0  0  0  0  0
    4.1253   -9.0576    5.8759 C   0  0  0  0  0  0  0  0  0  0  0  0
    3.7326  -10.3613    6.2429 C   0  0  0  0  0  0  0  0  0  0  0  0
    5.3965   -8.5564    6.2336 N   0  0  0  0  0  0  0  0  0  0  0  0
    5.7318   -8.0380    7.4777 C   0  0  0  0  0  0  0  0  0  0  0  0
    4.9118   -8.1065    8.5656 C   0  0  0  0  0  0  0  0  0  0  0  0
    5.3587   -8.0728    9.9492 C   0  0  0  0  0  0  0  0  0  0  0  0
    4.5714   -7.9583   10.8951 O   0  0  0  0  0  0  0  0  0  0  0  0
    6.9172   -7.0863    7.5061 C   0  0  0  0  0  0  0  0  0  0  0  0
    7.0758   -6.4707    6.2204 O   0  0  0  0  0  0  0  0  0  0  0  0
    8.3897   -6.2203    5.8436 C   0  0  0  0  0  0  0  0  0  0  0  0
    9.2521   -5.3960    6.6171 C   0  0  0  0  0  0  0  0  0  0  0  0
   10.5397   -5.1870    6.1916 C   0  0  0  0  0  0  0  0  0  0  0  0
   11.0193   -5.7833    4.9931 C   0  0  0  0  0  0  0  0  0  0  0  0
   12.3512   -5.5760    4.5403 C   0  0  0  0  0  0  0  0  0  0  0  0
   10.1494   -6.6046    4.2301 C   0  0  0  0  0  0  0  0  0  0  0  0
    8.8187   -6.8171    4.6743 C   0  0  0  0  0  0  0  0  0  0  0  0
   10.6327   -7.1998    3.0312 C   0  0  0  0  0  0  0  0  0  0  0  0
   11.9239   -6.9821    2.6180 C   0  0  0  0  0  0  0  0  0  0  0  0
   12.7918   -6.1624    3.3795 C   0  0  0  0  0  0  0  0  0  0  0  0
    3.6867  -13.6739    5.0245 C   0  0  0  0  0  0  0  0  0  0  0  0
    4.2428  -13.3856    3.8184 O   0  0  0  0  0  0  0  0  0  0  0  0
    4.4041  -14.2196    5.8658 O   0  0  0  0  0  0  0  0  0  0  0  0
    0.4659  -14.2039    5.4757 H   0  0  0  0  0  0  0  0  0  0  0  0
    1.7653  -15.0561    5.9933 H   0  0  0  0  0  0  0  0  0  0  0  0
    1.9187  -12.7449    4.1856 H   0  0  0  0  0  0  0  0  0  0  0  0
    1.0325  -12.2366    6.6507 H   0  0  0  0  0  0  0  0  0  0  0  0
    2.7395  -12.5963    7.1624 H   0  0  0  0  0  0  0  0  0  0  0  0
    0.1685  -10.3533    3.9209 H   0  0  0  0  0  0  0  0  0  0  0  0
    1.2635   -8.1285    4.2045 H   0  0  0  0  0  0  0  0  0  0  0  0
    3.4579   -6.4021    5.4975 H   0  0  0  0  0  0  0  0  0  0  0  0
    4.4296  -10.9939    6.8198 H   0  0  0  0  0  0  0  0  0  0  0  0
    6.1062   -8.5802    5.5295 H   0  0  0  0  0  0  0  0  0  0  0  0
    3.8181   -8.0196    8.4419 H   0  0  0  0  0  0  0  0  0  0  0  0
    6.4210   -8.3508   10.1431 H   0  0  0  0  0  0  0  0  0  0  0  0
    7.8360   -7.6576    7.8030 H   0  0  0  0  0  0  0  0  0  0  0  0
    6.7214   -6.2541    8.2358 H   0  0  0  0  0  0  0  0  0  0  0  0
    8.8805   -4.9348    7.5430 H   0  0  0  0  0  0  0  0  0  0  0  0
   11.2241   -4.5517    6.7750 H   0  0  0  0  0  0  0  0  0  0  0  0
   13.0179   -4.9377    5.1386 H   0  0  0  0  0  0  0  0  0  0  0  0
    8.1414   -7.4525    4.0866 H   0  0  0  0  0  0  0  0  0  0  0  0
    9.9512   -7.8349    2.4463 H   0  0  0  0  0  0  0  0  0  0  0  0
   12.3002   -7.4408    1.6917 H   0  0  0  0  0  0  0  0  0  0  0  0
   13.8216   -6.0038    3.0269 H   0  0  0  0  0  0  0  0  0  0  0  0
    5.1716  -13.6721    3.8105 H   0  0  0  0  0  0  0  0  0  0  0  0
  1  2  1  0
  1 32  1  0
  1 33  1  0
  2  3  1  0
  2 29  1  0
  2 34  1  6
  3  4  1  0
  3 35  1  0
  3 36  1  0
  4  5  2  0
  4 11  1  0
  5  6  1  0
  5  7  1  0
  6 37  1  0
  7  8  2  0
  7 38  1  0
  8  9  1  0
  8 10  1  0
  9 39  1  0
 10 11  2  0
 10 12  1  0
 11 40  1  0
 12 13  1  0
 12 41  1  0
 13 14  2  0
 13 17  1  0
 14 15  1  0
 14 42  1  0
 15 16  2  0
 15 43  1  0
 17 18  1  0
 17 44  1  0
 17 45  1  0
 18 19  1  0
 19 20  2  0
 19 25  1  0
 20 21  1  0
 20 46  1  0
 21 22  2  0
 21 47  1  0
 22 23  1  0
 22 24  1  0
 23 28  2  0
 23 48  1  0
 24 25  2  0
 24 26  1  0
 25 49  1  0
 26 27  2  0
 26 50  1  0
 27 28  1  0
 27 51  1  0
 28 52  1  0
 29 30  1  0
 29 31  2  0
 30 53  1  0
M  END
