
     RDKit          3D

 30 31  0  0  0  0  0  0  0  0999 V2000
   -0.9130   -0.3405   -0.0991 N   0  0  0  0  0  0  0  0  0  0  0  0
   -1.8554   -0.8965   -0.8927 C   0  0  0  0  0  0  0  0  0  0  0  0
   -1.6653   -1.8083   -1.6763 O   0  0  0  0  0  0  0  0  0  0  0  0
   -3.1365   -0.3634   -0.7574 N   0  0  0  0  0  0  0  0  0  0  0  0
   -3.4772    0.8519   -0.2212 C   0  0  0  0  0  0  0  0  0  0  0  0
   -4.6126    1.2700   -0.2758 O   0  0  0  0  0  0  0  0  0  0  0  0
   -2.3225    1.5878    0.3899 C   0  0  0  0  0  0  0  0  0  0  0  0
   -1.2936    0.6162    0.9270 C   0  0  0  0  0  0  0  0  0  0  0  0
    0.4679   -0.7327   -0.2211 C   0  0  2  0  0  0  0  0  0  0  0  0
    1.0919   -1.2750    1.0626 C   0  0  0  0  0  0  0  0  0  0  0  0
    2.5553   -0.8999    0.8854 C   0  0  1  0  0  0  0  0  0  0  0  0
    3.2208   -1.7643   -0.0066 O   0  0  0  0  0  0  0  0  0  0  0  0
    2.4134    0.4732    0.2362 C   0  0  2  0  0  0  0  0  0  0  0  0
    1.2430    0.3975   -0.5738 O   0  0  0  0  0  0  0  0  0  0  0  0
    3.5980    0.9188   -0.5891 C   0  0  0  0  0  0  0  0  0  0  0  0
    3.3838    2.2561   -0.9823 O   0  0  0  0  0  0  0  0  0  0  0  0
   -3.8562   -0.8557   -1.2715 H   0  0  0  0  0  0  0  0  0  0  0  0
   -2.6876    2.2405    1.1810 H   0  0  0  0  0  0  0  0  0  0  0  0
   -1.8765    2.2219   -0.3825 H   0  0  0  0  0  0  0  0  0  0  0  0
   -1.6849    0.0965    1.8060 H   0  0  0  0  0  0  0  0  0  0  0  0
   -0.4098    1.1671    1.2410 H   0  0  0  0  0  0  0  0  0  0  0  0
    0.5198   -1.4784   -1.0149 H   0  0  0  0  0  0  0  0  0  0  0  0
    0.6898   -0.7744    1.9466 H   0  0  0  0  0  0  0  0  0  0  0  0
    0.9236   -2.3456    1.1849 H   0  0  0  0  0  0  0  0  0  0  0  0
    3.0844   -0.8244    1.8424 H   0  0  0  0  0  0  0  0  0  0  0  0
    3.2266   -2.6467    0.3770 H   0  0  0  0  0  0  0  0  0  0  0  0
    2.2578    1.2076    1.0390 H   0  0  0  0  0  0  0  0  0  0  0  0
    3.7195    0.2574   -1.4529 H   0  0  0  0  0  0  0  0  0  0  0  0
    4.5009    0.8203    0.0283 H   0  0  0  0  0  0  0  0  0  0  0  0
    4.0991    2.5098   -1.5718 H   0  0  0  0  0  0  0  0  0  0  0  0
  1  2  1  0
  1  8  1  0
  1  9  1  0
  2  3  2  0
  2  4  1  0
  4  5  1  0
  4 17  1  0
  5  6  2  0
  5  7  1  0
  7  8  1  0
  7 18  1  0
  7 19  1  0
  8 20  1  0
  8 21  1  0
  9 10  1  0
  9 14  1  0
  9 22  1  6
 10 11  1  0
 10 23  1  0
 10 24  1  0
 11 12  1  0
 11 13  1  0
 11 25  1  1
 12 26  1  0
 13 14  1  0
 13 15  1  0
 13 27  1  1
 15 16  1  0
 15 28  1  0
 15 29  1  0
 16 30  1  0
M  END
