
     RDKit          3D

 39 41  0  0  0  0  0  0  0  0999 V2000
   -6.1917    1.7790   -0.4300 C   0  0  0  0  0  0  0  0  0  0  0  0
   -6.0948    0.5010   -0.9641 C   0  0  0  0  0  0  0  0  0  0  0  0
   -5.1161    2.3193    0.2650 C   0  0  0  0  0  0  0  0  0  0  0  0
    4.7903   -0.3109    1.8012 C   0  0  0  0  0  0  0  0  0  0  0  0
   -4.9318   -0.2378   -0.8075 C   0  0  0  0  0  0  0  0  0  0  0  0
   -3.9512    1.5883    0.4240 C   0  0  0  0  0  0  0  0  0  0  0  0
    5.4850    0.5046    0.9247 C   0  0  0  0  0  0  0  0  0  0  0  0
    3.4426   -0.5932    1.6044 C   0  0  0  0  0  0  0  0  0  0  0  0
    3.4866    0.7799   -0.3758 C   0  0  0  0  0  0  0  0  0  0  0  0
   -3.8498    0.3030   -0.1115 C   0  0  0  0  0  0  0  0  0  0  0  0
    4.8290    1.0595   -0.1736 C   0  0  0  0  0  0  0  0  0  0  0  0
    2.7855   -0.0430    0.5072 C   0  0  0  0  0  0  0  0  0  0  0  0
   -0.6647   -1.1213    0.5507 C   0  0  0  0  0  0  0  0  0  0  0  0
   -1.2885   -2.1370   -0.0917 C   0  0  0  0  0  0  0  0  0  0  0  0
   -2.6117   -0.4411    0.0689 C   0  0  0  0  0  0  0  0  0  0  0  0
    0.7156   -1.0659    1.0856 C   0  0  0  0  0  0  0  0  0  0  0  0
   -1.5258   -0.0494    0.6414 N   0  0  0  0  0  0  0  0  0  0  0  0
   -2.5357   -1.6985   -0.3954 O   0  0  0  0  0  0  0  0  0  0  0  0
    6.0993    1.0465   -2.1626 O   0  0  0  0  0  0  0  0  0  0  0  0
    1.4846   -0.2497    0.2145 O   0  0  0  0  0  0  0  0  0  0  0  0
   -7.1013    2.3520   -0.5537 H   0  0  0  0  0  0  0  0  0  0  0  0
   -6.9282    0.0751   -1.5068 H   0  0  0  0  0  0  0  0  0  0  0  0
   -5.1863    3.3138    0.6854 H   0  0  0  0  0  0  0  0  0  0  0  0
    5.2962   -0.7395    2.6565 H   0  0  0  0  0  0  0  0  0  0  0  0
   -4.8749   -1.2314   -1.2316 H   0  0  0  0  0  0  0  0  0  0  0  0
   -3.1163    2.0111    0.9667 H   0  0  0  0  0  0  0  0  0  0  0  0
    6.5332    0.7176    1.0939 H   0  0  0  0  0  0  0  0  0  0  0  0
    2.9320   -1.2339    2.3105 H   0  0  0  0  0  0  0  0  0  0  0  0
    2.9630    1.2047   -1.2250 H   0  0  0  0  0  0  0  0  0  0  0  0
   -1.5505   -4.2539   -0.0231 H   0  0  0  0  0  0  0  0  0  0  0  0
   -0.9634   -3.6407   -1.5695 H   0  0  0  0  0  0  0  0  0  0  0  0
    0.1183   -3.7103   -0.1801 H   0  0  0  0  0  0  0  0  0  0  0  0
    4.9054    2.6538   -1.5937 H   0  0  0  0  0  0  0  0  0  0  0  0
    6.3794    2.4466   -0.6483 H   0  0  0  0  0  0  0  0  0  0  0  0
    0.7088   -0.6448    2.0965 H   0  0  0  0  0  0  0  0  0  0  0  0
    1.1389   -2.0733    1.1512 H   0  0  0  0  0  0  0  0  0  0  0  0
    6.6088    1.5859   -2.7754 H   0  0  0  0  0  0  0  0  0  0  0  0
   -0.9049   -3.5075   -0.4883 C   0  0  0  0  0  0  0  0  0  0  0  0
    5.5794    1.9028   -1.1647 C   0  0  0  0  0  0  0  0  0  0  0  0
  1  2  2  0
  1  3  1  0
  2  5  1  0
  3  6  2  0
  4  7  2  0
  4  8  1  0
  5 10  2  0
  6 10  1  0
  7 11  1  0
  8 12  2  0
  9 11  2  0
  9 12  1  0
 10 15  1  0
 11 39  1  0
 12 20  1  0
 13 14  2  0
 13 16  1  0
 13 17  1  0
 14 38  1  0
 14 18  1  0
 15 17  2  0
 15 18  1  0
 39 19  1  0
 16 20  1  0
  1 21  1  0
  2 22  1  0
  3 23  1  0
  4 24  1  0
  5 25  1  0
  6 26  1  0
  7 27  1  0
  8 28  1  0
  9 29  1  0
 38 30  1  0
 38 31  1  0
 38 32  1  0
 39 33  1  0
 39 34  1  0
 16 35  1  0
 16 36  1  0
 19 37  1  0
M  END
