
     RDKit          3D

 69 73  0  0  0  0  0  0  0  0999 V2000
    1.7901   -4.0607   -0.8394 N   0  0  0  0  0  0  0  0  0  0  0  0
    0.7675   -4.2431   -1.8470 C   0  0  0  0  0  0  0  0  0  0  0  0
   -3.2264   -0.5514    0.9112 O   0  0  0  0  0  0  0  0  0  0  0  0
    1.8837   -2.7156   -0.2921 C   0  0  2  0  0  0  0  0  0  0  0  0
   -1.5792    1.7976    1.0886 C   0  0  0  0  0  0  0  0  0  0  0  0
   -1.7654    1.9185   -0.2799 C   0  0  0  0  0  0  0  0  0  0  0  0
   -2.3784    3.0532   -0.7657 C   0  0  0  0  0  0  0  0  0  0  0  0
   -2.7873    4.1037    0.0524 C   0  0  0  0  0  0  0  0  0  0  0  0
   -2.5499    3.9584    1.4243 C   0  0  0  0  0  0  0  0  0  0  0  0
   -1.9626    2.8277    1.9448 C   0  0  0  0  0  0  0  0  0  0  0  0
    2.5690   -1.7332   -1.2584 C   0  0  0  0  0  0  0  0  0  0  0  0
    2.6819   -2.8167    1.0327 C   0  0  0  0  0  0  0  0  0  0  0  0
    4.1409   -3.1324    0.8208 C   0  0  0  0  0  0  0  0  0  0  0  0
    0.4854   -2.1946    0.0231 C   0  0  0  0  0  0  0  0  0  0  0  0
    6.3761   -2.2183    1.0736 C   0  0  0  0  0  0  0  0  0  0  0  0
    8.4446   -1.5392    1.2318 C   0  0  0  0  0  0  0  0  0  0  0  0
    8.6814   -2.7384    0.6499 C   0  0  0  0  0  0  0  0  0  0  0  0
   -4.4197   -0.9959    0.2943 C   0  0  0  0  0  0  0  0  0  0  0  0
   -5.4658    0.0853    0.4405 C   0  0  2  0  0  0  0  0  0  0  0  0
   -5.9254    2.2842   -0.2576 C   0  0  0  0  0  0  0  0  0  0  0  0
   -7.3171    1.9234   -0.7490 C   0  0  0  0  0  0  0  0  0  0  0  0
   -0.6655   -2.8675   -0.3777 C   0  0  0  0  0  0  0  0  0  0  0  0
   -7.8504    0.7224    0.0233 C   0  0  0  0  0  0  0  0  0  0  0  0
   -6.8356   -0.4157   -0.0060 C   0  0  0  0  0  0  0  0  0  0  0  0
   -3.4655    5.2937   -0.4938 C   0  0  0  0  0  0  0  0  0  0  0  0
   -0.5784   -4.1469   -1.1606 C   0  0  0  0  0  0  0  0  0  0  0  0
    0.3381   -0.9714    0.6814 C   0  0  0  0  0  0  0  0  0  0  0  0
   -0.9031   -0.4523    0.9651 C   0  0  0  0  0  0  0  0  0  0  0  0
   -2.0660   -1.1395    0.5934 C   0  0  0  0  0  0  0  0  0  0  0  0
   -1.9238   -2.3389   -0.0824 C   0  0  0  0  0  0  0  0  0  0  0  0
   -2.5495    3.1256   -2.0841 F   0  0  0  0  0  0  0  0  0  0  0  0
    5.0072   -2.1533    1.2030 N   0  0  0  0  0  0  0  0  0  0  0  0
    7.1321   -1.2461    1.4715 N   0  0  0  0  0  0  0  0  0  0  0  0
    4.5560   -4.1655    0.3286 O   0  0  0  0  0  0  0  0  0  0  0  0
   -5.0456    1.1856   -0.3306 O   0  0  0  0  0  0  0  0  0  0  0  0
   -3.9027    5.3990   -1.6132 O   0  0  0  0  0  0  0  0  0  0  0  0
   -3.5621    6.2737    0.4040 O   0  0  0  0  0  0  0  0  0  0  0  0
   -1.0027    0.7206    1.6646 O   0  0  0  0  0  0  0  0  0  0  0  0
    7.1970   -3.5681    0.3762 S   0  0  0  0  0  0  0  0  0  0  0  0
    2.6928   -4.3510   -1.1884 H   0  0  0  0  0  0  0  0  0  0  0  0
    0.8156   -3.5159   -2.6719 H   0  0  0  0  0  0  0  0  0  0  0  0
    0.8962   -5.2306   -2.2908 H   0  0  0  0  0  0  0  0  0  0  0  0
   -1.4623    1.1457   -0.9739 H   0  0  0  0  0  0  0  0  0  0  0  0
   -2.8466    4.7428    2.1055 H   0  0  0  0  0  0  0  0  0  0  0  0
   -1.8061    2.7314    3.0104 H   0  0  0  0  0  0  0  0  0  0  0  0
    1.9747   -1.6099   -2.1638 H   0  0  0  0  0  0  0  0  0  0  0  0
    2.6998   -0.7428   -0.8196 H   0  0  0  0  0  0  0  0  0  0  0  0
    3.5540   -2.0948   -1.5610 H   0  0  0  0  0  0  0  0  0  0  0  0
    2.5850   -1.8974    1.6115 H   0  0  0  0  0  0  0  0  0  0  0  0
    2.2403   -3.6142    1.6326 H   0  0  0  0  0  0  0  0  0  0  0  0
    9.2060   -0.8246    1.5083 H   0  0  0  0  0  0  0  0  0  0  0  0
    9.6278   -3.1743    0.3750 H   0  0  0  0  0  0  0  0  0  0  0  0
   -4.2547   -1.1986   -0.7700 H   0  0  0  0  0  0  0  0  0  0  0  0
   -4.7718   -1.9212    0.7631 H   0  0  0  0  0  0  0  0  0  0  0  0
   -5.5336    0.3739    1.5033 H   0  0  0  0  0  0  0  0  0  0  0  0
   -5.4871    3.0761   -0.8669 H   0  0  0  0  0  0  0  0  0  0  0  0
   -5.9818    2.6611    0.7751 H   0  0  0  0  0  0  0  0  0  0  0  0
   -7.9783    2.7853   -0.6364 H   0  0  0  0  0  0  0  0  0  0  0  0
   -7.2766    1.6892   -1.8169 H   0  0  0  0  0  0  0  0  0  0  0  0
   -8.0404    1.0124    1.0617 H   0  0  0  0  0  0  0  0  0  0  0  0
   -8.8059    0.3908   -0.3859 H   0  0  0  0  0  0  0  0  0  0  0  0
   -6.7638   -0.8211   -1.0210 H   0  0  0  0  0  0  0  0  0  0  0  0
   -7.1579   -1.2339    0.6422 H   0  0  0  0  0  0  0  0  0  0  0  0
   -1.3868   -4.1924   -1.8930 H   0  0  0  0  0  0  0  0  0  0  0  0
   -0.7058   -5.0033   -0.4922 H   0  0  0  0  0  0  0  0  0  0  0  0
    1.2013   -0.3897    0.9819 H   0  0  0  0  0  0  0  0  0  0  0  0
   -2.7987   -2.8942   -0.3968 H   0  0  0  0  0  0  0  0  0  0  0  0
    4.6613   -1.3051    1.6232 H   0  0  0  0  0  0  0  0  0  0  0  0
   -4.0491    7.0093    0.0109 H   0  0  0  0  0  0  0  0  0  0  0  0
 17 16  2  0
 17 39  1  0
 16 33  1  0
 39 15  1  0
 33 15  2  0
 15 32  1  0
 34 13  2  0
 32 13  1  0
 13 12  1  0
 36 25  2  0
  4 12  1  1
 25 37  1  0
 25  8  1  0
  8  9  2  0
  8  7  1  0
 31  7  1  0
  9 10  1  0
  7  6  2  0
 11  4  1  0
  4  1  1  0
  4 14  1  0
 10  5  2  0
  6  5  1  0
  5 38  1  0
  1  2  1  0
 27 14  1  0
 27 28  2  0
 14 22  2  0
 38 28  1  0
  2 26  1  0
 28 29  1  0
 22 26  1  0
 22 30  1  0
 29 30  2  0
 29  3  1  0
  3 18  1  0
 23 24  1  0
 23 21  1  0
 19 24  1  0
 19 18  1  0
 19 35  1  0
 21 20  1  0
 20 35  1  0
  1 40  1  0
  2 41  1  0
  2 42  1  0
  6 43  1  0
  9 44  1  0
 10 45  1  0
 11 46  1  0
 11 47  1  0
 11 48  1  0
 12 49  1  0
 12 50  1  0
 16 51  1  0
 17 52  1  0
 18 53  1  0
 18 54  1  0
 19 55  1  1
 20 56  1  0
 20 57  1  0
 21 58  1  0
 21 59  1  0
 23 60  1  0
 23 61  1  0
 24 62  1  0
 24 63  1  0
 26 64  1  0
 26 65  1  0
 27 66  1  0
 30 67  1  0
 32 68  1  0
 37 69  1  0
M  END
