
     RDKit          3D

 32 35  0  0  0  0  0  0  0  0999 V2000
    4.1002   -0.8287   -1.0237 C   0  0  0  0  0  0  0  0  0  0  0  0
    4.6396   -2.2704   -0.9780 C   0  0  0  0  0  0  0  0  0  0  0  0
    4.3693   -2.7232    0.4544 C   0  0  0  0  0  0  0  0  0  0  0  0
    3.1527   -2.0008    0.7874 N   0  0  0  0  0  0  0  0  0  0  0  0
    3.3775   -0.6501    0.3371 C   0  0  2  0  0  0  0  0  0  0  0  0
    2.1060    0.1371    0.2025 C   0  0  0  0  0  0  0  0  0  0  0  0
    0.9434   -0.4255    0.2553 N   0  0  0  0  0  0  0  0  0  0  0  0
   -0.1031    0.4192    0.0879 C   0  0  0  0  0  0  0  0  0  0  0  0
   -1.5152    0.1529    0.0923 C   0  0  0  0  0  0  0  0  0  0  0  0
   -2.2955   -0.9882    0.2573 C   0  0  0  0  0  0  0  0  0  0  0  0
   -3.6639   -0.8244    0.1914 C   0  0  0  0  0  0  0  0  0  0  0  0
   -4.6914   -2.2063    0.3909 Cl  0  0  0  0  0  0  0  0  0  0  0  0
   -4.2599    0.4239   -0.0299 C   0  0  0  0  0  0  0  0  0  0  0  0
   -3.4882    1.5598   -0.1940 C   0  0  0  0  0  0  0  0  0  0  0  0
   -2.1156    1.3948   -0.1281 C   0  0  0  0  0  0  0  0  0  0  0  0
   -1.1910    2.3752   -0.2611 O   0  0  0  0  0  0  0  0  0  0  0  0
    0.0084    1.7648   -0.1279 C   0  0  0  0  0  0  0  0  0  0  0  0
    1.2756    2.4198   -0.1892 C   0  0  0  0  0  0  0  0  0  0  0  0
    1.5097    3.6005   -0.3684 O   0  0  0  0  0  0  0  0  0  0  0  0
    2.2779    1.4741    0.0003 N   0  0  0  0  0  0  0  0  0  0  0  0
    4.8935   -0.0906   -1.1327 H   0  0  0  0  0  0  0  0  0  0  0  0
    3.4122   -0.6929   -1.8589 H   0  0  0  0  0  0  0  0  0  0  0  0
    4.0947   -2.8995   -1.6821 H   0  0  0  0  0  0  0  0  0  0  0  0
    5.6965   -2.3298   -1.2335 H   0  0  0  0  0  0  0  0  0  0  0  0
    4.2194   -3.8004    0.5419 H   0  0  0  0  0  0  0  0  0  0  0  0
    5.2165   -2.4534    1.1011 H   0  0  0  0  0  0  0  0  0  0  0  0
    2.9396   -2.0376    1.7756 H   0  0  0  0  0  0  0  0  0  0  0  0
    4.0436   -0.0866    1.0109 H   0  0  0  0  0  0  0  0  0  0  0  0
   -1.8462   -1.9563    0.4320 H   0  0  0  0  0  0  0  0  0  0  0  0
   -5.3372    0.5032   -0.0721 H   0  0  0  0  0  0  0  0  0  0  0  0
   -3.9446    2.5248   -0.3655 H   0  0  0  0  0  0  0  0  0  0  0  0
    3.2258    1.8337   -0.0063 H   0  0  0  0  0  0  0  0  0  0  0  0
  4  5  1  0
  4  3  1  0
  5  6  1  0
  5  1  1  0
  3  2  1  0
  6 20  1  0
  6  7  2  0
 20 18  1  0
  7  8  1  0
  1  2  1  0
 18 19  2  0
 18 17  1  0
  8 17  2  0
  8  9  1  0
 17 16  1  0
 10  9  2  0
 10 11  1  0
  9 15  1  0
 16 15  1  0
 12 11  1  0
 11 13  2  0
 15 14  2  0
 13 14  1  0
  1 21  1  0
  1 22  1  0
  2 23  1  0
  2 24  1  0
  3 25  1  0
  3 26  1  0
  4 27  1  0
  5 28  1  1
 10 29  1  0
 13 30  1  0
 14 31  1  0
 20 32  1  0
M  END
