
     RDKit          3D

 19 20  0  0  0  0  0  0  0  0999 V2000
    1.2719   -1.5533   -0.1847 C   0  0  0  0  0  0  0  0  0  0  0  0
    2.7250   -1.1874   -0.3344 C   0  0  0  0  0  0  0  0  0  0  0  0
    3.1318    0.0042    0.5064 C   0  0  0  0  0  0  0  0  0  0  0  0
    0.6161    0.9021   -0.0126 C   0  0  0  0  0  0  0  0  0  0  0  0
    0.2726   -0.4566   -0.0595 C   0  0  0  0  0  0  0  0  0  0  0  0
   -1.0774   -0.8203   -0.0356 C   0  0  0  0  0  0  0  0  0  0  0  0
   -2.0592    0.1436    0.0060 C   0  0  0  0  0  0  0  0  0  0  0  0
   -1.7269    1.4936    0.0262 C   0  0  0  0  0  0  0  0  0  0  0  0
   -0.3977    1.8627    0.0222 C   0  0  0  0  0  0  0  0  0  0  0  0
    0.9147   -2.7118   -0.2115 O   0  0  0  0  0  0  0  0  0  0  0  0
    2.2624    1.4997   -0.0153 S   0  0  0  0  0  0  0  0  0  0  0  0
   -3.7257   -0.3242    0.0294 Cl  0  0  0  0  0  0  0  0  0  0  0  0
    3.3311   -2.0569   -0.0756 H   0  0  0  0  0  0  0  0  0  0  0  0
    2.9054   -0.9717   -1.3936 H   0  0  0  0  0  0  0  0  0  0  0  0
    2.9419   -0.1700    1.5667 H   0  0  0  0  0  0  0  0  0  0  0  0
    4.1930    0.2165    0.3856 H   0  0  0  0  0  0  0  0  0  0  0  0
   -1.3439   -1.8683   -0.0645 H   0  0  0  0  0  0  0  0  0  0  0  0
   -2.4978    2.2512    0.0583 H   0  0  0  0  0  0  0  0  0  0  0  0
   -0.1440    2.9143    0.0628 H   0  0  0  0  0  0  0  0  0  0  0  0
 12  7  1  0
  8  9  1  0
  8  7  2  0
  9  4  2  0
  7  6  1  0
  6  5  2  0
  4  5  1  0
  4 11  1  0
  5  1  1  0
 11  3  1  0
  1 10  2  0
  1  2  1  0
  3  2  1  0
  2 13  1  0
  2 14  1  0
  3 15  1  0
  3 16  1  0
  6 17  1  0
  8 18  1  0
  9 19  1  0
M  END
