
     RDKit          3D

103103  0  0  0  0  0  0  0  0999 V2000
   17.5731   -0.1464    0.7897 C   0  0  0  0  0  0  0  0  0  0  0  0
   16.2726    0.6242    0.6093 C   0  0  0  0  0  0  0  0  0  0  0  0
   15.0478   -0.2826    0.5857 C   0  0  0  0  0  0  0  0  0  0  0  0
   13.7379    0.4761    0.4151 C   0  0  0  0  0  0  0  0  0  0  0  0
   12.5164   -0.4343    0.3818 C   0  0  0  0  0  0  0  0  0  0  0  0
   11.2063    0.3243    0.2121 C   0  0  0  0  0  0  0  0  0  0  0  0
    9.9873   -0.5890    0.1723 C   0  0  0  0  0  0  0  0  0  0  0  0
    8.6813    0.1755    0.0024 C   0  0  0  0  0  0  0  0  0  0  0  0
    7.4773   -0.7518   -0.0394 C   0  0  0  0  0  0  0  0  0  0  0  0
    6.2538    0.0067   -0.1991 N   0  0  0  0  0  0  0  0  0  0  0  0
    5.0412   -0.5619   -0.2888 C   0  0  0  0  0  0  0  0  0  0  0  0
    4.8876   -1.7764   -0.2762 O   0  0  0  0  0  0  0  0  0  0  0  0
    3.8865    0.4161   -0.3928 C   0  0  0  0  0  0  0  0  0  0  0  0
    2.5373   -0.2451   -0.6250 C   0  0  0  0  0  0  0  0  0  0  0  0
    1.4226    0.7924   -0.6938 C   0  0  0  0  0  0  0  0  0  0  0  0
    0.0505    0.1807   -0.9727 C   0  0  1  0  0  0  0  0  0  0  0  0
   -0.2670   -0.8118   -0.0200 O   0  0  0  0  0  0  0  0  0  0  0  0
   -1.0550    1.2569   -1.0513 C   0  0  1  0  0  0  0  0  0  0  0  0
   -0.6325    2.3792   -1.7912 O   0  0  0  0  0  0  0  0  0  0  0  0
   -2.3801    0.7352   -1.6433 C   0  0  2  0  0  0  0  0  0  0  0  0
   -3.4184    1.8382   -1.8183 C   0  0  0  0  0  0  0  0  0  0  0  0
   -3.6720    2.4182   -0.5552 O   0  0  0  0  0  0  0  0  0  0  0  0
   -4.8938    3.0655   -0.4343 C   0  0  1  0  0  0  0  0  0  0  0  0
   -5.9700    2.1707   -0.3639 O   0  0  0  0  0  0  0  0  0  0  0  0
   -5.9459    1.3012    0.7564 C   0  0  2  0  0  0  0  0  0  0  0  0
   -7.1186    0.3514    0.6425 C   0  0  0  0  0  0  0  0  0  0  0  0
   -6.9328   -0.4547   -0.4971 O   0  0  0  0  0  0  0  0  0  0  0  0
   -5.9523    2.0781    2.0660 C   0  0  2  0  0  0  0  0  0  0  0  0
   -7.1878    2.7360    2.2104 O   0  0  0  0  0  0  0  0  0  0  0  0
   -4.7867    3.0646    2.0648 C   0  0  2  0  0  0  0  0  0  0  0  0
   -4.8703    3.8245    3.2479 O   0  0  0  0  0  0  0  0  0  0  0  0
   -4.8572    3.9415    0.8215 C   0  0  1  0  0  0  0  0  0  0  0  0
   -3.7571    4.8167    0.8380 O   0  0  0  0  0  0  0  0  0  0  0  0
   -2.9376   -0.3327   -0.8490 N   0  0  0  0  0  0  0  0  0  0  0  0
   -3.5424   -1.4199   -1.3567 C   0  0  0  0  0  0  0  0  0  0  0  0
   -3.6397   -1.6258   -2.5596 O   0  0  0  0  0  0  0  0  0  0  0  0
   -4.0808   -2.3778   -0.3148 C   0  0  0  0  0  0  0  0  0  0  0  0
   -5.0743   -3.3884   -0.8649 C   0  0  0  0  0  0  0  0  0  0  0  0
   -5.7619   -4.1741    0.2432 C   0  0  0  0  0  0  0  0  0  0  0  0
   -6.7576   -5.1993   -0.2847 C   0  0  0  0  0  0  0  0  0  0  0  0
   -7.4838   -5.9572    0.8183 C   0  0  0  0  0  0  0  0  0  0  0  0
   -8.4851   -6.9770    0.2891 C   0  0  0  0  0  0  0  0  0  0  0  0
   -9.2148   -7.7232    1.3972 C   0  0  0  0  0  0  0  0  0  0  0  0
   18.4385    0.5173    0.7963 H   0  0  0  0  0  0  0  0  0  0  0  0
   17.5747   -0.6997    1.7310 H   0  0  0  0  0  0  0  0  0  0  0  0
   17.7178   -0.8697   -0.0155 H   0  0  0  0  0  0  0  0  0  0  0  0
   16.1644    1.3557    1.4160 H   0  0  0  0  0  0  0  0  0  0  0  0
   16.3121    1.2016   -0.3198 H   0  0  0  0  0  0  0  0  0  0  0  0
   15.1546   -1.0113   -0.2257 H   0  0  0  0  0  0  0  0  0  0  0  0
   15.0125   -0.8663    1.5128 H   0  0  0  0  0  0  0  0  0  0  0  0
   13.6280    1.1998    1.2304 H   0  0  0  0  0  0  0  0  0  0  0  0
   13.7758    1.0647   -0.5087 H   0  0  0  0  0  0  0  0  0  0  0  0
   12.6262   -1.1569   -0.4344 H   0  0  0  0  0  0  0  0  0  0  0  0
   12.4784   -1.0241    1.3048 H   0  0  0  0  0  0  0  0  0  0  0  0
   11.0934    1.0435    1.0307 H   0  0  0  0  0  0  0  0  0  0  0  0
   11.2452    0.9167   -0.7089 H   0  0  0  0  0  0  0  0  0  0  0  0
   10.0994   -1.3069   -0.6472 H   0  0  0  0  0  0  0  0  0  0  0  0
    9.9474   -1.1809    1.0931 H   0  0  0  0  0  0  0  0  0  0  0  0
    8.5653    0.8878    0.8261 H   0  0  0  0  0  0  0  0  0  0  0  0
    8.7183    0.7654   -0.9195 H   0  0  0  0  0  0  0  0  0  0  0  0
    7.5869   -1.4596   -0.8658 H   0  0  0  0  0  0  0  0  0  0  0  0
    7.4368   -1.3443    0.8802 H   0  0  0  0  0  0  0  0  0  0  0  0
    6.3178    1.0121   -0.2004 H   0  0  0  0  0  0  0  0  0  0  0  0
    3.8587    1.0057    0.5305 H   0  0  0  0  0  0  0  0  0  0  0  0
    4.0979    1.1344   -1.1914 H   0  0  0  0  0  0  0  0  0  0  0  0
    2.5585   -0.8154   -1.5583 H   0  0  0  0  0  0  0  0  0  0  0  0
    2.3405   -0.9624    0.1726 H   0  0  0  0  0  0  0  0  0  0  0  0
    1.3832    1.3589    0.2461 H   0  0  0  0  0  0  0  0  0  0  0  0
    1.6612    1.5190   -1.4721 H   0  0  0  0  0  0  0  0  0  0  0  0
    0.0922   -0.3433   -1.9371 H   0  0  0  0  0  0  0  0  0  0  0  0
   -0.1810   -0.4237    0.8580 H   0  0  0  0  0  0  0  0  0  0  0  0
   -1.2336    1.6300   -0.0356 H   0  0  0  0  0  0  0  0  0  0  0  0
   -0.4139    2.0978   -2.6869 H   0  0  0  0  0  0  0  0  0  0  0  0
   -2.1701    0.3329   -2.6395 H   0  0  0  0  0  0  0  0  0  0  0  0
   -3.0727    2.5993   -2.5255 H   0  0  0  0  0  0  0  0  0  0  0  0
   -4.3219    1.3833   -2.2364 H   0  0  0  0  0  0  0  0  0  0  0  0
   -5.0961    3.6875   -1.3178 H   0  0  0  0  0  0  0  0  0  0  0  0
   -5.0304    0.6966    0.7520 H   0  0  0  0  0  0  0  0  0  0  0  0
   -7.1502   -0.2469    1.5625 H   0  0  0  0  0  0  0  0  0  0  0  0
   -8.0578    0.9144    0.5900 H   0  0  0  0  0  0  0  0  0  0  0  0
   -7.6596   -1.0819   -0.5378 H   0  0  0  0  0  0  0  0  0  0  0  0
   -5.7945    1.3549    2.8807 H   0  0  0  0  0  0  0  0  0  0  0  0
   -7.1165    3.3343    2.9622 H   0  0  0  0  0  0  0  0  0  0  0  0
   -3.8528    2.4848    2.0411 H   0  0  0  0  0  0  0  0  0  0  0  0
   -4.2625    4.5685    3.1745 H   0  0  0  0  0  0  0  0  0  0  0  0
   -5.8009    4.5018    0.8456 H   0  0  0  0  0  0  0  0  0  0  0  0
   -3.9548    5.5727    0.2771 H   0  0  0  0  0  0  0  0  0  0  0  0
   -2.8973   -0.2397    0.1520 H   0  0  0  0  0  0  0  0  0  0  0  0
   -3.2309   -2.8925    0.1463 H   0  0  0  0  0  0  0  0  0  0  0  0
   -4.5500   -1.7992    0.4857 H   0  0  0  0  0  0  0  0  0  0  0  0
   -5.8320   -2.8692   -1.4560 H   0  0  0  0  0  0  0  0  0  0  0  0
   -4.5694   -4.0780   -1.5460 H   0  0  0  0  0  0  0  0  0  0  0  0
   -5.0128   -4.6802    0.8620 H   0  0  0  0  0  0  0  0  0  0  0  0
   -6.2820   -3.4742    0.9072 H   0  0  0  0  0  0  0  0  0  0  0  0
   -7.4929   -4.6934   -0.9204 H   0  0  0  0  0  0  0  0  0  0  0  0
   -6.2366   -5.9117   -0.9337 H   0  0  0  0  0  0  0  0  0  0  0  0
   -6.7512   -6.4658    1.4549 H   0  0  0  0  0  0  0  0  0  0  0  0
   -8.0034   -5.2430    1.4670 H   0  0  0  0  0  0  0  0  0  0  0  0
   -9.2128   -6.4684   -0.3510 H   0  0  0  0  0  0  0  0  0  0  0  0
   -7.9649   -7.6932   -0.3547 H   0  0  0  0  0  0  0  0  0  0  0  0
   -8.5146   -8.2680    2.0330 H   0  0  0  0  0  0  0  0  0  0  0  0
   -9.7694   -7.0340    2.0366 H   0  0  0  0  0  0  0  0  0  0  0  0
   -9.9259   -8.4452    0.9938 H   0  0  0  0  0  0  0  0  0  0  0  0
  1  2  1  0
  2  3  1  0
  3  4  1  0
  4  5  1  0
  5  6  1  0
  6  7  1  0
  7  8  1  0
  8  9  1  0
  9 10  1  0
 10 11  1  0
 12 11  2  0
 11 13  1  0
 43 42  1  0
 14 13  1  0
 14 15  1  0
 42 41  1  0
 15 16  1  0
 41 40  1  0
 17 16  1  0
 16 18  1  0
 40 39  1  0
 19 18  1  0
 39 38  1  0
 18 20  1  0
 20 34  1  0
 20 21  1  0
 36 35  2  0
 35 34  1  0
 35 37  1  0
 38 37  1  0
 21 22  1  0
 22 23  1  0
 33 32  1  0
 23 32  1  0
 23 24  1  0
 32 30  1  0
 24 25  1  0
 30 28  1  0
 30 31  1  0
 25 28  1  0
 25 26  1  0
 27 26  1  0
 28 29  1  0
  1 44  1  0
  1 45  1  0
  1 46  1  0
  2 47  1  0
  2 48  1  0
  3 49  1  0
  3 50  1  0
  4 51  1  0
  4 52  1  0
  5 53  1  0
  5 54  1  0
  6 55  1  0
  6 56  1  0
  7 57  1  0
  7 58  1  0
  8 59  1  0
  8 60  1  0
  9 61  1  0
  9 62  1  0
 10 63  1  0
 13 64  1  0
 13 65  1  0
 14 66  1  0
 14 67  1  0
 15 68  1  0
 15 69  1  0
 16 70  1  6
 17 71  1  0
 18 72  1  1
 19 73  1  0
 20 74  1  6
 21 75  1  0
 21 76  1  0
 23 77  1  6
 25 78  1  6
 26 79  1  0
 26 80  1  0
 27 81  1  0
 28 82  1  1
 29 83  1  0
 30 84  1  1
 31 85  1  0
 32 86  1  1
 33 87  1  0
 34 88  1  0
 37 89  1  0
 37 90  1  0
 38 91  1  0
 38 92  1  0
 39 93  1  0
 39 94  1  0
 40 95  1  0
 40 96  1  0
 41 97  1  0
 41 98  1  0
 42 99  1  0
 42100  1  0
 43101  1  0
 43102  1  0
 43103  1  0
M  END
