
     RDKit          3D

 39 39  0  0  0  0  0  0  0  0999 V2000
  -16.8988   -0.9466   25.7832 O   0  0  0  0  0  0  0  0  0  0  0  0
  -15.5874   -0.4339   25.8267 C   0  0  1  0  0  0  0  0  0  0  0  0
  -15.4058    0.6640   26.8674 C   0  0  2  0  0  0  0  0  0  0  0  0
  -16.3456    1.6799   26.6038 O   0  0  0  0  0  0  0  0  0  0  0  0
  -13.9620    1.1818   26.8273 C   0  0  2  0  0  0  0  0  0  0  0  0
  -13.7181    1.8341   25.5533 N   0  0  0  0  0  0  0  0  0  0  0  0
  -14.5407   -1.5473   26.0355 C   0  0  2  0  0  0  0  0  0  0  0  0
  -14.8546   -2.4692   27.2189 C   0  0  0  0  0  0  0  0  0  0  0  0
  -13.8637   -3.4506   27.4073 O   0  0  0  0  0  0  0  0  0  0  0  0
  -13.2372   -1.0139   26.1053 O   0  0  0  0  0  0  0  0  0  0  0  0
  -13.0352   -0.0188   27.0828 C   0  0  1  0  0  0  0  0  0  0  0  0
  -11.6225    0.2123   27.1533 N   0  0  0  0  0  0  0  0  0  0  0  0
  -10.9196    0.8268   26.0442 C   0  0  0  0  0  0  0  0  0  0  0  0
   -9.4656    0.3832   26.0721 C   0  0  0  0  0  0  0  0  0  0  0  0
   -8.7725    1.0437   25.0262 O   0  0  0  0  0  0  0  0  0  0  0  0
   -7.0381    0.3942   24.4091 Sn  0  0  1  0  0  0  0  0  0  0  0  0
   -5.7899    0.6437   25.8843 O   0  0  0  0  0  0  0  0  0  0  0  0
   -7.0718   -1.5059   23.9803 O   0  0  0  0  0  0  0  0  0  0  0  0
   -6.5764    1.3843   22.7972 O   0  0  0  0  0  0  0  0  0  0  0  0
  -17.2089   -1.1215   26.6777 H   0  0  0  0  0  0  0  0  0  0  0  0
  -15.4073    0.0001   24.8395 H   0  0  0  0  0  0  0  0  0  0  0  0
  -15.5804    0.2451   27.8719 H   0  0  0  0  0  0  0  0  0  0  0  0
  -16.3083    2.3154   27.3262 H   0  0  0  0  0  0  0  0  0  0  0  0
  -13.8327    1.8597   27.6876 H   0  0  0  0  0  0  0  0  0  0  0  0
  -12.9216    2.4513   25.6270 H   0  0  0  0  0  0  0  0  0  0  0  0
  -14.5044    2.4374   25.3429 H   0  0  0  0  0  0  0  0  0  0  0  0
  -14.5428   -2.1725   25.1350 H   0  0  0  0  0  0  0  0  0  0  0  0
  -15.8384   -2.9235   27.0548 H   0  0  0  0  0  0  0  0  0  0  0  0
  -14.9218   -1.9193   28.1609 H   0  0  0  0  0  0  0  0  0  0  0  0
  -13.8388   -4.0081   26.6234 H   0  0  0  0  0  0  0  0  0  0  0  0
  -13.3056   -0.3906   28.0830 H   0  0  0  0  0  0  0  0  0  0  0  0
  -11.3825    0.6485   28.0317 H   0  0  0  0  0  0  0  0  0  0  0  0
  -10.9485    1.9249   26.0591 H   0  0  0  0  0  0  0  0  0  0  0  0
  -11.3736    0.5071   25.1066 H   0  0  0  0  0  0  0  0  0  0  0  0
   -9.4312   -0.7088   25.9745 H   0  0  0  0  0  0  0  0  0  0  0  0
   -9.0267    0.6311   27.0476 H   0  0  0  0  0  0  0  0  0  0  0  0
   -4.9066    0.3248   25.6637 H   0  0  0  0  0  0  0  0  0  0  0  0
   -7.7149   -1.7052   23.2896 H   0  0  0  0  0  0  0  0  0  0  0  0
   -6.6433    2.3374   22.9302 H   0  0  0  0  0  0  0  0  0  0  0  0
  1  2  1  0
  1 20  1  0
  2  3  1  0
  2  7  1  0
  2 21  1  6
  3  4  1  0
  3  5  1  0
  3 22  1  1
  4 23  1  0
  5  6  1  0
  5 11  1  0
  5 24  1  1
  6 25  1  0
  6 26  1  0
  7  8  1  0
  7 10  1  0
  7 27  1  6
  8  9  1  0
  8 28  1  0
  8 29  1  0
  9 30  1  0
 10 11  1  0
 11 12  1  0
 11 31  1  1
 12 13  1  0
 12 32  1  0
 13 14  1  0
 13 33  1  0
 13 34  1  0
 14 15  1  0
 14 35  1  0
 14 36  1  0
 16 15  1  1
 16 17  1  0
 16 18  1  0
 16 19  1  0
 17 37  1  0
 18 38  1  0
 19 39  1  0
M  END
