
     RDKit          3D

 47 50  0  0  0  0  0  0  0  0999 V2000
   -5.0133    0.9118   -0.2879 C   0  0  0  0  0  0  0  0  0  0  0  0
   -6.4034    0.8864   -0.1789 C   0  0  0  0  0  0  0  0  0  0  0  0
   -7.3099    1.8581   -0.4811 N   0  0  0  0  0  0  0  0  0  0  0  0
   -8.5723    1.4006   -0.2227 C   0  0  0  0  0  0  0  0  0  0  0  0
   -8.5106    0.1232    0.2536 C   0  0  0  0  0  0  0  0  0  0  0  0
   -7.1262   -0.2308    0.2907 C   0  0  0  0  0  0  0  0  0  0  0  0
   -6.4072   -1.3708    0.6656 C   0  0  0  0  0  0  0  0  0  0  0  0
   -5.0347   -1.3628    0.5674 C   0  0  0  0  0  0  0  0  0  0  0  0
   -4.3311   -0.2323    0.0943 C   0  0  0  0  0  0  0  0  0  0  0  0
   -2.9370   -0.3715    0.0190 N   0  0  0  0  0  0  0  0  0  0  0  0
   -1.9973    0.5926   -0.1360 C   0  0  0  0  0  0  0  0  0  0  0  0
   -2.2345    1.7878   -0.2004 O   0  0  0  0  0  0  0  0  0  0  0  0
   -0.6081    0.0994   -0.2063 C   0  0  0  0  0  0  0  0  0  0  0  0
   -0.2558   -1.1837   -0.5544 N   0  0  0  0  0  0  0  0  0  0  0  0
    0.5180    0.8158    0.0939 C   0  0  0  0  0  0  0  0  0  0  0  0
    1.6263   -0.0627   -0.0789 C   0  0  0  0  0  0  0  0  0  0  0  0
    3.0060    0.0777    0.0907 C   0  0  0  0  0  0  0  0  0  0  0  0
    1.0990   -1.3023   -0.5024 C   0  0  0  0  0  0  0  0  0  0  0  0
    1.9237   -2.3891   -0.7865 C   0  0  0  0  0  0  0  0  0  0  0  0
    3.2794   -2.2205   -0.6107 C   0  0  0  0  0  0  0  0  0  0  0  0
    3.8400   -0.9997   -0.1677 C   0  0  0  0  0  0  0  0  0  0  0  0
    5.3036   -0.8757    0.0015 C   0  0  0  0  0  0  0  0  0  0  0  0
    6.1297   -2.0994    0.2825 C   0  0  0  0  0  0  0  0  0  0  0  0
    5.7926    0.3023   -0.0875 N   0  0  0  0  0  0  0  0  0  0  0  0
    7.1084    0.4748    0.0844 N   0  0  0  0  0  0  0  0  0  0  0  0
    7.6734    1.7260   -0.0506 C   0  0  0  0  0  0  0  0  0  0  0  0
    9.0355    1.6892    0.1545 N   0  0  0  0  0  0  0  0  0  0  0  0
    6.9733    2.7420   -0.3727 N   0  0  0  0  0  0  0  0  0  0  0  0
   -4.5074    1.7884   -0.6593 H   0  0  0  0  0  0  0  0  0  0  0  0
   -7.0903    2.7704   -0.8442 H   0  0  0  0  0  0  0  0  0  0  0  0
   -9.4286    2.0301   -0.4029 H   0  0  0  0  0  0  0  0  0  0  0  0
   -9.3499   -0.4901    0.5401 H   0  0  0  0  0  0  0  0  0  0  0  0
   -6.9154   -2.2538    1.0318 H   0  0  0  0  0  0  0  0  0  0  0  0
   -4.4756   -2.2432    0.8621 H   0  0  0  0  0  0  0  0  0  0  0  0
   -2.6043   -1.2999    0.2316 H   0  0  0  0  0  0  0  0  0  0  0  0
   -0.8695   -1.8786   -0.9491 H   0  0  0  0  0  0  0  0  0  0  0  0
    0.5436    1.8409    0.4274 H   0  0  0  0  0  0  0  0  0  0  0  0
    3.4214    1.0164    0.4342 H   0  0  0  0  0  0  0  0  0  0  0  0
    1.5206   -3.3325   -1.1305 H   0  0  0  0  0  0  0  0  0  0  0  0
    3.9292   -3.0561   -0.8355 H   0  0  0  0  0  0  0  0  0  0  0  0
    6.7203   -2.3972   -0.5882 H   0  0  0  0  0  0  0  0  0  0  0  0
    6.8289   -1.9204    1.1027 H   0  0  0  0  0  0  0  0  0  0  0  0
    5.5188   -2.9499    0.5714 H   0  0  0  0  0  0  0  0  0  0  0  0
    9.3747    1.0073    0.8165 H   0  0  0  0  0  0  0  0  0  0  0  0
    9.4640    2.5889    0.3023 H   0  0  0  0  0  0  0  0  0  0  0  0
    7.5517    3.5742   -0.3749 H   0  0  0  0  0  0  0  0  0  0  0  0
    7.7280   -0.3225    0.1311 H   0  0  0  0  0  0  0  0  0  0  0  0
  1  2  2  0
  1  9  1  0
  2  3  1  0
  2  6  1  0
  3  4  1  0
  4  5  2  0
  5  6  1  0
  6  7  2  0
  7  8  1  0
  8  9  2  0
  9 10  1  0
 10 11  1  0
 11 12  2  0
 11 13  1  0
 13 14  1  0
 13 15  2  0
 14 18  1  0
 15 16  1  0
 16 17  1  0
 16 18  2  0
 17 21  2  0
 18 19  1  0
 19 20  2  0
 20 21  1  0
 21 22  1  0
 22 23  1  0
 22 24  2  0
 24 25  1  0
 25 26  1  0
 26 27  1  0
 26 28  2  0
  1 29  1  0
  3 30  1  0
  4 31  1  0
  5 32  1  0
  7 33  1  0
  8 34  1  0
 10 35  1  0
 14 36  1  0
 15 37  1  0
 17 38  1  0
 19 39  1  0
 20 40  1  0
 23 41  1  0
 23 42  1  0
 23 43  1  0
 27 44  1  0
 27 45  1  0
 28 46  1  0
 25 47  1  0
M  END
