
     RDKit          3D

 24 24  0  0  0  0  0  0  0  0999 V2000
    4.6180    0.6596    0.0290 O   0  0  0  0  0  0  0  0  0  0  0  0
    3.7097   -0.4158    0.0476 C   0  0  0  0  0  0  0  0  0  0  0  0
    2.3103    0.1774    0.0361 C   0  0  0  0  0  0  0  0  0  0  0  0
    1.1257   -1.1935    0.0663 S   0  0  0  0  0  0  0  0  0  0  0  0
   -0.4221   -0.3670    0.0277 C   0  0  0  0  0  0  0  0  0  0  0  0
   -1.4560   -1.1964    0.0323 N   0  0  0  0  0  0  0  0  0  0  0  0
   -2.6647   -0.6423    0.0013 C   0  0  0  0  0  0  0  0  0  0  0  0
   -3.8383   -1.5661    0.0041 C   0  0  0  0  0  0  0  0  0  0  0  0
   -2.8131    0.7403   -0.0337 C   0  0  0  0  0  0  0  0  0  0  0  0
   -0.4560    0.9502   -0.0029 N   0  0  0  0  0  0  0  0  0  0  0  0
   -1.6644    1.5172   -0.0340 C   0  0  0  0  0  0  0  0  0  0  0  0
   -1.7135    3.0089   -0.0652 C   0  0  0  0  0  0  0  0  0  0  0  0
    5.5090    0.2981    0.0312 H   0  0  0  0  0  0  0  0  0  0  0  0
    3.8378   -1.0705   -0.8235 H   0  0  0  0  0  0  0  0  0  0  0  0
    3.8376   -1.0397    0.9412 H   0  0  0  0  0  0  0  0  0  0  0  0
    2.1538    0.8132    0.9075 H   0  0  0  0  0  0  0  0  0  0  0  0
    2.1523    0.7739   -0.8624 H   0  0  0  0  0  0  0  0  0  0  0  0
   -3.8275   -2.1883    0.8997 H   0  0  0  0  0  0  0  0  0  0  0  0
   -4.7803   -1.0232   -0.0275 H   0  0  0  0  0  0  0  0  0  0  0  0
   -3.7943   -2.2355   -0.8555 H   0  0  0  0  0  0  0  0  0  0  0  0
   -3.7933    1.1949   -0.0607 H   0  0  0  0  0  0  0  0  0  0  0  0
   -1.2674    3.4207    0.8411 H   0  0  0  0  0  0  0  0  0  0  0  0
   -1.1384    3.3905   -0.9094 H   0  0  0  0  0  0  0  0  0  0  0  0
   -2.7342    3.3768   -0.1448 H   0  0  0  0  0  0  0  0  0  0  0  0
  1  2  1  0
  2  3  1  0
  3  4  1  0
  4  5  1  0
  5  6  2  0
  5 10  1  0
  6  7  1  0
  7  8  1  0
  7  9  2  0
  9 11  1  0
 10 11  2  0
 11 12  1  0
  1 13  1  0
  2 14  1  0
  2 15  1  0
  3 16  1  0
  3 17  1  0
  8 18  1  0
  8 19  1  0
  8 20  1  0
  9 21  1  0
 12 22  1  0
 12 23  1  0
 12 24  1  0
M  END
