
     RDKit          3D

 45 48  0  0  0  0  0  0  0  0999 V2000
    3.7069    2.7372   -0.3172 N   0  0  0  0  0  0  0  0  0  0  0  0
    2.6361    3.5667   -0.6003 O   0  0  0  0  0  0  0  0  0  0  0  0
    3.3582    1.3962   -0.2052 C   0  0  0  0  0  0  0  0  0  0  0  0
    4.3763    0.4347   -0.1953 C   0  0  0  0  0  0  0  0  0  0  0  0
    5.7853    0.9387   -0.3545 C   0  0  0  0  0  0  0  0  0  0  0  0
    4.0309   -0.9237   -0.0388 C   0  0  0  0  0  0  0  0  0  0  0  0
    5.0997   -1.9798   -0.0610 C   0  0  1  0  0  0  0  0  0  0  0  0
    4.5968   -3.2155    0.0057 F   0  0  0  0  0  0  0  0  0  0  0  0
    5.8332   -1.9305   -1.1824 F   0  0  0  0  0  0  0  0  0  0  0  0
    5.9513   -1.8625    0.9696 F   0  0  0  0  0  0  0  0  0  0  0  0
    2.7252   -1.3344    0.1420 C   0  0  0  0  0  0  0  0  0  0  0  0
    1.7225   -0.3706    0.1549 C   0  0  0  0  0  0  0  0  0  0  0  0
    2.0347    0.9841   -0.0315 C   0  0  0  0  0  0  0  0  0  0  0  0
    0.3934   -0.6424    0.3358 N   0  0  0  0  0  0  0  0  0  0  0  0
   -0.2937    0.4448    0.2971 C   0  0  0  0  0  0  0  0  0  0  0  0
    0.5803    1.9180    0.0194 S   0  0  0  0  0  0  0  0  0  0  0  0
   -1.7451    0.4836    0.4650 C   0  0  0  0  0  0  0  0  0  0  0  0
   -2.2879    1.7033    0.3721 O   0  0  0  0  0  0  0  0  0  0  0  0
   -3.6809    1.5431    0.6830 C   0  0  0  0  0  0  0  0  0  0  0  0
   -3.8461    0.0045    0.7590 C   0  0  2  0  0  0  0  0  0  0  0  0
   -2.4881   -0.5090    0.6984 N   0  0  0  0  0  0  0  0  0  0  0  0
   -4.6404   -0.5223   -0.4352 C   0  0  0  0  0  0  0  0  0  0  0  0
   -4.0766   -0.7716   -1.4916 O   0  0  0  0  0  0  0  0  0  0  0  0
   -5.9606   -0.6414   -0.2665 N   0  0  0  0  0  0  0  0  0  0  0  0
   -6.8232   -1.1236   -1.3423 C   0  0  0  0  0  0  0  0  0  0  0  0
   -8.1579   -1.3541   -0.6448 C   0  0  0  0  0  0  0  0  0  0  0  0
   -8.1610   -0.2958    0.4528 C   0  0  0  0  0  0  0  0  0  0  0  0
   -6.7167   -0.2994    0.9390 C   0  0  0  0  0  0  0  0  0  0  0  0
    4.4353    2.9136   -0.9989 H   0  0  0  0  0  0  0  0  0  0  0  0
    2.6213    4.2054    0.1226 H   0  0  0  0  0  0  0  0  0  0  0  0
    5.9590    1.7892    0.3069 H   0  0  0  0  0  0  0  0  0  0  0  0
    6.5519    0.2091   -0.1249 H   0  0  0  0  0  0  0  0  0  0  0  0
    5.9693    1.2818   -1.3763 H   0  0  0  0  0  0  0  0  0  0  0  0
    2.4535   -2.3710    0.2767 H   0  0  0  0  0  0  0  0  0  0  0  0
   -3.8897    2.0304    1.6355 H   0  0  0  0  0  0  0  0  0  0  0  0
   -4.2702    2.0227   -0.0978 H   0  0  0  0  0  0  0  0  0  0  0  0
   -4.3045   -0.2985    1.7016 H   0  0  0  0  0  0  0  0  0  0  0  0
   -6.9095   -0.3692   -2.1293 H   0  0  0  0  0  0  0  0  0  0  0  0
   -6.4164   -2.0295   -1.7914 H   0  0  0  0  0  0  0  0  0  0  0  0
   -8.9996   -1.2675   -1.3302 H   0  0  0  0  0  0  0  0  0  0  0  0
   -8.1850   -2.3536   -0.2056 H   0  0  0  0  0  0  0  0  0  0  0  0
   -8.4112    0.6821    0.0362 H   0  0  0  0  0  0  0  0  0  0  0  0
   -8.8627   -0.5055    1.2587 H   0  0  0  0  0  0  0  0  0  0  0  0
   -6.5653   -1.0513    1.7187 H   0  0  0  0  0  0  0  0  0  0  0  0
   -6.4212    0.6697    1.3429 H   0  0  0  0  0  0  0  0  0  0  0  0
  2  1  1  0
 23 22  2  0
  1  3  1  0
 22 20  1  0
 22 24  1  0
 16 13  1  0
 16 15  1  0
  3 13  2  0
  3  4  1  0
 28 24  1  0
 28 27  1  0
 21 20  1  0
 21 17  2  0
 20 19  1  0
 24 25  1  0
  5  4  1  0
 13 12  1  0
  4  6  2  0
 17 15  1  0
 17 18  1  0
 15 14  2  0
 27 26  1  0
 25 26  1  0
 19 18  1  0
 12 14  1  0
 12 11  2  0
  6 11  1  0
  6  7  1  0
  7  9  1  6
  7  8  1  0
  7 10  1  0
  1 29  1  0
  2 30  1  0
  5 31  1  0
  5 32  1  0
  5 33  1  0
 11 34  1  0
 19 35  1  0
 19 36  1  0
 20 37  1  1
 25 38  1  0
 25 39  1  0
 26 40  1  0
 26 41  1  0
 27 42  1  0
 27 43  1  0
 28 44  1  0
 28 45  1  0
M  END
