
     RDKit          3D

 56 58  0  0  0  0  0  0  0  0999 V2000
   -0.8754   -0.4977   -0.0269 C   0  0  0  0  0  0  0  0  0  0  0  0
    0.0073   -1.5857   -0.0473 C   0  0  0  0  0  0  0  0  0  0  0  0
   -0.5846   -2.8883   -0.1343 C   0  0  0  0  0  0  0  0  0  0  0  0
   -1.9742   -3.0144   -0.1675 C   0  0  0  0  0  0  0  0  0  0  0  0
   -2.8356   -1.9478   -0.1202 C   0  0  0  0  0  0  0  0  0  0  0  0
   -2.2638   -0.6286   -0.0770 C   0  0  0  0  0  0  0  0  0  0  0  0
   -4.3049   -2.1541   -0.1521 C   0  0  0  0  0  0  0  0  0  0  0  0
   -4.7620   -3.3641    0.2066 N   0  0  0  0  0  0  0  0  0  0  0  0
   -5.0779   -1.2601   -0.5016 O   0  0  0  0  0  0  0  0  0  0  0  0
    0.1741   -4.0788   -0.2029 N   0  0  0  0  0  0  0  0  0  0  0  0
    1.3968   -4.0143   -0.1498 O   0  0  0  0  0  0  0  0  0  0  0  0
   -0.3980   -5.1483   -0.3110 O   0  0  0  0  0  0  0  0  0  0  0  0
   -3.0502    0.4562   -0.0589 N   0  0  0  0  0  0  0  0  0  0  0  0
   -2.5559    1.8139   -0.0121 C   0  0  0  0  0  0  0  0  0  0  0  0
    1.3271   -1.3711    0.0038 N   0  0  0  0  0  0  0  0  0  0  0  0
    1.9334   -0.0597    0.0284 C   0  0  0  0  0  0  0  0  0  0  0  0
    3.4462   -0.1756    0.1113 C   0  0  0  0  0  0  0  0  0  0  0  0
    4.0918    1.1984   -0.0099 C   0  0  0  0  0  0  0  0  0  0  0  0
    7.4961    2.5347    0.7452 C   0  0  0  0  0  0  0  0  0  0  0  0
    6.0209    2.5517    0.3963 C   0  0  0  0  0  0  0  0  0  0  0  0
    5.5112    1.1971    0.2818 N   0  0  0  0  0  0  0  0  0  0  0  0
    6.2914    0.4615   -0.6972 C   0  0  0  0  0  0  0  0  0  0  0  0
    7.7621    0.4949   -0.3269 C   0  0  0  0  0  0  0  0  0  0  0  0
    8.2445    1.8148   -0.2092 O   0  0  0  0  0  0  0  0  0  0  0  0
   -5.8238    4.4791    0.1609 C   0  0  0  0  0  0  0  0  0  0  0  0
   -5.1546    4.2039    1.2739 N   0  0  0  0  0  0  0  0  0  0  0  0
   -4.1267    3.3691    1.1878 C   0  0  0  0  0  0  0  0  0  0  0  0
   -3.7091    2.7725    0.0039 C   0  0  0  0  0  0  0  0  0  0  0  0
   -4.4191    3.0736   -1.1528 C   0  0  0  0  0  0  0  0  0  0  0  0
   -5.4961    3.9410   -1.0754 C   0  0  0  0  0  0  0  0  0  0  0  0
   -0.4566    0.4958    0.0170 H   0  0  0  0  0  0  0  0  0  0  0  0
   -2.3729   -4.0145   -0.2542 H   0  0  0  0  0  0  0  0  0  0  0  0
   -4.1955   -4.0470    0.6774 H   0  0  0  0  0  0  0  0  0  0  0  0
   -5.7557   -3.5277    0.2040 H   0  0  0  0  0  0  0  0  0  0  0  0
   -4.0384    0.2956   -0.2021 H   0  0  0  0  0  0  0  0  0  0  0  0
   -1.9395    1.9590    0.8804 H   0  0  0  0  0  0  0  0  0  0  0  0
   -1.9128    2.0183   -0.8755 H   0  0  0  0  0  0  0  0  0  0  0  0
    1.9296   -2.1758   -0.0457 H   0  0  0  0  0  0  0  0  0  0  0  0
    1.6486    0.5013   -0.8692 H   0  0  0  0  0  0  0  0  0  0  0  0
    1.5637    0.5087    0.8877 H   0  0  0  0  0  0  0  0  0  0  0  0
    3.7308   -0.6281    1.0646 H   0  0  0  0  0  0  0  0  0  0  0  0
    3.7983   -0.8402   -0.6821 H   0  0  0  0  0  0  0  0  0  0  0  0
    3.8829    1.6093   -1.0128 H   0  0  0  0  0  0  0  0  0  0  0  0
    3.6118    1.8741    0.7045 H   0  0  0  0  0  0  0  0  0  0  0  0
    7.6309    2.1008    1.7463 H   0  0  0  0  0  0  0  0  0  0  0  0
    5.4774    3.0774    1.1859 H   0  0  0  0  0  0  0  0  0  0  0  0
    5.8753    3.1271   -0.5347 H   0  0  0  0  0  0  0  0  0  0  0  0
    5.9750   -0.5829   -0.7241 H   0  0  0  0  0  0  0  0  0  0  0  0
    6.1538    0.8675   -1.7150 H   0  0  0  0  0  0  0  0  0  0  0  0
    7.9098   -0.0534    0.6146 H   0  0  0  0  0  0  0  0  0  0  0  0
    8.3520   -0.0010   -1.0991 H   0  0  0  0  0  0  0  0  0  0  0  0
   -6.6614    5.1613    0.2536 H   0  0  0  0  0  0  0  0  0  0  0  0
   -3.5954    3.1586    2.1111 H   0  0  0  0  0  0  0  0  0  0  0  0
   -4.1313    2.6382   -2.1023 H   0  0  0  0  0  0  0  0  0  0  0  0
   -6.0717    4.1998   -1.9533 H   0  0  0  0  0  0  0  0  0  0  0  0
    7.8859    3.5536    0.7670 H   0  0  0  0  0  0  0  0  0  0  0  0
  1  2  2  0
  1 31  1  0
  2 15  1  0
  3 10  1  0
  3  2  1  0
  4  3  2  0
  4 32  1  0
  5  4  1  0
  5  6  2  0
  6  1  1  0
  7  5  1  0
  8  7  1  0
  8 33  1  0
  8 34  1  0
  9  7  2  0
 10 12  1  0
 11 10  2  0
 13  6  1  0
 13 14  1  0
 13 35  1  0
 14 28  1  0
 14 36  1  0
 14 37  1  0
 15 16  1  0
 15 38  1  0
 16 17  1  0
 16 39  1  0
 16 40  1  0
 17 18  1  0
 17 41  1  0
 17 42  1  0
 18 21  1  0
 18 43  1  0
 18 44  1  0
 19 56  1  0
 19 45  1  0
 20 19  1  0
 20 46  1  0
 20 47  1  0
 21 20  1  0
 21 22  1  0
 22 23  1  0
 22 48  1  0
 22 49  1  0
 23 50  1  0
 23 51  1  0
 24 19  1  0
 24 23  1  0
 25 30  2  0
 25 52  1  0
 26 25  1  0
 27 28  1  0
 27 26  2  0
 27 53  1  0
 28 29  2  0
 29 30  1  0
 29 54  1  0
 30 55  1  0
M  CHG  2  10   1  12  -1
M  END
