
     RDKit          3D

 31 31  0  0  0  0  0  0  0  0999 V2000
    2.5198    0.3583   -1.6271 O   0  0  0  0  0  0  0  0  0  0  0  0
    2.5928    0.1588   -0.0313 P   0  0  1  0  0  0  0  0  0  0  0  0
    3.5614   -1.1006    0.2262 O   0  0  0  0  0  0  0  0  0  0  0  0
    3.0903    1.3241    0.7414 O   0  0  0  0  0  0  0  0  0  0  0  0
    0.8985   -0.3747    0.3614 C   0  0  1  0  0  0  0  0  0  0  0  0
    0.9154   -0.6431    1.7910 N   0  0  0  0  0  0  0  0  0  0  0  0
   -0.1530    0.6332   -0.1151 C   0  0  0  0  0  0  0  0  0  0  0  0
   -1.5862    0.2488    0.2506 C   0  0  1  0  0  0  0  0  0  0  0  0
   -2.5525    1.3601   -0.1611 C   0  0  0  0  0  0  0  0  0  0  0  0
   -3.9977    1.0218    0.1894 C   0  0  0  0  0  0  0  0  0  0  0  0
   -4.4209   -0.3058   -0.4298 C   0  0  0  0  0  0  0  0  0  0  0  0
   -3.4652   -1.4238   -0.0286 C   0  0  0  0  0  0  0  0  0  0  0  0
   -2.0196   -1.0779   -0.3746 C   0  0  0  0  0  0  0  0  0  0  0  0
    3.3204    0.7358   -2.0169 H   0  0  0  0  0  0  0  0  0  0  0  0
    3.3328   -1.8994   -0.2665 H   0  0  0  0  0  0  0  0  0  0  0  0
    0.7443   -1.3282   -0.1535 H   0  0  0  0  0  0  0  0  0  0  0  0
    0.8431    0.2228    2.3111 H   0  0  0  0  0  0  0  0  0  0  0  0
    0.1161   -1.2045    2.0541 H   0  0  0  0  0  0  0  0  0  0  0  0
    0.0736    1.6138    0.3184 H   0  0  0  0  0  0  0  0  0  0  0  0
   -0.0831    0.7511   -1.2002 H   0  0  0  0  0  0  0  0  0  0  0  0
   -1.6520    0.1475    1.3419 H   0  0  0  0  0  0  0  0  0  0  0  0
   -2.2577    2.3001    0.3149 H   0  0  0  0  0  0  0  0  0  0  0  0
   -2.4695    1.5210   -1.2430 H   0  0  0  0  0  0  0  0  0  0  0  0
   -4.0998    0.9594    1.2785 H   0  0  0  0  0  0  0  0  0  0  0  0
   -4.6616    1.8252   -0.1398 H   0  0  0  0  0  0  0  0  0  0  0  0
   -5.4428   -0.5552   -0.1333 H   0  0  0  0  0  0  0  0  0  0  0  0
   -4.4280   -0.2109   -1.5213 H   0  0  0  0  0  0  0  0  0  0  0  0
   -3.5467   -1.5975    1.0501 H   0  0  0  0  0  0  0  0  0  0  0  0
   -3.7515   -2.3598   -0.5142 H   0  0  0  0  0  0  0  0  0  0  0  0
   -1.9124   -1.0069   -1.4643 H   0  0  0  0  0  0  0  0  0  0  0  0
   -1.3652   -1.8935   -0.0536 H   0  0  0  0  0  0  0  0  0  0  0  0
  6  5  1  0
 12 13  1  0
 12 11  1  0
  4  2  2  0
 13  8  1  0
  5  2  1  0
  5  7  1  0
  8  7  1  0
  8  9  1  0
 11 10  1  0
  2  1  1  6
  2  3  1  0
 10  9  1  0
  1 14  1  0
  3 15  1  0
  5 16  1  6
  6 17  1  0
  6 18  1  0
  7 19  1  0
  7 20  1  0
  8 21  1  1
  9 22  1  0
  9 23  1  0
 10 24  1  0
 10 25  1  0
 11 26  1  0
 11 27  1  0
 12 28  1  0
 12 29  1  0
 13 30  1  0
 13 31  1  0
M  END
