
     RDKit          3D

 12 12  0  0  0  0  0  0  0  0999 V2000
    1.6610    0.9697    0.0173 C   0  0  0  0  0  0  0  0  0  0  0  0
    1.7628   -1.2852   -0.0543 C   0  0  0  0  0  0  0  0  0  0  0  0
   -0.2759   -0.3385    0.0194 C   0  0  0  0  0  0  0  0  0  0  0  0
   -1.9977   -0.5285    0.0527 Cl  0  0  0  0  0  0  0  0  0  0  0  0
    0.2612    0.9538    0.0519 C   0  0  0  0  0  0  0  0  0  0  0  0
   -0.4837    2.0869    0.1598 N   0  0  0  0  0  0  0  0  0  0  0  0
    0.4457   -1.4266   -0.0329 N   0  0  0  0  0  0  0  0  0  0  0  0
    2.3984   -0.1261   -0.0314 N   0  0  0  0  0  0  0  0  0  0  0  0
    2.1827    1.9216    0.0335 H   0  0  0  0  0  0  0  0  0  0  0  0
    2.3571   -2.1894   -0.0957 H   0  0  0  0  0  0  0  0  0  0  0  0
   -0.0208    2.9508   -0.0730 H   0  0  0  0  0  0  0  0  0  0  0  0
   -1.4373    2.0512   -0.1619 H   0  0  0  0  0  0  0  0  0  0  0  0
  2  8  1  0
  2  7  2  0
  8  1  2  0
  7  3  1  0
  1  5  1  0
  3  5  2  0
  3  4  1  0
  5  6  1  0
  1  9  1  0
  2 10  1  0
  6 11  1  0
  6 12  1  0
M  END
