
     RDKit          3D

 66 71  0  0  0  0  0  0  0  0999 V2000
   -0.8388    1.2868   -0.3602 C   0  0  2  0  0  0  0  0  0  0  0  0
   -1.4388    0.5113    0.7112 N   0  0  0  0  0  0  0  0  0  0  0  0
   -0.6350   -0.1904    1.5469 C   0  0  0  0  0  0  0  0  0  0  0  0
   -1.0449   -0.7833    2.5225 O   0  0  0  0  0  0  0  0  0  0  0  0
    0.8559   -0.3893    1.1720 C   0  0  0  0  0  0  0  0  0  0  0  0
    1.4370   -1.3219    1.6804 O   0  0  0  0  0  0  0  0  0  0  0  0
    1.3790    0.4643    0.2723 N   0  0  0  0  0  0  0  0  0  0  0  0
    2.7669    0.3809   -0.1702 C   0  0  1  0  0  0  0  0  0  0  0  0
    3.7482    1.0764    0.7503 C   0  0  0  0  0  0  0  0  0  0  0  0
    4.9223    1.5735    0.1869 C   0  0  0  0  0  0  0  0  0  0  0  0
    5.8770    2.2030    0.9701 C   0  0  0  0  0  0  0  0  0  0  0  0
    5.6656    2.3545    2.3350 C   0  0  0  0  0  0  0  0  0  0  0  0
    4.4936    1.8756    2.9013 C   0  0  0  0  0  0  0  0  0  0  0  0
    3.5404    1.2391    2.1147 C   0  0  0  0  0  0  0  0  0  0  0  0
    3.1450   -1.0445   -0.5390 C   0  0  0  0  0  0  0  0  0  0  0  0
    4.1809   -1.7312    0.0787 C   0  0  0  0  0  0  0  0  0  0  0  0
    4.5072   -3.0210   -0.3210 C   0  0  0  0  0  0  0  0  0  0  0  0
    3.7980   -3.6392   -1.3409 C   0  0  0  0  0  0  0  0  0  0  0  0
    2.7623   -2.9554   -1.9661 C   0  0  0  0  0  0  0  0  0  0  0  0
    2.4443   -1.6655   -1.5695 C   0  0  0  0  0  0  0  0  0  0  0  0
    0.5843    1.6500    0.0258 C   0  0  1  0  0  0  0  0  0  0  0  0
    0.9858    2.5593   -1.1216 C   0  0  0  0  0  0  0  0  0  0  0  0
   -0.2226    3.3610   -1.3154 N   0  0  0  0  0  0  0  0  0  0  0  0
   -1.3600    2.6956   -0.6719 C   0  0  0  0  0  0  0  0  0  0  0  0
   -2.8737    0.2030    0.8305 C   0  0  1  0  0  0  0  0  0  0  0  0
   -3.7468    1.0628   -0.0552 C   0  0  0  0  0  0  0  0  0  0  0  0
   -4.3652    2.1845    0.4865 C   0  0  0  0  0  0  0  0  0  0  0  0
   -5.1591    3.0058   -0.3023 C   0  0  0  0  0  0  0  0  0  0  0  0
   -5.3456    2.7077   -1.6448 C   0  0  0  0  0  0  0  0  0  0  0  0
   -4.7458    1.5784   -2.1895 C   0  0  0  0  0  0  0  0  0  0  0  0
   -3.9579    0.7568   -1.3974 C   0  0  0  0  0  0  0  0  0  0  0  0
   -3.1543   -1.2675    0.5798 C   0  0  0  0  0  0  0  0  0  0  0  0
   -4.2400   -1.8547    1.2211 C   0  0  0  0  0  0  0  0  0  0  0  0
   -4.5767   -3.1784    0.9791 C   0  0  0  0  0  0  0  0  0  0  0  0
   -3.8270   -3.9356    0.0876 C   0  0  0  0  0  0  0  0  0  0  0  0
   -2.7411   -3.3574   -0.5546 C   0  0  0  0  0  0  0  0  0  0  0  0
   -2.4068   -2.0317   -0.3090 C   0  0  0  0  0  0  0  0  0  0  0  0
   -0.8193    0.7052   -1.2920 H   0  0  0  0  0  0  0  0  0  0  0  0
    2.7955    0.9336   -1.1120 H   0  0  0  0  0  0  0  0  0  0  0  0
    5.0913    1.4656   -0.8787 H   0  0  0  0  0  0  0  0  0  0  0  0
    6.7817    2.5832    0.5138 H   0  0  0  0  0  0  0  0  0  0  0  0
    6.4068    2.8486    2.9495 H   0  0  0  0  0  0  0  0  0  0  0  0
    4.3150    1.9948    3.9621 H   0  0  0  0  0  0  0  0  0  0  0  0
    2.6392    0.8755    2.5884 H   0  0  0  0  0  0  0  0  0  0  0  0
    4.7386   -1.2668    0.8816 H   0  0  0  0  0  0  0  0  0  0  0  0
    5.3156   -3.5457    0.1717 H   0  0  0  0  0  0  0  0  0  0  0  0
    4.0513   -4.6452   -1.6493 H   0  0  0  0  0  0  0  0  0  0  0  0
    2.2052   -3.4247   -2.7669 H   0  0  0  0  0  0  0  0  0  0  0  0
    1.6395   -1.1372   -2.0687 H   0  0  0  0  0  0  0  0  0  0  0  0
    0.5489    2.2606    0.9382 H   0  0  0  0  0  0  0  0  0  0  0  0
    1.8499    3.1792   -0.8722 H   0  0  0  0  0  0  0  0  0  0  0  0
    1.2429    1.9733   -2.0115 H   0  0  0  0  0  0  0  0  0  0  0  0
   -0.4014    3.4913   -2.2992 H   0  0  0  0  0  0  0  0  0  0  0  0
   -2.2229    2.7075   -1.3308 H   0  0  0  0  0  0  0  0  0  0  0  0
   -1.6421    3.2000    0.2575 H   0  0  0  0  0  0  0  0  0  0  0  0
   -3.1590    0.4195    1.8629 H   0  0  0  0  0  0  0  0  0  0  0  0
   -4.2163    2.4245    1.5327 H   0  0  0  0  0  0  0  0  0  0  0  0
   -5.6304    3.8774    0.1327 H   0  0  0  0  0  0  0  0  0  0  0  0
   -5.9633    3.3459   -2.2632 H   0  0  0  0  0  0  0  0  0  0  0  0
   -4.8948    1.3353   -3.2335 H   0  0  0  0  0  0  0  0  0  0  0  0
   -3.5019   -0.1224   -1.8351 H   0  0  0  0  0  0  0  0  0  0  0  0
   -4.8275   -1.2694    1.9192 H   0  0  0  0  0  0  0  0  0  0  0  0
   -5.4214   -3.6209    1.4910 H   0  0  0  0  0  0  0  0  0  0  0  0
   -4.0848   -4.9693   -0.1018 H   0  0  0  0  0  0  0  0  0  0  0  0
   -2.1495   -3.9385   -1.2501 H   0  0  0  0  0  0  0  0  0  0  0  0
   -1.5538   -1.6060   -0.8247 H   0  0  0  0  0  0  0  0  0  0  0  0
 35 34  1  0
 35 36  2  0
 34 33  2  0
 36 37  1  0
 17 18  1  0
 17 16  2  0
 33 32  1  0
 18 19  2  0
 37 32  2  0
 16 15  1  0
 32 25  1  0
 23 24  1  0
 23 22  1  0
 24  1  1  0
 19 20  1  0
 22 21  1  0
  1  2  1  0
  1 21  1  0
 15 20  2  0
 15  8  1  0
  2 25  1  0
  2  3  1  0
 25 26  1  0
 21  7  1  0
  7  5  1  0
  7  8  1  0
  5  3  1  0
  5  6  2  0
  8  9  1  0
  3  4  2  0
 26 27  2  0
 26 31  1  0
 27 28  1  0
 31 30  2  0
  9 10  2  0
  9 14  1  0
 28 29  2  0
 10 11  1  0
 14 13  2  0
 30 29  1  0
 11 12  2  0
 13 12  1  0
  1 38  1  6
  8 39  1  6
 10 40  1  0
 11 41  1  0
 12 42  1  0
 13 43  1  0
 14 44  1  0
 16 45  1  0
 17 46  1  0
 18 47  1  0
 19 48  1  0
 20 49  1  0
 21 50  1  1
 22 51  1  0
 22 52  1  0
 23 53  1  0
 24 54  1  0
 24 55  1  0
 25 56  1  1
 27 57  1  0
 28 58  1  0
 29 59  1  0
 30 60  1  0
 31 61  1  0
 33 62  1  0
 34 63  1  0
 35 64  1  0
 36 65  1  0
 37 66  1  0
M  END
