
     RDKit          3D

 18 18  0  0  0  0  0  0  0  0999 V2000
   -0.0553   -0.4668    0.2436 C   0  0  0  0  0  0  0  0  0  0  0  0
   -0.4285   -1.7799    0.5206 C   0  0  0  0  0  0  0  0  0  0  0  0
    1.3530   -0.0229    0.5099 C   0  0  0  0  0  0  0  0  0  0  0  0
    3.6200   -0.5375    0.0315 N   0  0  0  0  0  0  0  0  0  0  0  0
   -0.6178    2.0457   -0.6243 Cl  0  0  0  0  0  0  0  0  0  0  0  0
   -1.0306    0.4143   -0.2145 C   0  0  0  0  0  0  0  0  0  0  0  0
   -2.3415    0.0038   -0.3963 C   0  0  0  0  0  0  0  0  0  0  0  0
   -2.6950   -1.3057   -0.1037 C   0  0  0  0  0  0  0  0  0  0  0  0
   -1.7395   -2.1999    0.3552 C   0  0  0  0  0  0  0  0  0  0  0  0
    1.6032    0.8994    1.2626 O   0  0  0  0  0  0  0  0  0  0  0  0
    2.2667   -0.7611   -0.1420 N   0  0  0  0  0  0  0  0  0  0  0  0
    0.3165   -2.4770    0.8834 H   0  0  0  0  0  0  0  0  0  0  0  0
    4.0585   -1.3991    0.3299 H   0  0  0  0  0  0  0  0  0  0  0  0
    4.0291   -0.2779   -0.8568 H   0  0  0  0  0  0  0  0  0  0  0  0
   -3.0815    0.7015   -0.7645 H   0  0  0  0  0  0  0  0  0  0  0  0
   -3.7207   -1.6213   -0.2403 H   0  0  0  0  0  0  0  0  0  0  0  0
   -2.0116   -3.2210    0.5849 H   0  0  0  0  0  0  0  0  0  0  0  0
    1.9567   -1.4621   -0.8006 H   0  0  0  0  0  0  0  0  0  0  0  0
  7  8  2  0
  7  6  1  0
  5  6  1  0
  8  9  1  0
 11  4  1  0
 11  3  1  0
  6  1  2  0
  9  2  2  0
  1  2  1  0
  1  3  1  0
  3 10  2  0
  2 12  1  0
  4 13  1  0
  4 14  1  0
  7 15  1  0
  8 16  1  0
  9 17  1  0
 11 18  1  0
M  END
