
     RDKit          3D

 16 16  0  0  0  0  0  0  0  0999 V2000
    0.0071    0.3379    2.5158 C   0  0  0  0  0  0  0  0  0  0  0  0
   -1.3458    0.1418    2.7687 C   0  0  0  0  0  0  0  0  0  0  0  0
    0.4692    0.2791    1.2029 C   0  0  0  0  0  0  0  0  0  0  0  0
   -2.2304   -0.1000    1.7273 C   0  0  0  0  0  0  0  0  0  0  0  0
   -0.4240    0.0365    0.1710 C   0  0  0  0  0  0  0  0  0  0  0  0
   -1.7764   -0.1555    0.4166 C   0  0  0  0  0  0  0  0  0  0  0  0
    0.2858   -0.0391   -1.8105 I   0  0  0  0  0  0  0  0  0  0  0  0
    1.5463   -0.6996    3.9680 O   0  0  0  0  0  0  0  0  0  0  0  0
    0.9789    0.5522    3.6412 C   0  0  0  0  0  0  0  0  0  0  0  0
   -1.7129    0.1834    3.7872 H   0  0  0  0  0  0  0  0  0  0  0  0
    1.5221    0.4329    1.0027 H   0  0  0  0  0  0  0  0  0  0  0  0
   -3.2833   -0.2456    1.9300 H   0  0  0  0  0  0  0  0  0  0  0  0
   -2.4730   -0.3421   -0.3895 H   0  0  0  0  0  0  0  0  0  0  0  0
    2.1954   -0.5570    4.6641 H   0  0  0  0  0  0  0  0  0  0  0  0
    0.4518    0.9933    4.4950 H   0  0  0  0  0  0  0  0  0  0  0  0
    1.7464    1.2708    3.3310 H   0  0  0  0  0  0  0  0  0  0  0  0
  1  2  2  0
  1  3  1  0
  1  9  1  0
  2  4  1  0
  2 10  1  0
  3  5  2  0
  3 11  1  0
  4  6  2  0
  4 12  1  0
  5  6  1  0
  5  7  1  0
  6 13  1  0
  8  9  1  0
  8 14  1  0
  9 15  1  0
  9 16  1  0
M  END
