
     RDKit          3D

 24 25  0  0  0  0  0  0  0  0999 V2000
    4.9000    0.1736   -0.0139 O   0  0  0  0  0  0  0  0  0  0  0  0
    3.5712    0.0961    0.0263 C   0  0  0  0  0  0  0  0  0  0  0  0
    2.8215    1.2036   -0.3716 C   0  0  0  0  0  0  0  0  0  0  0  0
    3.6638    2.6113   -0.9052 Cl  0  0  0  0  0  0  0  0  0  0  0  0
    2.8585   -1.0281    0.4440 C   0  0  0  0  0  0  0  0  0  0  0  0
    3.7542   -2.4151    0.9658 Cl  0  0  0  0  0  0  0  0  0  0  0  0
    1.4767   -1.0551    0.4664 C   0  0  0  0  0  0  0  0  0  0  0  0
    0.7466    0.0583    0.0623 C   0  0  0  0  0  0  0  0  0  0  0  0
    1.4405    1.1910   -0.3583 C   0  0  0  0  0  0  0  0  0  0  0  0
   -0.7275    0.0415    0.0791 C   0  0  0  0  0  0  0  0  0  0  0  0
   -1.4482    1.1746    0.4506 C   0  0  0  0  0  0  0  0  0  0  0  0
   -1.4310   -1.1050   -0.2772 C   0  0  0  0  0  0  0  0  0  0  0  0
   -2.8130   -1.1093   -0.2567 C   0  0  0  0  0  0  0  0  0  0  0  0
   -3.6756   -2.5389   -0.7152 Cl  0  0  0  0  0  0  0  0  0  0  0  0
   -3.5523    0.0153    0.1105 C   0  0  0  0  0  0  0  0  0  0  0  0
   -4.8826    0.0643    0.1450 O   0  0  0  0  0  0  0  0  0  0  0  0
   -2.8292    1.1560    0.4613 C   0  0  0  0  0  0  0  0  0  0  0  0
   -3.7053    2.5659    0.9310 Cl  0  0  0  0  0  0  0  0  0  0  0  0
    5.3086   -0.6504    0.2833 H   0  0  0  0  0  0  0  0  0  0  0  0
    0.9732   -1.9442    0.8213 H   0  0  0  0  0  0  0  0  0  0  0  0
    0.9045    2.0666   -0.6995 H   0  0  0  0  0  0  0  0  0  0  0  0
   -0.9334    2.0761    0.7551 H   0  0  0  0  0  0  0  0  0  0  0  0
   -0.9062   -1.9967   -0.5934 H   0  0  0  0  0  0  0  0  0  0  0  0
   -5.2714   -0.7795   -0.1219 H   0  0  0  0  0  0  0  0  0  0  0  0
  1  2  1  0
  1 19  1  0
  2  3  2  0
  2  5  1  0
  3  4  1  0
  3  9  1  0
  5  6  1  0
  5  7  2  0
  7  8  1  0
  7 20  1  0
  8  9  2  0
  8 10  1  0
  9 21  1  0
 10 11  2  0
 10 12  1  0
 11 17  1  0
 11 22  1  0
 12 13  2  0
 12 23  1  0
 13 14  1  0
 13 15  1  0
 15 16  1  0
 15 17  2  0
 16 24  1  0
 17 18  1  0
M  END
