
     RDKit          3D

 35 36  0  0  0  0  0  0  0  0999 V2000
    0.9497    1.0868   -0.7164 N   0  0  0  0  0  0  0  0  0  0  0  0
    2.0561   -0.7740    0.2665 N   0  0  0  0  0  0  0  0  0  0  0  0
    2.1295    1.6644   -0.8706 C   0  0  0  0  0  0  0  0  0  0  0  0
    0.9614   -0.1279   -0.1539 C   0  0  0  0  0  0  0  0  0  0  0  0
   -1.5186   -0.2281   -0.2954 C   0  0  1  0  0  0  0  0  0  0  0  0
   -2.4437   -1.4035   -0.6014 C   0  0  0  0  0  0  0  0  0  0  0  0
   -3.9025   -1.0549   -0.8814 C   0  0  0  0  0  0  0  0  0  0  0  0
   -4.5754    0.9299    0.6316 C   0  0  0  0  0  0  0  0  0  0  0  0
   -3.1972    1.5631    0.4241 C   0  0  0  0  0  0  0  0  0  0  0  0
   -1.9985    0.7031    0.8255 C   0  0  0  0  0  0  0  0  0  0  0  0
    3.2231   -0.1732    0.0999 C   0  0  0  0  0  0  0  0  0  0  0  0
    3.3259    1.0852   -0.4825 C   0  0  0  0  0  0  0  0  0  0  0  0
   -4.6702   -0.5691    0.3487 C   0  0  0  0  0  0  0  0  0  0  0  0
   -0.2074   -0.7770   -0.0051 N   0  0  0  0  0  0  0  0  0  0  0  0
    5.5913   -0.2235    0.3793 O   0  0  0  0  0  0  0  0  0  0  0  0
    2.1246    2.6480   -1.3295 H   0  0  0  0  0  0  0  0  0  0  0  0
   -1.4274    0.3760   -1.2030 H   0  0  0  0  0  0  0  0  0  0  0  0
   -2.0293   -1.9348   -1.4626 H   0  0  0  0  0  0  0  0  0  0  0  0
   -2.4142   -2.1087    0.2381 H   0  0  0  0  0  0  0  0  0  0  0  0
   -3.9726   -0.3241   -1.6948 H   0  0  0  0  0  0  0  0  0  0  0  0
   -4.3829   -1.9618   -1.2558 H   0  0  0  0  0  0  0  0  0  0  0  0
   -4.9018    1.1034    1.6609 H   0  0  0  0  0  0  0  0  0  0  0  0
   -5.2943    1.4607    0.0012 H   0  0  0  0  0  0  0  0  0  0  0  0
    4.2492   -1.1979    1.6381 H   0  0  0  0  0  0  0  0  0  0  0  0
    4.4204   -1.9091    0.0399 H   0  0  0  0  0  0  0  0  0  0  0  0
   -3.0765    1.8515   -0.6250 H   0  0  0  0  0  0  0  0  0  0  0  0
   -3.1686    2.5012    0.9832 H   0  0  0  0  0  0  0  0  0  0  0  0
   -2.2138    0.1237    1.7296 H   0  0  0  0  0  0  0  0  0  0  0  0
   -1.1645    1.3632    1.0743 H   0  0  0  0  0  0  0  0  0  0  0  0
    4.2674    1.5902   -0.6284 H   0  0  0  0  0  0  0  0  0  0  0  0
   -5.7272   -0.8258    0.2426 H   0  0  0  0  0  0  0  0  0  0  0  0
   -4.3185   -1.1316    1.2196 H   0  0  0  0  0  0  0  0  0  0  0  0
   -0.1624   -1.6488    0.4990 H   0  0  0  0  0  0  0  0  0  0  0  0
    6.3345   -0.7876    0.6095 H   0  0  0  0  0  0  0  0  0  0  0  0
    4.4124   -0.9535    0.5799 C   0  0  0  0  0  0  0  0  0  0  0  0
 35 15  1  0
 35 11  1  0
 12 11  2  0
 12  3  1  0
 11  2  1  0
  3  1  2  0
  2  4  2  0
  1  4  1  0
  4 14  1  0
 14  5  1  0
 10  5  1  0
 10  9  1  0
  5  6  1  0
  9  8  1  0
  6  7  1  0
  8 13  1  0
  7 13  1  0
  3 16  1  0
  5 17  1  6
  6 18  1  0
  6 19  1  0
  7 20  1  0
  7 21  1  0
  8 22  1  0
  8 23  1  0
 35 24  1  0
 35 25  1  0
  9 26  1  0
  9 27  1  0
 10 28  1  0
 10 29  1  0
 12 30  1  0
 13 31  1  0
 13 32  1  0
 14 33  1  0
 15 34  1  0
M  END
