
     RDKit          3D

 42 41  0  0  0  0  0  0  0  0999 V2000
   -4.3511   -2.0019    0.9701 C   0  0  0  0  0  0  0  0  0  0  0  0
   -5.0011   -0.8086    0.3352 C   0  0  0  0  0  0  0  0  0  0  0  0
   -6.4526   -0.9984    0.0008 C   0  0  0  0  0  0  0  0  0  0  0  0
   -4.3773    0.3412    0.0661 C   0  0  0  0  0  0  0  0  0  0  0  0
   -2.9402    0.6848    0.3067 C   0  0  0  0  0  0  0  0  0  0  0  0
   -2.1417    0.7333   -1.0060 C   0  0  0  0  0  0  0  0  0  0  0  0
   -0.7129    1.1699   -0.8161 C   0  0  0  0  0  0  0  0  0  0  0  0
   -0.5131    2.6355   -0.5645 C   0  0  0  0  0  0  0  0  0  0  0  0
    0.2765    0.2747   -0.8692 C   0  0  0  0  0  0  0  0  0  0  0  0
    1.7400    0.5141   -0.6618 C   0  0  0  0  0  0  0  0  0  0  0  0
    2.1884    0.1115    0.7535 C   0  0  0  0  0  0  0  0  0  0  0  0
    3.6619    0.3539    0.9578 C   0  0  0  0  0  0  0  0  0  0  0  0
    4.0105    1.6970    1.5268 C   0  0  0  0  0  0  0  0  0  0  0  0
    4.6144   -0.5185    0.6206 C   0  0  0  0  0  0  0  0  0  0  0  0
    4.4111   -1.8752    0.0300 C   0  0  0  0  0  0  0  0  0  0  0  0
    4.9164   -1.8697   -1.2958 O   0  0  0  0  0  0  0  0  0  0  0  0
   -3.3154   -1.8321    1.2566 H   0  0  0  0  0  0  0  0  0  0  0  0
   -4.8989   -2.3083    1.8646 H   0  0  0  0  0  0  0  0  0  0  0  0
   -4.3713   -2.8562    0.2883 H   0  0  0  0  0  0  0  0  0  0  0  0
   -7.0288   -1.2560    0.8934 H   0  0  0  0  0  0  0  0  0  0  0  0
   -6.8942   -0.1042   -0.4386 H   0  0  0  0  0  0  0  0  0  0  0  0
   -6.5886   -1.8239   -0.7031 H   0  0  0  0  0  0  0  0  0  0  0  0
   -4.9568    1.1257   -0.4163 H   0  0  0  0  0  0  0  0  0  0  0  0
   -2.8889    1.6596    0.8016 H   0  0  0  0  0  0  0  0  0  0  0  0
   -2.4617   -0.0260    0.9827 H   0  0  0  0  0  0  0  0  0  0  0  0
   -2.1698   -0.2587   -1.4637 H   0  0  0  0  0  0  0  0  0  0  0  0
   -2.6451    1.4130   -1.7028 H   0  0  0  0  0  0  0  0  0  0  0  0
   -1.1281    2.9800    0.2697 H   0  0  0  0  0  0  0  0  0  0  0  0
    0.5178    2.8961   -0.3335 H   0  0  0  0  0  0  0  0  0  0  0  0
   -0.8221    3.2199   -1.4352 H   0  0  0  0  0  0  0  0  0  0  0  0
    0.0023   -0.7626   -1.0501 H   0  0  0  0  0  0  0  0  0  0  0  0
    2.3100   -0.0781   -1.3832 H   0  0  0  0  0  0  0  0  0  0  0  0
    2.0059    1.5571   -0.8476 H   0  0  0  0  0  0  0  0  0  0  0  0
    1.6178    0.6951    1.4809 H   0  0  0  0  0  0  0  0  0  0  0  0
    1.9229   -0.9329    0.9284 H   0  0  0  0  0  0  0  0  0  0  0  0
    3.6387    1.7953    2.5498 H   0  0  0  0  0  0  0  0  0  0  0  0
    5.0857    1.8734    1.5409 H   0  0  0  0  0  0  0  0  0  0  0  0
    3.5427    2.4999    0.9513 H   0  0  0  0  0  0  0  0  0  0  0  0
    5.6518   -0.2295    0.7713 H   0  0  0  0  0  0  0  0  0  0  0  0
    4.9435   -2.6150    0.6421 H   0  0  0  0  0  0  0  0  0  0  0  0
    3.3532   -2.1580    0.0475 H   0  0  0  0  0  0  0  0  0  0  0  0
    4.9220   -2.7789   -1.6097 H   0  0  0  0  0  0  0  0  0  0  0  0
  3  2  1  0
  1  2  1  0
  2  4  2  0
  4  5  1  0
  5  6  1  0
  6  7  1  0
  7  9  2  0
  7  8  1  0
  9 10  1  0
 11 10  1  0
 11 12  1  0
 13 12  1  0
 12 14  2  0
 14 15  1  0
 15 16  1  0
  1 17  1  0
  1 18  1  0
  1 19  1  0
  3 20  1  0
  3 21  1  0
  3 22  1  0
  4 23  1  0
  5 24  1  0
  5 25  1  0
  6 26  1  0
  6 27  1  0
  8 28  1  0
  8 29  1  0
  8 30  1  0
  9 31  1  0
 10 32  1  0
 10 33  1  0
 11 34  1  0
 11 35  1  0
 13 36  1  0
 13 37  1  0
 13 38  1  0
 14 39  1  0
 15 40  1  0
 15 41  1  0
 16 42  1  0
M  END
