
     RDKit          3D

 37 37  0  0  0  0  0  0  0  0999 V2000
    3.9230   -0.6356    1.2659 C   0  0  0  0  0  0  0  0  0  0  0  0
    2.6385   -0.1176    1.3507 C   0  0  0  0  0  0  0  0  0  0  0  0
    1.7406   -0.2463    0.2930 C   0  0  0  0  0  0  0  0  0  0  0  0
    2.1710   -0.9091   -0.8544 C   0  0  0  0  0  0  0  0  0  0  0  0
    3.4538   -1.4296   -0.9334 C   0  0  0  0  0  0  0  0  0  0  0  0
    4.3557   -1.2983    0.1205 C   0  0  0  0  0  0  0  0  0  0  0  0
    0.3204    2.0166   -0.2972 P   0  0  2  0  0  0  0  0  0  0  0  0
   -0.8966    2.8285   -0.0503 O   0  0  0  0  0  0  0  0  0  0  0  0
    0.6553    1.7265   -1.8413 O   0  0  0  0  0  0  0  0  0  0  0  0
    0.3508    0.3375    0.4074 C   0  0  1  0  0  0  0  0  0  0  0  0
   -0.7424   -0.5796   -0.1640 C   0  0  0  0  0  0  0  0  0  0  0  0
   -2.1452   -0.1843    0.2776 C   0  0  0  0  0  0  0  0  0  0  0  0
   -3.1824   -1.1818   -0.1915 C   0  0  0  0  0  0  0  0  0  0  0  0
   -4.4435   -0.9856    0.2558 N   0  0  0  0  0  0  0  0  0  0  0  0
   -5.6001   -1.7371   -0.1625 C   0  0  0  0  0  0  0  0  0  0  0  0
   -4.7270    0.1721    0.9316 O   0  0  0  0  0  0  0  0  0  0  0  0
   -2.9117   -2.1258   -0.9196 O   0  0  0  0  0  0  0  0  0  0  0  0
    5.7534   -1.8339    0.0140 C   0  0  0  0  0  0  0  0  0  0  0  0
    4.5961   -0.5263    2.1082 H   0  0  0  0  0  0  0  0  0  0  0  0
    2.3253    0.3800    2.2615 H   0  0  0  0  0  0  0  0  0  0  0  0
    1.5034   -1.0322   -1.6971 H   0  0  0  0  0  0  0  0  0  0  0  0
    3.7585   -1.9477   -1.8352 H   0  0  0  0  0  0  0  0  0  0  0  0
    2.4464    2.3470    0.1926 H   0  0  0  0  0  0  0  0  0  0  0  0
    0.4928    2.4770   -2.4294 H   0  0  0  0  0  0  0  0  0  0  0  0
    0.1439    0.4960    1.4725 H   0  0  0  0  0  0  0  0  0  0  0  0
   -0.6849   -0.6140   -1.2523 H   0  0  0  0  0  0  0  0  0  0  0  0
   -0.5247   -1.5900    0.1867 H   0  0  0  0  0  0  0  0  0  0  0  0
   -2.1799   -0.1041    1.3675 H   0  0  0  0  0  0  0  0  0  0  0  0
   -2.4100    0.8055   -0.0981 H   0  0  0  0  0  0  0  0  0  0  0  0
   -6.2334   -1.1462   -0.8267 H   0  0  0  0  0  0  0  0  0  0  0  0
   -5.2777   -2.6300   -0.6879 H   0  0  0  0  0  0  0  0  0  0  0  0
   -6.1846   -2.0392    0.7072 H   0  0  0  0  0  0  0  0  0  0  0  0
   -4.7598   -0.0606    1.8700 H   0  0  0  0  0  0  0  0  0  0  0  0
    6.4235   -1.0877   -0.4181 H   0  0  0  0  0  0  0  0  0  0  0  0
    6.1557   -2.1024    0.9903 H   0  0  0  0  0  0  0  0  0  0  0  0
    5.7971   -2.7156   -0.6249 H   0  0  0  0  0  0  0  0  0  0  0  0
    1.5938    2.7840    0.3197 O   0  0  0  0  0  0  0  0  0  0  0  0
 18  6  1  0
  6  5  1  0
  6  1  2  0
  5  4  2  0
  1  2  1  0
 15 14  1  0
  4  3  1  0
  2  3  2  0
  3 10  1  0
 14 16  1  0
 14 13  1  0
 12 13  1  0
 12 11  1  0
 10 11  1  0
 10  7  1  0
 13 17  2  0
  8  7  2  0
  7 37  1  1
  7  9  1  0
  1 19  1  0
  2 20  1  0
  4 21  1  0
  5 22  1  0
 37 23  1  0
  9 24  1  0
 10 25  1  1
 11 26  1  0
 11 27  1  0
 12 28  1  0
 12 29  1  0
 15 30  1  0
 15 31  1  0
 15 32  1  0
 16 33  1  0
 18 34  1  0
 18 35  1  0
 18 36  1  0
M  END
