
     RDKit          3D

 34 34  0  0  0  0  0  0  0  0999 V2000
   -1.6534   -2.5936    0.2444 C   0  0  0  0  0  0  0  0  0  0  0  0
   -1.6230   -1.0687    0.2401 C   0  0  2  0  0  0  0  0  0  0  0  0
   -2.8560   -0.5731   -0.5453 C   0  0  0  0  0  0  0  0  0  0  0  0
   -2.9490    0.9077   -0.5932 C   0  0  0  0  0  0  0  0  0  0  0  0
   -2.8556    1.7888   -1.6339 C   0  0  0  0  0  0  0  0  0  0  0  0
   -3.1813    2.9810    0.0961 C   0  0  0  0  0  0  0  0  0  0  0  0
    1.9244    0.0909   -0.1153 C   0  0  0  0  0  0  0  0  0  0  0  0
    3.2409   -0.1231    0.6412 C   0  0  1  0  0  0  0  0  0  0  0  0
    4.3545    0.6396   -0.0655 C   0  0  0  0  0  0  0  0  0  0  0  0
   -3.0024    3.0760   -1.1954 N   0  0  0  0  0  0  0  0  0  0  0  0
   -3.1586    1.6948    0.5046 N   0  0  0  0  0  0  0  0  0  0  0  0
   -0.4224   -0.5112   -0.3082 N   0  0  0  0  0  0  0  0  0  0  0  0
    3.0951    0.2293    2.0324 N   0  0  0  0  0  0  0  0  0  0  0  0
   -2.5136   -3.0752    1.1325 O   0  0  0  0  0  0  0  0  0  0  0  0
    4.6660    0.0999   -1.2386 O   0  0  0  0  0  0  0  0  0  0  0  0
    4.8923    1.6258    0.3723 O   0  0  0  0  0  0  0  0  0  0  0  0
   -1.0005   -3.2858   -0.4955 O   0  0  0  0  0  0  0  0  0  0  0  0
   -1.7163   -0.7322    1.2780 H   0  0  0  0  0  0  0  0  0  0  0  0
   -2.8012   -0.9421   -1.5722 H   0  0  0  0  0  0  0  0  0  0  0  0
   -3.7622   -0.9987   -0.1074 H   0  0  0  0  0  0  0  0  0  0  0  0
   -2.6897    1.5532   -2.6747 H   0  0  0  0  0  0  0  0  0  0  0  0
   -3.3347    3.8002    0.7815 H   0  0  0  0  0  0  0  0  0  0  0  0
    1.0813   -1.7635    0.5670 H   0  0  0  0  0  0  0  0  0  0  0  0
    0.5778   -0.3616    1.4974 H   0  0  0  0  0  0  0  0  0  0  0  0
    2.0579   -0.1990   -1.1604 H   0  0  0  0  0  0  0  0  0  0  0  0
    1.6641    1.1541   -0.1128 H   0  0  0  0  0  0  0  0  0  0  0  0
    3.4941   -1.1874    0.5842 H   0  0  0  0  0  0  0  0  0  0  0  0
   -3.2854    1.3799    1.4538 H   0  0  0  0  0  0  0  0  0  0  0  0
   -0.2809   -0.8366   -1.2573 H   0  0  0  0  0  0  0  0  0  0  0  0
    3.9495    0.0348    2.5383 H   0  0  0  0  0  0  0  0  0  0  0  0
    2.9272    1.2237    2.1260 H   0  0  0  0  0  0  0  0  0  0  0  0
   -2.5501   -4.0423    1.0753 H   0  0  0  0  0  0  0  0  0  0  0  0
    5.3575    0.6213   -1.6733 H   0  0  0  0  0  0  0  0  0  0  0  0
    0.7764   -0.7094    0.4820 C   0  0  0  0  0  0  0  0  0  0  0  0
 11  6  1  0
 11  4  1  0
  6 10  2  0
 17  1  2  0
  3  4  1  0
  3  2  1  0
  4  5  2  0
  1 14  1  0
  1  2  1  0
 10  5  1  0
  2 12  1  0
 12 34  1  0
 34  7  1  0
  7  8  1  0
 13  8  1  0
  8  9  1  0
  9 16  2  0
  9 15  1  0
  2 18  1  1
  3 19  1  0
  3 20  1  0
  5 21  1  0
  6 22  1  0
 34 23  1  0
 34 24  1  0
  7 25  1  0
  7 26  1  0
  8 27  1  1
 11 28  1  0
 12 29  1  0
 13 30  1  0
 13 31  1  0
 14 32  1  0
 15 33  1  0
M  END
