
     RDKit          3D

 50 52  0  0  0  0  0  0  0  0999 V2000
   -3.7369    0.3751   -0.7317 C   0  0  0  0  0  0  0  0  0  0  0  0
   -4.6414   -0.4756   -0.0878 C   0  0  0  0  0  0  0  0  0  0  0  0
   -7.0748   -1.8369    0.1868 C   0  0  0  0  0  0  0  0  0  0  0  0
   -4.3063   -1.0531    1.1296 C   0  0  0  0  0  0  0  0  0  0  0  0
   -2.1553    0.0522    1.0654 C   0  0  0  0  0  0  0  0  0  0  0  0
    1.1913   -0.9240   -0.7952 C   0  0  0  0  0  0  0  0  0  0  0  0
    3.5136   -0.1795   -1.4316 C   0  0  0  0  0  0  0  0  0  0  0  0
    7.0769   -0.8657   -0.3118 C   0  0  0  0  0  0  0  0  0  0  0  0
    7.5758    0.4189   -0.1310 C   0  0  0  0  0  0  0  0  0  0  0  0
    6.7590    1.5108   -0.3904 C   0  0  0  0  0  0  0  0  0  0  0  0
    2.5080    0.4496    0.8185 C   0  0  0  0  0  0  0  0  0  0  0  0
   -1.8282    2.0397   -1.9557 C   0  0  0  0  0  0  0  0  0  0  0  0
   -0.8598    0.4114    1.7319 C   0  0  0  0  0  0  0  0  0  0  0  0
    0.2584   -1.3110    0.3439 C   0  0  0  0  0  0  0  0  0  0  0  0
    2.5938   -0.6045   -0.2826 C   0  0  1  0  0  0  0  0  0  0  0  0
    4.9383    0.0363   -1.0027 C   0  0  0  0  0  0  0  0  0  0  0  0
    5.7714   -1.0519   -0.7441 C   0  0  0  0  0  0  0  0  0  0  0  0
    5.4526    1.3180   -0.8229 C   0  0  0  0  0  0  0  0  0  0  0  0
    1.5405    0.0297    1.9175 C   0  0  0  0  0  0  0  0  0  0  0  0
   -2.5026    0.6408   -0.1567 C   0  0  0  0  0  0  0  0  0  0  0  0
   -3.0672   -0.7735    1.6951 C   0  0  0  0  0  0  0  0  0  0  0  0
    0.2320   -0.2785    1.3644 N   0  0  0  0  0  0  0  0  0  0  0  0
   -0.8523    1.2878    2.5887 O   0  0  0  0  0  0  0  0  0  0  0  0
   -1.5704    1.4416   -0.6993 O   0  0  0  0  0  0  0  0  0  0  0  0
   -6.1685   -0.7423   -0.9189 S   0  0  0  0  0  0  0  0  0  0  0  0
   -4.0115    0.8216   -1.6789 H   0  0  0  0  0  0  0  0  0  0  0  0
   -7.2726   -1.3674    1.1484 H   0  0  0  0  0  0  0  0  0  0  0  0
   -8.0251   -2.0346   -0.3052 H   0  0  0  0  0  0  0  0  0  0  0  0
   -6.5574   -2.7830    0.3326 H   0  0  0  0  0  0  0  0  0  0  0  0
   -4.9841   -1.7139    1.6497 H   0  0  0  0  0  0  0  0  0  0  0  0
    1.2276   -1.7442   -1.5166 H   0  0  0  0  0  0  0  0  0  0  0  0
    0.7777   -0.0542   -1.3142 H   0  0  0  0  0  0  0  0  0  0  0  0
    3.4783   -0.9484   -2.2094 H   0  0  0  0  0  0  0  0  0  0  0  0
    3.1219    0.7372   -1.8832 H   0  0  0  0  0  0  0  0  0  0  0  0
    8.5939    0.5670    0.2055 H   0  0  0  0  0  0  0  0  0  0  0  0
    7.1377    2.5162   -0.2566 H   0  0  0  0  0  0  0  0  0  0  0  0
    3.4892    0.6225    1.2661 H   0  0  0  0  0  0  0  0  0  0  0  0
    2.1798    1.4043    0.3931 H   0  0  0  0  0  0  0  0  0  0  0  0
   -1.9920    1.2908   -2.7344 H   0  0  0  0  0  0  0  0  0  0  0  0
   -2.6929    2.7064   -1.9175 H   0  0  0  0  0  0  0  0  0  0  0  0
   -0.9449    2.6211   -2.2059 H   0  0  0  0  0  0  0  0  0  0  0  0
   -0.7464   -1.4996   -0.0253 H   0  0  0  0  0  0  0  0  0  0  0  0
    0.6065   -2.2425    0.8039 H   0  0  0  0  0  0  0  0  0  0  0  0
    3.0017   -1.5232    0.1612 H   0  0  0  0  0  0  0  0  0  0  0  0
    5.3952   -2.0585   -0.8881 H   0  0  0  0  0  0  0  0  0  0  0  0
    4.8242    2.1778   -1.0238 H   0  0  0  0  0  0  0  0  0  0  0  0
    1.9227   -0.8638    2.4232 H   0  0  0  0  0  0  0  0  0  0  0  0
    1.4391    0.8096    2.6669 H   0  0  0  0  0  0  0  0  0  0  0  0
   -2.8097   -1.2269    2.6444 H   0  0  0  0  0  0  0  0  0  0  0  0
    7.7074   -1.7245   -0.1193 H   0  0  0  0  0  0  0  0  0  0  0  0
 23 13  2  0
 13  5  1  0
 13 22  1  0
 21  4  2  0
 21  5  1  0
  4  2  1  0
  5 20  2  0
 14 22  1  0
 14  6  1  0
  2  1  2  0
  2 25  1  0
 20 24  1  0
 20  1  1  0
 22 19  1  0
 24 12  1  0
 25  3  1  0
  6 15  1  0
 19 11  1  0
 10 18  2  0
 10  9  1  0
 15 11  1  0
 15  7  1  0
 18 16  1  0
  9  8  2  0
 16  7  1  0
 16 17  2  0
  8 17  1  0
  1 26  1  0
  3 27  1  0
  3 28  1  0
  3 29  1  0
  4 30  1  0
  6 31  1  0
  6 32  1  0
  7 33  1  0
  7 34  1  0
  8 50  1  0
  9 35  1  0
 10 36  1  0
 11 37  1  0
 11 38  1  0
 12 39  1  0
 12 40  1  0
 12 41  1  0
 14 42  1  0
 14 43  1  0
 15 44  1  1
 17 45  1  0
 18 46  1  0
 19 47  1  0
 19 48  1  0
 21 49  1  0
M  END
