
     RDKit          3D

 25 24  0  0  0  0  0  0  0  0999 V2000
    2.6683   -1.2060   -0.7343 N   0  0  0  0  0  0  0  0  0  0  0  0
    2.1307    0.1269   -0.4664 C   0  0  2  0  0  0  0  0  0  0  0  0
   -2.3134   -0.6056   -0.2904 C   0  0  0  0  0  0  0  0  0  0  0  0
   -2.6390   -1.5371    0.4034 O   0  0  0  0  0  0  0  0  0  0  0  0
    3.0678    1.0170    0.3544 C   0  0  0  0  0  0  0  0  0  0  0  0
    0.7718    0.0141    0.1901 C   0  0  0  0  0  0  0  0  0  0  0  0
   -0.2688    0.6695   -0.3294 C   0  0  0  0  0  0  0  0  0  0  0  0
    0.6902   -0.8474    1.4135 C   0  0  0  0  0  0  0  0  0  0  0  0
   -1.6824    0.6696    0.2014 C   0  0  1  0  0  0  0  0  0  0  0  0
   -2.4663    1.8743   -0.3161 C   0  0  0  0  0  0  0  0  0  0  0  0
    3.5232   -1.1058   -1.2689 H   0  0  0  0  0  0  0  0  0  0  0  0
    1.9868    0.6067   -1.4387 H   0  0  0  0  0  0  0  0  0  0  0  0
   -0.1139    1.2396   -1.2422 H   0  0  0  0  0  0  0  0  0  0  0  0
   -1.6957    0.6614    1.2941 H   0  0  0  0  0  0  0  0  0  0  0  0
    2.9549   -1.6406    0.1363 H   0  0  0  0  0  0  0  0  0  0  0  0
    4.0173    1.1476   -0.1682 H   0  0  0  0  0  0  0  0  0  0  0  0
    2.6378    2.0057    0.5203 H   0  0  0  0  0  0  0  0  0  0  0  0
    3.2883    0.5767    1.3291 H   0  0  0  0  0  0  0  0  0  0  0  0
    1.5493   -0.6951    2.0694 H   0  0  0  0  0  0  0  0  0  0  0  0
   -0.2080   -0.6707    2.0014 H   0  0  0  0  0  0  0  0  0  0  0  0
    0.6909   -1.9043    1.1364 H   0  0  0  0  0  0  0  0  0  0  0  0
   -1.9993    2.7997    0.0199 H   0  0  0  0  0  0  0  0  0  0  0  0
   -2.4889    1.8909   -1.4073 H   0  0  0  0  0  0  0  0  0  0  0  0
   -3.4953    1.8656    0.0431 H   0  0  0  0  0  0  0  0  0  0  0  0
   -2.4413   -0.6455   -1.3892 H   0  0  0  0  0  0  0  0  0  0  0  0
  1  2  1  0
  1 11  1  0
  1 15  1  0
  2 12  1  6
  2  5  1  0
  2  6  1  0
  3  9  1  0
  3  4  2  0
  3 25  1  0
  5 16  1  0
  5 17  1  0
  5 18  1  0
  7  6  2  0
  6  8  1  0
 13  7  1  0
  7  9  1  0
  8 19  1  0
  8 20  1  0
  8 21  1  0
 10  9  1  0
  9 14  1  1
 10 22  1  0
 10 23  1  0
 10 24  1  0
M  END
