
     RDKit          3D

 28 30  0  0  0  0  0  0  0  0999 V2000
    3.1019   -0.3768    1.0163 C   0  0  0  0  0  0  0  0  0  0  0  0
    4.0681   -1.3727    1.0000 C   0  0  0  0  0  0  0  0  0  0  0  0
    4.1109   -2.2853   -0.0453 C   0  0  0  0  0  0  0  0  0  0  0  0
    3.1821   -2.2009   -1.0749 C   0  0  0  0  0  0  0  0  0  0  0  0
    2.2081   -1.2141   -1.0556 C   0  0  0  0  0  0  0  0  0  0  0  0
    2.1622   -0.2934   -0.0088 C   0  0  0  0  0  0  0  0  0  0  0  0
    1.1534    0.7837    0.0021 C   0  0  0  0  0  0  0  0  0  0  0  0
    1.5402    2.0776    0.0520 C   0  0  0  0  0  0  0  0  0  0  0  0
    0.5894    3.1638    0.0373 C   0  0  0  0  0  0  0  0  0  0  0  0
    0.8536    4.3392    0.0723 O   0  0  0  0  0  0  0  0  0  0  0  0
   -0.7262    2.8253   -0.0413 O   0  0  0  0  0  0  0  0  0  0  0  0
   -1.1588    1.5473   -0.0591 C   0  0  0  0  0  0  0  0  0  0  0  0
   -2.5279    1.3545   -0.0925 C   0  0  0  0  0  0  0  0  0  0  0  0
   -0.2578    0.4787   -0.0337 C   0  0  0  0  0  0  0  0  0  0  0  0
   -0.7864   -0.8144   -0.0064 C   0  0  0  0  0  0  0  0  0  0  0  0
   -2.1451   -1.0162   -0.0352 C   0  0  0  0  0  0  0  0  0  0  0  0
   -2.7856   -2.6239    0.0007 Cl  0  0  0  0  0  0  0  0  0  0  0  0
   -3.0409    0.0650   -0.0865 C   0  0  0  0  0  0  0  0  0  0  0  0
   -4.3629   -0.0817   -0.1206 O   0  0  0  0  0  0  0  0  0  0  0  0
    3.0679    0.3293    1.8363 H   0  0  0  0  0  0  0  0  0  0  0  0
    4.7870   -1.4349    1.8060 H   0  0  0  0  0  0  0  0  0  0  0  0
    4.8658   -3.0602   -0.0585 H   0  0  0  0  0  0  0  0  0  0  0  0
    3.2158   -2.9033   -1.8970 H   0  0  0  0  0  0  0  0  0  0  0  0
    1.4953   -1.1482   -1.8683 H   0  0  0  0  0  0  0  0  0  0  0  0
    2.5862    2.3517    0.0723 H   0  0  0  0  0  0  0  0  0  0  0  0
   -3.2014    2.2014   -0.1166 H   0  0  0  0  0  0  0  0  0  0  0  0
   -0.1254   -1.6681    0.0478 H   0  0  0  0  0  0  0  0  0  0  0  0
   -4.6198   -1.0138   -0.1131 H   0  0  0  0  0  0  0  0  0  0  0  0
  1  2  2  0
  1  6  1  0
  2  3  1  0
  3  4  2  0
  4  5  1  0
  5  6  2  0
  6  7  1  0
  7  8  2  0
  7 14  1  0
  8  9  1  0
  9 10  2  0
  9 11  1  0
 11 12  1  0
 12 13  2  0
 12 14  1  0
 13 18  1  0
 14 15  2  0
 15 16  1  0
 16 17  1  0
 16 18  2  0
 18 19  1  0
  1 20  1  0
  2 21  1  0
  3 22  1  0
  4 23  1  0
  5 24  1  0
  8 25  1  0
 13 26  1  0
 15 27  1  0
 19 28  1  0
M  END
