
     RDKit          3D

 53 55  0  0  0  0  0  0  0  0999 V2000
   -0.4198    3.4320   -0.3575 C   0  0  0  0  0  0  0  0  0  0  0  0
   -1.3162    2.3761   -0.1020 O   0  0  0  0  0  0  0  0  0  0  0  0
    0.9445    3.0319    0.1578 C   0  0  0  0  0  0  0  0  0  0  0  0
    1.4604    1.8817   -0.5579 N   0  0  0  0  0  0  0  0  0  0  0  0
    2.7223    1.4096   -0.0286 C   0  0  0  0  0  0  0  0  0  0  0  0
    3.2508    0.2344   -0.8489 C   0  0  0  0  0  0  0  0  0  0  0  0
   -3.9307    2.6846    1.2167 N   0  0  0  0  0  0  0  0  0  0  0  0
    4.5566   -0.2688   -0.3034 C   0  0  0  0  0  0  0  0  0  0  0  0
    4.5831   -1.3283    0.6000 C   0  0  0  0  0  0  0  0  0  0  0  0
    5.7928   -1.7394    1.1259 C   0  0  0  0  0  0  0  0  0  0  0  0
    5.8007   -2.7645    1.9960 F   0  0  0  0  0  0  0  0  0  0  0  0
    6.9908   -1.1388    0.7933 C   0  0  0  0  0  0  0  0  0  0  0  0
    6.9587   -0.0822   -0.1077 C   0  0  0  0  0  0  0  0  0  0  0  0
    5.7570    0.3485   -0.6512 C   0  0  0  0  0  0  0  0  0  0  0  0
   -3.3450   -1.9546    0.4346 N   0  0  0  0  0  0  0  0  0  0  0  0
   -3.5018    3.4331    0.0394 C   0  0  0  0  0  0  0  0  0  0  0  0
   -3.3136   -1.3310   -0.7425 C   0  0  0  0  0  0  0  0  0  0  0  0
   -2.5732    2.4937   -0.7271 C   0  0  2  0  0  0  0  0  0  0  0  0
   -4.0321   -1.7795   -1.8424 C   0  0  0  0  0  0  0  0  0  0  0  0
   -3.3203    1.1698   -0.5783 C   0  0  2  0  0  0  0  0  0  0  0  0
   -4.8115   -2.9226   -1.6951 C   0  0  0  0  0  0  0  0  0  0  0  0
   -3.9506    1.2658    0.8301 C   0  0  0  0  0  0  0  0  0  0  0  0
   -4.8546   -3.5725   -0.4809 C   0  0  0  0  0  0  0  0  0  0  0  0
   -4.0957   -3.0451    0.5768 C   0  0  0  0  0  0  0  0  0  0  0  0
   -4.1318   -3.6135    1.8175 N   0  0  0  0  0  0  0  0  0  0  0  0
   -2.4808   -0.0826   -0.8258 C   0  0  0  0  0  0  0  0  0  0  0  0
   -0.3650    3.6384   -1.4353 H   0  0  0  0  0  0  0  0  0  0  0  0
   -0.7352    4.3605    0.1357 H   0  0  0  0  0  0  0  0  0  0  0  0
    1.6238    3.8760    0.0086 H   0  0  0  0  0  0  0  0  0  0  0  0
    0.8879    2.8705    1.2466 H   0  0  0  0  0  0  0  0  0  0  0  0
    0.7802    1.1330   -0.4966 H   0  0  0  0  0  0  0  0  0  0  0  0
    3.4463    2.2293   -0.0709 H   0  0  0  0  0  0  0  0  0  0  0  0
    2.6576    1.1125    1.0304 H   0  0  0  0  0  0  0  0  0  0  0  0
    2.5108   -0.5706   -0.8460 H   0  0  0  0  0  0  0  0  0  0  0  0
    3.3723    0.5527   -1.8867 H   0  0  0  0  0  0  0  0  0  0  0  0
   -3.2369    2.8121    1.9404 H   0  0  0  0  0  0  0  0  0  0  0  0
    3.6683   -1.8313    0.8906 H   0  0  0  0  0  0  0  0  0  0  0  0
    7.9216   -1.4845    1.2231 H   0  0  0  0  0  0  0  0  0  0  0  0
    7.8835    0.4059   -0.3858 H   0  0  0  0  0  0  0  0  0  0  0  0
    5.7511    1.1719   -1.3548 H   0  0  0  0  0  0  0  0  0  0  0  0
   -4.3622    3.6806   -0.5915 H   0  0  0  0  0  0  0  0  0  0  0  0
   -3.0378    4.3778    0.3273 H   0  0  0  0  0  0  0  0  0  0  0  0
   -2.4518    2.7818   -1.7806 H   0  0  0  0  0  0  0  0  0  0  0  0
   -3.9783   -1.2553   -2.7873 H   0  0  0  0  0  0  0  0  0  0  0  0
   -4.1251    1.1895   -1.3212 H   0  0  0  0  0  0  0  0  0  0  0  0
   -5.3827   -3.3060   -2.5312 H   0  0  0  0  0  0  0  0  0  0  0  0
   -3.3991    0.6646    1.5555 H   0  0  0  0  0  0  0  0  0  0  0  0
   -4.9731    0.8802    0.8154 H   0  0  0  0  0  0  0  0  0  0  0  0
   -5.4508   -4.4647   -0.3405 H   0  0  0  0  0  0  0  0  0  0  0  0
   -3.3865   -3.3595    2.4449 H   0  0  0  0  0  0  0  0  0  0  0  0
   -4.4130   -4.5774    1.8804 H   0  0  0  0  0  0  0  0  0  0  0  0
   -1.6741   -0.1447   -0.0944 H   0  0  0  0  0  0  0  0  0  0  0  0
   -2.0225   -0.0165   -1.8163 H   0  0  0  0  0  0  0  0  0  0  0  0
  3  1  1  0
  2  1  1  0
  1 27  1  0
  1 28  1  0
  2 18  1  0
  4  3  1  0
  3 29  1  0
  3 30  1  0
  5  4  1  0
  4 31  1  0
  5  6  1  0
  5 32  1  0
  5 33  1  0
  8  6  1  0
  6 34  1  0
  6 35  1  0
 16  7  1  0
  7 22  1  0
  7 36  1  0
  9  8  2  0
 14  8  1  0
 10  9  1  0
  9 37  1  0
 11 10  1  0
 12 10  2  0
 12 13  1  0
 12 38  1  0
 13 14  2  0
 13 39  1  0
 14 40  1  0
 15 17  2  0
 15 24  1  0
 16 18  1  0
 16 41  1  0
 16 42  1  0
 26 17  1  0
 17 19  1  0
 18 20  1  0
 18 43  1  6
 19 21  2  0
 19 44  1  0
 26 20  1  0
 22 20  1  0
 20 45  1  6
 23 21  1  0
 21 46  1  0
 22 47  1  0
 22 48  1  0
 24 23  2  0
 23 49  1  0
 25 24  1  0
 25 50  1  0
 25 51  1  0
 26 52  1  0
 26 53  1  0
M  END
