
     RDKit          3D

122129  0  0  0  0  0  0  0  0999 V2000
    9.6674    1.8624   -3.1068 C   0  0  0  0  0  0  0  0  0  0  0  0
   11.2452    2.6786   -1.7752 C   0  0  0  0  0  0  0  0  0  0  0  0
   12.0118    2.0533    1.0071 C   0  0  0  0  0  0  0  0  0  0  0  0
   12.9709    3.5279    2.6766 C   0  0  0  0  0  0  0  0  0  0  0  0
   13.2965    1.6721    0.6687 C   0  0  0  0  0  0  0  0  0  0  0  0
   15.6963   -0.8484    1.7146 C   0  0  0  0  0  0  0  0  0  0  0  0
   16.3564   -1.9262    2.5657 C   0  0  0  0  0  0  0  0  0  0  0  0
    2.2841   -3.5221   -3.2549 C   0  0  0  0  0  0  0  0  0  0  0  0
    0.2114   -5.6482   -1.1196 C   0  0  0  0  0  0  0  0  0  0  0  0
   -0.9601   -4.0860    1.9708 C   0  0  0  0  0  0  0  0  0  0  0  0
    8.9331    1.6577   -4.1817 N   0  0  0  0  0  0  0  0  0  0  0  0
   10.7219    2.7360   -3.0111 N   0  0  0  0  0  0  0  0  0  0  0  0
   -8.2306    2.5074    3.3473 N   0  0  0  0  0  0  0  0  0  0  0  0
  -10.2779    3.3391    2.4277 N   0  0  0  0  0  0  0  0  0  0  0  0
  -15.9833    1.7209    0.1144 N   0  0  0  0  0  0  0  0  0  0  0  0
    4.4699   -2.7661   -2.6957 C   0  0  0  0  0  0  0  0  0  0  0  0
    4.3550   -1.6150   -3.4709 C   0  0  0  0  0  0  0  0  0  0  0  0
    5.4026   -0.7042   -3.5138 C   0  0  0  0  0  0  0  0  0  0  0  0
    6.5835   -0.9095   -2.8057 C   0  0  0  0  0  0  0  0  0  0  0  0
    6.6827   -2.0747   -2.0388 C   0  0  0  0  0  0  0  0  0  0  0  0
    5.6484   -2.9870   -1.9792 C   0  0  0  0  0  0  0  0  0  0  0  0
    7.6904    0.0629   -2.8541 C   0  0  0  0  0  0  0  0  0  0  0  0
    8.4888    0.3044   -1.7401 C   0  0  0  0  0  0  0  0  0  0  0  0
    9.5189    1.2287   -1.8607 C   0  0  0  0  0  0  0  0  0  0  0  0
    7.9670    0.7647   -4.0421 C   0  0  0  0  0  0  0  0  0  0  0  0
   10.5466    1.7629   -1.0100 C   0  0  0  0  0  0  0  0  0  0  0  0
   10.8063    1.4240    0.3628 C   0  0  0  0  0  0  0  0  0  0  0  0
   11.8827    2.9781    2.0306 C   0  0  0  0  0  0  0  0  0  0  0  0
   14.2420    3.1358    2.2905 C   0  0  0  0  0  0  0  0  0  0  0  0
   14.4267    2.1944    1.2849 C   0  0  0  0  0  0  0  0  0  0  0  0
   15.5971   -3.2405    2.4437 C   0  0  0  0  0  0  0  0  0  0  0  0
    1.3737   -4.6677   -2.9006 C   0  0  0  0  0  0  0  0  0  0  0  0
   -0.0560   -5.5177    0.3570 C   0  0  0  0  0  0  0  0  0  0  0  0
   -1.7964   -2.8478    2.1528 C   0  0  0  0  0  0  0  0  0  0  0  0
   -4.0533   -2.1703    1.8339 C   0  0  0  0  0  0  0  0  0  0  0  0
   -3.8089   -0.8765    2.2873 C   0  0  0  0  0  0  0  0  0  0  0  0
   -4.8529    0.0355    2.3698 C   0  0  0  0  0  0  0  0  0  0  0  0
   -6.1553   -0.3057    2.0163 C   0  0  0  0  0  0  0  0  0  0  0  0
   -6.3808   -1.6089    1.5625 C   0  0  0  0  0  0  0  0  0  0  0  0
   -5.3534   -2.5262    1.4679 C   0  0  0  0  0  0  0  0  0  0  0  0
   -7.2591    0.6659    2.1164 C   0  0  0  0  0  0  0  0  0  0  0  0
   -8.2960    0.6829    1.1886 C   0  0  0  0  0  0  0  0  0  0  0  0
   -9.3076    1.6209    1.3547 C   0  0  0  0  0  0  0  0  0  0  0  0
   -9.1957    2.4951    2.4502 C   0  0  0  0  0  0  0  0  0  0  0  0
   -7.2872    1.5968    3.1714 C   0  0  0  0  0  0  0  0  0  0  0  0
  -10.5219    1.9793    0.6745 C   0  0  0  0  0  0  0  0  0  0  0  0
  -11.0646    3.0359    1.3823 C   0  0  0  0  0  0  0  0  0  0  0  0
  -11.0774    1.3684   -0.5030 C   0  0  0  0  0  0  0  0  0  0  0  0
  -12.4238    1.8634   -0.9576 C   0  0  0  0  0  0  0  0  0  0  0  0
  -12.5765    2.5509   -2.1506 C   0  0  0  0  0  0  0  0  0  0  0  0
  -13.8060    2.9741   -2.6126 C   0  0  0  0  0  0  0  0  0  0  0  0
  -14.9325    2.6970   -1.8556 C   0  0  0  0  0  0  0  0  0  0  0  0
  -14.8377    1.9917   -0.6618 C   0  0  0  0  0  0  0  0  0  0  0  0
  -13.5761    1.5847   -0.2466 C   0  0  0  0  0  0  0  0  0  0  0  0
  -16.0986   -1.0421   -0.0420 C   0  0  0  0  0  0  0  0  0  0  0  0
  -16.9620   -2.2675   -0.3147 C   0  0  0  0  0  0  0  0  0  0  0  0
  -16.1543   -3.5437   -0.1219 C   0  0  0  0  0  0  0  0  0  0  0  0
   10.1047    0.6732    1.0132 O   0  0  0  0  0  0  0  0  0  0  0  0
   16.4884    1.1804    3.2041 O   0  0  0  0  0  0  0  0  0  0  0  0
   17.8662    0.5721    1.1913 O   0  0  0  0  0  0  0  0  0  0  0  0
    1.0663   -4.6119   -1.5332 O   0  0  0  0  0  0  0  0  0  0  0  0
   -0.7994   -4.3497    0.6021 O   0  0  0  0  0  0  0  0  0  0  0  0
   -3.1162   -3.1285    1.7206 O   0  0  0  0  0  0  0  0  0  0  0  0
  -10.5158    0.4929   -1.1330 O   0  0  0  0  0  0  0  0  0  0  0  0
  -18.1111    0.5399    0.6238 O   0  0  0  0  0  0  0  0  0  0  0  0
  -17.2558    0.6103   -1.7411 O   0  0  0  0  0  0  0  0  0  0  0  0
   13.4552    0.7542   -0.2896 F   0  0  0  0  0  0  0  0  0  0  0  0
   10.6523    3.3617    2.3783 F   0  0  0  0  0  0  0  0  0  0  0  0
  -13.4678    0.8901    0.8896 F   0  0  0  0  0  0  0  0  0  0  0  0
  -11.4793    2.8312   -2.8573 F   0  0  0  0  0  0  0  0  0  0  0  0
   16.5692    0.7082    1.8321 S   0  0  1  0  0  0  0  0  0  0  0  0
  -17.0047    0.4758   -0.3160 S   0  0  1  0  0  0  0  0  0  0  0  0
   12.0809    3.3052   -1.5054 H   0  0  0  0  0  0  0  0  0  0  0  0
   12.8320    4.2616    3.4583 H   0  0  0  0  0  0  0  0  0  0  0  0
   15.6850   -1.1201    0.6577 H   0  0  0  0  0  0  0  0  0  0  0  0
   14.6695   -0.6667    2.0391 H   0  0  0  0  0  0  0  0  0  0  0  0
   17.3908   -2.0666    2.2477 H   0  0  0  0  0  0  0  0  0  0  0  0
   16.3785   -1.6075    3.6089 H   0  0  0  0  0  0  0  0  0  0  0  0
    2.4306   -3.5107   -4.3402 H   0  0  0  0  0  0  0  0  0  0  0  0
    1.8230   -2.5703   -2.9685 H   0  0  0  0  0  0  0  0  0  0  0  0
    0.6648   -6.6324   -1.3007 H   0  0  0  0  0  0  0  0  0  0  0  0
   -0.7347   -5.6268   -1.6795 H   0  0  0  0  0  0  0  0  0  0  0  0
    0.0098   -3.9114    2.4567 H   0  0  0  0  0  0  0  0  0  0  0  0
   -1.4281   -4.9332    2.4917 H   0  0  0  0  0  0  0  0  0  0  0  0
   15.8680    1.6499   -0.0998 H   0  0  0  0  0  0  0  0  0  0  0  0
  -10.4567    4.0740    3.0953 H   0  0  0  0  0  0  0  0  0  0  0  0
  -15.8788    1.8115    1.1196 H   0  0  0  0  0  0  0  0  0  0  0  0
    3.4610   -1.4010   -4.0408 H   0  0  0  0  0  0  0  0  0  0  0  0
    5.2734    0.1942   -4.1047 H   0  0  0  0  0  0  0  0  0  0  0  0
    7.5915   -2.2852   -1.4882 H   0  0  0  0  0  0  0  0  0  0  0  0
    5.7487   -3.8850   -1.3824 H   0  0  0  0  0  0  0  0  0  0  0  0
    8.3000   -0.2013   -0.8028 H   0  0  0  0  0  0  0  0  0  0  0  0
    7.3725    0.5688   -4.9275 H   0  0  0  0  0  0  0  0  0  0  0  0
   15.1063    3.5727    2.7691 H   0  0  0  0  0  0  0  0  0  0  0  0
   14.5628   -3.1319    2.7722 H   0  0  0  0  0  0  0  0  0  0  0  0
   15.5860   -3.5975    1.4132 H   0  0  0  0  0  0  0  0  0  0  0  0
   16.0628   -4.0103    3.0580 H   0  0  0  0  0  0  0  0  0  0  0  0
    0.4692   -4.5817   -3.5183 H   0  0  0  0  0  0  0  0  0  0  0  0
    1.8491   -5.6232   -3.1644 H   0  0  0  0  0  0  0  0  0  0  0  0
   -0.6006   -6.4110    0.6925 H   0  0  0  0  0  0  0  0  0  0  0  0
    0.8963   -5.5007    0.9061 H   0  0  0  0  0  0  0  0  0  0  0  0
   -1.7855   -2.5703    3.2122 H   0  0  0  0  0  0  0  0  0  0  0  0
   -1.3675   -2.0155    1.5837 H   0  0  0  0  0  0  0  0  0  0  0  0
   -2.8174   -0.5520    2.5712 H   0  0  0  0  0  0  0  0  0  0  0  0
   -4.6269    1.0407    2.7032 H   0  0  0  0  0  0  0  0  0  0  0  0
   -7.3823   -1.9250    1.2980 H   0  0  0  0  0  0  0  0  0  0  0  0
   -5.5542   -3.5328    1.1228 H   0  0  0  0  0  0  0  0  0  0  0  0
   -8.3054   -0.0017    0.3517 H   0  0  0  0  0  0  0  0  0  0  0  0
   -6.5012    1.5803    3.9178 H   0  0  0  0  0  0  0  0  0  0  0  0
  -11.9635    3.6013    1.1927 H   0  0  0  0  0  0  0  0  0  0  0  0
  -13.8817    3.5272   -3.5387 H   0  0  0  0  0  0  0  0  0  0  0  0
  -15.9009    3.0412   -2.1887 H   0  0  0  0  0  0  0  0  0  0  0  0
  -15.7509   -1.0208    0.9920 H   0  0  0  0  0  0  0  0  0  0  0  0
  -15.2312   -1.0154   -0.7048 H   0  0  0  0  0  0  0  0  0  0  0  0
  -17.8199   -2.2685    0.3595 H   0  0  0  0  0  0  0  0  0  0  0  0
  -17.3517   -2.2274   -1.3332 H   0  0  0  0  0  0  0  0  0  0  0  0
  -15.3170   -3.5929   -0.8190 H   0  0  0  0  0  0  0  0  0  0  0  0
  -15.7520   -3.6090    0.8896 H   0  0  0  0  0  0  0  0  0  0  0  0
  -16.7796   -4.4202   -0.2889 H   0  0  0  0  0  0  0  0  0  0  0  0
   11.0493    3.3363   -3.7528 H   0  0  0  0  0  0  0  0  0  0  0  0
    3.5158   -3.7065   -2.5797 O   0  0  0  0  0  0  0  0  0  0  0  0
   15.7215    1.7959    0.8935 N   0  0  0  0  0  0  0  0  0  0  0  0
 33  9  1  0
 33 62  1  0
  9 61  1  0
 32 61  1  0
 32  8  1  0
 62 10  1  0
 34 63  1  0
 34 10  1  0
121  8  1  0
121 16  1  0
 63 35  1  0
 36 35  2  0
 36 37  1  0
 17 16  2  0
 17 18  1  0
 16 21  1  0
 35 40  1  0
 37 38  2  0
 18 19  2  0
 64 48  2  0
 69 54  1  0
 66 72  2  0
 65 72  2  0
 21 20  2  0
 40 39  2  0
 58 27  2  0
 15 53  1  0
 72 15  1  1
 54 53  2  0
 54 49  1  0
 38 39  1  0
 38 41  1  0
 48 49  1  0
 48 46  1  0
 67  5  1  0
 53 52  1  0
 72 55  1  0
 19 20  1  0
 19 22  1  0
 49 50  2  0
 42 41  2  0
 42 43  1  0
 60 71  2  0
 52 51  2  0
 23 22  1  0
 23 24  2  0
 50 51  1  0
 50 70  1  0
122 30  1  0
 71122  1  6
 27  3  1  0
 27 26  1  0
  5 30  2  0
  5  3  1  0
 41 45  1  0
 59 71  2  0
 22 25  2  0
 46 43  1  0
 46 47  2  0
 30 29  1  0
  3 28  2  0
 43 44  2  0
 71  6  1  0
 24 26  1  0
 24  1  1  0
 55 56  1  0
 26  2  2  0
 29  4  2  0
 28 68  1  0
 28  4  1  0
 45 13  2  0
 25 11  1  0
 47 14  1  0
 44 13  1  0
 44 14  1  0
 56 57  1  0
  1 11  2  0
  1 12  1  0
  6  7  1  0
  2 12  1  0
  7 31  1  0
  2 73  1  0
  4 74  1  0
  6 75  1  0
  6 76  1  0
  7 77  1  0
  7 78  1  0
  8 79  1  0
  8 80  1  0
  9 81  1  0
  9 82  1  0
 10 83  1  0
 10 84  1  0
122 85  1  0
 14 86  1  0
 15 87  1  0
 17 88  1  0
 18 89  1  0
 20 90  1  0
 21 91  1  0
 23 92  1  0
 25 93  1  0
 29 94  1  0
 31 95  1  0
 31 96  1  0
 31 97  1  0
 32 98  1  0
 32 99  1  0
 33100  1  0
 33101  1  0
 34102  1  0
 34103  1  0
 36104  1  0
 37105  1  0
 39106  1  0
 40107  1  0
 42108  1  0
 45109  1  0
 47110  1  0
 51111  1  0
 52112  1  0
 55113  1  0
 55114  1  0
 56115  1  0
 56116  1  0
 57117  1  0
 57118  1  0
 57119  1  0
 12120  1  0
M  END
