
     RDKit          3D

 59 59  0  0  0  0  0  0  0  0999 V2000
   -2.9355   -1.0110   -0.4676 N   0  0  0  0  0  0  0  0  0  0  0  0
   -1.7799   -1.3453    0.1445 C   0  0  0  0  0  0  0  0  0  0  0  0
   -1.7648   -1.9317    1.2160 O   0  0  0  0  0  0  0  0  0  0  0  0
   -0.5263   -0.9557   -0.6046 C   0  0  0  0  0  0  0  0  0  0  0  0
    0.6969   -0.7928    0.2840 C   0  0  0  0  0  0  0  0  0  0  0  0
    1.9575   -0.5109   -0.5237 C   0  0  0  0  0  0  0  0  0  0  0  0
    3.1976   -0.3579    0.3473 C   0  0  0  0  0  0  0  0  0  0  0  0
    4.4711   -0.1210   -0.4544 C   0  0  0  0  0  0  0  0  0  0  0  0
    5.7126    0.0121    0.4186 C   0  0  0  0  0  0  0  0  0  0  0  0
    6.9926    0.2277   -0.3788 C   0  0  0  0  0  0  0  0  0  0  0  0
    8.2347    0.3348    0.4971 C   0  0  0  0  0  0  0  0  0  0  0  0
    9.5177    0.5428   -0.2975 C   0  0  0  0  0  0  0  0  0  0  0  0
   10.7630    0.6217    0.5775 C   0  0  0  0  0  0  0  0  0  0  0  0
   12.0374    0.8379   -0.2265 C   0  0  0  0  0  0  0  0  0  0  0  0
   -4.2040   -1.4762    0.0125 C   0  0  1  0  0  0  0  0  0  0  0  0
   -5.3489   -0.7158   -0.6776 C   0  0  0  0  0  0  0  0  0  0  0  0
   -5.2987    0.7578   -0.3855 C   0  0  0  0  0  0  0  0  0  0  0  0
   -5.7313    1.2552    0.8403 C   0  0  0  0  0  0  0  0  0  0  0  0
   -5.6702    2.6084    1.1340 C   0  0  0  0  0  0  0  0  0  0  0  0
   -5.1682    3.5035    0.1919 C   0  0  0  0  0  0  0  0  0  0  0  0
   -4.7339    3.0234   -1.0406 C   0  0  0  0  0  0  0  0  0  0  0  0
   -4.8018    1.6664   -1.3152 C   0  0  0  0  0  0  0  0  0  0  0  0
   -5.0870    4.8305    0.4180 O   0  0  0  0  0  0  0  0  0  0  0  0
   -4.3521   -2.9741   -0.2188 C   0  0  0  0  0  0  0  0  0  0  0  0
   -5.3593   -3.4704    0.4854 O   0  0  0  0  0  0  0  0  0  0  0  0
   -3.6628   -3.6232   -0.9604 O   0  0  0  0  0  0  0  0  0  0  0  0
   -2.8905   -0.6323   -1.4006 H   0  0  0  0  0  0  0  0  0  0  0  0
   -0.7039   -0.0446   -1.1827 H   0  0  0  0  0  0  0  0  0  0  0  0
   -0.3432   -1.7443   -1.3437 H   0  0  0  0  0  0  0  0  0  0  0  0
    0.8429   -1.6985    0.8772 H   0  0  0  0  0  0  0  0  0  0  0  0
    0.5304    0.0199    0.9975 H   0  0  0  0  0  0  0  0  0  0  0  0
    1.8179    0.3959   -1.1222 H   0  0  0  0  0  0  0  0  0  0  0  0
    2.1163   -1.3244   -1.2404 H   0  0  0  0  0  0  0  0  0  0  0  0
    3.3201   -1.2569    0.9619 H   0  0  0  0  0  0  0  0  0  0  0  0
    3.0499    0.4696    1.0500 H   0  0  0  0  0  0  0  0  0  0  0  0
    4.3560    0.7814   -1.0654 H   0  0  0  0  0  0  0  0  0  0  0  0
    4.6128   -0.9469   -1.1604 H   0  0  0  0  0  0  0  0  0  0  0  0
    5.8178   -0.8878    1.0354 H   0  0  0  0  0  0  0  0  0  0  0  0
    5.5766    0.8428    1.1201 H   0  0  0  0  0  0  0  0  0  0  0  0
    6.8958    1.1349   -0.9859 H   0  0  0  0  0  0  0  0  0  0  0  0
    7.1212   -0.5973   -1.0884 H   0  0  0  0  0  0  0  0  0  0  0  0
    8.3274   -0.5727    1.1046 H   0  0  0  0  0  0  0  0  0  0  0  0
    8.1087    1.1606    1.2063 H   0  0  0  0  0  0  0  0  0  0  0  0
    9.4338    1.4598   -0.8920 H   0  0  0  0  0  0  0  0  0  0  0  0
    9.6355   -0.2739   -1.0188 H   0  0  0  0  0  0  0  0  0  0  0  0
   10.8493   -0.2981    1.1647 H   0  0  0  0  0  0  0  0  0  0  0  0
   10.6443    1.4330    1.3023 H   0  0  0  0  0  0  0  0  0  0  0  0
   12.9183    0.8771    0.4154 H   0  0  0  0  0  0  0  0  0  0  0  0
   12.1902    0.0324   -0.9478 H   0  0  0  0  0  0  0  0  0  0  0  0
   11.9956    1.7745   -0.7860 H   0  0  0  0  0  0  0  0  0  0  0  0
   -4.2701   -1.2955    1.0890 H   0  0  0  0  0  0  0  0  0  0  0  0
   -5.2995   -0.8892   -1.7564 H   0  0  0  0  0  0  0  0  0  0  0  0
   -6.2974   -1.1333   -0.3369 H   0  0  0  0  0  0  0  0  0  0  0  0
   -6.1318    0.5778    1.5863 H   0  0  0  0  0  0  0  0  0  0  0  0
   -6.0211    2.9662    2.0956 H   0  0  0  0  0  0  0  0  0  0  0  0
   -4.3474    3.7122   -1.7817 H   0  0  0  0  0  0  0  0  0  0  0  0
   -4.4662    1.3137   -2.2836 H   0  0  0  0  0  0  0  0  0  0  0  0
   -5.4225    5.0437    1.2959 H   0  0  0  0  0  0  0  0  0  0  0  0
   -5.4679   -4.4153    0.2993 H   0  0  0  0  0  0  0  0  0  0  0  0
  1  2  1  0
  1 15  1  0
  1 27  1  0
  2  3  2  0
  2  4  1  0
  4  5  1  0
  4 28  1  0
  4 29  1  0
  5  6  1  0
  5 30  1  0
  5 31  1  0
  6  7  1  0
  6 32  1  0
  6 33  1  0
  7  8  1  0
  7 34  1  0
  7 35  1  0
  8  9  1  0
  8 36  1  0
  8 37  1  0
  9 10  1  0
  9 38  1  0
  9 39  1  0
 10 11  1  0
 10 40  1  0
 10 41  1  0
 11 12  1  0
 11 42  1  0
 11 43  1  0
 12 13  1  0
 12 44  1  0
 12 45  1  0
 13 14  1  0
 13 46  1  0
 13 47  1  0
 14 48  1  0
 14 49  1  0
 14 50  1  0
 15 16  1  0
 15 24  1  0
 15 51  1  1
 16 17  1  0
 16 52  1  0
 16 53  1  0
 17 18  2  0
 17 22  1  0
 18 19  1  0
 18 54  1  0
 19 20  2  0
 19 55  1  0
 20 21  1  0
 20 23  1  0
 21 22  2  0
 21 56  1  0
 22 57  1  0
 23 58  1  0
 24 25  1  0
 24 26  2  0
 25 59  1  0
M  END
