
     RDKit          3D

 67 67  0  0  0  0  0  0  0  0999 V2000
    2.7332    0.7339    1.7362 O   0  0  0  0  0  0  0  0  0  0  0  0
   -4.4034    1.6833    0.4616 C   0  0  2  0  0  0  0  0  0  0  0  0
   -2.9562   -0.2606    0.4916 C   0  0  0  0  0  0  0  0  0  0  0  0
    4.5018   -0.0656    0.5894 O   0  0  0  0  0  0  0  0  0  0  0  0
   -2.4402   -1.4448   -0.3190 C   0  0  1  0  0  0  0  0  0  0  0  0
   -1.1949   -1.9445    0.2234 N   0  0  0  0  0  0  0  0  0  0  0  0
   -3.5086   -2.5421   -0.3292 C   0  0  0  0  0  0  0  0  0  0  0  0
   -3.1092   -3.8070   -1.0902 C   0  0  1  0  0  0  0  0  0  0  0  0
    2.7270   -1.3513    0.8269 N   0  0  0  0  0  0  0  0  0  0  0  0
   -4.2479   -4.8205   -1.0349 C   0  0  0  0  0  0  0  0  0  0  0  0
   -2.7194   -3.5132   -2.5351 C   0  0  0  0  0  0  0  0  0  0  0  0
    1.3689   -1.6756    1.1637 C   0  0  0  0  0  0  0  0  0  0  0  0
    3.2699   -0.1463    1.0992 C   0  0  0  0  0  0  0  0  0  0  0  0
    5.2218    1.1518    0.8180 C   0  0  0  0  0  0  0  0  0  0  0  0
    6.5428    1.0124    0.1243 C   0  0  0  0  0  0  0  0  0  0  0  0
    7.6959    0.7222    0.8454 C   0  0  0  0  0  0  0  0  0  0  0  0
   -5.5628    1.0695    1.2527 C   0  0  0  0  0  0  0  0  0  0  0  0
   -2.7757   -0.1821    1.6970 O   0  0  0  0  0  0  0  0  0  0  0  0
    0.2450   -1.2356   -0.2059 P   0  0  2  0  0  0  0  0  0  0  0  0
    0.2018    0.2040   -0.5720 O   0  0  0  0  0  0  0  0  0  0  0  0
    0.7988   -2.0548   -1.4881 O   0  0  0  0  0  0  0  0  0  0  0  0
    6.6255    1.1488   -1.2598 C   0  0  0  0  0  0  0  0  0  0  0  0
    7.8410    0.9975   -1.9104 C   0  0  0  0  0  0  0  0  0  0  0  0
    8.9894    0.7091   -1.1820 C   0  0  0  0  0  0  0  0  0  0  0  0
    8.9159    0.5735    0.1972 C   0  0  0  0  0  0  0  0  0  0  0  0
   -4.9509    2.6821   -0.5599 C   0  0  0  0  0  0  0  0  0  0  0  0
   -3.8849    3.4283   -1.3655 C   0  0  1  0  0  0  0  0  0  0  0  0
   -4.5701    4.3559   -2.3643 C   0  0  0  0  0  0  0  0  0  0  0  0
   -2.9308    4.2089   -0.4682 C   0  0  0  0  0  0  0  0  0  0  0  0
   -3.7444    2.2088    1.1583 H   0  0  0  0  0  0  0  0  0  0  0  0
   -2.2622   -1.1178   -1.3470 H   0  0  0  0  0  0  0  0  0  0  0  0
   -1.2651   -2.3020    1.1674 H   0  0  0  0  0  0  0  0  0  0  0  0
   -3.7523   -2.8044    0.7057 H   0  0  0  0  0  0  0  0  0  0  0  0
   -4.4255   -2.1285   -0.7616 H   0  0  0  0  0  0  0  0  0  0  0  0
   -2.2420   -4.2452   -0.5860 H   0  0  0  0  0  0  0  0  0  0  0  0
    3.2373   -1.9947    0.2435 H   0  0  0  0  0  0  0  0  0  0  0  0
   -5.1384   -4.4408   -1.5415 H   0  0  0  0  0  0  0  0  0  0  0  0
   -3.9645   -5.7549   -1.5218 H   0  0  0  0  0  0  0  0  0  0  0  0
   -4.5268   -5.0554   -0.0062 H   0  0  0  0  0  0  0  0  0  0  0  0
   -3.5351   -3.0207   -3.0706 H   0  0  0  0  0  0  0  0  0  0  0  0
   -1.8411   -2.8695   -2.6029 H   0  0  0  0  0  0  0  0  0  0  0  0
   -2.4825   -4.4352   -3.0683 H   0  0  0  0  0  0  0  0  0  0  0  0
    1.2931   -2.7412    1.3849 H   0  0  0  0  0  0  0  0  0  0  0  0
    1.0623   -1.1400    2.0620 H   0  0  0  0  0  0  0  0  0  0  0  0
   -6.7857    1.5397    2.8238 H   0  0  0  0  0  0  0  0  0  0  0  0
   -5.5265    2.6740    2.5404 H   0  0  0  0  0  0  0  0  0  0  0  0
    4.6597    1.9975    0.4164 H   0  0  0  0  0  0  0  0  0  0  0  0
    5.3606    1.3128    1.8888 H   0  0  0  0  0  0  0  0  0  0  0  0
    7.6426    0.6154    1.9223 H   0  0  0  0  0  0  0  0  0  0  0  0
    0.6831   -3.0114   -1.4286 H   0  0  0  0  0  0  0  0  0  0  0  0
    5.7344    1.3797   -1.8319 H   0  0  0  0  0  0  0  0  0  0  0  0
    7.8945    1.1063   -2.9859 H   0  0  0  0  0  0  0  0  0  0  0  0
    9.9386    0.5932   -1.6892 H   0  0  0  0  0  0  0  0  0  0  0  0
    9.8068    0.3507    0.7699 H   0  0  0  0  0  0  0  0  0  0  0  0
   -5.6231    2.1542   -1.2449 H   0  0  0  0  0  0  0  0  0  0  0  0
   -5.5665    3.4140   -0.0288 H   0  0  0  0  0  0  0  0  0  0  0  0
   -3.2981    2.6979   -1.9332 H   0  0  0  0  0  0  0  0  0  0  0  0
   -5.1811    5.1018   -1.8496 H   0  0  0  0  0  0  0  0  0  0  0  0
   -3.8394    4.8900   -2.9731 H   0  0  0  0  0  0  0  0  0  0  0  0
   -5.2240    3.8026   -3.0410 H   0  0  0  0  0  0  0  0  0  0  0  0
   -2.3340    3.5546    0.1678 H   0  0  0  0  0  0  0  0  0  0  0  0
   -2.2333    4.7974   -1.0659 H   0  0  0  0  0  0  0  0  0  0  0  0
   -3.4770    4.8993    0.1798 H   0  0  0  0  0  0  0  0  0  0  0  0
   -3.6528    0.6523   -0.2014 N   0  0  0  0  0  0  0  0  0  0  0  0
   -6.0703    0.0079    0.9324 O   0  0  0  0  0  0  0  0  0  0  0  0
   -5.9852    1.8178    2.2798 N   0  0  0  0  0  0  0  0  0  0  0  0
   -3.8292    0.4907   -1.1809 H   0  0  0  0  0  0  0  0  0  0  0  0
 25 16  1  0
 25 24  2  0
 16 15  2  0
 24 23  1  0
 15 14  1  0
 15 22  1  0
 23 22  2  0
 14  4  1  0
  4 13  1  0
 13  1  2  0
 13  9  1  0
  9 12  1  0
 12 19  1  0
 20 19  2  0
 19 21  1  6
 66 17  1  0
 19  6  1  0
 65 17  2  0
 17  2  1  0
  6  5  1  0
  2 64  1  0
  2 26  1  0
 64  3  1  0
  3 18  2  0
  3  5  1  0
  5  7  1  0
 26 27  1  0
  7  8  1  0
 27 29  1  0
 27 28  1  0
 11  8  1  0
  8 10  1  0
  2 30  1  1
  5 31  1  6
  6 32  1  0
  7 33  1  0
  7 34  1  0
  8 35  1  1
  9 36  1  0
 10 37  1  0
 10 38  1  0
 10 39  1  0
 11 40  1  0
 11 41  1  0
 11 42  1  0
 12 43  1  0
 12 44  1  0
 66 45  1  0
 66 46  1  0
 14 47  1  0
 14 48  1  0
 16 49  1  0
 64 67  1  0
 21 50  1  0
 22 51  1  0
 23 52  1  0
 24 53  1  0
 25 54  1  0
 26 55  1  0
 26 56  1  0
 27 57  1  6
 28 58  1  0
 28 59  1  0
 28 60  1  0
 29 61  1  0
 29 62  1  0
 29 63  1  0
M  END
