
     RDKit          3D

 95 99  0  0  0  0  0  0  0  0999 V2000
   -3.0517   -0.4683   -0.5339 C   0  0  1  0  0  0  0  0  0  0  0  0
   -2.9833   -0.4465    1.0026 C   0  0  0  0  0  0  0  0  0  0  0  0
   -3.3676   -1.3998    1.6675 O   0  0  0  0  0  0  0  0  0  0  0  0
   -2.5587    0.7053    1.5307 N   0  0  0  0  0  0  0  0  0  0  0  0
   -2.6756    1.0135    2.9278 C   0  0  1  0  0  0  0  0  0  0  0  0
   -1.9401    2.2718    3.3053 C   0  0  0  0  0  0  0  0  0  0  0  0
   -0.7406    2.7622    2.8169 C   0  0  0  0  0  0  0  0  0  0  0  0
   -0.2484    3.9569    3.3354 C   0  0  0  0  0  0  0  0  0  0  0  0
   -0.9483    4.6368    4.3256 C   0  0  0  0  0  0  0  0  0  0  0  0
   -2.1523    4.1356    4.8137 C   0  0  0  0  0  0  0  0  0  0  0  0
   -2.6441    2.9493    4.2952 C   0  0  0  0  0  0  0  0  0  0  0  0
   -3.8959    2.1951    4.6428 C   0  0  0  0  0  0  0  0  0  0  0  0
   -4.1162    1.2939    3.4168 C   0  0  1  0  0  0  0  0  0  0  0  0
   -4.7850    1.9638    2.3774 O   0  0  0  0  0  0  0  0  0  0  0  0
   -4.5582   -0.3510   -0.8572 C   0  0  0  0  0  0  0  0  0  0  0  0
   -4.8675   -0.2245   -2.3211 C   0  0  0  0  0  0  0  0  0  0  0  0
   -5.2690   -1.3356   -3.0596 C   0  0  0  0  0  0  0  0  0  0  0  0
   -5.5547   -1.2310   -4.4151 C   0  0  0  0  0  0  0  0  0  0  0  0
   -5.4482   -0.0036   -5.0537 C   0  0  0  0  0  0  0  0  0  0  0  0
   -5.0599    1.1149   -4.3257 C   0  0  0  0  0  0  0  0  0  0  0  0
   -4.7706    1.0038   -2.9734 C   0  0  0  0  0  0  0  0  0  0  0  0
   -2.3870    0.6257   -1.0981 O   0  0  0  0  0  0  0  0  0  0  0  0
   -2.4634   -1.7728   -1.0947 C   0  0  0  0  0  0  0  0  0  0  0  0
   -1.0184   -1.6599   -1.2141 N   0  0  0  0  0  0  0  0  0  0  0  0
   -0.3207   -2.0635   -0.0979 N   0  0  0  0  0  0  0  0  0  0  0  0
   -0.4204   -2.2205   -2.4258 C   0  0  0  0  0  0  0  0  0  0  0  0
    0.5271   -1.2298    0.5477 C   0  0  0  0  0  0  0  0  0  0  0  0
    0.5672   -0.0300    0.3593 O   0  0  0  0  0  0  0  0  0  0  0  0
    1.4701   -1.9389    1.5261 C   0  0  2  0  0  0  0  0  0  0  0  0
    0.9857   -1.9562    3.0004 C   0  0  1  0  0  0  0  0  0  0  0  0
    0.7749   -0.5470    3.5480 C   0  0  0  0  0  0  0  0  0  0  0  0
   -0.3217   -2.7429    3.0962 C   0  0  0  0  0  0  0  0  0  0  0  0
    2.7708   -1.3380    1.3778 N   0  0  0  0  0  0  0  0  0  0  0  0
    3.8624   -2.0428    1.0272 C   0  0  0  0  0  0  0  0  0  0  0  0
    3.8981   -3.2382    0.8187 O   0  0  0  0  0  0  0  0  0  0  0  0
    4.9342   -1.2460    0.9466 O   0  0  0  0  0  0  0  0  0  0  0  0
    0.9177   -1.5899   -2.6841 C   0  0  0  0  0  0  0  0  0  0  0  0
    2.0982   -2.1801   -2.2504 C   0  0  0  0  0  0  0  0  0  0  0  0
    3.3197   -1.5515   -2.4487 C   0  0  0  0  0  0  0  0  0  0  0  0
    3.3893   -0.3212   -3.0994 C   0  0  0  0  0  0  0  0  0  0  0  0
    0.9863   -0.3579   -3.3284 C   0  0  0  0  0  0  0  0  0  0  0  0
    2.2025    0.2650   -3.5432 C   0  0  0  0  0  0  0  0  0  0  0  0
    6.1758   -1.8725    0.6414 C   0  0  0  0  0  0  0  0  0  0  0  0
    2.0452   -2.6748    3.8404 C   0  0  0  0  0  0  0  0  0  0  0  0
    6.2364    1.5508   -4.6986 C   0  0  0  0  0  0  0  0  0  0  0  0
    5.0050    0.9360   -4.5462 C   0  0  0  0  0  0  0  0  0  0  0  0
    4.6822    0.3493   -3.3248 C   0  0  0  0  0  0  0  0  0  0  0  0
    5.6353    0.4337   -2.3103 C   0  0  0  0  0  0  0  0  0  0  0  0
    6.8176    1.0161   -2.4471 N   0  0  0  0  0  0  0  0  0  0  0  0
    7.1117    1.5598   -3.6226 C   0  0  0  0  0  0  0  0  0  0  0  0
   -2.3652    1.4577    0.8877 H   0  0  0  0  0  0  0  0  0  0  0  0
   -2.2819    0.1736    3.5115 H   0  0  0  0  0  0  0  0  0  0  0  0
   -0.1907    2.2332    2.0472 H   0  0  0  0  0  0  0  0  0  0  0  0
    0.6840    4.3605    2.9620 H   0  0  0  0  0  0  0  0  0  0  0  0
   -0.5573    5.5675    4.7164 H   0  0  0  0  0  0  0  0  0  0  0  0
   -2.6980    4.6741    5.5790 H   0  0  0  0  0  0  0  0  0  0  0  0
   -4.7556    2.8340    4.8560 H   0  0  0  0  0  0  0  0  0  0  0  0
   -3.7315    1.5765    5.5310 H   0  0  0  0  0  0  0  0  0  0  0  0
   -4.6288    0.3649    3.6866 H   0  0  0  0  0  0  0  0  0  0  0  0
   -5.6907    2.1235    2.6591 H   0  0  0  0  0  0  0  0  0  0  0  0
   -5.0654   -1.2261   -0.4461 H   0  0  0  0  0  0  0  0  0  0  0  0
   -4.9485    0.5175   -0.3175 H   0  0  0  0  0  0  0  0  0  0  0  0
   -5.3698   -2.2957   -2.5661 H   0  0  0  0  0  0  0  0  0  0  0  0
   -5.8648   -2.1084   -4.9682 H   0  0  0  0  0  0  0  0  0  0  0  0
   -5.6721    0.0845   -6.1091 H   0  0  0  0  0  0  0  0  0  0  0  0
   -4.9842    2.0786   -4.8136 H   0  0  0  0  0  0  0  0  0  0  0  0
   -4.4783    1.8851   -2.4171 H   0  0  0  0  0  0  0  0  0  0  0  0
   -1.4532    0.3612   -1.1613 H   0  0  0  0  0  0  0  0  0  0  0  0
   -2.8587   -1.9201   -2.0995 H   0  0  0  0  0  0  0  0  0  0  0  0
   -2.7742   -2.6347   -0.4982 H   0  0  0  0  0  0  0  0  0  0  0  0
   -0.2551   -3.0613    0.0698 H   0  0  0  0  0  0  0  0  0  0  0  0
   -0.3298   -3.3128   -2.3583 H   0  0  0  0  0  0  0  0  0  0  0  0
   -1.0947   -2.0059   -3.2553 H   0  0  0  0  0  0  0  0  0  0  0  0
    1.5723   -2.9815    1.2166 H   0  0  0  0  0  0  0  0  0  0  0  0
   -0.0154   -0.0207    3.0152 H   0  0  0  0  0  0  0  0  0  0  0  0
    0.4849   -0.5968    4.5993 H   0  0  0  0  0  0  0  0  0  0  0  0
    1.6791    0.0619    3.4895 H   0  0  0  0  0  0  0  0  0  0  0  0
   -0.2092   -3.7553    2.6997 H   0  0  0  0  0  0  0  0  0  0  0  0
   -0.6196   -2.8373    4.1418 H   0  0  0  0  0  0  0  0  0  0  0  0
   -1.1462   -2.2620    2.5714 H   0  0  0  0  0  0  0  0  0  0  0  0
    2.8469   -0.3360    1.4584 H   0  0  0  0  0  0  0  0  0  0  0  0
    2.0725   -3.1444   -1.7564 H   0  0  0  0  0  0  0  0  0  0  0  0
    4.2284   -2.0426   -2.1214 H   0  0  0  0  0  0  0  0  0  0  0  0
    0.0756    0.1213   -3.6688 H   0  0  0  0  0  0  0  0  0  0  0  0
    2.2289    1.2249   -4.0448 H   0  0  0  0  0  0  0  0  0  0  0  0
    6.9144   -1.0760    0.6267 H   0  0  0  0  0  0  0  0  0  0  0  0
    6.4545   -2.6053    1.3987 H   0  0  0  0  0  0  0  0  0  0  0  0
    6.1572   -2.3590   -0.3344 H   0  0  0  0  0  0  0  0  0  0  0  0
    2.9770   -2.1116    3.8950 H   0  0  0  0  0  0  0  0  0  0  0  0
    1.6810   -2.8038    4.8610 H   0  0  0  0  0  0  0  0  0  0  0  0
    2.2705   -3.6656    3.4409 H   0  0  0  0  0  0  0  0  0  0  0  0
    4.3076    0.8974   -5.3737 H   0  0  0  0  0  0  0  0  0  0  0  0
    5.4091    0.0291   -1.3296 H   0  0  0  0  0  0  0  0  0  0  0  0
    8.0855    2.0278   -3.7125 H   0  0  0  0  0  0  0  0  0  0  0  0
    6.5189    2.0098   -5.6359 H   0  0  0  0  0  0  0  0  0  0  0  0
  1  2  1  0
  1 15  1  0
  1 22  1  6
  1 23  1  0
  2  3  2  0
  2  4  1  0
  4  5  1  0
  4 51  1  0
  5  6  1  0
  5 13  1  0
  5 52  1  1
  6  7  2  0
  6 11  1  0
  7  8  1  0
  7 53  1  0
  8  9  2  0
  8 54  1  0
  9 10  1  0
  9 55  1  0
 10 11  2  0
 10 56  1  0
 11 12  1  0
 12 13  1  0
 12 57  1  0
 12 58  1  0
 13 14  1  0
 13 59  1  1
 14 60  1  0
 15 16  1  0
 15 61  1  0
 15 62  1  0
 16 17  2  0
 16 21  1  0
 17 18  1  0
 17 63  1  0
 18 19  2  0
 18 64  1  0
 19 20  1  0
 19 65  1  0
 20 21  2  0
 20 66  1  0
 21 67  1  0
 22 68  1  0
 23 24  1  0
 23 69  1  0
 23 70  1  0
 24 25  1  0
 24 26  1  0
 25 27  1  0
 25 71  1  0
 26 37  1  0
 26 72  1  0
 26 73  1  0
 27 28  2  0
 27 29  1  0
 29 30  1  0
 29 33  1  0
 29 74  1  6
 30 31  1  1
 30 32  1  0
 30 44  1  0
 31 75  1  0
 31 76  1  0
 31 77  1  0
 32 78  1  0
 32 79  1  0
 32 80  1  0
 33 34  1  0
 33 81  1  0
 34 35  2  0
 34 36  1  0
 36 43  1  0
 37 38  2  0
 37 41  1  0
 38 39  1  0
 38 82  1  0
 39 40  2  0
 39 83  1  0
 40 42  1  0
 40 47  1  0
 41 42  2  0
 41 84  1  0
 42 85  1  0
 43 86  1  0
 43 87  1  0
 43 88  1  0
 44 89  1  0
 44 90  1  0
 44 91  1  0
 45 46  2  0
 45 50  1  0
 45 95  1  0
 46 47  1  0
 46 92  1  0
 47 48  2  0
 48 49  1  0
 48 93  1  0
 49 50  2  0
 50 94  1  0
M  END
