
     RDKit          3D

 38 40  0  0  0  0  0  0  0  0999 V2000
    2.1943    3.1377    0.3094 C   0  0  0  0  0  0  0  0  0  0  0  0
    2.7938    1.7465    0.1376 C   0  0  1  0  0  0  0  0  0  0  0  0
    3.5788    1.6830   -1.1731 C   0  0  0  0  0  0  0  0  0  0  0  0
    3.7018    1.4344    1.3273 C   0  0  0  0  0  0  0  0  0  0  0  0
    1.7051    0.7477    0.0911 N   0  0  0  0  0  0  0  0  0  0  0  0
    0.4236    1.1091    0.2282 N   0  0  0  0  0  0  0  0  0  0  0  0
    1.8118   -0.5897   -0.0618 C   0  0  0  0  0  0  0  0  0  0  0  0
    2.9313   -1.3061   -0.2223 N   0  0  0  0  0  0  0  0  0  0  0  0
    2.6906   -2.5903   -0.3723 C   0  0  0  0  0  0  0  0  0  0  0  0
    1.5157   -3.2166   -0.4099 N   0  0  0  0  0  0  0  0  0  0  0  0
    0.3998   -2.4996   -0.2619 C   0  0  0  0  0  0  0  0  0  0  0  0
   -0.7662   -3.1420   -0.3417 N   0  0  0  0  0  0  0  0  0  0  0  0
    0.5127   -1.1073   -0.0310 C   0  0  0  0  0  0  0  0  0  0  0  0
   -0.3175    0.0284    0.1657 C   0  0  0  0  0  0  0  0  0  0  0  0
   -1.7755    0.1222    0.3034 C   0  0  0  0  0  0  0  0  0  0  0  0
   -2.4626    1.1524   -0.3358 C   0  0  0  0  0  0  0  0  0  0  0  0
   -2.4752   -0.7871    1.0949 C   0  0  0  0  0  0  0  0  0  0  0  0
   -3.8528   -0.6658    1.2243 C   0  0  0  0  0  0  0  0  0  0  0  0
   -4.5420    0.3498    0.5844 C   0  0  0  0  0  0  0  0  0  0  0  0
   -3.8416    1.2678   -0.1976 C   0  0  0  0  0  0  0  0  0  0  0  0
   -4.5480    2.2426   -0.8002 O   0  0  0  0  0  0  0  0  0  0  0  0
    1.5250    3.4031   -0.5080 H   0  0  0  0  0  0  0  0  0  0  0  0
    1.6466    3.2333    1.2461 H   0  0  0  0  0  0  0  0  0  0  0  0
    3.0124    3.8578    0.3230 H   0  0  0  0  0  0  0  0  0  0  0  0
    4.3606    2.4432   -1.1681 H   0  0  0  0  0  0  0  0  0  0  0  0
    4.0548    0.7130   -1.3083 H   0  0  0  0  0  0  0  0  0  0  0  0
    2.9282    1.8717   -2.0281 H   0  0  0  0  0  0  0  0  0  0  0  0
    3.1395    1.4553    2.2620 H   0  0  0  0  0  0  0  0  0  0  0  0
    4.1734    0.4580    1.2286 H   0  0  0  0  0  0  0  0  0  0  0  0
    4.4915    2.1837    1.3920 H   0  0  0  0  0  0  0  0  0  0  0  0
    3.5595   -3.2291   -0.4927 H   0  0  0  0  0  0  0  0  0  0  0  0
   -1.6434   -2.6518   -0.3576 H   0  0  0  0  0  0  0  0  0  0  0  0
   -0.7721   -4.1197   -0.5791 H   0  0  0  0  0  0  0  0  0  0  0  0
   -1.9168    1.8589   -0.9513 H   0  0  0  0  0  0  0  0  0  0  0  0
   -1.9502   -1.5648    1.6350 H   0  0  0  0  0  0  0  0  0  0  0  0
   -4.3969   -1.3685    1.8416 H   0  0  0  0  0  0  0  0  0  0  0  0
   -5.6161    0.4390    0.6883 H   0  0  0  0  0  0  0  0  0  0  0  0
   -3.9671    2.8132   -1.3159 H   0  0  0  0  0  0  0  0  0  0  0  0
  2  1  1  1
  1 22  1  0
  1 23  1  0
  1 24  1  0
  2  3  1  0
  2  4  1  0
  2  5  1  0
  3 25  1  0
  3 26  1  0
  3 27  1  0
  4 28  1  0
  4 29  1  0
  4 30  1  0
  5  6  1  0
  5  7  1  0
  6 14  2  0
  7  8  2  0
  7 13  1  0
  8  9  1  0
  9 10  2  0
  9 31  1  0
 10 11  1  0
 11 12  1  0
 11 13  2  0
 12 32  1  0
 12 33  1  0
 13 14  1  0
 14 15  1  0
 15 16  2  0
 15 17  1  0
 16 20  1  0
 16 34  1  0
 17 18  2  0
 17 35  1  0
 18 19  1  0
 18 36  1  0
 19 20  2  0
 19 37  1  0
 20 21  1  0
 21 38  1  0
M  END
