
     RDKit          3D

 55 59  0  0  0  0  0  0  0  0999 V2000
    3.6972    2.4322    1.2547 C   0  0  0  0  0  0  0  0  0  0  0  0
    0.7596    3.7586   -0.4012 C   0  0  0  0  0  0  0  0  0  0  0  0
   -0.1214    1.8412   -1.7433 C   0  0  0  0  0  0  0  0  0  0  0  0
   -2.4334    1.9766   -0.7596 C   0  0  0  0  0  0  0  0  0  0  0  0
   -4.5108   -0.3634    1.3852 C   0  0  0  0  0  0  0  0  0  0  0  0
   -5.6273   -1.4405   -0.4588 C   0  0  0  0  0  0  0  0  0  0  0  0
   -6.8844   -0.7476    1.4338 C   0  0  0  0  0  0  0  0  0  0  0  0
   -1.1631   -0.0145   -0.3846 C   0  0  0  0  0  0  0  0  0  0  0  0
    5.4204   -2.9332   -0.1190 C   0  0  0  0  0  0  0  0  0  0  0  0
    4.1303   -3.2027   -0.3379 N   0  0  0  0  0  0  0  0  0  0  0  0
    3.3274   -2.1260   -0.2315 N   0  0  0  0  0  0  0  0  0  0  0  0
    4.1138   -1.1201    0.0597 C   0  0  0  0  0  0  0  0  0  0  0  0
    3.5813    0.2352    0.2154 C   0  0  0  0  0  0  0  0  0  0  0  0
    2.4412    0.5953   -0.4894 C   0  0  0  0  0  0  0  0  0  0  0  0
    1.9394    1.8788   -0.3119 C   0  0  0  0  0  0  0  0  0  0  0  0
    2.5491    2.8151    0.5531 C   0  0  0  0  0  0  0  0  0  0  0  0
    4.1976    1.1587    1.0845 C   0  0  0  0  0  0  0  0  0  0  0  0
    1.7718    4.0096    0.4794 C   0  0  0  0  0  0  0  0  0  0  0  0
    0.8600    2.4865   -0.8930 N   0  0  0  0  0  0  0  0  0  0  0  0
   -1.2624    1.2488   -0.9561 C   0  0  0  0  0  0  0  0  0  0  0  0
   -3.4768    1.4563   -0.0116 C   0  0  0  0  0  0  0  0  0  0  0  0
   -3.3734    0.1964    0.5737 C   0  0  0  0  0  0  0  0  0  0  0  0
   -5.7280   -0.4603    0.6058 N   0  0  0  0  0  0  0  0  0  0  0  0
   -6.9063   -1.4597   -1.2718 C   0  0  0  0  0  0  0  0  0  0  0  0
   -8.0312   -1.7271   -0.4638 O   0  0  0  0  0  0  0  0  0  0  0  0
   -8.1363   -0.7827    0.5779 C   0  0  0  0  0  0  0  0  0  0  0  0
   -2.2072   -0.5314    0.3717 C   0  0  0  0  0  0  0  0  0  0  0  0
    5.4685   -1.5601    0.1501 C   0  0  0  0  0  0  0  0  0  0  0  0
    6.6406   -0.8267    0.3733 C   0  0  0  0  0  0  0  0  0  0  0  0
    7.6230   -0.2435    0.5518 N   0  0  0  0  0  0  0  0  0  0  0  0
    4.1864    3.1210    1.9318 H   0  0  0  0  0  0  0  0  0  0  0  0
   -0.0386    4.4074   -0.7304 H   0  0  0  0  0  0  0  0  0  0  0  0
   -0.4936    2.5841   -2.4501 H   0  0  0  0  0  0  0  0  0  0  0  0
    0.3844    1.0780   -2.3363 H   0  0  0  0  0  0  0  0  0  0  0  0
   -2.5399    2.9563   -1.2117 H   0  0  0  0  0  0  0  0  0  0  0  0
   -4.2113   -1.3362    1.8109 H   0  0  0  0  0  0  0  0  0  0  0  0
   -4.7096    0.2975    2.2342 H   0  0  0  0  0  0  0  0  0  0  0  0
   -4.7980   -1.1854   -1.1228 H   0  0  0  0  0  0  0  0  0  0  0  0
   -5.4237   -2.4509   -0.0621 H   0  0  0  0  0  0  0  0  0  0  0  0
   -6.7797   -1.7043    1.9745 H   0  0  0  0  0  0  0  0  0  0  0  0
   -6.9952    0.0359    2.1879 H   0  0  0  0  0  0  0  0  0  0  0  0
   -0.2788   -0.6205   -0.5409 H   0  0  0  0  0  0  0  0  0  0  0  0
    6.2416   -4.7066   -0.6433 H   0  0  0  0  0  0  0  0  0  0  0  0
    7.3466   -3.5204   -0.1925 H   0  0  0  0  0  0  0  0  0  0  0  0
    3.7277   -4.1046   -0.5399 H   0  0  0  0  0  0  0  0  0  0  0  0
    1.9772   -0.1051   -1.1717 H   0  0  0  0  0  0  0  0  0  0  0  0
    5.0719    0.8631    1.6491 H   0  0  0  0  0  0  0  0  0  0  0  0
    1.9468    4.9373    1.0006 H   0  0  0  0  0  0  0  0  0  0  0  0
   -4.3857    2.0329    0.1112 H   0  0  0  0  0  0  0  0  0  0  0  0
   -7.0212   -0.4959   -1.7882 H   0  0  0  0  0  0  0  0  0  0  0  0
   -6.8545   -2.2424   -2.0303 H   0  0  0  0  0  0  0  0  0  0  0  0
   -8.9982   -1.0608    1.1866 H   0  0  0  0  0  0  0  0  0  0  0  0
   -8.3230    0.2211    0.1696 H   0  0  0  0  0  0  0  0  0  0  0  0
   -2.1139   -1.5235    0.7978 H   0  0  0  0  0  0  0  0  0  0  0  0
    6.4007   -3.8600   -0.1211 N   0  0  0  0  0  0  0  0  0  0  0  0
 26 25  1  0
 26  7  1  0
 25 24  1  0
  7 23  1  0
 24  6  1  0
  5 23  1  0
  5 22  1  0
 23  6  1  0
 21 22  1  0
 21  4  2  0
 22 27  2  0
  4 20  1  0
 27  8  1  0
 20  8  2  0
 20  3  1  0
  2 18  2  0
  2 19  1  0
 18 16  1  0
 19  3  1  0
 19 15  1  0
 16 15  1  0
 16  1  2  0
 15 14  2  0
  1 17  1  0
 14 13  1  0
 17 13  2  0
 13 12  1  0
 12 11  2  0
 12 28  1  0
 11 10  1  0
 30 29  3  0
 29 28  1  0
 28  9  2  0
 10  9  1  0
  9 55  1  0
  1 31  1  0
  2 32  1  0
  3 33  1  0
  3 34  1  0
  4 35  1  0
  5 36  1  0
  5 37  1  0
  6 38  1  0
  6 39  1  0
  7 40  1  0
  7 41  1  0
  8 42  1  0
 55 43  1  0
 55 44  1  0
 10 45  1  0
 14 46  1  0
 17 47  1  0
 18 48  1  0
 21 49  1  0
 24 50  1  0
 24 51  1  0
 26 52  1  0
 26 53  1  0
 27 54  1  0
M  END
