
     RDKit          3D

 42 45  0  0  0  0  0  0  0  0999 V2000
    2.4154   -1.5983    2.6877 N   0  0  0  0  0  0  0  0  0  0  0  0
    2.8451   -1.0628    1.7621 C   0  0  0  0  0  0  0  0  0  0  0  0
    3.4144   -0.3906    0.6375 C   0  0  0  0  0  0  0  0  0  0  0  0
    4.8056   -0.3186    0.5433 C   0  0  0  0  0  0  0  0  0  0  0  0
    5.3852    0.3590   -0.5129 C   0  0  0  0  0  0  0  0  0  0  0  0
    4.5774    0.9630   -1.4689 C   0  0  0  0  0  0  0  0  0  0  0  0
    3.1967    0.8915   -1.3718 C   0  0  0  0  0  0  0  0  0  0  0  0
    2.5884    0.2059   -0.3246 C   0  0  0  0  0  0  0  0  0  0  0  0
    1.1199    0.0969   -0.2443 C   0  0  0  0  0  0  0  0  0  0  0  0
    0.3584    1.3258   -0.1776 C   0  0  0  0  0  0  0  0  0  0  0  0
    0.8323    2.4516   -0.1813 O   0  0  0  0  0  0  0  0  0  0  0  0
    0.4956   -1.1115   -0.2341 C   0  0  0  0  0  0  0  0  0  0  0  0
   -0.9147   -1.2294   -0.1415 C   0  0  0  0  0  0  0  0  0  0  0  0
   -1.5645   -2.5523   -0.1326 C   0  0  0  0  0  0  0  0  0  0  0  0
   -0.8325   -3.5663   -0.5893 N   0  0  0  0  0  0  0  0  0  0  0  0
   -1.3610   -4.7821   -0.6088 C   0  0  0  0  0  0  0  0  0  0  0  0
   -2.6494   -5.0615   -0.1820 C   0  0  0  0  0  0  0  0  0  0  0  0
   -3.4121   -4.0096    0.3049 C   0  0  0  0  0  0  0  0  0  0  0  0
   -2.8645   -2.7395    0.3400 C   0  0  0  0  0  0  0  0  0  0  0  0
   -1.6249   -0.0692   -0.0887 C   0  0  0  0  0  0  0  0  0  0  0  0
   -1.0214    1.1431   -0.1030 N   0  0  0  0  0  0  0  0  0  0  0  0
   -1.8449    2.3149   -0.0620 C   0  0  0  0  0  0  0  0  0  0  0  0
   -2.4281    2.7731   -1.2322 C   0  0  0  0  0  0  0  0  0  0  0  0
   -3.2485    3.8923   -1.1888 C   0  0  0  0  0  0  0  0  0  0  0  0
   -3.4735    4.5444    0.0159 C   0  0  0  0  0  0  0  0  0  0  0  0
   -2.8815    4.0759    1.1822 C   0  0  0  0  0  0  0  0  0  0  0  0
   -2.0636    2.9557    1.1475 C   0  0  0  0  0  0  0  0  0  0  0  0
    5.4198   -0.7866    1.3005 H   0  0  0  0  0  0  0  0  0  0  0  0
    6.4622    0.4172   -0.5906 H   0  0  0  0  0  0  0  0  0  0  0  0
    5.0267    1.4912   -2.2991 H   0  0  0  0  0  0  0  0  0  0  0  0
    2.5840    1.3561   -2.1323 H   0  0  0  0  0  0  0  0  0  0  0  0
    1.0823   -2.0186   -0.3083 H   0  0  0  0  0  0  0  0  0  0  0  0
   -0.7252   -5.5757   -0.9857 H   0  0  0  0  0  0  0  0  0  0  0  0
   -3.0349   -6.0706   -0.2214 H   0  0  0  0  0  0  0  0  0  0  0  0
   -4.4184   -4.1779    0.6648 H   0  0  0  0  0  0  0  0  0  0  0  0
   -3.4380   -1.9171    0.7455 H   0  0  0  0  0  0  0  0  0  0  0  0
   -2.7046   -0.0412   -0.0481 H   0  0  0  0  0  0  0  0  0  0  0  0
   -2.2437    2.2603   -2.1675 H   0  0  0  0  0  0  0  0  0  0  0  0
   -3.7107    4.2526   -2.0981 H   0  0  0  0  0  0  0  0  0  0  0  0
   -4.1124    5.4169    0.0473 H   0  0  0  0  0  0  0  0  0  0  0  0
   -3.0577    4.5806    2.1226 H   0  0  0  0  0  0  0  0  0  0  0  0
   -1.6046    2.5804    2.0530 H   0  0  0  0  0  0  0  0  0  0  0  0
 24 25  1  0
 24 23  2  0
 25 26  2  0
 23 22  1  0
  1  2  3  0
 26 27  1  0
  2  3  1  0
 22 27  2  0
 22 21  1  0
 11 10  2  0
  3  4  2  0
  3  8  1  0
  4  5  1  0
 10 21  1  0
 10  9  1  0
 21 20  1  0
  8  9  1  0
  8  7  2  0
  5  6  2  0
  9 12  2  0
 20 13  2  0
 13 12  1  0
 13 14  1  0
  7  6  1  0
 19 14  1  0
 19 18  2  0
 14 15  2  0
 18 17  1  0
 15 16  1  0
 17 16  2  0
  4 28  1  0
  5 29  1  0
  6 30  1  0
  7 31  1  0
 12 32  1  0
 16 33  1  0
 17 34  1  0
 18 35  1  0
 19 36  1  0
 20 37  1  0
 23 38  1  0
 24 39  1  0
 25 40  1  0
 26 41  1  0
 27 42  1  0
M  END
