
     RDKit          3D

 43 43  0  0  0  0  0  0  0  0999 V2000
   -1.8408   -2.2419    1.0560 I   0  0  0  0  0  0  0  0  0  0  0  0
   -2.0498   -0.3560    0.1648 C   0  0  0  0  0  0  0  0  0  0  0  0
   -1.5910    0.7698    0.8275 C   0  0  0  0  0  0  0  0  0  0  0  0
   -2.6214   -0.2600   -1.1002 C   0  0  0  0  0  0  0  0  0  0  0  0
   -3.0525   -1.3756   -1.7078 O   0  0  0  0  0  0  0  0  0  0  0  0
   -2.7356    1.0032   -1.6760 C   0  0  0  0  0  0  0  0  0  0  0  0
   -2.2701    2.1251   -1.0132 C   0  0  0  0  0  0  0  0  0  0  0  0
   -1.6901    2.0292    0.2468 C   0  0  0  0  0  0  0  0  0  0  0  0
   -1.1208    3.2373    0.9309 C   0  0  0  0  0  0  0  0  0  0  0  0
    0.3165    3.5166    0.4358 C   0  0  1  0  0  0  0  0  0  0  0  0
    0.9100    4.7226    1.1434 C   0  0  0  0  0  0  0  0  0  0  0  0
    1.8890    4.6953    1.8420 O   0  0  0  0  0  0  0  0  0  0  0  0
    0.2021    5.8175    0.9046 O   0  0  0  0  0  0  0  0  0  0  0  0
    1.1585    2.3725    0.6014 N   0  0  0  0  0  0  0  0  0  0  0  0
    1.6558    1.6680   -0.4483 C   0  0  0  0  0  0  0  0  0  0  0  0
    1.6332    2.0684   -1.6042 O   0  0  0  0  0  0  0  0  0  0  0  0
    2.2413    0.4829   -0.1045 N   0  0  0  0  0  0  0  0  0  0  0  0
    2.7457   -0.3778   -1.1369 C   0  0  2  0  0  0  0  0  0  0  0  0
    1.6262   -0.8953   -2.0291 C   0  0  0  0  0  0  0  0  0  0  0  0
    2.0772   -1.2075   -3.2405 O   0  0  0  0  0  0  0  0  0  0  0  0
    0.4901   -1.0491   -1.6726 O   0  0  0  0  0  0  0  0  0  0  0  0
    3.4837   -1.5698   -0.5194 C   0  0  0  0  0  0  0  0  0  0  0  0
    4.6909   -1.1237    0.2889 C   0  0  0  0  0  0  0  0  0  0  0  0
    5.4716   -2.2734    0.8625 C   0  0  0  0  0  0  0  0  0  0  0  0
    5.2140   -3.4398    0.6997 O   0  0  0  0  0  0  0  0  0  0  0  0
    6.5033   -1.8510    1.5859 O   0  0  0  0  0  0  0  0  0  0  0  0
   -1.1511    0.6719    1.8120 H   0  0  0  0  0  0  0  0  0  0  0  0
   -3.4168   -1.1636   -2.5749 H   0  0  0  0  0  0  0  0  0  0  0  0
   -3.1914    1.1061   -2.6544 H   0  0  0  0  0  0  0  0  0  0  0  0
   -2.3664    3.0931   -1.4908 H   0  0  0  0  0  0  0  0  0  0  0  0
   -1.7451    4.1104    0.7381 H   0  0  0  0  0  0  0  0  0  0  0  0
   -1.1076    3.0873    2.0139 H   0  0  0  0  0  0  0  0  0  0  0  0
    0.2739    3.7477   -0.6309 H   0  0  0  0  0  0  0  0  0  0  0  0
    0.5771    6.5713    1.3847 H   0  0  0  0  0  0  0  0  0  0  0  0
    1.2723    2.0067    1.5338 H   0  0  0  0  0  0  0  0  0  0  0  0
    1.9408    0.0377    0.7494 H   0  0  0  0  0  0  0  0  0  0  0  0
    3.4534    0.1792   -1.7562 H   0  0  0  0  0  0  0  0  0  0  0  0
    1.3638   -1.5924   -3.7711 H   0  0  0  0  0  0  0  0  0  0  0  0
    2.7931   -2.1430    0.1051 H   0  0  0  0  0  0  0  0  0  0  0  0
    3.8027   -2.2331   -1.3244 H   0  0  0  0  0  0  0  0  0  0  0  0
    5.3681   -0.5290   -0.3324 H   0  0  0  0  0  0  0  0  0  0  0  0
    4.3979   -0.4673    1.1125 H   0  0  0  0  0  0  0  0  0  0  0  0
    6.9929   -2.6089    1.9385 H   0  0  0  0  0  0  0  0  0  0  0  0
  1  2  1  0
  3  2  2  0
  2  4  1  0
  3  8  1  0
  3 27  1  0
  4  6  2  0
  4  5  1  0
  5 28  1  0
  7  6  1  0
  6 29  1  0
  8  7  2  0
  7 30  1  0
  9  8  1  0
  9 10  1  0
  9 31  1  0
  9 32  1  0
 14 10  1  0
 10 11  1  0
 10 33  1  6
 11 12  2  0
 11 13  1  0
 13 34  1  0
 15 14  1  0
 14 35  1  0
 16 15  2  0
 17 15  1  0
 18 17  1  0
 17 36  1  0
 19 18  1  0
 22 18  1  0
 18 37  1  6
 21 19  2  0
 20 19  1  0
 20 38  1  0
 23 22  1  0
 22 39  1  0
 22 40  1  0
 24 23  1  0
 23 41  1  0
 23 42  1  0
 25 24  2  0
 24 26  1  0
 26 43  1  0
M  END
