
     RDKit          3D

 22 23  0  0  0  0  0  0  0  0999 V2000
    0.6799   -0.6057   -0.1447 C   0  0  0  0  0  0  0  0  0  0  0  0
   -0.6784   -0.9781   -0.2902 C   0  0  0  0  0  0  0  0  0  0  0  0
   -1.6824   -0.0486   -0.2497 C   0  0  0  0  0  0  0  0  0  0  0  0
   -1.3522    1.3140   -0.0425 C   0  0  0  0  0  0  0  0  0  0  0  0
   -0.0523    1.7057    0.1054 C   0  0  0  0  0  0  0  0  0  0  0  0
    1.0013    0.7603    0.0584 C   0  0  0  0  0  0  0  0  0  0  0  0
    2.3570    1.1339    0.2062 C   0  0  0  0  0  0  0  0  0  0  0  0
    3.3494    0.1923    0.1542 C   0  0  0  0  0  0  0  0  0  0  0  0
    3.0301   -1.1669   -0.0463 C   0  0  0  0  0  0  0  0  0  0  0  0
    1.7258   -1.5567   -0.1911 C   0  0  0  0  0  0  0  0  0  0  0  0
   -3.1184   -0.4434   -0.4377 C   0  0  0  0  0  0  0  0  0  0  0  0
   -3.8728    0.0367    0.6539 O   0  0  0  0  0  0  0  0  0  0  0  0
   -0.9153   -2.0261   -0.4389 H   0  0  0  0  0  0  0  0  0  0  0  0
   -2.1415    2.0542   -0.0075 H   0  0  0  0  0  0  0  0  0  0  0  0
    0.1867    2.7514    0.2584 H   0  0  0  0  0  0  0  0  0  0  0  0
    2.6002    2.1781    0.3626 H   0  0  0  0  0  0  0  0  0  0  0  0
    4.3844    0.4872    0.2687 H   0  0  0  0  0  0  0  0  0  0  0  0
    3.8230   -1.9022   -0.0849 H   0  0  0  0  0  0  0  0  0  0  0  0
    1.4811   -2.6011   -0.3441 H   0  0  0  0  0  0  0  0  0  0  0  0
   -3.4809   -0.0191   -1.3827 H   0  0  0  0  0  0  0  0  0  0  0  0
   -3.1872   -1.5342   -0.5341 H   0  0  0  0  0  0  0  0  0  0  0  0
   -4.8042   -0.0399    0.4273 H   0  0  0  0  0  0  0  0  0  0  0  0
  1  2  2  0
  1  6  1  0
  1 10  1  0
  2  3  1  0
  3  4  2  0
  3 11  1  0
  4  5  1  0
  5  6  2  0
  6  7  1  0
  7  8  2  0
  8  9  1  0
  9 10  2  0
 11 12  1  0
  2 13  1  0
  4 14  1  0
  5 15  1  0
  7 16  1  0
  8 17  1  0
  9 18  1  0
 10 19  1  0
 11 20  1  0
 11 21  1  0
 12 22  1  0
M  END
