
     RDKit          3D

 56 60  0  0  0  0  0  0  0  0999 V2000
   -4.9996   -5.3017    0.0574 C   0  0  0  0  0  0  0  0  0  0  0  0
   -4.0274   -4.8966   -0.8850 O   0  0  0  0  0  0  0  0  0  0  0  0
   -3.2345   -3.8509   -0.5802 C   0  0  0  0  0  0  0  0  0  0  0  0
   -2.2735   -3.5012   -1.5316 C   0  0  0  0  0  0  0  0  0  0  0  0
   -1.4166   -2.4436   -1.2970 C   0  0  0  0  0  0  0  0  0  0  0  0
   -3.3131   -3.1208    0.6024 C   0  0  0  0  0  0  0  0  0  0  0  0
   -2.4421   -2.0601    0.8218 C   0  0  0  0  0  0  0  0  0  0  0  0
   -1.4832   -1.6936   -0.1172 C   0  0  0  0  0  0  0  0  0  0  0  0
   -0.5379   -0.5938    0.1043 C   0  0  0  0  0  0  0  0  0  0  0  0
    0.8874   -0.6982   -0.0273 C   0  0  0  0  0  0  0  0  0  0  0  0
    1.7707   -1.7544   -0.2802 C   0  0  0  0  0  0  0  0  0  0  0  0
    3.1255   -1.5029   -0.3109 C   0  0  0  0  0  0  0  0  0  0  0  0
    3.6579   -0.2125   -0.0940 C   0  0  0  0  0  0  0  0  0  0  0  0
    5.1697    0.0018   -0.1264 C   0  0  1  0  0  0  0  0  0  0  0  0
    5.8192   -0.7308    1.0552 C   0  0  0  0  0  0  0  0  0  0  0  0
    5.3139   -0.2931    2.4230 C   0  0  0  0  0  0  0  0  0  0  0  0
    5.7259   -0.5026   -1.4723 C   0  0  0  0  0  0  0  0  0  0  0  0
    7.2235   -0.3056   -1.6716 C   0  0  0  0  0  0  0  0  0  0  0  0
    5.4879    1.3699    0.0349 O   0  0  0  0  0  0  0  0  0  0  0  0
    2.7979    0.8375    0.1693 C   0  0  0  0  0  0  0  0  0  0  0  0
    1.4280    0.5804    0.1923 C   0  0  0  0  0  0  0  0  0  0  0  0
    0.3862    1.4251    0.4309 N   0  0  0  0  0  0  0  0  0  0  0  0
   -0.7979    0.7278    0.3966 C   0  0  0  0  0  0  0  0  0  0  0  0
   -2.0349    1.4693    0.5507 C   0  0  0  0  0  0  0  0  0  0  0  0
   -2.2850    2.7976    0.1404 C   0  0  0  0  0  0  0  0  0  0  0  0
   -1.5822    4.1533   -0.6556 S   0  0  0  0  0  0  0  0  0  0  0  0
   -3.0656    5.0409   -0.4796 C   0  0  0  0  0  0  0  0  0  0  0  0
   -4.0590    4.3545    0.1406 C   0  0  0  0  0  0  0  0  0  0  0  0
   -3.5974    3.0551    0.4944 C   0  0  0  0  0  0  0  0  0  0  0  0
   -4.0529    1.9276    1.0741 N   0  0  0  0  0  0  0  0  0  0  0  0
   -3.1240    0.9766    1.1215 N   0  0  0  0  0  0  0  0  0  0  0  0
   -5.7367   -4.5170    0.2481 H   0  0  0  0  0  0  0  0  0  0  0  0
   -5.5077   -6.1616   -0.3720 H   0  0  0  0  0  0  0  0  0  0  0  0
   -4.5487   -5.5978    1.0081 H   0  0  0  0  0  0  0  0  0  0  0  0
   -2.2082   -4.0620   -2.4559 H   0  0  0  0  0  0  0  0  0  0  0  0
   -0.6853   -2.1872   -2.0539 H   0  0  0  0  0  0  0  0  0  0  0  0
   -4.0358   -3.3644    1.3694 H   0  0  0  0  0  0  0  0  0  0  0  0
   -2.5138   -1.5139    1.7514 H   0  0  0  0  0  0  0  0  0  0  0  0
    1.4027   -2.7599   -0.4442 H   0  0  0  0  0  0  0  0  0  0  0  0
    3.7959   -2.3332   -0.4961 H   0  0  0  0  0  0  0  0  0  0  0  0
    5.6517   -1.8033    0.9295 H   0  0  0  0  0  0  0  0  0  0  0  0
    6.9015   -0.5862    1.0060 H   0  0  0  0  0  0  0  0  0  0  0  0
    4.2451   -0.4785    2.5353 H   0  0  0  0  0  0  0  0  0  0  0  0
    5.8292   -0.8439    3.2107 H   0  0  0  0  0  0  0  0  0  0  0  0
    5.4885    0.7684    2.5959 H   0  0  0  0  0  0  0  0  0  0  0  0
    5.4864   -1.5610   -1.5894 H   0  0  0  0  0  0  0  0  0  0  0  0
    5.1851    0.0115   -2.2750 H   0  0  0  0  0  0  0  0  0  0  0  0
    7.5205    0.7343   -1.5352 H   0  0  0  0  0  0  0  0  0  0  0  0
    7.8151   -0.9141   -0.9878 H   0  0  0  0  0  0  0  0  0  0  0  0
    7.5047   -0.5960   -2.6842 H   0  0  0  0  0  0  0  0  0  0  0  0
    5.2184    1.8417   -0.7610 H   0  0  0  0  0  0  0  0  0  0  0  0
    3.1682    1.8336    0.3720 H   0  0  0  0  0  0  0  0  0  0  0  0
    0.4810    2.3809    0.7346 H   0  0  0  0  0  0  0  0  0  0  0  0
   -3.1167    6.0494   -0.8614 H   0  0  0  0  0  0  0  0  0  0  0  0
   -5.0458    4.7502    0.3276 H   0  0  0  0  0  0  0  0  0  0  0  0
   -4.9616    1.7556    1.4734 H   0  0  0  0  0  0  0  0  0  0  0  0
 28 27  2  0
 28 29  1  0
 27 26  1  0
 30 29  1  0
 30 31  1  0
 29 25  2  0
 31 24  2  0
 25 26  1  0
 25 24  1  0
 24 23  1  0
 23 22  1  0
 23  9  2  0
 22 21  1  0
  7  6  1  0
  7  8  2  0
  6  3  2  0
  9  8  1  0
  9 10  1  0
  1  2  1  0
  8  5  1  0
 21 10  1  0
 21 20  2  0
 18 17  1  0
 10 11  2  0
  3  2  1  0
  3  4  1  0
 20 13  1  0
  5  4  2  0
 11 12  1  0
 13 12  2  0
 13 14  1  0
 17 14  1  0
 14 19  1  1
 14 15  1  0
 15 16  1  0
  1 32  1  0
  1 33  1  0
  1 34  1  0
  4 35  1  0
  5 36  1  0
  6 37  1  0
  7 38  1  0
 11 39  1  0
 12 40  1  0
 15 41  1  0
 15 42  1  0
 16 43  1  0
 16 44  1  0
 16 45  1  0
 17 46  1  0
 17 47  1  0
 18 48  1  0
 18 49  1  0
 18 50  1  0
 19 51  1  0
 20 52  1  0
 22 53  1  0
 27 54  1  0
 28 55  1  0
 30 56  1  0
M  END
