
     RDKit          3D

 39 41  0  0  0  0  0  0  0  0999 V2000
   -1.1562    1.0872   -0.9743 C   0  0  1  0  0  0  0  0  0  0  0  0
   -2.1091    0.1939   -1.7752 C   0  0  0  0  0  0  0  0  0  0  0  0
   -3.1392   -0.5871   -0.9589 C   0  0  1  0  0  0  0  0  0  0  0  0
   -2.6098   -1.7802   -0.1438 C   0  0  0  0  0  0  0  0  0  0  0  0
   -2.9778    0.8872    0.9051 C   0  0  2  0  0  0  0  0  0  0  0  0
    1.2305    0.9666   -0.3083 C   0  0  0  0  0  0  0  0  0  0  0  0
    2.4103    0.2299   -0.0770 C   0  0  0  0  0  0  0  0  0  0  0  0
   -3.8603    0.3754   -0.1361 N   0  0  0  0  0  0  0  0  0  0  0  0
    3.6792    2.2149    0.4020 C   0  0  0  0  0  0  0  0  0  0  0  0
    2.5338    2.9666    0.1849 C   0  0  0  0  0  0  0  0  0  0  0  0
    1.3383    2.3619   -0.1630 C   0  0  0  0  0  0  0  0  0  0  0  0
    3.6070    0.8361    0.2647 C   0  0  0  0  0  0  0  0  0  0  0  0
   -1.8537   -1.3940    1.1324 C   0  0  0  0  0  0  0  0  0  0  0  0
   -1.8671    1.7132    0.2415 C   0  0  0  0  0  0  0  0  0  0  0  0
   -5.1397   -0.0976    0.3400 C   0  0  0  0  0  0  0  0  0  0  0  0
    0.0546    0.3608   -0.6352 N   0  0  0  0  0  0  0  0  0  0  0  0
    2.3832   -1.6610   -0.2298 Br  0  0  0  0  0  0  0  0  0  0  0  0
   -0.8734    1.9134   -1.6380 H   0  0  0  0  0  0  0  0  0  0  0  0
   -2.6753    0.8466   -2.4426 H   0  0  0  0  0  0  0  0  0  0  0  0
   -1.5398   -0.4788   -2.4237 H   0  0  0  0  0  0  0  0  0  0  0  0
   -3.8494   -0.9931   -1.6871 H   0  0  0  0  0  0  0  0  0  0  0  0
   -3.4689   -2.3999    0.1295 H   0  0  0  0  0  0  0  0  0  0  0  0
   -1.9820   -2.4105   -0.7805 H   0  0  0  0  0  0  0  0  0  0  0  0
   -1.8150    0.2039    2.5938 H   0  0  0  0  0  0  0  0  0  0  0  0
   -3.3718   -0.5691    2.4228 H   0  0  0  0  0  0  0  0  0  0  0  0
   -3.5579    1.5998    1.5021 H   0  0  0  0  0  0  0  0  0  0  0  0
    4.6139    2.6841    0.6757 H   0  0  0  0  0  0  0  0  0  0  0  0
    2.5641    4.0440    0.2834 H   0  0  0  0  0  0  0  0  0  0  0  0
    0.4723    2.9872   -0.3290 H   0  0  0  0  0  0  0  0  0  0  0  0
    4.4893    0.2320    0.4323 H   0  0  0  0  0  0  0  0  0  0  0  0
   -1.8089   -2.2581    1.7997 H   0  0  0  0  0  0  0  0  0  0  0  0
   -0.8217   -1.1431    0.8968 H   0  0  0  0  0  0  0  0  0  0  0  0
   -1.1355    2.0060    0.9979 H   0  0  0  0  0  0  0  0  0  0  0  0
   -2.3313    2.6400   -0.1059 H   0  0  0  0  0  0  0  0  0  0  0  0
   -5.6357    0.6954    0.9028 H   0  0  0  0  0  0  0  0  0  0  0  0
   -5.7759   -0.3417   -0.5133 H   0  0  0  0  0  0  0  0  0  0  0  0
   -5.1095   -0.9866    0.9845 H   0  0  0  0  0  0  0  0  0  0  0  0
    0.1222   -0.5674   -1.0175 H   0  0  0  0  0  0  0  0  0  0  0  0
   -2.5038   -0.2169    1.8565 C   0  0  0  0  0  0  0  0  0  0  0  0
  9 12  1  0
  9 10  2  0
 12  7  2  0
 10 11  1  0
  7 17  1  0
  7  6  1  0
 11  6  2  0
  6 16  1  0
 16  1  1  0
 14  1  1  0
 14  5  1  0
  1  2  1  0
  5  8  1  0
  5 39  1  0
  8 15  1  0
  8  3  1  0
  2  3  1  0
 39 13  1  0
  3  4  1  0
 13  4  1  0
  1 18  1  6
  2 19  1  0
  2 20  1  0
  3 21  1  6
  4 22  1  0
  4 23  1  0
 39 24  1  0
 39 25  1  0
  5 26  1  1
  9 27  1  0
 10 28  1  0
 11 29  1  0
 12 30  1  0
 13 31  1  0
 13 32  1  0
 14 33  1  0
 14 34  1  0
 15 35  1  0
 15 36  1  0
 15 37  1  0
 16 38  1  0
M  END
