
     RDKit          3D

 48 51  0  0  0  0  0  0  0  0999 V2000
   -1.0755    2.3315   -1.2327 C   0  0  0  0  0  0  0  0  0  0  0  0
    0.1334    0.4487   -0.4108 C   0  0  0  0  0  0  0  0  0  0  0  0
    2.5884    0.6819    0.0002 C   0  0  0  0  0  0  0  0  0  0  0  0
    3.8909   -0.7176    1.4798 C   0  0  0  0  0  0  0  0  0  0  0  0
    5.0512   -0.3399    0.8191 C   0  0  0  0  0  0  0  0  0  0  0  0
    5.0004    0.5436   -0.2486 C   0  0  0  0  0  0  0  0  0  0  0  0
   -8.8170    0.1239    2.2427 C   0  0  0  0  0  0  0  0  0  0  0  0
   -3.7732   -1.6423   -1.3921 C   0  0  0  0  0  0  0  0  0  0  0  0
   -4.7769   -1.0476   -0.5144 C   0  0  0  0  0  0  0  0  0  0  0  0
   -5.4586    0.7171    1.0217 C   0  0  0  0  0  0  0  0  0  0  0  0
   -6.6899    0.1053    1.1850 C   0  0  0  0  0  0  0  0  0  0  0  0
    0.0163    3.0822   -1.2569 N   0  0  0  0  0  0  0  0  0  0  0  0
   -2.5153   -0.9273   -1.5101 C   0  0  0  0  0  0  0  0  0  0  0  0
   -1.4977   -1.4900   -2.4541 C   0  0  0  0  0  0  0  0  0  0  0  0
   -1.0723    1.0035   -0.8173 C   0  0  0  0  0  0  0  0  0  0  0  0
    7.8631    0.4390    0.7117 F   0  0  0  0  0  0  0  0  0  0  0  0
    7.3877   -1.2609   -0.5147 F   0  0  0  0  0  0  0  0  0  0  0  0
    8.2396   -1.5479    1.4416 F   0  0  0  0  0  0  0  0  0  0  0  0
    6.2007   -0.9044    1.3335 O   0  0  0  0  0  0  0  0  0  0  0  0
    3.7674    1.0415   -0.6464 C   0  0  0  0  0  0  0  0  0  0  0  0
    2.6731   -0.2065    1.0727 C   0  0  0  0  0  0  0  0  0  0  0  0
    1.2883    1.2224   -0.4302 C   0  0  0  0  0  0  0  0  0  0  0  0
    1.1595    2.5429   -0.8635 C   0  0  0  0  0  0  0  0  0  0  0  0
   -2.3228    0.2175   -0.7924 C   0  0  0  0  0  0  0  0  0  0  0  0
   -6.0321   -1.6392   -0.3320 C   0  0  0  0  0  0  0  0  0  0  0  0
   -3.2900    0.7329    0.0102 N   0  0  0  0  0  0  0  0  0  0  0  0
   -4.5097    0.1433    0.1752 C   0  0  0  0  0  0  0  0  0  0  0  0
   -6.9811   -1.0870    0.4949 C   0  0  0  0  0  0  0  0  0  0  0  0
   -7.5479    0.7114    2.0161 O   0  0  0  0  0  0  0  0  0  0  0  0
   -1.9954    2.7984   -1.5694 H   0  0  0  0  0  0  0  0  0  0  0  0
    0.1686   -0.5855   -0.0901 H   0  0  0  0  0  0  0  0  0  0  0  0
    3.9433   -1.4020    2.3161 H   0  0  0  0  0  0  0  0  0  0  0  0
    5.8769    0.8643   -0.7922 H   0  0  0  0  0  0  0  0  0  0  0  0
   -9.3259    0.7644    2.9580 H   0  0  0  0  0  0  0  0  0  0  0  0
   -9.4121    0.0744    1.3280 H   0  0  0  0  0  0  0  0  0  0  0  0
   -8.7308   -0.8793    2.6658 H   0  0  0  0  0  0  0  0  0  0  0  0
   -5.2352    1.6373    1.5483 H   0  0  0  0  0  0  0  0  0  0  0  0
   -1.9474   -1.6830   -3.4288 H   0  0  0  0  0  0  0  0  0  0  0  0
   -0.6566   -0.8184   -2.6073 H   0  0  0  0  0  0  0  0  0  0  0  0
   -1.1008   -2.4420   -2.0959 H   0  0  0  0  0  0  0  0  0  0  0  0
    3.7417    1.7124   -1.4955 H   0  0  0  0  0  0  0  0  0  0  0  0
    1.7817   -0.4958    1.6147 H   0  0  0  0  0  0  0  0  0  0  0  0
    2.0259    3.1957   -0.8741 H   0  0  0  0  0  0  0  0  0  0  0  0
   -6.2585   -2.5583   -0.8560 H   0  0  0  0  0  0  0  0  0  0  0  0
   -7.9385   -1.5773    0.6020 H   0  0  0  0  0  0  0  0  0  0  0  0
   -3.0813    1.5636    0.5438 H   0  0  0  0  0  0  0  0  0  0  0  0
   -3.9843   -2.6904   -2.0065 O   0  0  0  0  0  0  0  0  0  0  0  0
    7.3952   -0.8102    0.7394 C   0  0  1  0  0  0  0  0  0  0  0  0
 48 17  1  6
 19 48  1  0
 19  5  1  0
 48 16  1  0
 48 18  1  0
  5  4  2  0
  5  6  1  0
  4 21  1  0
  6 20  2  0
 21  3  2  0
 20  3  1  0
  3 22  1  0
 22 23  2  0
 22  2  1  0
 23 12  1  0
  2 15  2  0
 12  1  2  0
 15  1  1  0
 15 24  1  0
 14 13  1  0
 24 13  2  0
 24 26  1  0
 13  8  1  0
 26 27  1  0
  8 47  2  0
  8  9  1  0
 27  9  2  0
 27 10  1  0
  9 25  1  0
 10 11  2  0
 25 28  2  0
 11 28  1  0
 11 29  1  0
 29  7  1  0
  1 30  1  0
  2 31  1  0
  4 32  1  0
  6 33  1  0
  7 34  1  0
  7 35  1  0
  7 36  1  0
 10 37  1  0
 14 38  1  0
 14 39  1  0
 14 40  1  0
 20 41  1  0
 21 42  1  0
 23 43  1  0
 25 44  1  0
 28 45  1  0
 26 46  1  0
M  END
