
     RDKit          3D

 23 23  0  0  0  0  0  0  0  0999 V2000
    1.1592    0.9460    1.9555 N   0  0  0  0  0  0  0  0  0  0  0  0
   -0.1773    0.4085    2.0826 C   0  0  2  0  0  0  0  0  0  0  0  0
   -0.5284    0.0286    3.5151 C   0  0  0  0  0  0  0  0  0  0  0  0
    0.2836   -0.4222    4.3203 O   0  0  0  0  0  0  0  0  0  0  0  0
   -0.4941   -0.8287    1.2131 C   0  0  0  0  0  0  0  0  0  0  0  0
   -0.3344   -0.5352   -0.2342 C   0  0  0  0  0  0  0  0  0  0  0  0
    0.8718   -0.8154   -0.8849 C   0  0  0  0  0  0  0  0  0  0  0  0
   -1.3948    0.0217   -0.9629 C   0  0  0  0  0  0  0  0  0  0  0  0
    1.0264   -0.5464   -2.2426 C   0  0  0  0  0  0  0  0  0  0  0  0
   -1.2621    0.2978   -2.3179 C   0  0  0  0  0  0  0  0  0  0  0  0
   -0.0432    0.0107   -2.9565 C   0  0  0  0  0  0  0  0  0  0  0  0
    0.0294    0.3038   -4.2984 O   0  0  0  0  0  0  0  0  0  0  0  0
    1.8122    0.4080    2.4930 H   0  0  0  0  0  0  0  0  0  0  0  0
    1.4398    0.9471    0.9933 H   0  0  0  0  0  0  0  0  0  0  0  0
   -0.8805    1.2377    1.7636 H   0  0  0  0  0  0  0  0  0  0  0  0
   -1.6003    0.1718    3.7734 H   0  0  0  0  0  0  0  0  0  0  0  0
    0.1791   -1.6752    1.5131 H   0  0  0  0  0  0  0  0  0  0  0  0
   -1.5502   -1.1465    1.4215 H   0  0  0  0  0  0  0  0  0  0  0  0
    1.7073   -1.2599   -0.3227 H   0  0  0  0  0  0  0  0  0  0  0  0
   -2.3462    0.2431   -0.4551 H   0  0  0  0  0  0  0  0  0  0  0  0
    1.9758   -0.7699   -2.7490 H   0  0  0  0  0  0  0  0  0  0  0  0
   -2.0882    0.7337   -2.8970 H   0  0  0  0  0  0  0  0  0  0  0  0
    0.9134    0.0610   -4.6102 H   0  0  0  0  0  0  0  0  0  0  0  0
  1  2  1  0
  1 13  1  0
  1 14  1  0
  2  3  1  0
  2  5  1  0
  2 15  1  6
  3  4  2  0
  3 16  1  0
  5  6  1  0
  5 17  1  0
  5 18  1  0
  6  7  2  0
  6  8  1  0
  7  9  1  0
  7 19  1  0
  8 10  2  0
  8 20  1  0
  9 11  2  0
  9 21  1  0
 10 11  1  0
 10 22  1  0
 11 12  1  0
 12 23  1  0
M  END
