
     RDKit          3D

 56 55  0  0  0  0  0  0  0  0999 V2000
   -9.8437    1.5504   -1.3142 C   0  0  0  0  0  0  0  0  0  0  0  0
   -8.8794    0.3714   -1.3079 C   0  0  0  0  0  0  0  0  0  0  0  0
   -7.8819    0.4088   -0.1563 C   0  0  2  0  0  0  0  0  0  0  0  0
   -6.8849   -0.7560   -0.2156 C   0  0  1  0  0  0  0  0  0  0  0  0
   -5.7477   -0.5799    0.7949 C   0  0  0  0  0  0  0  0  0  0  0  0
   -4.7141   -1.6573    0.6939 C   0  0  0  0  0  0  0  0  0  0  0  0
   -3.4486   -1.5180    0.3016 C   0  0  0  0  0  0  0  0  0  0  0  0
   -2.7525   -0.2487   -0.1025 C   0  0  0  0  0  0  0  0  0  0  0  0
   -1.7910    0.1783    0.9693 C   0  0  0  0  0  0  0  0  0  0  0  0
   -0.4604    0.1469    0.9285 C   0  0  0  0  0  0  0  0  0  0  0  0
    0.4100   -0.2835   -0.2167 C   0  0  0  0  0  0  0  0  0  0  0  0
    1.1949    0.8820   -0.7452 C   0  0  0  0  0  0  0  0  0  0  0  0
    2.5134    1.0642   -0.6985 C   0  0  0  0  0  0  0  0  0  0  0  0
   10.7374    1.3955    1.8224 O   0  0  0  0  0  0  0  0  0  0  0  0
    9.9961    0.5266    1.1400 C   0  0  0  0  0  0  0  0  0  0  0  0
   10.3302   -0.6175    0.9568 O   0  0  0  0  0  0  0  0  0  0  0  0
    8.7209    1.1493    0.6447 C   0  0  0  0  0  0  0  0  0  0  0  0
    7.8457    0.2021   -0.1581 C   0  0  0  0  0  0  0  0  0  0  0  0
    6.5765    0.8977   -0.6509 C   0  0  0  0  0  0  0  0  0  0  0  0
    5.7201   -0.0167   -1.4685 C   0  0  0  0  0  0  0  0  0  0  0  0
    4.4506   -0.3555   -1.2499 C   0  0  0  0  0  0  0  0  0  0  0  0
    3.5525    0.1302   -0.1479 C   0  0  0  0  0  0  0  0  0  0  0  0
   -7.5275   -2.0060   -0.0668 O   0  0  0  0  0  0  0  0  0  0  0  0
  -10.4808    1.5591   -0.4300 H   0  0  0  0  0  0  0  0  0  0  0  0
   -9.3068    2.5004   -1.3450 H   0  0  0  0  0  0  0  0  0  0  0  0
  -10.4958    1.5117   -2.1867 H   0  0  0  0  0  0  0  0  0  0  0  0
   -9.4395   -0.5690   -1.2801 H   0  0  0  0  0  0  0  0  0  0  0  0
   -8.3149    0.3578   -2.2443 H   0  0  0  0  0  0  0  0  0  0  0  0
   -7.2987    1.3337   -0.2408 H   0  0  0  0  0  0  0  0  0  0  0  0
   -6.4492   -0.7610   -1.2210 H   0  0  0  0  0  0  0  0  0  0  0  0
   -5.3033    0.4062    0.6476 H   0  0  0  0  0  0  0  0  0  0  0  0
   -6.1705   -0.5735    1.8062 H   0  0  0  0  0  0  0  0  0  0  0  0
   -5.0438   -2.6547    0.9664 H   0  0  0  0  0  0  0  0  0  0  0  0
   -2.8191   -2.4031    0.2921 H   0  0  0  0  0  0  0  0  0  0  0  0
   -2.2352   -0.4090   -1.0506 H   0  0  0  0  0  0  0  0  0  0  0  0
   -3.4753    0.5521   -0.2747 H   0  0  0  0  0  0  0  0  0  0  0  0
   -2.2593    0.5218    1.8873 H   0  0  0  0  0  0  0  0  0  0  0  0
    0.0794    0.4864    1.8080 H   0  0  0  0  0  0  0  0  0  0  0  0
    1.0752   -1.0813    0.1212 H   0  0  0  0  0  0  0  0  0  0  0  0
   -0.1921   -0.7085   -1.0229 H   0  0  0  0  0  0  0  0  0  0  0  0
    0.5940    1.6704   -1.1898 H   0  0  0  0  0  0  0  0  0  0  0  0
    2.9098    1.9820   -1.1233 H   0  0  0  0  0  0  0  0  0  0  0  0
   11.5498    0.9672    2.1307 H   0  0  0  0  0  0  0  0  0  0  0  0
    8.1748    1.5357    1.5113 H   0  0  0  0  0  0  0  0  0  0  0  0
    8.9803    2.0311    0.0499 H   0  0  0  0  0  0  0  0  0  0  0  0
    8.4029   -0.1856   -1.0148 H   0  0  0  0  0  0  0  0  0  0  0  0
    7.5711   -0.6626    0.4506 H   0  0  0  0  0  0  0  0  0  0  0  0
    6.0245    1.3012    0.2005 H   0  0  0  0  0  0  0  0  0  0  0  0
    6.8637    1.7606   -1.2625 H   0  0  0  0  0  0  0  0  0  0  0  0
    6.2121   -0.4539   -2.3338 H   0  0  0  0  0  0  0  0  0  0  0  0
    3.9790   -1.0351   -1.9540 H   0  0  0  0  0  0  0  0  0  0  0  0
    4.1275    0.6497    0.6223 H   0  0  0  0  0  0  0  0  0  0  0  0
    3.0856   -0.7277    0.3399 H   0  0  0  0  0  0  0  0  0  0  0  0
   -7.7943   -2.1005    0.8540 H   0  0  0  0  0  0  0  0  0  0  0  0
   -8.5223    0.4709    1.1052 O   0  0  0  0  0  0  0  0  0  0  0  0
   -9.2736   -0.1312    1.1003 H   0  0  0  0  0  0  0  0  0  0  0  0
 20 21  2  0
 20 19  1  0
 21 22  1  0
 19 18  1  0
 22 13  1  0
 18 17  1  0
 16 15  2  0
 13 12  2  0
 17 15  1  0
 15 14  1  0
 12 11  1  0
 11 10  1  0
 10  9  2  0
  7  8  1  0
  7  6  2  0
  9  8  1  0
  6  5  1  0
  5  4  1  0
  4  3  1  0
  4 23  1  0
  3  2  1  0
  2  1  1  0
  1 24  1  0
  1 25  1  0
  1 26  1  0
  2 27  1  0
  2 28  1  0
  3 29  1  6
  4 30  1  6
  5 31  1  0
  5 32  1  0
  6 33  1  0
  7 34  1  0
  8 35  1  0
  8 36  1  0
  9 37  1  0
 10 38  1  0
 11 39  1  0
 11 40  1  0
 12 41  1  0
 13 42  1  0
 14 43  1  0
 17 44  1  0
 17 45  1  0
 18 46  1  0
 18 47  1  0
 19 48  1  0
 19 49  1  0
 20 50  1  0
 21 51  1  0
 22 52  1  0
 22 53  1  0
 23 54  1  0
  3 55  1  0
 55 56  1  0
M  END
