
     RDKit          3D

 38 37  0  0  0  0  0  0  0  0999 V2000
   -8.5281    0.4398    0.0152 N   0  0  0  0  0  0  0  0  0  0  0  0
   -7.3142   -0.3329    0.2328 C   0  0  0  0  0  0  0  0  0  0  0  0
   -6.0841    0.5324    0.0113 C   0  0  0  0  0  0  0  0  0  0  0  0
   -4.8692   -0.2254    0.2369 N   0  0  0  0  0  0  0  0  0  0  0  0
   -3.6584    0.5301   -0.0193 C   0  0  0  0  0  0  0  0  0  0  0  0
   -2.4195   -0.3542    0.1363 C   0  0  1  0  0  0  0  0  0  0  0  0
   -2.4475   -1.5383   -0.7127 N   0  0  0  0  0  0  0  0  0  0  0  0
   -1.1530    0.4545   -0.1204 C   0  0  0  0  0  0  0  0  0  0  0  0
    0.1331   -0.3137    0.1527 C   0  0  0  0  0  0  0  0  0  0  0  0
    1.3622    0.5223   -0.1647 C   0  0  0  0  0  0  0  0  0  0  0  0
    2.5671   -0.2133    0.1558 N   0  0  0  0  0  0  0  0  0  0  0  0
    3.7833    0.3668    0.0010 C   0  0  0  0  0  0  0  0  0  0  0  0
    3.9348    1.5526   -0.4163 N   0  0  0  0  0  0  0  0  0  0  0  0
    4.7882   -0.5192    0.4701 N   0  0  0  0  0  0  0  0  0  0  0  0
    6.0487   -0.5931    0.0238 N   0  0  0  0  0  0  0  0  0  0  0  0
    6.7413   -1.4413    0.5389 O   0  0  0  0  0  0  0  0  0  0  0  0
    6.4076    0.1684   -0.8425 O   0  0  0  0  0  0  0  0  0  0  0  0
   -8.5998    0.6792   -0.9663 H   0  0  0  0  0  0  0  0  0  0  0  0
   -9.3334   -0.1412    0.2091 H   0  0  0  0  0  0  0  0  0  0  0  0
   -7.3179   -0.6887    1.2675 H   0  0  0  0  0  0  0  0  0  0  0  0
   -7.2326   -1.2250   -0.4034 H   0  0  0  0  0  0  0  0  0  0  0  0
   -6.0766    0.8882   -1.0246 H   0  0  0  0  0  0  0  0  0  0  0  0
   -6.1560    1.4289    0.6468 H   0  0  0  0  0  0  0  0  0  0  0  0
   -4.8566   -0.5372    1.2020 H   0  0  0  0  0  0  0  0  0  0  0  0
   -3.6989    0.9057   -1.0483 H   0  0  0  0  0  0  0  0  0  0  0  0
   -3.5661    1.4146    0.6321 H   0  0  0  0  0  0  0  0  0  0  0  0
   -2.3921   -0.7012    1.1783 H   0  0  0  0  0  0  0  0  0  0  0  0
   -3.3618   -1.9663   -0.6192 H   0  0  0  0  0  0  0  0  0  0  0  0
   -2.3940   -1.2418   -1.6822 H   0  0  0  0  0  0  0  0  0  0  0  0
   -1.1608    0.8067   -1.1591 H   0  0  0  0  0  0  0  0  0  0  0  0
   -1.1762    1.3514    0.5058 H   0  0  0  0  0  0  0  0  0  0  0  0
    0.1612   -0.6194    1.2029 H   0  0  0  0  0  0  0  0  0  0  0  0
    0.1470   -1.2292   -0.4439 H   0  0  0  0  0  0  0  0  0  0  0  0
    1.3501    0.8189   -1.2197 H   0  0  0  0  0  0  0  0  0  0  0  0
    1.3551    1.4444    0.4205 H   0  0  0  0  0  0  0  0  0  0  0  0
    2.5186   -1.2146    0.0434 H   0  0  0  0  0  0  0  0  0  0  0  0
    4.8896    1.8758   -0.3588 H   0  0  0  0  0  0  0  0  0  0  0  0
    4.5642   -1.2329    1.1511 H   0  0  0  0  0  0  0  0  0  0  0  0
  1  2  1  0
  1 18  1  0
  1 19  1  0
  2  3  1  0
  2 20  1  0
  2 21  1  0
  3  4  1  0
  3 22  1  0
  3 23  1  0
  4  5  1  0
  4 24  1  0
  5  6  1  0
  5 25  1  0
  5 26  1  0
  6  7  1  0
  6  8  1  0
  6 27  1  1
  7 28  1  0
  7 29  1  0
  8  9  1  0
  8 30  1  0
  8 31  1  0
  9 10  1  0
  9 32  1  0
  9 33  1  0
 10 11  1  0
 10 34  1  0
 10 35  1  0
 11 12  1  0
 11 36  1  0
 12 13  2  0
 12 14  1  0
 13 37  1  0
 14 15  1  0
 14 38  1  0
 15 16  2  0
 15 17  1  0
M  CHG  2  15   1  17  -1
M  END
