
     RDKit          3D

 45 47  0  0  0  0  0  0  0  0999 V2000
   -2.3870    0.2312   -2.6690 Cl  0  0  0  0  0  0  0  0  0  0  0  0
   -1.9377    1.4840   -1.5518 C   0  0  0  0  0  0  0  0  0  0  0  0
   -1.8352    2.7722   -2.0555 C   0  0  0  0  0  0  0  0  0  0  0  0
   -1.4775    3.8133   -1.2129 C   0  0  0  0  0  0  0  0  0  0  0  0
   -1.2213    3.5587    0.1256 C   0  0  0  0  0  0  0  0  0  0  0  0
   -1.3242    2.2640    0.6098 C   0  0  0  0  0  0  0  0  0  0  0  0
   -1.6866    1.1979   -0.2106 C   0  0  0  0  0  0  0  0  0  0  0  0
   -1.8048   -0.1843    0.4038 C   0  0  1  0  0  0  0  0  0  0  0  0
   -3.2769   -0.5928    0.5152 C   0  0  2  0  0  0  0  0  0  0  0  0
   -3.9487    0.1368    1.6565 C   0  0  0  0  0  0  0  0  0  0  0  0
   -3.3944    0.5539    2.6421 O   0  0  0  0  0  0  0  0  0  0  0  0
   -5.2575    0.2191    1.4654 O   0  0  0  0  0  0  0  0  0  0  0  0
   -3.4074   -2.1019    0.7119 C   0  0  0  0  0  0  0  0  0  0  0  0
   -2.7943   -2.7760   -0.4984 C   0  0  0  0  0  0  0  0  0  0  0  0
   -1.3532   -2.3895   -0.7079 C   0  0  0  0  0  0  0  0  0  0  0  0
   -0.5666   -3.1637   -1.2359 O   0  0  0  0  0  0  0  0  0  0  0  0
   -0.9678   -1.1593   -0.2914 N   0  0  0  0  0  0  0  0  0  0  0  0
    0.4456   -0.8251   -0.3495 C   0  0  0  0  0  0  0  0  0  0  0  0
    1.1986   -1.2565    0.9127 C   0  0  0  0  0  0  0  0  0  0  0  0
    2.6352   -0.8275    0.8437 C   0  0  0  0  0  0  0  0  0  0  0  0
    3.0477    0.3848    1.3894 C   0  0  0  0  0  0  0  0  0  0  0  0
    4.3644    0.8102    1.2886 C   0  0  0  0  0  0  0  0  0  0  0  0
    5.2813    0.0091    0.6272 C   0  0  0  0  0  0  0  0  0  0  0  0
    6.9322    0.5280    0.4998 Cl  0  0  0  0  0  0  0  0  0  0  0  0
    4.9009   -1.2018    0.0700 C   0  0  0  0  0  0  0  0  0  0  0  0
    3.5799   -1.6089    0.1828 C   0  0  0  0  0  0  0  0  0  0  0  0
   -2.0350    2.9592   -3.1020 H   0  0  0  0  0  0  0  0  0  0  0  0
   -1.3992    4.8175   -1.6075 H   0  0  0  0  0  0  0  0  0  0  0  0
   -0.9385    4.3629    0.7914 H   0  0  0  0  0  0  0  0  0  0  0  0
   -1.1173    2.0707    1.6549 H   0  0  0  0  0  0  0  0  0  0  0  0
   -1.4175   -0.1029    1.4246 H   0  0  0  0  0  0  0  0  0  0  0  0
   -3.8076   -0.3368   -0.4046 H   0  0  0  0  0  0  0  0  0  0  0  0
   -2.8964   -2.4130    1.6269 H   0  0  0  0  0  0  0  0  0  0  0  0
   -4.4550   -2.3869    0.8112 H   0  0  0  0  0  0  0  0  0  0  0  0
   -5.6839    0.6236    2.2364 H   0  0  0  0  0  0  0  0  0  0  0  0
   -2.8383   -3.8615   -0.4147 H   0  0  0  0  0  0  0  0  0  0  0  0
   -3.3552   -2.5037   -1.3982 H   0  0  0  0  0  0  0  0  0  0  0  0
    0.8902   -1.2907   -1.2268 H   0  0  0  0  0  0  0  0  0  0  0  0
    0.5470    0.2524   -0.4866 H   0  0  0  0  0  0  0  0  0  0  0  0
    0.7232   -0.8195    1.7946 H   0  0  0  0  0  0  0  0  0  0  0  0
    1.1306   -2.3410    1.0183 H   0  0  0  0  0  0  0  0  0  0  0  0
    2.3348    1.0110    1.9129 H   0  0  0  0  0  0  0  0  0  0  0  0
    3.2845   -2.5571   -0.2505 H   0  0  0  0  0  0  0  0  0  0  0  0
    4.6690    1.7525    1.7233 H   0  0  0  0  0  0  0  0  0  0  0  0
    5.6219   -1.8231   -0.4438 H   0  0  0  0  0  0  0  0  0  0  0  0
  1  2  1  0
  2  3  2  0
  2  7  1  0
  3  4  1  0
  4  5  2  0
  5  6  1  0
  6  7  2  0
  7  8  1  0
  8  9  1  0
  8 17  1  0
  9 10  1  0
  9 13  1  0
 10 11  2  0
 10 12  1  0
 13 14  1  0
 14 15  1  0
 15 16  2  0
 15 17  1  0
 17 18  1  0
 18 19  1  0
 19 20  1  0
 20 21  2  0
 20 26  1  0
 21 22  1  0
 22 23  2  0
 23 24  1  0
 23 25  1  0
 25 26  2  0
  3 27  1  0
  4 28  1  0
  5 29  1  0
  6 30  1  0
  8 31  1  1
  9 32  1  6
 13 33  1  0
 13 34  1  0
 12 35  1  0
 14 36  1  0
 14 37  1  0
 18 38  1  0
 18 39  1  0
 19 40  1  0
 19 41  1  0
 21 42  1  0
 26 43  1  0
 22 44  1  0
 25 45  1  0
M  END
