
     RDKit          3D

 27 28  0  0  0  0  0  0  0  0999 V2000
   -1.8045    0.2132   -0.0338 C   0  0  0  0  0  0  0  0  0  0  0  0
    3.2192    0.3603   -0.0322 N   0  0  0  0  0  0  0  0  0  0  0  0
   -3.6231   -0.0408    0.4172 Br  0  0  0  0  0  0  0  0  0  0  0  0
   -0.9144    0.6507    0.9379 C   0  0  0  0  0  0  0  0  0  0  0  0
    0.4175    0.8328    0.5998 C   0  0  0  0  0  0  0  0  0  0  0  0
    0.8737    0.5855   -0.6928 C   0  0  0  0  0  0  0  0  0  0  0  0
    2.3164    0.8245   -1.0544 C   0  0  0  0  0  0  0  0  0  0  0  0
    4.6012    0.7540   -0.2390 C   0  0  0  0  0  0  0  0  0  0  0  0
    5.3613   -0.0658    0.8025 C   0  0  0  0  0  0  0  0  0  0  0  0
    4.4867   -1.3227    1.0048 C   0  0  0  0  0  0  0  0  0  0  0  0
    3.2656   -1.0843    0.1126 C   0  0  0  0  0  0  0  0  0  0  0  0
   -0.0382    0.1412   -1.6425 C   0  0  0  0  0  0  0  0  0  0  0  0
   -1.3785   -0.0452   -1.3263 C   0  0  0  0  0  0  0  0  0  0  0  0
   -1.2459    0.8508    1.9482 H   0  0  0  0  0  0  0  0  0  0  0  0
    1.1168    1.1605    1.3585 H   0  0  0  0  0  0  0  0  0  0  0  0
    2.4710    1.9010   -1.1834 H   0  0  0  0  0  0  0  0  0  0  0  0
    2.5301    0.3647   -2.0350 H   0  0  0  0  0  0  0  0  0  0  0  0
    4.9503    0.4969   -1.2539 H   0  0  0  0  0  0  0  0  0  0  0  0
    4.7238    1.8320   -0.1156 H   0  0  0  0  0  0  0  0  0  0  0  0
    6.3702   -0.3038    0.4674 H   0  0  0  0  0  0  0  0  0  0  0  0
    5.4527    0.4919    1.7349 H   0  0  0  0  0  0  0  0  0  0  0  0
    5.0031   -2.2412    0.7277 H   0  0  0  0  0  0  0  0  0  0  0  0
    4.1912   -1.4248    2.0491 H   0  0  0  0  0  0  0  0  0  0  0  0
    2.3392   -1.4708    0.5413 H   0  0  0  0  0  0  0  0  0  0  0  0
    3.4045   -1.5759   -0.8657 H   0  0  0  0  0  0  0  0  0  0  0  0
    0.2947   -0.0717   -2.6513 H   0  0  0  0  0  0  0  0  0  0  0  0
   -2.0672   -0.3931   -2.0848 H   0  0  0  0  0  0  0  0  0  0  0  0
  1  3  1  0
  1  4  2  0
  1 13  1  0
  2  7  1  0
  2  8  1  0
  2 11  1  0
  4  5  1  0
  5  6  2  0
  6  7  1  0
  6 12  1  0
  8  9  1  0
  9 10  1  0
 10 11  1  0
 12 13  2  0
  4 14  1  0
  5 15  1  0
  7 16  1  0
  7 17  1  0
  8 18  1  0
  8 19  1  0
  9 20  1  0
  9 21  1  0
 10 22  1  0
 10 23  1  0
 11 24  1  0
 11 25  1  0
 12 26  1  0
 13 27  1  0
M  END
