
     RDKit          3D

 19 18  0  0  0  0  0  0  0  0999 V2000
    3.2089   -1.1212   -0.9886 O   0  0  0  0  0  0  0  0  0  0  0  0
    3.8769    0.3543    0.5527 O   0  0  0  0  0  0  0  0  0  0  0  0
    3.0590   -0.1254   -0.2660 C   0  0  0  0  0  0  0  0  0  0  0  0
    1.7245    0.6467   -0.3699 C   0  0  2  0  0  0  0  0  0  0  0  0
    1.7542    1.7384    0.5179 O   0  0  0  0  0  0  0  0  0  0  0  0
    0.5417   -0.2658   -0.0528 C   0  0  1  0  0  0  0  0  0  0  0  0
    0.6585   -0.7901    1.2541 O   0  0  0  0  0  0  0  0  0  0  0  0
   -0.7856    0.4548   -0.2424 C   0  0  0  0  0  0  0  0  0  0  0  0
   -1.9128   -1.6438   -0.1288 O   0  0  0  0  0  0  0  0  0  0  0  0
   -1.9960   -0.4385   -0.1608 C   0  0  0  0  0  0  0  0  0  0  0  0
   -3.3929    0.2539   -0.1602 C   0  0  0  0  0  0  0  0  0  0  0  0
   -4.3688   -0.5088   -0.1739 O   0  0  0  0  0  0  0  0  0  0  0  0
   -3.3767    1.4967   -0.1511 O   0  0  0  0  0  0  0  0  0  0  0  0
    1.6179    0.9975   -1.4075 H   0  0  0  0  0  0  0  0  0  0  0  0
    2.6375    1.6401    0.9252 H   0  0  0  0  0  0  0  0  0  0  0  0
    0.5895   -1.1176   -0.7353 H   0  0  0  0  0  0  0  0  0  0  0  0
    0.7865   -0.0403    1.8465 H   0  0  0  0  0  0  0  0  0  0  0  0
   -0.8942    1.2730    0.4742 H   0  0  0  0  0  0  0  0  0  0  0  0
   -0.8160    0.9416   -1.2249 H   0  0  0  0  0  0  0  0  0  0  0  0
  1  3  2  0
  2  3  1  0
  3  4  1  0
  4  5  1  0
  4  6  1  0
  4 14  1  6
  5 15  1  0
  6  7  1  0
  6  8  1  0
  6 16  1  6
  7 17  1  0
  8 10  1  0
  8 18  1  0
  8 19  1  0
  9 10  2  0
 10 11  1  0
 11 12  2  0
 11 13  1  0
M  CHG  2   2  -1  13  -1
M  END
