
     RDKit          3D

 55 54  0  0  0  0  0  0  0  0999 V2000
   -1.6188   -0.9394   10.7088 C   0  0  0  0  0  0  0  0  0  0  0  0
   -1.5347    0.0300    9.5379 C   0  0  0  0  0  0  0  0  0  0  0  0
   -0.8256   -0.5661    8.3274 C   0  0  0  0  0  0  0  0  0  0  0  0
   -0.7376    0.3937    7.1478 C   0  0  0  0  0  0  0  0  0  0  0  0
   -0.0374   -0.2061    5.9346 C   0  0  0  0  0  0  0  0  0  0  0  0
    0.0558    0.7625    4.7625 C   0  0  0  0  0  0  0  0  0  0  0  0
    0.7486    0.1626    3.5444 C   0  0  0  0  0  0  0  0  0  0  0  0
    0.8362    1.1587    2.4059 C   0  0  0  0  0  0  0  0  0  0  0  0
    1.4778    0.5665    1.3014 O   0  0  0  0  0  0  0  0  0  0  0  0
    1.6616    1.4640    0.2371 C   0  0  0  0  0  0  0  0  0  0  0  0
    2.3398    0.7680   -0.9143 C   0  0  0  0  0  0  0  0  0  0  0  0
    1.4677   -0.1777   -1.4806 O   0  0  0  0  0  0  0  0  0  0  0  0
    2.0652   -0.9120   -2.5184 C   0  0  0  0  0  0  0  0  0  0  0  0
    1.0386   -1.7909   -3.1845 C   0  0  0  0  0  0  0  0  0  0  0  0
    0.0938   -0.9945   -3.8529 O   0  0  0  0  0  0  0  0  0  0  0  0
   -0.8600   -1.7534   -4.5511 C   0  0  0  0  0  0  0  0  0  0  0  0
   -1.8175   -0.8371   -5.2683 C   0  0  0  0  0  0  0  0  0  0  0  0
   -1.1310   -0.1101   -6.2538 O   0  0  0  0  0  0  0  0  0  0  0  0
   -1.9714    0.7517   -6.9794 C   0  0  0  0  0  0  0  0  0  0  0  0
   -1.1666    1.5176   -7.9981 C   0  0  0  0  0  0  0  0  0  0  0  0
   -0.6625    0.6265   -8.9668 O   0  0  0  0  0  0  0  0  0  0  0  0
   -0.6246   -1.2350   11.0492 H   0  0  0  0  0  0  0  0  0  0  0  0
   -2.1418   -0.5006   11.5593 H   0  0  0  0  0  0  0  0  0  0  0  0
   -2.1532   -1.8490   10.4272 H   0  0  0  0  0  0  0  0  0  0  0  0
   -2.5426    0.3421    9.2475 H   0  0  0  0  0  0  0  0  0  0  0  0
   -1.0139    0.9410    9.8487 H   0  0  0  0  0  0  0  0  0  0  0  0
    0.1834   -0.8788    8.6180 H   0  0  0  0  0  0  0  0  0  0  0  0
   -1.3473   -1.4782    8.0163 H   0  0  0  0  0  0  0  0  0  0  0  0
   -1.7468    0.7101    6.8619 H   0  0  0  0  0  0  0  0  0  0  0  0
   -0.2109    1.3035    7.4570 H   0  0  0  0  0  0  0  0  0  0  0  0
    0.9693   -0.5300    6.2198 H   0  0  0  0  0  0  0  0  0  0  0  0
   -0.5698   -1.1100    5.6187 H   0  0  0  0  0  0  0  0  0  0  0  0
   -0.9514    1.0897    4.4835 H   0  0  0  0  0  0  0  0  0  0  0  0
    0.5916    1.6637    5.0803 H   0  0  0  0  0  0  0  0  0  0  0  0
    1.7559   -0.1649    3.8195 H   0  0  0  0  0  0  0  0  0  0  0  0
    0.2035   -0.7271    3.2144 H   0  0  0  0  0  0  0  0  0  0  0  0
   -0.1720    1.4992    2.1264 H   0  0  0  0  0  0  0  0  0  0  0  0
    1.3876    2.0517    2.7370 H   0  0  0  0  0  0  0  0  0  0  0  0
    0.7023    1.8857   -0.0966 H   0  0  0  0  0  0  0  0  0  0  0  0
    2.2892    2.3133    0.5425 H   0  0  0  0  0  0  0  0  0  0  0  0
    2.6266    1.5289   -1.6534 H   0  0  0  0  0  0  0  0  0  0  0  0
    3.2698    0.2934   -0.5692 H   0  0  0  0  0  0  0  0  0  0  0  0
    2.5198   -0.2447   -3.2648 H   0  0  0  0  0  0  0  0  0  0  0  0
    2.8717   -1.5522   -2.1341 H   0  0  0  0  0  0  0  0  0  0  0  0
    1.5651   -2.4526   -3.8866 H   0  0  0  0  0  0  0  0  0  0  0  0
    0.5537   -2.4396   -2.4406 H   0  0  0  0  0  0  0  0  0  0  0  0
   -0.3742   -2.4261   -5.2730 H   0  0  0  0  0  0  0  0  0  0  0  0
   -1.4415   -2.3882   -3.8677 H   0  0  0  0  0  0  0  0  0  0  0  0
   -2.6117   -1.4547   -5.7114 H   0  0  0  0  0  0  0  0  0  0  0  0
   -2.3054   -0.1641   -4.5480 H   0  0  0  0  0  0  0  0  0  0  0  0
   -2.7730    0.1891   -7.4805 H   0  0  0  0  0  0  0  0  0  0  0  0
   -2.4619    1.4771   -6.3151 H   0  0  0  0  0  0  0  0  0  0  0  0
   -1.8310    2.2705   -8.4408 H   0  0  0  0  0  0  0  0  0  0  0  0
   -0.3623    2.0645   -7.4883 H   0  0  0  0  0  0  0  0  0  0  0  0
   -0.1431    1.1335   -9.5967 H   0  0  0  0  0  0  0  0  0  0  0  0
  1  2  1  0
  1 22  1  0
  1 23  1  0
  1 24  1  0
  2  3  1  0
  2 25  1  0
  2 26  1  0
  3  4  1  0
  3 27  1  0
  3 28  1  0
  4  5  1  0
  4 29  1  0
  4 30  1  0
  5  6  1  0
  5 31  1  0
  5 32  1  0
  6  7  1  0
  6 33  1  0
  6 34  1  0
  7  8  1  0
  7 35  1  0
  7 36  1  0
  8  9  1  0
  8 37  1  0
  8 38  1  0
  9 10  1  0
 10 11  1  0
 10 39  1  0
 10 40  1  0
 11 12  1  0
 11 41  1  0
 11 42  1  0
 12 13  1  0
 13 14  1  0
 13 43  1  0
 13 44  1  0
 14 15  1  0
 14 45  1  0
 14 46  1  0
 15 16  1  0
 16 17  1  0
 16 47  1  0
 16 48  1  0
 17 18  1  0
 17 49  1  0
 17 50  1  0
 18 19  1  0
 19 20  1  0
 19 51  1  0
 19 52  1  0
 20 21  1  0
 20 53  1  0
 20 54  1  0
 21 55  1  0
M  END
