
     RDKit          3D

 55 58  0  0  0  0  0  0  0  0999 V2000
   -8.0595    1.2602    0.1406 C   0  0  0  0  0  0  0  0  0  0  0  0
   -5.8528    1.2740    1.1645 C   0  0  0  0  0  0  0  0  0  0  0  0
   -5.4570    0.4713    0.0643 C   0  0  0  0  0  0  0  0  0  0  0  0
   -6.4037    0.1297   -0.9027 C   0  0  0  0  0  0  0  0  0  0  0  0
    4.2688   -3.6095    0.5285 O   0  0  0  0  0  0  0  0  0  0  0  0
    4.2445   -2.1698    2.5796 O   0  0  0  0  0  0  0  0  0  0  0  0
    4.7926   -1.2353    0.2684 N   0  0  0  0  0  0  0  0  0  0  0  0
    4.6655    0.1279    0.3679 C   0  0  0  0  0  0  0  0  0  0  0  0
    5.1998    0.9416   -0.6254 C   0  0  0  0  0  0  0  0  0  0  0  0
    5.8304    0.4105   -1.7004 O   0  0  0  0  0  0  0  0  0  0  0  0
    5.0100    0.3049   -2.8657 C   0  0  0  0  0  0  0  0  0  0  0  0
    5.0481    2.3161   -0.4334 C   0  0  0  0  0  0  0  0  0  0  0  0
    5.5499    3.1203   -1.3536 O   0  0  0  0  0  0  0  0  0  0  0  0
    5.4068    4.5272   -1.1736 C   0  0  0  0  0  0  0  0  0  0  0  0
    4.4244    2.8114    0.6237 N   0  0  0  0  0  0  0  0  0  0  0  0
    3.9432    1.9384    1.4929 C   0  0  0  0  0  0  0  0  0  0  0  0
    4.0353    0.6265    1.4290 N   0  0  0  0  0  0  0  0  0  0  0  0
    2.2505   -1.9802    0.9007 C   0  0  0  0  0  0  0  0  0  0  0  0
    1.6556   -2.3758   -0.2943 C   0  0  0  0  0  0  0  0  0  0  0  0
    0.3331   -2.0782   -0.5445 C   0  0  0  0  0  0  0  0  0  0  0  0
    1.5080   -1.2825    1.8531 C   0  0  0  0  0  0  0  0  0  0  0  0
    0.1890   -0.9849    1.6096 C   0  0  0  0  0  0  0  0  0  0  0  0
   -0.4323   -1.3672    0.4019 C   0  0  0  0  0  0  0  0  0  0  0  0
   -1.7230   -1.0534    0.1854 N   0  0  0  0  0  0  0  0  0  0  0  0
   -3.7999   -0.7140   -0.9863 C   0  0  0  0  0  0  0  0  0  0  0  0
   -4.6260   -0.8575   -2.2374 C   0  0  0  0  0  0  0  0  0  0  0  0
   -6.0208   -0.6643   -1.9141 N   0  0  0  0  0  0  0  0  0  0  0  0
   -7.6938    0.5025   -0.8679 N   0  0  0  0  0  0  0  0  0  0  0  0
   -4.1815   -0.0710    0.0369 N   0  0  0  0  0  0  0  0  0  0  0  0
   -5.1653    1.6458    2.1077 O   0  0  0  0  0  0  0  0  0  0  0  0
   -7.1994    1.6566    1.1067 N   0  0  0  0  0  0  0  0  0  0  0  0
   -9.3281    1.6579    0.2370 N   0  0  0  0  0  0  0  0  0  0  0  0
    5.2662   -1.6197   -0.5397 H   0  0  0  0  0  0  0  0  0  0  0  0
    4.1067   -0.2762   -2.6648 H   0  0  0  0  0  0  0  0  0  0  0  0
    4.7215    1.2869   -3.2437 H   0  0  0  0  0  0  0  0  0  0  0  0
    5.5988   -0.2082   -3.6225 H   0  0  0  0  0  0  0  0  0  0  0  0
    4.3584    4.8225   -1.1392 H   0  0  0  0  0  0  0  0  0  0  0  0
    5.9012    4.8659   -0.2634 H   0  0  0  0  0  0  0  0  0  0  0  0
    5.8832    4.9832   -2.0366 H   0  0  0  0  0  0  0  0  0  0  0  0
    3.4213    2.3459    2.3511 H   0  0  0  0  0  0  0  0  0  0  0  0
    2.2172   -2.9228   -1.0406 H   0  0  0  0  0  0  0  0  0  0  0  0
   -0.1068   -2.4056   -1.4765 H   0  0  0  0  0  0  0  0  0  0  0  0
    1.9600   -0.9690    2.7827 H   0  0  0  0  0  0  0  0  0  0  0  0
   -0.3817   -0.4427    2.3532 H   0  0  0  0  0  0  0  0  0  0  0  0
   -2.2252   -0.5049    0.8692 H   0  0  0  0  0  0  0  0  0  0  0  0
   -1.9045   -0.9441   -1.9049 H   0  0  0  0  0  0  0  0  0  0  0  0
   -2.5438   -2.4115   -1.1936 H   0  0  0  0  0  0  0  0  0  0  0  0
   -4.2733   -0.1346   -2.9872 H   0  0  0  0  0  0  0  0  0  0  0  0
   -9.9709    1.4198   -0.4981 H   0  0  0  0  0  0  0  0  0  0  0  0
   -9.6376    2.3028    0.9434 H   0  0  0  0  0  0  0  0  0  0  0  0
   -4.4890   -1.8493   -2.6723 H   0  0  0  0  0  0  0  0  0  0  0  0
   -6.7072   -0.8838   -2.6184 H   0  0  0  0  0  0  0  0  0  0  0  0
   -7.5354    2.2325    1.8669 H   0  0  0  0  0  0  0  0  0  0  0  0
   -2.4355   -1.3316   -1.0235 C   0  0  0  0  0  0  0  0  0  0  0  0
    3.9314   -2.3521    1.1771 S   0  0  1  0  0  0  0  0  0  0  0  0
 32  1  1  0
 31  1  1  0
 31  2  1  0
 30  2  2  0
  1 28  2  0
  2  3  1  0
 28  4  1  0
  3  4  2  0
  3 29  1  0
  4 27  1  0
 29 25  2  0
  5 55  2  0
 21 22  2  0
 21 18  1  0
 17 16  2  0
 17  8  1  0
 22 23  1  0
  7  8  1  0
 55  7  1  6
 16 15  1  0
 27 26  1  0
  8  9  2  0
 55 18  1  0
 55  6  2  0
 18 19  2  0
 25 26  1  0
 25 54  1  0
 23 24  1  0
 23 20  2  0
 24 54  1  0
 15 12  2  0
  9 12  1  0
  9 10  1  0
 19 20  1  0
 11 10  1  0
 12 13  1  0
 14 13  1  0
  7 33  1  0
 11 34  1  0
 11 35  1  0
 11 36  1  0
 14 37  1  0
 14 38  1  0
 14 39  1  0
 16 40  1  0
 19 41  1  0
 20 42  1  0
 21 43  1  0
 22 44  1  0
 24 45  1  0
 54 46  1  0
 54 47  1  0
 26 48  1  0
 32 49  1  0
 32 50  1  0
 26 51  1  0
 27 52  1  0
 31 53  1  0
M  END
