
     RDKit          3D

 64 68  0  0  0  0  0  0  0  0999 V2000
    7.0500    0.4399   -0.4165 C   0  0  0  0  0  0  0  0  0  0  0  0
    0.8538    1.2187   -1.4361 C   0  0  0  0  0  0  0  0  0  0  0  0
    6.4230   -0.8440   -0.9403 C   0  0  0  0  0  0  0  0  0  0  0  0
    4.9656   -0.9942   -0.5441 C   0  0  2  0  0  0  0  0  0  0  0  0
    2.1960   -1.1504   -0.9264 C   0  0  0  0  0  0  0  0  0  0  0  0
    4.8556   -0.7724    0.9619 C   0  0  0  0  0  0  0  0  0  0  0  0
    5.5311    0.5135    1.4124 C   0  0  0  0  0  0  0  0  0  0  0  0
    4.4009   -2.3438   -0.9663 C   0  0  0  0  0  0  0  0  0  0  0  0
    2.9145   -2.4227   -0.7413 C   0  0  0  0  0  0  0  0  0  0  0  0
    0.8030   -1.1016   -0.8754 C   0  0  0  0  0  0  0  0  0  0  0  0
    0.1097    0.0724   -1.1205 C   0  0  0  0  0  0  0  0  0  0  0  0
    6.9346    0.5458    1.0307 N   0  0  0  0  0  0  0  0  0  0  0  0
   -6.2171    0.1440    0.3556 N   0  0  0  0  0  0  0  0  0  0  0  0
    7.5154    1.8022    3.0805 C   0  0  0  0  0  0  0  0  0  0  0  0
    9.1137    1.7025    1.1878 C   0  0  0  0  0  0  0  0  0  0  0  0
    7.6321    1.7229    1.5591 C   0  0  1  0  0  0  0  0  0  0  0  0
    2.3455   -3.4613   -0.4771 O   0  0  0  0  0  0  0  0  0  0  0  0
    2.2316    1.2002   -1.4721 C   0  0  0  0  0  0  0  0  0  0  0  0
    2.9186    0.0159   -1.2044 C   0  0  0  0  0  0  0  0  0  0  0  0
    4.2537    0.0498   -1.2367 O   0  0  0  0  0  0  0  0  0  0  0  0
   -1.3615    0.1200   -1.0482 C   0  0  0  0  0  0  0  0  0  0  0  0
   -2.1037    0.8869   -1.9488 C   0  0  0  0  0  0  0  0  0  0  0  0
   -3.4842    0.9272   -1.8800 C   0  0  0  0  0  0  0  0  0  0  0  0
   -4.1663    0.2217   -0.8913 C   0  0  0  0  0  0  0  0  0  0  0  0
   -3.4326   -0.5519    0.0054 C   0  0  0  0  0  0  0  0  0  0  0  0
   -2.0516   -0.6035   -0.0756 C   0  0  0  0  0  0  0  0  0  0  0  0
   -5.6568    0.2949   -0.8718 C   0  0  0  0  0  0  0  0  0  0  0  0
   -6.2928    0.4903   -1.8927 O   0  0  0  0  0  0  0  0  0  0  0  0
   -7.5691    0.1312    0.7137 C   0  0  0  0  0  0  0  0  0  0  0  0
   -8.6264    0.0718   -0.1958 C   0  0  0  0  0  0  0  0  0  0  0  0
   -9.9328    0.0451    0.2743 C   0  0  0  0  0  0  0  0  0  0  0  0
  -10.2144    0.0767    1.6316 C   0  0  0  0  0  0  0  0  0  0  0  0
   -9.1607    0.1332    2.5342 C   0  0  0  0  0  0  0  0  0  0  0  0
   -7.8535    0.1604    2.0818 C   0  0  0  0  0  0  0  0  0  0  0  0
    8.1011    0.4184   -0.7000 H   0  0  0  0  0  0  0  0  0  0  0  0
    6.6070    1.3136   -0.9243 H   0  0  0  0  0  0  0  0  0  0  0  0
    0.3441    2.1552   -1.6248 H   0  0  0  0  0  0  0  0  0  0  0  0
    6.5258   -0.8875   -2.0274 H   0  0  0  0  0  0  0  0  0  0  0  0
    6.9687   -1.6991   -0.5330 H   0  0  0  0  0  0  0  0  0  0  0  0
    3.8142   -0.7633    1.2951 H   0  0  0  0  0  0  0  0  0  0  0  0
    5.3327   -1.6209    1.4599 H   0  0  0  0  0  0  0  0  0  0  0  0
    4.9828    1.3880    1.0208 H   0  0  0  0  0  0  0  0  0  0  0  0
    5.4438    0.5559    2.4966 H   0  0  0  0  0  0  0  0  0  0  0  0
    4.5780   -2.4998   -2.0382 H   0  0  0  0  0  0  0  0  0  0  0  0
    4.9036   -3.1548   -0.4380 H   0  0  0  0  0  0  0  0  0  0  0  0
    0.2649   -2.0178   -0.6654 H   0  0  0  0  0  0  0  0  0  0  0  0
   -5.5816    0.1304    1.1378 H   0  0  0  0  0  0  0  0  0  0  0  0
    6.5076    2.0285    3.4248 H   0  0  0  0  0  0  0  0  0  0  0  0
    7.8297    0.8615    3.5358 H   0  0  0  0  0  0  0  0  0  0  0  0
    8.1620    2.5933    3.4602 H   0  0  0  0  0  0  0  0  0  0  0  0
    9.2923    1.8359    0.1223 H   0  0  0  0  0  0  0  0  0  0  0  0
    9.6339    2.5135    1.6976 H   0  0  0  0  0  0  0  0  0  0  0  0
    9.5736    0.7611    1.4955 H   0  0  0  0  0  0  0  0  0  0  0  0
    7.1894    2.6425    1.1348 H   0  0  0  0  0  0  0  0  0  0  0  0
    2.7864    2.1032   -1.6901 H   0  0  0  0  0  0  0  0  0  0  0  0
   -1.6007    1.4412   -2.7312 H   0  0  0  0  0  0  0  0  0  0  0  0
   -4.0361    1.5136   -2.6024 H   0  0  0  0  0  0  0  0  0  0  0  0
   -3.9230   -1.1426    0.7693 H   0  0  0  0  0  0  0  0  0  0  0  0
   -1.5065   -1.2012    0.6438 H   0  0  0  0  0  0  0  0  0  0  0  0
   -8.4479    0.0464   -1.2577 H   0  0  0  0  0  0  0  0  0  0  0  0
  -10.7413   -0.0018   -0.4434 H   0  0  0  0  0  0  0  0  0  0  0  0
  -11.2379    0.0566    1.9808 H   0  0  0  0  0  0  0  0  0  0  0  0
   -9.3518    0.1569    3.5988 H   0  0  0  0  0  0  0  0  0  0  0  0
   -7.0427    0.2036    2.7997 H   0  0  0  0  0  0  0  0  0  0  0  0
 33 34  2  0
 33 32  1  0
 28 27  2  0
 34 29  1  0
 32 31  2  0
 25 26  2  0
 25 24  1  0
 27 13  1  0
 27 24  1  0
 29 13  1  0
 29 30  2  0
 26 21  1  0
 24 23  2  0
 31 30  1  0
 17  9  2  0
  9  5  1  0
  9  8  1  0
  3  1  1  0
  3  4  1  0
 10  5  2  0
 10 11  1  0
 21 11  1  0
 21 22  2  0
 23 22  1  0
  1 12  1  0
  5 19  1  0
 11  2  2  0
  8  4  1  0
 12 16  1  0
 12  7  1  0
  4 20  1  6
  4  6  1  0
 16 14  1  0
 16 15  1  0
 19 20  1  0
 19 18  2  0
  2 18  1  0
  6  7  1  0
  1 35  1  0
  1 36  1  0
  2 37  1  0
  3 38  1  0
  3 39  1  0
  6 40  1  0
  6 41  1  0
  7 42  1  0
  7 43  1  0
  8 44  1  0
  8 45  1  0
 10 46  1  0
 13 47  1  0
 14 48  1  0
 14 49  1  0
 14 50  1  0
 15 51  1  0
 15 52  1  0
 15 53  1  0
 16 54  1  6
 18 55  1  0
 22 56  1  0
 23 57  1  0
 25 58  1  0
 26 59  1  0
 30 60  1  0
 31 61  1  0
 32 62  1  0
 33 63  1  0
 34 64  1  0
M  END
