
     RDKit          3D

 45 47  0  0  0  0  0  0  0  0999 V2000
    5.0322   -1.2831   -0.0145 C   0  0  0  0  0  0  0  0  0  0  0  0
    6.3212   -1.3062    0.4951 C   0  0  0  0  0  0  0  0  0  0  0  0
    4.6392   -0.3155   -0.9372 C   0  0  0  0  0  0  0  0  0  0  0  0
    7.2187   -0.3441    0.0689 C   0  0  0  0  0  0  0  0  0  0  0  0
    5.5681    0.6388   -1.3344 C   0  0  0  0  0  0  0  0  0  0  0  0
    6.8669    0.6327   -0.8396 C   0  0  0  0  0  0  0  0  0  0  0  0
    3.2448   -0.3272   -1.5079 C   0  0  0  0  0  0  0  0  0  0  0  0
    2.2373   -0.5032   -0.4836 N   0  0  0  0  0  0  0  0  0  0  0  0
    1.1899    0.3258    1.5511 C   0  0  0  0  0  0  0  0  0  0  0  0
    2.1393    0.6356    0.4075 C   0  0  0  0  0  0  0  0  0  0  0  0
   -0.1087   -0.0716    1.0338 N   0  0  0  0  0  0  0  0  0  0  0  0
   -0.0415   -1.1615    0.0771 C   0  0  0  0  0  0  0  0  0  0  0  0
    0.9401   -0.8333   -1.0363 C   0  0  0  0  0  0  0  0  0  0  0  0
   -1.2114    0.6277    1.3160 C   0  0  0  0  0  0  0  0  0  0  0  0
   -2.5185    0.0759    0.8004 C   0  0  0  0  0  0  0  0  0  0  0  0
   -4.5198    0.2106   -0.5692 C   0  0  0  0  0  0  0  0  0  0  0  0
   -3.2536    0.6501   -0.2315 C   0  0  0  0  0  0  0  0  0  0  0  0
   -5.0540   -0.8381    0.1535 C   0  0  0  0  0  0  0  0  0  0  0  0
   -4.3620   -1.4354    1.1948 C   0  0  0  0  0  0  0  0  0  0  0  0
   -3.1001   -0.9667    1.5121 C   0  0  0  0  0  0  0  0  0  0  0  0
   -1.2655    1.6093    2.0388 O   0  0  0  0  0  0  0  0  0  0  0  0
   -6.3826   -1.3267   -0.1989 N   0  0  0  0  0  0  0  0  0  0  0  0
   -6.9522   -0.7940   -1.1192 O   0  0  0  0  0  0  0  0  0  0  0  0
   -6.8343   -2.2361    0.4514 O   0  0  0  0  0  0  0  0  0  0  0  0
   -2.6795    1.7310   -1.0220 N   0  0  0  0  0  0  0  0  0  0  0  0
   -1.4820    1.8755   -0.9766 O   0  0  0  0  0  0  0  0  0  0  0  0
    8.4710   -0.3603    0.5581 F   0  0  0  0  0  0  0  0  0  0  0  0
    4.3171   -2.0243    0.3187 H   0  0  0  0  0  0  0  0  0  0  0  0
    6.6232   -2.0608    1.2100 H   0  0  0  0  0  0  0  0  0  0  0  0
    5.2796    1.4087   -2.0401 H   0  0  0  0  0  0  0  0  0  0  0  0
    7.5855    1.3785   -1.1537 H   0  0  0  0  0  0  0  0  0  0  0  0
    3.0874    0.5869   -2.1041 H   0  0  0  0  0  0  0  0  0  0  0  0
    3.1548   -1.1644   -2.2067 H   0  0  0  0  0  0  0  0  0  0  0  0
    1.5937   -0.4973    2.1470 H   0  0  0  0  0  0  0  0  0  0  0  0
    1.0786    1.1896    2.2008 H   0  0  0  0  0  0  0  0  0  0  0  0
    3.1226    0.8581    0.8257 H   0  0  0  0  0  0  0  0  0  0  0  0
    1.7951    1.5418   -0.1184 H   0  0  0  0  0  0  0  0  0  0  0  0
    0.2826   -2.0685    0.5944 H   0  0  0  0  0  0  0  0  0  0  0  0
   -1.0212   -1.3616   -0.3507 H   0  0  0  0  0  0  0  0  0  0  0  0
    0.5275   -0.0194   -1.6528 H   0  0  0  0  0  0  0  0  0  0  0  0
    1.0345   -1.7111   -1.6791 H   0  0  0  0  0  0  0  0  0  0  0  0
   -5.0690    0.6663   -1.3800 H   0  0  0  0  0  0  0  0  0  0  0  0
   -4.7864   -2.2531    1.7588 H   0  0  0  0  0  0  0  0  0  0  0  0
   -2.5568   -1.4249    2.3273 H   0  0  0  0  0  0  0  0  0  0  0  0
   -3.4275    2.4104   -1.6785 O   0  0  0  0  0  0  0  0  0  0  0  0
  9 11  1  0
  9 10  1  0
 21 14  2  0
 14 11  1  0
 14 15  1  0
 11 12  1  0
 10  8  1  0
 20 15  2  0
 20 19  1  0
  8  7  1  0
  8 13  1  0
 27  4  1  0
  6  4  2  0
  6  5  1  0
  4  2  1  0
  5  3  2  0
 12 13  1  0
 15 17  1  0
  2  1  2  0
  3  1  1  0
  3  7  1  0
 19 18  2  0
 17 25  1  0
 17 16  2  0
 18 16  1  0
 18 22  1  0
 26 25  2  0
 24 22  2  0
  1 28  1  0
  2 29  1  0
  5 30  1  0
  6 31  1  0
  7 32  1  0
  7 33  1  0
  9 34  1  0
  9 35  1  0
 10 36  1  0
 10 37  1  0
 12 38  1  0
 12 39  1  0
 13 40  1  0
 13 41  1  0
 16 42  1  0
 19 43  1  0
 20 44  1  0
 22 23  1  0
 25 45  1  0
M  CHG  4  22   1  23  -1  25   1  45  -1
M  END
