
     RDKit          3D

 69 70  0  0  0  0  0  0  0  0999 V2000
   -2.1191    2.0462   -0.6024 C   0  0  0  0  0  0  0  0  0  0  0  0
   -2.0303    0.7466   -0.9500 C   0  0  0  0  0  0  0  0  0  0  0  0
   -0.8708    0.0053   -0.9663 N   0  0  0  0  0  0  0  0  0  0  0  0
    0.3376    0.4571   -0.3474 C   0  0  2  0  0  0  0  0  0  0  0  0
    0.6316    2.2020   -0.7669 S   0  0  0  0  0  0  0  0  0  0  0  0
   -0.9318    2.7888   -0.0601 C   0  0  0  0  0  0  0  0  0  0  0  0
    1.5178   -0.3754   -0.8566 C   0  0  1  0  0  0  0  0  0  0  0  0
   -3.1831   -0.0632   -1.4584 C   0  0  0  0  0  0  0  0  0  0  0  0
   -4.3050    0.1745   -0.7845 O   0  0  0  0  0  0  0  0  0  0  0  0
   -3.0759   -0.8827   -2.3301 O   0  0  0  0  0  0  0  0  0  0  0  0
    1.7428   -0.1361   -2.3405 C   0  0  0  0  0  0  0  0  0  0  0  0
    2.8127    0.1262   -2.8205 O   0  0  0  0  0  0  0  0  0  0  0  0
    2.6837   -0.1216   -0.0628 N   0  0  0  0  0  0  0  0  0  0  0  0
    3.6517   -2.1234   -0.4489 O   0  0  0  0  0  0  0  0  0  0  0  0
   -3.3496    2.8785   -0.7772 C   0  0  0  0  0  0  0  0  0  0  0  0
   -3.9253    3.0660    0.5214 O   0  0  0  0  0  0  0  0  0  0  0  0
   -4.9935    3.8665    0.6004 C   0  0  0  0  0  0  0  0  0  0  0  0
   -5.4249    3.9749    1.8682 N   0  0  0  0  0  0  0  0  0  0  0  0
   -5.4868    4.4302   -0.3564 O   0  0  0  0  0  0  0  0  0  0  0  0
    5.8430    0.2561    0.3110 C   0  0  0  0  0  0  0  0  0  0  0  0
    6.9835    0.5645    1.0101 N   0  0  0  0  0  0  0  0  0  0  0  0
    7.7833    1.3000    0.3060 C   0  0  0  0  0  0  0  0  0  0  0  0
    7.1940    1.6820   -1.2927 S   0  0  0  0  0  0  0  0  0  0  0  0
    5.7707    0.7669   -0.9472 C   0  0  0  0  0  0  0  0  0  0  0  0
   -5.4693   -0.5363   -1.1627 C   0  0  0  0  0  0  0  0  0  0  0  0
   -5.5482   -2.1644    0.5453 C   0  0  0  0  0  0  0  0  0  0  0  0
   -5.3804   -1.8737   -0.7585 O   0  0  0  0  0  0  0  0  0  0  0  0
   -5.8354   -1.3308    1.3603 O   0  0  0  0  0  0  0  0  0  0  0  0
   -5.3085   -3.6374    0.8184 C   0  0  1  0  0  0  0  0  0  0  0  0
   -5.5775   -3.9304    2.2916 C   0  0  0  0  0  0  0  0  0  0  0  0
   -6.2398   -4.4870   -0.0555 C   0  0  0  0  0  0  0  0  0  0  0  0
   -3.8458   -3.9621    0.4799 C   0  0  0  0  0  0  0  0  0  0  0  0
    4.8135   -0.5697    0.9414 C   0  0  0  0  0  0  0  0  0  0  0  0
    4.8765   -0.9660    2.2162 C   0  0  0  0  0  0  0  0  0  0  0  0
    3.8777   -1.8242    2.9204 C   0  0  0  0  0  0  0  0  0  0  0  0
    4.4326   -3.2226    3.1934 C   0  0  0  0  0  0  0  0  0  0  0  0
    8.9587    1.7985    0.7504 N   0  0  0  0  0  0  0  0  0  0  0  0
   -0.9807   -0.9975   -0.9936 H   0  0  0  0  0  0  0  0  0  0  0  0
    0.2952    0.3745    0.7449 H   0  0  0  0  0  0  0  0  0  0  0  0
   -0.9946    3.8491   -0.3072 H   0  0  0  0  0  0  0  0  0  0  0  0
   -0.8710    2.7180    1.0282 H   0  0  0  0  0  0  0  0  0  0  0  0
    1.2376   -1.4320   -0.7526 H   0  0  0  0  0  0  0  0  0  0  0  0
    0.8410   -0.2482   -2.9627 H   0  0  0  0  0  0  0  0  0  0  0  0
    2.7865    0.7838    0.3719 H   0  0  0  0  0  0  0  0  0  0  0  0
   -3.0614    3.8470   -1.1944 H   0  0  0  0  0  0  0  0  0  0  0  0
   -4.0762    2.4431   -1.4592 H   0  0  0  0  0  0  0  0  0  0  0  0
   -5.0632    3.3853    2.5981 H   0  0  0  0  0  0  0  0  0  0  0  0
   -6.2904    4.4538    2.0464 H   0  0  0  0  0  0  0  0  0  0  0  0
    4.9828    0.6690   -1.6773 H   0  0  0  0  0  0  0  0  0  0  0  0
   -6.2966   -0.0134   -0.6887 H   0  0  0  0  0  0  0  0  0  0  0  0
   -5.5953   -0.5479   -2.2433 H   0  0  0  0  0  0  0  0  0  0  0  0
   -6.6119   -3.7199    2.5652 H   0  0  0  0  0  0  0  0  0  0  0  0
   -5.3925   -4.9872    2.4876 H   0  0  0  0  0  0  0  0  0  0  0  0
   -4.9285   -3.3532    2.9501 H   0  0  0  0  0  0  0  0  0  0  0  0
   -6.0512   -4.3475   -1.1192 H   0  0  0  0  0  0  0  0  0  0  0  0
   -6.0793   -5.5416    0.1725 H   0  0  0  0  0  0  0  0  0  0  0  0
   -7.2897   -4.2625    0.1399 H   0  0  0  0  0  0  0  0  0  0  0  0
   -3.1508   -3.3512    1.0588 H   0  0  0  0  0  0  0  0  0  0  0  0
   -3.6479   -5.0074    0.7201 H   0  0  0  0  0  0  0  0  0  0  0  0
   -3.6300   -3.8161   -0.5778 H   0  0  0  0  0  0  0  0  0  0  0  0
    5.7399   -0.6589    2.7980 H   0  0  0  0  0  0  0  0  0  0  0  0
    3.6198   -1.3496    3.8709 H   0  0  0  0  0  0  0  0  0  0  0  0
    2.9470   -1.9053    2.3554 H   0  0  0  0  0  0  0  0  0  0  0  0
    3.7118   -3.8216    3.7502 H   0  0  0  0  0  0  0  0  0  0  0  0
    4.6534   -3.7399    2.2596 H   0  0  0  0  0  0  0  0  0  0  0  0
    5.3524   -3.1779    3.7780 H   0  0  0  0  0  0  0  0  0  0  0  0
    9.3432    1.3495    1.5667 H   0  0  0  0  0  0  0  0  0  0  0  0
    9.6486    2.0797    0.0735 H   0  0  0  0  0  0  0  0  0  0  0  0
    3.6761   -1.0219    0.0716 C   0  0  0  0  0  0  0  0  0  0  0  0
  1  2  2  0
  1  6  1  0
  1 15  1  0
  2  3  1  0
  2  8  1  0
  3  4  1  0
  4  5  1  0
  4  7  1  0
  5  6  1  0
  7 11  1  0
  7 13  1  0
  8  9  1  0
  8 10  2  0
  9 25  1  0
 11 12  2  0
 69 13  1  0
 69 14  2  0
 69 33  1  0
 15 16  1  0
 16 17  1  0
 17 18  1  0
 17 19  2  0
 20 21  1  0
 20 24  2  0
 20 33  1  0
 21 22  2  0
 22 23  1  0
 22 37  1  0
 23 24  1  0
 25 27  1  0
 26 27  1  0
 26 28  2  0
 29 26  1  1
 29 30  1  0
 29 31  1  0
 29 32  1  0
 33 34  2  0
 34 35  1  0
 35 36  1  0
  3 38  1  0
  4 39  1  1
  6 40  1  0
  6 41  1  0
  7 42  1  6
 11 43  1  0
 13 44  1  0
 15 45  1  0
 15 46  1  0
 18 47  1  0
 18 48  1  0
 24 49  1  0
 25 50  1  0
 25 51  1  0
 30 52  1  0
 30 53  1  0
 30 54  1  0
 31 55  1  0
 31 56  1  0
 31 57  1  0
 32 58  1  0
 32 59  1  0
 32 60  1  0
 34 61  1  0
 35 62  1  0
 35 63  1  0
 36 64  1  0
 36 65  1  0
 36 66  1  0
 37 67  1  0
 37 68  1  0
M  END
