
     RDKit          3D

 61 64  0  0  0  0  0  0  0  0999 V2000
    1.4295   -3.2065   -1.5655 C   0  0  0  0  0  0  0  0  0  0  0  0
    2.0911   -1.6141   -0.2055 C   0  0  0  0  0  0  0  0  0  0  0  0
    1.2538   -2.0528    0.8122 C   0  0  0  0  0  0  0  0  0  0  0  0
    0.5002   -3.2011    0.5357 C   0  0  0  0  0  0  0  0  0  0  0  0
    0.6046   -3.7510   -0.6738 N   0  0  0  0  0  0  0  0  0  0  0  0
    2.2110   -2.1510   -1.4135 N   0  0  0  0  0  0  0  0  0  0  0  0
    2.3022   -0.4009    1.6015 C   0  0  0  0  0  0  0  0  0  0  0  0
   -3.4076   -2.9629   -1.0568 C   0  0  1  0  0  0  0  0  0  0  0  0
   -3.2710   -3.4224    0.3008 N   0  0  0  0  0  0  0  0  0  0  0  0
   -4.3260   -4.1601    0.7331 C   0  0  0  0  0  0  0  0  0  0  0  0
   -4.4361   -4.6973    1.8257 O   0  0  0  0  0  0  0  0  0  0  0  0
   -5.2285   -4.2037   -0.2811 N   0  0  0  0  0  0  0  0  0  0  0  0
   -4.8529   -3.4137   -1.4243 C   0  0  1  0  0  0  0  0  0  0  0  0
   -5.7233   -2.1671   -1.6231 C   0  0  0  0  0  0  0  0  0  0  0  0
   -4.9633   -0.8484   -0.6408 S   0  0  0  0  0  0  0  0  0  0  0  0
   -3.3248   -1.4367   -1.1817 C   0  0  1  0  0  0  0  0  0  0  0  0
   -2.1788   -0.8092   -0.4133 C   0  0  0  0  0  0  0  0  0  0  0  0
   -2.1032    0.7061   -0.5406 C   0  0  0  0  0  0  0  0  0  0  0  0
   -0.8372    1.2621    0.0959 C   0  0  0  0  0  0  0  0  0  0  0  0
   -0.7846    2.7804    0.0082 C   0  0  0  0  0  0  0  0  0  0  0  0
    0.4870    3.3506    0.5764 C   0  0  0  0  0  0  0  0  0  0  0  0
    1.1207    2.8471    1.4772 O   0  0  0  0  0  0  0  0  0  0  0  0
    0.8928    4.5243   -0.0141 N   0  0  0  0  0  0  0  0  0  0  0  0
    2.3441    5.2811    0.3727 S   0  0  1  0  0  0  0  0  0  0  0  0
    2.4507    6.3345   -0.6122 O   0  0  0  0  0  0  0  0  0  0  0  0
    2.3583    5.5774    1.7847 O   0  0  0  0  0  0  0  0  0  0  0  0
    3.5155    4.1898    0.0855 N   0  0  0  0  0  0  0  0  0  0  0  0
    3.6985    3.7007   -1.2844 C   0  0  0  0  0  0  0  0  0  0  0  0
    4.2571    2.2981   -1.2564 C   0  0  0  0  0  0  0  0  0  0  0  0
    3.2816    1.4405   -0.7026 O   0  0  0  0  0  0  0  0  0  0  0  0
    2.7707   -0.5543    0.3241 N   0  0  0  0  0  0  0  0  0  0  0  0
    1.4003   -1.2739    1.9328 N   0  0  0  0  0  0  0  0  0  0  0  0
   -0.3499   -3.7572    1.4321 N   0  0  0  0  0  0  0  0  0  0  0  0
    1.4672   -3.6977   -2.5315 H   0  0  0  0  0  0  0  0  0  0  0  0
    2.6806    0.3809    2.2427 H   0  0  0  0  0  0  0  0  0  0  0  0
   -2.3763   -3.4619    0.7715 H   0  0  0  0  0  0  0  0  0  0  0  0
   -6.1647   -4.5445   -0.1404 H   0  0  0  0  0  0  0  0  0  0  0  0
   -4.8699   -4.0151   -2.3359 H   0  0  0  0  0  0  0  0  0  0  0  0
   -5.7327   -1.8800   -2.6758 H   0  0  0  0  0  0  0  0  0  0  0  0
   -6.7535   -2.3289   -1.3077 H   0  0  0  0  0  0  0  0  0  0  0  0
   -3.2197   -1.1923   -2.2442 H   0  0  0  0  0  0  0  0  0  0  0  0
   -2.2442   -1.0827    0.6427 H   0  0  0  0  0  0  0  0  0  0  0  0
   -1.2485   -1.2445   -0.7929 H   0  0  0  0  0  0  0  0  0  0  0  0
   -2.1382    0.9903   -1.5973 H   0  0  0  0  0  0  0  0  0  0  0  0
   -2.9798    1.1637   -0.0706 H   0  0  0  0  0  0  0  0  0  0  0  0
   -0.7794    0.9494    1.1406 H   0  0  0  0  0  0  0  0  0  0  0  0
    0.0389    0.8337   -0.4004 H   0  0  0  0  0  0  0  0  0  0  0  0
   -0.9107    3.1075   -1.0268 H   0  0  0  0  0  0  0  0  0  0  0  0
   -1.6186    3.2201    0.5661 H   0  0  0  0  0  0  0  0  0  0  0  0
    0.3738    4.9173   -0.7895 H   0  0  0  0  0  0  0  0  0  0  0  0
    3.5367    3.4706    0.8015 H   0  0  0  0  0  0  0  0  0  0  0  0
    2.7604    3.6993   -1.8475 H   0  0  0  0  0  0  0  0  0  0  0  0
    4.4001    4.3469   -1.8105 H   0  0  0  0  0  0  0  0  0  0  0  0
    4.5175    1.9995   -2.2778 H   0  0  0  0  0  0  0  0  0  0  0  0
    5.1811    2.2777   -0.6635 H   0  0  0  0  0  0  0  0  0  0  0  0
   -0.2528   -3.4791    2.3963 H   0  0  0  0  0  0  0  0  0  0  0  0
   -0.5539   -4.7369    1.3028 H   0  0  0  0  0  0  0  0  0  0  0  0
    3.8073    0.2098   -0.3052 C   0  0  0  0  0  0  0  0  0  0  0  0
   -2.6570   -3.4209   -1.7087 H   0  0  0  0  0  0  0  0  0  0  0  0
    4.1817   -0.3736   -1.1518 H   0  0  0  0  0  0  0  0  0  0  0  0
    4.6266    0.3445    0.4087 H   0  0  0  0  0  0  0  0  0  0  0  0
 26 24  2  0
 25 24  2  0
 24 27  1  1
 24 23  1  0
 27 28  1  0
 23 21  1  0
 28 29  1  0
 21 22  2  0
 21 20  1  0
 29 30  1  0
 30 58  1  0
 20 19  1  0
 58 31  1  0
 19 18  1  0
 31  2  1  0
 31  7  1  0
  6  2  1  0
  6  1  2  0
 18 17  1  0
  2  3  2  0
  7 32  2  0
  1  5  1  0
  3 32  1  0
  3  4  1  0
 17 16  1  0
  5  4  2  0
  9  8  1  0
  9 10  1  0
  4 33  1  0
  8 16  1  0
  8 13  1  0
 16 15  1  0
 11 10  2  0
 10 12  1  0
 13 12  1  0
 13 14  1  0
 15 14  1  0
  1 34  1  0
  7 35  1  0
  8 59  1  6
  9 36  1  0
 12 37  1  0
 13 38  1  6
 14 39  1  0
 14 40  1  0
 16 41  1  6
 17 42  1  0
 17 43  1  0
 18 44  1  0
 18 45  1  0
 19 46  1  0
 19 47  1  0
 20 48  1  0
 20 49  1  0
 23 50  1  0
 27 51  1  0
 28 52  1  0
 28 53  1  0
 29 54  1  0
 29 55  1  0
 58 60  1  0
 58 61  1  0
 33 56  1  0
 33 57  1  0
M  END
