
     RDKit          3D

 45 49  0  0  0  0  0  0  0  0999 V2000
   -2.3712    1.7739    0.5247 C   0  0  0  0  0  0  0  0  0  0  0  0
   -3.5464    2.4564    0.3453 C   0  0  0  0  0  0  0  0  0  0  0  0
   -3.9443    3.6162    0.9220 O   0  0  0  0  0  0  0  0  0  0  0  0
   -5.2983    3.8090    0.5345 C   0  0  0  0  0  0  0  0  0  0  0  0
   -5.5654    2.8846   -0.5136 O   0  0  0  0  0  0  0  0  0  0  0  0
   -4.5302    2.0140   -0.5238 C   0  0  0  0  0  0  0  0  0  0  0  0
   -4.3772    0.8634   -1.2590 C   0  0  0  0  0  0  0  0  0  0  0  0
   -3.1843    0.1573   -1.0920 C   0  0  0  0  0  0  0  0  0  0  0  0
   -2.1936    0.5894   -0.2169 C   0  0  0  0  0  0  0  0  0  0  0  0
   -0.9307   -0.1375   -0.0954 C   0  0  0  0  0  0  0  0  0  0  0  0
    0.2546    0.5374   -0.1014 N   0  0  0  0  0  0  0  0  0  0  0  0
    1.2675   -0.3563   -0.0144 C   0  0  0  0  0  0  0  0  0  0  0  0
    2.6799    0.0005   -0.0004 C   0  0  0  0  0  0  0  0  0  0  0  0
    3.1076    1.3282   -0.0069 C   0  0  0  0  0  0  0  0  0  0  0  0
    4.4563    1.6324    0.0062 C   0  0  0  0  0  0  0  0  0  0  0  0
    3.6414   -1.0107    0.0229 C   0  0  0  0  0  0  0  0  0  0  0  0
    4.9884   -0.7011    0.0373 C   0  0  0  0  0  0  0  0  0  0  0  0
    5.4187    0.6259    0.0278 C   0  0  0  0  0  0  0  0  0  0  0  0
    6.8581    1.0414    0.0409 C   0  0  0  0  0  0  0  0  0  0  0  0
    7.1636    2.2271    0.0493 O   0  0  0  0  0  0  0  0  0  0  0  0
    7.7787    0.0676    0.0432 N   0  0  0  0  0  0  0  0  0  0  0  0
    0.7915   -1.5738    0.0556 N   0  0  0  0  0  0  0  0  0  0  0  0
   -0.5659   -1.4699    0.0140 C   0  0  0  0  0  0  0  0  0  0  0  0
   -1.3966   -2.6695    0.1272 C   0  0  0  0  0  0  0  0  0  0  0  0
   -0.8258   -3.9348   -0.0322 C   0  0  0  0  0  0  0  0  0  0  0  0
   -1.6346   -5.0510    0.0879 C   0  0  0  0  0  0  0  0  0  0  0  0
   -2.9837   -4.8809    0.3650 C   0  0  0  0  0  0  0  0  0  0  0  0
   -3.4551   -3.5847    0.5116 C   0  0  0  0  0  0  0  0  0  0  0  0
   -2.6897   -2.5091    0.4007 N   0  0  0  0  0  0  0  0  0  0  0  0
   -1.6212    2.1262    1.2213 H   0  0  0  0  0  0  0  0  0  0  0  0
   -5.9607    3.6087    1.3828 H   0  0  0  0  0  0  0  0  0  0  0  0
   -5.1374    0.5198   -1.9469 H   0  0  0  0  0  0  0  0  0  0  0  0
   -3.0320   -0.7453   -1.6656 H   0  0  0  0  0  0  0  0  0  0  0  0
    0.3403    1.5355   -0.2213 H   0  0  0  0  0  0  0  0  0  0  0  0
    2.3974    2.1449   -0.0179 H   0  0  0  0  0  0  0  0  0  0  0  0
    4.7638    2.6688    0.0011 H   0  0  0  0  0  0  0  0  0  0  0  0
    3.3287   -2.0459    0.0294 H   0  0  0  0  0  0  0  0  0  0  0  0
    5.6870   -1.5268    0.0572 H   0  0  0  0  0  0  0  0  0  0  0  0
    7.5599   -0.9115    0.0236 H   0  0  0  0  0  0  0  0  0  0  0  0
    8.7557    0.3111    0.0460 H   0  0  0  0  0  0  0  0  0  0  0  0
    0.2292   -4.0332   -0.2455 H   0  0  0  0  0  0  0  0  0  0  0  0
   -1.2172   -6.0417   -0.0359 H   0  0  0  0  0  0  0  0  0  0  0  0
   -3.6528   -5.7238    0.4666 H   0  0  0  0  0  0  0  0  0  0  0  0
   -4.5022   -3.4069    0.7322 H   0  0  0  0  0  0  0  0  0  0  0  0
   -5.4379    4.8275    0.1726 H   0  0  0  0  0  0  0  0  0  0  0  0
  5  4  1  0
  5  6  1  0
  4  3  1  0
  6  7  2  0
  6  2  1  0
  7  8  1  0
  3  2  1  0
  2  1  2  0
  8  9  2  0
 28 27  2  0
 28 29  1  0
 27 26  1  0
 29 24  2  0
  1  9  1  0
  9 10  1  0
 26 25  2  0
 24 25  1  0
 24 23  1  0
 10 23  2  0
 10 11  1  0
 23 22  1  0
 11 12  1  0
 22 12  2  0
 12 13  1  0
 13 16  1  0
 13 14  2  0
 16 17  2  0
 14 15  1  0
 17 18  1  0
 15 18  2  0
 18 19  1  0
 19 21  1  0
 19 20  2  0
  1 30  1  0
  4 31  1  0
  7 32  1  0
  8 33  1  0
 11 34  1  0
 14 35  1  0
 15 36  1  0
 16 37  1  0
 17 38  1  0
 21 39  1  0
 21 40  1  0
 25 41  1  0
 26 42  1  0
 27 43  1  0
 28 44  1  0
  4 45  1  0
M  END
