
     RDKit          3D

 43 44  0  0  0  0  0  0  0  0999 V2000
    5.7695   -0.1787   -0.4991 C   0  0  0  0  0  0  0  0  0  0  0  0
    5.0162    0.6148    0.3468 C   0  0  0  0  0  0  0  0  0  0  0  0
    3.6734    0.3905    0.5716 C   0  0  0  0  0  0  0  0  0  0  0  0
    3.0558   -0.6756   -0.0802 C   0  0  0  0  0  0  0  0  0  0  0  0
    3.8059   -1.4853   -0.9359 C   0  0  0  0  0  0  0  0  0  0  0  0
    5.1492   -1.2386   -1.1427 C   0  0  0  0  0  0  0  0  0  0  0  0
    7.4410    0.1607   -0.7332 Cl  0  0  0  0  0  0  0  0  0  0  0  0
    5.6059    1.6367    0.9688 F   0  0  0  0  0  0  0  0  0  0  0  0
    1.7081   -0.9926    0.0688 N   0  0  0  0  0  0  0  0  0  0  0  0
    0.7647   -0.3619    0.7872 C   0  0  0  0  0  0  0  0  0  0  0  0
   -0.6075   -1.0413    0.6402 C   0  0  0  0  0  0  0  0  0  0  0  0
   -1.5601   -0.4550    1.3565 N   0  0  0  0  0  0  0  0  0  0  0  0
   -0.7494   -2.0213   -0.0745 O   0  0  0  0  0  0  0  0  0  0  0  0
    0.9150    0.6277    1.4770 O   0  0  0  0  0  0  0  0  0  0  0  0
   -2.9406   -0.8770    1.3328 C   0  0  0  0  0  0  0  0  0  0  0  0
   -3.7406   -0.1826    0.2468 C   0  0  1  0  0  0  0  0  0  0  0  0
   -5.2058   -0.6287    0.1917 C   0  0  1  0  0  0  0  0  0  0  0  0
   -5.9223    0.5785    0.0018 O   0  0  0  0  0  0  0  0  0  0  0  0
   -5.0200    1.6699   -0.0525 C   0  0  1  0  0  0  0  0  0  0  0  0
   -3.8271    1.1949    0.5279 O   0  0  0  0  0  0  0  0  0  0  0  0
   -5.4840   -1.6302   -0.9114 C   0  0  0  0  0  0  0  0  0  0  0  0
   -6.8771   -2.0378   -0.9036 N   0  0  0  0  0  0  0  0  0  0  0  0
   -4.7921    2.0927   -1.4995 C   0  0  0  0  0  0  0  0  0  0  0  0
   -5.5554    2.8078    0.7934 C   0  0  0  0  0  0  0  0  0  0  0  0
    3.1395    1.0447    1.2426 H   0  0  0  0  0  0  0  0  0  0  0  0
    3.3368   -2.3170   -1.4458 H   0  0  0  0  0  0  0  0  0  0  0  0
    5.7183   -1.8728   -1.8082 H   0  0  0  0  0  0  0  0  0  0  0  0
    1.3818   -1.8031   -0.4427 H   0  0  0  0  0  0  0  0  0  0  0  0
   -1.3187    0.3724    1.8808 H   0  0  0  0  0  0  0  0  0  0  0  0
   -2.9852   -1.9560    1.1812 H   0  0  0  0  0  0  0  0  0  0  0  0
   -3.3783   -0.6652    2.3089 H   0  0  0  0  0  0  0  0  0  0  0  0
   -3.2533   -0.3542   -0.7248 H   0  0  0  0  0  0  0  0  0  0  0  0
   -5.5143   -1.0704    1.1493 H   0  0  0  0  0  0  0  0  0  0  0  0
   -5.1431   -1.2133   -1.8710 H   0  0  0  0  0  0  0  0  0  0  0  0
   -4.8642   -2.5115   -0.7200 H   0  0  0  0  0  0  0  0  0  0  0  0
   -7.4517   -1.2699   -1.2274 H   0  0  0  0  0  0  0  0  0  0  0  0
   -7.0136   -2.7829   -1.5739 H   0  0  0  0  0  0  0  0  0  0  0  0
   -5.7295    2.4068   -1.9587 H   0  0  0  0  0  0  0  0  0  0  0  0
   -4.0967    2.9311   -1.5484 H   0  0  0  0  0  0  0  0  0  0  0  0
   -4.3833    1.2774   -2.0989 H   0  0  0  0  0  0  0  0  0  0  0  0
   -5.7275    2.4802    1.8190 H   0  0  0  0  0  0  0  0  0  0  0  0
   -4.8520    3.6403    0.8094 H   0  0  0  0  0  0  0  0  0  0  0  0
   -6.4962    3.1759    0.3846 H   0  0  0  0  0  0  0  0  0  0  0  0
 19 24  1  1
 18 19  1  0
 18 17  1  0
 22 21  1  0
 23 19  1  0
 19 20  1  0
 17 21  1  0
 17 16  1  0
 20 16  1  0
 16 15  1  0
 15 12  1  0
 12 11  1  0
 11 13  2  0
 11 10  1  0
 14 10  2  0
 10  9  1  0
  9  4  1  0
  3  4  2  0
  3  2  1  0
  4  5  1  0
  8  2  1  0
  2  1  2  0
  5  6  2  0
  1  6  1  0
  1  7  1  0
  3 25  1  0
  5 26  1  0
  6 27  1  0
  9 28  1  0
 12 29  1  0
 15 30  1  0
 15 31  1  0
 16 32  1  6
 17 33  1  1
 21 34  1  0
 21 35  1  0
 22 36  1  0
 22 37  1  0
 23 38  1  0
 23 39  1  0
 23 40  1  0
 24 41  1  0
 24 42  1  0
 24 43  1  0
M  END
