
     RDKit          3D

 21 21  0  0  0  0  0  0  0  0999 V2000
    0.3554    1.4400    1.0261 N   0  0  0  0  0  0  0  0  0  0  0  0
   -0.4123    0.2136    1.0681 C   0  0  1  0  0  0  0  0  0  0  0  0
    0.0479   -0.8982    0.1082 C   0  0  0  0  0  0  0  0  0  0  0  0
    0.0696   -0.4333   -1.2910 C   0  0  0  0  0  0  0  0  0  0  0  0
    0.8905   -0.9828   -2.2849 N   0  0  0  0  0  0  0  0  0  0  0  0
   -0.6829    0.5746   -1.9358 C   0  0  0  0  0  0  0  0  0  0  0  0
    0.6052   -0.3011   -3.4719 C   0  0  0  0  0  0  0  0  0  0  0  0
   -0.3398    0.6457   -3.2823 N   0  0  0  0  0  0  0  0  0  0  0  0
   -0.4547   -0.3863    2.4909 C   0  0  0  0  0  0  0  0  0  0  0  0
   -0.2555   -1.6032    2.6848 O   0  0  0  0  0  0  0  0  0  0  0  0
   -0.7635    0.4452    3.5308 N   0  0  0  0  0  0  0  0  0  0  0  0
    1.3175    1.2658    1.2422 H   0  0  0  0  0  0  0  0  0  0  0  0
    0.2944    1.8473    0.1114 H   0  0  0  0  0  0  0  0  0  0  0  0
   -1.4803    0.4812    0.7988 H   0  0  0  0  0  0  0  0  0  0  0  0
    1.0584   -1.2698    0.4297 H   0  0  0  0  0  0  0  0  0  0  0  0
   -0.6622   -1.7654    0.2092 H   0  0  0  0  0  0  0  0  0  0  0  0
    1.5232   -1.7273   -2.1620 H   0  0  0  0  0  0  0  0  0  0  0  0
   -1.4420    1.2275   -1.5069 H   0  0  0  0  0  0  0  0  0  0  0  0
    1.1039   -0.5289   -4.4193 H   0  0  0  0  0  0  0  0  0  0  0  0
   -0.8088    0.0819    4.4501 H   0  0  0  0  0  0  0  0  0  0  0  0
   -0.8906    1.4146    3.3894 H   0  0  0  0  0  0  0  0  0  0  0  0
  1  2  1  0
  1 12  1  0
  1 13  1  0
  2  3  1  0
  2  9  1  0
  2 14  1  6
  3  4  1  0
  3 15  1  0
  3 16  1  0
  4  5  1  0
  4  6  2  0
  5  7  1  0
  5 17  1  0
  6  8  1  0
  6 18  1  0
  7  8  2  0
  7 19  1  0
  9 10  2  0
  9 11  1  0
 11 20  1  0
 11 21  1  0
M  END
