
     RDKit          3D

 47 50  0  0  0  0  0  0  0  0999 V2000
   -6.1152   -0.2538   -0.0592 O   0  0  0  0  0  0  0  0  0  0  0  0
   -4.9341    0.0356   -0.0320 C   0  0  0  0  0  0  0  0  0  0  0  0
   -4.5102    1.3154   -0.3232 N   0  0  0  0  0  0  0  0  0  0  0  0
   -3.9482   -0.8701    0.2848 N   0  0  0  0  0  0  0  0  0  0  0  0
   -4.2702   -2.2478    0.6160 C   0  0  0  0  0  0  0  0  0  0  0  0
   -2.6421   -0.4683    0.2959 C   0  0  0  0  0  0  0  0  0  0  0  0
   -2.2825    0.8367   -0.0069 C   0  0  0  0  0  0  0  0  0  0  0  0
   -3.2166    1.8372   -0.3438 C   0  0  0  0  0  0  0  0  0  0  0  0
   -3.0016    3.0059   -0.6235 O   0  0  0  0  0  0  0  0  0  0  0  0
   -1.5996   -1.2597    0.5893 N   0  0  0  0  0  0  0  0  0  0  0  0
   -0.5724   -0.4223    0.4662 C   0  0  0  0  0  0  0  0  0  0  0  0
   -0.9064    0.8350    0.1113 N   0  0  0  0  0  0  0  0  0  0  0  0
    0.7614   -0.4822    0.6043 N   0  0  0  0  0  0  0  0  0  0  0  0
    1.5203   -1.6995    0.8284 C   0  0  0  0  0  0  0  0  0  0  0  0
    1.9924   -2.3379   -0.4693 C   0  0  0  0  0  0  0  0  0  0  0  0
    2.8176   -3.5922   -0.2114 C   0  0  0  0  0  0  0  0  0  0  0  0
    3.2932   -4.2468   -1.5004 C   0  0  0  0  0  0  0  0  0  0  0  0
    1.2709    0.7778    0.2999 C   0  0  0  0  0  0  0  0  0  0  0  0
    0.2320    1.6004    0.0001 C   0  0  0  0  0  0  0  0  0  0  0  0
    2.7094    1.0734    0.3519 C   0  0  0  0  0  0  0  0  0  0  0  0
    3.4226    1.3730   -0.8164 C   0  0  0  0  0  0  0  0  0  0  0  0
    2.7575    1.4143   -2.1616 C   0  0  0  0  0  0  0  0  0  0  0  0
    4.7852    1.6417   -0.7045 C   0  0  0  0  0  0  0  0  0  0  0  0
    5.4310    1.6123    0.5226 C   0  0  0  0  0  0  0  0  0  0  0  0
    4.7184    1.3113    1.6748 C   0  0  0  0  0  0  0  0  0  0  0  0
    3.3621    1.0441    1.5841 C   0  0  0  0  0  0  0  0  0  0  0  0
   -5.2557    1.9612   -0.5500 H   0  0  0  0  0  0  0  0  0  0  0  0
   -5.3415   -2.3914    0.5434 H   0  0  0  0  0  0  0  0  0  0  0  0
   -3.7718   -2.9259   -0.0738 H   0  0  0  0  0  0  0  0  0  0  0  0
   -3.9491   -2.4751    1.6305 H   0  0  0  0  0  0  0  0  0  0  0  0
    2.3664   -1.4607    1.4727 H   0  0  0  0  0  0  0  0  0  0  0  0
    0.8811   -2.3844    1.3858 H   0  0  0  0  0  0  0  0  0  0  0  0
    1.1253   -2.5845   -1.0890 H   0  0  0  0  0  0  0  0  0  0  0  0
    2.5900   -1.6167   -1.0357 H   0  0  0  0  0  0  0  0  0  0  0  0
    3.6797   -3.3355    0.4113 H   0  0  0  0  0  0  0  0  0  0  0  0
    2.2246   -4.3065    0.3674 H   0  0  0  0  0  0  0  0  0  0  0  0
    3.8966   -5.1317   -1.2971 H   0  0  0  0  0  0  0  0  0  0  0  0
    2.4493   -4.5570   -2.1194 H   0  0  0  0  0  0  0  0  0  0  0  0
    3.8999   -3.5581   -2.0908 H   0  0  0  0  0  0  0  0  0  0  0  0
    0.2251    2.6439   -0.2589 H   0  0  0  0  0  0  0  0  0  0  0  0
    2.1998    2.3421   -2.2995 H   0  0  0  0  0  0  0  0  0  0  0  0
    3.4950    1.3544   -2.9605 H   0  0  0  0  0  0  0  0  0  0  0  0
    2.0480    0.5968   -2.2919 H   0  0  0  0  0  0  0  0  0  0  0  0
    5.3511    1.8688   -1.6000 H   0  0  0  0  0  0  0  0  0  0  0  0
    6.4919    1.8196    0.5777 H   0  0  0  0  0  0  0  0  0  0  0  0
    5.2124    1.2884    2.6371 H   0  0  0  0  0  0  0  0  0  0  0  0
    2.7975    0.8177    2.4806 H   0  0  0  0  0  0  0  0  0  0  0  0
 15 16  1  0
 15 14  1  0
 17 16  1  0
 14 13  1  0
 25 26  2  0
 25 24  1  0
  5  4  1  0
 10 11  2  0
 10  6  1  0
 13 11  1  0
 13 18  1  0
 26 20  1  0
 24 23  2  0
 11 12  1  0
 20 18  1  0
 20 21  2  0
 23 21  1  0
 18 19  2  0
  6  4  1  0
  6  7  2  0
  4  2  1  0
 21 22  1  0
 12  7  1  0
 12 19  1  0
  7  8  1  0
  2  1  2  0
  2  3  1  0
  8  3  1  0
  8  9  2  0
  3 27  1  0
  5 28  1  0
  5 29  1  0
  5 30  1  0
 14 31  1  0
 14 32  1  0
 15 33  1  0
 15 34  1  0
 16 35  1  0
 16 36  1  0
 17 37  1  0
 17 38  1  0
 17 39  1  0
 19 40  1  0
 22 41  1  0
 22 42  1  0
 22 43  1  0
 23 44  1  0
 24 45  1  0
 25 46  1  0
 26 47  1  0
M  END
