
     RDKit          3D

 48 50  0  0  0  0  0  0  0  0999 V2000
   -4.2772   -0.9768    1.4675 F   0  0  0  0  0  0  0  0  0  0  0  0
   -3.9503   -0.6058    0.2199 C   0  0  0  0  0  0  0  0  0  0  0  0
   -2.5936   -0.4406   -0.0683 C   0  0  0  0  0  0  0  0  0  0  0  0
   -1.6244   -0.6794    0.9410 C   0  0  0  0  0  0  0  0  0  0  0  0
   -0.7804   -0.8832    1.7776 C   0  0  0  0  0  0  0  0  0  0  0  0
    0.3251   -1.1717    2.6975 C   0  0  1  0  0  0  0  0  0  0  0  0
    1.2918   -1.9811    2.0697 O   0  0  0  0  0  0  0  0  0  0  0  0
    0.9084    0.1357    3.2693 C   0  0  1  0  0  0  0  0  0  0  0  0
   -0.1718    0.8585    3.9090 N   0  0  0  0  0  0  0  0  0  0  0  0
    2.1308   -0.1453    4.1623 C   0  0  2  0  0  0  0  0  0  0  0  0
    1.7923   -0.9824    5.2510 O   0  0  0  0  0  0  0  0  0  0  0  0
    2.7962    1.1423    4.6234 C   0  0  0  0  0  0  0  0  0  0  0  0
   -2.2620   -0.0532   -1.3723 C   0  0  0  0  0  0  0  0  0  0  0  0
   -3.2896    0.1356   -2.3104 C   0  0  0  0  0  0  0  0  0  0  0  0
   -2.7189    0.4959   -3.5175 N   0  0  0  0  0  0  0  0  0  0  0  0
   -1.3598    0.5566   -3.4396 C   0  0  0  0  0  0  0  0  0  0  0  0
   -0.6306    0.8509   -4.3852 O   0  0  0  0  0  0  0  0  0  0  0  0
   -4.6227   -0.0331   -2.0033 C   0  0  0  0  0  0  0  0  0  0  0  0
   -4.9536   -0.4110   -0.7037 C   0  0  0  0  0  0  0  0  0  0  0  0
   -1.0078    0.2141   -2.0508 C   0  0  0  0  0  0  0  0  0  0  0  0
    0.2430    0.1748   -1.4929 C   0  0  0  0  0  0  0  0  0  0  0  0
    1.5216    0.4058   -2.0159 C   0  0  0  0  0  0  0  0  0  0  0  0
    2.7417    0.3369   -1.3103 C   0  0  0  0  0  0  0  0  0  0  0  0
    2.8021    0.0266   -0.0115 O   0  0  0  0  0  0  0  0  0  0  0  0
    4.0925    0.0484    0.5823 C   0  0  0  0  0  0  0  0  0  0  0  0
    3.7798    0.6407   -2.1953 C   0  0  0  0  0  0  0  0  0  0  0  0
    3.1748    0.8870   -3.4227 C   0  0  0  0  0  0  0  0  0  0  0  0
    1.8555    0.7464   -3.3080 N   0  0  0  0  0  0  0  0  0  0  0  0
   -0.0648   -1.7643    3.5316 H   0  0  0  0  0  0  0  0  0  0  0  0
    1.6449   -1.5104    1.3051 H   0  0  0  0  0  0  0  0  0  0  0  0
    1.2530    0.7437    2.4239 H   0  0  0  0  0  0  0  0  0  0  0  0
   -0.4612    0.4009    4.7650 H   0  0  0  0  0  0  0  0  0  0  0  0
    0.1133    1.7967    4.1552 H   0  0  0  0  0  0  0  0  0  0  0  0
    2.8588   -0.7129    3.5767 H   0  0  0  0  0  0  0  0  0  0  0  0
    1.3345   -0.4560    5.9144 H   0  0  0  0  0  0  0  0  0  0  0  0
    3.6739    0.9242    5.2319 H   0  0  0  0  0  0  0  0  0  0  0  0
    3.1235    1.7406    3.7715 H   0  0  0  0  0  0  0  0  0  0  0  0
    2.1190    1.7584    5.2197 H   0  0  0  0  0  0  0  0  0  0  0  0
   -3.2354    0.6948   -4.3602 H   0  0  0  0  0  0  0  0  0  0  0  0
   -5.3966    0.1196   -2.7431 H   0  0  0  0  0  0  0  0  0  0  0  0
   -5.9867   -0.5547   -0.4176 H   0  0  0  0  0  0  0  0  0  0  0  0
    0.2639   -0.0777   -0.4415 H   0  0  0  0  0  0  0  0  0  0  0  0
    3.9639   -0.2257    1.6262 H   0  0  0  0  0  0  0  0  0  0  0  0
    4.7613   -0.6730    0.1090 H   0  0  0  0  0  0  0  0  0  0  0  0
    4.5368    1.0441    0.5283 H   0  0  0  0  0  0  0  0  0  0  0  0
    4.8380    0.6824   -1.9973 H   0  0  0  0  0  0  0  0  0  0  0  0
    3.6310    1.1542   -4.3618 H   0  0  0  0  0  0  0  0  0  0  0  0
    1.1427    0.8702   -4.0265 H   0  0  0  0  0  0  0  0  0  0  0  0
  1  2  1  0
  2  3  2  0
  2 19  1  0
  3  4  1  0
  3 13  1  0
  4  5  3  0
  5  6  1  0
  6  7  1  0
  6  8  1  0
  6 29  1  1
  7 30  1  0
  8  9  1  0
  8 10  1  0
  8 31  1  6
  9 32  1  0
  9 33  1  0
 10 11  1  0
 10 12  1  0
 10 34  1  6
 11 35  1  0
 12 36  1  0
 12 37  1  0
 12 38  1  0
 13 14  2  0
 13 20  1  0
 14 15  1  0
 14 18  1  0
 15 16  1  0
 15 39  1  0
 16 17  2  0
 16 20  1  0
 18 19  2  0
 18 40  1  0
 19 41  1  0
 20 21  2  0
 21 22  1  0
 21 42  1  0
 22 23  2  0
 22 28  1  0
 23 24  1  0
 23 26  1  0
 24 25  1  0
 25 43  1  0
 25 44  1  0
 25 45  1  0
 26 27  2  0
 26 46  1  0
 27 28  1  0
 27 47  1  0
 28 48  1  0
M  END
