
     RDKit          3D

 89 89  0  0  0  0  0  0  0  0999 V2000
   13.9187   -0.4598    1.3589 C   0  0  0  0  0  0  0  0  0  0  0  0
   15.1914   -0.3199    0.6640 N   0  0  0  0  0  0  0  0  0  0  0  0
    2.8597   -1.0729   -2.1516 O   0  0  0  0  0  0  0  0  0  0  0  0
   12.7579   -0.4572    0.3764 C   0  0  0  0  0  0  0  0  0  0  0  0
    1.4918   -0.8446   -0.3770 N   0  0  0  0  0  0  0  0  0  0  0  0
   11.4026   -0.5974    1.0574 C   0  0  0  0  0  0  0  0  0  0  0  0
   -1.8466    0.3467   -1.0333 N   0  0  0  0  0  0  0  0  0  0  0  0
   10.2395   -0.5967    0.0732 C   0  0  0  0  0  0  0  0  0  0  0  0
   -1.1854    7.0126   -0.6338 N   0  0  0  0  0  0  0  0  0  0  0  0
    8.8782   -0.7345    0.7433 C   0  0  0  0  0  0  0  0  0  0  0  0
    7.7239   -0.7281   -0.2509 C   0  0  0  0  0  0  0  0  0  0  0  0
    6.3560   -0.8757    0.4035 C   0  0  0  0  0  0  0  0  0  0  0  0
    5.2190   -0.8524   -0.6104 C   0  0  0  0  0  0  0  0  0  0  0  0
    3.8568   -1.0259    0.0420 C   0  0  0  0  0  0  0  0  0  0  0  0
    2.7049   -0.9821   -0.9414 C   0  0  0  0  0  0  0  0  0  0  0  0
    0.2735   -0.7885   -1.1390 C   0  0  1  0  0  0  0  0  0  0  0  0
   -0.2545   -2.1717   -1.5131 C   0  0  0  0  0  0  0  0  0  0  0  0
   -0.7785   -0.0372   -0.3223 C   0  0  0  0  0  0  0  0  0  0  0  0
   -3.0224    0.9604   -0.4688 C   0  0  1  0  0  0  0  0  0  0  0  0
   -3.1487    2.4381   -0.8607 C   0  0  0  0  0  0  0  0  0  0  0  0
   -1.9828    3.2900   -0.3797 C   0  0  0  0  0  0  0  0  0  0  0  0
   -2.1551    4.7601   -0.7399 C   0  0  0  0  0  0  0  0  0  0  0  0
   -0.9859    5.6151   -0.2762 C   0  0  0  0  0  0  0  0  0  0  0  0
   -4.2535    0.1948   -0.9506 C   0  0  0  0  0  0  0  0  0  0  0  0
   -6.5756   -0.3887   -0.4185 C   0  0  0  0  0  0  0  0  0  0  0  0
   -7.6107    0.0136    0.6205 C   0  0  0  0  0  0  0  0  0  0  0  0
   -8.9726   -0.6484    0.4186 C   0  0  2  0  0  0  0  0  0  0  0  0
  -10.0183   -0.0051    1.3314 C   0  0  0  0  0  0  0  0  0  0  0  0
  -11.3932   -0.6447    1.1680 C   0  0  0  0  0  0  0  0  0  0  0  0
  -11.3367   -2.1498    1.4039 C   0  0  0  0  0  0  0  0  0  0  0  0
  -10.3025   -2.8062    0.4961 C   0  0  0  0  0  0  0  0  0  0  0  0
   -8.9294   -2.1594    0.6557 C   0  0  0  0  0  0  0  0  0  0  0  0
   13.9264   -1.4109    1.8990 H   0  0  0  0  0  0  0  0  0  0  0  0
   13.7452    0.3202    2.1150 H   0  0  0  0  0  0  0  0  0  0  0  0
   15.2449    0.6056    0.2557 H   0  0  0  0  0  0  0  0  0  0  0  0
   15.9494   -0.3637    1.3332 H   0  0  0  0  0  0  0  0  0  0  0  0
   12.7772    0.4739   -0.2023 H   0  0  0  0  0  0  0  0  0  0  0  0
   12.8970   -1.2699   -0.3437 H   0  0  0  0  0  0  0  0  0  0  0  0
    1.4142   -0.7677    0.6256 H   0  0  0  0  0  0  0  0  0  0  0  0
   -0.9665   -3.7015   -0.5641 H   0  0  0  0  0  0  0  0  0  0  0  0
   11.3821   -1.5237    1.6427 H   0  0  0  0  0  0  0  0  0  0  0  0
   11.2688    0.2181    1.7765 H   0  0  0  0  0  0  0  0  0  0  0  0
   -1.8779    0.1409   -2.0206 H   0  0  0  0  0  0  0  0  0  0  0  0
   10.2627    0.3286   -0.5136 H   0  0  0  0  0  0  0  0  0  0  0  0
   10.3731   -1.4129   -0.6453 H   0  0  0  0  0  0  0  0  0  0  0  0
   -0.4152    7.5649   -0.2787 H   0  0  0  0  0  0  0  0  0  0  0  0
   -1.1408    7.1063   -1.6415 H   0  0  0  0  0  0  0  0  0  0  0  0
    8.8515   -1.6618    1.3269 H   0  0  0  0  0  0  0  0  0  0  0  0
    8.7428    0.0803    1.4631 H   0  0  0  0  0  0  0  0  0  0  0  0
   -5.1922    0.6819    0.7740 H   0  0  0  0  0  0  0  0  0  0  0  0
    7.7502    0.2023   -0.8295 H   0  0  0  0  0  0  0  0  0  0  0  0
    7.8659   -1.5378   -0.9750 H   0  0  0  0  0  0  0  0  0  0  0  0
    6.3233   -1.8123    0.9714 H   0  0  0  0  0  0  0  0  0  0  0  0
    6.2126   -0.0724    1.1343 H   0  0  0  0  0  0  0  0  0  0  0  0
    5.2472    0.0916   -1.1622 H   0  0  0  0  0  0  0  0  0  0  0  0
    5.3763   -1.6433   -1.3474 H   0  0  0  0  0  0  0  0  0  0  0  0
    3.8141   -1.9863    0.5681 H   0  0  0  0  0  0  0  0  0  0  0  0
    3.7022   -0.2623    0.8104 H   0  0  0  0  0  0  0  0  0  0  0  0
    0.4603   -0.2448   -2.0697 H   0  0  0  0  0  0  0  0  0  0  0  0
    0.5324   -2.7097   -2.0531 H   0  0  0  0  0  0  0  0  0  0  0  0
   -1.0939   -2.0563   -2.2103 H   0  0  0  0  0  0  0  0  0  0  0  0
   -2.9448    0.8882    0.6180 H   0  0  0  0  0  0  0  0  0  0  0  0
   -3.2418    2.5143   -1.9491 H   0  0  0  0  0  0  0  0  0  0  0  0
   -4.0814    2.8262   -0.4412 H   0  0  0  0  0  0  0  0  0  0  0  0
   -1.8791    3.1885    0.7054 H   0  0  0  0  0  0  0  0  0  0  0  0
   -1.0506    2.9186   -0.8150 H   0  0  0  0  0  0  0  0  0  0  0  0
   -2.2674    4.8570   -1.8259 H   0  0  0  0  0  0  0  0  0  0  0  0
   -3.0783    5.1476   -0.2980 H   0  0  0  0  0  0  0  0  0  0  0  0
   -0.0539    5.1893   -0.6763 H   0  0  0  0  0  0  0  0  0  0  0  0
   -0.9073    5.5484    0.8127 H   0  0  0  0  0  0  0  0  0  0  0  0
   -6.9154   -0.0876   -1.4124 H   0  0  0  0  0  0  0  0  0  0  0  0
   -6.4482   -1.4740   -0.4408 H   0  0  0  0  0  0  0  0  0  0  0  0
   -7.2401   -0.2312    1.6232 H   0  0  0  0  0  0  0  0  0  0  0  0
   -7.7314    1.1013    0.5898 H   0  0  0  0  0  0  0  0  0  0  0  0
   -9.2906   -0.4764   -0.6195 H   0  0  0  0  0  0  0  0  0  0  0  0
   -9.6922   -0.1020    2.3745 H   0  0  0  0  0  0  0  0  0  0  0  0
  -10.0773    1.0675    1.1244 H   0  0  0  0  0  0  0  0  0  0  0  0
  -12.1086   -0.1789    1.8503 H   0  0  0  0  0  0  0  0  0  0  0  0
  -11.7608   -0.4506    0.1542 H   0  0  0  0  0  0  0  0  0  0  0  0
  -11.0706   -2.3406    2.4493 H   0  0  0  0  0  0  0  0  0  0  0  0
  -12.3213   -2.5966    1.2449 H   0  0  0  0  0  0  0  0  0  0  0  0
  -10.2352   -3.8759    0.7097 H   0  0  0  0  0  0  0  0  0  0  0  0
  -10.6257   -2.7196   -0.5474 H   0  0  0  0  0  0  0  0  0  0  0  0
   -8.2181   -2.6376   -0.0225 H   0  0  0  0  0  0  0  0  0  0  0  0
   -8.5586   -2.3445    1.6716 H   0  0  0  0  0  0  0  0  0  0  0  0
   -0.6348   -2.8295   -0.3317 O   0  0  0  0  0  0  0  0  0  0  0  0
   -0.6411    0.1687    0.8733 O   0  0  0  0  0  0  0  0  0  0  0  0
   -4.2694   -0.3743   -2.0336 O   0  0  0  0  0  0  0  0  0  0  0  0
   -5.3037    0.2448   -0.1273 N   0  0  0  0  0  0  0  0  0  0  0  0
  2  1  1  0
  1  4  1  0
  1 33  1  0
  1 34  1  0
  2 35  1  0
  2 36  1  0
  3 15  2  0
  6  4  1  0
  4 37  1  0
  4 38  1  0
 15  5  1  0
 16  5  1  0
  5 39  1  0
 86 17  1  0
 86 40  1  0
  6  8  1  0
  6 41  1  0
  6 42  1  0
 18  7  1  0
  7 19  1  0
  7 43  1  0
 18 87  2  0
  8 10  1  0
  8 44  1  0
  8 45  1  0
  9 23  1  0
  9 46  1  0
  9 47  1  0
 88 24  2  0
 10 11  1  0
 10 48  1  0
 10 49  1  0
 24 89  1  0
 25 89  1  0
 89 50  1  0
 11 12  1  0
 11 51  1  0
 11 52  1  0
 12 13  1  0
 12 53  1  0
 12 54  1  0
 13 14  1  0
 13 55  1  0
 13 56  1  0
 15 14  1  0
 14 57  1  0
 14 58  1  0
 17 16  1  0
 16 18  1  0
 16 59  1  6
 17 60  1  0
 17 61  1  0
 24 19  1  0
 19 20  1  0
 19 62  1  1
 21 20  1  0
 20 63  1  0
 20 64  1  0
 21 22  1  0
 21 65  1  0
 21 66  1  0
 23 22  1  0
 22 67  1  0
 22 68  1  0
 23 69  1  0
 23 70  1  0
 25 26  1  0
 25 71  1  0
 25 72  1  0
 27 26  1  0
 26 73  1  0
 26 74  1  0
 32 27  1  0
 27 28  1  0
 27 75  1  6
 29 28  1  0
 28 76  1  0
 28 77  1  0
 30 29  1  0
 29 78  1  0
 29 79  1  0
 31 30  1  0
 30 80  1  0
 30 81  1  0
 31 32  1  0
 31 82  1  0
 31 83  1  0
 32 84  1  0
 32 85  1  0
M  END
