
     RDKit          3D

122121  0  0  0  0  0  0  0  0999 V2000
   25.4097   -1.0275    0.0434 C   0  0  0  0  0  0  0  0  0  0  0  0
   24.1828   -0.1257    0.0413 C   0  0  0  0  0  0  0  0  0  0  0  0
   22.8760   -0.9096    0.0307 C   0  0  0  0  0  0  0  0  0  0  0  0
   21.6376   -0.0219    0.0316 C   0  0  0  0  0  0  0  0  0  0  0  0
   20.3335   -0.8099    0.0222 C   0  0  0  0  0  0  0  0  0  0  0  0
   19.0937    0.0762    0.0209 C   0  0  0  0  0  0  0  0  0  0  0  0
   17.7902   -0.7129    0.0177 C   0  0  0  0  0  0  0  0  0  0  0  0
   16.5503    0.1730    0.0149 C   0  0  0  0  0  0  0  0  0  0  0  0
   15.2464   -0.6155    0.0141 C   0  0  0  0  0  0  0  0  0  0  0  0
   14.0075    0.2717    0.0109 C   0  0  0  0  0  0  0  0  0  0  0  0
   12.7022   -0.5142    0.0103 C   0  0  0  0  0  0  0  0  0  0  0  0
   11.4657    0.3764    0.0097 C   0  0  0  0  0  0  0  0  0  0  0  0
   10.1576   -0.4046   -0.0095 C   0  0  0  0  0  0  0  0  0  0  0  0
    8.9250    0.4916   -0.0087 C   0  0  0  0  0  0  0  0  0  0  0  0
    7.6131   -0.2829   -0.0293 C   0  0  0  0  0  0  0  0  0  0  0  0
    6.3855    0.6200   -0.0274 C   0  0  0  0  0  0  0  0  0  0  0  0
    5.0687   -0.1463   -0.0454 C   0  0  0  0  0  0  0  0  0  0  0  0
    3.8475    0.7652   -0.0454 C   0  0  0  0  0  0  0  0  0  0  0  0
    2.5251    0.0089   -0.0609 C   0  0  0  0  0  0  0  0  0  0  0  0
    1.3118    0.9309   -0.0582 C   0  0  0  0  0  0  0  0  0  0  0  0
   -0.0164    0.1848   -0.0610 C   0  0  0  0  0  0  0  0  0  0  0  0
   -1.2188    1.1206   -0.0570 C   0  0  0  0  0  0  0  0  0  0  0  0
   -2.5508    0.3789   -0.0567 C   0  0  0  0  0  0  0  0  0  0  0  0
   -3.7108    1.3509   -0.0459 C   0  0  0  0  0  0  0  0  0  0  0  0
   -4.9304    0.5969   -0.0471 O   0  0  0  0  0  0  0  0  0  0  0  0
   -6.0779    1.2643   -0.0068 C   0  0  0  0  0  0  0  0  0  0  0  0
   -6.1422    2.4685    0.0258 O   0  0  0  0  0  0  0  0  0  0  0  0
   -7.2598    0.3322   -0.0064 C   0  0  0  0  0  0  0  0  0  0  0  0
   -8.6016    1.0462    0.0040 C   0  0  0  0  0  0  0  0  0  0  0  0
   -9.7686    0.0666    0.0081 C   0  0  0  0  0  0  0  0  0  0  0  0
  -11.1232    0.7635    0.0162 C   0  0  0  0  0  0  0  0  0  0  0  0
  -12.2988   -0.2055    0.0188 C   0  0  0  0  0  0  0  0  0  0  0  0
  -13.6520    0.4946    0.0206 C   0  0  0  0  0  0  0  0  0  0  0  0
  -14.8313   -0.4704    0.0238 C   0  0  0  0  0  0  0  0  0  0  0  0
  -16.1827    0.2330    0.0166 C   0  0  0  0  0  0  0  0  0  0  0  0
  -17.3643   -0.7292    0.0181 C   0  0  0  0  0  0  0  0  0  0  0  0
  -18.7144   -0.0231    0.0029 C   0  0  0  0  0  0  0  0  0  0  0  0
  -19.8975   -0.9834    0.0032 C   0  0  0  0  0  0  0  0  0  0  0  0
  -21.2467   -0.2757   -0.0172 C   0  0  0  0  0  0  0  0  0  0  0  0
  -22.4304   -1.2351   -0.0159 C   0  0  0  0  0  0  0  0  0  0  0  0
  -23.7805   -0.5283   -0.0390 C   0  0  0  0  0  0  0  0  0  0  0  0
  -24.9544   -1.4980   -0.0383 C   0  0  0  0  0  0  0  0  0  0  0  0
   26.3355   -0.4510    0.0512 H   0  0  0  0  0  0  0  0  0  0  0  0
   25.4175   -1.6769    0.9209 H   0  0  0  0  0  0  0  0  0  0  0  0
   25.4273   -1.6685   -0.8402 H   0  0  0  0  0  0  0  0  0  0  0  0
   24.2054    0.5281    0.9190 H   0  0  0  0  0  0  0  0  0  0  0  0
   24.2146    0.5363   -0.8298 H   0  0  0  0  0  0  0  0  0  0  0  0
   22.8536   -1.5632   -0.8489 H   0  0  0  0  0  0  0  0  0  0  0  0
   22.8461   -1.5750    0.9013 H   0  0  0  0  0  0  0  0  0  0  0  0
   21.6606    0.6317    0.9110 H   0  0  0  0  0  0  0  0  0  0  0  0
   21.6670    0.6425   -0.8395 H   0  0  0  0  0  0  0  0  0  0  0  0
   20.3116   -1.4648   -0.8563 H   0  0  0  0  0  0  0  0  0  0  0  0
   20.3040   -1.4730    0.8943 H   0  0  0  0  0  0  0  0  0  0  0  0
   19.1174    0.7343    0.8968 H   0  0  0  0  0  0  0  0  0  0  0  0
   19.1210    0.7360   -0.8537 H   0  0  0  0  0  0  0  0  0  0  0  0
   17.7670   -1.3721   -0.8575 H   0  0  0  0  0  0  0  0  0  0  0  0
   17.7627   -1.3718    0.8930 H   0  0  0  0  0  0  0  0  0  0  0  0
   16.5747    0.8328    0.8896 H   0  0  0  0  0  0  0  0  0  0  0  0
   16.5770    0.8310   -0.8610 H   0  0  0  0  0  0  0  0  0  0  0  0
   15.2219   -1.2757   -0.8603 H   0  0  0  0  0  0  0  0  0  0  0  0
   15.2193   -1.2733    0.8903 H   0  0  0  0  0  0  0  0  0  0  0  0
   14.0329    0.9324    0.8850 H   0  0  0  0  0  0  0  0  0  0  0  0
   14.0353    0.9292   -0.8654 H   0  0  0  0  0  0  0  0  0  0  0  0
   12.6752   -1.1731   -0.8650 H   0  0  0  0  0  0  0  0  0  0  0  0
   12.6740   -1.1731    0.8856 H   0  0  0  0  0  0  0  0  0  0  0  0
   11.4874    1.0265    0.8919 H   0  0  0  0  0  0  0  0  0  0  0  0
   11.5017    1.0448   -0.8582 H   0  0  0  0  0  0  0  0  0  0  0  0
   10.1345   -1.0525   -0.8931 H   0  0  0  0  0  0  0  0  0  0  0  0
   10.1205   -1.0738    0.8575 H   0  0  0  0  0  0  0  0  0  0  0  0
    8.9493    1.1396    0.8748 H   0  0  0  0  0  0  0  0  0  0  0  0
    8.9646    1.1612   -0.8754 H   0  0  0  0  0  0  0  0  0  0  0  0
    7.5864   -0.9301   -0.9133 H   0  0  0  0  0  0  0  0  0  0  0  0
    7.5724   -0.9526    0.8371 H   0  0  0  0  0  0  0  0  0  0  0  0
    6.4150    1.2682    0.8559 H   0  0  0  0  0  0  0  0  0  0  0  0
    6.4277    1.2894   -0.8941 H   0  0  0  0  0  0  0  0  0  0  0  0
    5.0375   -0.7961   -0.9275 H   0  0  0  0  0  0  0  0  0  0  0  0
    5.0239   -0.8132    0.8230 H   0  0  0  0  0  0  0  0  0  0  0  0
    3.8825    1.4157    0.8359 H   0  0  0  0  0  0  0  0  0  0  0  0
    3.8943    1.4318   -0.9140 H   0  0  0  0  0  0  0  0  0  0  0  0
    2.4865   -0.6399   -0.9432 H   0  0  0  0  0  0  0  0  0  0  0  0
    2.4763   -0.6580    0.8073 H   0  0  0  0  0  0  0  0  0  0  0  0
    1.3574    1.5856    0.8193 H   0  0  0  0  0  0  0  0  0  0  0  0
    1.3585    1.5919   -0.9310 H   0  0  0  0  0  0  0  0  0  0  0  0
   -0.0671   -0.4689   -0.9387 H   0  0  0  0  0  0  0  0  0  0  0  0
   -0.0665   -0.4746    0.8124 H   0  0  0  0  0  0  0  0  0  0  0  0
   -1.1635    1.7746    0.8200 H   0  0  0  0  0  0  0  0  0  0  0  0
   -1.1664    1.7790   -0.9309 H   0  0  0  0  0  0  0  0  0  0  0  0
   -2.6140   -0.2639   -0.9399 H   0  0  0  0  0  0  0  0  0  0  0  0
   -2.6081   -0.2742    0.8192 H   0  0  0  0  0  0  0  0  0  0  0  0
   -3.6688    1.9879    0.8414 H   0  0  0  0  0  0  0  0  0  0  0  0
   -3.6764    2.0003   -0.9247 H   0  0  0  0  0  0  0  0  0  0  0  0
   -7.1796   -0.3228   -0.8800 H   0  0  0  0  0  0  0  0  0  0  0  0
   -7.1704   -0.3295    0.8616 H   0  0  0  0  0  0  0  0  0  0  0  0
   -8.6710    1.6951    0.8811 H   0  0  0  0  0  0  0  0  0  0  0  0
   -8.6810    1.6992   -0.8693 H   0  0  0  0  0  0  0  0  0  0  0  0
   -9.7006   -0.5871   -0.8686 H   0  0  0  0  0  0  0  0  0  0  0  0
   -9.6913   -0.5900    0.8818 H   0  0  0  0  0  0  0  0  0  0  0  0
  -11.1899    1.4169    0.8933 H   0  0  0  0  0  0  0  0  0  0  0  0
  -11.1978    1.4214   -0.8569 H   0  0  0  0  0  0  0  0  0  0  0  0
  -12.2302   -0.8614   -0.8562 H   0  0  0  0  0  0  0  0  0  0  0  0
  -12.2265   -0.8612    0.8939 H   0  0  0  0  0  0  0  0  0  0  0  0
  -13.7201    1.1524    0.8945 H   0  0  0  0  0  0  0  0  0  0  0  0
  -13.7228    1.1491   -0.8555 H   0  0  0  0  0  0  0  0  0  0  0  0
  -14.7611   -1.1313   -0.8476 H   0  0  0  0  0  0  0  0  0  0  0  0
  -14.7645   -1.1220    0.9024 H   0  0  0  0  0  0  0  0  0  0  0  0
  -16.2532    0.8943    0.8876 H   0  0  0  0  0  0  0  0  0  0  0  0
  -16.2480    0.8846   -0.8622 H   0  0  0  0  0  0  0  0  0  0  0  0
  -17.2918   -1.3931   -0.8507 H   0  0  0  0  0  0  0  0  0  0  0  0
  -17.3027   -1.3779    0.8993 H   0  0  0  0  0  0  0  0  0  0  0  0
  -18.7872    0.6412    0.8714 H   0  0  0  0  0  0  0  0  0  0  0  0
  -18.7749    0.6256   -0.8784 H   0  0  0  0  0  0  0  0  0  0  0  0
  -19.8234   -1.6495   -0.8638 H   0  0  0  0  0  0  0  0  0  0  0  0
  -19.8394   -1.6301    0.8861 H   0  0  0  0  0  0  0  0  0  0  0  0
  -21.3203    0.3912    0.8492 H   0  0  0  0  0  0  0  0  0  0  0  0
  -21.3047    0.3702   -0.9007 H   0  0  0  0  0  0  0  0  0  0  0  0
  -22.3568   -1.9039   -0.8811 H   0  0  0  0  0  0  0  0  0  0  0  0
  -22.3742   -1.8797    0.8687 H   0  0  0  0  0  0  0  0  0  0  0  0
  -23.8541    0.1384    0.8261 H   0  0  0  0  0  0  0  0  0  0  0  0
  -23.8360    0.1163   -0.9221 H   0  0  0  0  0  0  0  0  0  0  0  0
  -24.9214   -2.1546   -0.9097 H   0  0  0  0  0  0  0  0  0  0  0  0
  -24.9402   -2.1304    0.8513 H   0  0  0  0  0  0  0  0  0  0  0  0
  -25.9105   -0.9736   -0.0555 H   0  0  0  0  0  0  0  0  0  0  0  0
  1  2  1  0
  1 43  1  0
  1 44  1  0
  1 45  1  0
  2  3  1  0
  2 46  1  0
  2 47  1  0
  3  4  1  0
  3 48  1  0
  3 49  1  0
  4  5  1  0
  4 50  1  0
  4 51  1  0
  5  6  1  0
  5 52  1  0
  5 53  1  0
  6  7  1  0
  6 54  1  0
  6 55  1  0
  7  8  1  0
  7 56  1  0
  7 57  1  0
  8  9  1  0
  8 58  1  0
  8 59  1  0
  9 10  1  0
  9 60  1  0
  9 61  1  0
 10 11  1  0
 10 62  1  0
 10 63  1  0
 11 12  1  0
 11 64  1  0
 11 65  1  0
 12 13  1  0
 12 66  1  0
 12 67  1  0
 13 14  1  0
 13 68  1  0
 13 69  1  0
 14 15  1  0
 14 70  1  0
 14 71  1  0
 15 16  1  0
 15 72  1  0
 15 73  1  0
 16 17  1  0
 16 74  1  0
 16 75  1  0
 17 18  1  0
 17 76  1  0
 17 77  1  0
 18 19  1  0
 18 78  1  0
 18 79  1  0
 19 20  1  0
 19 80  1  0
 19 81  1  0
 20 21  1  0
 20 82  1  0
 20 83  1  0
 21 22  1  0
 21 84  1  0
 21 85  1  0
 22 23  1  0
 22 86  1  0
 22 87  1  0
 23 24  1  0
 23 88  1  0
 23 89  1  0
 24 25  1  0
 24 90  1  0
 24 91  1  0
 25 26  1  0
 26 27  2  0
 26 28  1  0
 28 29  1  0
 28 92  1  0
 28 93  1  0
 29 30  1  0
 29 94  1  0
 29 95  1  0
 30 31  1  0
 30 96  1  0
 30 97  1  0
 31 32  1  0
 31 98  1  0
 31 99  1  0
 32 33  1  0
 32100  1  0
 32101  1  0
 33 34  1  0
 33102  1  0
 33103  1  0
 34 35  1  0
 34104  1  0
 34105  1  0
 35 36  1  0
 35106  1  0
 35107  1  0
 36 37  1  0
 36108  1  0
 36109  1  0
 37 38  1  0
 37110  1  0
 37111  1  0
 38 39  1  0
 38112  1  0
 38113  1  0
 39 40  1  0
 39114  1  0
 39115  1  0
 40 41  1  0
 40116  1  0
 40117  1  0
 41 42  1  0
 41118  1  0
 41119  1  0
 42120  1  0
 42121  1  0
 42122  1  0
M  END
