
     RDKit          3D

 33 34  0  0  0  0  0  0  0  0999 V2000
    3.2739    0.4525    0.1386 C   0  0  0  0  0  0  0  0  0  0  0  0
   -4.7555   -1.1119    0.5058 C   0  0  0  0  0  0  0  0  0  0  0  0
    3.3703    1.8482    0.1367 C   0  0  0  0  0  0  0  0  0  0  0  0
    2.2340    2.6278    0.2407 C   0  0  0  0  0  0  0  0  0  0  0  0
   -3.7472    1.2219   -0.5736 C   0  0  0  0  0  0  0  0  0  0  0  0
    0.9809    2.0355    0.3349 C   0  0  0  0  0  0  0  0  0  0  0  0
    0.8636    0.6486    0.3329 C   0  0  0  0  0  0  0  0  0  0  0  0
   -0.4499   -0.0545    0.4617 C   0  0  0  0  0  0  0  0  0  0  0  0
   -2.8676    0.2946   -0.0089 C   0  0  0  0  0  0  0  0  0  0  0  0
   -5.1096    0.9915   -0.6016 C   0  0  0  0  0  0  0  0  0  0  0  0
   -5.6102   -0.1813   -0.0577 C   0  0  0  0  0  0  0  0  0  0  0  0
   -1.5121    0.6313   -0.0296 N   0  0  0  0  0  0  0  0  0  0  0  0
    4.4350   -0.4245    0.0261 C   0  0  0  0  0  0  0  0  0  0  0  0
    7.9577   -0.4666   -0.4671 O   0  0  0  0  0  0  0  0  0  0  0  0
    6.7762   -1.0440   -0.2729 C   0  0  0  0  0  0  0  0  0  0  0  0
    6.6294   -2.2417   -0.1908 O   0  0  0  0  0  0  0  0  0  0  0  0
    5.7005   -0.0434   -0.1751 C   0  0  0  0  0  0  0  0  0  0  0  0
   -0.5246   -1.1623    0.9629 O   0  0  0  0  0  0  0  0  0  0  0  0
   -7.3171   -0.4818   -0.0847 Cl  0  0  0  0  0  0  0  0  0  0  0  0
   -3.3870   -0.8820    0.5324 C   0  0  0  0  0  0  0  0  0  0  0  0
    2.0137   -0.1304    0.2530 C   0  0  0  0  0  0  0  0  0  0  0  0
   -5.1446   -2.0281    0.9283 H   0  0  0  0  0  0  0  0  0  0  0  0
    4.3346    2.3332    0.0621 H   0  0  0  0  0  0  0  0  0  0  0  0
    2.3193    3.7056    0.2549 H   0  0  0  0  0  0  0  0  0  0  0  0
   -3.3637    2.1430   -0.9956 H   0  0  0  0  0  0  0  0  0  0  0  0
    0.1127    2.6738    0.4382 H   0  0  0  0  0  0  0  0  0  0  0  0
   -5.7701    1.7253   -1.0429 H   0  0  0  0  0  0  0  0  0  0  0  0
   -1.3075    1.4901   -0.5166 H   0  0  0  0  0  0  0  0  0  0  0  0
    4.2258   -1.4862    0.1121 H   0  0  0  0  0  0  0  0  0  0  0  0
    8.6502   -1.1411   -0.5286 H   0  0  0  0  0  0  0  0  0  0  0  0
    5.9807    0.9974   -0.2802 H   0  0  0  0  0  0  0  0  0  0  0  0
   -2.7468   -1.6269    0.9741 H   0  0  0  0  0  0  0  0  0  0  0  0
    1.9293   -1.2101    0.2653 H   0  0  0  0  0  0  0  0  0  0  0  0
 16 15  2  0
 15 17  1  0
 15 14  1  0
 17 13  2  0
  3  4  1  0
  3  1  2  0
 13  1  1  0
  4  6  2  0
  1 21  1  0
  6  7  1  0
 21  7  2  0
  7  8  1  0
  8 12  1  0
  8 18  2  0
 12  9  1  0
  9 20  1  0
  9  5  2  0
 20  2  2  0
  5 10  1  0
  2 11  1  0
 10 11  2  0
 11 19  1  0
  2 22  1  0
  3 23  1  0
  4 24  1  0
  5 25  1  0
  6 26  1  0
 10 27  1  0
 12 28  1  0
 13 29  1  0
 14 30  1  0
 17 31  1  0
 20 32  1  0
 21 33  1  0
M  END
