
     RDKit          3D

 24 24  0  0  0  0  0  0  0  0999 V2000
   -0.2183    2.2790    0.1067 O   0  0  0  0  0  0  0  0  0  0  0  0
    0.0563    0.9283   -0.1975 C   0  0  1  0  0  0  0  0  0  0  0  0
    1.3608    0.4834    0.4600 C   0  0  2  0  0  0  0  0  0  0  0  0
    2.3887    1.2939   -0.0595 O   0  0  0  0  0  0  0  0  0  0  0  0
    1.6130   -1.0073    0.2365 C   0  0  1  0  0  0  0  0  0  0  0  0
    0.4823   -1.7225    0.7519 N   0  0  0  0  0  0  0  0  0  0  0  0
   -0.7736   -1.4073    0.0941 C   0  0  0  0  0  0  0  0  0  0  0  0
   -1.1098    0.0699    0.2867 C   0  0  2  0  0  0  0  0  0  0  0  0
   -2.3925    0.4474   -0.4390 C   0  0  0  0  0  0  0  0  0  0  0  0
   -3.4520   -0.3414    0.0595 O   0  0  0  0  0  0  0  0  0  0  0  0
    1.8736   -1.1959   -1.1407 O   0  0  0  0  0  0  0  0  0  0  0  0
    0.5343    2.8038   -0.1853 H   0  0  0  0  0  0  0  0  0  0  0  0
    0.1548    0.7955   -1.2868 H   0  0  0  0  0  0  0  0  0  0  0  0
    1.2565    0.6266    1.5444 H   0  0  0  0  0  0  0  0  0  0  0  0
   -1.2415    0.2539    1.3606 H   0  0  0  0  0  0  0  0  0  0  0  0
    3.1591    1.2194    0.5114 H   0  0  0  0  0  0  0  0  0  0  0  0
    0.6505   -2.7199    0.7559 H   0  0  0  0  0  0  0  0  0  0  0  0
   -0.7663   -1.6372   -0.9818 H   0  0  0  0  0  0  0  0  0  0  0  0
   -1.5540   -2.0218    0.5417 H   0  0  0  0  0  0  0  0  0  0  0  0
   -2.5953    1.5146   -0.2984 H   0  0  0  0  0  0  0  0  0  0  0  0
   -2.2491    0.2870   -1.5175 H   0  0  0  0  0  0  0  0  0  0  0  0
   -4.2503   -0.1032   -0.4196 H   0  0  0  0  0  0  0  0  0  0  0  0
    2.1018   -2.1209   -1.2784 H   0  0  0  0  0  0  0  0  0  0  0  0
    2.4867   -1.3169    0.8269 H   0  0  0  0  0  0  0  0  0  0  0  0
  1  2  1  0
  2  3  1  0
  2  8  1  0
  3  4  1  0
  3  5  1  0
  5  6  1  0
  5 11  1  0
 11 23  1  0
  6  7  1  0
  7  8  1  0
  8  9  1  0
  9 10  1  0
  1 12  1  0
  2 13  1  6
  3 14  1  1
  8 15  1  1
  4 16  1  0
  6 17  1  0
  7 18  1  0
  7 19  1  0
  9 20  1  0
  9 21  1  0
 10 22  1  0
  5 24  1  1
M  END
