
     RDKit          3D

 42 42  0  0  0  0  0  0  0  0999 V2000
    0.1450    0.7909    1.0191 S   0  0  1  0  0  0  0  0  0  0  0  0
    0.0653    0.3985    2.3719 O   0  0  0  0  0  0  0  0  0  0  0  0
   -0.6201    1.9181    0.6658 O   0  0  0  0  0  0  0  0  0  0  0  0
    1.7451    1.0621    0.5849 C   0  0  0  0  0  0  0  0  0  0  0  0
    2.0717    1.9975   -0.4062 C   0  0  0  0  0  0  0  0  0  0  0  0
    3.3960    2.2454   -0.7477 C   0  0  0  0  0  0  0  0  0  0  0  0
    4.4322    1.5604   -0.0984 C   0  0  0  0  0  0  0  0  0  0  0  0
    4.1151    0.6292    0.8990 C   0  0  0  0  0  0  0  0  0  0  0  0
    2.7874    0.3874    1.2336 C   0  0  0  0  0  0  0  0  0  0  0  0
    5.8436    1.8319   -0.4526 C   0  0  0  0  0  0  0  0  0  0  0  0
   -0.2345   -0.4696    0.0693 N   0  0  0  0  0  0  0  0  0  0  0  0
   -1.1855   -1.4831    0.4333 C   0  0  2  0  0  0  0  0  0  0  0  0
   -0.6486   -2.9006    0.1835 C   0  0  0  0  0  0  0  0  0  0  0  0
    0.1290   -3.1594   -0.7342 O   0  0  0  0  0  0  0  0  0  0  0  0
   -2.5309   -1.3791   -0.3120 C   0  0  0  0  0  0  0  0  0  0  0  0
   -3.3364   -0.1863    0.1528 C   0  0  0  0  0  0  0  0  0  0  0  0
   -4.6445   -0.0947   -0.6040 C   0  0  0  0  0  0  0  0  0  0  0  0
   -5.4560    1.0990   -0.1017 C   0  0  0  0  0  0  0  0  0  0  0  0
   -6.7355    1.2342   -0.7571 N   0  0  0  0  0  0  0  0  0  0  0  0
   -1.1460   -3.9148    1.1748 C   0  0  0  0  0  0  0  0  0  0  0  0
   -1.4420   -5.4878    0.4800 Cl  0  0  0  0  0  0  0  0  0  0  0  0
    1.2604    2.5552   -0.9080 H   0  0  0  0  0  0  0  0  0  0  0  0
    3.6344    2.9832   -1.5287 H   0  0  0  0  0  0  0  0  0  0  0  0
    4.9202    0.0890    1.4199 H   0  0  0  0  0  0  0  0  0  0  0  0
    2.5457   -0.3357    2.0328 H   0  0  0  0  0  0  0  0  0  0  0  0
    6.2119    2.7206    0.1210 H   0  0  0  0  0  0  0  0  0  0  0  0
    6.4970    0.9594   -0.2046 H   0  0  0  0  0  0  0  0  0  0  0  0
    5.9454    2.0540   -1.5438 H   0  0  0  0  0  0  0  0  0  0  0  0
    0.1616   -0.6145   -0.8296 H   0  0  0  0  0  0  0  0  0  0  0  0
   -1.3867   -1.3804    1.5464 H   0  0  0  0  0  0  0  0  0  0  0  0
   -2.3501   -1.3148   -1.4166 H   0  0  0  0  0  0  0  0  0  0  0  0
   -3.1108   -2.3206   -0.1196 H   0  0  0  0  0  0  0  0  0  0  0  0
   -3.5458   -0.2777    1.2520 H   0  0  0  0  0  0  0  0  0  0  0  0
   -2.7483    0.7600    0.0046 H   0  0  0  0  0  0  0  0  0  0  0  0
   -4.4377    0.0152   -1.7007 H   0  0  0  0  0  0  0  0  0  0  0  0
   -5.2317   -1.0401   -0.4669 H   0  0  0  0  0  0  0  0  0  0  0  0
   -5.6571    0.9626    0.9996 H   0  0  0  0  0  0  0  0  0  0  0  0
   -4.8142    2.0248   -0.2070 H   0  0  0  0  0  0  0  0  0  0  0  0
   -7.1868    2.0773   -0.4633 H   0  0  0  0  0  0  0  0  0  0  0  0
   -6.6303    1.2481   -1.7520 H   0  0  0  0  0  0  0  0  0  0  0  0
   -0.3725   -4.0441    1.9739 H   0  0  0  0  0  0  0  0  0  0  0  0
   -2.1090   -3.5829    1.6358 H   0  0  0  0  0  0  0  0  0  0  0  0
  1  2  2  0
  1  4  1  0
  3  1  2  0
  4  5  2  0
  4  9  1  0
  5  6  1  0
  5 22  1  0
  6  7  2  0
  6 23  1  0
  7  8  1  0
  7 10  1  0
  8  9  2  0
  8 24  1  0
  9 25  1  0
 10 26  1  0
 10 27  1  0
 10 28  1  0
 11 12  1  0
 11 29  1  0
  1 11  1  6
 12 13  1  0
 12 15  1  0
 12 30  1  1
 13 14  2  0
 13 20  1  0
 15 16  1  0
 15 31  1  0
 15 32  1  0
 16 17  1  0
 16 33  1  0
 16 34  1  0
 17 18  1  0
 17 35  1  0
 17 36  1  0
 18 19  1  0
 18 37  1  0
 18 38  1  0
 19 39  1  0
 19 40  1  0
 20 41  1  0
 20 42  1  0
 20 21  1  0
M  END
