
     RDKit          3D

 46 49  0  0  0  0  0  0  0  0999 V2000
   -1.4861    1.3177   -1.4331 C   0  0  0  0  0  0  0  0  0  0  0  0
   -1.0124    1.4701    0.9327 C   0  0  0  0  0  0  0  0  0  0  0  0
   -1.3853    3.4899   -0.3596 C   0  0  0  0  0  0  0  0  0  0  0  0
   -1.2067    0.7164   -0.2156 C   0  0  0  0  0  0  0  0  0  0  0  0
   -1.5736    2.6963   -1.4730 C   0  0  0  0  0  0  0  0  0  0  0  0
   -1.1008    2.8424    0.8284 C   0  0  0  0  0  0  0  0  0  0  0  0
    2.5995   -2.3176   -0.2235 C   0  0  0  0  0  0  0  0  0  0  0  0
    2.3646   -0.9749    0.0322 C   0  0  0  0  0  0  0  0  0  0  0  0
    1.5216   -3.1770   -0.5256 C   0  0  0  0  0  0  0  0  0  0  0  0
    0.1066   -1.2680   -0.1862 C   0  0  0  0  0  0  0  0  0  0  0  0
   -2.1135   -2.9433   -0.0668 C   0  0  0  0  0  0  0  0  0  0  0  0
   -0.9186   -3.3667   -0.8807 C   0  0  0  0  0  0  0  0  0  0  0  0
    3.0405    1.2886    0.6956 C   0  0  0  0  0  0  0  0  0  0  0  0
    4.7321   -0.4304    0.4427 C   0  0  0  0  0  0  0  0  0  0  0  0
    4.0064    2.2615    0.0478 C   0  0  0  0  0  0  0  0  0  0  0  0
    5.6312    0.6242   -0.1807 C   0  0  0  0  0  0  0  0  0  0  0  0
   -2.3830   -1.4621   -0.2852 C   0  0  1  0  0  0  0  0  0  0  0  0
   -3.4225   -0.9691    0.7227 C   0  0  1  0  0  0  0  0  0  0  0  0
    1.1074   -0.4807    0.0604 N   0  0  0  0  0  0  0  0  0  0  0  0
   -1.1445   -0.7073   -0.1538 N   0  0  0  0  0  0  0  0  0  0  0  0
    3.3409   -0.0666    0.2621 N   0  0  0  0  0  0  0  0  0  0  0  0
    0.2394   -2.5770   -0.4902 N   0  0  0  0  0  0  0  0  0  0  0  0
    5.3483    1.9143    0.3069 O   0  0  0  0  0  0  0  0  0  0  0  0
   -1.8456    3.2902   -2.6403 F   0  0  0  0  0  0  0  0  0  0  0  0
   -0.9082    3.5844    1.9251 F   0  0  0  0  0  0  0  0  0  0  0  0
   -2.9392   -0.9398    1.9679 F   0  0  0  0  0  0  0  0  0  0  0  0
   -3.8802    0.2553    0.4448 F   0  0  0  0  0  0  0  0  0  0  0  0
   -4.4859   -1.7808    0.7230 F   0  0  0  0  0  0  0  0  0  0  0  0
   -1.6278    0.7297   -2.3305 H   0  0  0  0  0  0  0  0  0  0  0  0
   -0.7813    1.0019    1.8789 H   0  0  0  0  0  0  0  0  0  0  0  0
   -1.4547    4.5683   -0.4143 H   0  0  0  0  0  0  0  0  0  0  0  0
    3.5867   -2.7508   -0.2431 H   0  0  0  0  0  0  0  0  0  0  0  0
   -2.9794   -3.5232   -0.3796 H   0  0  0  0  0  0  0  0  0  0  0  0
   -1.9267   -3.1581    0.9873 H   0  0  0  0  0  0  0  0  0  0  0  0
   -0.6940   -4.4130   -0.7004 H   0  0  0  0  0  0  0  0  0  0  0  0
   -1.1039   -3.2447   -1.9508 H   0  0  0  0  0  0  0  0  0  0  0  0
   -2.8107   -1.3184   -1.2843 H   0  0  0  0  0  0  0  0  0  0  0  0
    3.1178    1.3575    1.7880 H   0  0  0  0  0  0  0  0  0  0  0  0
    2.0211    1.5429    0.4203 H   0  0  0  0  0  0  0  0  0  0  0  0
    3.8193    2.2945   -1.0347 H   0  0  0  0  0  0  0  0  0  0  0  0
    3.8419    3.2625    0.4490 H   0  0  0  0  0  0  0  0  0  0  0  0
    4.9549   -1.3819   -0.0335 H   0  0  0  0  0  0  0  0  0  0  0  0
    4.9562   -0.5375    1.5111 H   0  0  0  0  0  0  0  0  0  0  0  0
    6.6720    0.4014    0.0570 H   0  0  0  0  0  0  0  0  0  0  0  0
    5.5185    0.5908   -1.2737 H   0  0  0  0  0  0  0  0  0  0  0  0
    1.6039   -4.3673   -0.8182 O   0  0  0  0  0  0  0  0  0  0  0  0
  1  4  2  0
  1  5  1  0
  2  4  1  0
  2  6  2  0
  3  5  2  0
  3  6  1  0
  4 20  1  0
  5 24  1  0
  6 25  1  0
  7  8  2  0
  7  9  1  0
  8 19  1  0
  8 21  1  0
  9 22  1  0
  9 46  2  0
 10 19  2  0
 10 20  1  0
 10 22  1  0
 11 12  1  0
 11 17  1  0
 12 22  1  0
 13 15  1  0
 13 21  1  0
 14 16  1  0
 14 21  1  0
 15 23  1  0
 16 23  1  0
 17 18  1  0
 17 20  1  0
 18 26  1  1
 18 27  1  0
 18 28  1  0
  1 29  1  0
  2 30  1  0
  3 31  1  0
  7 32  1  0
 11 33  1  0
 11 34  1  0
 12 35  1  0
 12 36  1  0
 17 37  1  6
 13 38  1  0
 13 39  1  0
 15 40  1  0
 15 41  1  0
 14 42  1  0
 14 43  1  0
 16 44  1  0
 16 45  1  0
M  END
