
     RDKit          3D

 37 39  0  0  0  0  0  0  0  0999 V2000
    5.3868   -0.8012   -0.2315 C   0  0  0  0  0  0  0  0  0  0  0  0
    3.9576   -0.3923   -0.1072 C   0  0  0  0  0  0  0  0  0  0  0  0
    3.5514    0.8945   -0.1253 C   0  0  0  0  0  0  0  0  0  0  0  0
    2.1714    1.2631   -0.0044 C   0  0  0  0  0  0  0  0  0  0  0  0
    1.7256    2.5969    0.0205 C   0  0  0  0  0  0  0  0  0  0  0  0
    0.3840    2.8216    0.1712 C   0  0  0  0  0  0  0  0  0  0  0  0
   -0.5287    1.8423    0.2418 N   0  0  0  0  0  0  0  0  0  0  0  0
   -0.1453    0.5835    0.1950 C   0  0  0  0  0  0  0  0  0  0  0  0
   -1.0821   -0.4085    0.2783 N   0  0  0  0  0  0  0  0  0  0  0  0
   -2.5063   -0.1239    0.3123 C   0  0  2  0  0  0  0  0  0  0  0  0
   -3.2481   -1.3427    0.8530 C   0  0  0  0  0  0  0  0  0  0  0  0
   -4.7560   -1.0925    0.8632 C   0  0  0  0  0  0  0  0  0  0  0  0
   -5.2999   -0.6771   -0.4190 N   0  0  0  0  0  0  0  0  0  0  0  0
   -4.5903    0.4749   -0.9521 C   0  0  0  0  0  0  0  0  0  0  0  0
   -3.0776    0.2788   -1.0467 C   0  0  0  0  0  0  0  0  0  0  0  0
    1.2365    0.2455    0.1161 C   0  0  0  0  0  0  0  0  0  0  0  0
    1.6714   -1.0559    0.1636 N   0  0  0  0  0  0  0  0  0  0  0  0
    2.9747   -1.4625    0.0695 C   0  0  0  0  0  0  0  0  0  0  0  0
    3.2725   -2.6484    0.1402 O   0  0  0  0  0  0  0  0  0  0  0  0
    5.7256   -1.3265    0.6631 H   0  0  0  0  0  0  0  0  0  0  0  0
    5.5317   -1.4820   -1.0716 H   0  0  0  0  0  0  0  0  0  0  0  0
    6.0282    0.0654   -0.3787 H   0  0  0  0  0  0  0  0  0  0  0  0
    4.2820    1.6882   -0.2324 H   0  0  0  0  0  0  0  0  0  0  0  0
    2.4285    3.4143   -0.0634 H   0  0  0  0  0  0  0  0  0  0  0  0
   -0.0031    3.8326    0.2245 H   0  0  0  0  0  0  0  0  0  0  0  0
   -0.8606   -1.2686   -0.2011 H   0  0  0  0  0  0  0  0  0  0  0  0
   -2.6529    0.7061    1.0087 H   0  0  0  0  0  0  0  0  0  0  0  0
   -3.0274   -2.2157    0.2267 H   0  0  0  0  0  0  0  0  0  0  0  0
   -2.9009   -1.5761    1.8627 H   0  0  0  0  0  0  0  0  0  0  0  0
   -2.5971    1.1931   -1.4000 H   0  0  0  0  0  0  0  0  0  0  0  0
   -2.8600   -0.5081   -1.7785 H   0  0  0  0  0  0  0  0  0  0  0  0
   -5.2814   -1.9902    1.1944 H   0  0  0  0  0  0  0  0  0  0  0  0
   -4.9827   -0.3109    1.5970 H   0  0  0  0  0  0  0  0  0  0  0  0
   -5.2129   -1.4455   -1.0748 H   0  0  0  0  0  0  0  0  0  0  0  0
   -5.0001    0.7177   -1.9345 H   0  0  0  0  0  0  0  0  0  0  0  0
   -4.8042    1.3337   -0.3059 H   0  0  0  0  0  0  0  0  0  0  0  0
    1.0070   -1.7943    0.3502 H   0  0  0  0  0  0  0  0  0  0  0  0
  1  2  1  0
  2  3  2  0
  2 18  1  0
  3  4  1  0
  4  5  1  0
  4 16  2  0
  5  6  2  0
  6  7  1  0
  7  8  2  0
  8  9  1  0
  8 16  1  0
  9 10  1  0
 10 11  1  0
 10 15  1  0
 11 12  1  0
 12 13  1  0
 13 14  1  0
 14 15  1  0
 16 17  1  0
 17 18  1  0
 18 19  2  0
  1 20  1  0
  1 21  1  0
  1 22  1  0
  3 23  1  0
  5 24  1  0
  6 25  1  0
  9 26  1  0
 10 27  1  1
 11 28  1  0
 11 29  1  0
 15 30  1  0
 15 31  1  0
 12 32  1  0
 12 33  1  0
 13 34  1  0
 14 35  1  0
 14 36  1  0
 17 37  1  0
M  END
