
     RDKit          3D

 63 67  0  0  0  0  0  0  0  0999 V2000
   -2.2718   -3.3530   -0.7340 O   0  0  0  0  0  0  0  0  0  0  0  0
   -1.8538   -2.2158   -0.9118 C   0  0  0  0  0  0  0  0  0  0  0  0
   -2.8028   -1.0283   -0.9915 C   0  0  2  0  0  0  0  0  0  0  0  0
   -3.1834   -0.6278    0.4527 C   0  0  0  0  0  0  0  0  0  0  0  0
   -4.0453    0.5892    0.5034 C   0  0  0  0  0  0  0  0  0  0  0  0
   -3.6204    1.8850    0.6087 C   0  0  0  0  0  0  0  0  0  0  0  0
   -4.6876    2.7372    0.5792 N   0  0  0  0  0  0  0  0  0  0  0  0
   -5.8379    2.0165    0.4544 C   0  0  0  0  0  0  0  0  0  0  0  0
   -5.4749    0.6515    0.4018 C   0  0  0  0  0  0  0  0  0  0  0  0
   -6.4840   -0.3131    0.2839 C   0  0  0  0  0  0  0  0  0  0  0  0
   -7.8004    0.0978    0.2175 C   0  0  0  0  0  0  0  0  0  0  0  0
   -8.1376    1.4614    0.2659 C   0  0  0  0  0  0  0  0  0  0  0  0
   -7.1662    2.4360    0.3861 C   0  0  0  0  0  0  0  0  0  0  0  0
   -3.9113   -1.3744   -1.8565 N   0  0  0  0  0  0  0  0  0  0  0  0
   -0.5521   -1.9129   -0.9974 N   0  0  0  0  0  0  0  0  0  0  0  0
    0.5186   -2.8843   -0.8386 C   0  0  2  0  0  0  0  0  0  0  0  0
    0.7462   -3.2447    0.6296 C   0  0  0  0  0  0  0  0  0  0  0  0
    1.3321   -2.0765    1.4046 C   0  0  0  0  0  0  0  0  0  0  0  0
    1.8109   -2.3163   -1.4143 C   0  0  0  0  0  0  0  0  0  0  0  0
    2.3796   -1.1909   -0.5585 C   0  0  0  0  0  0  0  0  0  0  0  0
    2.5780   -1.6222    0.8117 N   0  0  0  0  0  0  0  0  0  0  0  0
    3.1898   -0.5847    1.6302 C   0  0  0  0  0  0  0  0  0  0  0  0
    4.5689   -0.2128    1.1923 C   0  0  0  0  0  0  0  0  0  0  0  0
    5.7217   -0.8906    1.4806 C   0  0  0  0  0  0  0  0  0  0  0  0
    6.7918   -0.2653    0.9112 N   0  0  0  0  0  0  0  0  0  0  0  0
    6.3611    0.8420    0.2383 C   0  0  0  0  0  0  0  0  0  0  0  0
    4.9601    0.9082    0.3898 C   0  0  0  0  0  0  0  0  0  0  0  0
    4.2575    1.9535   -0.2230 C   0  0  0  0  0  0  0  0  0  0  0  0
    4.9392    2.9095   -0.9551 C   0  0  0  0  0  0  0  0  0  0  0  0
    4.2091    4.0566   -1.5972 C   0  0  0  0  0  0  0  0  0  0  0  0
    6.3408    2.8137   -1.0810 C   0  0  0  0  0  0  0  0  0  0  0  0
    7.0650    1.7935   -0.4972 C   0  0  0  0  0  0  0  0  0  0  0  0
   -2.2835   -0.1760   -1.4405 H   0  0  0  0  0  0  0  0  0  0  0  0
   -3.6914   -1.4720    0.9289 H   0  0  0  0  0  0  0  0  0  0  0  0
   -2.2665   -0.4535    1.0235 H   0  0  0  0  0  0  0  0  0  0  0  0
   -2.6166    2.2678    0.7110 H   0  0  0  0  0  0  0  0  0  0  0  0
   -4.6269    3.7390    0.6471 H   0  0  0  0  0  0  0  0  0  0  0  0
   -6.2393   -1.3681    0.2481 H   0  0  0  0  0  0  0  0  0  0  0  0
   -8.5881   -0.6387    0.1259 H   0  0  0  0  0  0  0  0  0  0  0  0
   -9.1788    1.7522    0.2097 H   0  0  0  0  0  0  0  0  0  0  0  0
   -7.4266    3.4863    0.4264 H   0  0  0  0  0  0  0  0  0  0  0  0
   -4.4044   -2.1734   -1.4765 H   0  0  0  0  0  0  0  0  0  0  0  0
   -4.5744   -0.6096   -1.8792 H   0  0  0  0  0  0  0  0  0  0  0  0
   -0.3038   -0.9549   -1.1838 H   0  0  0  0  0  0  0  0  0  0  0  0
    0.2398   -3.7837   -1.3924 H   0  0  0  0  0  0  0  0  0  0  0  0
   -0.1871   -3.5683    1.0930 H   0  0  0  0  0  0  0  0  0  0  0  0
    1.4370   -4.0914    0.6734 H   0  0  0  0  0  0  0  0  0  0  0  0
    0.5875   -1.2615    1.4660 H   0  0  0  0  0  0  0  0  0  0  0  0
    1.5303   -2.3873    2.4333 H   0  0  0  0  0  0  0  0  0  0  0  0
    2.5443   -3.1242   -1.4664 H   0  0  0  0  0  0  0  0  0  0  0  0
    1.6541   -1.9618   -2.4358 H   0  0  0  0  0  0  0  0  0  0  0  0
    3.3379   -0.8796   -0.9785 H   0  0  0  0  0  0  0  0  0  0  0  0
    1.7260   -0.2980   -0.6046 H   0  0  0  0  0  0  0  0  0  0  0  0
    2.5606    0.3222    1.6614 H   0  0  0  0  0  0  0  0  0  0  0  0
    3.2249   -0.9593    2.6567 H   0  0  0  0  0  0  0  0  0  0  0  0
    5.8586   -1.7869    2.0659 H   0  0  0  0  0  0  0  0  0  0  0  0
    7.7469   -0.5702    0.9917 H   0  0  0  0  0  0  0  0  0  0  0  0
    3.1784    2.0133   -0.1286 H   0  0  0  0  0  0  0  0  0  0  0  0
    4.2442    4.9519   -0.9720 H   0  0  0  0  0  0  0  0  0  0  0  0
    4.6473    4.3219   -2.5597 H   0  0  0  0  0  0  0  0  0  0  0  0
    3.1584    3.8192   -1.7624 H   0  0  0  0  0  0  0  0  0  0  0  0
    6.8664    3.5646   -1.6592 H   0  0  0  0  0  0  0  0  0  0  0  0
    8.1400    1.7363   -0.6139 H   0  0  0  0  0  0  0  0  0  0  0  0
 17 18  1  0
 17 16  1  0
  1  2  2  0
 11 10  1  0
 11 12  2  0
 18 21  1  0
 10  9  2  0
 16 15  1  0
 16 19  1  0
  2 15  1  0
  2  3  1  0
 12 13  1  0
 21 22  1  0
 21 20  1  0
 22 23  1  0
  4  3  1  0
  4  5  1  0
 19 20  1  0
  9  5  1  0
  9  8  1  0
 14  3  1  0
 24 23  2  0
 24 25  1  0
  5  6  2  0
 23 27  1  0
 13  8  2  0
  8  7  1  0
 25 26  1  0
  6  7  1  0
 27 26  2  0
 27 28  1  0
 26 32  1  0
 28 29  2  0
 32 31  2  0
 29 31  1  0
 29 30  1  0
  3 33  1  6
  4 34  1  0
  4 35  1  0
  6 36  1  0
  7 37  1  0
 10 38  1  0
 11 39  1  0
 12 40  1  0
 13 41  1  0
 14 42  1  0
 14 43  1  0
 15 44  1  0
 16 45  1  6
 17 46  1  0
 17 47  1  0
 18 48  1  0
 18 49  1  0
 19 50  1  0
 19 51  1  0
 20 52  1  0
 20 53  1  0
 22 54  1  0
 22 55  1  0
 24 56  1  0
 25 57  1  0
 28 58  1  0
 30 59  1  0
 30 60  1  0
 30 61  1  0
 31 62  1  0
 32 63  1  0
M  END
