
     RDKit          3D

 37 36  0  0  0  0  0  0  0  0999 V2000
   -7.1262   -0.5084   -0.3140 C   0  0  0  0  0  0  0  0  0  0  0  0
   -7.1832   -1.1935    0.9163 O   0  0  0  0  0  0  0  0  0  0  0  0
   -5.9998    0.4925   -0.2833 C   0  0  0  0  0  0  0  0  0  0  0  0
   -4.7658   -0.1743   -0.1886 O   0  0  0  0  0  0  0  0  0  0  0  0
   -3.6733    0.7101   -0.1661 C   0  0  0  0  0  0  0  0  0  0  0  0
   -0.0102    0.0581    0.0194 O   0  0  0  0  0  0  0  0  0  0  0  0
   -2.3864   -0.0879   -0.0796 C   0  0  0  0  0  0  0  0  0  0  0  0
    4.7457   -0.1572    0.2339 O   0  0  0  0  0  0  0  0  0  0  0  0
   -1.1821    0.8333   -0.0406 C   0  0  0  0  0  0  0  0  0  0  0  0
    7.1737   -1.1537   -0.8717 O   0  0  0  0  0  0  0  0  0  0  0  0
    1.1583    0.8375    0.0906 C   0  0  0  0  0  0  0  0  0  0  0  0
    2.3664   -0.0790    0.1223 C   0  0  0  0  0  0  0  0  0  0  0  0
    3.6496    0.7230    0.2231 C   0  0  0  0  0  0  0  0  0  0  0  0
    5.9769    0.5129    0.3410 C   0  0  0  0  0  0  0  0  0  0  0  0
    7.1069   -0.4840    0.3665 C   0  0  0  0  0  0  0  0  0  0  0  0
   -6.9787   -1.1958   -1.1575 H   0  0  0  0  0  0  0  0  0  0  0  0
   -8.0506    0.0470   -0.5154 H   0  0  0  0  0  0  0  0  0  0  0  0
   -7.9511   -1.7711    0.9005 H   0  0  0  0  0  0  0  0  0  0  0  0
   -6.0516    1.0958   -1.2006 H   0  0  0  0  0  0  0  0  0  0  0  0
   -6.1372    1.1856    0.5597 H   0  0  0  0  0  0  0  0  0  0  0  0
   -3.6657    1.3379   -1.0698 H   0  0  0  0  0  0  0  0  0  0  0  0
   -3.7499    1.3956    0.6910 H   0  0  0  0  0  0  0  0  0  0  0  0
   -2.4001   -0.7108    0.8191 H   0  0  0  0  0  0  0  0  0  0  0  0
   -2.3100   -0.7545   -0.9430 H   0  0  0  0  0  0  0  0  0  0  0  0
   -1.2491    1.5010    0.8309 H   0  0  0  0  0  0  0  0  0  0  0  0
   -1.1720    1.4794   -0.9309 H   0  0  0  0  0  0  0  0  0  0  0  0
    7.9251   -1.7524   -0.8465 H   0  0  0  0  0  0  0  0  0  0  0  0
    1.2244    1.5153   -0.7732 H   0  0  0  0  0  0  0  0  0  0  0  0
    1.1432    1.4734    0.9883 H   0  0  0  0  0  0  0  0  0  0  0  0
    2.2896   -0.7566    0.9771 H   0  0  0  0  0  0  0  0  0  0  0  0
    2.3858   -0.6904   -0.7842 H   0  0  0  0  0  0  0  0  0  0  0  0
    3.6380    1.3367    1.1364 H   0  0  0  0  0  0  0  0  0  0  0  0
    3.7250    1.4220   -0.6231 H   0  0  0  0  0  0  0  0  0  0  0  0
    6.1149    1.2145   -0.4950 H   0  0  0  0  0  0  0  0  0  0  0  0
    6.0228    1.1079    1.2640 H   0  0  0  0  0  0  0  0  0  0  0  0
    6.9565   -1.1820    1.2006 H   0  0  0  0  0  0  0  0  0  0  0  0
    8.0279    0.0730    0.5798 H   0  0  0  0  0  0  0  0  0  0  0  0
  1  2  1  0
  1  3  1  0
  3  4  1  0
  4  5  1  0
  5  7  1  0
  6  9  1  0
  6 11  1  0
  7  9  1  0
  8 13  1  0
  8 14  1  0
 10 15  1  0
 11 12  1  0
 12 13  1  0
 14 15  1  0
  1 16  1  0
  1 17  1  0
  2 18  1  0
  3 19  1  0
  3 20  1  0
  5 21  1  0
  5 22  1  0
  7 23  1  0
  7 24  1  0
  9 25  1  0
  9 26  1  0
 10 27  1  0
 11 28  1  0
 11 29  1  0
 12 30  1  0
 12 31  1  0
 13 32  1  0
 13 33  1  0
 14 34  1  0
 14 35  1  0
 15 36  1  0
 15 37  1  0
M  END
