
     RDKit          3D

 19 20  0  0  0  0  0  0  0  0999 V2000
    1.8904    1.6415   -0.1030 S   0  0  0  0  0  0  0  0  0  0  0  0
    0.9421    0.2493   -0.0363 C   0  0  0  0  0  0  0  0  0  0  0  0
   -0.4987    0.2091   -0.0172 C   0  0  0  0  0  0  0  0  0  0  0  0
   -1.2454    1.3997   -0.0545 C   0  0  0  0  0  0  0  0  0  0  0  0
   -2.6173    1.3600   -0.0379 C   0  0  0  0  0  0  0  0  0  0  0  0
   -3.2901    0.1293    0.0176 C   0  0  0  0  0  0  0  0  0  0  0  0
   -2.5822   -1.0455    0.0555 C   0  0  0  0  0  0  0  0  0  0  0  0
   -1.1757   -1.0288    0.0383 C   0  0  0  0  0  0  0  0  0  0  0  0
   -0.4139   -2.2288    0.0760 C   0  0  0  0  0  0  0  0  0  0  0  0
    0.9314   -2.1628    0.0570 C   0  0  0  0  0  0  0  0  0  0  0  0
    1.5541   -0.9514    0.0021 N   0  0  0  0  0  0  0  0  0  0  0  0
    2.9028   -1.0153   -0.0129 O   0  0  0  0  0  0  0  0  0  0  0  0
   -0.7249    2.3468   -0.0978 H   0  0  0  0  0  0  0  0  0  0  0  0
   -3.1840    2.2808   -0.0680 H   0  0  0  0  0  0  0  0  0  0  0  0
   -4.3717    0.1087    0.0308 H   0  0  0  0  0  0  0  0  0  0  0  0
   -3.0973   -1.9966    0.1000 H   0  0  0  0  0  0  0  0  0  0  0  0
   -0.8979   -3.1935    0.1226 H   0  0  0  0  0  0  0  0  0  0  0  0
    1.5809   -3.0243    0.0820 H   0  0  0  0  0  0  0  0  0  0  0  0
    3.1815   -0.0681   -0.0556 H   0  0  0  0  0  0  0  0  0  0  0  0
 10  9  2  0
 10 11  1  0
  9  8  1  0
 12 11  1  0
 11  2  1  0
  8  7  1  0
  8  3  2  0
  7  6  2  0
  2  3  1  0
  2  1  2  0
  3  4  1  0
  6  5  1  0
  4  5  2  0
  4 13  1  0
  5 14  1  0
  6 15  1  0
  7 16  1  0
  9 17  1  0
 10 18  1  0
 12 19  1  0
M  END
