
     RDKit          3D

 45 44  0  0  0  0  0  0  0  0999 V2000
    8.6645   -1.0599   -0.0141 C   0  0  0  0  0  0  0  0  0  0  0  0
    7.5806   -0.0105   -0.0180 C   0  0  0  0  0  0  0  0  0  0  0  0
    7.8386    1.1871   -0.0511 O   0  0  0  0  0  0  0  0  0  0  0  0
    6.3236   -0.4746    0.0180 N   0  0  0  0  0  0  0  0  0  0  0  0
    5.1627    0.3908    0.0213 C   0  0  0  0  0  0  0  0  0  0  0  0
    3.8850   -0.4320    0.0269 C   0  0  0  0  0  0  0  0  0  0  0  0
    2.6479    0.4525    0.0279 C   0  0  0  0  0  0  0  0  0  0  0  0
    1.4380   -0.3453    0.0341 N   0  0  0  0  0  0  0  0  0  0  0  0
    0.2293    0.4569    0.0328 C   0  0  0  0  0  0  0  0  0  0  0  0
   -1.0158   -0.4162    0.0204 C   0  0  0  0  0  0  0  0  0  0  0  0
   -2.3018    0.3997    0.0179 C   0  0  0  0  0  0  0  0  0  0  0  0
   -3.5447   -0.4766    0.0067 C   0  0  0  0  0  0  0  0  0  0  0  0
   -4.7577    0.3176   -0.0186 N   0  0  0  0  0  0  0  0  0  0  0  0
   -5.9624   -0.4897   -0.0149 C   0  0  0  0  0  0  0  0  0  0  0  0
   -7.2134    0.3741   -0.0282 C   0  0  0  0  0  0  0  0  0  0  0  0
   -8.4880   -0.4559   -0.0338 C   0  0  0  0  0  0  0  0  0  0  0  0
   -9.6653    0.4010   -0.0600 N   0  0  0  0  0  0  0  0  0  0  0  0
    9.3063   -0.9164    0.8550 H   0  0  0  0  0  0  0  0  0  0  0  0
    8.2840   -2.0793    0.0049 H   0  0  0  0  0  0  0  0  0  0  0  0
    9.2881   -0.9421   -0.9001 H   0  0  0  0  0  0  0  0  0  0  0  0
    6.1750   -1.4700    0.0490 H   0  0  0  0  0  0  0  0  0  0  0  0
    5.1866    1.0448    0.8983 H   0  0  0  0  0  0  0  0  0  0  0  0
    5.1827    1.0409   -0.8581 H   0  0  0  0  0  0  0  0  0  0  0  0
    3.8674   -1.0824   -0.8539 H   0  0  0  0  0  0  0  0  0  0  0  0
    3.8633   -1.0822    0.9061 H   0  0  0  0  0  0  0  0  0  0  0  0
    2.6514    1.0777    0.9268 H   0  0  0  0  0  0  0  0  0  0  0  0
    2.6940    1.1461   -0.8280 H   0  0  0  0  0  0  0  0  0  0  0  0
    1.4347   -0.9355   -0.7908 H   0  0  0  0  0  0  0  0  0  0  0  0
    0.2272    1.0752    0.9368 H   0  0  0  0  0  0  0  0  0  0  0  0
    0.1900    1.1586   -0.8170 H   0  0  0  0  0  0  0  0  0  0  0  0
   -0.9954   -1.0627   -0.8643 H   0  0  0  0  0  0  0  0  0  0  0  0
   -0.9958   -1.0801    0.8901 H   0  0  0  0  0  0  0  0  0  0  0  0
   -2.3227    1.0488    0.9007 H   0  0  0  0  0  0  0  0  0  0  0  0
   -2.3223    1.0608   -0.8540 H   0  0  0  0  0  0  0  0  0  0  0  0
   -3.5305   -1.1079   -0.8884 H   0  0  0  0  0  0  0  0  0  0  0  0
   -3.5097   -1.1669    0.8663 H   0  0  0  0  0  0  0  0  0  0  0  0
   -4.7683    0.9196    0.7977 H   0  0  0  0  0  0  0  0  0  0  0  0
   -5.9509   -1.1227   -0.9087 H   0  0  0  0  0  0  0  0  0  0  0  0
   -6.0050   -1.1796    0.8449 H   0  0  0  0  0  0  0  0  0  0  0  0
   -7.2204    1.0328    0.8464 H   0  0  0  0  0  0  0  0  0  0  0  0
   -7.1915    1.0218   -0.9109 H   0  0  0  0  0  0  0  0  0  0  0  0
   -8.4458   -1.1666   -0.8722 H   0  0  0  0  0  0  0  0  0  0  0  0
   -8.5254   -1.0606    0.8767 H   0  0  0  0  0  0  0  0  0  0  0  0
   -9.7022    0.8837   -0.9498 H   0  0  0  0  0  0  0  0  0  0  0  0
  -10.4993   -0.1715   -0.0294 H   0  0  0  0  0  0  0  0  0  0  0  0
  1  2  1  0
  2  3  2  0
  2  4  1  0
  4  5  1  0
  5  6  1  0
  6  7  1  0
  7  8  1  0
  8  9  1  0
  9 10  1  0
 10 11  1  0
 11 12  1  0
 12 13  1  0
 13 14  1  0
 14 15  1  0
 15 16  1  0
 16 17  1  0
  1 18  1  0
  1 19  1  0
  1 20  1  0
  4 21  1  0
  5 22  1  0
  5 23  1  0
  6 24  1  0
  6 25  1  0
  7 26  1  0
  7 27  1  0
  8 28  1  0
  9 29  1  0
  9 30  1  0
 10 31  1  0
 10 32  1  0
 11 33  1  0
 11 34  1  0
 12 35  1  0
 12 36  1  0
 13 37  1  0
 14 38  1  0
 14 39  1  0
 15 40  1  0
 15 41  1  0
 16 42  1  0
 16 43  1  0
 17 44  1  0
 17 45  1  0
M  END
