
     RDKit          3D

 53 55  0  0  0  0  0  0  0  0999 V2000
    1.7620    1.3342   -0.4612 C   0  0  0  0  0  0  0  0  0  0  0  0
    2.1534    1.7427    0.9539 C   0  0  0  0  0  0  0  0  0  0  0  0
   -3.4487   -2.8978    1.6032 O   0  0  0  0  0  0  0  0  0  0  0  0
    3.9458    0.7096   -1.4376 C   0  0  0  0  0  0  0  0  0  0  0  0
    4.9791    0.6415   -0.3389 C   0  0  0  0  0  0  0  0  0  0  0  0
    6.0231   -0.4828    1.5258 C   0  0  0  0  0  0  0  0  0  0  0  0
    6.9602    0.5371    1.6342 C   0  0  0  0  0  0  0  0  0  0  0  0
    6.9071    1.6091    0.7543 C   0  0  0  0  0  0  0  0  0  0  0  0
    5.9212    1.6591   -0.2226 C   0  0  0  0  0  0  0  0  0  0  0  0
    0.8196   -1.3622   -0.9151 C   0  0  0  0  0  0  0  0  0  0  0  0
    0.4445   -1.4368    0.4210 C   0  0  0  0  0  0  0  0  0  0  0  0
   -0.8205   -1.8838    0.7698 C   0  0  0  0  0  0  0  0  0  0  0  0
   -1.6995   -2.2595   -0.2336 C   0  0  0  0  0  0  0  0  0  0  0  0
   -3.7560   -0.0698    0.3882 C   0  0  0  0  0  0  0  0  0  0  0  0
   -3.0626    0.8282   -0.4166 C   0  0  0  0  0  0  0  0  0  0  0  0
   -2.6017    2.0095    0.1377 C   0  0  0  0  0  0  0  0  0  0  0  0
   -2.7998    2.3054    1.4775 C   0  0  0  0  0  0  0  0  0  0  0  0
   -3.4864    1.3939    2.2665 C   0  0  0  0  0  0  0  0  0  0  0  0
   -3.9733    0.2108    1.7313 C   0  0  0  0  0  0  0  0  0  0  0  0
   -1.3331   -2.2146   -1.5728 C   0  0  0  0  0  0  0  0  0  0  0  0
   -0.0645   -1.7772   -1.9076 C   0  0  0  0  0  0  0  0  0  0  0  0
   -3.3704   -2.6761    0.1729 S   0  0  1  0  0  0  0  0  0  0  0  0
   -3.8644   -3.6745   -0.7566 O   0  0  0  0  0  0  0  0  0  0  0  0
   -4.2308   -1.2850   -0.1683 N   0  0  0  0  0  0  0  0  0  0  0  0
   -1.7350    3.1240   -0.8653 Cl  0  0  0  0  0  0  0  0  0  0  0  0
    2.2023   -0.9525   -1.3272 C   0  0  0  0  0  0  0  0  0  0  0  0
    2.8980   -1.7708   -1.9125 O   0  0  0  0  0  0  0  0  0  0  0  0
    2.6098    0.2989   -1.0383 N   0  0  0  0  0  0  0  0  0  0  0  0
    1.1796    2.7633    1.5238 C   0  0  0  0  0  0  0  0  0  0  0  0
    5.0419   -0.4325    0.5452 C   0  0  0  0  0  0  0  0  0  0  0  0
    0.7243    1.0046   -0.4784 H   0  0  0  0  0  0  0  0  0  0  0  0
    1.8083    2.2073   -1.1186 H   0  0  0  0  0  0  0  0  0  0  0  0
    2.1855    0.8592    1.5970 H   0  0  0  0  0  0  0  0  0  0  0  0
    3.1632    2.1574    0.9563 H   0  0  0  0  0  0  0  0  0  0  0  0
    3.8817    1.7328   -1.8138 H   0  0  0  0  0  0  0  0  0  0  0  0
    4.2648    0.0896   -2.2762 H   0  0  0  0  0  0  0  0  0  0  0  0
    6.0552   -1.3233    2.2071 H   0  0  0  0  0  0  0  0  0  0  0  0
    7.7238    0.4965    2.3999 H   0  0  0  0  0  0  0  0  0  0  0  0
    7.6278    2.4129    0.8319 H   0  0  0  0  0  0  0  0  0  0  0  0
    5.8834    2.5057   -0.8983 H   0  0  0  0  0  0  0  0  0  0  0  0
    1.1321   -1.1467    1.2048 H   0  0  0  0  0  0  0  0  0  0  0  0
   -1.1054   -1.9305    1.8114 H   0  0  0  0  0  0  0  0  0  0  0  0
   -2.8841    0.6026   -1.4601 H   0  0  0  0  0  0  0  0  0  0  0  0
   -2.4308    3.2306    1.8979 H   0  0  0  0  0  0  0  0  0  0  0  0
   -3.6542    1.6179    3.3112 H   0  0  0  0  0  0  0  0  0  0  0  0
   -4.5301   -0.4802    2.3480 H   0  0  0  0  0  0  0  0  0  0  0  0
   -2.0204   -2.5141   -2.3531 H   0  0  0  0  0  0  0  0  0  0  0  0
    0.2281   -1.7423   -2.9485 H   0  0  0  0  0  0  0  0  0  0  0  0
   -4.4545   -1.2304   -1.1575 H   0  0  0  0  0  0  0  0  0  0  0  0
    0.1691    2.3560    1.5860 H   0  0  0  0  0  0  0  0  0  0  0  0
    1.4781    3.0654    2.5272 H   0  0  0  0  0  0  0  0  0  0  0  0
    1.1351    3.6615    0.9058 H   0  0  0  0  0  0  0  0  0  0  0  0
    4.3244   -1.2404    0.4793 H   0  0  0  0  0  0  0  0  0  0  0  0
  8  7  1  0
  8  9  2  0
  7  6  2  0
  9  5  1  0
  6 30  1  0
  5 30  2  0
  5  4  1  0
  4 28  1  0
 28  1  1  0
 28 26  1  0
  2 29  1  0
  2  1  1  0
 23 22  2  0
 12 11  2  0
 12 13  1  0
 11 10  1  0
  3 22  2  0
 13 22  1  0
 13 20  2  0
 22 24  1  1
 10 26  1  0
 10 21  2  0
 26 27  2  0
 20 21  1  0
 24 14  1  0
 14 15  2  0
 14 19  1  0
 15 16  1  0
 19 18  2  0
 16 25  1  0
 16 17  2  0
 18 17  1  0
  1 31  1  0
  1 32  1  0
  2 33  1  0
  2 34  1  0
  4 35  1  0
  4 36  1  0
  6 37  1  0
  7 38  1  0
  8 39  1  0
  9 40  1  0
 11 41  1  0
 12 42  1  0
 15 43  1  0
 17 44  1  0
 18 45  1  0
 19 46  1  0
 20 47  1  0
 21 48  1  0
 24 49  1  0
 29 50  1  0
 29 51  1  0
 29 52  1  0
 30 53  1  0
M  END
