
     RDKit          3D

104113  0  0  0  0  0  0  0  0999 V2000
   -7.6487    0.4183   -1.1036 C   0  0  0  0  0  0  0  0  0  0  0  0
   -6.9901    1.2511   -1.8955 N   0  0  0  0  0  0  0  0  0  0  0  0
   -7.6310    2.2121   -2.6075 C   0  0  0  0  0  0  0  0  0  0  0  0
   -8.9829    2.3343   -2.5274 C   0  0  0  0  0  0  0  0  0  0  0  0
  -11.1402    1.5892   -1.5980 C   0  0  0  0  0  0  0  0  0  0  0  0
  -11.8520    0.7538   -0.7881 C   0  0  0  0  0  0  0  0  0  0  0  0
  -11.6824   -1.1493    0.7928 N   0  0  0  0  0  0  0  0  0  0  0  0
  -10.7309   -2.9805    2.1944 C   0  0  0  0  0  0  0  0  0  0  0  0
   -9.5527   -3.6102    2.5473 C   0  0  0  0  0  0  0  0  0  0  0  0
   -8.3209   -3.1941    2.0104 C   0  0  0  0  0  0  0  0  0  0  0  0
   -7.1407   -3.7735    2.3194 O   0  0  0  0  0  0  0  0  0  0  0  0
   -8.2641   -2.1389    1.1120 C   0  0  0  0  0  0  0  0  0  0  0  0
   -9.7314    1.4753   -1.7034 C   0  0  0  0  0  0  0  0  0  0  0  0
  -11.1619   -0.2328   -0.0576 C   0  0  0  0  0  0  0  0  0  0  0  0
  -10.6700   -1.9253    1.2954 C   0  0  0  0  0  0  0  0  0  0  0  0
   -9.4447   -1.4909    0.7450 C   0  0  0  0  0  0  0  0  0  0  0  0
   -9.7717   -0.3964   -0.1266 C   0  0  0  0  0  0  0  0  0  0  0  0
   -9.0347    0.4767   -0.9641 C   0  0  0  0  0  0  0  0  0  0  0  0
   -7.1248   -4.8351    3.2515 C   0  0  0  0  0  0  0  0  0  0  0  0
   -5.5223    1.1972   -1.9406 C   0  0  0  0  0  0  0  0  0  0  0  0
   -4.9342    2.1112   -0.8677 C   0  0  0  0  0  0  0  0  0  0  0  0
   -3.4923    2.0967   -0.9148 N   0  0  0  0  0  0  0  0  0  0  0  0
   -2.9245    3.2971   -0.3236 C   0  0  0  0  0  0  0  0  0  0  0  0
   -1.4147    3.3380   -0.4869 C   0  0  0  0  0  0  0  0  0  0  0  0
   -0.7409    2.1044    0.1133 C   0  0  1  0  0  0  0  0  0  0  0  0
   -1.4137    0.8613   -0.4676 C   0  0  0  0  0  0  0  0  0  0  0  0
   -2.9244    0.9075   -0.3012 C   0  0  0  0  0  0  0  0  0  0  0  0
    7.6730    0.4397    1.1163 C   0  0  0  0  0  0  0  0  0  0  0  0
    7.0282    1.2767    1.9152 N   0  0  0  0  0  0  0  0  0  0  0  0
    7.6835    2.2292    2.6253 C   0  0  0  0  0  0  0  0  0  0  0  0
    9.0361    2.3376    2.5366 C   0  0  0  0  0  0  0  0  0  0  0  0
   11.1795    1.5727    1.5914 C   0  0  0  0  0  0  0  0  0  0  0  0
   11.8773    0.7328    0.7740 C   0  0  0  0  0  0  0  0  0  0  0  0
   11.6774   -1.1625   -0.8128 N   0  0  0  0  0  0  0  0  0  0  0  0
   10.6976   -2.9780   -2.2154 C   0  0  0  0  0  0  0  0  0  0  0  0
    9.5107   -3.5942   -2.5627 C   0  0  0  0  0  0  0  0  0  0  0  0
    8.2869   -3.1681   -2.0153 C   0  0  0  0  0  0  0  0  0  0  0  0
    7.0988   -3.7343   -2.3184 O   0  0  0  0  0  0  0  0  0  0  0  0
    8.2472   -2.1163   -1.1121 C   0  0  0  0  0  0  0  0  0  0  0  0
    9.7703    1.4733    1.7055 C   0  0  0  0  0  0  0  0  0  0  0  0
   11.1722   -0.2439    0.0445 C   0  0  0  0  0  0  0  0  0  0  0  0
   10.6537   -1.9259   -1.3117 C   0  0  0  0  0  0  0  0  0  0  0  0
    9.4367   -1.4814   -0.7510 C   0  0  0  0  0  0  0  0  0  0  0  0
    9.7809   -0.3936    0.1223 C   0  0  0  0  0  0  0  0  0  0  0  0
    9.0585    0.4843    0.9676 C   0  0  0  0  0  0  0  0  0  0  0  0
    7.0660   -4.7935   -3.2526 C   0  0  0  0  0  0  0  0  0  0  0  0
    5.5603    1.2342    1.9716 C   0  0  0  0  0  0  0  0  0  0  0  0
    3.5279    2.1240    0.9431 N   0  0  0  0  0  0  0  0  0  0  0  0
    2.9544    3.3175    0.3437 C   0  0  0  0  0  0  0  0  0  0  0  0
    1.4434    3.3486    0.4998 C   0  0  0  0  0  0  0  0  0  0  0  0
    0.7784    2.1082   -0.0971 C   0  0  1  0  0  0  0  0  0  0  0  0
    1.4579    0.8726    0.4914 C   0  0  0  0  0  0  0  0  0  0  0  0
    2.9690    0.9293    0.3326 C   0  0  0  0  0  0  0  0  0  0  0  0
   -7.0461   -0.3073   -0.5799 H   0  0  0  0  0  0  0  0  0  0  0  0
   -7.0133    2.8490   -3.2214 H   0  0  0  0  0  0  0  0  0  0  0  0
   -9.4746    3.1051   -3.1042 H   0  0  0  0  0  0  0  0  0  0  0  0
  -11.6468    2.3556   -2.1685 H   0  0  0  0  0  0  0  0  0  0  0  0
  -12.9270    0.8456   -0.7055 H   0  0  0  0  0  0  0  0  0  0  0  0
  -12.6586   -1.2412    1.0231 H   0  0  0  0  0  0  0  0  0  0  0  0
  -11.6732   -3.3078    2.6134 H   0  0  0  0  0  0  0  0  0  0  0  0
   -9.6026   -4.4316    3.2480 H   0  0  0  0  0  0  0  0  0  0  0  0
   -7.2986   -1.8491    0.7199 H   0  0  0  0  0  0  0  0  0  0  0  0
   -7.5022   -4.5288    4.2307 H   0  0  0  0  0  0  0  0  0  0  0  0
   -7.7032   -5.6958    2.9051 H   0  0  0  0  0  0  0  0  0  0  0  0
   -6.0855   -5.1362    3.3574 H   0  0  0  0  0  0  0  0  0  0  0  0
   -5.2268    0.1580   -1.8109 H   0  0  0  0  0  0  0  0  0  0  0  0
   -5.2042    1.5146   -2.9312 H   0  0  0  0  0  0  0  0  0  0  0  0
   -5.2804    3.1291   -1.0638 H   0  0  0  0  0  0  0  0  0  0  0  0
   -5.3330    1.8267    0.1208 H   0  0  0  0  0  0  0  0  0  0  0  0
   -3.3679    4.1691   -0.8101 H   0  0  0  0  0  0  0  0  0  0  0  0
   -3.1733    3.3720    0.7499 H   0  0  0  0  0  0  0  0  0  0  0  0
   -1.1673    3.4084   -1.5519 H   0  0  0  0  0  0  0  0  0  0  0  0
   -1.0524    4.2541   -0.0168 H   0  0  0  0  0  0  0  0  0  0  0  0
   -0.9308    2.1117    1.1969 H   0  0  0  0  0  0  0  0  0  0  0  0
   -1.1687    0.7733   -1.5317 H   0  0  0  0  0  0  0  0  0  0  0  0
   -1.0496   -0.0467    0.0167 H   0  0  0  0  0  0  0  0  0  0  0  0
   -3.1742    0.8620    0.7740 H   0  0  0  0  0  0  0  0  0  0  0  0
   -3.3597    0.0156   -0.7568 H   0  0  0  0  0  0  0  0  0  0  0  0
    7.0766    2.8710    3.2451 H   0  0  0  0  0  0  0  0  0  0  0  0
    9.5396    3.1017    3.1121 H   0  0  0  0  0  0  0  0  0  0  0  0
   11.6979    2.3315    2.1615 H   0  0  0  0  0  0  0  0  0  0  0  0
   12.9527    0.8135    0.6848 H   0  0  0  0  0  0  0  0  0  0  0  0
   12.6507   -1.2620   -1.0522 H   0  0  0  0  0  0  0  0  0  0  0  0
   11.6335   -3.3130   -2.6424 H   0  0  0  0  0  0  0  0  0  0  0  0
    9.5474   -4.4130   -3.2672 H   0  0  0  0  0  0  0  0  0  0  0  0
    7.2876   -1.8191   -0.7111 H   0  0  0  0  0  0  0  0  0  0  0  0
    6.0231   -5.0840   -3.3521 H   0  0  0  0  0  0  0  0  0  0  0  0
    7.4396   -4.4888   -4.2338 H   0  0  0  0  0  0  0  0  0  0  0  0
    7.6381   -5.6606   -2.9121 H   0  0  0  0  0  0  0  0  0  0  0  0
    5.2521    1.5587    2.9629 H   0  0  0  0  0  0  0  0  0  0  0  0
    5.2573    0.1962    1.8497 H   0  0  0  0  0  0  0  0  0  0  0  0
    3.2074    3.3887   -0.7292 H   0  0  0  0  0  0  0  0  0  0  0  0
    3.3893    4.1951    0.8277 H   0  0  0  0  0  0  0  0  0  0  0  0
    1.0771    4.2602    0.0243 H   0  0  0  0  0  0  0  0  0  0  0  0
    1.1912    3.4222    1.5635 H   0  0  0  0  0  0  0  0  0  0  0  0
    0.9697    2.1121   -1.1804 H   0  0  0  0  0  0  0  0  0  0  0  0
    1.2083    0.7867    1.5547 H   0  0  0  0  0  0  0  0  0  0  0  0
    1.1117   -0.0427    0.0106 H   0  0  0  0  0  0  0  0  0  0  0  0
    3.2238    0.8808   -0.7413 H   0  0  0  0  0  0  0  0  0  0  0  0
    3.4073    0.0416    0.7934 H   0  0  0  0  0  0  0  0  0  0  0  0
    4.9699    2.1459    0.8979 C   0  0  0  0  0  0  0  0  0  0  0  0
    7.0594   -0.2786    0.5951 H   0  0  0  0  0  0  0  0  0  0  0  0
    5.3706    1.8626   -0.0902 H   0  0  0  0  0  0  0  0  0  0  0  0
    5.3114    3.1653    1.0939 H   0  0  0  0  0  0  0  0  0  0  0  0
  1  2  2  0
  1 18  1  0
  1 54  1  0
  2  3  1  0
  2 20  1  0
  3  4  2  0
  3 55  1  0
  4 13  1  0
  4 56  1  0
  5  6  2  0
  5 13  1  0
  5 57  1  0
  6 14  1  0
  6 58  1  0
  7 14  1  0
  7 15  1  0
  7 59  1  0
  8  9  1  0
  8 15  2  0
  8 60  1  0
  9 10  2  0
  9 61  1  0
 10 11  1  0
 10 12  1  0
 11 19  1  0
 12 16  2  0
 12 62  1  0
 13 18  2  0
 14 17  2  0
 15 16  1  0
 16 17  1  0
 17 18  1  0
 19 63  1  0
 19 64  1  0
 19 65  1  0
 20 21  1  0
 20 66  1  0
 20 67  1  0
 21 22  1  0
 21 68  1  0
 21 69  1  0
 22 23  1  0
 22 27  1  0
 23 24  1  0
 23 70  1  0
 23 71  1  0
 24 25  1  0
 24 72  1  0
 24 73  1  0
 25 26  1  0
 25 51  1  0
 25 74  1  1
 26 27  1  0
 26 75  1  0
 26 76  1  0
 27 77  1  0
 27 78  1  0
 28 29  2  0
 28 45  1  0
 28102  1  0
 29 30  1  0
 29 47  1  0
 30 31  2  0
 30 79  1  0
 31 40  1  0
 31 80  1  0
 32 33  2  0
 32 40  1  0
 32 81  1  0
 33 41  1  0
 33 82  1  0
 34 41  1  0
 34 42  1  0
 34 83  1  0
 35 36  1  0
 35 42  2  0
 35 84  1  0
 36 37  2  0
 36 85  1  0
 37 38  1  0
 37 39  1  0
 38 46  1  0
 39 43  2  0
 39 86  1  0
 40 45  2  0
 41 44  2  0
 42 43  1  0
 43 44  1  0
 44 45  1  0
 46 87  1  0
 46 88  1  0
 46 89  1  0
 47101  1  0
 47 90  1  0
 47 91  1  0
101 48  1  0
101103  1  0
101104  1  0
 48 49  1  0
 48 53  1  0
 49 50  1  0
 49 92  1  0
 49 93  1  0
 50 51  1  0
 50 94  1  0
 50 95  1  0
 51 52  1  0
 51 96  1  6
 52 53  1  0
 52 97  1  0
 52 98  1  0
 53 99  1  0
 53100  1  0
M  CHG  2   2   1  29   1
M  END
