
     RDKit          3D

 27 27  0  0  0  0  0  0  0  0999 V2000
   -0.3074   -0.3025    0.2285 N   0  0  0  0  0  0  0  0  0  0  0  0
   -0.2573   -1.4890    1.0610 C   0  0  0  0  0  0  0  0  0  0  0  0
    0.9499    0.3924    0.1090 C   0  0  1  0  0  0  0  0  0  0  0  0
    0.8203    1.5033   -0.9462 C   0  0  0  0  0  0  0  0  0  0  0  0
    2.0581    2.3411   -1.0935 C   0  0  0  0  0  0  0  0  0  0  0  0
    2.1376    3.6001   -0.5147 C   0  0  0  0  0  0  0  0  0  0  0  0
    3.2932    4.3565   -0.6289 C   0  0  0  0  0  0  0  0  0  0  0  0
    3.3643    5.9319    0.0987 Cl  0  0  0  0  0  0  0  0  0  0  0  0
    4.4062    3.8868   -1.3224 C   0  0  0  0  0  0  0  0  0  0  0  0
    5.5449    4.5805   -1.4667 O   0  0  0  0  0  0  0  0  0  0  0  0
    4.3225    2.6225   -1.9034 C   0  0  0  0  0  0  0  0  0  0  0  0
    3.1699    1.8683   -1.7883 C   0  0  0  0  0  0  0  0  0  0  0  0
    1.4129    1.0175    1.4210 C   0  0  0  0  0  0  0  0  0  0  0  0
    0.6767    1.6267    2.1581 O   0  0  0  0  0  0  0  0  0  0  0  0
    2.7039    0.8403    1.6551 O   0  0  0  0  0  0  0  0  0  0  0  0
   -1.0134    0.3336    0.5785 H   0  0  0  0  0  0  0  0  0  0  0  0
    0.4266   -2.2178    0.6233 H   0  0  0  0  0  0  0  0  0  0  0  0
   -1.2453   -1.9469    1.0948 H   0  0  0  0  0  0  0  0  0  0  0  0
    0.0606   -1.3165    2.0977 H   0  0  0  0  0  0  0  0  0  0  0  0
    1.7069   -0.3227   -0.2255 H   0  0  0  0  0  0  0  0  0  0  0  0
    0.5709    1.0216   -1.8935 H   0  0  0  0  0  0  0  0  0  0  0  0
   -0.0285    2.1396   -0.6825 H   0  0  0  0  0  0  0  0  0  0  0  0
    1.2931    4.0050    0.0291 H   0  0  0  0  0  0  0  0  0  0  0  0
    5.4891    5.4398   -1.0294 H   0  0  0  0  0  0  0  0  0  0  0  0
    5.1750    2.2414   -2.4513 H   0  0  0  0  0  0  0  0  0  0  0  0
    3.1353    0.8909   -2.2549 H   0  0  0  0  0  0  0  0  0  0  0  0
    2.9623    1.2907    2.4741 H   0  0  0  0  0  0  0  0  0  0  0  0
  1  2  1  0
  1  3  1  0
  1 16  1  0
  2 17  1  0
  2 18  1  0
  2 19  1  0
  3  4  1  0
  3 13  1  0
  3 20  1  6
  4  5  1  0
  4 21  1  0
  4 22  1  0
  5  6  2  0
  5 12  1  0
  6  7  1  0
  6 23  1  0
  7  8  1  0
  7  9  2  0
  9 10  1  0
  9 11  1  0
 10 24  1  0
 11 12  2  0
 11 25  1  0
 12 26  1  0
 13 14  2  0
 13 15  1  0
 15 27  1  0
M  END
