
     RDKit          3D

 28 29  0  0  0  0  0  0  0  0999 V2000
   -2.3635    0.7693    0.5757 C   0  0  0  0  0  0  0  0  0  0  0  0
   -3.6882    0.3971    0.5167 C   0  0  0  0  0  0  0  0  0  0  0  0
   -4.5708    0.9396    1.3794 F   0  0  0  0  0  0  0  0  0  0  0  0
   -4.1636   -0.5327   -0.4014 C   0  0  0  0  0  0  0  0  0  0  0  0
   -5.4525   -0.9061   -0.4708 O   0  0  0  0  0  0  0  0  0  0  0  0
   -3.2442   -1.0907   -1.2836 C   0  0  0  0  0  0  0  0  0  0  0  0
   -1.9083   -0.7284   -1.2351 C   0  0  0  0  0  0  0  0  0  0  0  0
   -1.4479    0.2023   -0.3068 C   0  0  0  0  0  0  0  0  0  0  0  0
   -0.0330    0.6316   -0.2740 C   0  0  0  0  0  0  0  0  0  0  0  0
    1.0171   -0.2236    0.0318 C   0  0  0  0  0  0  0  0  0  0  0  0
    0.6391   -1.8659    0.4447 Cl  0  0  0  0  0  0  0  0  0  0  0  0
    0.2897    1.9617   -0.5516 C   0  0  0  0  0  0  0  0  0  0  0  0
    1.5900    2.4154   -0.5413 C   0  0  0  0  0  0  0  0  0  0  0  0
    2.6346    1.5418   -0.2486 C   0  0  0  0  0  0  0  0  0  0  0  0
    3.8716    2.0340   -0.2619 O   0  0  0  0  0  0  0  0  0  0  0  0
    2.3588    0.1897    0.0513 C   0  0  0  0  0  0  0  0  0  0  0  0
    3.4309   -0.7419    0.3819 C   0  0  0  0  0  0  0  0  0  0  0  0
    4.6420   -0.3484    0.3955 N   0  0  0  0  0  0  0  0  0  0  0  0
    5.5303   -1.3162    0.7223 O   0  0  0  0  0  0  0  0  0  0  0  0
   -2.0487    1.4928    1.3177 H   0  0  0  0  0  0  0  0  0  0  0  0
   -5.9825   -0.4601    0.1998 H   0  0  0  0  0  0  0  0  0  0  0  0
   -3.5882   -1.8112   -2.0151 H   0  0  0  0  0  0  0  0  0  0  0  0
   -1.2207   -1.1729   -1.9425 H   0  0  0  0  0  0  0  0  0  0  0  0
   -0.5085    2.6525   -0.7918 H   0  0  0  0  0  0  0  0  0  0  0  0
    1.8137    3.4500   -0.7661 H   0  0  0  0  0  0  0  0  0  0  0  0
    4.5128    1.3221   -0.0353 H   0  0  0  0  0  0  0  0  0  0  0  0
    3.1834   -1.7734    0.6162 H   0  0  0  0  0  0  0  0  0  0  0  0
    6.3897   -0.8806    0.6945 H   0  0  0  0  0  0  0  0  0  0  0  0
  3  2  1  0
  2  1  2  0
  2  4  1  0
  5  4  1  0
  1  8  1  0
  4  6  2  0
 11 10  1  0
  8  9  1  0
  8  7  2  0
  6  7  1  0
 10  9  2  0
 10 16  1  0
  9 12  1  0
 18 19  1  0
 18 17  2  0
 17 16  1  0
 16 14  2  0
 12 13  2  0
 14 13  1  0
 14 15  1  0
  1 20  1  0
  5 21  1  0
  6 22  1  0
  7 23  1  0
 12 24  1  0
 13 25  1  0
 15 26  1  0
 17 27  1  0
 19 28  1  0
M  END
