
     RDKit          3D

 37 39  0  0  0  0  0  0  0  0999 V2000
    0.7638    2.2294    0.1644 C   0  0  0  0  0  0  0  0  0  0  0  0
   -0.5407    2.4251   -0.5989 C   0  0  0  0  0  0  0  0  0  0  0  0
    2.6200    0.6372    0.1428 C   0  0  0  0  0  0  0  0  0  0  0  0
    3.1682   -0.5919   -0.2197 C   0  0  0  0  0  0  0  0  0  0  0  0
    4.5355   -0.8062   -0.1025 C   0  0  0  0  0  0  0  0  0  0  0  0
   -6.9275   -0.9304   -0.1126 C   0  0  0  0  0  0  0  0  0  0  0  0
   -3.4050    0.2886   -0.1551 C   0  0  0  0  0  0  0  0  0  0  0  0
   -5.4455   -0.9982    0.1090 C   0  0  0  0  0  0  0  0  0  0  0  0
   -4.8645   -1.9481    0.5999 O   0  0  0  0  0  0  0  0  0  0  0  0
   -4.7614    0.1167   -0.2780 N   0  0  0  0  0  0  0  0  0  0  0  0
   -2.8230    1.3812   -0.5257 N   0  0  0  0  0  0  0  0  0  0  0  0
   -1.4753    1.3088   -0.2910 C   0  0  0  0  0  0  0  0  0  0  0  0
   -1.0349    0.1515    0.2497 C   0  0  0  0  0  0  0  0  0  0  0  0
   -2.3609   -0.9287    0.5069 S   0  0  0  0  0  0  0  0  0  0  0  0
    0.3851   -0.1525    0.5850 C   0  0  0  0  0  0  0  0  0  0  0  0
    1.2539    0.8685    0.0088 N   0  0  0  0  0  0  0  0  0  0  0  0
    5.3356    0.2318    0.3761 C   0  0  0  0  0  0  0  0  0  0  0  0
    4.8165    1.4006    0.7232 N   0  0  0  0  0  0  0  0  0  0  0  0
    3.5149    1.6064    0.6249 C   0  0  0  0  0  0  0  0  0  0  0  0
    4.9924   -2.0121   -0.4785 O   0  0  0  0  0  0  0  0  0  0  0  0
    6.3828   -2.2634   -0.3880 C   0  0  0  0  0  0  0  0  0  0  0  0
    1.5025    2.9190   -0.2397 H   0  0  0  0  0  0  0  0  0  0  0  0
    0.6167    2.4901    1.2218 H   0  0  0  0  0  0  0  0  0  0  0  0
   -0.9820    3.3827   -0.3143 H   0  0  0  0  0  0  0  0  0  0  0  0
   -0.3454    2.4731   -1.6740 H   0  0  0  0  0  0  0  0  0  0  0  0
    2.5501   -1.3863   -0.6202 H   0  0  0  0  0  0  0  0  0  0  0  0
   -7.1560   -0.6926   -1.1516 H   0  0  0  0  0  0  0  0  0  0  0  0
   -7.3903   -1.8781    0.1471 H   0  0  0  0  0  0  0  0  0  0  0  0
   -7.3639   -0.1447    0.5060 H   0  0  0  0  0  0  0  0  0  0  0  0
   -5.2618    0.8969   -0.6806 H   0  0  0  0  0  0  0  0  0  0  0  0
    0.5131   -0.2108    1.6760 H   0  0  0  0  0  0  0  0  0  0  0  0
    0.6542   -1.1312    0.1876 H   0  0  0  0  0  0  0  0  0  0  0  0
    6.4075    0.1251    0.4912 H   0  0  0  0  0  0  0  0  0  0  0  0
    3.1653    2.5792    0.9466 H   0  0  0  0  0  0  0  0  0  0  0  0
    6.9627   -1.5791   -1.0124 H   0  0  0  0  0  0  0  0  0  0  0  0
    6.7427   -2.1934    0.6416 H   0  0  0  0  0  0  0  0  0  0  0  0
    6.5360   -3.2789   -0.7441 H   0  0  0  0  0  0  0  0  0  0  0  0
 21 20  1  0
 20  5  1  0
  5 17  1  0
  5  4  2  0
 17 18  2  0
  4  3  1  0
 18 19  1  0
  3 19  2  0
  3 16  1  0
 15 13  1  0
 15 16  1  0
 14 13  1  0
 14  7  1  0
  9  8  2  0
 13 12  2  0
 16  1  1  0
  8  6  1  0
  8 10  1  0
  1  2  1  0
  7 10  1  0
  7 11  2  0
 12 11  1  0
 12  2  1  0
  1 22  1  0
  1 23  1  0
  2 24  1  0
  2 25  1  0
  4 26  1  0
  6 27  1  0
  6 28  1  0
  6 29  1  0
 10 30  1  0
 15 31  1  0
 15 32  1  0
 17 33  1  0
 19 34  1  0
 21 35  1  0
 21 36  1  0
 21 37  1  0
M  END
