
     RDKit          3D

 58 59  0  0  0  0  0  0  0  0999 V2000
   -4.3219    1.4685   -0.2202 C   0  0  1  0  0  0  0  0  0  0  0  0
   -3.3178    0.3745    0.1323 C   0  0  2  0  0  0  0  0  0  0  0  0
   -0.9763    0.0440    0.1238 C   0  0  0  0  0  0  0  0  0  0  0  0
    0.2778    0.6583   -0.4606 C   0  0  0  0  0  0  0  0  0  0  0  0
    1.5441    0.0502    0.1301 C   0  0  0  0  0  0  0  0  0  0  0  0
    2.8099    0.6842   -0.4318 C   0  0  0  0  0  0  0  0  0  0  0  0
    4.0920    0.1121    0.1594 C   0  0  0  0  0  0  0  0  0  0  0  0
    5.3400    0.8099   -0.3689 C   0  0  0  0  0  0  0  0  0  0  0  0
    6.6563    0.3161    0.2290 C   0  0  2  0  0  0  0  0  0  0  0  0
    7.8084    1.2447   -0.1571 C   0  0  0  0  0  0  0  0  0  0  0  0
    9.1437    0.7822    0.4160 C   0  0  0  0  0  0  0  0  0  0  0  0
    9.4568   -0.6524    0.0049 C   0  0  0  0  0  0  0  0  0  0  0  0
    8.3201   -1.5923    0.3907 C   0  0  0  0  0  0  0  0  0  0  0  0
    6.9850   -1.1209   -0.1789 C   0  0  0  0  0  0  0  0  0  0  0  0
   -4.9633   -1.3078    0.1858 C   0  0  2  0  0  0  0  0  0  0  0  0
   -5.2589   -2.6842   -0.3718 C   0  0  0  0  0  0  0  0  0  0  0  0
   -6.0819   -0.3137   -0.1338 C   0  0  2  0  0  0  0  0  0  0  0  0
   -5.6841    1.0809    0.3363 C   0  0  2  0  0  0  0  0  0  0  0  0
   -3.9626    2.7040    0.3461 O   0  0  0  0  0  0  0  0  0  0  0  0
   -2.1075    0.6903   -0.4415 O   0  0  0  0  0  0  0  0  0  0  0  0
   -3.7536   -0.8571   -0.3852 O   0  0  0  0  0  0  0  0  0  0  0  0
   -4.2444   -3.5692    0.0392 O   0  0  0  0  0  0  0  0  0  0  0  0
   -7.2540   -0.7516    0.5073 O   0  0  0  0  0  0  0  0  0  0  0  0
   -6.6986    1.9675   -0.0717 O   0  0  0  0  0  0  0  0  0  0  0  0
   -4.3872    1.5341   -1.3170 H   0  0  0  0  0  0  0  0  0  0  0  0
   -3.2248    0.3024    1.2330 H   0  0  0  0  0  0  0  0  0  0  0  0
   -1.0033   -1.0324   -0.0791 H   0  0  0  0  0  0  0  0  0  0  0  0
   -0.9851    0.1685    1.2146 H   0  0  0  0  0  0  0  0  0  0  0  0
    0.2795    0.5259   -1.5469 H   0  0  0  0  0  0  0  0  0  0  0  0
    0.2710    1.7363   -0.2737 H   0  0  0  0  0  0  0  0  0  0  0  0
    1.5331    0.1701    1.2189 H   0  0  0  0  0  0  0  0  0  0  0  0
    1.5597   -1.0288   -0.0561 H   0  0  0  0  0  0  0  0  0  0  0  0
    2.8257    0.5616   -1.5203 H   0  0  0  0  0  0  0  0  0  0  0  0
    2.7805    1.7645   -0.2512 H   0  0  0  0  0  0  0  0  0  0  0  0
    4.0629    0.2069    1.2509 H   0  0  0  0  0  0  0  0  0  0  0  0
    4.1391   -0.9612   -0.0491 H   0  0  0  0  0  0  0  0  0  0  0  0
    5.3804    0.7094   -1.4605 H   0  0  0  0  0  0  0  0  0  0  0  0
    5.2465    1.8840   -0.1710 H   0  0  0  0  0  0  0  0  0  0  0  0
    6.5592    0.3424    1.3239 H   0  0  0  0  0  0  0  0  0  0  0  0
    7.8783    1.2868   -1.2512 H   0  0  0  0  0  0  0  0  0  0  0  0
    7.5891    2.2635    0.1760 H   0  0  0  0  0  0  0  0  0  0  0  0
    9.9446    1.4532    0.0950 H   0  0  0  0  0  0  0  0  0  0  0  0
    9.1064    0.8442    1.5096 H   0  0  0  0  0  0  0  0  0  0  0  0
    9.6079   -0.6937   -1.0796 H   0  0  0  0  0  0  0  0  0  0  0  0
   10.3936   -0.9827    0.4609 H   0  0  0  0  0  0  0  0  0  0  0  0
    8.5345   -2.6077    0.0477 H   0  0  0  0  0  0  0  0  0  0  0  0
    8.2501   -1.6443    1.4829 H   0  0  0  0  0  0  0  0  0  0  0  0
    6.1889   -1.7997    0.1380 H   0  0  0  0  0  0  0  0  0  0  0  0
    7.0208   -1.1761   -1.2744 H   0  0  0  0  0  0  0  0  0  0  0  0
   -4.8627   -1.3797    1.2816 H   0  0  0  0  0  0  0  0  0  0  0  0
   -6.2423   -3.0011   -0.0098 H   0  0  0  0  0  0  0  0  0  0  0  0
   -5.3239   -2.6164   -1.4668 H   0  0  0  0  0  0  0  0  0  0  0  0
   -6.2161   -0.2869   -1.2272 H   0  0  0  0  0  0  0  0  0  0  0  0
   -5.6084    1.0547    1.4357 H   0  0  0  0  0  0  0  0  0  0  0  0
   -3.1776    3.0286   -0.1064 H   0  0  0  0  0  0  0  0  0  0  0  0
   -4.4831   -4.4511   -0.2595 H   0  0  0  0  0  0  0  0  0  0  0  0
   -7.9527   -0.1148    0.3232 H   0  0  0  0  0  0  0  0  0  0  0  0
   -6.5584    2.8158    0.3605 H   0  0  0  0  0  0  0  0  0  0  0  0
 22 16  1  0
 16 15  1  0
 15 21  1  0
 15 17  1  0
 21  2  1  0
 23 17  1  0
 17 18  1  0
 20  2  1  0
 20  3  1  0
  2  1  1  0
  6  5  1  0
  6  7  1  0
  3  4  1  0
  8  7  1  0
  8  9  1  0
  4  5  1  0
 14  9  1  0
 14 13  1  0
  1 18  1  0
  1 19  1  0
 18 24  1  0
  9 10  1  0
 13 12  1  0
 10 11  1  0
 12 11  1  0
  1 25  1  6
  2 26  1  1
  3 27  1  0
  3 28  1  0
  4 29  1  0
  4 30  1  0
  5 31  1  0
  5 32  1  0
  6 33  1  0
  6 34  1  0
  7 35  1  0
  7 36  1  0
  8 37  1  0
  8 38  1  0
  9 39  1  1
 10 40  1  0
 10 41  1  0
 11 42  1  0
 11 43  1  0
 12 44  1  0
 12 45  1  0
 13 46  1  0
 13 47  1  0
 14 48  1  0
 14 49  1  0
 15 50  1  1
 16 51  1  0
 16 52  1  0
 17 53  1  6
 18 54  1  1
 19 55  1  0
 22 56  1  0
 23 57  1  0
 24 58  1  0
M  END
