
     RDKit          3D

 32 34  0  0  0  0  0  0  0  0999 V2000
   -4.0217   -0.2536    0.5663 N   0  0  0  0  0  0  0  0  0  0  0  0
   -3.8671    1.9056   -0.4535 N   0  0  0  0  0  0  0  0  0  0  0  0
    0.8175   -1.4923   -0.5492 C   0  0  0  0  0  0  0  0  0  0  0  0
    2.2011   -1.5535   -0.6191 C   0  0  0  0  0  0  0  0  0  0  0  0
    2.9606   -0.5907    0.0148 C   0  0  0  0  0  0  0  0  0  0  0  0
   -1.2777   -0.3610    0.2601 C   0  0  0  0  0  0  0  0  0  0  0  0
   -1.6700    2.0284   -0.8081 C   0  0  0  0  0  0  0  0  0  0  0  0
   -0.4276    2.5389   -1.2355 C   0  0  0  0  0  0  0  0  0  0  0  0
    0.9753    0.4915    0.7862 C   0  0  0  0  0  0  0  0  0  0  0  0
   -2.8737    2.6764   -0.9516 C   0  0  0  0  0  0  0  0  0  0  0  0
   -1.9576    0.7733   -0.1756 C   0  0  0  0  0  0  0  0  0  0  0  0
    0.1926   -0.4724    0.1566 C   0  0  0  0  0  0  0  0  0  0  0  0
    2.3627    0.4572    0.7222 C   0  0  0  0  0  0  0  0  0  0  0  0
   -3.3478    0.7416    0.0217 C   0  0  0  0  0  0  0  0  0  0  0  0
   -3.2747   -1.2841    0.9357 C   0  0  0  0  0  0  0  0  0  0  0  0
    0.5860    2.9647   -1.5857 N   0  0  0  0  0  0  0  0  0  0  0  0
   -1.9446   -1.3655    0.8015 N   0  0  0  0  0  0  0  0  0  0  0  0
    3.1749    1.3528    1.2865 O   0  0  0  0  0  0  0  0  0  0  0  0
    4.6798   -0.6648   -0.0734 Cl  0  0  0  0  0  0  0  0  0  0  0  0
    2.6868   -2.3450   -1.1726 H   0  0  0  0  0  0  0  0  0  0  0  0
    3.4303    3.1019    2.2499 H   0  0  0  0  0  0  0  0  0  0  0  0
    1.9776    3.0580    1.2320 H   0  0  0  0  0  0  0  0  0  0  0  0
    2.0053    2.2001    2.7934 H   0  0  0  0  0  0  0  0  0  0  0  0
   -3.9562   -3.3035    0.8448 H   0  0  0  0  0  0  0  0  0  0  0  0
   -3.4338   -2.7931    2.4408 H   0  0  0  0  0  0  0  0  0  0  0  0
   -4.9898   -2.2352    1.7978 H   0  0  0  0  0  0  0  0  0  0  0  0
    0.4764    1.2725    1.3443 H   0  0  0  0  0  0  0  0  0  0  0  0
   -3.0770    3.6425   -1.3832 H   0  0  0  0  0  0  0  0  0  0  0  0
   -4.8452    2.1547   -0.4462 H   0  0  0  0  0  0  0  0  0  0  0  0
   -3.9580   -2.4654    1.5443 C   0  0  0  0  0  0  0  0  0  0  0  0
   -0.1008   -2.6769   -1.4093 Cl  0  0  0  0  0  0  0  0  0  0  0  0
    2.5999    2.4830    1.9219 C   0  0  0  0  0  0  0  0  0  0  0  0
 14  1  2  0
  1 15  1  0
  2 10  1  0
  2 14  1  0
 31  3  1  0
  3 12  2  0
  3  4  1  0
  4  5  2  0
  4 20  1  0
  5 13  1  0
  5 19  1  0
 18 32  1  0
 32 21  1  0
 32 22  1  0
 32 23  1  0
 11  6  2  0
  6 17  1  0
  6 12  1  0
 15 30  1  0
 30 24  1  0
 30 25  1  0
 30 26  1  0
 10  7  2  0
  7 11  1  0
  7  8  1  0
  8 16  3  0
 12  9  1  0
  9 13  2  0
  9 27  1  0
 10 28  1  0
 14 11  1  0
 13 18  1  0
 15 17  2  0
  2 29  1  0
M  END
