
     RDKit          3D

 43 43  0  0  0  0  0  0  0  0999 V2000
   -1.6188    0.3338    1.7228 O   0  0  0  0  0  0  0  0  0  0  0  0
   -1.5679    0.6060    0.5337 C   0  0  0  0  0  0  0  0  0  0  0  0
   -2.6724    0.7078   -0.2373 N   0  0  0  0  0  0  0  0  0  0  0  0
   -6.2516   -0.9389   -0.1793 S   0  0  0  0  0  0  0  0  0  0  0  0
   -3.9982    0.4963    0.2501 C   0  0  2  0  0  0  0  0  0  0  0  0
   -4.4920   -0.9244   -0.0301 C   0  0  0  0  0  0  0  0  0  0  0  0
   -3.7992   -1.8974   -0.1345 O   0  0  0  0  0  0  0  0  0  0  0  0
   -5.0367    1.4386   -0.3374 C   0  0  0  0  0  0  0  0  0  0  0  0
   -6.3965    0.8669    0.0370 C   0  0  0  0  0  0  0  0  0  0  0  0
   -0.2708    0.9214   -0.1771 C   0  0  0  0  0  0  0  0  0  0  0  0
    0.9290    0.1710    0.3835 C   0  0  0  0  0  0  0  0  0  0  0  0
    2.2337    0.6054   -0.2726 C   0  0  0  0  0  0  0  0  0  0  0  0
    3.4471   -0.1334    0.2766 C   0  0  0  0  0  0  0  0  0  0  0  0
    9.8296   -0.1249   -0.3357 C   0  0  0  0  0  0  0  0  0  0  0  0
    8.5109   -0.6238    0.2384 C   0  0  0  0  0  0  0  0  0  0  0  0
    4.7635    0.3327   -0.3323 C   0  0  0  0  0  0  0  0  0  0  0  0
    5.9768   -0.3910    0.2380 C   0  0  0  0  0  0  0  0  0  0  0  0
    7.2987    0.0903   -0.3467 C   0  0  0  0  0  0  0  0  0  0  0  0
   -3.9911    0.6028    1.3405 H   0  0  0  0  0  0  0  0  0  0  0  0
   -7.1967    1.2325   -0.6019 H   0  0  0  0  0  0  0  0  0  0  0  0
   -6.6511    1.0798    1.0744 H   0  0  0  0  0  0  0  0  0  0  0  0
   -4.9210    2.4500    0.0503 H   0  0  0  0  0  0  0  0  0  0  0  0
   -4.9342    1.4762   -1.4250 H   0  0  0  0  0  0  0  0  0  0  0  0
   -2.5593    0.8602   -1.2273 H   0  0  0  0  0  0  0  0  0  0  0  0
   -0.3674    0.7352   -1.2497 H   0  0  0  0  0  0  0  0  0  0  0  0
   -0.1099    2.0007   -0.0739 H   0  0  0  0  0  0  0  0  0  0  0  0
    0.9948    0.3370    1.4611 H   0  0  0  0  0  0  0  0  0  0  0  0
    0.7903   -0.9052    0.2434 H   0  0  0  0  0  0  0  0  0  0  0  0
    2.1718    0.4521   -1.3554 H   0  0  0  0  0  0  0  0  0  0  0  0
    2.3670    1.6831   -0.1265 H   0  0  0  0  0  0  0  0  0  0  0  0
    3.4874   -0.0037    1.3639 H   0  0  0  0  0  0  0  0  0  0  0  0
    3.3280   -1.2090    0.1058 H   0  0  0  0  0  0  0  0  0  0  0  0
    4.7333    0.1933   -1.4186 H   0  0  0  0  0  0  0  0  0  0  0  0
    4.8742    1.4106   -0.1696 H   0  0  0  0  0  0  0  0  0  0  0  0
    5.9956   -0.2623    1.3260 H   0  0  0  0  0  0  0  0  0  0  0  0
    5.8732   -1.4678    0.0640 H   0  0  0  0  0  0  0  0  0  0  0  0
    7.3975    1.1687   -0.1788 H   0  0  0  0  0  0  0  0  0  0  0  0
    7.2880   -0.0449   -1.4341 H   0  0  0  0  0  0  0  0  0  0  0  0
    8.4171   -1.6998    0.0614 H   0  0  0  0  0  0  0  0  0  0  0  0
    8.5136   -0.4966    1.3256 H   0  0  0  0  0  0  0  0  0  0  0  0
    9.8716   -0.2730   -1.4165 H   0  0  0  0  0  0  0  0  0  0  0  0
    9.9623    0.9420   -0.1467 H   0  0  0  0  0  0  0  0  0  0  0  0
   10.6815   -0.6467    0.1018 H   0  0  0  0  0  0  0  0  0  0  0  0
  7  6  2  0
  6  4  1  0
  6  5  1  0
  4  9  1  0
  9  8  1  0
  8  5  1  0
  5  3  1  0
  3  2  1  0
  2  1  2  0
  2 10  1  0
 10 11  1  0
 11 12  1  0
 12 13  1  0
 13 16  1  0
 16 17  1  0
 17 18  1  0
 18 15  1  0
 15 14  1  0
  5 19  1  1
  9 20  1  0
  9 21  1  0
  8 22  1  0
  8 23  1  0
  3 24  1  0
 10 25  1  0
 10 26  1  0
 11 27  1  0
 11 28  1  0
 12 29  1  0
 12 30  1  0
 13 31  1  0
 13 32  1  0
 16 33  1  0
 16 34  1  0
 17 35  1  0
 17 36  1  0
 18 37  1  0
 18 38  1  0
 15 39  1  0
 15 40  1  0
 14 41  1  0
 14 42  1  0
 14 43  1  0
M  END
