
     RDKit          3D

 89 90  0  0  0  0  0  0  0  0999 V2000
    3.2518    0.6328    0.8398 N   0  0  0  0  0  0  0  0  0  0  0  0
    4.1318   -0.3873    0.7968 C   0  0  0  0  0  0  0  0  0  0  0  0
    5.2032   -0.0540    0.0697 O   0  0  0  0  0  0  0  0  0  0  0  0
    6.2539   -1.0221   -0.0211 C   0  0  0  0  0  0  0  0  0  0  0  0
    7.2519   -0.4950   -1.0062 C   0  0  0  0  0  0  0  0  0  0  0  0
    8.4542    0.0546   -0.5761 C   0  0  0  0  0  0  0  0  0  0  0  0
    9.3714    0.5521   -1.4938 C   0  0  0  0  0  0  0  0  0  0  0  0
    9.0889    0.5076   -2.8517 C   0  0  0  0  0  0  0  0  0  0  0  0
    7.8871   -0.0370   -3.2899 C   0  0  0  0  0  0  0  0  0  0  0  0
    6.9759   -0.5349   -2.3711 C   0  0  0  0  0  0  0  0  0  0  0  0
    3.9974   -1.4581    1.3527 O   0  0  0  0  0  0  0  0  0  0  0  0
    1.9370    0.4977    1.4119 C   0  0  1  0  0  0  0  0  0  0  0  0
    1.5593    1.7259    2.2410 C   0  0  0  0  0  0  0  0  0  0  0  0
    2.4913    2.0070    3.4205 C   0  0  1  0  0  0  0  0  0  0  0  0
    2.0153    3.2563    4.1558 C   0  0  0  0  0  0  0  0  0  0  0  0
    2.5859    0.8238    4.3784 C   0  0  0  0  0  0  0  0  0  0  0  0
    0.9122    0.3045    0.2953 C   0  0  0  0  0  0  0  0  0  0  0  0
    0.9144    1.0139   -0.6960 O   0  0  0  0  0  0  0  0  0  0  0  0
    0.0155   -0.6692    0.5254 N   0  0  0  0  0  0  0  0  0  0  0  0
   -1.0028   -1.0588   -0.4082 C   0  0  1  0  0  0  0  0  0  0  0  0
   -0.6839   -2.4287   -1.0429 C   0  0  0  0  0  0  0  0  0  0  0  0
    0.6060   -2.3821   -1.8105 C   0  0  0  0  0  0  0  0  0  0  0  0
    1.8190   -2.6745   -1.1930 C   0  0  0  0  0  0  0  0  0  0  0  0
    3.0113   -2.5903   -1.8998 C   0  0  0  0  0  0  0  0  0  0  0  0
    3.0067   -2.2104   -3.2345 C   0  0  0  0  0  0  0  0  0  0  0  0
    1.8018   -1.9138   -3.8593 C   0  0  0  0  0  0  0  0  0  0  0  0
    0.6126   -1.9991   -3.1500 C   0  0  0  0  0  0  0  0  0  0  0  0
   -2.3428   -1.1239    0.3102 C   0  0  0  0  0  0  0  0  0  0  0  0
   -2.4489   -1.3881    1.4884 O   0  0  0  0  0  0  0  0  0  0  0  0
   -3.4082   -0.8852   -0.4944 N   0  0  0  0  0  0  0  0  0  0  0  0
   -4.6808   -0.9839   -0.0133 N   0  0  0  0  0  0  0  0  0  0  0  0
   -5.3011   -2.2987   -0.0616 C   0  0  0  0  0  0  0  0  0  0  0  0
   -5.7283   -2.6524   -1.4778 C   0  0  0  0  0  0  0  0  0  0  0  0
   -6.3378   -4.0365   -1.5698 C   0  0  0  0  0  0  0  0  0  0  0  0
   -6.5993   -4.4506   -2.8181 N   0  0  0  0  0  0  0  0  0  0  0  0
   -6.5758   -4.7121   -0.5788 O   0  0  0  0  0  0  0  0  0  0  0  0
   -5.2814    0.1078    0.5459 C   0  0  0  0  0  0  0  0  0  0  0  0
   -6.3858    0.0350    1.0456 O   0  0  0  0  0  0  0  0  0  0  0  0
   -4.4754    1.3899    0.5146 C   0  0  0  0  0  0  0  0  0  0  0  0
   -5.3236    2.6133    0.8660 C   0  0  2  0  0  0  0  0  0  0  0  0
   -6.3732    2.8240   -0.0262 O   0  0  0  0  0  0  0  0  0  0  0  0
   -4.4070    3.8302    0.9208 C   0  0  0  0  0  0  0  0  0  0  0  0
   -4.4496    4.7310    0.1218 O   0  0  0  0  0  0  0  0  0  0  0  0
   -3.5488    3.7516    1.9189 O   0  0  0  0  0  0  0  0  0  0  0  0
   -2.5320    4.7652    2.0273 C   0  0  0  0  0  0  0  0  0  0  0  0
   -1.6142    4.3725    3.1580 C   0  0  0  0  0  0  0  0  0  0  0  0
    3.4329    1.4476    0.2729 H   0  0  0  0  0  0  0  0  0  0  0  0
    6.7144   -1.1710    0.9580 H   0  0  0  0  0  0  0  0  0  0  0  0
    5.8548   -1.9829   -0.3532 H   0  0  0  0  0  0  0  0  0  0  0  0
    8.6790    0.0925    0.4832 H   0  0  0  0  0  0  0  0  0  0  0  0
   10.3054    0.9741   -1.1467 H   0  0  0  0  0  0  0  0  0  0  0  0
    9.8035    0.8923   -3.5680 H   0  0  0  0  0  0  0  0  0  0  0  0
    7.6623   -0.0771   -4.3478 H   0  0  0  0  0  0  0  0  0  0  0  0
    6.0433   -0.9632   -2.7196 H   0  0  0  0  0  0  0  0  0  0  0  0
    1.9472   -0.3811    2.0565 H   0  0  0  0  0  0  0  0  0  0  0  0
    1.5234    2.6026    1.5866 H   0  0  0  0  0  0  0  0  0  0  0  0
    0.5409    1.5788    2.6174 H   0  0  0  0  0  0  0  0  0  0  0  0
    3.4919    2.2097    3.0250 H   0  0  0  0  0  0  0  0  0  0  0  0
    1.0251    3.1016    4.5915 H   0  0  0  0  0  0  0  0  0  0  0  0
    2.6949    3.5195    4.9676 H   0  0  0  0  0  0  0  0  0  0  0  0
    1.9478    4.1152    3.4856 H   0  0  0  0  0  0  0  0  0  0  0  0
    3.0704   -0.0417    3.9251 H   0  0  0  0  0  0  0  0  0  0  0  0
    3.1679    1.0904    5.2619 H   0  0  0  0  0  0  0  0  0  0  0  0
    1.5941    0.5128    4.7160 H   0  0  0  0  0  0  0  0  0  0  0  0
    0.1116   -1.2320    1.3565 H   0  0  0  0  0  0  0  0  0  0  0  0
   -1.0435   -0.3042   -1.1959 H   0  0  0  0  0  0  0  0  0  0  0  0
   -0.6326   -3.1801   -0.2511 H   0  0  0  0  0  0  0  0  0  0  0  0
   -1.5056   -2.7156   -1.7028 H   0  0  0  0  0  0  0  0  0  0  0  0
    1.8377   -2.9725   -0.1520 H   0  0  0  0  0  0  0  0  0  0  0  0
    3.9439   -2.8334   -1.4076 H   0  0  0  0  0  0  0  0  0  0  0  0
    3.9344   -2.1504   -3.7894 H   0  0  0  0  0  0  0  0  0  0  0  0
    1.7881   -1.6208   -4.9012 H   0  0  0  0  0  0  0  0  0  0  0  0
   -0.3244   -1.7698   -3.6451 H   0  0  0  0  0  0  0  0  0  0  0  0
   -3.2881   -0.6533   -1.4706 H   0  0  0  0  0  0  0  0  0  0  0  0
   -4.5873   -3.0268    0.3254 H   0  0  0  0  0  0  0  0  0  0  0  0
   -6.1537   -2.2956    0.6114 H   0  0  0  0  0  0  0  0  0  0  0  0
   -6.4623   -1.9256   -1.8386 H   0  0  0  0  0  0  0  0  0  0  0  0
   -4.8790   -2.5919   -2.1642 H   0  0  0  0  0  0  0  0  0  0  0  0
   -6.4102   -3.8738   -3.6195 H   0  0  0  0  0  0  0  0  0  0  0  0
   -7.0434   -5.3396   -2.9795 H   0  0  0  0  0  0  0  0  0  0  0  0
   -4.0175    1.5351   -0.4675 H   0  0  0  0  0  0  0  0  0  0  0  0
   -3.6516    1.2933    1.2272 H   0  0  0  0  0  0  0  0  0  0  0  0
   -5.7664    2.4744    1.8560 H   0  0  0  0  0  0  0  0  0  0  0  0
   -6.0184    3.1426   -0.8640 H   0  0  0  0  0  0  0  0  0  0  0  0
   -3.0001    5.7327    2.2167 H   0  0  0  0  0  0  0  0  0  0  0  0
   -1.9841    4.8319    1.0857 H   0  0  0  0  0  0  0  0  0  0  0  0
   -0.8150    5.1082    3.2422 H   0  0  0  0  0  0  0  0  0  0  0  0
   -2.1397    4.3350    4.1119 H   0  0  0  0  0  0  0  0  0  0  0  0
   -1.1535    3.4013    2.9772 H   0  0  0  0  0  0  0  0  0  0  0  0
  1  2  1  0
  1 12  1  0
  1 47  1  0
  2  3  1  0
  2 11  2  0
  3  4  1  0
  4  5  1  0
  4 48  1  0
  4 49  1  0
  5  6  2  0
  5 10  1  0
  6  7  1  0
  6 50  1  0
  7  8  2  0
  7 51  1  0
  8  9  1  0
  8 52  1  0
  9 10  2  0
  9 53  1  0
 10 54  1  0
 12 13  1  0
 12 17  1  0
 12 55  1  1
 13 14  1  0
 13 56  1  0
 13 57  1  0
 14 15  1  0
 14 16  1  0
 14 58  1  6
 15 59  1  0
 15 60  1  0
 15 61  1  0
 16 62  1  0
 16 63  1  0
 16 64  1  0
 17 18  2  0
 17 19  1  0
 19 20  1  0
 19 65  1  0
 20 21  1  0
 20 28  1  0
 20 66  1  6
 21 22  1  0
 21 67  1  0
 21 68  1  0
 22 23  2  0
 22 27  1  0
 23 24  1  0
 23 69  1  0
 24 25  2  0
 24 70  1  0
 25 26  1  0
 25 71  1  0
 26 27  2  0
 26 72  1  0
 27 73  1  0
 28 29  2  0
 28 30  1  0
 30 31  1  0
 30 74  1  0
 31 32  1  0
 31 37  1  0
 32 33  1  0
 32 75  1  0
 32 76  1  0
 33 34  1  0
 33 77  1  0
 33 78  1  0
 34 35  1  0
 34 36  2  0
 35 79  1  0
 35 80  1  0
 37 38  2  0
 37 39  1  0
 39 40  1  0
 39 81  1  0
 39 82  1  0
 40 41  1  0
 40 42  1  0
 40 83  1  1
 41 84  1  0
 42 43  2  0
 42 44  1  0
 44 45  1  0
 45 46  1  0
 45 85  1  0
 45 86  1  0
 46 87  1  0
 46 88  1  0
 46 89  1  0
M  END
