
     RDKit          3D

 68 71  0  0  0  0  0  0  0  0999 V2000
    3.3938   -5.6625   -0.1008 C   0  0  0  0  0  0  0  0  0  0  0  0
    2.7397   -4.4096   -0.1618 O   0  0  0  0  0  0  0  0  0  0  0  0
    3.4926   -3.3012   -0.1173 C   0  0  0  0  0  0  0  0  0  0  0  0
    4.8730   -3.2747   -0.0354 C   0  0  0  0  0  0  0  0  0  0  0  0
    5.5589   -2.0627    0.0044 C   0  0  0  0  0  0  0  0  0  0  0  0
    4.8776   -0.8573   -0.0409 C   0  0  0  0  0  0  0  0  0  0  0  0
    5.5647    0.4326   -0.0188 C   0  0  0  0  0  0  0  0  0  0  0  0
    4.9021    1.5198   -0.1649 N   0  0  0  0  0  0  0  0  0  0  0  0
    5.7557    2.5828   -0.0880 N   0  0  0  0  0  0  0  0  0  0  0  0
    5.2228    3.9250   -0.2405 C   0  0  1  0  0  0  0  0  0  0  0  0
    4.5784    4.0917   -1.6105 C   0  0  0  0  0  0  0  0  0  0  0  0
    4.2620    4.2545    0.8938 C   0  0  0  0  0  0  0  0  0  0  0  0
    7.0395    2.2206    0.1308 C   0  0  0  0  0  0  0  0  0  0  0  0
    7.9970    2.9611    0.2508 O   0  0  0  0  0  0  0  0  0  0  0  0
    7.0366    0.6965    0.1863 C   0  0  2  0  0  0  0  0  0  0  0  0
    7.9275    0.1766   -0.9478 C   0  0  0  0  0  0  0  0  0  0  0  0
    7.5405    0.2387    1.5573 C   0  0  0  0  0  0  0  0  0  0  0  0
    3.4733   -0.8849   -0.1154 C   0  0  0  0  0  0  0  0  0  0  0  0
    2.7837   -2.0774   -0.1514 C   0  0  0  0  0  0  0  0  0  0  0  0
    1.4452   -2.1901   -0.2153 O   0  0  0  0  0  0  0  0  0  0  0  0
    0.6592   -1.0195   -0.0630 C   0  0  0  0  0  0  0  0  0  0  0  0
   -0.7987   -1.4280   -0.0729 C   0  0  0  0  0  0  0  0  0  0  0  0
   -1.7054   -0.2221    0.1470 C   0  0  0  0  0  0  0  0  0  0  0  0
   -3.1623   -0.6237    0.0679 C   0  0  0  0  0  0  0  0  0  0  0  0
   -3.9543    0.5298    0.3208 O   0  0  0  0  0  0  0  0  0  0  0  0
   -5.2875    0.4333    0.2527 C   0  0  0  0  0  0  0  0  0  0  0  0
   -6.0079    1.6049    0.5103 C   0  0  0  0  0  0  0  0  0  0  0  0
   -7.3837    1.6023    0.4557 C   0  0  0  0  0  0  0  0  0  0  0  0
   -8.0847    0.4336    0.1425 C   0  0  0  0  0  0  0  0  0  0  0  0
   -9.5358    0.4660    0.0856 C   0  0  0  0  0  0  0  0  0  0  0  0
  -10.3517   -0.5585   -0.1840 N   0  0  0  0  0  0  0  0  0  0  0  0
  -11.6060   -0.1394   -0.1451 N   0  0  0  0  0  0  0  0  0  0  0  0
  -11.5600    1.1007    0.1387 N   0  0  0  0  0  0  0  0  0  0  0  0
  -10.3047    1.5152    0.2893 N   0  0  0  0  0  0  0  0  0  0  0  0
   -7.3627   -0.7285   -0.1081 C   0  0  0  0  0  0  0  0  0  0  0  0
   -5.9781   -0.7389   -0.0541 C   0  0  0  0  0  0  0  0  0  0  0  0
    2.6158   -6.4196   -0.1493 H   0  0  0  0  0  0  0  0  0  0  0  0
    4.0792   -5.8046   -0.9401 H   0  0  0  0  0  0  0  0  0  0  0  0
    3.9493   -5.7842    0.8325 H   0  0  0  0  0  0  0  0  0  0  0  0
    5.4448   -4.1916    0.0033 H   0  0  0  0  0  0  0  0  0  0  0  0
    6.6359   -2.0964    0.0665 H   0  0  0  0  0  0  0  0  0  0  0  0
    6.0879    4.5864   -0.1750 H   0  0  0  0  0  0  0  0  0  0  0  0
    5.2924    3.8873   -2.4088 H   0  0  0  0  0  0  0  0  0  0  0  0
    3.7263    3.4220   -1.7293 H   0  0  0  0  0  0  0  0  0  0  0  0
    4.2230    5.1149   -1.7311 H   0  0  0  0  0  0  0  0  0  0  0  0
    4.7534    4.1715    1.8634 H   0  0  0  0  0  0  0  0  0  0  0  0
    3.8971    5.2761    0.7880 H   0  0  0  0  0  0  0  0  0  0  0  0
    3.3994    3.5869    0.8864 H   0  0  0  0  0  0  0  0  0  0  0  0
    8.9360    0.5730   -0.8260 H   0  0  0  0  0  0  0  0  0  0  0  0
    7.9987   -0.9093   -0.9384 H   0  0  0  0  0  0  0  0  0  0  0  0
    7.5562    0.4831   -1.9259 H   0  0  0  0  0  0  0  0  0  0  0  0
    6.9302    0.6419    2.3660 H   0  0  0  0  0  0  0  0  0  0  0  0
    7.5318   -0.8474    1.6381 H   0  0  0  0  0  0  0  0  0  0  0  0
    8.5660    0.5777    1.7036 H   0  0  0  0  0  0  0  0  0  0  0  0
    2.9359    0.0532   -0.1424 H   0  0  0  0  0  0  0  0  0  0  0  0
    0.9131   -0.5191    0.8788 H   0  0  0  0  0  0  0  0  0  0  0  0
    0.8568   -0.3112   -0.8760 H   0  0  0  0  0  0  0  0  0  0  0  0
   -1.0357   -1.9020   -1.0294 H   0  0  0  0  0  0  0  0  0  0  0  0
   -0.9750   -2.1710    0.7095 H   0  0  0  0  0  0  0  0  0  0  0  0
   -1.5001    0.2210    1.1251 H   0  0  0  0  0  0  0  0  0  0  0  0
   -1.4989    0.5433   -0.6062 H   0  0  0  0  0  0  0  0  0  0  0  0
   -3.3903   -1.0282   -0.9242 H   0  0  0  0  0  0  0  0  0  0  0  0
   -3.3854   -1.4029    0.8054 H   0  0  0  0  0  0  0  0  0  0  0  0
   -5.4751    2.5147    0.7550 H   0  0  0  0  0  0  0  0  0  0  0  0
   -7.9232    2.5176    0.6594 H   0  0  0  0  0  0  0  0  0  0  0  0
  -10.1463   -1.5253   -0.3905 H   0  0  0  0  0  0  0  0  0  0  0  0
   -7.8633   -1.6560   -0.3560 H   0  0  0  0  0  0  0  0  0  0  0  0
   -5.4601   -1.6661   -0.2558 H   0  0  0  0  0  0  0  0  0  0  0  0
 11 10  1  0
 32 33  2  0
 32 31  1  0
 33 34  1  0
 10 12  1  0
 10  9  1  0
 31 30  1  0
 34 30  2  0
 14 13  2  0
 30 29  1  0
 35 29  2  0
 35 36  1  0
 29 28  1  0
  9 13  1  0
  9  8  1  0
 13 15  1  0
 36 26  2  0
 28 27  2  0
 26 27  1  0
 26 25  1  0
 24 25  1  0
 24 23  1  0
  8  7  2  0
 23 22  1  0
 15 17  1  1
 15  7  1  0
 15 16  1  0
  7  6  1  0
 22 21  1  0
 21 20  1  0
 18  6  2  0
 18 19  1  0
  6  5  1  0
 20 19  1  0
 19  3  2  0
  5  4  2  0
  3  4  1  0
  3  2  1  0
  2  1  1  0
  1 37  1  0
  1 38  1  0
  1 39  1  0
  4 40  1  0
  5 41  1  0
 10 42  1  6
 11 43  1  0
 11 44  1  0
 11 45  1  0
 12 46  1  0
 12 47  1  0
 12 48  1  0
 16 49  1  0
 16 50  1  0
 16 51  1  0
 17 52  1  0
 17 53  1  0
 17 54  1  0
 18 55  1  0
 21 56  1  0
 21 57  1  0
 22 58  1  0
 22 59  1  0
 23 60  1  0
 23 61  1  0
 24 62  1  0
 24 63  1  0
 27 64  1  0
 28 65  1  0
 31 66  1  0
 35 67  1  0
 36 68  1  0
M  END
