
     RDKit          3D

 12 12  0  0  0  0  0  0  0  0999 V2000
    0.0586    0.0313   -1.3734 C   0  0  0  0  0  0  0  0  0  0  0  0
    1.2566    0.0140   -0.6773 C   0  0  0  0  0  0  0  0  0  0  0  0
    1.2036    0.0119    0.7074 C   0  0  0  0  0  0  0  0  0  0  0  0
    0.0018    0.0265    1.3973 C   0  0  0  0  0  0  0  0  0  0  0  0
   -1.1711    0.0432    0.6597 C   0  0  0  0  0  0  0  0  0  0  0  0
   -1.1662    0.0460   -0.7258 C   0  0  0  0  0  0  0  0  0  0  0  0
    0.0923    0.0346   -3.0990 Cl  0  0  0  0  0  0  0  0  0  0  0  0
    2.6801   -0.0100    1.6009 Cl  0  0  0  0  0  0  0  0  0  0  0  0
   -2.6835    0.0612    1.4906 Cl  0  0  0  0  0  0  0  0  0  0  0  0
    2.2028    0.0024   -1.1990 H   0  0  0  0  0  0  0  0  0  0  0  0
   -0.0202    0.0256    2.4776 H   0  0  0  0  0  0  0  0  0  0  0  0
   -2.0898    0.0594   -1.2856 H   0  0  0  0  0  0  0  0  0  0  0  0
  1  2  2  0
  1  6  1  0
  1  7  1  0
  2  3  1  0
  2 10  1  0
  3  4  2  0
  3  8  1  0
  4  5  1  0
  4 11  1  0
  5  6  2  0
  5  9  1  0
  6 12  1  0
M  END
