
     RDKit          3D

 41 41  0  0  0  0  0  0  0  0999 V2000
   -0.7304    1.9703   -0.4226 O   0  0  0  0  0  0  0  0  0  0  0  0
   -1.4274    1.2828    0.6829 P   0  0  1  0  0  0  0  0  0  0  0  0
   -0.3880    0.9264    1.8459 O   0  0  0  0  0  0  0  0  0  0  0  0
   -2.6747    2.0182    1.3628 O   0  0  0  0  0  0  0  0  0  0  0  0
   -2.2064   -0.2963    0.1896 C   0  0  1  0  0  0  0  0  0  0  0  0
   -3.8132    0.0046   -0.6511 P   0  0  1  0  0  0  0  0  0  0  0  0
   -3.7137    1.0348   -1.7065 O   0  0  0  0  0  0  0  0  0  0  0  0
   -4.2631   -1.4577   -1.1082 O   0  0  0  0  0  0  0  0  0  0  0  0
   -4.8702    0.2327    0.5218 O   0  0  0  0  0  0  0  0  0  0  0  0
   -1.2800   -1.0731   -0.7513 C   0  0  0  0  0  0  0  0  0  0  0  0
    0.0308   -1.3465   -0.1342 N   0  0  0  0  0  0  0  0  0  0  0  0
    0.0951   -2.2564    0.8496 C   0  0  0  0  0  0  0  0  0  0  0  0
    1.2967   -2.5039    1.4645 C   0  0  0  0  0  0  0  0  0  0  0  0
    2.4358   -1.8168    1.0755 C   0  0  0  0  0  0  0  0  0  0  0  0
    1.1028   -0.6674   -0.5420 C   0  0  0  0  0  0  0  0  0  0  0  0
    2.3441   -0.8779    0.0511 C   0  0  0  0  0  0  0  0  0  0  0  0
    3.3404   -0.1459   -0.4254 O   0  0  0  0  0  0  0  0  0  0  0  0
    4.6548   -0.3291    0.1100 C   0  0  0  0  0  0  0  0  0  0  0  0
    5.5879    0.6250   -0.6006 C   0  0  0  0  0  0  0  0  0  0  0  0
    7.0247    0.4576   -0.1193 C   0  0  0  0  0  0  0  0  0  0  0  0
    7.9792    1.4177   -0.8148 C   0  0  0  0  0  0  0  0  0  0  0  0
   -0.7569    0.6198    2.6853 H   0  0  0  0  0  0  0  0  0  0  0  0
   -2.5420    2.9530    1.5815 H   0  0  0  0  0  0  0  0  0  0  0  0
   -2.4218   -0.8941    1.0817 H   0  0  0  0  0  0  0  0  0  0  0  0
   -4.3827   -1.5540   -2.0628 H   0  0  0  0  0  0  0  0  0  0  0  0
   -4.7916    1.0845    0.9735 H   0  0  0  0  0  0  0  0  0  0  0  0
   -1.7161   -2.0348   -1.0101 H   0  0  0  0  0  0  0  0  0  0  0  0
   -1.1004   -0.5275   -1.6749 H   0  0  0  0  0  0  0  0  0  0  0  0
   -0.8162   -2.7727    1.1086 H   0  0  0  0  0  0  0  0  0  0  0  0
    1.3412   -3.2405    2.2522 H   0  0  0  0  0  0  0  0  0  0  0  0
    3.3739   -2.0247    1.5704 H   0  0  0  0  0  0  0  0  0  0  0  0
    0.9711    0.0459   -1.3417 H   0  0  0  0  0  0  0  0  0  0  0  0
    4.6474   -0.1322    1.1871 H   0  0  0  0  0  0  0  0  0  0  0  0
    4.9706   -1.3662   -0.0443 H   0  0  0  0  0  0  0  0  0  0  0  0
    5.5396    0.4456   -1.6784 H   0  0  0  0  0  0  0  0  0  0  0  0
    5.2583    1.6538   -0.4295 H   0  0  0  0  0  0  0  0  0  0  0  0
    7.0720    0.6156    0.9622 H   0  0  0  0  0  0  0  0  0  0  0  0
    7.3501   -0.5722   -0.2928 H   0  0  0  0  0  0  0  0  0  0  0  0
    7.9549    1.2826   -1.8975 H   0  0  0  0  0  0  0  0  0  0  0  0
    7.7172    2.4559   -0.6052 H   0  0  0  0  0  0  0  0  0  0  0  0
    9.0065    1.2632   -0.4846 H   0  0  0  0  0  0  0  0  0  0  0  0
  1  2  2  0
  2  3  1  1
  4  2  1  0
  2  5  1  0
  3 22  1  0
  4 23  1  0
  5 10  1  0
  5  6  1  0
  5 24  1  1
  7  6  2  0
  6  9  1  1
  6  8  1  0
  8 25  1  0
  9 26  1  0
 11 10  1  0
 10 27  1  0
 10 28  1  0
 15 11  2  0
 12 11  1  0
 13 12  2  0
 12 29  1  0
 14 13  1  0
 13 30  1  0
 14 16  2  0
 14 31  1  0
 16 15  1  0
 15 32  1  0
 17 16  1  0
 18 17  1  0
 19 18  1  0
 18 33  1  0
 18 34  1  0
 20 19  1  0
 19 35  1  0
 19 36  1  0
 21 20  1  0
 20 37  1  0
 20 38  1  0
 21 39  1  0
 21 40  1  0
 21 41  1  0
M  CHG  1  11   1
M  END
