
     RDKit          3D

 49 51  0  0  0  0  0  0  0  0999 V2000
    1.4734    1.7969   -0.7316 O   0  0  0  0  0  0  0  0  0  0  0  0
    0.4716    1.6395   -0.0541 C   0  0  0  0  0  0  0  0  0  0  0  0
   -0.2336    2.7696    0.5643 C   0  0  0  0  0  0  0  0  0  0  0  0
   -1.8279    2.6799    1.2169 S   0  0  0  0  0  0  0  0  0  0  0  0
   -1.7956    4.3251    1.6665 C   0  0  0  0  0  0  0  0  0  0  0  0
   -0.6192    4.9244    1.3235 C   0  0  0  0  0  0  0  0  0  0  0  0
    0.2756    4.0337    0.6869 C   0  0  0  0  0  0  0  0  0  0  0  0
   -0.0509    0.4064    0.1761 N   0  0  0  0  0  0  0  0  0  0  0  0
    0.4756   -0.7721   -0.3259 C   0  0  0  0  0  0  0  0  0  0  0  0
    2.0202   -0.8698   -1.0921 S   0  0  0  0  0  0  0  0  0  0  0  0
    1.8692   -2.5832   -1.2571 C   0  0  0  0  0  0  0  0  0  0  0  0
    0.6874   -3.0442   -0.7686 C   0  0  0  0  0  0  0  0  0  0  0  0
    0.3516   -4.5058   -0.7546 C   0  0  0  0  0  0  0  0  0  0  0  0
    1.2328   -5.2977   -1.7216 C   0  0  2  0  0  0  0  0  0  0  0  0
    1.0343   -6.7947   -1.5309 C   0  0  0  0  0  0  0  0  0  0  0  0
    2.6957   -4.8961   -1.5465 C   0  0  0  0  0  0  0  0  0  0  0  0
    2.9304   -3.4252   -1.8894 C   0  0  0  0  0  0  0  0  0  0  0  0
   -0.1310   -1.9924   -0.2461 C   0  0  0  0  0  0  0  0  0  0  0  0
   -1.4659   -2.1629    0.3983 C   0  0  0  0  0  0  0  0  0  0  0  0
   -1.5966   -1.9293    1.5980 O   0  0  0  0  0  0  0  0  0  0  0  0
   -2.4835   -2.5504   -0.3880 N   0  0  0  0  0  0  0  0  0  0  0  0
   -3.7945   -2.7871    0.2044 C   0  0  0  0  0  0  0  0  0  0  0  0
   -3.9679   -4.2311    0.6465 C   0  0  0  0  0  0  0  0  0  0  0  0
   -2.4141   -2.5765   -1.8439 C   0  0  0  0  0  0  0  0  0  0  0  0
   -2.7665   -1.2343   -2.4648 C   0  0  0  0  0  0  0  0  0  0  0  0
   -0.7506    0.2890    0.8961 H   0  0  0  0  0  0  0  0  0  0  0  0
    1.2607    4.3090    0.3393 H   0  0  0  0  0  0  0  0  0  0  0  0
   -2.6515    4.7676    2.1524 H   0  0  0  0  0  0  0  0  0  0  0  0
   -0.4029    5.9641    1.5190 H   0  0  0  0  0  0  0  0  0  0  0  0
    2.9150   -3.2911   -2.9759 H   0  0  0  0  0  0  0  0  0  0  0  0
    3.9242   -3.1161   -1.5577 H   0  0  0  0  0  0  0  0  0  0  0  0
    0.4863   -4.8929    0.2626 H   0  0  0  0  0  0  0  0  0  0  0  0
   -0.7017   -4.6703   -0.9971 H   0  0  0  0  0  0  0  0  0  0  0  0
    0.9282   -5.0353   -2.7426 H   0  0  0  0  0  0  0  0  0  0  0  0
    1.3483   -7.1077   -0.5323 H   0  0  0  0  0  0  0  0  0  0  0  0
   -0.0139   -7.0750   -1.6503 H   0  0  0  0  0  0  0  0  0  0  0  0
    1.6140   -7.3666   -2.2569 H   0  0  0  0  0  0  0  0  0  0  0  0
    3.3352   -5.5171   -2.1776 H   0  0  0  0  0  0  0  0  0  0  0  0
    2.9969   -5.0848   -0.5102 H   0  0  0  0  0  0  0  0  0  0  0  0
   -3.9451   -2.1084    1.0419 H   0  0  0  0  0  0  0  0  0  0  0  0
   -4.5472   -2.5329   -0.5425 H   0  0  0  0  0  0  0  0  0  0  0  0
   -1.4231   -2.8810   -2.1719 H   0  0  0  0  0  0  0  0  0  0  0  0
   -3.0989   -3.3512   -2.1917 H   0  0  0  0  0  0  0  0  0  0  0  0
   -3.8349   -4.9189   -0.1896 H   0  0  0  0  0  0  0  0  0  0  0  0
   -3.2488   -4.4945    1.4217 H   0  0  0  0  0  0  0  0  0  0  0  0
   -4.9695   -4.3838    1.0490 H   0  0  0  0  0  0  0  0  0  0  0  0
   -3.7663   -0.9044   -2.1801 H   0  0  0  0  0  0  0  0  0  0  0  0
   -2.0545   -0.4664   -2.1594 H   0  0  0  0  0  0  0  0  0  0  0  0
   -2.7369   -1.3054   -3.5521 H   0  0  0  0  0  0  0  0  0  0  0  0
  1  2  2  0
  2  3  1  0
  3  4  1  0
  4  5  1  0
  5  6  2  0
  3  7  2  0
  6  7  1  0
  2  8  1  0
  8  9  1  0
  9 10  1  0
 10 11  1  0
 11 12  2  0
 12 13  1  0
 13 14  1  0
 14 15  1  0
 14 16  1  0
 11 17  1  0
 16 17  1  0
  9 18  2  0
 12 18  1  0
 18 19  1  0
 19 20  2  0
 19 21  1  0
 21 22  1  0
 22 23  1  0
 21 24  1  0
 24 25  1  0
  8 26  1  0
  7 27  1  0
  5 28  1  0
  6 29  1  0
 17 30  1  0
 17 31  1  0
 13 32  1  0
 13 33  1  0
 14 34  1  6
 15 35  1  0
 15 36  1  0
 15 37  1  0
 16 38  1  0
 16 39  1  0
 22 40  1  0
 22 41  1  0
 24 42  1  0
 24 43  1  0
 23 44  1  0
 23 45  1  0
 23 46  1  0
 25 47  1  0
 25 48  1  0
 25 49  1  0
M  END
