
     RDKit          3D

 44 46  0  0  0  0  0  0  0  0999 V2000
   -4.5708   -0.9892    0.0781 C   0  0  0  0  0  0  0  0  0  0  0  0
    2.8407    2.9724   -0.3006 C   0  0  0  0  0  0  0  0  0  0  0  0
   -3.2316   -0.6562    0.0648 C   0  0  0  0  0  0  0  0  0  0  0  0
   -2.8734    0.6891   -0.0165 C   0  0  0  0  0  0  0  0  0  0  0  0
    4.2037    0.8821   -0.5171 C   0  0  1  0  0  0  0  0  0  0  0  0
   -0.3744    0.5058    0.0386 C   0  0  0  0  0  0  0  0  0  0  0  0
    1.8836    0.7733    0.0444 C   0  0  0  0  0  0  0  0  0  0  0  0
    2.0329   -0.6155    0.2822 C   0  0  0  0  0  0  0  0  0  0  0  0
    0.8764   -1.3497    0.3150 C   0  0  0  0  0  0  0  0  0  0  0  0
    4.4257   -0.4517    0.1701 C   0  0  0  0  0  0  0  0  0  0  0  0
    4.2339    0.6860   -2.0343 C   0  0  0  0  0  0  0  0  0  0  0  0
   -1.5705    1.1604   -0.0468 N   0  0  0  0  0  0  0  0  0  0  0  0
    0.6853    1.3141   -0.0573 N   0  0  0  0  0  0  0  0  0  0  0  0
   -5.6047   -0.0690    0.0146 C   0  0  0  0  0  0  0  0  0  0  0  0
   -0.3386   -0.8040    0.1896 N   0  0  0  0  0  0  0  0  0  0  0  0
   -3.8890    1.6505   -0.0809 C   0  0  0  0  0  0  0  0  0  0  0  0
   -5.2073    1.2606   -0.0648 C   0  0  0  0  0  0  0  0  0  0  0  0
   -4.9110   -2.2885    0.1557 F   0  0  0  0  0  0  0  0  0  0  0  0
   -6.9168   -0.3709    0.0275 O   0  0  0  0  0  0  0  0  0  0  0  0
   -6.1665    2.1932   -0.1254 F   0  0  0  0  0  0  0  0  0  0  0  0
    2.9909    1.5397   -0.0568 N   0  0  0  0  0  0  0  0  0  0  0  0
    3.3096   -1.1352    0.5289 N   0  0  0  0  0  0  0  0  0  0  0  0
    5.5474   -0.8897    0.3366 O   0  0  0  0  0  0  0  0  0  0  0  0
    4.1037    3.7652   -0.0161 C   0  0  0  0  0  0  0  0  0  0  0  0
    3.4451   -2.4485    1.1337 C   0  0  0  0  0  0  0  0  0  0  0  0
    3.3823   -3.5243    0.1480 C   0  0  0  0  0  0  0  0  0  0  0  0
    3.3241   -4.4063   -0.6652 C   0  0  0  0  0  0  0  0  0  0  0  0
    2.5104    3.1546   -1.3289 H   0  0  0  0  0  0  0  0  0  0  0  0
    2.0421    3.3267    0.3481 H   0  0  0  0  0  0  0  0  0  0  0  0
   -2.4871   -1.4339    0.1153 H   0  0  0  0  0  0  0  0  0  0  0  0
    5.0526    1.4969   -0.2223 H   0  0  0  0  0  0  0  0  0  0  0  0
    0.8965   -2.4243    0.4573 H   0  0  0  0  0  0  0  0  0  0  0  0
    3.4234    0.0382   -2.3719 H   0  0  0  0  0  0  0  0  0  0  0  0
    4.1353    1.6446   -2.5429 H   0  0  0  0  0  0  0  0  0  0  0  0
    5.1797    0.2425   -2.3431 H   0  0  0  0  0  0  0  0  0  0  0  0
   -1.4717    2.1591   -0.1462 H   0  0  0  0  0  0  0  0  0  0  0  0
   -3.6551    2.7061   -0.1439 H   0  0  0  0  0  0  0  0  0  0  0  0
   -7.0458   -1.3256    0.0608 H   0  0  0  0  0  0  0  0  0  0  0  0
    3.8605    4.8266   -0.0475 H   0  0  0  0  0  0  0  0  0  0  0  0
    4.5042    3.5427    0.9734 H   0  0  0  0  0  0  0  0  0  0  0  0
    4.8875    3.5951   -0.7542 H   0  0  0  0  0  0  0  0  0  0  0  0
    4.3939   -2.4903    1.6669 H   0  0  0  0  0  0  0  0  0  0  0  0
    2.6602   -2.5752    1.8816 H   0  0  0  0  0  0  0  0  0  0  0  0
    3.2765   -5.1906   -1.3858 H   0  0  0  0  0  0  0  0  0  0  0  0
 27 26  3  0
 15  9  2  0
 15  6  1  0
 26 25  1  0
  9  8  1  0
 12  6  1  0
 12  4  1  0
  3  4  1  0
  3  1  2  0
  6 13  2  0
 25 22  1  0
  4 16  2  0
 18  1  1  0
  1 14  1  0
  8 22  1  0
  8  7  2  0
 22 10  1  0
 13  7  1  0
 16 17  1  0
  7 21  1  0
 14 17  2  0
 14 19  1  0
 17 20  1  0
 10 23  2  0
 10  5  1  0
 21  5  1  0
 21  2  1  0
  5 11  1  0
  2 24  1  0
  2 28  1  0
  2 29  1  0
  3 30  1  0
  5 31  1  6
  9 32  1  0
 11 33  1  0
 11 34  1  0
 11 35  1  0
 12 36  1  0
 16 37  1  0
 19 38  1  0
 24 39  1  0
 24 40  1  0
 24 41  1  0
 25 42  1  0
 25 43  1  0
 27 44  1  0
M  END
