
     RDKit          3D

 76 78  0  0  0  0  0  0  0  0999 V2000
    9.8980    0.6693   -1.4257 C   0  0  0  0  0  0  0  0  0  0  0  0
   11.3344    0.3005   -1.0692 C   0  0  0  0  0  0  0  0  0  0  0  0
   11.6415    0.6145    0.3913 C   0  0  0  0  0  0  0  0  0  0  0  0
   10.6390   -0.0669    1.3157 C   0  0  0  0  0  0  0  0  0  0  0  0
    9.2031    0.3012    0.9519 C   0  0  0  0  0  0  0  0  0  0  0  0
    8.8778   -0.0095   -0.5105 C   0  0  1  0  0  0  0  0  0  0  0  0
    7.4562    0.4014   -0.8934 C   0  0  0  0  0  0  0  0  0  0  0  0
    6.3522   -0.3662   -0.1767 C   0  0  0  0  0  0  0  0  0  0  0  0
    4.9571    0.0515   -0.6253 C   0  0  0  0  0  0  0  0  0  0  0  0
    3.8550   -0.7580    0.0472 C   0  0  0  0  0  0  0  0  0  0  0  0
    2.4777   -0.3040   -0.3872 C   0  0  0  0  0  0  0  0  0  0  0  0
    1.5066   -1.1646    0.1918 O   0  0  0  0  0  0  0  0  0  0  0  0
    0.2030   -0.8964   -0.1549 C   0  0  1  0  0  0  0  0  0  0  0  0
   -0.6322   -2.1500    0.0858 C   0  0  2  0  0  0  0  0  0  0  0  0
   -0.2487   -3.2046   -0.7590 O   0  0  0  0  0  0  0  0  0  0  0  0
   -2.0873   -1.8302   -0.2182 C   0  0  1  0  0  0  0  0  0  0  0  0
   -2.9381   -2.9054    0.1092 O   0  0  0  0  0  0  0  0  0  0  0  0
   -0.2746    0.1442    0.6589 O   0  0  0  0  0  0  0  0  0  0  0  0
   -1.5843    0.5598    0.3331 C   0  0  2  0  0  0  0  0  0  0  0  0
   -1.9046    1.7645    1.1912 C   0  0  0  0  0  0  0  0  0  0  0  0
   -1.0168    2.8033    0.8474 O   0  0  0  0  0  0  0  0  0  0  0  0
   -2.5567   -0.6071    0.5619 C   0  0  1  0  0  0  0  0  0  0  0  0
   -3.8482   -0.2875    0.0966 O   0  0  0  0  0  0  0  0  0  0  0  0
   -4.9128   -0.1943    1.0015 C   0  0  1  0  0  0  0  0  0  0  0  0
   -5.3008    1.1282    1.2023 O   0  0  0  0  0  0  0  0  0  0  0  0
   -5.7734    1.8218    0.0561 C   0  0  2  0  0  0  0  0  0  0  0  0
   -6.1521    3.2157    0.5115 C   0  0  0  0  0  0  0  0  0  0  0  0
   -4.9950    3.8793    0.9613 O   0  0  0  0  0  0  0  0  0  0  0  0
   -6.9622    1.0870   -0.5650 C   0  0  1  0  0  0  0  0  0  0  0  0
   -7.3119    1.7647   -1.7476 O   0  0  0  0  0  0  0  0  0  0  0  0
   -6.5947   -0.3670   -0.8339 C   0  0  2  0  0  0  0  0  0  0  0  0
   -7.7519   -1.0129   -1.3143 O   0  0  0  0  0  0  0  0  0  0  0  0
   -6.0865   -1.0088    0.4542 C   0  0  1  0  0  0  0  0  0  0  0  0
   -5.7844   -2.3689    0.2934 O   0  0  0  0  0  0  0  0  0  0  0  0
    9.6914    0.4080   -2.4678 H   0  0  0  0  0  0  0  0  0  0  0  0
    9.7728    1.7568   -1.3501 H   0  0  0  0  0  0  0  0  0  0  0  0
   11.4879   -0.7693   -1.2485 H   0  0  0  0  0  0  0  0  0  0  0  0
   12.0322    0.8261   -1.7262 H   0  0  0  0  0  0  0  0  0  0  0  0
   12.6597    0.3054    0.6408 H   0  0  0  0  0  0  0  0  0  0  0  0
   11.5988    1.6984    0.5461 H   0  0  0  0  0  0  0  0  0  0  0  0
   10.7626   -1.1534    1.2449 H   0  0  0  0  0  0  0  0  0  0  0  0
   10.8399    0.1985    2.3568 H   0  0  0  0  0  0  0  0  0  0  0  0
    9.0473    1.3733    1.1254 H   0  0  0  0  0  0  0  0  0  0  0  0
    8.5117   -0.2217    1.6171 H   0  0  0  0  0  0  0  0  0  0  0  0
    8.9675   -1.0960   -0.6545 H   0  0  0  0  0  0  0  0  0  0  0  0
    7.3320    0.2655   -1.9740 H   0  0  0  0  0  0  0  0  0  0  0  0
    7.3352    1.4759   -0.7090 H   0  0  0  0  0  0  0  0  0  0  0  0
    6.4342   -0.2255    0.9054 H   0  0  0  0  0  0  0  0  0  0  0  0
    6.4839   -1.4393   -0.3542 H   0  0  0  0  0  0  0  0  0  0  0  0
    4.8767   -0.0585   -1.7122 H   0  0  0  0  0  0  0  0  0  0  0  0
    4.8156    1.1172   -0.4161 H   0  0  0  0  0  0  0  0  0  0  0  0
    3.9436   -0.6705    1.1345 H   0  0  0  0  0  0  0  0  0  0  0  0
    3.9805   -1.8171   -0.1977 H   0  0  0  0  0  0  0  0  0  0  0  0
    2.3949   -0.3381   -1.4814 H   0  0  0  0  0  0  0  0  0  0  0  0
    2.3090    0.7343   -0.0810 H   0  0  0  0  0  0  0  0  0  0  0  0
    0.1269   -0.6024   -1.2194 H   0  0  0  0  0  0  0  0  0  0  0  0
   -0.5381   -2.4267    1.1470 H   0  0  0  0  0  0  0  0  0  0  0  0
    0.6269   -3.5049   -0.4956 H   0  0  0  0  0  0  0  0  0  0  0  0
   -2.1676   -1.5923   -1.2907 H   0  0  0  0  0  0  0  0  0  0  0  0
   -2.7318   -3.6485   -0.4686 H   0  0  0  0  0  0  0  0  0  0  0  0
   -1.6397    0.8521   -0.7285 H   0  0  0  0  0  0  0  0  0  0  0  0
   -2.9437    2.0590    1.0265 H   0  0  0  0  0  0  0  0  0  0  0  0
   -1.8106    1.4820    2.2496 H   0  0  0  0  0  0  0  0  0  0  0  0
   -1.2758    3.5868    1.3402 H   0  0  0  0  0  0  0  0  0  0  0  0
   -2.5784   -0.8476    1.6349 H   0  0  0  0  0  0  0  0  0  0  0  0
   -4.6133   -0.5725    1.9862 H   0  0  0  0  0  0  0  0  0  0  0  0
   -4.9773    1.9011   -0.6977 H   0  0  0  0  0  0  0  0  0  0  0  0
   -6.9107    3.1349    1.3021 H   0  0  0  0  0  0  0  0  0  0  0  0
   -6.6175    3.7404   -0.3294 H   0  0  0  0  0  0  0  0  0  0  0  0
   -5.2488    4.7648    1.2364 H   0  0  0  0  0  0  0  0  0  0  0  0
   -7.7957    1.1001    0.1565 H   0  0  0  0  0  0  0  0  0  0  0  0
   -8.0699    1.3162   -2.1363 H   0  0  0  0  0  0  0  0  0  0  0  0
   -5.7984   -0.3905   -1.5930 H   0  0  0  0  0  0  0  0  0  0  0  0
   -7.5071   -1.9028   -1.5873 H   0  0  0  0  0  0  0  0  0  0  0  0
   -6.8891   -0.9516    1.1992 H   0  0  0  0  0  0  0  0  0  0  0  0
   -4.8593   -2.4776    0.0199 H   0  0  0  0  0  0  0  0  0  0  0  0
  1  2  1  0
  1  6  1  0
  1 35  1  0
  1 36  1  0
  2  3  1  0
  2 37  1  0
  2 38  1  0
  3  4  1  0
  3 39  1  0
  3 40  1  0
  4  5  1  0
  4 41  1  0
  4 42  1  0
  5  6  1  0
  5 43  1  0
  5 44  1  0
  6  7  1  0
  6 45  1  1
  7  8  1  0
  7 46  1  0
  7 47  1  0
  8  9  1  0
  8 48  1  0
  8 49  1  0
  9 10  1  0
  9 50  1  0
  9 51  1  0
 10 11  1  0
 10 52  1  0
 10 53  1  0
 11 12  1  0
 11 54  1  0
 11 55  1  0
 12 13  1  0
 13 14  1  0
 13 18  1  0
 13 56  1  6
 14 15  1  0
 14 16  1  0
 14 57  1  1
 15 58  1  0
 16 17  1  0
 16 22  1  0
 16 59  1  6
 17 60  1  0
 18 19  1  0
 19 20  1  0
 19 22  1  0
 19 61  1  6
 20 21  1  0
 20 62  1  0
 20 63  1  0
 21 64  1  0
 22 23  1  0
 22 65  1  1
 23 24  1  0
 24 25  1  0
 24 33  1  0
 24 66  1  1
 25 26  1  0
 26 27  1  0
 26 29  1  0
 26 67  1  6
 27 28  1  0
 27 68  1  0
 27 69  1  0
 28 70  1  0
 29 30  1  0
 29 31  1  0
 29 71  1  1
 30 72  1  0
 31 32  1  0
 31 33  1  0
 31 73  1  6
 32 74  1  0
 33 34  1  0
 33 75  1  1
 34 76  1  0
M  END
