
     RDKit          3D

 15 16  0  0  0  0  0  0  0  0999 V2000
    2.0844    0.6866   -0.0520 C   0  0  0  0  0  0  0  0  0  0  0  0
    0.9138    1.4222   -0.0264 C   0  0  0  0  0  0  0  0  0  0  0  0
   -0.2647    0.6900   -0.0143 C   0  0  0  0  0  0  0  0  0  0  0  0
   -0.2251   -0.7258   -0.0281 C   0  0  0  0  0  0  0  0  0  0  0  0
   -1.5779   -1.1795   -0.0100 C   0  0  0  0  0  0  0  0  0  0  0  0
   -2.3571   -0.0574    0.0139 C   0  0  0  0  0  0  0  0  0  0  0  0
   -1.5743    1.0605    0.0102 N   0  0  0  0  0  0  0  0  0  0  0  0
    0.9164   -1.4208   -0.0535 N   0  0  0  0  0  0  0  0  0  0  0  0
    2.0329   -0.7146   -0.0645 C   0  0  0  0  0  0  0  0  0  0  0  0
    3.0450    1.1830   -0.0621 H   0  0  0  0  0  0  0  0  0  0  0  0
    0.9225    2.5045   -0.0159 H   0  0  0  0  0  0  0  0  0  0  0  0
   -1.9258   -2.1999   -0.0119 H   0  0  0  0  0  0  0  0  0  0  0  0
   -3.4311    0.0322    0.0332 H   0  0  0  0  0  0  0  0  0  0  0  0
   -1.9185    2.0060    0.0321 H   0  0  0  0  0  0  0  0  0  0  0  0
    2.9596   -1.2781   -0.0854 H   0  0  0  0  0  0  0  0  0  0  0  0
  7  3  1  0
  7  6  1  0
  2  3  1  0
  2  1  2  0
  3  4  2  0
  6  5  2  0
  1  9  1  0
  4  5  1  0
  4  8  1  0
  9  8  2  0
  1 10  1  0
  2 11  1  0
  5 12  1  0
  6 13  1  0
  7 14  1  0
  9 15  1  0
M  END
