
     RDKit          3D

 54 58  0  0  0  0  0  0  0  0999 V2000
    5.2961    2.4322   -0.9616 C   0  0  0  0  0  0  0  0  0  0  0  0
    3.6993    1.0079   -0.4707 C   0  0  0  0  0  0  0  0  0  0  0  0
    2.8401    2.0189   -0.0669 C   0  0  0  0  0  0  0  0  0  0  0  0
    3.3410    3.3311   -0.1476 C   0  0  0  0  0  0  0  0  0  0  0  0
    2.9896   -0.1459   -0.3124 N   0  0  0  0  0  0  0  0  0  0  0  0
    1.7579    0.2186    0.1626 C   0  0  0  0  0  0  0  0  0  0  0  0
    3.4619   -1.4872   -0.5883 C   0  0  1  0  0  0  0  0  0  0  0  0
    2.2651   -3.4655   -0.3295 C   0  0  2  0  0  0  0  0  0  0  0  0
    1.1538   -3.3973    0.7173 C   0  0  0  0  0  0  0  0  0  0  0  0
   -0.9909   -2.5814    1.3417 C   0  0  0  0  0  0  0  0  0  0  0  0
   -2.0482   -1.6334    1.0099 C   0  0  0  0  0  0  0  0  0  0  0  0
   -2.9159   -0.8435    0.7420 C   0  0  0  0  0  0  0  0  0  0  0  0
   -3.9290    0.0878    0.4120 C   0  0  0  0  0  0  0  0  0  0  0  0
   -5.4596    1.0826   -0.8006 C   0  0  0  0  0  0  0  0  0  0  0  0
   -7.0324    2.4950   -1.3947 C   0  0  0  0  0  0  0  0  0  0  0  0
   -6.1662    2.7706    0.7188 C   0  0  0  0  0  0  0  0  0  0  0  0
   -5.3264    1.6711    0.4513 C   0  0  0  0  0  0  0  0  0  0  0  0
   -0.6564   -3.4022   -0.8878 C   0  0  0  0  0  0  0  0  0  0  0  0
    3.6188   -3.6707    0.3327 C   0  0  2  0  0  0  0  0  0  0  0  0
    4.0021   -2.2191    0.6464 C   0  0  1  0  0  0  0  0  0  0  0  0
    4.5871    3.5001   -0.6035 N   0  0  0  0  0  0  0  0  0  0  0  0
    4.9412    1.1601   -0.9269 N   0  0  0  0  0  0  0  0  0  0  0  0
    2.6220    4.4007    0.1985 N   0  0  0  0  0  0  0  0  0  0  0  0
    1.6310    1.5041    0.3223 N   0  0  0  0  0  0  0  0  0  0  0  0
   -0.0477   -2.7382    0.2485 N   0  0  0  0  0  0  0  0  0  0  0  0
   -4.5570    0.0692   -0.8046 N   0  0  0  0  0  0  0  0  0  0  0  0
   -6.3003    1.4580   -1.7629 N   0  0  0  0  0  0  0  0  0  0  0  0
   -7.0146    3.1564   -0.2396 N   0  0  0  0  0  0  0  0  0  0  0  0
   -4.3697    1.0417    1.1928 N   0  0  0  0  0  0  0  0  0  0  0  0
   -6.1412    3.4278    1.8771 N   0  0  0  0  0  0  0  0  0  0  0  0
    2.3982   -2.2503   -1.0672 O   0  0  0  0  0  0  0  0  0  0  0  0
    4.5053   -4.2288   -0.6000 O   0  0  0  0  0  0  0  0  0  0  0  0
    5.3750   -1.9940    0.7704 O   0  0  0  0  0  0  0  0  0  0  0  0
    6.2961    2.6395   -1.3277 H   0  0  0  0  0  0  0  0  0  0  0  0
    0.9802   -0.5150    0.3323 H   0  0  0  0  0  0  0  0  0  0  0  0
    4.2506   -1.3861   -1.3418 H   0  0  0  0  0  0  0  0  0  0  0  0
    2.0563   -4.2614   -1.0487 H   0  0  0  0  0  0  0  0  0  0  0  0
    0.9667   -4.4319    1.0512 H   0  0  0  0  0  0  0  0  0  0  0  0
    1.5035   -2.8521    1.5991 H   0  0  0  0  0  0  0  0  0  0  0  0
   -0.4621   -2.1992    2.2189 H   0  0  0  0  0  0  0  0  0  0  0  0
   -1.4481   -3.5361    1.6498 H   0  0  0  0  0  0  0  0  0  0  0  0
   -7.7440    2.8601   -2.1279 H   0  0  0  0  0  0  0  0  0  0  0  0
   -0.9446   -4.4414   -0.6724 H   0  0  0  0  0  0  0  0  0  0  0  0
   -1.5511   -2.8622   -1.1964 H   0  0  0  0  0  0  0  0  0  0  0  0
    0.0206   -3.4064   -1.7402 H   0  0  0  0  0  0  0  0  0  0  0  0
    3.5425   -4.2829    1.2416 H   0  0  0  0  0  0  0  0  0  0  0  0
    3.4601   -1.8836    1.5383 H   0  0  0  0  0  0  0  0  0  0  0  0
    1.7075    4.3028    0.6032 H   0  0  0  0  0  0  0  0  0  0  0  0
    3.0345    5.3171    0.1702 H   0  0  0  0  0  0  0  0  0  0  0  0
   -4.3734   -0.5730   -1.5613 H   0  0  0  0  0  0  0  0  0  0  0  0
   -6.7564    4.2078    2.0330 H   0  0  0  0  0  0  0  0  0  0  0  0
   -5.5174    3.1563    2.6166 H   0  0  0  0  0  0  0  0  0  0  0  0
    5.4019   -3.9872   -0.3379 H   0  0  0  0  0  0  0  0  0  0  0  0
    5.6436   -2.2023    1.6710 H   0  0  0  0  0  0  0  0  0  0  0  0
 23  4  1  0
 24  3  1  0
 24  6  2  0
  4  3  2  0
  4 21  1  0
  3  2  1  0
  6  5  1  0
 20 33  1  0
 20 19  1  0
 20  7  1  0
 21  1  2  0
 32 19  1  0
  2  5  1  0
  2 22  2  0
  5  7  1  0
 19  8  1  0
  1 22  1  0
  7 31  1  0
 31  8  1  0
  8  9  1  0
  9 25  1  0
 30 16  1  0
 16 28  1  0
 16 17  2  0
 25 18  1  0
 25 10  1  0
 29 17  1  0
 29 13  2  0
 28 15  2  0
 17 14  1  0
 13 12  1  0
 13 26  1  0
 12 11  3  0
 11 10  1  0
 15 27  1  0
 14 26  1  0
 14 27  2  0
  1 34  1  0
  6 35  1  0
  7 36  1  6
  8 37  1  6
  9 38  1  0
  9 39  1  0
 10 40  1  0
 10 41  1  0
 15 42  1  0
 18 43  1  0
 18 44  1  0
 18 45  1  0
 19 46  1  1
 20 47  1  1
 23 48  1  0
 23 49  1  0
 26 50  1  0
 30 51  1  0
 30 52  1  0
 32 53  1  0
 33 54  1  0
M  END
