
     RDKit          3D

 64 67  0  0  0  0  0  0  0  0999 V2000
    2.7578   -0.8117    3.5630 C   0  0  0  0  0  0  0  0  0  0  0  0
    4.8032   -1.7209   -3.6855 C   0  0  0  0  0  0  0  0  0  0  0  0
    1.6039    4.4891    1.2107 C   0  0  0  0  0  0  0  0  0  0  0  0
   -0.2465    0.7411   -1.5010 O   0  0  0  0  0  0  0  0  0  0  0  0
   -0.1814   -1.7715   -1.4559 O   0  0  0  0  0  0  0  0  0  0  0  0
    5.0922   -2.7016    1.2715 C   0  0  0  0  0  0  0  0  0  0  0  0
    4.2478   -3.1504    0.2648 C   0  0  0  0  0  0  0  0  0  0  0  0
    4.5738   -1.9529    2.3137 C   0  0  0  0  0  0  0  0  0  0  0  0
   -4.4486    0.8773    0.1822 C   0  0  0  0  0  0  0  0  0  0  0  0
   -3.4438   -1.0529    1.1782 C   0  0  0  0  0  0  0  0  0  0  0  0
    2.9057   -2.8190    0.3113 C   0  0  0  0  0  0  0  0  0  0  0  0
   -3.3623    1.6418    0.5757 C   0  0  0  0  0  0  0  0  0  0  0  0
   -2.3639   -0.2868    1.5719 C   0  0  0  0  0  0  0  0  0  0  0  0
   -1.1438    3.8675   -1.0104 C   0  0  0  0  0  0  0  0  0  0  0  0
    0.8326    4.6220   -1.1429 C   0  0  0  0  0  0  0  0  0  0  0  0
    4.0082    0.0977   -2.1638 C   0  0  0  0  0  0  0  0  0  0  0  0
    2.5348   -1.4317   -2.6708 C   0  0  0  0  0  0  0  0  0  0  0  0
    0.0014    1.2757    2.2106 C   0  0  0  0  0  0  0  0  0  0  0  0
    0.9882    0.8265    1.1337 C   0  0  0  0  0  0  0  0  0  0  0  0
    0.9144   -1.6652    1.2555 C   0  0  0  0  0  0  0  0  0  0  0  0
   -1.2302    3.2963    1.5398 C   0  0  0  0  0  0  0  0  0  0  0  0
   -0.2238    4.3782   -1.8744 N   0  0  0  0  0  0  0  0  0  0  0  0
    2.9352    0.4556   -1.5113 N   0  0  0  0  0  0  0  0  0  0  0  0
    3.2217   -1.6058    2.3709 C   0  0  0  0  0  0  0  0  0  0  0  0
   -4.4925   -0.4733    0.4794 C   0  0  0  0  0  0  0  0  0  0  0  0
   -2.2813    1.0875    1.2831 C   0  0  0  0  0  0  0  0  0  0  0  0
    2.3792   -2.0264    1.3332 C   0  0  0  0  0  0  0  0  0  0  0  0
   -0.6385    3.8002    0.2596 C   0  0  0  0  0  0  0  0  0  0  0  0
    2.0178   -0.4951   -1.8206 C   0  0  0  0  0  0  0  0  0  0  0  0
   -1.2275    1.8556    1.7183 N   0  0  0  0  0  0  0  0  0  0  0  0
    0.6173   -0.4387    0.5139 N   0  0  0  0  0  0  0  0  0  0  0  0
    3.8141   -1.0323   -2.8834 N   0  0  0  0  0  0  0  0  0  0  0  0
    0.6399    4.2963    0.1520 N   0  0  0  0  0  0  0  0  0  0  0  0
    0.4187   -0.4892   -1.1154 S   0  0  1  0  0  0  0  0  0  0  0  0
    3.0392    0.2394    3.4775 H   0  0  0  0  0  0  0  0  0  0  0  0
    1.6818   -0.8480    3.7181 H   0  0  0  0  0  0  0  0  0  0  0  0
    3.2256   -1.1875    4.4730 H   0  0  0  0  0  0  0  0  0  0  0  0
    5.0706   -2.6700   -3.2260 H   0  0  0  0  0  0  0  0  0  0  0  0
    4.4171   -1.9019   -4.6853 H   0  0  0  0  0  0  0  0  0  0  0  0
    5.6925   -1.1019   -3.7594 H   0  0  0  0  0  0  0  0  0  0  0  0
    1.1767    5.0679    2.0272 H   0  0  0  0  0  0  0  0  0  0  0  0
    1.9651    3.5402    1.6030 H   0  0  0  0  0  0  0  0  0  0  0  0
    2.4553    5.0372    0.8163 H   0  0  0  0  0  0  0  0  0  0  0  0
    6.1453   -2.9516    1.2562 H   0  0  0  0  0  0  0  0  0  0  0  0
    4.6291   -3.7613   -0.5432 H   0  0  0  0  0  0  0  0  0  0  0  0
    5.2296   -1.6307    3.1145 H   0  0  0  0  0  0  0  0  0  0  0  0
   -5.2504    1.3567   -0.3639 H   0  0  0  0  0  0  0  0  0  0  0  0
   -3.4542   -2.1056    1.4287 H   0  0  0  0  0  0  0  0  0  0  0  0
    2.2433   -3.1964   -0.4575 H   0  0  0  0  0  0  0  0  0  0  0  0
   -3.3793    2.6865    0.3048 H   0  0  0  0  0  0  0  0  0  0  0  0
   -1.5790   -0.7896    2.1145 H   0  0  0  0  0  0  0  0  0  0  0  0
   -2.1218    3.5572   -1.3446 H   0  0  0  0  0  0  0  0  0  0  0  0
    1.7632    5.0456   -1.4907 H   0  0  0  0  0  0  0  0  0  0  0  0
    4.9541    0.6182   -2.1590 H   0  0  0  0  0  0  0  0  0  0  0  0
    2.1194   -2.3218   -3.1119 H   0  0  0  0  0  0  0  0  0  0  0  0
   -0.2108    0.4638    2.9107 H   0  0  0  0  0  0  0  0  0  0  0  0
    0.5012    2.0337    2.8188 H   0  0  0  0  0  0  0  0  0  0  0  0
    1.0622    1.5962    0.3690 H   0  0  0  0  0  0  0  0  0  0  0  0
    1.9881    0.7381    1.5651 H   0  0  0  0  0  0  0  0  0  0  0  0
    0.3514   -2.4818    0.8077 H   0  0  0  0  0  0  0  0  0  0  0  0
    0.4922   -1.5398    2.2533 H   0  0  0  0  0  0  0  0  0  0  0  0
   -0.6953    3.7279    2.3886 H   0  0  0  0  0  0  0  0  0  0  0  0
   -2.2504    3.6660    1.6406 H   0  0  0  0  0  0  0  0  0  0  0  0
   -5.9653   -1.5249   -0.0706 Br  0  0  0  0  0  0  0  0  0  0  0  0
  1 24  1  0
  1 35  1  0
  1 36  1  0
  1 37  1  0
 32  2  1  0
  2 38  1  0
  2 39  1  0
  2 40  1  0
 33  3  1  0
  3 41  1  0
  3 42  1  0
  3 43  1  0
  4 34  2  0
 34  5  2  0
 64 25  1  0
  8  6  2  0
  6  7  1  0
  6 44  1  0
  7 11  2  0
  7 45  1  0
  8 24  1  0
  8 46  1  0
 25  9  2  0
  9 12  1  0
  9 47  1  0
 25 10  1  0
 10 13  2  0
 10 48  1  0
 27 11  1  0
 11 49  1  0
 12 26  2  0
 12 50  1  0
 13 26  1  0
 13 51  1  0
 22 14  1  0
 14 28  2  0
 14 52  1  0
 22 15  2  0
 15 33  1  0
 15 53  1  0
 23 16  2  0
 16 32  1  0
 16 54  1  0
 29 17  2  0
 17 32  1  0
 17 55  1  0
 30 18  1  0
 19 18  1  0
 18 56  1  0
 18 57  1  0
 19 31  1  0
 19 58  1  0
 19 59  1  0
 27 20  1  0
 20 31  1  0
 20 60  1  0
 20 61  1  0
 28 21  1  0
 30 21  1  0
 21 62  1  0
 21 63  1  0
 29 23  1  0
 24 27  2  0
 26 30  1  0
 28 33  1  0
 34 29  1  0
 34 31  1  1
M  END
