
     RDKit          3D

 17 17  0  0  0  0  0  0  0  0999 V2000
   -2.6291   -0.0306   -0.0127 C   0  0  0  0  0  0  0  0  0  0  0  0
   -1.9311   -1.2245   -0.0840 C   0  0  0  0  0  0  0  0  0  0  0  0
   -0.5492   -1.1849   -0.0646 C   0  0  0  0  0  0  0  0  0  0  0  0
    0.0994    0.0417    0.0254 C   0  0  0  0  0  0  0  0  0  0  0  0
   -0.6130    1.2292    0.0994 C   0  0  0  0  0  0  0  0  0  0  0  0
   -1.9988    1.1953    0.0783 C   0  0  0  0  0  0  0  0  0  0  0  0
    1.8664    0.0703    0.0649 S   0  0  1  0  0  0  0  0  0  0  0  0
    2.2805    1.4101    0.4590 O   0  0  0  0  0  0  0  0  0  0  0  0
    2.3530   -1.0590    0.8438 O   0  0  0  0  0  0  0  0  0  0  0  0
    2.2249   -0.2825   -1.5075 N   0  0  0  0  0  0  0  0  0  0  0  0
   -3.9639   -0.0686   -0.0320 F   0  0  0  0  0  0  0  0  0  0  0  0
   -2.4580   -2.1666   -0.1525 H   0  0  0  0  0  0  0  0  0  0  0  0
    0.0104   -2.1089   -0.1207 H   0  0  0  0  0  0  0  0  0  0  0  0
   -0.1053    2.1805    0.1749 H   0  0  0  0  0  0  0  0  0  0  0  0
   -2.5756    2.1085    0.1358 H   0  0  0  0  0  0  0  0  0  0  0  0
    2.0409    0.4917   -2.1374 H   0  0  0  0  0  0  0  0  0  0  0  0
    3.1855   -0.5977   -1.6080 H   0  0  0  0  0  0  0  0  0  0  0  0
  1  2  2  0
  1  6  1  0
  1 11  1  0
  2  3  1  0
  2 12  1  0
  3  4  2  0
  3 13  1  0
  4  5  1  0
  4  7  1  0
  5  6  2  0
  5 14  1  0
  6 15  1  0
  7  8  2  0
  7  9  2  0
  7 10  1  6
 10 16  1  0
 10 17  1  0
M  END
