
     RDKit          3D

 56 60  0  0  0  0  0  0  0  0999 V2000
    0.7148   -3.0776   -0.5842 N   0  0  0  0  0  0  0  0  0  0  0  0
   -0.5857   -2.7786   -0.5231 C   0  0  0  0  0  0  0  0  0  0  0  0
   -1.0939   -1.6136    0.0995 C   0  0  0  0  0  0  0  0  0  0  0  0
   -0.6407   -0.4714    0.8168 C   0  0  0  0  0  0  0  0  0  0  0  0
   -1.6719    0.2163    1.2530 N   0  0  0  0  0  0  0  0  0  0  0  0
   -2.7829   -0.4154    0.8503 N   0  0  0  0  0  0  0  0  0  0  0  0
   -4.1002    0.1173    1.1236 C   0  0  0  0  0  0  0  0  0  0  0  0
   -4.7551    0.7588   -0.0942 C   0  0  1  0  0  0  0  0  0  0  0  0
   -6.1741    1.2057    0.2534 C   0  0  0  0  0  0  0  0  0  0  0  0
   -6.8334    1.8679   -0.9469 C   0  0  0  0  0  0  0  0  0  0  0  0
   -6.0328    2.9943   -1.3923 N   0  0  0  0  0  0  0  0  0  0  0  0
   -4.7058    2.5801   -1.8123 C   0  0  0  0  0  0  0  0  0  0  0  0
   -3.9634    1.9414   -0.6470 C   0  0  0  0  0  0  0  0  0  0  0  0
   -2.4874   -1.5198    0.1418 C   0  0  0  0  0  0  0  0  0  0  0  0
   -3.3571   -2.3760   -0.4026 N   0  0  0  0  0  0  0  0  0  0  0  0
   -2.7524   -3.3782   -1.0052 C   0  0  0  0  0  0  0  0  0  0  0  0
   -1.4464   -3.6276   -1.0889 N   0  0  0  0  0  0  0  0  0  0  0  0
    0.7265   -0.0228    1.0977 C   0  0  0  0  0  0  0  0  0  0  0  0
    1.6923   -0.0640    0.1225 C   0  0  0  0  0  0  0  0  0  0  0  0
    3.0189    0.3549    0.3852 C   0  0  0  0  0  0  0  0  0  0  0  0
    4.0193    0.3029   -0.6042 C   0  0  0  0  0  0  0  0  0  0  0  0
    5.3065    0.7050   -0.3262 C   0  0  0  0  0  0  0  0  0  0  0  0
    6.2013    0.6209   -1.3262 O   0  0  0  0  0  0  0  0  0  0  0  0
    7.5552    0.9886   -1.0900 C   0  0  0  0  0  0  0  0  0  0  0  0
    8.3277    0.7647   -2.3679 C   0  0  0  0  0  0  0  0  0  0  0  0
    5.6284    1.1797    0.9682 C   0  0  0  0  0  0  0  0  0  0  0  0
    4.6628    1.2417    1.9370 C   0  0  0  0  0  0  0  0  0  0  0  0
    3.3372    0.8370    1.6807 C   0  0  0  0  0  0  0  0  0  0  0  0
    2.3210    0.8930    2.6637 C   0  0  0  0  0  0  0  0  0  0  0  0
    1.0510    0.4779    2.3850 C   0  0  0  0  0  0  0  0  0  0  0  0
    1.3853   -2.5970   -0.0094 H   0  0  0  0  0  0  0  0  0  0  0  0
    0.9829   -3.9807   -0.9390 H   0  0  0  0  0  0  0  0  0  0  0  0
   -4.7244   -0.6970    1.4971 H   0  0  0  0  0  0  0  0  0  0  0  0
   -3.9861    0.8427    1.9295 H   0  0  0  0  0  0  0  0  0  0  0  0
   -4.8306   -0.0035   -0.8800 H   0  0  0  0  0  0  0  0  0  0  0  0
   -6.7732    0.3510    0.5791 H   0  0  0  0  0  0  0  0  0  0  0  0
   -6.1433    1.9150    1.0874 H   0  0  0  0  0  0  0  0  0  0  0  0
   -6.9677    1.1076   -1.7354 H   0  0  0  0  0  0  0  0  0  0  0  0
   -7.8292    2.2260   -0.6783 H   0  0  0  0  0  0  0  0  0  0  0  0
   -6.5009    3.4570   -2.1605 H   0  0  0  0  0  0  0  0  0  0  0  0
   -4.7332    1.8614   -2.6489 H   0  0  0  0  0  0  0  0  0  0  0  0
   -4.1583    3.4562   -2.1662 H   0  0  0  0  0  0  0  0  0  0  0  0
   -3.8224    2.6886    0.1416 H   0  0  0  0  0  0  0  0  0  0  0  0
   -2.9705    1.6276   -0.9777 H   0  0  0  0  0  0  0  0  0  0  0  0
   -3.3953   -4.1066   -1.4882 H   0  0  0  0  0  0  0  0  0  0  0  0
    1.4435   -0.3944   -0.8797 H   0  0  0  0  0  0  0  0  0  0  0  0
    3.7717   -0.0610   -1.5947 H   0  0  0  0  0  0  0  0  0  0  0  0
    7.6168    2.0393   -0.7881 H   0  0  0  0  0  0  0  0  0  0  0  0
    7.9766    0.3849   -0.2799 H   0  0  0  0  0  0  0  0  0  0  0  0
    7.9346    1.3715   -3.1838 H   0  0  0  0  0  0  0  0  0  0  0  0
    9.3689    1.0459   -2.2136 H   0  0  0  0  0  0  0  0  0  0  0  0
    8.3043   -0.2823   -2.6701 H   0  0  0  0  0  0  0  0  0  0  0  0
    6.6326    1.4973    1.2122 H   0  0  0  0  0  0  0  0  0  0  0  0
    4.9230    1.6071    2.9228 H   0  0  0  0  0  0  0  0  0  0  0  0
    2.5672    1.2634    3.6517 H   0  0  0  0  0  0  0  0  0  0  0  0
    0.2862    0.5112    3.1492 H   0  0  0  0  0  0  0  0  0  0  0  0
 27 26  2  0
 27 28  1  0
 29 28  2  0
 29 30  1  0
 26 22  1  0
 28 20  1  0
 30 18  2  0
 22 23  1  0
 22 21  2  0
 20 21  1  0
 20 19  2  0
 23 24  1  0
 18 19  1  0
 18  4  1  0
 25 24  1  0
  1  2  1  0
  4  3  1  0
  4  5  2  0
  2  3  2  0
  2 17  1  0
  3 14  1  0
  5  6  1  0
 17 16  2  0
  7  6  1  0
  7  8  1  0
 14  6  1  0
 14 15  2  0
 16 15  1  0
  8  9  1  0
  8 13  1  0
  9 10  1  0
 13 12  1  0
 10 11  1  0
 11 12  1  0
  1 31  1  0
  1 32  1  0
  7 33  1  0
  7 34  1  0
  8 35  1  6
  9 36  1  0
  9 37  1  0
 10 38  1  0
 10 39  1  0
 11 40  1  0
 12 41  1  0
 12 42  1  0
 13 43  1  0
 13 44  1  0
 16 45  1  0
 19 46  1  0
 21 47  1  0
 24 48  1  0
 24 49  1  0
 25 50  1  0
 25 51  1  0
 25 52  1  0
 26 53  1  0
 27 54  1  0
 29 55  1  0
 30 56  1  0
M  END
