
     RDKit          3D

 67 69  0  0  0  0  0  0  0  0999 V2000
    4.7392   -7.2545   -6.3841 C   0  0  0  0  0  0  0  0  0  0  0  0
    5.1147   -6.8163   -4.7010 S   0  0  1  0  0  0  0  0  0  0  0  0
    5.3495   -8.0445   -3.9563 O   0  0  0  0  0  0  0  0  0  0  0  0
    6.1395   -5.7842   -4.7202 O   0  0  0  0  0  0  0  0  0  0  0  0
    3.7653   -6.1165   -4.0687 N   0  0  0  0  0  0  0  0  0  0  0  0
    2.5594   -6.9171   -3.8878 C   0  0  0  0  0  0  0  0  0  0  0  0
    1.5355   -6.1722   -3.0405 C   0  0  0  0  0  0  0  0  0  0  0  0
    1.1357   -4.8789   -3.5814 N   0  0  0  0  0  0  0  0  0  0  0  0
   -0.1004   -4.8307   -4.3815 C   0  0  2  0  0  0  0  0  0  0  0  0
   -1.3305   -4.8893   -3.4817 C   0  0  0  0  0  0  0  0  0  0  0  0
   -0.1302   -5.9006   -5.4635 C   0  0  0  0  0  0  0  0  0  0  0  0
    1.6903   -3.7673   -3.0321 C   0  0  0  0  0  0  0  0  0  0  0  0
    2.5693   -3.8172   -2.1878 O   0  0  0  0  0  0  0  0  0  0  0  0
    1.2484   -2.3915   -3.5570 C   0  0  2  0  0  0  0  0  0  0  0  0
    1.9597   -2.0873   -4.8734 C   0  0  0  0  0  0  0  0  0  0  0  0
    1.5297   -1.4005   -2.5500 N   0  0  0  0  0  0  0  0  0  0  0  0
    0.7300   -1.2697   -1.4798 C   0  0  0  0  0  0  0  0  0  0  0  0
   -0.2646   -1.9277   -1.2383 O   0  0  0  0  0  0  0  0  0  0  0  0
    1.2946   -0.1363   -0.6289 C   0  0  2  0  0  0  0  0  0  0  0  0
    2.7642   -0.1188   -1.0336 C   0  0  0  0  0  0  0  0  0  0  0  0
    2.7342   -0.5874   -2.4880 C   0  0  0  0  0  0  0  0  0  0  0  0
    1.0861   -0.3007    0.7903 N   0  0  0  0  0  0  0  0  0  0  0  0
   -0.1513    0.4499    1.5697 S   0  0  2  0  0  0  0  0  0  0  0  0
   -0.1368    1.8396    1.1437 O   0  0  0  0  0  0  0  0  0  0  0  0
    0.0107    0.1108    2.9730 O   0  0  0  0  0  0  0  0  0  0  0  0
   -1.6600   -0.2781    1.0034 C   0  0  0  0  0  0  0  0  0  0  0  0
   -2.0110   -1.5580    1.4826 C   0  0  0  0  0  0  0  0  0  0  0  0
   -3.1419   -2.1594    1.0177 C   0  0  0  0  0  0  0  0  0  0  0  0
   -3.9642   -1.5158    0.0618 C   0  0  0  0  0  0  0  0  0  0  0  0
   -5.1353   -2.1283   -0.4345 C   0  0  0  0  0  0  0  0  0  0  0  0
   -3.6033   -0.2267   -0.4027 C   0  0  0  0  0  0  0  0  0  0  0  0
   -2.4292    0.3832    0.0901 C   0  0  0  0  0  0  0  0  0  0  0  0
   -4.4290    0.4186   -1.3507 C   0  0  0  0  0  0  0  0  0  0  0  0
   -5.5592   -0.1862   -1.8241 C   0  0  0  0  0  0  0  0  0  0  0  0
   -5.9017   -1.4694   -1.3541 C   0  0  0  0  0  0  0  0  0  0  0  0
   -7.3360   -2.2163   -1.9696 Cl  0  0  0  0  0  0  0  0  0  0  0  0
    5.6282   -7.7078   -6.8197 H   0  0  0  0  0  0  0  0  0  0  0  0
    3.9188   -7.9684   -6.4073 H   0  0  0  0  0  0  0  0  0  0  0  0
    4.4746   -6.3557   -6.9367 H   0  0  0  0  0  0  0  0  0  0  0  0
    3.5978   -5.2038   -4.4782 H   0  0  0  0  0  0  0  0  0  0  0  0
    2.1185   -7.2102   -4.8438 H   0  0  0  0  0  0  0  0  0  0  0  0
    2.8238   -7.8308   -3.3573 H   0  0  0  0  0  0  0  0  0  0  0  0
    0.6554   -6.8093   -2.9504 H   0  0  0  0  0  0  0  0  0  0  0  0
    1.9294   -6.0351   -2.0359 H   0  0  0  0  0  0  0  0  0  0  0  0
   -0.1114   -3.8804   -4.9117 H   0  0  0  0  0  0  0  0  0  0  0  0
   -2.2395   -4.8027   -4.0774 H   0  0  0  0  0  0  0  0  0  0  0  0
   -1.3831   -5.8338   -2.9375 H   0  0  0  0  0  0  0  0  0  0  0  0
   -1.3207   -4.0769   -2.7540 H   0  0  0  0  0  0  0  0  0  0  0  0
    0.7421   -5.8344   -6.1139 H   0  0  0  0  0  0  0  0  0  0  0  0
   -1.0150   -5.7515   -6.0819 H   0  0  0  0  0  0  0  0  0  0  0  0
   -0.1875   -6.9120   -5.0597 H   0  0  0  0  0  0  0  0  0  0  0  0
    0.1721   -2.3629   -3.7288 H   0  0  0  0  0  0  0  0  0  0  0  0
    1.6743   -2.8109   -5.6363 H   0  0  0  0  0  0  0  0  0  0  0  0
    1.6861   -1.0977   -5.2377 H   0  0  0  0  0  0  0  0  0  0  0  0
    3.0432   -2.1299   -4.7677 H   0  0  0  0  0  0  0  0  0  0  0  0
    2.6726    0.2550   -3.1816 H   0  0  0  0  0  0  0  0  0  0  0  0
    3.6187   -1.1685   -2.7435 H   0  0  0  0  0  0  0  0  0  0  0  0
    0.8150    0.7938   -0.9492 H   0  0  0  0  0  0  0  0  0  0  0  0
    3.3172   -0.8365   -0.4242 H   0  0  0  0  0  0  0  0  0  0  0  0
    3.2262    0.8584   -0.9147 H   0  0  0  0  0  0  0  0  0  0  0  0
    1.2976   -1.2193    1.1645 H   0  0  0  0  0  0  0  0  0  0  0  0
   -1.3916   -2.0623    2.2122 H   0  0  0  0  0  0  0  0  0  0  0  0
   -2.1603    1.3678   -0.2695 H   0  0  0  0  0  0  0  0  0  0  0  0
   -3.4199   -3.1413    1.3790 H   0  0  0  0  0  0  0  0  0  0  0  0
   -5.4114   -3.1138   -0.0830 H   0  0  0  0  0  0  0  0  0  0  0  0
   -4.1583    1.4048   -1.7060 H   0  0  0  0  0  0  0  0  0  0  0  0
   -6.1869    0.3102   -2.5511 H   0  0  0  0  0  0  0  0  0  0  0  0
  1 37  1  0
  1 38  1  0
  1 39  1  0
  1  2  1  0
  2  3  2  0
  2  4  2  0
  2  5  1  1
  5 40  1  0
  5  6  1  0
  6 41  1  0
  6 42  1  0
  6  7  1  0
  7 43  1  0
  7 44  1  0
  7  8  1  0
  8  9  1  0
  8 12  1  0
  9 45  1  6
  9 10  1  0
  9 11  1  0
 10 46  1  0
 10 47  1  0
 10 48  1  0
 11 49  1  0
 11 50  1  0
 11 51  1  0
 12 13  2  0
 12 14  1  0
 14 15  1  0
 14 16  1  0
 14 52  1  6
 15 53  1  0
 15 54  1  0
 15 55  1  0
 16 17  1  0
 16 21  1  0
 17 18  2  0
 17 19  1  0
 19 20  1  0
 19 22  1  0
 19 58  1  6
 20 21  1  0
 20 59  1  0
 20 60  1  0
 21 56  1  0
 21 57  1  0
 23 22  1  6
 22 61  1  0
 23 24  2  0
 23 25  2  0
 23 26  1  0
 26 27  2  0
 26 32  1  0
 27 28  1  0
 27 62  1  0
 28 29  2  0
 28 64  1  0
 29 30  1  0
 29 31  1  0
 30 35  2  0
 30 65  1  0
 31 32  2  0
 31 33  1  0
 32 63  1  0
 33 34  2  0
 33 66  1  0
 34 35  1  0
 34 67  1  0
 35 36  1  0
M  END
