
     RDKit          3D

 49 49  0  0  0  0  0  0  0  0999 V2000
   -7.8758    0.5887   -0.0312 C   0  0  0  0  0  0  0  0  0  0  0  0
   -8.0797    0.2777    1.1163 O   0  0  0  0  0  0  0  0  0  0  0  0
   -6.5334    0.5937   -0.7068 C   0  0  0  0  0  0  0  0  0  0  0  0
   -8.8460    0.9715   -0.8579 O   0  0  0  0  0  0  0  0  0  0  0  0
   -5.3794    0.2125    0.2056 C   0  0  0  0  0  0  0  0  0  0  0  0
    5.0620   -2.3589   -1.1350 O   0  0  0  0  0  0  0  0  0  0  0  0
   -4.0454    0.2445   -0.5299 C   0  0  0  0  0  0  0  0  0  0  0  0
   -2.8693   -0.1564    0.3515 C   0  0  0  0  0  0  0  0  0  0  0  0
   -1.5333   -0.0969   -0.3779 C   0  0  0  0  0  0  0  0  0  0  0  0
   -0.3608   -0.5754    0.4703 C   0  0  0  0  0  0  0  0  0  0  0  0
    0.9716   -0.4427   -0.2560 C   0  0  0  0  0  0  0  0  0  0  0  0
    2.1733   -0.9824    0.5269 C   0  0  1  0  0  0  0  0  0  0  0  0
    2.1326   -2.4720    0.6908 C   0  0  0  0  0  0  0  0  0  0  0  0
    3.1661   -3.0993    0.1243 C   0  0  0  0  0  0  0  0  0  0  0  0
    4.0608   -2.1156   -0.4939 C   0  0  0  0  0  0  0  0  0  0  0  0
    3.5150   -0.7293   -0.1842 C   0  0  2  0  0  0  0  0  0  0  0  0
    4.4837    0.0956    0.6837 C   0  0  0  0  0  0  0  0  0  0  0  0
    5.7629    0.4736    0.0022 C   0  0  0  0  0  0  0  0  0  0  0  0
    6.0781    1.6786   -0.4720 C   0  0  0  0  0  0  0  0  0  0  0  0
    5.2546    2.9275   -0.4288 C   0  0  0  0  0  0  0  0  0  0  0  0
    5.9119    4.0066    0.4313 C   0  0  0  0  0  0  0  0  0  0  0  0
   -6.5856   -0.0878   -1.5625 H   0  0  0  0  0  0  0  0  0  0  0  0
   -6.3707    1.5870   -1.1368 H   0  0  0  0  0  0  0  0  0  0  0  0
   -5.3415    0.8946    1.0592 H   0  0  0  0  0  0  0  0  0  0  0  0
   -5.5456   -0.7876    0.6148 H   0  0  0  0  0  0  0  0  0  0  0  0
   -4.0896   -0.4252   -1.3955 H   0  0  0  0  0  0  0  0  0  0  0  0
   -3.8734    1.2492   -0.9312 H   0  0  0  0  0  0  0  0  0  0  0  0
   -2.8334    0.4958    1.2308 H   0  0  0  0  0  0  0  0  0  0  0  0
   -3.0334   -1.1708    0.7310 H   0  0  0  0  0  0  0  0  0  0  0  0
   -1.5872   -0.7080   -1.2853 H   0  0  0  0  0  0  0  0  0  0  0  0
   -1.3470    0.9294   -0.7128 H   0  0  0  0  0  0  0  0  0  0  0  0
   -0.3221   -0.0011    1.4020 H   0  0  0  0  0  0  0  0  0  0  0  0
   -0.5373   -1.6162    0.7591 H   0  0  0  0  0  0  0  0  0  0  0  0
    0.9222   -0.9497   -1.2255 H   0  0  0  0  0  0  0  0  0  0  0  0
    1.1539    0.6147   -0.4724 H   0  0  0  0  0  0  0  0  0  0  0  0
    2.1668   -0.5140    1.5182 H   0  0  0  0  0  0  0  0  0  0  0  0
    1.3265   -2.9710    1.2140 H   0  0  0  0  0  0  0  0  0  0  0  0
    3.3397   -4.1665    0.1022 H   0  0  0  0  0  0  0  0  0  0  0  0
    3.3598   -0.1965   -1.1283 H   0  0  0  0  0  0  0  0  0  0  0  0
    3.9467    0.9880    1.0109 H   0  0  0  0  0  0  0  0  0  0  0  0
    4.7086   -0.4713    1.5932 H   0  0  0  0  0  0  0  0  0  0  0  0
    6.4988   -0.3148   -0.1066 H   0  0  0  0  0  0  0  0  0  0  0  0
    7.0579    1.7945   -0.9298 H   0  0  0  0  0  0  0  0  0  0  0  0
    5.1372    3.3103   -1.4473 H   0  0  0  0  0  0  0  0  0  0  0  0
    4.2461    2.7284   -0.0627 H   0  0  0  0  0  0  0  0  0  0  0  0
    6.0080    3.6760    1.4661 H   0  0  0  0  0  0  0  0  0  0  0  0
    6.9114    4.2463    0.0653 H   0  0  0  0  0  0  0  0  0  0  0  0
    5.3258    4.9263    0.4262 H   0  0  0  0  0  0  0  0  0  0  0  0
   -9.6979    0.9543   -0.3969 H   0  0  0  0  0  0  0  0  0  0  0  0
  2  1  2  0
  3  1  1  0
  1  4  1  0
 22  3  1  0
  3  5  1  0
  3 23  1  0
  4 49  1  0
 24  5  1  0
  5  7  1  0
  5 25  1  0
 15  6  2  0
 27  7  1  0
 26  7  1  0
  7  8  1  0
  8 28  1  0
  8 29  1  0
  8  9  1  0
 31  9  1  0
 30  9  1  0
  9 10  1  0
 10 33  1  0
 10 32  1  0
 10 11  1  0
 34 11  1  0
 35 11  1  0
 11 12  1  0
 12 36  1  1
 12 16  1  0
 12 13  1  0
 13 37  1  0
 13 14  2  0
 15 14  1  0
 14 38  1  0
 16 15  1  0
 16 39  1  6
 16 17  1  0
 41 17  1  0
 18 17  1  0
 17 40  1  0
 42 18  1  0
 18 19  2  0
 43 19  1  0
 19 20  1  0
 44 20  1  0
 20 45  1  0
 20 21  1  0
 48 21  1  0
 21 47  1  0
 21 46  1  0
M  END
