
     RDKit          3D

 46 47  0  0  0  0  0  0  0  0999 V2000
   -5.1374    0.9697   -0.1159 C   0  0  0  0  0  0  0  0  0  0  0  0
   -6.4034    0.7962    0.4276 C   0  0  0  0  0  0  0  0  0  0  0  0
   -6.9513   -0.4766    0.5228 C   0  0  0  0  0  0  0  0  0  0  0  0
   -6.2238   -1.5692    0.0692 C   0  0  0  0  0  0  0  0  0  0  0  0
   -4.9565   -1.3893   -0.4696 C   0  0  0  0  0  0  0  0  0  0  0  0
   -4.3954   -0.1185   -0.5715 C   0  0  0  0  0  0  0  0  0  0  0  0
   -3.0146    0.0824   -1.1250 C   0  0  0  0  0  0  0  0  0  0  0  0
   -1.9486    0.0939   -0.0235 C   0  0  1  0  0  0  0  0  0  0  0  0
   -1.9849   -1.0984    0.7274 O   0  0  0  0  0  0  0  0  0  0  0  0
   -0.5449    0.3734   -0.5872 C   0  0  1  0  0  0  0  0  0  0  0  0
   -0.5722    1.6163   -1.3465 N   0  0  0  0  0  0  0  0  0  0  0  0
    0.5315    0.3177    0.5140 C   0  0  2  0  0  0  0  0  0  0  0  0
    0.3889    1.3719    1.4456 O   0  0  0  0  0  0  0  0  0  0  0  0
    1.9597    0.2458   -0.0500 C   0  0  2  0  0  0  0  0  0  0  0  0
    2.9423   -0.2266    1.0379 C   0  0  0  0  0  0  0  0  0  0  0  0
    4.3439   -0.3666    0.5187 C   0  0  0  0  0  0  0  0  0  0  0  0
    4.7115   -1.4835   -0.2317 C   0  0  0  0  0  0  0  0  0  0  0  0
    5.9919   -1.6046   -0.7526 C   0  0  0  0  0  0  0  0  0  0  0  0
    6.9320   -0.6049   -0.5318 C   0  0  0  0  0  0  0  0  0  0  0  0
    6.5797    0.5122    0.2130 C   0  0  0  0  0  0  0  0  0  0  0  0
    5.2953    0.6289    0.7303 C   0  0  0  0  0  0  0  0  0  0  0  0
    2.3398    1.5039   -0.6791 N   0  0  0  0  0  0  0  0  0  0  0  0
   -4.7215    1.9680   -0.1944 H   0  0  0  0  0  0  0  0  0  0  0  0
   -6.9637    1.6566    0.7713 H   0  0  0  0  0  0  0  0  0  0  0  0
   -7.9390   -0.6165    0.9429 H   0  0  0  0  0  0  0  0  0  0  0  0
   -6.6431   -2.5651    0.1364 H   0  0  0  0  0  0  0  0  0  0  0  0
   -4.4026   -2.2490   -0.8278 H   0  0  0  0  0  0  0  0  0  0  0  0
   -2.7776   -0.7108   -1.8427 H   0  0  0  0  0  0  0  0  0  0  0  0
   -2.9658    1.0216   -1.6769 H   0  0  0  0  0  0  0  0  0  0  0  0
   -2.1937    0.8901    0.6895 H   0  0  0  0  0  0  0  0  0  0  0  0
   -1.8222   -1.8393    0.1329 H   0  0  0  0  0  0  0  0  0  0  0  0
   -0.3123   -0.4386   -1.2908 H   0  0  0  0  0  0  0  0  0  0  0  0
   -0.9975    2.3617   -0.8068 H   0  0  0  0  0  0  0  0  0  0  0  0
    0.3839    1.9008   -1.5408 H   0  0  0  0  0  0  0  0  0  0  0  0
    0.3780   -0.6028    1.0835 H   0  0  0  0  0  0  0  0  0  0  0  0
    0.3440    2.2019    0.9579 H   0  0  0  0  0  0  0  0  0  0  0  0
    1.9486   -0.5154   -0.8382 H   0  0  0  0  0  0  0  0  0  0  0  0
    2.9227    0.4817    1.8712 H   0  0  0  0  0  0  0  0  0  0  0  0
    2.5962   -1.1877    1.4290 H   0  0  0  0  0  0  0  0  0  0  0  0
    3.9858   -2.2700   -0.4066 H   0  0  0  0  0  0  0  0  0  0  0  0
    6.2585   -2.4815   -1.3290 H   0  0  0  0  0  0  0  0  0  0  0  0
    7.9322   -0.6980   -0.9349 H   0  0  0  0  0  0  0  0  0  0  0  0
    7.3064    1.2939    0.3949 H   0  0  0  0  0  0  0  0  0  0  0  0
    5.0310    1.5020    1.3160 H   0  0  0  0  0  0  0  0  0  0  0  0
    2.5354    2.2033    0.0287 H   0  0  0  0  0  0  0  0  0  0  0  0
    3.2037    1.3858   -1.1933 H   0  0  0  0  0  0  0  0  0  0  0  0
  3  2  1  0
  3  4  2  0
  2  1  2  0
  4  5  1  0
  1  6  1  0
  5  6  2  0
  6  7  1  0
  9  8  1  0
  7  8  1  0
  8 10  1  0
 10 11  1  0
 10 12  1  0
 12 14  1  0
 12 13  1  0
 14 15  1  0
 14 22  1  0
 17 18  2  0
 17 16  1  0
 15 16  1  0
 18 19  1  0
 16 21  2  0
 19 20  2  0
 21 20  1  0
  1 23  1  0
  2 24  1  0
  3 25  1  0
  4 26  1  0
  5 27  1  0
  7 28  1  0
  7 29  1  0
  8 30  1  1
  9 31  1  0
 10 32  1  6
 11 33  1  0
 11 34  1  0
 12 35  1  1
 13 36  1  0
 14 37  1  6
 15 38  1  0
 15 39  1  0
 17 40  1  0
 18 41  1  0
 19 42  1  0
 20 43  1  0
 21 44  1  0
 22 45  1  0
 22 46  1  0
M  END
