
     RDKit          3D

 24 23  0  0  0  0  0  0  0  0999 V2000
    0.7962    0.9644   -1.6514 O   0  0  0  0  0  0  0  0  0  0  0  0
    0.0968   -0.0020   -1.3980 C   0  0  0  0  0  0  0  0  0  0  0  0
   -0.5922   -0.8070   -2.4777 C   0  0  0  0  0  0  0  0  0  0  0  0
   -0.0059   -0.2177   -4.0892 S   0  0  0  0  0  0  0  0  0  0  0  0
   -0.1415   -0.4204   -0.1447 N   0  0  0  0  0  0  0  0  0  0  0  0
    0.4740    0.2273    0.9811 C   0  0  2  0  0  0  0  0  0  0  0  0
    1.9809   -0.0401    1.0282 C   0  0  0  0  0  0  0  0  0  0  0  0
    2.4604   -1.0042    0.4852 O   0  0  0  0  0  0  0  0  0  0  0  0
    2.7946    0.9767    1.7714 C   0  0  0  0  0  0  0  0  0  0  0  0
   -0.1581   -0.2645    2.2775 C   0  0  0  0  0  0  0  0  0  0  0  0
   -1.5891    0.1870    2.4367 C   0  0  0  0  0  0  0  0  0  0  0  0
   -2.1052    1.0745    1.8084 O   0  0  0  0  0  0  0  0  0  0  0  0
   -2.2060   -0.4983    3.3889 O   0  0  0  0  0  0  0  0  0  0  0  0
   -0.3748   -1.8685   -2.3544 H   0  0  0  0  0  0  0  0  0  0  0  0
   -1.6729   -0.6806   -2.3900 H   0  0  0  0  0  0  0  0  0  0  0  0
   -0.6743   -1.1233   -4.8120 H   0  0  0  0  0  0  0  0  0  0  0  0
   -0.6443   -1.2820    0.0001 H   0  0  0  0  0  0  0  0  0  0  0  0
    0.3268    1.3086    0.9067 H   0  0  0  0  0  0  0  0  0  0  0  0
    3.7857    0.5988    2.0111 H   0  0  0  0  0  0  0  0  0  0  0  0
    2.8991    1.8594    1.1355 H   0  0  0  0  0  0  0  0  0  0  0  0
    2.3009    1.3112    2.6837 H   0  0  0  0  0  0  0  0  0  0  0  0
   -0.0948   -1.3529    2.3543 H   0  0  0  0  0  0  0  0  0  0  0  0
    0.3939    0.1254    3.1377 H   0  0  0  0  0  0  0  0  0  0  0  0
   -3.1103   -0.1694    3.5059 H   0  0  0  0  0  0  0  0  0  0  0  0
  1  2  2  0
  2  3  1  0
  2  5  1  0
  3  4  1  0
  3 14  1  0
  3 15  1  0
  4 16  1  0
  5  6  1  0
  5 17  1  0
  6  7  1  0
  6 10  1  0
  6 18  1  6
  7  8  2  0
  7  9  1  0
  9 19  1  0
  9 20  1  0
  9 21  1  0
 10 11  1  0
 10 22  1  0
 10 23  1  0
 11 12  2  0
 11 13  1  0
 13 24  1  0
M  END
