
     RDKit          3D

 46 49  0  0  0  0  0  0  0  0999 V2000
   -3.8142   -0.5627   -1.5754 C   0  0  0  0  0  0  0  0  0  0  0  0
   -3.2943   -0.7461   -0.3015 C   0  0  0  0  0  0  0  0  0  0  0  0
   -5.6678    1.4377    1.4497 O   0  0  0  0  0  0  0  0  0  0  0  0
   -2.1783   -1.7238   -0.1247 C   0  0  0  0  0  0  0  0  0  0  0  0
   -0.0559   -2.2712    0.9353 C   0  0  0  0  0  0  0  0  0  0  0  0
    1.2006   -1.9653    0.1358 C   0  0  0  0  0  0  0  0  0  0  0  0
   -4.8925    0.2959   -1.8092 C   0  0  0  0  0  0  0  0  0  0  0  0
   -3.8634   -0.0971    0.8083 C   0  0  0  0  0  0  0  0  0  0  0  0
   -4.9304    0.7268    0.5643 C   0  0  0  0  0  0  0  0  0  0  0  0
   -5.4305    0.9264   -0.7147 C   0  0  0  0  0  0  0  0  0  0  0  0
   -6.5364    2.2570    0.6782 C   0  0  0  0  0  0  0  0  0  0  0  0
   -6.4823    1.7720   -0.6586 O   0  0  0  0  0  0  0  0  0  0  0  0
   -2.2621   -2.8379   -0.6241 O   0  0  0  0  0  0  0  0  0  0  0  0
   -1.1229   -1.3391    0.6301 N   0  0  0  0  0  0  0  0  0  0  0  0
    1.6042   -0.5864    0.3385 N   0  0  0  0  0  0  0  0  0  0  0  0
    0.5334    0.3625    0.0741 C   0  0  0  0  0  0  0  0  0  0  0  0
   -0.7188    0.0336    0.8703 C   0  0  0  0  0  0  0  0  0  0  0  0
    2.9119   -0.2175    0.1149 C   0  0  0  0  0  0  0  0  0  0  0  0
    3.3543    1.0924    0.3938 C   0  0  0  0  0  0  0  0  0  0  0  0
    4.6690    1.4545    0.2134 C   0  0  0  0  0  0  0  0  0  0  0  0
    5.6240    0.5456   -0.2560 C   0  0  0  0  0  0  0  0  0  0  0  0
    5.1895   -0.7486   -0.5384 C   0  0  0  0  0  0  0  0  0  0  0  0
    3.8710   -1.1259   -0.3662 C   0  0  0  0  0  0  0  0  0  0  0  0
    7.0259    0.9728   -0.4311 C   0  0  0  0  0  0  0  0  0  0  0  0
    8.0230   -0.0410   -0.9293 C   0  0  0  0  0  0  0  0  0  0  0  0
    7.3696    2.1138   -0.1786 O   0  0  0  0  0  0  0  0  0  0  0  0
   -3.3703   -1.0826   -2.4138 H   0  0  0  0  0  0  0  0  0  0  0  0
    0.1685   -2.1929    2.0028 H   0  0  0  0  0  0  0  0  0  0  0  0
    1.9819   -2.6351    0.4915 H   0  0  0  0  0  0  0  0  0  0  0  0
    1.0310   -2.1827   -0.9278 H   0  0  0  0  0  0  0  0  0  0  0  0
   -5.2850    0.4463   -2.8053 H   0  0  0  0  0  0  0  0  0  0  0  0
   -3.4874   -0.2486    1.8120 H   0  0  0  0  0  0  0  0  0  0  0  0
   -7.5547    2.1774    1.0581 H   0  0  0  0  0  0  0  0  0  0  0  0
   -6.1938    3.2962    0.7092 H   0  0  0  0  0  0  0  0  0  0  0  0
    0.8374    1.3708    0.3402 H   0  0  0  0  0  0  0  0  0  0  0  0
    0.2882    0.3678   -0.9969 H   0  0  0  0  0  0  0  0  0  0  0  0
   -1.5006    0.7297    0.5800 H   0  0  0  0  0  0  0  0  0  0  0  0
   -0.5283    0.1700    1.9381 H   0  0  0  0  0  0  0  0  0  0  0  0
    2.6710    1.8332    0.7843 H   0  0  0  0  0  0  0  0  0  0  0  0
    4.9648    2.4669    0.4556 H   0  0  0  0  0  0  0  0  0  0  0  0
    5.8796   -1.4914   -0.9178 H   0  0  0  0  0  0  0  0  0  0  0  0
    3.5958   -2.1357   -0.6328 H   0  0  0  0  0  0  0  0  0  0  0  0
    8.0789   -0.8988   -0.2576 H   0  0  0  0  0  0  0  0  0  0  0  0
    7.7348   -0.4218   -1.9104 H   0  0  0  0  0  0  0  0  0  0  0  0
    9.0107    0.4075   -1.0068 H   0  0  0  0  0  0  0  0  0  0  0  0
   -0.3786   -3.2888    0.7339 H   0  0  0  0  0  0  0  0  0  0  0  0
 12 11  1  0
 12 10  1  0
 11  3  1  0
 10  7  1  0
 10  9  2  0
  3  9  1  0
  7  1  2  0
  9  8  1  0
  1  2  1  0
  8  2  2  0
  2  4  1  0
  4 13  2  0
  4 14  1  0
 17 14  1  0
 17 16  1  0
 14  5  1  0
 16 15  1  0
  5  6  1  0
 15  6  1  0
 15 18  1  0
 23 18  1  0
 23 22  2  0
 18 19  2  0
 22 21  1  0
 19 20  1  0
 21 20  2  0
 21 24  1  0
 25 24  1  0
 24 26  2  0
  1 27  1  0
  5 46  1  0
  5 28  1  0
  6 29  1  0
  6 30  1  0
  7 31  1  0
  8 32  1  0
 11 33  1  0
 11 34  1  0
 16 35  1  0
 16 36  1  0
 17 37  1  0
 17 38  1  0
 19 39  1  0
 20 40  1  0
 22 41  1  0
 23 42  1  0
 25 43  1  0
 25 44  1  0
 25 45  1  0
M  END
