
     RDKit          3D

 57 62  0  0  0  0  0  0  0  0999 V2000
    4.6135    0.1787    5.2965 N   0  0  0  0  0  0  0  0  0  0  0  0
    4.1121   -0.4018    4.2738 C   0  0  0  0  0  0  0  0  0  0  0  0
    4.8060   -1.3808    3.6266 N   0  0  0  0  0  0  0  0  0  0  0  0
    2.7557   -0.1260    3.7234 C   0  0  0  0  0  0  0  0  0  0  0  0
    2.2289    1.1626    3.7823 C   0  0  0  0  0  0  0  0  0  0  0  0
    0.9630    1.4270    3.2888 C   0  0  0  0  0  0  0  0  0  0  0  0
    0.1891    0.4159    2.7293 C   0  0  0  0  0  0  0  0  0  0  0  0
    0.7101   -0.8720    2.6773 C   0  0  0  0  0  0  0  0  0  0  0  0
    1.9809   -1.1392    3.1629 C   0  0  0  0  0  0  0  0  0  0  0  0
   -1.1661    0.7411    2.1598 C   0  0  2  0  0  0  0  0  0  0  0  0
   -2.0757   -0.3997    2.2137 N   0  0  0  0  0  0  0  0  0  0  0  0
   -2.7873   -0.5134    3.4744 C   0  0  0  0  0  0  0  0  0  0  0  0
   -3.9789    0.4796    3.4085 C   0  0  1  0  0  0  0  0  0  0  0  0
   -4.1330    0.7733    1.9065 C   0  0  0  0  0  0  0  0  0  0  0  0
   -3.1193   -0.1601    1.2242 C   0  0  1  0  0  0  0  0  0  0  0  0
   -2.3575    0.4232    0.0481 C   0  0  2  0  0  0  0  0  0  0  0  0
   -1.7294   -0.6568   -0.8054 C   0  0  0  0  0  0  0  0  0  0  0  0
   -0.3713   -0.4434   -0.8546 N   0  0  0  0  0  0  0  0  0  0  0  0
    0.0297    0.6466   -0.1114 C   0  0  0  0  0  0  0  0  0  0  0  0
    1.1535    1.0798   -0.0947 O   0  0  0  0  0  0  0  0  0  0  0  0
   -1.1625    1.1587    0.6577 C   0  0  2  0  0  0  0  0  0  0  0  0
    0.5497   -1.2402   -1.6494 C   0  0  0  0  0  0  0  0  0  0  0  0
    0.7933   -0.6524   -3.0144 C   0  0  0  0  0  0  0  0  0  0  0  0
    1.9386    0.0895   -3.2643 C   0  0  0  0  0  0  0  0  0  0  0  0
    2.1911    0.6619   -4.5176 C   0  0  0  0  0  0  0  0  0  0  0  0
    1.2468    0.4599   -5.4918 C   0  0  0  0  0  0  0  0  0  0  0  0
    1.2506    0.8741   -6.7814 O   0  0  0  0  0  0  0  0  0  0  0  0
   -0.0334    0.5536   -7.3021 C   0  0  0  0  0  0  0  0  0  0  0  0
   -5.1728   -0.0582    3.9309 O   0  0  0  0  0  0  0  0  0  0  0  0
   -0.6358   -0.3515   -6.3868 O   0  0  0  0  0  0  0  0  0  0  0  0
    0.0995   -0.2823   -5.2504 C   0  0  0  0  0  0  0  0  0  0  0  0
   -0.1566   -0.8530   -4.0308 C   0  0  0  0  0  0  0  0  0  0  0  0
   -2.3018   -1.5590   -1.3671 O   0  0  0  0  0  0  0  0  0  0  0  0
    3.9381    0.8012    5.7240 H   0  0  0  0  0  0  0  0  0  0  0  0
    5.7710   -1.4925    3.8946 H   0  0  0  0  0  0  0  0  0  0  0  0
    4.6323   -1.5195    2.6452 H   0  0  0  0  0  0  0  0  0  0  0  0
    2.8144    1.9720    4.2012 H   0  0  0  0  0  0  0  0  0  0  0  0
    0.5736    2.4373    3.3363 H   0  0  0  0  0  0  0  0  0  0  0  0
    0.1158   -1.6747    2.2609 H   0  0  0  0  0  0  0  0  0  0  0  0
    2.3578   -2.1533    3.1217 H   0  0  0  0  0  0  0  0  0  0  0  0
   -1.5571    1.6067    2.7148 H   0  0  0  0  0  0  0  0  0  0  0  0
   -2.1194   -0.3398    4.3195 H   0  0  0  0  0  0  0  0  0  0  0  0
   -3.1837   -1.5283    3.5717 H   0  0  0  0  0  0  0  0  0  0  0  0
   -3.7195    1.4029    3.9387 H   0  0  0  0  0  0  0  0  0  0  0  0
   -3.9080    1.8208    1.6952 H   0  0  0  0  0  0  0  0  0  0  0  0
   -5.1522    0.5899    1.5648 H   0  0  0  0  0  0  0  0  0  0  0  0
   -3.6048   -1.1036    0.9613 H   0  0  0  0  0  0  0  0  0  0  0  0
   -2.9793    1.0534   -0.5914 H   0  0  0  0  0  0  0  0  0  0  0  0
   -1.2104    2.2429    0.5692 H   0  0  0  0  0  0  0  0  0  0  0  0
    1.4831   -1.3215   -1.0943 H   0  0  0  0  0  0  0  0  0  0  0  0
    0.1311   -2.2430   -1.7265 H   0  0  0  0  0  0  0  0  0  0  0  0
    2.6610    0.2365   -2.4724 H   0  0  0  0  0  0  0  0  0  0  0  0
    3.0907    1.2327   -4.7037 H   0  0  0  0  0  0  0  0  0  0  0  0
   -0.6395    1.4626   -7.3800 H   0  0  0  0  0  0  0  0  0  0  0  0
    0.0719    0.0784   -8.2770 H   0  0  0  0  0  0  0  0  0  0  0  0
   -5.0666   -0.1577    4.8819 H   0  0  0  0  0  0  0  0  0  0  0  0
   -1.0479   -1.4424   -3.8598 H   0  0  0  0  0  0  0  0  0  0  0  0
  1  2  2  0
  1 34  1  0
  2  3  1  0
  2  4  1  0
  3 35  1  0
  3 36  1  0
  4  5  2  0
  4  9  1  0
  5  6  1  0
  5 37  1  0
  6  7  2  0
  6 38  1  0
  7  8  1  0
  7 10  1  0
  8  9  2  0
  8 39  1  0
  9 40  1  0
 10 11  1  0
 10 21  1  0
 10 41  1  1
 11 12  1  0
 11 15  1  0
 12 13  1  0
 12 42  1  0
 12 43  1  0
 13 14  1  0
 13 29  1  0
 13 44  1  1
 14 15  1  0
 14 45  1  0
 14 46  1  0
 15 16  1  0
 15 47  1  6
 16 17  1  0
 16 21  1  0
 16 48  1  6
 17 18  1  0
 17 33  2  0
 18 19  1  0
 18 22  1  0
 19 20  2  0
 19 21  1  0
 21 49  1  1
 22 23  1  0
 22 50  1  0
 22 51  1  0
 23 24  2  0
 23 32  1  0
 24 25  1  0
 24 52  1  0
 25 26  2  0
 25 53  1  0
 26 27  1  0
 26 31  1  0
 27 28  1  0
 28 30  1  0
 28 54  1  0
 28 55  1  0
 29 56  1  0
 30 31  1  0
 31 32  2  0
 32 57  1  0
M  END
