
     RDKit          3D

 31 33  0  0  0  0  0  0  0  0999 V2000
   -1.3774   -2.5801   -0.4029 O   0  0  0  0  0  0  0  0  0  0  0  0
   -0.5337   -1.5562   -0.2193 C   0  0  0  0  0  0  0  0  0  0  0  0
    0.8969   -1.8601   -0.2928 C   0  0  0  0  0  0  0  0  0  0  0  0
    1.2301   -3.0208   -0.5128 O   0  0  0  0  0  0  0  0  0  0  0  0
    1.7780   -0.7287   -0.1041 C   0  0  0  0  0  0  0  0  0  0  0  0
    3.1943   -0.8134   -0.1288 C   0  0  0  0  0  0  0  0  0  0  0  0
    3.7438   -2.0130   -0.3191 O   0  0  0  0  0  0  0  0  0  0  0  0
    3.9705    0.3145    0.0417 C   0  0  0  0  0  0  0  0  0  0  0  0
    3.3685    1.5604    0.2456 C   0  0  0  0  0  0  0  0  0  0  0  0
    4.1857    2.6042    0.4046 O   0  0  0  0  0  0  0  0  0  0  0  0
    1.9889    1.6852    0.2812 C   0  0  0  0  0  0  0  0  0  0  0  0
    1.2237    0.5418    0.1093 C   0  0  0  0  0  0  0  0  0  0  0  0
   -0.1052    0.7215    0.1662 O   0  0  0  0  0  0  0  0  0  0  0  0
   -0.9775   -0.3083    0.0165 C   0  0  0  0  0  0  0  0  0  0  0  0
   -2.3820    0.0943    0.1474 C   0  0  0  0  0  0  0  0  0  0  0  0
   -3.1935   -0.5534    1.0818 C   0  0  0  0  0  0  0  0  0  0  0  0
   -4.5158   -0.1916    1.2595 C   0  0  0  0  0  0  0  0  0  0  0  0
   -5.0443    0.8399    0.4911 C   0  0  0  0  0  0  0  0  0  0  0  0
   -4.2619    1.4919   -0.4445 C   0  0  0  0  0  0  0  0  0  0  0  0
   -2.9296    1.1252   -0.6299 C   0  0  0  0  0  0  0  0  0  0  0  0
   -2.2505    1.7947   -1.5785 O   0  0  0  0  0  0  0  0  0  0  0  0
   -0.8338   -3.3717   -0.5455 H   0  0  0  0  0  0  0  0  0  0  0  0
    4.7062   -1.9415   -0.3078 H   0  0  0  0  0  0  0  0  0  0  0  0
    5.0517    0.2431    0.0215 H   0  0  0  0  0  0  0  0  0  0  0  0
    3.6833    3.4180    0.5297 H   0  0  0  0  0  0  0  0  0  0  0  0
    1.5071    2.6410    0.4468 H   0  0  0  0  0  0  0  0  0  0  0  0
   -2.7658   -1.3428    1.6857 H   0  0  0  0  0  0  0  0  0  0  0  0
   -5.1258   -0.7004    1.9929 H   0  0  0  0  0  0  0  0  0  0  0  0
   -6.0763    1.1394    0.6190 H   0  0  0  0  0  0  0  0  0  0  0  0
   -4.6766    2.2896   -1.0482 H   0  0  0  0  0  0  0  0  0  0  0  0
   -1.3551    1.4625   -1.6987 H   0  0  0  0  0  0  0  0  0  0  0  0
 10  9  1  0
  9 11  2  0
  9  8  1  0
 11 12  1  0
  8  6  2  0
 12 13  1  0
 12  5  2  0
 13 14  1  0
  6  5  1  0
  6  7  1  0
  5  3  1  0
 21 20  1  0
 14 15  1  0
 14  2  2  0
 20 15  1  0
 20 19  2  0
  3  2  1  0
  3  4  2  0
 15 16  2  0
 19 18  1  0
  2  1  1  0
 16 17  1  0
 18 17  2  0
  1 22  1  0
  7 23  1  0
  8 24  1  0
 10 25  1  0
 11 26  1  0
 16 27  1  0
 17 28  1  0
 18 29  1  0
 19 30  1  0
 21 31  1  0
M  END
