
     RDKit          3D

 82 88  0  0  0  0  0  0  0  0999 V2000
    3.2670   -1.3346    1.4594 C   0  0  0  0  0  0  0  0  0  0  0  0
    2.2846   -2.1713    1.9642 C   0  0  0  0  0  0  0  0  0  0  0  0
    2.4770   -3.5476    1.9801 C   0  0  0  0  0  0  0  0  0  0  0  0
    3.6634   -4.0800    1.4952 C   0  0  0  0  0  0  0  0  0  0  0  0
    4.6487   -3.2414    0.9915 C   0  0  0  0  0  0  0  0  0  0  0  0
    4.4598   -1.8608    0.9623 C   0  0  0  0  0  0  0  0  0  0  0  0
    5.5257   -0.9750    0.4477 C   0  0  0  0  0  0  0  0  0  0  0  0
    6.8114   -1.0942    0.9366 C   0  0  0  0  0  0  0  0  0  0  0  0
    7.8092   -0.2194    0.5157 C   0  0  0  0  0  0  0  0  0  0  0  0
    9.1689   -0.3377    1.0394 C   0  0  0  0  0  0  0  0  0  0  0  0
    9.5308   -1.1928    1.8349 O   0  0  0  0  0  0  0  0  0  0  0  0
   10.0360    0.6095    0.5616 N   0  0  0  0  0  0  0  0  0  0  0  0
    9.7090    1.5967   -0.3214 C   0  0  0  0  0  0  0  0  0  0  0  0
    8.4629    1.7231   -0.8166 C   0  0  0  0  0  0  0  0  0  0  0  0
    7.4641    0.7895   -0.3975 C   0  0  0  0  0  0  0  0  0  0  0  0
    6.2249    0.8926   -0.8936 N   0  0  0  0  0  0  0  0  0  0  0  0
    5.2921    0.0405   -0.5125 C   0  0  0  0  0  0  0  0  0  0  0  0
    3.9718    0.2061   -1.1604 C   0  0  0  0  0  0  0  0  0  0  0  0
    3.3817    1.4676   -1.2324 C   0  0  0  0  0  0  0  0  0  0  0  0
    2.1335    1.6270   -1.8100 C   0  0  0  0  0  0  0  0  0  0  0  0
    3.3068   -0.8795   -1.7206 C   0  0  0  0  0  0  0  0  0  0  0  0
    2.0683   -0.7095   -2.3200 C   0  0  0  0  0  0  0  0  0  0  0  0
    1.4589    0.5387   -2.3594 C   0  0  0  0  0  0  0  0  0  0  0  0
    0.0937    0.7145   -2.9655 C   0  0  0  0  0  0  0  0  0  0  0  0
   -0.8736    1.2113   -2.0038 N   0  0  0  0  0  0  0  0  0  0  0  0
   -2.1240    1.5410   -2.6650 C   0  0  0  0  0  0  0  0  0  0  0  0
   -3.1257    2.1510   -1.6968 C   0  0  0  0  0  0  0  0  0  0  0  0
   -1.0822    0.2741   -0.9129 C   0  0  0  0  0  0  0  0  0  0  0  0
   -2.0372    0.8364    0.1292 C   0  0  0  0  0  0  0  0  0  0  0  0
   -3.3606    1.1924   -0.5356 C   0  0  1  0  0  0  0  0  0  0  0  0
   -4.3697    1.6669    0.3971 N   0  0  0  0  0  0  0  0  0  0  0  0
   -5.6028    1.0785    0.5994 C   0  0  0  0  0  0  0  0  0  0  0  0
   -6.1682   -0.0520    0.0400 C   0  0  0  0  0  0  0  0  0  0  0  0
   -4.2622    2.7979    1.1791 C   0  0  0  0  0  0  0  0  0  0  0  0
   -3.3142    3.5625    1.2397 O   0  0  0  0  0  0  0  0  0  0  0  0
   -5.4397    2.8992    1.8790 N   0  0  0  0  0  0  0  0  0  0  0  0
   -5.7494    3.9357    2.8285 C   0  0  0  0  0  0  0  0  0  0  0  0
   -6.2757    1.8577    1.5407 C   0  0  0  0  0  0  0  0  0  0  0  0
   -7.5482    1.5208    1.9545 C   0  0  0  0  0  0  0  0  0  0  0  0
   -8.1300    0.3876    1.4001 C   0  0  0  0  0  0  0  0  0  0  0  0
   -7.4602   -0.3962    0.4538 C   0  0  0  0  0  0  0  0  0  0  0  0
   -8.1538   -1.5103   -0.0347 N   0  0  0  0  0  0  0  0  0  0  0  0
   -7.7723   -2.4399   -0.9474 C   0  0  0  0  0  0  0  0  0  0  0  0
   -6.6776   -2.4566   -1.4834 O   0  0  0  0  0  0  0  0  0  0  0  0
   -8.8521   -3.4547   -1.2633 C   0  0  0  0  0  0  0  0  0  0  0  0
   -8.3220   -4.7037   -1.9447 C   0  0  0  0  0  0  0  0  0  0  0  0
    3.1055   -0.2641    1.4574 H   0  0  0  0  0  0  0  0  0  0  0  0
    1.3662   -1.7469    2.3483 H   0  0  0  0  0  0  0  0  0  0  0  0
    1.7062   -4.1997    2.3703 H   0  0  0  0  0  0  0  0  0  0  0  0
    3.8232   -5.1504    1.5024 H   0  0  0  0  0  0  0  0  0  0  0  0
    5.5651   -3.6663    0.5999 H   0  0  0  0  0  0  0  0  0  0  0  0
    7.0399   -1.8532    1.6745 H   0  0  0  0  0  0  0  0  0  0  0  0
   10.5165    2.2609   -0.5907 H   0  0  0  0  0  0  0  0  0  0  0  0
    8.2209    2.5097   -1.5152 H   0  0  0  0  0  0  0  0  0  0  0  0
    3.8937    2.3238   -0.8116 H   0  0  0  0  0  0  0  0  0  0  0  0
    1.6754    2.6084   -1.8325 H   0  0  0  0  0  0  0  0  0  0  0  0
    3.7521   -1.8656   -1.6926 H   0  0  0  0  0  0  0  0  0  0  0  0
    1.5636   -1.5662   -2.7502 H   0  0  0  0  0  0  0  0  0  0  0  0
    0.1511    1.4383   -3.7840 H   0  0  0  0  0  0  0  0  0  0  0  0
   -0.2294   -0.2393   -3.4163 H   0  0  0  0  0  0  0  0  0  0  0  0
   -1.9181    2.2511   -3.4693 H   0  0  0  0  0  0  0  0  0  0  0  0
   -2.5758    0.6511   -3.1394 H   0  0  0  0  0  0  0  0  0  0  0  0
   -2.7489    3.1069   -1.3279 H   0  0  0  0  0  0  0  0  0  0  0  0
   -4.0637    2.3444   -2.2219 H   0  0  0  0  0  0  0  0  0  0  0  0
   -1.4688   -0.6934   -1.2831 H   0  0  0  0  0  0  0  0  0  0  0  0
   -0.1221    0.0605   -0.4390 H   0  0  0  0  0  0  0  0  0  0  0  0
   -2.1956    0.0918    0.9122 H   0  0  0  0  0  0  0  0  0  0  0  0
   -1.5942    1.7190    0.5925 H   0  0  0  0  0  0  0  0  0  0  0  0
   -3.7678    0.2670   -0.9521 H   0  0  0  0  0  0  0  0  0  0  0  0
   -5.6366   -0.6455   -0.6853 H   0  0  0  0  0  0  0  0  0  0  0  0
   -4.9489    4.6694    2.8319 H   0  0  0  0  0  0  0  0  0  0  0  0
   -6.6788    4.4355    2.5570 H   0  0  0  0  0  0  0  0  0  0  0  0
   -5.8521    3.5254    3.8333 H   0  0  0  0  0  0  0  0  0  0  0  0
   -8.0879    2.1116    2.6826 H   0  0  0  0  0  0  0  0  0  0  0  0
   -9.1299    0.1095    1.7099 H   0  0  0  0  0  0  0  0  0  0  0  0
   -9.0847   -1.6216    0.3380 H   0  0  0  0  0  0  0  0  0  0  0  0
   -9.3863   -3.7192   -0.3472 H   0  0  0  0  0  0  0  0  0  0  0  0
   -9.5897   -2.9598   -1.9035 H   0  0  0  0  0  0  0  0  0  0  0  0
   -7.8283   -4.4708   -2.8866 H   0  0  0  0  0  0  0  0  0  0  0  0
   -7.6099   -5.2330   -1.3118 H   0  0  0  0  0  0  0  0  0  0  0  0
   -9.1443   -5.3849   -2.1611 H   0  0  0  0  0  0  0  0  0  0  0  0
   10.9878    0.5660    0.8985 H   0  0  0  0  0  0  0  0  0  0  0  0
 46 45  1  0
 40 39  2  0
 40 41  1  0
 39 38  1  0
 42 41  1  0
 42 43  1  0
 41 33  2  0
 45 43  1  0
 38 36  1  0
 38 32  2  0
 37 36  1  0
 43 44  2  0
 33 32  1  0
 36 34  1  0
 32 31  1  0
 34 31  1  0
 34 35  2  0
 31 30  1  0
 29 30  1  0
 29 28  1  0
 30 27  1  0
 28 25  1  0
 27 26  1  0
 25 26  1  0
 25 24  1  0
 24 23  1  0
 22 23  2  0
 22 21  1  0
 23 20  1  0
 21 18  2  0
 20 19  2  0
 18 19  1  0
 18 17  1  0
  5  4  2  0
  5  6  1  0
  4  3  1  0
 17 16  2  0
 17  7  1  0
 16 15  1  0
  6  7  1  0
  6  1  2  0
  7  8  2  0
  3  2  2  0
 15 14  1  0
 15  9  2  0
 14 13  2  0
  8  9  1  0
  9 10  1  0
  1  2  1  0
 13 12  1  0
 10 12  1  0
 10 11  2  0
  1 47  1  0
  2 48  1  0
  3 49  1  0
  4 50  1  0
  5 51  1  0
  8 52  1  0
 13 53  1  0
 14 54  1  0
 19 55  1  0
 20 56  1  0
 21 57  1  0
 22 58  1  0
 24 59  1  0
 24 60  1  0
 26 61  1  0
 26 62  1  0
 27 63  1  0
 27 64  1  0
 28 65  1  0
 28 66  1  0
 29 67  1  0
 29 68  1  0
 30 69  1  6
 33 70  1  0
 37 71  1  0
 37 72  1  0
 37 73  1  0
 39 74  1  0
 40 75  1  0
 42 76  1  0
 45 77  1  0
 45 78  1  0
 46 79  1  0
 46 80  1  0
 46 81  1  0
 12 82  1  0
M  END
