
     RDKit          3D

 39 40  0  0  0  0  0  0  0  0999 V2000
   -4.6248    0.0384    0.3241 C   0  0  0  0  0  0  0  0  0  0  0  0
   -3.3624    0.4312    0.1042 C   0  0  0  0  0  0  0  0  0  0  0  0
   -2.1997   -0.4237   -0.0624 C   0  0  0  0  0  0  0  0  0  0  0  0
   -0.9454    0.1695   -0.2195 C   0  0  0  0  0  0  0  0  0  0  0  0
    0.2221   -0.5686   -0.3656 C   0  0  0  0  0  0  0  0  0  0  0  0
    1.5225    0.1191   -0.5260 C   0  0  0  0  0  0  0  0  0  0  0  0
    2.5993   -0.1699    0.3138 C   0  0  0  0  0  0  0  0  0  0  0  0
    3.8153    0.4929    0.1996 C   0  0  0  0  0  0  0  0  0  0  0  0
   -5.5642    2.2295    0.4243 O   0  0  0  0  0  0  0  0  0  0  0  0
   -5.6987    1.0270    0.4749 C   0  0  0  0  0  0  0  0  0  0  0  0
   -6.8761    0.4404    0.6819 O   0  0  0  0  0  0  0  0  0  0  0  0
   -2.2655   -1.8206   -0.0635 C   0  0  0  0  0  0  0  0  0  0  0  0
   -1.1250   -2.5786   -0.2192 C   0  0  0  0  0  0  0  0  0  0  0  0
    0.1211   -1.9667   -0.3736 C   0  0  0  0  0  0  0  0  0  0  0  0
    1.2406   -2.6808   -0.5527 O   0  0  0  0  0  0  0  0  0  0  0  0
    1.6786    1.1002   -1.5014 C   0  0  0  0  0  0  0  0  0  0  0  0
    2.8886    1.7701   -1.6291 C   0  0  0  0  0  0  0  0  0  0  0  0
    3.9487    1.4696   -0.7884 C   0  0  0  0  0  0  0  0  0  0  0  0
    4.9558    0.1599    1.1336 C   0  0  1  0  0  0  0  0  0  0  0  0
    6.1696   -0.3741    0.3741 C   0  0  0  0  0  0  0  0  0  0  0  0
    5.3317    1.3586    2.0035 C   0  0  0  0  0  0  0  0  0  0  0  0
   -4.8963   -1.0070    0.4043 H   0  0  0  0  0  0  0  0  0  0  0  0
   -3.1660    1.4976    0.0424 H   0  0  0  0  0  0  0  0  0  0  0  0
   -0.8729    1.2513   -0.2060 H   0  0  0  0  0  0  0  0  0  0  0  0
    2.4847   -0.9206    1.0866 H   0  0  0  0  0  0  0  0  0  0  0  0
   -7.5659    1.1129    0.7801 H   0  0  0  0  0  0  0  0  0  0  0  0
   -3.2125   -2.3309    0.0548 H   0  0  0  0  0  0  0  0  0  0  0  0
   -1.1972   -3.6602   -0.2312 H   0  0  0  0  0  0  0  0  0  0  0  0
    1.0462   -3.6253   -0.5372 H   0  0  0  0  0  0  0  0  0  0  0  0
    0.8594    1.3338   -2.1706 H   0  0  0  0  0  0  0  0  0  0  0  0
    3.0031    2.5280   -2.3932 H   0  0  0  0  0  0  0  0  0  0  0  0
    4.8855    2.0031   -0.9030 H   0  0  0  0  0  0  0  0  0  0  0  0
    4.6079   -0.6363    1.7987 H   0  0  0  0  0  0  0  0  0  0  0  0
    6.5927    0.3812   -0.2908 H   0  0  0  0  0  0  0  0  0  0  0  0
    6.9547   -0.6738    1.0702 H   0  0  0  0  0  0  0  0  0  0  0  0
    5.9087   -1.2435   -0.2307 H   0  0  0  0  0  0  0  0  0  0  0  0
    4.4708    1.7300    2.5608 H   0  0  0  0  0  0  0  0  0  0  0  0
    6.1037    1.0850    2.7246 H   0  0  0  0  0  0  0  0  0  0  0  0
    5.7206    2.1825    1.4022 H   0  0  0  0  0  0  0  0  0  0  0  0
 20 19  1  0
 21 19  1  0
 19  8  1  0
  8 18  1  0
  8  7  2  0
 18 17  2  0
  7  6  1  0
 17 16  1  0
  6 16  2  0
  6  5  1  0
  9 10  2  0
  4  5  1  0
  4  3  2  0
  5 14  2  0
 10 11  1  0
 10  1  1  0
  2  3  1  0
  2  1  2  0
  3 12  1  0
 14 15  1  0
 14 13  1  0
 12 13  2  0
  1 22  1  0
  2 23  1  0
  4 24  1  0
  7 25  1  0
 11 26  1  0
 12 27  1  0
 13 28  1  0
 15 29  1  0
 16 30  1  0
 17 31  1  0
 18 32  1  0
 19 33  1  1
 20 34  1  0
 20 35  1  0
 20 36  1  0
 21 37  1  0
 21 38  1  0
 21 39  1  0
M  END
