
     RDKit          3D

 55 57  0  0  0  0  0  0  0  0999 V2000
  -10.3949   -1.6012   -0.1002 O   0  0  0  0  0  0  0  0  0  0  0  0
   -9.3860   -2.2569   -0.0406 C   0  0  0  0  0  0  0  0  0  0  0  0
   -9.3324   -3.5406   -0.3823 O   0  0  0  0  0  0  0  0  0  0  0  0
   -8.0462   -1.7493    0.4135 C   0  0  0  0  0  0  0  0  0  0  0  0
   -8.0793   -0.2948    0.8543 C   0  0  0  0  0  0  0  0  0  0  0  0
   -6.7719    1.5702    1.9256 C   0  0  0  0  0  0  0  0  0  0  0  0
   -7.4594    1.5939    3.0600 O   0  0  0  0  0  0  0  0  0  0  0  0
   -6.2803    2.5400    1.4150 O   0  0  0  0  0  0  0  0  0  0  0  0
   -5.7360    0.0981    0.2903 N   0  0  0  0  0  0  0  0  0  0  0  0
   -4.4115    0.0116    0.5520 C   0  0  0  0  0  0  0  0  0  0  0  0
   -3.9818   -0.0898    1.6889 O   0  0  0  0  0  0  0  0  0  0  0  0
   -3.5039    0.0257   -0.6359 C   0  0  0  0  0  0  0  0  0  0  0  0
   -2.1736    0.3429   -0.4144 C   0  0  0  0  0  0  0  0  0  0  0  0
   -3.9426   -0.2854   -1.9241 C   0  0  0  0  0  0  0  0  0  0  0  0
   -1.2491    0.3826   -1.4658 C   0  0  0  0  0  0  0  0  0  0  0  0
   -3.0340   -0.2452   -2.9680 C   0  0  0  0  0  0  0  0  0  0  0  0
   -1.7062    0.0953   -2.7574 C   0  0  0  0  0  0  0  0  0  0  0  0
    2.4070    1.0788   -1.6527 C   0  0  0  0  0  0  0  0  0  0  0  0
    1.0171    0.9959   -2.2206 C   0  0  0  0  0  0  0  0  0  0  0  0
    0.0669    0.6676   -1.1867 N   0  0  0  0  0  0  0  0  0  0  0  0
    2.9188    0.0345   -0.8824 C   0  0  0  0  0  0  0  0  0  0  0  0
    4.2018    0.0880   -0.3740 C   0  0  0  0  0  0  0  0  0  0  0  0
    3.2145    2.1826   -1.8978 C   0  0  0  0  0  0  0  0  0  0  0  0
    4.5017    2.2389   -1.3928 C   0  0  0  0  0  0  0  0  0  0  0  0
    5.0234    1.1967   -0.6186 C   0  0  0  0  0  0  0  0  0  0  0  0
    6.3789    1.3523   -0.1311 C   0  0  0  0  0  0  0  0  0  0  0  0
    7.1390    0.5584    0.6404 C   0  0  0  0  0  0  0  0  0  0  0  0
    6.7615   -0.9926    1.3620 S   0  0  0  0  0  0  0  0  0  0  0  0
    8.3312   -1.1142    2.1156 C   0  0  0  0  0  0  0  0  0  0  0  0
    8.7915   -2.3756    3.0380 S   0  0  0  0  0  0  0  0  0  0  0  0
    9.0710   -0.0246    1.8079 N   0  0  0  0  0  0  0  0  0  0  0  0
    8.5176    0.9557    1.0047 C   0  0  0  0  0  0  0  0  0  0  0  0
   -6.7037    0.1620    1.3488 C   0  0  2  0  0  0  0  0  0  0  0  0
    9.0928    1.9631    0.6781 O   0  0  0  0  0  0  0  0  0  0  0  0
  -10.2077   -3.8415   -0.6666 H   0  0  0  0  0  0  0  0  0  0  0  0
   -7.6942   -2.3864    1.2307 H   0  0  0  0  0  0  0  0  0  0  0  0
   -7.3314   -1.9011   -0.3998 H   0  0  0  0  0  0  0  0  0  0  0  0
   -8.4102    0.3479    0.0339 H   0  0  0  0  0  0  0  0  0  0  0  0
   -8.8024   -0.1709    1.6600 H   0  0  0  0  0  0  0  0  0  0  0  0
   -6.3833   -0.5070    2.1521 H   0  0  0  0  0  0  0  0  0  0  0  0
   -7.5113    2.5006    3.3968 H   0  0  0  0  0  0  0  0  0  0  0  0
   -6.0289    0.4189   -0.6188 H   0  0  0  0  0  0  0  0  0  0  0  0
   -4.9641   -0.5794   -2.1246 H   0  0  0  0  0  0  0  0  0  0  0  0
   -1.8420    0.5674    0.5923 H   0  0  0  0  0  0  0  0  0  0  0  0
   -3.3619   -0.4821   -3.9716 H   0  0  0  0  0  0  0  0  0  0  0  0
   -1.0349    0.1294   -3.6045 H   0  0  0  0  0  0  0  0  0  0  0  0
    0.2140    1.1564   -0.3172 H   0  0  0  0  0  0  0  0  0  0  0  0
    2.3047   -0.8336   -0.6793 H   0  0  0  0  0  0  0  0  0  0  0  0
    2.8357    3.0091   -2.4862 H   0  0  0  0  0  0  0  0  0  0  0  0
    0.7702    1.9315   -2.7392 H   0  0  0  0  0  0  0  0  0  0  0  0
    1.0042    0.2081   -2.9792 H   0  0  0  0  0  0  0  0  0  0  0  0
    4.5441   -0.7558    0.2084 H   0  0  0  0  0  0  0  0  0  0  0  0
    5.1157    3.1078   -1.5962 H   0  0  0  0  0  0  0  0  0  0  0  0
    6.8675    2.2712   -0.4405 H   0  0  0  0  0  0  0  0  0  0  0  0
   10.0140    0.0664    2.1644 H   0  0  0  0  0  0  0  0  0  0  0  0
  3  2  1  0
  2  1  2  0
  2  4  1  0
  4  5  1  0
  5 33  1  0
  6  7  1  0
  6  8  2  0
  6 33  1  0
  9 10  1  0
  9 33  1  0
 10 11  2  0
 10 12  1  0
 12 14  2  0
 12 13  1  0
 14 16  1  0
 13 15  2  0
 15 17  1  0
 15 20  1  0
 17 16  2  0
 18 21  2  0
 18 23  1  0
 18 19  1  0
 21 22  1  0
 22 25  2  0
 23 24  2  0
 24 25  1  0
 25 26  1  0
 26 27  2  0
 27 28  1  0
 27 32  1  0
 28 29  1  0
 29 30  2  0
 29 31  1  0
 31 32  1  0
 32 34  2  0
 19 20  1  0
  3 35  1  0
  4 36  1  0
  4 37  1  0
  5 38  1  0
  5 39  1  0
 33 40  1  1
  7 41  1  0
  9 42  1  0
 14 43  1  0
 13 44  1  0
 16 45  1  0
 17 46  1  0
 20 47  1  0
 21 48  1  0
 23 49  1  0
 19 50  1  0
 19 51  1  0
 22 52  1  0
 24 53  1  0
 26 54  1  0
 31 55  1  0
M  END
