
     RDKit          3D

 56 57  0  0  0  0  0  0  0  0999 V2000
    4.2648    1.3865    2.5598 C   0  0  0  0  0  0  0  0  0  0  0  0
    3.8698    1.9642    1.2004 C   0  0  0  0  0  0  0  0  0  0  0  0
    3.8930    0.9271    0.1192 C   0  0  0  0  0  0  0  0  0  0  0  0
    3.2594   -0.7456   -1.2077 N   0  0  0  0  0  0  0  0  0  0  0  0
    2.8106    0.1686   -0.2792 C   0  0  0  0  0  0  0  0  0  0  0  0
    1.4166    0.2166    0.1738 C   0  0  0  0  0  0  0  0  0  0  0  0
   -0.6294   -1.1737    0.2777 C   0  0  0  0  0  0  0  0  0  0  0  0
   -1.5796   -0.1776    0.4597 C   0  0  0  0  0  0  0  0  0  0  0  0
   -2.8995   -0.5211    0.7335 C   0  0  0  0  0  0  0  0  0  0  0  0
   -3.2984   -1.8450    0.8306 C   0  0  0  0  0  0  0  0  0  0  0  0
   -2.3571   -2.8408    0.6366 C   0  0  0  0  0  0  0  0  0  0  0  0
   -1.0353   -2.5193    0.3656 C   0  0  0  0  0  0  0  0  0  0  0  0
   -0.0815   -3.4438    0.1801 O   0  0  0  0  0  0  0  0  0  0  0  0
   -5.7900   -0.0774   -0.9719 C   0  0  0  0  0  0  0  0  0  0  0  0
   -4.0636    1.6080   -1.5929 C   0  0  0  0  0  0  0  0  0  0  0  0
    7.2753    0.1619   -1.1474 O   0  0  0  0  0  0  0  0  0  0  0  0
    5.0244    0.4271   -0.6007 C   0  0  0  0  0  0  0  0  0  0  0  0
    4.5712   -0.6090   -1.4249 C   0  0  0  0  0  0  0  0  0  0  0  0
    5.2643   -1.4590   -2.4275 C   0  0  0  0  0  0  0  0  0  0  0  0
    6.8366    2.1183    0.0985 C   0  0  0  0  0  0  0  0  0  0  0  0
   -6.9445    0.5358   -1.7441 C   0  0  0  0  0  0  0  0  0  0  0  0
   -4.3582    3.0912   -1.7096 C   0  0  0  0  0  0  0  0  0  0  0  0
    0.7158   -0.9423   -0.0114 N   0  0  0  0  0  0  0  0  0  0  0  0
   -4.8436    0.9519   -0.5334 N   0  0  0  0  0  0  0  0  0  0  0  0
    0.9250    1.2139    0.6770 O   0  0  0  0  0  0  0  0  0  0  0  0
   -5.1042    0.2986    1.8682 O   0  0  0  0  0  0  0  0  0  0  0  0
   -3.3851    2.0009    1.1934 O   0  0  0  0  0  0  0  0  0  0  0  0
   -4.1018    0.7638    0.9219 S   0  0  1  0  0  0  0  0  0  0  0  0
    3.5645    0.6103    2.8700 H   0  0  0  0  0  0  0  0  0  0  0  0
    5.2590    0.9384    2.5383 H   0  0  0  0  0  0  0  0  0  0  0  0
    4.2640    2.1634    3.3245 H   0  0  0  0  0  0  0  0  0  0  0  0
    2.8725    2.3903    1.2713 H   0  0  0  0  0  0  0  0  0  0  0  0
    4.5292    2.7912    0.9440 H   0  0  0  0  0  0  0  0  0  0  0  0
    2.6757   -1.3589   -1.7566 H   0  0  0  0  0  0  0  0  0  0  0  0
   -1.2921    0.8588    0.4019 H   0  0  0  0  0  0  0  0  0  0  0  0
   -4.3179   -2.1157    1.0667 H   0  0  0  0  0  0  0  0  0  0  0  0
   -2.6503   -3.8808    0.7135 H   0  0  0  0  0  0  0  0  0  0  0  0
   -0.4444   -4.3362    0.2267 H   0  0  0  0  0  0  0  0  0  0  0  0
   -6.1873   -0.5922   -0.0999 H   0  0  0  0  0  0  0  0  0  0  0  0
   -5.2750   -0.8252   -1.5845 H   0  0  0  0  0  0  0  0  0  0  0  0
   -4.3143    1.1052   -2.5278 H   0  0  0  0  0  0  0  0  0  0  0  0
   -2.9918    1.4404   -1.4551 H   0  0  0  0  0  0  0  0  0  0  0  0
    5.8235   -0.8567   -3.1414 H   0  0  0  0  0  0  0  0  0  0  0  0
    5.9745   -2.1330   -1.9499 H   0  0  0  0  0  0  0  0  0  0  0  0
    4.5449   -2.0621   -2.9801 H   0  0  0  0  0  0  0  0  0  0  0  0
    7.8920    2.3120   -0.0825 H   0  0  0  0  0  0  0  0  0  0  0  0
    6.2544    2.9650   -0.2660 H   0  0  0  0  0  0  0  0  0  0  0  0
    6.6809    2.0593    1.1763 H   0  0  0  0  0  0  0  0  0  0  0  0
   -7.4914    1.2455   -1.1242 H   0  0  0  0  0  0  0  0  0  0  0  0
   -6.6103    1.0514   -2.6453 H   0  0  0  0  0  0  0  0  0  0  0  0
   -7.6331   -0.2506   -2.0530 H   0  0  0  0  0  0  0  0  0  0  0  0
   -5.4163    3.2655   -1.9051 H   0  0  0  0  0  0  0  0  0  0  0  0
   -4.0860    3.6222   -0.7996 H   0  0  0  0  0  0  0  0  0  0  0  0
   -3.7884    3.5185   -2.5352 H   0  0  0  0  0  0  0  0  0  0  0  0
    1.2434   -1.7725   -0.2344 H   0  0  0  0  0  0  0  0  0  0  0  0
    6.4298    0.8395   -0.5855 C   0  0  0  0  0  0  0  0  0  0  0  0
 19 18  1  0
 21 14  1  0
 18  4  1  0
 18 17  2  0
  4  5  1  0
 26 28  2  0
 14 24  1  0
 25  6  2  0
 16 56  2  0
 17 56  1  0
 17  3  1  0
 56 20  1  0
  5  6  1  0
  5  3  2  0
 22 15  1  0
 15 24  1  0
  6 23  1  0
 28 24  1  6
  3  2  1  0
 28  9  1  0
 28 27  2  0
  8  9  2  0
  8  7  1  0
  2  1  1  0
 23  7  1  0
  9 10  1  0
  7 12  2  0
 10 11  2  0
 12 11  1  0
 12 13  1  0
  1 29  1  0
  1 30  1  0
  1 31  1  0
  2 32  1  0
  2 33  1  0
  4 34  1  0
  8 35  1  0
 10 36  1  0
 11 37  1  0
 13 38  1  0
 14 39  1  0
 14 40  1  0
 15 41  1  0
 15 42  1  0
 19 43  1  0
 19 44  1  0
 19 45  1  0
 20 46  1  0
 20 47  1  0
 20 48  1  0
 21 49  1  0
 21 50  1  0
 21 51  1  0
 22 52  1  0
 22 53  1  0
 22 54  1  0
 23 55  1  0
M  END
