
     RDKit          3D

 40 40  0  0  0  0  0  0  0  0999 V2000
    3.3567    1.1244    2.8116 O   0  0  0  0  0  0  0  0  0  0  0  0
    2.0941    0.7326    2.5233 C   0  0  0  0  0  0  0  0  0  0  0  0
    1.3711    0.0491    3.6855 C   0  0  1  0  0  0  0  0  0  0  0  0
   -0.0535    0.2368    3.6763 N   0  0  0  0  0  0  0  0  0  0  0  0
    1.7770   -1.4280    3.7098 C   0  0  0  0  0  0  0  0  0  0  0  0
    1.1067   -2.4113    2.4036 S   0  0  0  0  0  0  0  0  0  0  0  0
    2.6917   -3.0109    1.1821 S   0  0  0  0  0  0  0  0  0  0  0  0
    2.7320   -2.0208   -0.2813 C   0  0  0  0  0  0  0  0  0  0  0  0
    1.5590   -2.1359   -1.1565 C   0  0  0  0  0  0  0  0  0  0  0  0
    1.5127   -3.0986   -2.3382 C   0  0  1  0  0  0  0  0  0  0  0  0
    2.5393   -2.7622   -3.4140 C   0  0  0  0  0  0  0  0  0  0  0  0
    1.6277   -4.5617   -1.9260 C   0  0  0  0  0  0  0  0  0  0  0  0
    0.4198   -1.4280   -1.0201 C   0  0  0  0  0  0  0  0  0  0  0  0
   -0.6265   -1.7492   -2.0599 C   0  0  1  0  0  0  0  0  0  0  0  0
   -1.8962   -2.3167   -1.4341 C   0  0  0  0  0  0  0  0  0  0  0  0
   -0.9507   -0.5416   -2.9311 C   0  0  0  0  0  0  0  0  0  0  0  0
    0.0821   -2.8439   -2.9007 N   0  0  0  0  0  0  0  0  0  0  0  0
   -0.3810   -3.3894   -3.8088 O   0  0  0  0  0  0  0  0  0  0  0  0
    1.6733    0.9636    1.3811 O   0  0  0  0  0  0  0  0  0  0  0  0
    3.7668    1.5512    2.0394 H   0  0  0  0  0  0  0  0  0  0  0  0
    1.7755    0.5211    4.6374 H   0  0  0  0  0  0  0  0  0  0  0  0
   -0.3015    1.1837    3.4764 H   0  0  0  0  0  0  0  0  0  0  0  0
   -0.5104   -0.3905    3.0458 H   0  0  0  0  0  0  0  0  0  0  0  0
    1.3478   -1.8953    4.6400 H   0  0  0  0  0  0  0  0  0  0  0  0
    2.8898   -1.5029    3.7691 H   0  0  0  0  0  0  0  0  0  0  0  0
    2.8849   -0.9389   -0.0183 H   0  0  0  0  0  0  0  0  0  0  0  0
    3.6642   -2.3819   -0.7967 H   0  0  0  0  0  0  0  0  0  0  0  0
    3.5502   -3.0492   -3.0263 H   0  0  0  0  0  0  0  0  0  0  0  0
    2.3458   -3.3437   -4.3490 H   0  0  0  0  0  0  0  0  0  0  0  0
    2.5458   -1.6703   -3.6492 H   0  0  0  0  0  0  0  0  0  0  0  0
    2.6392   -4.7029   -1.4518 H   0  0  0  0  0  0  0  0  0  0  0  0
    0.8606   -4.8478   -1.1660 H   0  0  0  0  0  0  0  0  0  0  0  0
    1.5371   -5.2304   -2.8161 H   0  0  0  0  0  0  0  0  0  0  0  0
    0.2044   -0.6730   -0.2495 H   0  0  0  0  0  0  0  0  0  0  0  0
   -1.6761   -3.1915   -0.7755 H   0  0  0  0  0  0  0  0  0  0  0  0
   -2.3558   -1.5110   -0.8064 H   0  0  0  0  0  0  0  0  0  0  0  0
   -2.6294   -2.6174   -2.2227 H   0  0  0  0  0  0  0  0  0  0  0  0
   -1.4354    0.2300   -2.2799 H   0  0  0  0  0  0  0  0  0  0  0  0
   -0.0287   -0.0947   -3.3758 H   0  0  0  0  0  0  0  0  0  0  0  0
   -1.6623   -0.8186   -3.7477 H   0  0  0  0  0  0  0  0  0  0  0  0
  1  2  1  0
  1 20  1  0
  2  3  1  0
  2 19  2  0
  3  4  1  0
  3  5  1  0
  3 21  1  1
  4 22  1  0
  4 23  1  0
  5  6  1  0
  5 24  1  0
  5 25  1  0
  6  7  1  0
  7  8  1  0
  8  9  1  0
  8 26  1  0
  8 27  1  0
  9 10  1  0
  9 13  2  0
 10 11  1  6
 10 12  1  0
 10 17  1  0
 11 28  1  0
 11 29  1  0
 11 30  1  0
 12 31  1  0
 12 32  1  0
 12 33  1  0
 13 14  1  0
 13 34  1  0
 14 15  1  1
 14 16  1  0
 14 17  1  0
 15 35  1  0
 15 36  1  0
 15 37  1  0
 16 38  1  0
 16 39  1  0
 16 40  1  0
 17 18  2  0
M  CHG  1  17   1
M  END
