
     RDKit          3D

 44 45  0  0  0  0  0  0  0  0999 V2000
    1.2755    0.5630   -1.1909 C   0  0  0  0  0  0  0  0  0  0  0  0
    1.8465    1.1587   -2.3141 C   0  0  0  0  0  0  0  0  0  0  0  0
    2.5507    0.4053   -3.2400 C   0  0  0  0  0  0  0  0  0  0  0  0
    2.6944   -0.9659   -3.0611 C   0  0  0  0  0  0  0  0  0  0  0  0
    2.1260   -1.5681   -1.9493 C   0  0  0  0  0  0  0  0  0  0  0  0
    1.4229   -0.8082   -1.0212 C   0  0  0  0  0  0  0  0  0  0  0  0
   -0.3478    0.7161    0.7617 C   0  0  0  0  0  0  0  0  0  0  0  0
   -1.6718    0.5676    0.3676 N   0  0  0  0  0  0  0  0  0  0  0  0
   -2.5802   -0.1440    1.1247 C   0  0  0  0  0  0  0  0  0  0  0  0
   -3.7284   -0.3528    0.7845 O   0  0  0  0  0  0  0  0  0  0  0  0
   -2.0992   -0.5948    2.3171 N   0  0  0  0  0  0  0  0  0  0  0  0
   -0.8276   -0.4402    2.8287 C   0  0  0  0  0  0  0  0  0  0  0  0
   -0.5858   -0.8501    3.9507 O   0  0  0  0  0  0  0  0  0  0  0  0
    0.1147    0.2106    1.9363 C   0  0  0  0  0  0  0  0  0  0  0  0
    0.5637    1.4457   -0.1881 C   0  0  0  0  0  0  0  0  0  0  0  0
    1.5629    0.3031    2.3708 C   0  0  1  0  0  0  0  0  0  0  0  0
    1.7535    1.3108    3.5059 C   0  0  0  0  0  0  0  0  0  0  0  0
    2.1787   -1.0563    2.7135 C   0  0  0  0  0  0  0  0  0  0  0  0
   -2.1753    1.1701   -0.8736 C   0  0  0  0  0  0  0  0  0  0  0  0
   -1.5899    0.6510   -2.0119 O   0  0  0  0  0  0  0  0  0  0  0  0
   -1.9104   -0.7004   -2.2953 C   0  0  0  0  0  0  0  0  0  0  0  0
   -1.2821   -1.0713   -3.6175 C   0  0  0  0  0  0  0  0  0  0  0  0
    1.7350    2.2260   -2.4670 H   0  0  0  0  0  0  0  0  0  0  0  0
    2.9846    0.8884   -4.1061 H   0  0  0  0  0  0  0  0  0  0  0  0
    3.2408   -1.5569   -3.7847 H   0  0  0  0  0  0  0  0  0  0  0  0
    2.2247   -2.6356   -1.7987 H   0  0  0  0  0  0  0  0  0  0  0  0
    0.9812   -1.3035   -0.1656 H   0  0  0  0  0  0  0  0  0  0  0  0
   -2.7664   -1.0855    2.8993 H   0  0  0  0  0  0  0  0  0  0  0  0
    0.0301    2.2293   -0.7234 H   0  0  0  0  0  0  0  0  0  0  0  0
    1.3088    1.9845    0.3977 H   0  0  0  0  0  0  0  0  0  0  0  0
    2.1416    0.6690    1.5222 H   0  0  0  0  0  0  0  0  0  0  0  0
    2.8141    1.4226    3.7373 H   0  0  0  0  0  0  0  0  0  0  0  0
    1.3686    2.2933    3.2286 H   0  0  0  0  0  0  0  0  0  0  0  0
    1.2469    0.9915    4.4156 H   0  0  0  0  0  0  0  0  0  0  0  0
    1.7668   -1.4838    3.6244 H   0  0  0  0  0  0  0  0  0  0  0  0
    2.0346   -1.7733    1.9036 H   0  0  0  0  0  0  0  0  0  0  0  0
    3.2539   -0.9390    2.8571 H   0  0  0  0  0  0  0  0  0  0  0  0
   -1.9662    2.2383   -0.8557 H   0  0  0  0  0  0  0  0  0  0  0  0
   -3.2568    1.0365   -0.8669 H   0  0  0  0  0  0  0  0  0  0  0  0
   -2.9992   -0.8308   -2.3306 H   0  0  0  0  0  0  0  0  0  0  0  0
   -1.5282   -1.3614   -1.5085 H   0  0  0  0  0  0  0  0  0  0  0  0
   -1.4875   -2.1182   -3.8401 H   0  0  0  0  0  0  0  0  0  0  0  0
   -1.6821   -0.4694   -4.4342 H   0  0  0  0  0  0  0  0  0  0  0  0
   -0.2004   -0.9395   -3.5808 H   0  0  0  0  0  0  0  0  0  0  0  0
  1  2  2  0
  1  6  1  0
  1 15  1  0
  2  3  1  0
  2 23  1  0
  3  4  2  0
  3 24  1  0
  4  5  1  0
  4 25  1  0
  5  6  2  0
  5 26  1  0
  6 27  1  0
  7  8  1  0
  7 14  2  0
  7 15  1  0
  8  9  1  0
  8 19  1  0
  9 10  2  0
  9 11  1  0
 11 12  1  0
 11 28  1  0
 12 13  2  0
 12 14  1  0
 14 16  1  0
 15 29  1  0
 15 30  1  0
 16 17  1  0
 16 18  1  0
 16 31  1  6
 17 32  1  0
 17 33  1  0
 17 34  1  0
 18 35  1  0
 18 36  1  0
 18 37  1  0
 19 20  1  0
 19 38  1  0
 19 39  1  0
 20 21  1  0
 21 22  1  0
 21 40  1  0
 21 41  1  0
 22 42  1  0
 22 43  1  0
 22 44  1  0
M  END
