
     RDKit          3D

 17 17  0  0  0  0  0  0  0  0999 V2000
    1.9428   -0.0891   -0.5163 C   0  0  0  0  0  0  0  0  0  0  0  0
    1.5324    1.1806   -0.2599 C   0  0  0  0  0  0  0  0  0  0  0  0
    0.1441    1.2699    0.0686 C   0  0  0  0  0  0  0  0  0  0  0  0
   -0.5331    2.5628    0.4050 C   0  0  0  0  0  0  0  0  0  0  0  0
    0.6500   -1.2067   -0.3728 S   0  0  0  0  0  0  0  0  0  0  0  0
   -0.4612    0.0452    0.0494 C   0  0  0  0  0  0  0  0  0  0  0  0
   -1.8711   -0.3305    0.3746 C   0  0  0  0  0  0  0  0  0  0  0  0
   -2.2480   -1.5482   -0.3218 N   0  0  0  0  0  0  0  0  0  0  0  0
    2.9290   -0.4220   -0.8010 H   0  0  0  0  0  0  0  0  0  0  0  0
    2.1878    2.0402   -0.3077 H   0  0  0  0  0  0  0  0  0  0  0  0
   -0.1360    3.3793   -0.1984 H   0  0  0  0  0  0  0  0  0  0  0  0
   -1.6090    2.5185    0.2379 H   0  0  0  0  0  0  0  0  0  0  0  0
   -0.3804    2.8323    1.4521 H   0  0  0  0  0  0  0  0  0  0  0  0
   -1.9563   -0.5204    1.4485 H   0  0  0  0  0  0  0  0  0  0  0  0
   -2.5243    0.5277    0.1697 H   0  0  0  0  0  0  0  0  0  0  0  0
   -3.1327   -1.8824    0.0368 H   0  0  0  0  0  0  0  0  0  0  0  0
   -2.3960   -1.3506   -1.3033 H   0  0  0  0  0  0  0  0  0  0  0  0
  2  1  2  0
  1  5  1  0
  1  9  1  0
  3  2  1  0
  2 10  1  0
  4  3  1  0
  3  6  2  0
  4 11  1  0
  4 12  1  0
  4 13  1  0
  6  5  1  0
  7  6  1  0
  7  8  1  0
  7 14  1  0
  7 15  1  0
  8 16  1  0
  8 17  1  0
M  END
