
     RDKit          3D

 32 34  0  0  0  0  0  0  0  0999 V2000
    4.9146    1.5114   -0.3701 O   0  0  0  0  0  0  0  0  0  0  0  0
    3.7098    0.9107   -0.2940 C   0  0  0  0  0  0  0  0  0  0  0  0
    3.4553   -0.1543    0.5765 C   0  0  0  0  0  0  0  0  0  0  0  0
    4.5345   -0.6834    1.4749 C   0  0  0  0  0  0  0  0  0  0  0  0
    2.1813   -0.7059    0.5825 C   0  0  0  0  0  0  0  0  0  0  0  0
    2.7054    1.3910   -1.1275 C   0  0  0  0  0  0  0  0  0  0  0  0
    1.4446    0.8247   -1.0978 C   0  0  0  0  0  0  0  0  0  0  0  0
    1.1585   -0.2336   -0.2371 C   0  0  0  0  0  0  0  0  0  0  0  0
   -0.1644   -0.8851   -0.2265 C   0  0  0  0  0  0  0  0  0  0  0  0
   -0.2622   -2.2458   -0.3847 C   0  0  0  0  0  0  0  0  0  0  0  0
   -1.5290   -2.8538   -0.4081 C   0  0  0  0  0  0  0  0  0  0  0  0
   -2.6575   -2.2084   -0.2975 N   0  0  0  0  0  0  0  0  0  0  0  0
   -1.3737   -0.1540   -0.0627 C   0  0  0  0  0  0  0  0  0  0  0  0
   -1.4243    1.2340    0.1927 C   0  0  0  0  0  0  0  0  0  0  0  0
   -2.6169    1.8846    0.3342 C   0  0  0  0  0  0  0  0  0  0  0  0
   -3.8359    1.1786    0.2303 C   0  0  0  0  0  0  0  0  0  0  0  0
   -5.0234    1.7999    0.3520 O   0  0  0  0  0  0  0  0  0  0  0  0
   -3.8225   -0.1753    0.0138 C   0  0  0  0  0  0  0  0  0  0  0  0
   -2.6030   -0.8656   -0.1225 C   0  0  0  0  0  0  0  0  0  0  0  0
    5.5484    1.1000    0.2244 H   0  0  0  0  0  0  0  0  0  0  0  0
    4.9024    0.0715    2.1740 H   0  0  0  0  0  0  0  0  0  0  0  0
    4.1669   -1.5126    2.0750 H   0  0  0  0  0  0  0  0  0  0  0  0
    5.3910   -1.0622    0.9114 H   0  0  0  0  0  0  0  0  0  0  0  0
    1.9797   -1.5241    1.2645 H   0  0  0  0  0  0  0  0  0  0  0  0
    2.9182    2.2057   -1.8072 H   0  0  0  0  0  0  0  0  0  0  0  0
    0.6871    1.1994   -1.7740 H   0  0  0  0  0  0  0  0  0  0  0  0
    0.6198   -2.8554   -0.5250 H   0  0  0  0  0  0  0  0  0  0  0  0
   -1.5937   -3.9289   -0.5411 H   0  0  0  0  0  0  0  0  0  0  0  0
   -0.5055    1.7942    0.2962 H   0  0  0  0  0  0  0  0  0  0  0  0
   -2.6216    2.9505    0.5355 H   0  0  0  0  0  0  0  0  0  0  0  0
   -4.8987    2.7410    0.4975 H   0  0  0  0  0  0  0  0  0  0  0  0
   -4.7469   -0.7337   -0.0501 H   0  0  0  0  0  0  0  0  0  0  0  0
  4  3  1  0
  1  2  1  0
  3  2  2  0
  3  5  1  0
  2  6  1  0
  5  8  2  0
  6  7  2  0
  8  7  1  0
  8  9  1  0
 10  9  2  0
 10 11  1  0
  9 13  1  0
 11 12  2  0
 13 14  2  0
 13 19  1  0
 12 19  1  0
 14 15  1  0
 19 18  2  0
 15 16  2  0
 18 16  1  0
 16 17  1  0
  1 20  1  0
  4 21  1  0
  4 22  1  0
  4 23  1  0
  5 24  1  0
  6 25  1  0
  7 26  1  0
 10 27  1  0
 11 28  1  0
 14 29  1  0
 15 30  1  0
 17 31  1  0
 18 32  1  0
M  END
