
     RDKit          3D

 33 34  0  0  0  0  0  0  0  0999 V2000
   17.3403   26.0377   21.5314 C   0  0  0  0  0  0  0  0  0  0  0  0
   17.4421   24.6979   21.1865 C   0  0  0  0  0  0  0  0  0  0  0  0
   16.9212   24.2743   19.9768 C   0  0  0  0  0  0  0  0  0  0  0  0
   16.3137   25.1664   19.0923 C   0  0  0  0  0  0  0  0  0  0  0  0
   16.2497   26.5187   19.4465 C   0  0  0  0  0  0  0  0  0  0  0  0
   16.7442   26.9458   20.6664 C   0  0  0  0  0  0  0  0  0  0  0  0
   15.7368   24.5918   17.8677 C   0  0  0  0  0  0  0  0  0  0  0  0
   15.6345   27.4424   18.6461 O   0  0  0  0  0  0  0  0  0  0  0  0
   16.1650   28.0863   17.2650 P   0  0  2  0  0  0  0  0  0  0  0  0
   16.7369   29.5262   17.6457 O   0  0  0  0  0  0  0  0  0  0  0  0
   15.1004   28.2486   16.2658 O   0  0  0  0  0  0  0  0  0  0  0  0
   17.7998   29.7935   18.5719 C   0  0  0  0  0  0  0  0  0  0  0  0
   19.1315   29.2905   18.0942 C   0  0  0  0  0  0  0  0  0  0  0  0
   19.8685   28.4034   18.8695 C   0  0  0  0  0  0  0  0  0  0  0  0
   21.1022   27.9396   18.4307 C   0  0  0  0  0  0  0  0  0  0  0  0
   21.6019   28.3513   17.2036 C   0  0  0  0  0  0  0  0  0  0  0  0
   20.8682   29.2354   16.4206 C   0  0  0  0  0  0  0  0  0  0  0  0
   19.6417   29.7065   16.8656 C   0  0  0  0  0  0  0  0  0  0  0  0
   17.4025   27.1417   16.9487 O   0  0  0  0  0  0  0  0  0  0  0  0
   15.1449   25.1946   17.0050 O   0  0  0  0  0  0  0  0  0  0  0  0
   17.7260   26.3872   22.4796 H   0  0  0  0  0  0  0  0  0  0  0  0
   17.9093   23.9917   21.8586 H   0  0  0  0  0  0  0  0  0  0  0  0
   16.9751   23.2271   19.7028 H   0  0  0  0  0  0  0  0  0  0  0  0
   16.6539   27.9859   20.9516 H   0  0  0  0  0  0  0  0  0  0  0  0
   15.8794   23.4990   17.7943 H   0  0  0  0  0  0  0  0  0  0  0  0
   17.5645   29.3841   19.5554 H   0  0  0  0  0  0  0  0  0  0  0  0
   17.8105   30.8788   18.6692 H   0  0  0  0  0  0  0  0  0  0  0  0
   19.4751   28.0640   19.8205 H   0  0  0  0  0  0  0  0  0  0  0  0
   21.6661   27.2486   19.0435 H   0  0  0  0  0  0  0  0  0  0  0  0
   22.5599   27.9857   16.8578 H   0  0  0  0  0  0  0  0  0  0  0  0
   21.2545   29.5621   15.4639 H   0  0  0  0  0  0  0  0  0  0  0  0
   19.0804   30.4014   16.2520 H   0  0  0  0  0  0  0  0  0  0  0  0
   18.0048   27.4553   16.2600 H   0  0  0  0  0  0  0  0  0  0  0  0
  1  2  2  0
  1  6  1  0
  1 21  1  0
  2  3  1  0
  2 22  1  0
  3  4  2  0
  3 23  1  0
  4  5  1  0
  4  7  1  0
  5  6  2  0
  5  8  1  0
  6 24  1  0
  7 20  2  0
  7 25  1  0
  9  8  1  1
  9 10  1  0
  9 11  2  0
  9 19  1  0
 10 12  1  0
 12 13  1  0
 12 26  1  0
 12 27  1  0
 13 14  2  0
 13 18  1  0
 14 15  1  0
 14 28  1  0
 15 16  2  0
 15 29  1  0
 16 17  1  0
 16 30  1  0
 17 18  2  0
 17 31  1  0
 18 32  1  0
 19 33  1  0
M  END
