
     RDKit          3D

 55 58  0  0  0  0  0  0  0  0999 V2000
    5.2589   -2.0264    1.0268 N   0  0  0  0  0  0  0  0  0  0  0  0
    5.6801   -0.6511    1.0107 C   0  0  1  0  0  0  0  0  0  0  0  0
    7.1899   -0.5435    0.9214 C   0  0  0  0  0  0  0  0  0  0  0  0
    7.9398   -1.4826    0.9211 O   0  0  0  0  0  0  0  0  0  0  0  0
    4.9168    0.2174   -0.0114 C   0  0  1  0  0  0  0  0  0  0  0  0
    5.2068   -0.0911   -1.4767 C   0  0  0  0  0  0  0  0  0  0  0  0
    4.3878   -0.0020   -2.3519 O   0  0  0  0  0  0  0  0  0  0  0  0
    6.4710   -0.4253   -1.6690 O   0  0  0  0  0  0  0  0  0  0  0  0
    7.5827    0.7220    0.9111 O   0  0  0  0  0  0  0  0  0  0  0  0
   -3.0005    0.8204   -0.0117 C   0  0  0  0  0  0  0  0  0  0  0  0
   -1.5602    0.9161    0.0898 C   0  0  0  0  0  0  0  0  0  0  0  0
   -0.9096    1.5220    1.1809 C   0  0  0  0  0  0  0  0  0  0  0  0
    3.8278   -2.1130    1.2472 C   0  0  0  0  0  0  0  0  0  0  0  0
    0.4596    1.5945    1.2473 C   0  0  0  0  0  0  0  0  0  0  0  0
   -1.3797   -0.2341   -2.0783 C   0  0  0  0  0  0  0  0  0  0  0  0
   -5.8106    0.5687   -0.2738 C   0  0  0  0  0  0  0  0  0  0  0  0
   -7.2998    0.3941   -0.3666 C   0  0  0  0  0  0  0  0  0  0  0  0
   -3.8736    1.3191    0.9729 C   0  0  0  0  0  0  0  0  0  0  0  0
    0.6393    0.4402   -0.8478 C   0  0  0  0  0  0  0  0  0  0  0  0
   -4.9695    0.0846   -1.2486 C   0  0  0  0  0  0  0  0  0  0  0  0
   -3.5714    0.1977   -1.1427 C   0  0  0  0  0  0  0  0  0  0  0  0
   -7.7575   -0.7818    0.4903 C   0  0  0  0  0  0  0  0  0  0  0  0
    1.2496    1.0304    0.2342 C   0  0  0  0  0  0  0  0  0  0  0  0
   -0.7611    0.3788   -0.9439 C   0  0  0  0  0  0  0  0  0  0  0  0
   -5.2353    1.1964    0.8453 C   0  0  0  0  0  0  0  0  0  0  0  0
   -2.7246   -0.3198   -2.1727 C   0  0  0  0  0  0  0  0  0  0  0  0
   -9.2420   -1.0163    0.4389 C   0  0  0  0  0  0  0  0  0  0  0  0
    3.0018   -1.2919    0.2637 C   0  0  0  0  0  0  0  0  0  0  0  0
    3.4952    0.0794    0.2145 N   0  0  0  0  0  0  0  0  0  0  0  0
  -10.0220   -0.3888   -0.2331 O   0  0  0  0  0  0  0  0  0  0  0  0
    3.2084    2.3176    0.3709 O   0  0  0  0  0  0  0  0  0  0  0  0
   -9.6080   -2.0189    1.2310 O   0  0  0  0  0  0  0  0  0  0  0  0
    5.5225   -2.5051    0.1729 H   0  0  0  0  0  0  0  0  0  0  0  0
    5.4201   -0.2221    1.9881 H   0  0  0  0  0  0  0  0  0  0  0  0
    5.1846    1.2667    0.1395 H   0  0  0  0  0  0  0  0  0  0  0  0
    6.6486   -0.5824   -2.6099 H   0  0  0  0  0  0  0  0  0  0  0  0
    8.5496    0.7734    0.8765 H   0  0  0  0  0  0  0  0  0  0  0  0
   -1.4825    1.9483    1.9924 H   0  0  0  0  0  0  0  0  0  0  0  0
    3.5172   -3.1563    1.1866 H   0  0  0  0  0  0  0  0  0  0  0  0
    3.6190   -1.7682    2.2639 H   0  0  0  0  0  0  0  0  0  0  0  0
    0.9301    2.0727    2.0963 H   0  0  0  0  0  0  0  0  0  0  0  0
   -0.7483   -0.6337   -2.8622 H   0  0  0  0  0  0  0  0  0  0  0  0
   -7.8017    1.3069   -0.0383 H   0  0  0  0  0  0  0  0  0  0  0  0
   -7.5882    0.2279   -1.4057 H   0  0  0  0  0  0  0  0  0  0  0  0
   -3.4838    1.8093    1.8546 H   0  0  0  0  0  0  0  0  0  0  0  0
    1.2333    0.0163   -1.6503 H   0  0  0  0  0  0  0  0  0  0  0  0
   -5.3840   -0.3992   -2.1265 H   0  0  0  0  0  0  0  0  0  0  0  0
   -7.2565   -1.7014    0.1725 H   0  0  0  0  0  0  0  0  0  0  0  0
   -7.4675   -0.6360    1.5351 H   0  0  0  0  0  0  0  0  0  0  0  0
   -5.8762    1.5945    1.6231 H   0  0  0  0  0  0  0  0  0  0  0  0
   -3.1847   -0.7868   -3.0346 H   0  0  0  0  0  0  0  0  0  0  0  0
    3.0453   -1.7425   -0.7328 H   0  0  0  0  0  0  0  0  0  0  0  0
    1.9618   -1.2985    0.5778 H   0  0  0  0  0  0  0  0  0  0  0  0
  -10.5648   -2.1577    1.1701 H   0  0  0  0  0  0  0  0  0  0  0  0
    2.7328    1.1951    0.2838 C   0  0  0  0  0  0  0  0  0  0  0  0
 31 55  2  0
  4  3  2  0
 55 23  1  0
 55 29  1  0
 14 12  2  0
 14 23  1  0
  7  6  2  0
  3  2  1  0
  3  9  1  0
  5  6  1  0
  5  2  1  0
  5 29  1  0
 12 11  1  0
 23 19  2  0
  6  8  1  0
  2  1  1  0
 29 28  1  0
 19 24  1  0
 11 24  2  0
 11 10  1  0
 18 10  2  0
 18 25  1  0
 24 15  1  0
 10 21  1  0
 25 16  2  0
  1 13  1  0
 28 13  1  0
 30 27  2  0
 15 26  2  0
 21 26  1  0
 21 20  2  0
 16 20  1  0
 16 17  1  0
 22 17  1  0
 22 27  1  0
 27 32  1  0
  1 33  1  0
  2 34  1  1
  5 35  1  1
  8 36  1  0
  9 37  1  0
 12 38  1  0
 13 39  1  0
 13 40  1  0
 14 41  1  0
 15 42  1  0
 17 43  1  0
 17 44  1  0
 18 45  1  0
 19 46  1  0
 20 47  1  0
 22 48  1  0
 22 49  1  0
 25 50  1  0
 26 51  1  0
 28 52  1  0
 28 53  1  0
 32 54  1  0
M  END
