
     RDKit          3D

 25 26  0  0  0  0  0  0  0  0999 V2000
   -2.1718   -0.3721   -0.2611 C   0  0  0  0  0  0  0  0  0  0  0  0
   -2.1789    0.5825    0.7651 C   0  0  0  0  0  0  0  0  0  0  0  0
    1.9625    1.2724   -0.5160 C   0  0  0  0  0  0  0  0  0  0  0  0
    0.6880    0.8149   -0.8106 C   0  0  0  0  0  0  0  0  0  0  0  0
    0.2742   -0.4626   -0.4618 C   0  0  0  0  0  0  0  0  0  0  0  0
    1.1598   -1.3360    0.1959 C   0  0  0  0  0  0  0  0  0  0  0  0
    2.4535   -0.8821    0.4806 C   0  0  0  0  0  0  0  0  0  0  0  0
    2.8273    0.4001    0.1281 C   0  0  0  0  0  0  0  0  0  0  0  0
    4.4351    0.9321    0.5085 Cl  0  0  0  0  0  0  0  0  0  0  0  0
    0.7815   -2.6155    0.5017 N   0  0  0  0  0  0  0  0  0  0  0  0
   -1.0276   -0.9134   -0.7623 N   0  0  0  0  0  0  0  0  0  0  0  0
   -3.4227   -0.7751   -0.7528 C   0  0  0  0  0  0  0  0  0  0  0  0
   -4.5668   -0.2237   -0.2146 C   0  0  0  0  0  0  0  0  0  0  0  0
   -4.5810    0.6856    0.7587 N   0  0  0  0  0  0  0  0  0  0  0  0
   -3.3920    1.0616    1.2214 C   0  0  0  0  0  0  0  0  0  0  0  0
   -1.2610    0.9455    1.2063 H   0  0  0  0  0  0  0  0  0  0  0  0
   -0.0055    1.4679   -1.3260 H   0  0  0  0  0  0  0  0  0  0  0  0
    3.1507   -1.5362    0.9889 H   0  0  0  0  0  0  0  0  0  0  0  0
   -0.2087   -2.7766    0.5966 H   0  0  0  0  0  0  0  0  0  0  0  0
    1.3223   -3.0820    1.2114 H   0  0  0  0  0  0  0  0  0  0  0  0
   -1.1255   -1.6119   -1.4838 H   0  0  0  0  0  0  0  0  0  0  0  0
   -3.4956   -1.5094   -1.5452 H   0  0  0  0  0  0  0  0  0  0  0  0
   -5.5326   -0.5354   -0.5980 H   0  0  0  0  0  0  0  0  0  0  0  0
   -3.3957    1.7986    2.0176 H   0  0  0  0  0  0  0  0  0  0  0  0
    2.2713    2.2708   -0.7900 H   0  0  0  0  0  0  0  0  0  0  0  0
  4  3  2  0
  4  5  1  0
  3  8  1  0
 11  5  1  0
 11  1  1  0
  2  1  2  0
  2 15  1  0
  5  6  2  0
  1 12  1  0
 15 14  2  0
 12 13  2  0
  8  9  1  0
  8  7  2  0
 14 13  1  0
  6  7  1  0
  6 10  1  0
  2 16  1  0
  3 25  1  0
  4 17  1  0
  7 18  1  0
 10 19  1  0
 10 20  1  0
 11 21  1  0
 12 22  1  0
 13 23  1  0
 15 24  1  0
M  END
