
     RDKit          3D

 29 28  0  0  0  0  0  0  0  0999 V2000
    4.2899    0.6422   -1.0534 O   0  0  0  0  0  0  0  0  0  0  0  0
    3.2777   -0.3948   -0.4220 P   0  0  1  0  0  0  0  0  0  0  0  0
    2.8959   -1.4687   -1.5238 O   0  0  0  0  0  0  0  0  0  0  0  0
    3.7052   -0.8581    0.9038 O   0  0  0  0  0  0  0  0  0  0  0  0
    1.8721    0.4351   -0.4091 O   0  0  0  0  0  0  0  0  0  0  0  0
    0.6748    0.2487    0.6403 P   0  0  1  0  0  0  0  0  0  0  0  0
    0.3390   -1.1442    1.0060 O   0  0  0  0  0  0  0  0  0  0  0  0
    1.0273    1.1034    1.9182 O   0  0  0  0  0  0  0  0  0  0  0  0
   -0.4416    1.0164   -0.1999 O   0  0  0  0  0  0  0  0  0  0  0  0
   -1.8026    1.0597    0.2165 C   0  0  0  0  0  0  0  0  0  0  0  0
   -2.5512   -0.2361   -0.1982 C   0  0  2  0  0  0  0  0  0  0  0  0
   -3.9891    0.0494   -0.3267 C   0  0  0  0  0  0  0  0  0  0  0  0
   -4.9228   -0.7064    0.4793 C   0  0  0  0  0  0  0  0  0  0  0  0
   -6.2338   -0.3312    0.2856 O   0  0  0  0  0  0  0  0  0  0  0  0
   -4.4629    1.0566   -1.2542 C   0  0  0  0  0  0  0  0  0  0  0  0
   -2.3394   -1.3086    0.6430 O   0  0  0  0  0  0  0  0  0  0  0  0
    4.1355    0.9059   -1.9715 H   0  0  0  0  0  0  0  0  0  0  0  0
    3.5656   -2.1513   -1.6751 H   0  0  0  0  0  0  0  0  0  0  0  0
    1.2868    2.0253    1.7717 H   0  0  0  0  0  0  0  0  0  0  0  0
   -1.8985    1.1892    1.2969 H   0  0  0  0  0  0  0  0  0  0  0  0
   -2.2222    1.9375   -0.2671 H   0  0  0  0  0  0  0  0  0  0  0  0
   -2.2515   -0.4414   -1.2469 H   0  0  0  0  0  0  0  0  0  0  0  0
   -4.7105   -1.7709    0.2603 H   0  0  0  0  0  0  0  0  0  0  0  0
   -4.5643   -0.6005    1.5237 H   0  0  0  0  0  0  0  0  0  0  0  0
   -6.8057   -0.9592    0.7384 H   0  0  0  0  0  0  0  0  0  0  0  0
   -5.2764    0.6375   -1.8545 H   0  0  0  0  0  0  0  0  0  0  0  0
   -4.9438    1.8518   -0.6677 H   0  0  0  0  0  0  0  0  0  0  0  0
   -3.6939    1.4794   -1.8916 H   0  0  0  0  0  0  0  0  0  0  0  0
   -1.3796   -1.4480    0.7730 H   0  0  0  0  0  0  0  0  0  0  0  0
 13 14  1  0
 13 12  1  0
 16 11  1  0
 12 11  1  0
 12 15  1  0
 11 10  1  0
  4  2  2  0
 10  9  1  0
  2  1  1  6
  2  5  1  0
  2  3  1  0
  6  9  1  6
  5  6  1  0
  6  7  2  0
  6  8  1  0
  1 17  1  0
  3 18  1  0
  8 19  1  0
 10 20  1  0
 10 21  1  0
 11 22  1  6
 13 23  1  0
 13 24  1  0
 14 25  1  0
 15 26  1  0
 15 27  1  0
 15 28  1  0
 16 29  1  0
M  END
