
     RDKit          3D

 37 38  0  0  0  0  0  0  0  0999 V2000
    4.1804    0.7689    2.3791 C   0  0  0  0  0  0  0  0  0  0  0  0
    4.1167    0.4476    0.8939 C   0  0  1  0  0  0  0  0  0  0  0  0
    5.5123    0.1170    0.3651 C   0  0  0  0  0  0  0  0  0  0  0  0
    1.9863   -1.4302   -1.5174 C   0  0  0  0  0  0  0  0  0  0  0  0
    0.6352   -1.7905   -0.9320 C   0  0  0  0  0  0  0  0  0  0  0  0
   -1.9892   -1.8230    0.1092 C   0  0  0  0  0  0  0  0  0  0  0  0
   -3.2718   -1.7843    0.6398 C   0  0  0  0  0  0  0  0  0  0  0  0
   -3.9253   -0.5795    0.7426 C   0  0  0  0  0  0  0  0  0  0  0  0
   -3.3164    0.5983    0.3237 C   0  0  0  0  0  0  0  0  0  0  0  0
   -4.0195    1.8315    0.4372 C   0  0  0  0  0  0  0  0  0  0  0  0
    3.1595   -0.7203    0.6014 C   0  0  0  0  0  0  0  0  0  0  0  0
    2.6920   -0.4477   -0.7416 N   0  0  0  0  0  0  0  0  0  0  0  0
   -0.1290   -0.6013   -0.8480 O   0  0  0  0  0  0  0  0  0  0  0  0
   -1.3602   -0.6529   -0.3173 C   0  0  0  0  0  0  0  0  0  0  0  0
   -4.5902    2.8281    0.5238 N   0  0  0  0  0  0  0  0  0  0  0  0
   -2.0305    0.5618   -0.2055 C   0  0  0  0  0  0  0  0  0  0  0  0
    2.8119    0.8515   -1.0916 C   0  0  0  0  0  0  0  0  0  0  0  0
    2.4323    1.3476   -2.1384 O   0  0  0  0  0  0  0  0  0  0  0  0
    3.4875    1.5676    0.0569 C   0  0  0  0  0  0  0  0  0  0  0  0
    4.5665   -0.0802    2.9471 H   0  0  0  0  0  0  0  0  0  0  0  0
    4.8406    1.6172    2.5674 H   0  0  0  0  0  0  0  0  0  0  0  0
    3.1943    1.0156    2.7764 H   0  0  0  0  0  0  0  0  0  0  0  0
    5.4943   -0.1592   -0.6910 H   0  0  0  0  0  0  0  0  0  0  0  0
    6.1786    0.9742    0.4722 H   0  0  0  0  0  0  0  0  0  0  0  0
    5.9470   -0.7169    0.9189 H   0  0  0  0  0  0  0  0  0  0  0  0
    2.5781   -2.3473   -1.5767 H   0  0  0  0  0  0  0  0  0  0  0  0
    1.8686   -1.0544   -2.5332 H   0  0  0  0  0  0  0  0  0  0  0  0
    0.1524   -2.5283   -1.5816 H   0  0  0  0  0  0  0  0  0  0  0  0
    0.7477   -2.2438    0.0594 H   0  0  0  0  0  0  0  0  0  0  0  0
   -1.4997   -2.7836    0.0322 H   0  0  0  0  0  0  0  0  0  0  0  0
   -3.7543   -2.6962    0.9641 H   0  0  0  0  0  0  0  0  0  0  0  0
    3.6554   -1.6929    0.6491 H   0  0  0  0  0  0  0  0  0  0  0  0
    2.3262   -0.7358    1.3146 H   0  0  0  0  0  0  0  0  0  0  0  0
   -1.5543    1.4767   -0.5324 H   0  0  0  0  0  0  0  0  0  0  0  0
    2.7137    2.0996    0.6204 H   0  0  0  0  0  0  0  0  0  0  0  0
    4.1991    2.3141   -0.2982 H   0  0  0  0  0  0  0  0  0  0  0  0
   -5.1607   -0.5169    1.2444 F   0  0  0  0  0  0  0  0  0  0  0  0
 37  8  1  0
  7  8  1  0
  7  6  2  0
  8  9  2  0
  6 14  1  0
  9 10  1  0
  9 16  1  0
  2  3  1  6
 14 16  2  0
 14 13  1  0
 10 15  3  0
  5 13  1  0
  5  4  1  0
 19  2  1  0
 19 17  1  0
 18 17  2  0
  2 11  1  0
  2  1  1  0
 17 12  1  0
 11 12  1  0
 12  4  1  0
  1 20  1  0
  1 21  1  0
  1 22  1  0
  3 23  1  0
  3 24  1  0
  3 25  1  0
  4 26  1  0
  4 27  1  0
  5 28  1  0
  5 29  1  0
  6 30  1  0
  7 31  1  0
 11 32  1  0
 11 33  1  0
 16 34  1  0
 19 35  1  0
 19 36  1  0
M  END
