
     RDKit          3D

 47 49  0  0  0  0  0  0  0  0999 V2000
    5.6900   -2.9118   -0.2891 N   0  0  0  0  0  0  0  0  0  0  0  0
    4.8064   -1.9754   -0.1410 C   0  0  0  0  0  0  0  0  0  0  0  0
    5.3734   -0.7301   -0.1887 N   0  0  0  0  0  0  0  0  0  0  0  0
    6.7360   -0.9111   -0.3793 C   0  0  0  0  0  0  0  0  0  0  0  0
    6.8907   -2.2631   -0.4315 C   0  0  0  0  0  0  0  0  0  0  0  0
    7.7738    0.1490   -0.4513 C   0  0  0  0  0  0  0  0  0  0  0  0
   -5.6647   -0.7743   -0.2492 C   0  0  0  0  0  0  0  0  0  0  0  0
    5.2367    1.5694   -0.4783 N   0  0  0  0  0  0  0  0  0  0  0  0
    4.6473    0.4620   -0.0751 C   0  0  0  0  0  0  0  0  0  0  0  0
    3.4304    0.3440    0.4219 N   0  0  0  0  0  0  0  0  0  0  0  0
    2.7019    1.4524    0.5207 C   0  0  0  0  0  0  0  0  0  0  0  0
    3.2277    2.6798    0.1315 C   0  0  0  0  0  0  0  0  0  0  0  0
    4.5185    2.6796   -0.3602 C   0  0  0  0  0  0  0  0  0  0  0  0
    1.3108    1.3139    1.0499 C   0  0  0  0  0  0  0  0  0  0  0  0
    0.4188    0.5214    0.0948 C   0  0  0  0  0  0  0  0  0  0  0  0
   -0.9393    0.4786    0.5944 N   0  0  0  0  0  0  0  0  0  0  0  0
   -6.3911    0.2711   -0.8150 C   0  0  0  0  0  0  0  0  0  0  0  0
   -1.8328   -0.2839   -0.2572 C   0  0  0  0  0  0  0  0  0  0  0  0
   -3.2749   -0.1561    0.2064 C   0  0  0  0  0  0  0  0  0  0  0  0
   -4.2319   -0.9915   -0.6453 C   0  0  0  0  0  0  0  0  0  0  0  0
   -7.6928    0.4893   -0.4097 C   0  0  0  0  0  0  0  0  0  0  0  0
   -8.3152   -0.2922    0.5441 C   0  0  0  0  0  0  0  0  0  0  0  0
   -7.5867   -1.3325    1.1058 C   0  0  0  0  0  0  0  0  0  0  0  0
   -6.2762   -1.5721    0.7155 C   0  0  0  0  0  0  0  0  0  0  0  0
   -8.3792    1.5015   -0.9686 F   0  0  0  0  0  0  0  0  0  0  0  0
    3.7455   -2.1106   -0.0079 H   0  0  0  0  0  0  0  0  0  0  0  0
    7.8180   -2.8009   -0.5611 H   0  0  0  0  0  0  0  0  0  0  0  0
    7.7584    0.7993    0.4229 H   0  0  0  0  0  0  0  0  0  0  0  0
    8.7503   -0.3313   -0.4952 H   0  0  0  0  0  0  0  0  0  0  0  0
    7.6651    0.7831   -1.3290 H   0  0  0  0  0  0  0  0  0  0  0  0
    4.9937    3.6004   -0.6771 H   0  0  0  0  0  0  0  0  0  0  0  0
    2.6572    3.5933    0.2139 H   0  0  0  0  0  0  0  0  0  0  0  0
    1.3528    0.8027    2.0160 H   0  0  0  0  0  0  0  0  0  0  0  0
    0.8769    2.3004    1.2192 H   0  0  0  0  0  0  0  0  0  0  0  0
    0.4072    1.0155   -0.8817 H   0  0  0  0  0  0  0  0  0  0  0  0
    0.8565   -0.4754   -0.0660 H   0  0  0  0  0  0  0  0  0  0  0  0
   -0.9375    0.0628    1.5190 H   0  0  0  0  0  0  0  0  0  0  0  0
   -1.7503    0.1100   -1.2751 H   0  0  0  0  0  0  0  0  0  0  0  0
   -1.5530   -1.3480   -0.3193 H   0  0  0  0  0  0  0  0  0  0  0  0
   -3.3604   -0.4670    1.2526 H   0  0  0  0  0  0  0  0  0  0  0  0
   -3.5703    0.8960    0.1685 H   0  0  0  0  0  0  0  0  0  0  0  0
   -3.9763   -2.0501   -0.5506 H   0  0  0  0  0  0  0  0  0  0  0  0
   -4.1003   -0.7304   -1.6988 H   0  0  0  0  0  0  0  0  0  0  0  0
   -5.7230   -2.3895    1.1616 H   0  0  0  0  0  0  0  0  0  0  0  0
   -8.0517   -1.9618    1.8533 H   0  0  0  0  0  0  0  0  0  0  0  0
   -9.3381   -0.0970    0.8378 H   0  0  0  0  0  0  0  0  0  0  0  0
   -5.9450    0.9085   -1.5695 H   0  0  0  0  0  0  0  0  0  0  0  0
  1  2  2  0
  1  5  1  0
  2  3  1  0
  2 26  1  0
  3  4  1  0
  3  9  1  0
  4  5  2  0
  4  6  1  0
  5 27  1  0
  6 28  1  0
  6 29  1  0
  6 30  1  0
  7 17  2  0
  7 20  1  0
  7 24  1  0
  8  9  2  0
  8 13  1  0
  9 10  1  0
 10 11  2  0
 11 12  1  0
 11 14  1  0
 12 13  2  0
 12 32  1  0
 13 31  1  0
 14 15  1  0
 14 33  1  0
 14 34  1  0
 15 16  1  0
 15 35  1  0
 15 36  1  0
 16 18  1  0
 16 37  1  0
 17 21  1  0
 17 47  1  0
 18 19  1  0
 18 38  1  0
 18 39  1  0
 19 20  1  0
 19 40  1  0
 19 41  1  0
 20 42  1  0
 20 43  1  0
 21 22  2  0
 21 25  1  0
 22 23  1  0
 22 46  1  0
 23 24  2  0
 23 45  1  0
 24 44  1  0
M  END
