
     RDKit          3D

 29 29  0  0  0  0  0  0  0  0999 V2000
    0.1821    2.3755   -0.1979 O   0  0  0  0  0  0  0  0  0  0  0  0
    0.7672    1.2379    0.3758 C   0  0  2  0  0  0  0  0  0  0  0  0
    2.1902    1.0220   -0.1301 C   0  0  1  0  0  0  0  0  0  0  0  0
    2.9342    2.1438    0.2848 O   0  0  0  0  0  0  0  0  0  0  0  0
   -0.1179    0.0485    0.0376 C   0  0  2  0  0  0  0  0  0  0  0  0
   -1.3876    0.2677    0.6563 O   0  0  0  0  0  0  0  0  0  0  0  0
   -2.7588   -0.0027   -0.1398 P   0  0  1  0  0  0  0  0  0  0  0  0
   -3.8382    0.2673    1.0025 O   0  0  0  0  0  0  0  0  0  0  0  0
   -2.9340    0.7751   -1.3828 O   0  0  0  0  0  0  0  0  0  0  0  0
   -2.8322   -1.5763   -0.3123 O   0  0  0  0  0  0  0  0  0  0  0  0
    0.4799   -1.2406    0.5904 C   0  0  1  0  0  0  0  0  0  0  0  0
   -0.3772   -2.3176    0.2481 O   0  0  0  0  0  0  0  0  0  0  0  0
    1.8875   -1.4693    0.0563 C   0  0  1  0  0  0  0  0  0  0  0  0
    1.8118   -1.6568   -1.3342 O   0  0  0  0  0  0  0  0  0  0  0  0
    2.7738   -0.2751    0.4165 C   0  0  1  0  0  0  0  0  0  0  0  0
    4.0602   -0.4185   -0.1453 O   0  0  0  0  0  0  0  0  0  0  0  0
    0.7456    3.1307    0.0023 H   0  0  0  0  0  0  0  0  0  0  0  0
    0.8075    1.3291    1.4740 H   0  0  0  0  0  0  0  0  0  0  0  0
    2.1616    0.9605   -1.2275 H   0  0  0  0  0  0  0  0  0  0  0  0
   -0.2246   -0.0204   -1.0517 H   0  0  0  0  0  0  0  0  0  0  0  0
    3.7925    2.1181   -0.1495 H   0  0  0  0  0  0  0  0  0  0  0  0
    2.8302   -0.2033    1.5119 H   0  0  0  0  0  0  0  0  0  0  0  0
    0.5425   -1.1449    1.6815 H   0  0  0  0  0  0  0  0  0  0  0  0
   -4.2255    1.1519    0.9685 H   0  0  0  0  0  0  0  0  0  0  0  0
   -1.9735   -2.0173   -0.0791 H   0  0  0  0  0  0  0  0  0  0  0  0
   -0.2323   -3.0482    0.8598 H   0  0  0  0  0  0  0  0  0  0  0  0
    2.2977   -2.3632    0.5530 H   0  0  0  0  0  0  0  0  0  0  0  0
    2.7131   -1.6686   -1.6763 H   0  0  0  0  0  0  0  0  0  0  0  0
    4.5614   -1.0522    0.3780 H   0  0  0  0  0  0  0  0  0  0  0  0
  1  2  1  0
  2  3  1  0
  2  5  1  0
  3  4  1  0
  3 15  1  0
  5  6  1  0
  5 11  1  0
  7  6  1  1
  7  8  1  0
  7  9  2  0
  7 10  1  0
 11 12  1  0
 11 13  1  0
 13 14  1  0
 13 15  1  0
 15 16  1  0
  1 17  1  0
  2 18  1  1
  3 19  1  6
  5 20  1  6
  4 21  1  0
 15 22  1  1
 11 23  1  1
  8 24  1  0
 10 25  1  0
 12 26  1  0
 13 27  1  1
 14 28  1  0
 16 29  1  0
M  END
