
     RDKit          3D

  4  3  0  0  0  0  0  0  0  0999 V2000
  -26.7125   -6.2127   -0.7214 C   0  0  0  0  0  0  0  0  0  0  0  0
  -25.6359   -6.2337   -0.6716 H   0  0  0  0  0  0  0  0  0  0  0  0
  -27.2943   -6.2323    0.1859 H   0  0  0  0  0  0  0  0  0  0  0  0
  -27.2067   -6.1696   -1.6782 H   0  0  0  0  0  0  0  0  0  0  0  0
  1  2  1  0
  1  3  1  0
  1  4  1  0
M  END
