
     RDKit          3D

 15 15  0  0  0  0  0  0  0  0999 V2000
   -0.0087   -0.0300   -3.3483 Cl  0  0  0  0  0  0  0  0  0  0  0  0
   -0.0168   -0.0243   -1.6204 C   0  0  0  0  0  0  0  0  0  0  0  0
   -1.2290   -0.0334   -0.9455 C   0  0  0  0  0  0  0  0  0  0  0  0
   -1.2263   -0.0296    0.4380 C   0  0  0  0  0  0  0  0  0  0  0  0
    1.1891   -0.0109   -0.9358 C   0  0  0  0  0  0  0  0  0  0  0  0
    1.1793   -0.0058    0.4493 C   0  0  0  0  0  0  0  0  0  0  0  0
   -0.0271   -0.0153    1.1469 C   0  0  0  0  0  0  0  0  0  0  0  0
   -0.0860   -0.0143    2.6295 C   0  0  0  0  0  0  0  0  0  0  0  0
    1.1113    0.0301    3.1947 O   0  0  0  0  0  0  0  0  0  0  0  0
   -1.1164   -0.0501    3.2579 O   0  0  0  0  0  0  0  0  0  0  0  0
   -2.1634   -0.0448   -1.4894 H   0  0  0  0  0  0  0  0  0  0  0  0
   -2.1697   -0.0379    0.9667 H   0  0  0  0  0  0  0  0  0  0  0  0
    2.1272   -0.0051   -1.4731 H   0  0  0  0  0  0  0  0  0  0  0  0
    2.1250    0.0045    0.9729 H   0  0  0  0  0  0  0  0  0  0  0  0
    1.0215    0.0242    4.1592 H   0  0  0  0  0  0  0  0  0  0  0  0
  1  2  1  0
  2  3  2  0
  2  5  1  0
  3  4  1  0
  3 11  1  0
  4  7  2  0
  4 12  1  0
  5  6  2  0
  5 13  1  0
  6  7  1  0
  6 14  1  0
  7  8  1  0
  8  9  1  0
  8 10  2  0
  9 15  1  0
M  END
