
     RDKit          3D

 10 10  0  0  0  0  0  0  0  0999 V2000
    0.0189   -1.3419    0.0037 C   0  0  0  0  0  0  0  0  0  0  0  0
    1.1805   -0.5890    0.0247 C   0  0  0  0  0  0  0  0  0  0  0  0
    1.1595    0.7389    0.0548 N   0  0  0  0  0  0  0  0  0  0  0  0
   -1.1731   -0.6377    0.0155 C   0  0  0  0  0  0  0  0  0  0  0  0
   -1.2072    0.6900    0.0454 N   0  0  0  0  0  0  0  0  0  0  0  0
   -0.0362    1.3093    0.0636 C   0  0  0  0  0  0  0  0  0  0  0  0
    0.0411   -2.4214   -0.0203 H   0  0  0  0  0  0  0  0  0  0  0  0
    2.1546   -1.0648    0.0172 H   0  0  0  0  0  0  0  0  0  0  0  0
   -2.1260   -1.1542    0.0001 H   0  0  0  0  0  0  0  0  0  0  0  0
   -0.0587    2.3934    0.0881 H   0  0  0  0  0  0  0  0  0  0  0  0
  1  2  2  0
  1  4  1  0
  1  7  1  0
  2  3  1  0
  2  8  1  0
  3  6  2  0
  4  5  2  0
  4  9  1  0
  5  6  1  0
  6 10  1  0
M  END
