
     RDKit          3D

 40 42  0  0  0  0  0  0  0  0999 V2000
   -4.1490   -1.4452   -0.2994 C   0  0  0  0  0  0  0  0  0  0  0  0
    0.4506   -0.1143    1.5252 C   0  0  0  0  0  0  0  0  0  0  0  0
   -3.1341   -0.3365   -0.3619 C   0  0  0  0  0  0  0  0  0  0  0  0
   -1.6814   -1.2759    1.4251 C   0  0  0  0  0  0  0  0  0  0  0  0
   -3.1830    0.6826   -1.2342 C   0  0  0  0  0  0  0  0  0  0  0  0
   -1.0542    0.5958    0.0291 C   0  0  0  0  0  0  0  0  0  0  0  0
   -0.3718   -1.1067    1.9689 C   0  0  0  0  0  0  0  0  0  0  0  0
   -5.2876   -1.1109    0.3066 N   0  0  0  0  0  0  0  0  0  0  0  0
   -6.4036   -2.0301    0.4374 C   0  0  0  0  0  0  0  0  0  0  0  0
   -3.9392   -2.5082   -0.8561 O   0  0  0  0  0  0  0  0  0  0  0  0
   -1.7138    1.6219   -1.1911 S   0  0  0  0  0  0  0  0  0  0  0  0
   -1.9428   -0.3815    0.3614 N   0  0  0  0  0  0  0  0  0  0  0  0
   -2.5367   -2.0675    1.7732 O   0  0  0  0  0  0  0  0  0  0  0  0
    0.1132    0.7641    0.5590 N   0  0  0  0  0  0  0  0  0  0  0  0
    2.7943    0.4020    1.1333 N   0  0  0  0  0  0  0  0  0  0  0  0
    3.1849    1.6095    0.6741 C   0  0  0  0  0  0  0  0  0  0  0  0
    4.0510    1.4046   -0.3675 C   0  0  0  0  0  0  0  0  0  0  0  0
    4.0989    0.0074   -0.4625 C   0  0  0  0  0  0  0  0  0  0  0  0
    3.3394   -0.5827    0.4345 N   0  0  0  0  0  0  0  0  0  0  0  0
    4.9000   -0.7926   -1.4252 C   0  0  1  0  0  0  0  0  0  0  0  0
    6.2130   -0.5784   -1.2669 F   0  0  0  0  0  0  0  0  0  0  0  0
    4.6861   -2.0994   -1.2861 F   0  0  0  0  0  0  0  0  0  0  0  0
    4.6095   -0.4632   -2.6902 F   0  0  0  0  0  0  0  0  0  0  0  0
    2.6454    3.0638    1.3545 Cl  0  0  0  0  0  0  0  0  0  0  0  0
   -4.2589    1.0421   -2.1946 C   0  0  0  0  0  0  0  0  0  0  0  0
   -0.0620   -1.7797    2.7558 H   0  0  0  0  0  0  0  0  0  0  0  0
   -5.3352   -0.2272    0.7901 H   0  0  0  0  0  0  0  0  0  0  0  0
   -8.4176   -2.0318    1.1786 H   0  0  0  0  0  0  0  0  0  0  0  0
   -7.3311   -1.0019    2.1049 H   0  0  0  0  0  0  0  0  0  0  0  0
   -7.9119   -0.4784    0.5187 H   0  0  0  0  0  0  0  0  0  0  0  0
   -6.6882   -2.3926   -0.5519 H   0  0  0  0  0  0  0  0  0  0  0  0
   -6.0976   -2.9013    1.0221 H   0  0  0  0  0  0  0  0  0  0  0  0
    1.7638    0.9161    2.8561 H   0  0  0  0  0  0  0  0  0  0  0  0
    2.1351   -0.7928    2.6762 H   0  0  0  0  0  0  0  0  0  0  0  0
    4.5626    2.1465   -0.9565 H   0  0  0  0  0  0  0  0  0  0  0  0
   -4.6487    2.0381   -1.9842 H   0  0  0  0  0  0  0  0  0  0  0  0
   -3.8821    1.0411   -3.2173 H   0  0  0  0  0  0  0  0  0  0  0  0
   -5.0863    0.3386   -2.1374 H   0  0  0  0  0  0  0  0  0  0  0  0
    1.8079    0.0948    2.1401 C   0  0  0  0  0  0  0  0  0  0  0  0
   -7.5806   -1.3403    1.0987 C   0  0  0  0  0  0  0  0  0  0  0  0
 20 21  1  1
 23 20  1  0
 20 22  1  0
 20 18  1  0
 18 19  2  0
 18 17  1  0
 19 15  1  0
 17 16  2  0
 15 16  1  0
 15 39  1  0
 16 24  1  0
 39  2  1  0
 14  2  1  0
 14  6  2  0
  2  7  2  0
  6 11  1  0
  6 12  1  0
  7  4  1  0
 11  5  1  0
 12  4  1  0
 12  3  1  0
 40  9  1  0
  4 13  2  0
  8  9  1  0
  8  1  1  0
  5  3  2  0
  5 25  1  0
  3  1  1  0
  1 10  2  0
  7 26  1  0
  8 27  1  0
 40 28  1  0
 40 29  1  0
 40 30  1  0
  9 31  1  0
  9 32  1  0
 39 33  1  0
 39 34  1  0
 17 35  1  0
 25 36  1  0
 25 37  1  0
 25 38  1  0
M  END
