
     RDKit          3D

 19 19  0  0  0  0  0  0  0  0999 V2000
    3.8174   -2.9450    0.4518 N   0  0  0  0  0  0  0  0  0  0  0  0
    1.5629   -2.9177    0.8983 N   0  0  0  0  0  0  0  0  0  0  0  0
    1.4694   -1.6477    0.3512 C   0  0  0  0  0  0  0  0  0  0  0  0
    2.4705   -1.1318   -0.3610 C   0  0  0  0  0  0  0  0  0  0  0  0
    3.6818   -1.9787   -0.6033 C   0  0  2  0  0  0  0  0  0  0  0  0
    3.5436   -2.6518   -1.9703 C   0  0  0  0  0  0  0  0  0  0  0  0
    3.6039   -1.7605   -2.9446 O   0  0  0  0  0  0  0  0  0  0  0  0
    0.2287   -0.8575    0.5794 C   0  0  0  0  0  0  0  0  0  0  0  0
   -0.6537   -1.5221    1.3044 O   0  0  0  0  0  0  0  0  0  0  0  0
    0.0597    0.2514    0.1432 O   0  0  0  0  0  0  0  0  0  0  0  0
    2.7648   -3.5677    1.0401 C   0  0  0  0  0  0  0  0  0  0  0  0
    2.8662   -4.5958    1.6875 O   0  0  0  0  0  0  0  0  0  0  0  0
    4.6967   -3.4351    0.5144 H   0  0  0  0  0  0  0  0  0  0  0  0
    0.7862   -3.3034    1.4120 H   0  0  0  0  0  0  0  0  0  0  0  0
    2.4177   -0.1363   -0.7728 H   0  0  0  0  0  0  0  0  0  0  0  0
    4.5754   -1.3495   -0.6215 H   0  0  0  0  0  0  0  0  0  0  0  0
    3.4834   -2.1875   -3.8068 H   0  0  0  0  0  0  0  0  0  0  0  0
   -1.4578   -0.9963    1.4344 H   0  0  0  0  0  0  0  0  0  0  0  0
    3.3772   -3.8317   -2.1238 O   0  0  0  0  0  0  0  0  0  0  0  0
  1 11  1  0
  1  5  1  0
  1 13  1  0
  2  3  1  0
  2 11  1  0
  2 14  1  0
  3  8  1  0
  3  4  2  0
  4  5  1  0
  4 15  1  0
  5  6  1  0
  5 16  1  6
 19  6  2  0
  6  7  1  0
  7 17  1  0
  8 10  2  0
  8  9  1  0
  9 18  1  0
 11 12  2  0
M  END
