
     RDKit          3D

 42 44  0  0  0  0  0  0  0  0999 V2000
   -5.8888   -1.7527    1.8702 C   0  0  0  0  0  0  0  0  0  0  0  0
   -4.8072   -1.9165    0.8574 C   0  0  0  0  0  0  0  0  0  0  0  0
   -1.7357    1.5983   -1.0567 C   0  0  0  0  0  0  0  0  0  0  0  0
   -0.7025    1.9830   -0.0275 C   0  0  2  0  0  0  0  0  0  0  0  0
    0.5110    2.6902   -0.6260 C   0  0  2  0  0  0  0  0  0  0  0  0
    1.5896    2.3669    0.4156 C   0  0  2  0  0  0  0  0  0  0  0  0
    1.2156    0.9386    0.8098 C   0  0  2  0  0  0  0  0  0  0  0  0
    1.5358   -0.6590   -1.1530 C   0  0  0  0  0  0  0  0  0  0  0  0
    3.4395   -1.4501   -0.6971 C   0  0  0  0  0  0  0  0  0  0  0  0
    3.1446   -0.5620    0.3238 C   0  0  0  0  0  0  0  0  0  0  0  0
    5.0461   -0.9469    1.3469 C   0  0  0  0  0  0  0  0  0  0  0  0
    4.6802   -2.1097   -0.6066 C   0  0  0  0  0  0  0  0  0  0  0  0
    1.9126   -0.0594    0.0191 N   0  0  0  0  0  0  0  0  0  0  0  0
    2.4185   -1.4968   -1.6094 N   0  0  0  0  0  0  0  0  0  0  0  0
    3.9118   -0.2679    1.3709 N   0  0  0  0  0  0  0  0  0  0  0  0
    5.4631   -1.8272    0.4412 N   0  0  0  0  0  0  0  0  0  0  0  0
    5.0975   -2.9900   -1.5155 N   0  0  0  0  0  0  0  0  0  0  0  0
   -4.4367   -2.9388    0.3577 O   0  0  0  0  0  0  0  0  0  0  0  0
   -4.2448   -0.7206    0.5336 O   0  0  0  0  0  0  0  0  0  0  0  0
   -3.5069   -1.0690   -1.9600 O   0  0  0  0  0  0  0  0  0  0  0  0
   -1.8156   -1.3896   -0.0917 O   0  0  0  0  0  0  0  0  0  0  0  0
   -2.8373    0.9399   -0.4171 O   0  0  0  0  0  0  0  0  0  0  0  0
   -0.1666    0.8154    0.5957 O   0  0  0  0  0  0  0  0  0  0  0  0
    1.4386    3.1661    1.5547 O   0  0  0  0  0  0  0  0  0  0  0  0
    0.2506    4.0542   -0.7715 O   0  0  0  0  0  0  0  0  0  0  0  0
   -3.0950   -0.6182   -0.6239 P   0  0  2  0  0  0  0  0  0  0  0  0
   -6.6911   -1.1373    1.4611 H   0  0  0  0  0  0  0  0  0  0  0  0
   -6.2901   -2.7212    2.1526 H   0  0  0  0  0  0  0  0  0  0  0  0
   -5.5095   -1.2423    2.7553 H   0  0  0  0  0  0  0  0  0  0  0  0
   -2.1240    2.5011   -1.5274 H   0  0  0  0  0  0  0  0  0  0  0  0
   -1.3010    0.9803   -1.8480 H   0  0  0  0  0  0  0  0  0  0  0  0
   -1.1683    2.6199    0.7330 H   0  0  0  0  0  0  0  0  0  0  0  0
    0.7819    2.2251   -1.5831 H   0  0  0  0  0  0  0  0  0  0  0  0
    2.6045    2.4216    0.0040 H   0  0  0  0  0  0  0  0  0  0  0  0
    1.4621    0.7413    1.8558 H   0  0  0  0  0  0  0  0  0  0  0  0
    0.5900   -0.4539   -1.6284 H   0  0  0  0  0  0  0  0  0  0  0  0
    5.7300   -0.7652    2.1692 H   0  0  0  0  0  0  0  0  0  0  0  0
    4.5269   -3.2336   -2.3059 H   0  0  0  0  0  0  0  0  0  0  0  0
    5.9902   -3.4412   -1.4138 H   0  0  0  0  0  0  0  0  0  0  0  0
   -1.2623   -0.8977    0.5394 H   0  0  0  0  0  0  0  0  0  0  0  0
    1.2681    4.0705    1.2642 H   0  0  0  0  0  0  0  0  0  0  0  0
    0.8500    4.4186   -1.4307 H   0  0  0  0  0  0  0  0  0  0  0  0
  1  2  1  0
 18  2  2  0
 20 26  2  0
  2 19  1  0
 26 19  1  1
 17 12  1  0
 26 22  1  0
 26 21  1  0
 14  8  2  0
 14  9  1  0
  8 13  1  0
 22  3  1  0
 12  9  2  0
 12 16  1  0
  9 10  1  0
 23  7  1  0
 23  4  1  0
 13 10  1  0
 13  7  1  0
 16 11  2  0
 10 15  2  0
  3  4  1  0
  7  6  1  0
 11 15  1  0
  4  5  1  0
  6  5  1  0
  6 24  1  0
  5 25  1  0
  1 27  1  0
  1 28  1  0
  1 29  1  0
  3 30  1  0
  3 31  1  0
  4 32  1  1
  5 33  1  6
  6 34  1  6
  7 35  1  1
  8 36  1  0
 11 37  1  0
 17 38  1  0
 17 39  1  0
 21 40  1  0
 24 41  1  0
 25 42  1  0
M  END
