
     RDKit          3D

 27 28  0  0  0  0  0  0  0  0999 V2000
   -2.1267    4.0905    5.9260 N   0  0  0  0  0  0  0  0  0  0  0  0
   -1.3897    2.8576    5.7881 C   0  0  1  0  0  0  0  0  0  0  0  0
   -2.3099    1.6213    5.8626 C   0  0  0  0  0  0  0  0  0  0  0  0
   -1.5516    0.3711    5.9945 C   0  0  0  0  0  0  0  0  0  0  0  0
   -0.8878   -0.1319    7.1808 C   0  0  0  0  0  0  0  0  0  0  0  0
   -0.2827   -1.3922    6.8106 C   0  0  0  0  0  0  0  0  0  0  0  0
   -0.7297    0.3230    8.5045 C   0  0  0  0  0  0  0  0  0  0  0  0
   -1.3348   -0.5664    4.9818 C   0  0  0  0  0  0  0  0  0  0  0  0
   -0.5724   -1.6295    5.4658 N   0  0  0  0  0  0  0  0  0  0  0  0
    0.4488   -2.1594    7.7326 C   0  0  0  0  0  0  0  0  0  0  0  0
    0.0016   -0.4509    9.4136 C   0  0  0  0  0  0  0  0  0  0  0  0
   -1.2755    1.4960    8.9041 F   0  0  0  0  0  0  0  0  0  0  0  0
    0.5759   -1.6693    9.0216 C   0  0  0  0  0  0  0  0  0  0  0  0
   -0.6066    2.7920    4.4789 C   0  0  0  0  0  0  0  0  0  0  0  0
   -1.0343    2.7024    3.3237 O   0  0  0  0  0  0  0  0  0  0  0  0
    0.7426    2.8408    4.6339 O   0  0  0  0  0  0  0  0  0  0  0  0
   -2.8238    4.1842    5.2152 H   0  0  0  0  0  0  0  0  0  0  0  0
   -1.5131    4.8800    5.9127 H   0  0  0  0  0  0  0  0  0  0  0  0
   -0.6487    2.7985    6.6431 H   0  0  0  0  0  0  0  0  0  0  0  0
   -2.9793    1.7408    6.7589 H   0  0  0  0  0  0  0  0  0  0  0  0
   -2.9541    1.5840    4.9435 H   0  0  0  0  0  0  0  0  0  0  0  0
   -1.6746   -0.5472    3.9431 H   0  0  0  0  0  0  0  0  0  0  0  0
   -0.2840   -2.4169    4.9510 H   0  0  0  0  0  0  0  0  0  0  0  0
    0.9034   -3.1148    7.4390 H   0  0  0  0  0  0  0  0  0  0  0  0
    0.1246   -0.0952   10.4462 H   0  0  0  0  0  0  0  0  0  0  0  0
    1.1433   -2.2475    9.7672 H   0  0  0  0  0  0  0  0  0  0  0  0
    1.1778    2.7950    3.7670 H   0  0  0  0  0  0  0  0  0  0  0  0
  1  2  1  0
  1 17  1  0
  1 18  1  0
  2  3  1  0
  2 14  1  0
  2 19  1  1
  3  4  1  0
  3 20  1  0
  3 21  1  0
  4  5  1  0
  4  8  2  0
  5  6  2  0
  5  7  1  0
  6  9  1  0
  6 10  1  0
  7 11  2  0
  7 12  1  0
  8  9  1  0
  8 22  1  0
  9 23  1  0
 10 13  2  0
 10 24  1  0
 11 13  1  0
 11 25  1  0
 13 26  1  0
 14 15  2  0
 14 16  1  0
 16 27  1  0
M  END
