
     RDKit          3D

 36 38  0  0  0  0  0  0  0  0999 V2000
    2.2247   -3.9313   -0.6773 Cl  0  0  0  0  0  0  0  0  0  0  0  0
    2.2760   -2.2180   -0.4765 C   0  0  0  0  0  0  0  0  0  0  0  0
    2.7211   -1.4255   -1.5253 C   0  0  0  0  0  0  0  0  0  0  0  0
    2.7559   -0.0509   -1.3666 C   0  0  0  0  0  0  0  0  0  0  0  0
    1.8732   -1.6639    0.7290 C   0  0  0  0  0  0  0  0  0  0  0  0
    1.9095   -0.2885    0.8869 C   0  0  0  0  0  0  0  0  0  0  0  0
    2.3512    0.5075   -0.1611 C   0  0  0  0  0  0  0  0  0  0  0  0
    2.2960    2.2689   -0.0022 S   0  0  1  0  0  0  0  0  0  0  0  0
    2.3234    2.5931    1.4110 O   0  0  0  0  0  0  0  0  0  0  0  0
    3.2619    2.8549   -0.9135 O   0  0  0  0  0  0  0  0  0  0  0  0
    0.8007    2.7190   -0.5803 N   0  0  0  0  0  0  0  0  0  0  0  0
   -0.3440    2.1395    0.0362 C   0  0  0  0  0  0  0  0  0  0  0  0
   -0.8281    2.7089    1.2198 C   0  0  0  0  0  0  0  0  0  0  0  0
   -1.9319    2.1754    1.8624 C   0  0  0  0  0  0  0  0  0  0  0  0
   -0.9463    1.0306   -0.5401 C   0  0  0  0  0  0  0  0  0  0  0  0
   -2.0681    0.4959    0.0858 C   0  0  0  0  0  0  0  0  0  0  0  0
   -2.9632   -0.6095   -0.1588 C   0  0  0  0  0  0  0  0  0  0  0  0
   -2.8530   -1.5023   -1.3090 C   0  0  0  0  0  0  0  0  0  0  0  0
   -2.0094   -1.3673   -2.1648 O   0  0  0  0  0  0  0  0  0  0  0  0
   -3.7582   -2.4718   -1.3323 O   0  0  0  0  0  0  0  0  0  0  0  0
   -2.5197    1.0768    1.2662 C   0  0  0  0  0  0  0  0  0  0  0  0
   -3.6032    0.4047    1.7235 O   0  0  0  0  0  0  0  0  0  0  0  0
   -3.8651   -0.6056    0.8688 C   0  0  0  0  0  0  0  0  0  0  0  0
   -5.0314   -1.4378    1.2347 C   0  0  0  0  0  0  0  0  0  0  0  0
    3.0383   -1.8707   -2.4577 H   0  0  0  0  0  0  0  0  0  0  0  0
    3.1028    0.5659   -2.1846 H   0  0  0  0  0  0  0  0  0  0  0  0
    1.5329   -2.2923    1.5401 H   0  0  0  0  0  0  0  0  0  0  0  0
    1.5947    0.1434    1.8265 H   0  0  0  0  0  0  0  0  0  0  0  0
    0.7826    2.6998   -1.5955 H   0  0  0  0  0  0  0  0  0  0  0  0
   -0.3386    3.5827    1.6259 H   0  0  0  0  0  0  0  0  0  0  0  0
   -2.3154    2.6052    2.7776 H   0  0  0  0  0  0  0  0  0  0  0  0
   -0.5498    0.5975   -1.4476 H   0  0  0  0  0  0  0  0  0  0  0  0
   -3.6334   -3.0203   -2.1213 H   0  0  0  0  0  0  0  0  0  0  0  0
   -4.8888   -1.8734    2.2251 H   0  0  0  0  0  0  0  0  0  0  0  0
   -5.9339   -0.8253    1.2744 H   0  0  0  0  0  0  0  0  0  0  0  0
   -5.1910   -2.2404    0.5257 H   0  0  0  0  0  0  0  0  0  0  0  0
  9  8  2  0
 10  8  2  0
  8  7  1  0
  8 11  1  6
  7  4  2  0
  7  6  1  0
  4  3  1  0
  6  5  2  0
 11 12  1  0
  3  2  2  0
  5  2  1  0
  2  1  1  0
 12 13  2  0
 12 15  1  0
 13 14  1  0
 15 16  2  0
 14 21  2  0
 16 21  1  0
 16 17  1  0
 21 22  1  0
 19 18  2  0
 17 18  1  0
 17 23  2  0
 22 23  1  0
 18 20  1  0
 23 24  1  0
  3 25  1  0
  4 26  1  0
  5 27  1  0
  6 28  1  0
 11 29  1  0
 13 30  1  0
 14 31  1  0
 15 32  1  0
 20 33  1  0
 24 34  1  0
 24 35  1  0
 24 36  1  0
M  END
