
     RDKit          3D

 59 61  0  0  0  0  0  0  0  0999 V2000
   -7.5512   -0.4264   -1.4179 C   0  0  0  0  0  0  0  0  0  0  0  0
   -6.0810   -0.2599   -1.1430 C   0  0  0  0  0  0  0  0  0  0  0  0
   -3.3375    0.0862   -0.6762 C   0  0  0  0  0  0  0  0  0  0  0  0
   -1.9462    0.2624   -0.4413 C   0  0  0  0  0  0  0  0  0  0  0  0
  -10.3980   -0.5815    1.6624 O   0  0  0  0  0  0  0  0  0  0  0  0
   -0.7633    0.4096   -0.2458 C   0  0  0  0  0  0  0  0  0  0  0  0
    0.6285    0.5765   -0.0127 C   0  0  0  0  0  0  0  0  0  0  0  0
    7.6745   -0.5935    1.4175 C   0  0  1  0  0  0  0  0  0  0  0  0
    3.3733    0.9028    0.4297 C   0  0  0  0  0  0  0  0  0  0  0  0
    4.8284    1.1370    0.6773 C   0  0  0  0  0  0  0  0  0  0  0  0
    7.0957    0.2837    0.2854 C   0  0  1  0  0  0  0  0  0  0  0  0
    7.1640   -0.1767    2.7854 C   0  0  0  0  0  0  0  0  0  0  0  0
    7.6742   -0.1615   -1.0572 C   0  0  0  0  0  0  0  0  0  0  0  0
   -9.0337   -0.6925    2.0040 C   0  0  0  0  0  0  0  0  0  0  0  0
  -10.5800    0.3550    0.6237 C   0  0  0  0  0  0  0  0  0  0  0  0
   -8.1874   -1.0804    0.8073 C   0  0  0  0  0  0  0  0  0  0  0  0
   -9.7707   -0.0098   -0.6061 C   0  0  0  0  0  0  0  0  0  0  0  0
   -8.3642   -0.1138   -0.2616 N   0  0  0  0  0  0  0  0  0  0  0  0
   -5.1732   -1.2623   -1.4673 C   0  0  0  0  0  0  0  0  0  0  0  0
   -5.6004    0.9186   -0.5728 C   0  0  0  0  0  0  0  0  0  0  0  0
   -3.8160   -1.0982   -1.2407 C   0  0  0  0  0  0  0  0  0  0  0  0
   -4.2490    1.0959   -0.3435 C   0  0  0  0  0  0  0  0  0  0  0  0
    1.4831   -0.5298   -0.0143 C   0  0  0  0  0  0  0  0  0  0  0  0
    1.1630    1.8470    0.2265 C   0  0  0  0  0  0  0  0  0  0  0  0
    2.8386   -0.3649    0.2047 C   0  0  0  0  0  0  0  0  0  0  0  0
    2.5173    2.0024    0.4522 C   0  0  0  0  0  0  0  0  0  0  0  0
    5.2156    2.1309    1.2716 O   0  0  0  0  0  0  0  0  0  0  0  0
    5.6611    0.1883    0.2017 N   0  0  0  0  0  0  0  0  0  0  0  0
    8.9554    0.2022   -1.2224 N   0  0  0  0  0  0  0  0  0  0  0  0
    7.0418   -0.8191   -1.8619 O   0  0  0  0  0  0  0  0  0  0  0  0
    9.5792   -0.0333   -2.4088 O   0  0  0  0  0  0  0  0  0  0  0  0
   -7.8374    0.2567   -2.2242 H   0  0  0  0  0  0  0  0  0  0  0  0
   -7.7413   -1.4449   -1.7954 H   0  0  0  0  0  0  0  0  0  0  0  0
    8.7602   -0.4652    1.4018 H   0  0  0  0  0  0  0  0  0  0  0  0
    7.3746    1.3227    0.4796 H   0  0  0  0  0  0  0  0  0  0  0  0
    7.6533   -0.7665    3.5606 H   0  0  0  0  0  0  0  0  0  0  0  0
    7.3737    0.8746    2.9778 H   0  0  0  0  0  0  0  0  0  0  0  0
    6.0868   -0.3281    2.8791 H   0  0  0  0  0  0  0  0  0  0  0  0
   -8.6634    0.2564    2.4184 H   0  0  0  0  0  0  0  0  0  0  0  0
   -8.9522   -1.4528    2.7819 H   0  0  0  0  0  0  0  0  0  0  0  0
  -11.6434    0.3717    0.3801 H   0  0  0  0  0  0  0  0  0  0  0  0
  -10.2933    1.3617    0.9597 H   0  0  0  0  0  0  0  0  0  0  0  0
   -7.1392   -1.1062    1.1137 H   0  0  0  0  0  0  0  0  0  0  0  0
   -8.4555   -2.0995    0.4775 H   0  0  0  0  0  0  0  0  0  0  0  0
  -10.1580   -0.9493   -1.0368 H   0  0  0  0  0  0  0  0  0  0  0  0
   -9.9031    0.7701   -1.3602 H   0  0  0  0  0  0  0  0  0  0  0  0
   -5.5311   -2.1889   -1.8997 H   0  0  0  0  0  0  0  0  0  0  0  0
   -6.2961    1.7029   -0.3033 H   0  0  0  0  0  0  0  0  0  0  0  0
   -3.1238   -1.8894   -1.4971 H   0  0  0  0  0  0  0  0  0  0  0  0
   -3.8897    2.0172    0.0958 H   0  0  0  0  0  0  0  0  0  0  0  0
    1.0814   -1.5197   -0.1822 H   0  0  0  0  0  0  0  0  0  0  0  0
    0.5108    2.7098    0.2333 H   0  0  0  0  0  0  0  0  0  0  0  0
    3.4644   -1.2479    0.2255 H   0  0  0  0  0  0  0  0  0  0  0  0
    2.9145    2.9909    0.6385 H   0  0  0  0  0  0  0  0  0  0  0  0
    5.3027   -0.4918   -0.4523 H   0  0  0  0  0  0  0  0  0  0  0  0
    9.3967    0.9043   -0.6451 H   0  0  0  0  0  0  0  0  0  0  0  0
   10.0908   -0.8439   -2.2881 H   0  0  0  0  0  0  0  0  0  0  0  0
    7.4452   -1.9577    1.1538 O   0  0  0  0  0  0  0  0  0  0  0  0
    6.5097   -2.1427    1.2927 H   0  0  0  0  0  0  0  0  0  0  0  0
 17 15  1  0
 17 18  1  0
 20 22  2  0
 20  2  1  0
 15  5  1  0
  1 18  1  0
  1  2  1  0
 22  3  1  0
 18 16  1  0
  2 19  2  0
  5 14  1  0
  3  4  1  0
  3 21  2  0
 16 14  1  0
 30 13  2  0
 19 21  1  0
  4  6  3  0
 23 25  1  0
 23  7  2  0
  6  7  1  0
 12  8  1  0
 25  9  2  0
  7 24  1  0
 31 29  1  0
 13 29  1  0
 13 11  1  0
 28 11  1  0
 28 10  1  0
  9 10  1  0
  9 26  1  0
 24 26  2  0
 11  8  1  0
  8 58  1  0
 10 27  2  0
  1 32  1  0
  1 33  1  0
  8 34  1  1
 11 35  1  1
 12 36  1  0
 12 37  1  0
 12 38  1  0
 14 39  1  0
 14 40  1  0
 15 41  1  0
 15 42  1  0
 16 43  1  0
 16 44  1  0
 17 45  1  0
 17 46  1  0
 19 47  1  0
 20 48  1  0
 21 49  1  0
 22 50  1  0
 23 51  1  0
 24 52  1  0
 25 53  1  0
 26 54  1  0
 28 55  1  0
 58 59  1  0
 29 56  1  0
 31 57  1  0
M  END
