
     RDKit          3D

 19 19  0  0  0  0  0  0  0  0999 V2000
    2.5516    0.6400   -0.0470 C   0  0  0  0  0  0  0  0  0  0  0  0
    1.2234   -0.0597    0.0107 C   0  0  0  0  0  0  0  0  0  0  0  0
    1.1587   -1.4518    0.0698 C   0  0  0  0  0  0  0  0  0  0  0  0
   -0.0608   -2.1049    0.1310 C   0  0  0  0  0  0  0  0  0  0  0  0
   -1.2380   -1.3685    0.1083 C   0  0  0  0  0  0  0  0  0  0  0  0
   -1.2056    0.0200    0.0414 C   0  0  0  0  0  0  0  0  0  0  0  0
   -2.3703    0.7885    0.0593 N   0  0  0  0  0  0  0  0  0  0  0  0
    0.0384    0.6827    0.0135 C   0  0  0  0  0  0  0  0  0  0  0  0
    0.0393    2.0751   -0.0641 N   0  0  0  0  0  0  0  0  0  0  0  0
    2.6561    1.2440   -0.9516 H   0  0  0  0  0  0  0  0  0  0  0  0
    2.6998    1.3111    0.8035 H   0  0  0  0  0  0  0  0  0  0  0  0
    3.3704   -0.0778   -0.0374 H   0  0  0  0  0  0  0  0  0  0  0  0
    2.0799   -2.0222    0.0744 H   0  0  0  0  0  0  0  0  0  0  0  0
   -0.1016   -3.1852    0.1817 H   0  0  0  0  0  0  0  0  0  0  0  0
   -2.1967   -1.8743    0.1357 H   0  0  0  0  0  0  0  0  0  0  0  0
   -3.2102    0.2417   -0.0583 H   0  0  0  0  0  0  0  0  0  0  0  0
   -2.3682    1.5448   -0.6122 H   0  0  0  0  0  0  0  0  0  0  0  0
   -0.6917    2.5053    0.4860 H   0  0  0  0  0  0  0  0  0  0  0  0
    0.9223    2.5042    0.1661 H   0  0  0  0  0  0  0  0  0  0  0  0
  5  4  2  0
  5  6  1  0
  4  3  1  0
  7  6  1  0
  6  8  2  0
  3  2  2  0
  8  2  1  0
  8  9  1  0
  2  1  1  0
  1 10  1  0
  1 11  1  0
  1 12  1  0
  3 13  1  0
  4 14  1  0
  5 15  1  0
  7 16  1  0
  7 17  1  0
  9 18  1  0
  9 19  1  0
M  END
