
     RDKit          3D

 27 27  0  0  0  0  0  0  0  0999 V2000
    3.7291    1.0900   -0.6135 C   0  0  0  0  0  0  0  0  0  0  0  0
    5.0952    1.2439   -0.4324 C   0  0  0  0  0  0  0  0  0  0  0  0
    5.7827    0.3882    0.4172 C   0  0  0  0  0  0  0  0  0  0  0  0
    5.1031   -0.6238    1.0862 C   0  0  0  0  0  0  0  0  0  0  0  0
    3.7396   -0.7786    0.9070 C   0  0  0  0  0  0  0  0  0  0  0  0
    3.0393    0.0790    0.0553 C   0  0  0  0  0  0  0  0  0  0  0  0
    1.5784   -0.1144   -0.1118 C   0  0  0  0  0  0  0  0  0  0  0  0
    0.9786   -0.9881    0.4761 O   0  0  0  0  0  0  0  0  0  0  0  0
    0.8379    0.8147   -1.0536 C   0  0  0  0  0  0  0  0  0  0  0  0
   -0.6216    0.4392   -1.1135 C   0  0  0  0  0  0  0  0  0  0  0  0
   -1.0717   -0.2771   -1.9701 O   0  0  0  0  0  0  0  0  0  0  0  0
   -1.4988    1.0514   -0.0399 C   0  0  0  0  0  0  0  0  0  0  0  0
   -2.8953    0.5076   -0.1218 C   0  0  0  0  0  0  0  0  0  0  0  0
   -3.7602    0.9569   -0.8159 O   0  0  0  0  0  0  0  0  0  0  0  0
   -3.1929   -0.7165    0.7587 C   0  0  1  0  0  0  0  0  0  0  0  0
   -4.3673   -1.2557    0.4704 F   0  0  0  0  0  0  0  0  0  0  0  0
   -2.2504   -1.6470    0.6104 F   0  0  0  0  0  0  0  0  0  0  0  0
   -3.2030   -0.3433    2.0420 F   0  0  0  0  0  0  0  0  0  0  0  0
    3.2124    1.7678   -1.2805 H   0  0  0  0  0  0  0  0  0  0  0  0
    5.6220    2.0316   -0.9537 H   0  0  0  0  0  0  0  0  0  0  0  0
    6.8487    0.5091    0.5592 H   0  0  0  0  0  0  0  0  0  0  0  0
    5.6396   -1.2916    1.7471 H   0  0  0  0  0  0  0  0  0  0  0  0
    3.2145   -1.5684    1.4271 H   0  0  0  0  0  0  0  0  0  0  0  0
    0.9582    1.8482   -0.7156 H   0  0  0  0  0  0  0  0  0  0  0  0
    1.2730    0.7473   -2.0537 H   0  0  0  0  0  0  0  0  0  0  0  0
   -1.0436    0.9017    0.9418 H   0  0  0  0  0  0  0  0  0  0  0  0
   -1.5241    2.1316   -0.2115 H   0  0  0  0  0  0  0  0  0  0  0  0
 14 13  2  0
 15 18  1  1
 16 15  1  0
 13 15  1  0
 13 12  1  0
  4  5  2  0
  4  3  1  0
  5  6  1  0
  9 10  1  0
  9  7  1  0
 15 17  1  0
 11 10  2  0
 10 12  1  0
  3  2  2  0
  6  7  1  0
  6  1  2  0
  7  8  2  0
  2  1  1  0
  1 19  1  0
  2 20  1  0
  3 21  1  0
  4 22  1  0
  5 23  1  0
  9 24  1  0
  9 25  1  0
 12 26  1  0
 12 27  1  0
M  END
