
     RDKit          3D

 31 33  0  0  0  0  0  0  0  0999 V2000
    0.6704   -0.0731    2.1035 C   0  0  0  0  0  0  0  0  0  0  0  0
    1.7029   -0.3504    2.8781 N   0  0  0  0  0  0  0  0  0  0  0  0
    1.4678   -0.4558    4.1905 C   0  0  0  0  0  0  0  0  0  0  0  0
    0.1659   -0.2680    4.7074 C   0  0  0  0  0  0  0  0  0  0  0  0
   -0.7947    0.0151    3.7774 C   0  0  0  0  0  0  0  0  0  0  0  0
   -0.5841    0.1174    2.4751 N   0  0  0  0  0  0  0  0  0  0  0  0
   -0.2283   -0.8639   -4.3486 C   0  0  0  0  0  0  0  0  0  0  0  0
   -0.9155   -1.5659   -3.3765 C   0  0  0  0  0  0  0  0  0  0  0  0
   -0.9696   -1.0919   -2.1436 N   0  0  0  0  0  0  0  0  0  0  0  0
   -0.3665    0.0661   -1.8391 C   0  0  0  0  0  0  0  0  0  0  0  0
    0.3446    0.8216   -2.7588 C   0  0  0  0  0  0  0  0  0  0  0  0
    0.4155    0.3382   -4.0630 C   0  0  0  0  0  0  0  0  0  0  0  0
    1.0059    0.7571   -5.3008 C   0  0  0  0  0  0  0  0  0  0  0  0
   -0.0682   -1.1879   -5.6481 O   0  0  0  0  0  0  0  0  0  0  0  0
    0.6774   -0.1970   -6.1969 C   0  0  0  0  0  0  0  0  0  0  0  0
   -0.4896    0.5016   -0.3994 C   0  0  1  0  0  0  0  0  0  0  0  0
    1.0877    0.0171    0.4011 S   0  0  0  0  0  0  0  0  0  0  0  0
    2.4967   -0.7423    4.9867 N   0  0  0  0  0  0  0  0  0  0  0  0
   -2.4247    0.2676    4.2971 Cl  0  0  0  0  0  0  0  0  0  0  0  0
   -0.7852    1.9799   -0.2134 C   0  0  0  0  0  0  0  0  0  0  0  0
   -0.0455   -0.3419    5.7639 H   0  0  0  0  0  0  0  0  0  0  0  0
    0.8226    1.7508   -2.4786 H   0  0  0  0  0  0  0  0  0  0  0  0
    1.5885    1.6427   -5.4939 H   0  0  0  0  0  0  0  0  0  0  0  0
    0.9002   -0.3019   -7.2468 H   0  0  0  0  0  0  0  0  0  0  0  0
   -1.2710   -0.0996    0.0647 H   0  0  0  0  0  0  0  0  0  0  0  0
    3.4205   -0.8470    4.6033 H   0  0  0  0  0  0  0  0  0  0  0  0
    2.3857   -0.8103    5.9831 H   0  0  0  0  0  0  0  0  0  0  0  0
    0.0148    2.6106   -0.5992 H   0  0  0  0  0  0  0  0  0  0  0  0
   -1.7077    2.2426   -0.7339 H   0  0  0  0  0  0  0  0  0  0  0  0
   -0.9168    2.2094    0.8419 H   0  0  0  0  0  0  0  0  0  0  0  0
   -1.4203   -2.5023   -3.5867 H   0  0  0  0  0  0  0  0  0  0  0  0
  1  2  2  0
  1  6  1  0
  1 17  1  0
  2  3  1  0
  3  4  2  0
  3 18  1  0
  4  5  1  0
  4 21  1  0
  5  6  2  0
  5 19  1  0
  7  8  2  0
  7 12  1  0
  7 14  1  0
  8  9  1  0
  8 31  1  0
  9 10  2  0
 10 11  1  0
 10 16  1  0
 11 12  2  0
 11 22  1  0
 12 13  1  0
 13 15  2  0
 13 23  1  0
 14 15  1  0
 15 24  1  0
 16 17  1  0
 16 20  1  0
 16 25  1  1
 18 26  1  0
 18 27  1  0
 20 28  1  0
 20 29  1  0
 20 30  1  0
M  END
