
     RDKit          3D

 43 45  0  0  0  0  0  0  0  0999 V2000
   -8.2207   -2.2342   -0.0020 N   0  0  0  0  0  0  0  0  0  0  0  0
   -7.0849   -2.0509    0.0440 C   0  0  0  0  0  0  0  0  0  0  0  0
   -5.6776   -1.8079    0.0952 C   0  0  0  0  0  0  0  0  0  0  0  0
   -4.8916   -2.8096    0.5062 N   0  0  0  0  0  0  0  0  0  0  0  0
   -3.6089   -2.5782    0.5563 C   0  0  0  0  0  0  0  0  0  0  0  0
   -5.1533   -0.5796   -0.2695 C   0  0  0  0  0  0  0  0  0  0  0  0
   -3.8516   -0.3413   -0.2261 N   0  0  0  0  0  0  0  0  0  0  0  0
   -3.0698   -1.3206    0.1894 C   0  0  0  0  0  0  0  0  0  0  0  0
   -1.7134   -1.1678    0.2498 N   0  0  0  0  0  0  0  0  0  0  0  0
   -0.9942    0.0194    0.1551 C   0  0  0  0  0  0  0  0  0  0  0  0
   -1.5044    1.1165    0.1793 O   0  0  0  0  0  0  0  0  0  0  0  0
    0.3391   -0.2231    0.0505 N   0  0  0  0  0  0  0  0  0  0  0  0
    1.3826    0.6883   -0.0227 C   0  0  0  0  0  0  0  0  0  0  0  0
    1.2560    2.0706    0.1063 C   0  0  0  0  0  0  0  0  0  0  0  0
    2.3965    2.8551    0.0137 C   0  0  0  0  0  0  0  0  0  0  0  0
    2.2146    4.7284    0.1875 Br  0  0  0  0  0  0  0  0  0  0  0  0
    3.6534    2.3180   -0.2026 C   0  0  0  0  0  0  0  0  0  0  0  0
    3.7630    0.9394   -0.3246 C   0  0  0  0  0  0  0  0  0  0  0  0
    2.6516    0.1188   -0.2374 C   0  0  0  0  0  0  0  0  0  0  0  0
    2.7177   -1.2951   -0.3529 N   0  0  0  0  0  0  0  0  0  0  0  0
    3.1814   -1.7667   -1.6556 C   0  0  0  0  0  0  0  0  0  0  0  0
    2.9597   -3.2651   -1.7712 C   0  0  0  0  0  0  0  0  0  0  0  0
    3.6294   -4.0022   -0.6172 C   0  0  0  0  0  0  0  0  0  0  0  0
    3.4028   -1.9375    0.7629 C   0  0  0  0  0  0  0  0  0  0  0  0
    3.1609   -3.4394    0.7173 C   0  0  2  0  0  0  0  0  0  0  0  0
    3.8439   -4.0012    1.8164 O   0  0  0  0  0  0  0  0  0  0  0  0
   -2.9625   -3.3822    0.8895 H   0  0  0  0  0  0  0  0  0  0  0  0
   -5.7953    0.2241   -0.6098 H   0  0  0  0  0  0  0  0  0  0  0  0
   -1.1949   -2.0094    0.4552 H   0  0  0  0  0  0  0  0  0  0  0  0
    0.6867   -1.1716   -0.0773 H   0  0  0  0  0  0  0  0  0  0  0  0
    0.2923    2.5227    0.2742 H   0  0  0  0  0  0  0  0  0  0  0  0
    4.5321    2.9435   -0.2751 H   0  0  0  0  0  0  0  0  0  0  0  0
    4.7399    0.5033   -0.4942 H   0  0  0  0  0  0  0  0  0  0  0  0
    2.6240   -1.2399   -2.4315 H   0  0  0  0  0  0  0  0  0  0  0  0
    4.2467   -1.5371   -1.8099 H   0  0  0  0  0  0  0  0  0  0  0  0
    1.8850   -3.4689   -1.7763 H   0  0  0  0  0  0  0  0  0  0  0  0
    3.3554   -3.6160   -2.7256 H   0  0  0  0  0  0  0  0  0  0  0  0
    3.4156   -5.0733   -0.6738 H   0  0  0  0  0  0  0  0  0  0  0  0
    4.7167   -3.8867   -0.6869 H   0  0  0  0  0  0  0  0  0  0  0  0
    4.4875   -1.7434    0.7453 H   0  0  0  0  0  0  0  0  0  0  0  0
    3.0119   -1.5252    1.6955 H   0  0  0  0  0  0  0  0  0  0  0  0
    2.0763   -3.6047    0.8069 H   0  0  0  0  0  0  0  0  0  0  0  0
    3.7045   -4.9532    1.8008 H   0  0  0  0  0  0  0  0  0  0  0  0
 16 15  1  0
 11 10  2  0
 15 14  2  0
 15 17  1  0
 14 13  1  0
 10  9  1  0
 10 12  1  0
 17 18  2  0
  9  8  1  0
 13 12  1  0
 13 19  2  0
 18 19  1  0
 19 20  1  0
  8  5  2  0
  8  7  1  0
 21 20  1  0
 21 22  1  0
  5  4  1  0
  7  6  2  0
 20 24  1  0
 22 23  1  0
  4  3  2  0
  6  3  1  0
  3  2  1  0
 24 25  1  0
  2  1  3  0
 23 25  1  0
 25 26  1  0
  5 27  1  0
  6 28  1  0
  9 29  1  0
 12 30  1  0
 14 31  1  0
 17 32  1  0
 18 33  1  0
 21 34  1  0
 21 35  1  0
 22 36  1  0
 22 37  1  0
 23 38  1  0
 23 39  1  0
 24 40  1  0
 24 41  1  0
 25 42  1  1
 26 43  1  0
M  END
