
     RDKit          3D

 44 46  0  0  0  0  0  0  0  0999 V2000
    4.2427    0.6547    0.3319 C   0  0  2  0  0  0  0  0  0  0  0  0
    2.9138    1.3436    0.0121 C   0  0  1  0  0  0  0  0  0  0  0  0
    3.1206    2.7576   -0.4873 C   0  0  0  0  0  0  0  0  0  0  0  0
    3.9909   -0.8123    0.6644 C   0  0  2  0  0  0  0  0  0  0  0  0
   -5.3311   -1.2540    0.5071 C   0  0  0  0  0  0  0  0  0  0  0  0
   -6.7112   -1.1231    0.4579 C   0  0  0  0  0  0  0  0  0  0  0  0
   -7.2866    0.0483   -0.0169 C   0  0  0  0  0  0  0  0  0  0  0  0
   -6.4674    1.0863   -0.4416 C   0  0  0  0  0  0  0  0  0  0  0  0
   -5.0873    0.9557   -0.3890 C   0  0  0  0  0  0  0  0  0  0  0  0
   -4.4957   -0.2167    0.0862 C   0  0  0  0  0  0  0  0  0  0  0  0
   -3.0276   -0.3596    0.1417 C   0  0  0  0  0  0  0  0  0  0  0  0
   -2.4085   -1.0573    1.1819 C   0  0  0  0  0  0  0  0  0  0  0  0
   -1.0354   -1.2082    1.2282 C   0  0  0  0  0  0  0  0  0  0  0  0
   -2.2077    0.1931   -0.8396 C   0  0  0  0  0  0  0  0  0  0  0  0
   -0.8264    0.0604   -0.8034 C   0  0  0  0  0  0  0  0  0  0  0  0
   -0.2337   -0.6587    0.2301 C   0  0  0  0  0  0  0  0  0  0  0  0
    1.0983   -0.8756    0.3531 O   0  0  0  0  0  0  0  0  0  0  0  0
    1.9464   -0.6960   -0.7565 C   0  0  1  0  0  0  0  0  0  0  0  0
    2.2204    0.6396   -1.0080 O   0  0  0  0  0  0  0  0  0  0  0  0
    1.8646    3.3687   -0.6598 O   0  0  0  0  0  0  0  0  0  0  0  0
    4.8172    1.3304    1.4246 O   0  0  0  0  0  0  0  0  0  0  0  0
    5.2384   -1.4173    0.9055 O   0  0  0  0  0  0  0  0  0  0  0  0
    3.2220   -1.4937   -0.4645 C   0  0  1  0  0  0  0  0  0  0  0  0
    4.0376   -1.5226   -1.6063 O   0  0  0  0  0  0  0  0  0  0  0  0
    4.8931    0.7158   -0.5530 H   0  0  0  0  0  0  0  0  0  0  0  0
    2.3113    1.3763    0.9308 H   0  0  0  0  0  0  0  0  0  0  0  0
    3.7349    3.2940    0.2435 H   0  0  0  0  0  0  0  0  0  0  0  0
    3.6918    2.7235   -1.4260 H   0  0  0  0  0  0  0  0  0  0  0  0
    3.3641   -0.8462    1.5660 H   0  0  0  0  0  0  0  0  0  0  0  0
   -7.3376   -1.9435    0.7840 H   0  0  0  0  0  0  0  0  0  0  0  0
   -8.3632    0.1508   -0.0569 H   0  0  0  0  0  0  0  0  0  0  0  0
   -6.9032    2.0060   -0.8096 H   0  0  0  0  0  0  0  0  0  0  0  0
   -4.4660    1.7849   -0.7043 H   0  0  0  0  0  0  0  0  0  0  0  0
   -3.0031   -1.4847    1.9796 H   0  0  0  0  0  0  0  0  0  0  0  0
   -0.5752   -1.7537    2.0424 H   0  0  0  0  0  0  0  0  0  0  0  0
   -2.6485    0.7333   -1.6683 H   0  0  0  0  0  0  0  0  0  0  0  0
   -0.2381    0.5273   -1.5802 H   0  0  0  0  0  0  0  0  0  0  0  0
    1.4608   -1.0781   -1.6631 H   0  0  0  0  0  0  0  0  0  0  0  0
    2.0142    4.2742   -0.9457 H   0  0  0  0  0  0  0  0  0  0  0  0
    5.6330    0.8753    1.6585 H   0  0  0  0  0  0  0  0  0  0  0  0
    5.1010   -2.2062    1.4383 H   0  0  0  0  0  0  0  0  0  0  0  0
    2.9339   -2.5068   -0.1529 H   0  0  0  0  0  0  0  0  0  0  0  0
    3.6369   -2.1085   -2.2559 H   0  0  0  0  0  0  0  0  0  0  0  0
   -4.9012   -2.1829    0.8600 H   0  0  0  0  0  0  0  0  0  0  0  0
  7  8  2  0
  7  6  1  0
  8  9  1  0
  6  5  2  0
  9 10  2  0
  5 10  1  0
 10 11  1  0
 11 14  1  0
 11 12  2  0
 14 15  2  0
 12 13  1  0
 15 16  1  0
 13 16  2  0
 16 17  1  0
 17 18  1  0
 18 19  1  0
 18 23  1  0
 19  2  1  0
  2  3  1  0
  2  1  1  0
 23  4  1  0
 23 24  1  0
  3 20  1  0
  4  1  1  0
  4 22  1  0
  1 21  1  0
  1 25  1  6
  2 26  1  1
  3 27  1  0
  3 28  1  0
  4 29  1  1
  5 44  1  0
  6 30  1  0
  7 31  1  0
  8 32  1  0
  9 33  1  0
 12 34  1  0
 13 35  1  0
 14 36  1  0
 15 37  1  0
 18 38  1  6
 20 39  1  0
 21 40  1  0
 22 41  1  0
 23 42  1  1
 24 43  1  0
M  END
