
     RDKit          3D

 15 15  0  0  0  0  0  0  0  0999 V2000
   -1.6916   -0.2098    0.0370 C   0  0  0  0  0  0  0  0  0  0  0  0
   -0.2093   -0.2697    0.0049 C   0  0  0  0  0  0  0  0  0  0  0  0
    0.4684   -1.4935    0.0135 C   0  0  0  0  0  0  0  0  0  0  0  0
    1.8502   -1.5494    0.0009 C   0  0  0  0  0  0  0  0  0  0  0  0
    2.5882   -0.3731   -0.0257 C   0  0  0  0  0  0  0  0  0  0  0  0
    1.9451    0.8537   -0.0389 C   0  0  0  0  0  0  0  0  0  0  0  0
    0.5639    0.8900   -0.0214 C   0  0  0  0  0  0  0  0  0  0  0  0
   -2.2426   -1.4081   -0.1087 O   0  0  0  0  0  0  0  0  0  0  0  0
   -2.3402    0.7967    0.1825 O   0  0  0  0  0  0  0  0  0  0  0  0
   -0.0163    2.0905   -0.0438 F   0  0  0  0  0  0  0  0  0  0  0  0
   -0.0941   -2.4159    0.0371 H   0  0  0  0  0  0  0  0  0  0  0  0
    2.3504   -2.5078    0.0115 H   0  0  0  0  0  0  0  0  0  0  0  0
    3.6692   -0.4068   -0.0371 H   0  0  0  0  0  0  0  0  0  0  0  0
    2.5057    1.7787   -0.0641 H   0  0  0  0  0  0  0  0  0  0  0  0
   -3.2071   -1.3297   -0.0648 H   0  0  0  0  0  0  0  0  0  0  0  0
  4  3  1  0
  4  5  2  0
  3  2  2  0
  9  1  2  0
  5  6  1  0
  2  1  1  0
  2  7  1  0
  1  8  1  0
  6  7  2  0
  7 10  1  0
  3 11  1  0
  4 12  1  0
  5 13  1  0
  6 14  1  0
  8 15  1  0
M  END
