
     RDKit          3D

 27 27  0  0  0  0  0  0  0  0999 V2000
   -2.6499   -1.2529    0.6412 C   0  0  0  0  0  0  0  0  0  0  0  0
    4.1530    0.3813    0.2975 C   0  0  0  0  0  0  0  0  0  0  0  0
    2.7909    0.8424    0.4001 N   0  0  0  0  0  0  0  0  0  0  0  0
    1.7254    0.1685   -0.0499 C   0  0  0  0  0  0  0  0  0  0  0  0
    1.8942   -1.3314   -0.8074 S   0  0  0  0  0  0  0  0  0  0  0  0
    0.5394    0.7676    0.1261 N   0  0  0  0  0  0  0  0  0  0  0  0
   -0.7562    0.1919   -0.1808 C   0  0  2  0  0  0  0  0  0  0  0  0
   -1.7450    1.3108   -0.4948 C   0  0  0  0  0  0  0  0  0  0  0  0
   -3.1305    0.7499   -0.8005 C   0  0  0  0  0  0  0  0  0  0  0  0
   -3.6395   -0.1341    0.3333 C   0  0  0  0  0  0  0  0  0  0  0  0
   -1.2651   -0.6951    0.9548 C   0  0  0  0  0  0  0  0  0  0  0  0
   -3.0058   -1.8567    1.4789 H   0  0  0  0  0  0  0  0  0  0  0  0
   -2.5830   -1.9256   -0.2204 H   0  0  0  0  0  0  0  0  0  0  0  0
    4.7946    1.1465    0.7264 H   0  0  0  0  0  0  0  0  0  0  0  0
    4.3079   -0.5506    0.8420 H   0  0  0  0  0  0  0  0  0  0  0  0
    4.4468    0.2206   -0.7394 H   0  0  0  0  0  0  0  0  0  0  0  0
    2.6425    1.7270    0.8602 H   0  0  0  0  0  0  0  0  0  0  0  0
    0.5250    1.6360    0.6436 H   0  0  0  0  0  0  0  0  0  0  0  0
   -0.6309   -0.4271   -1.0731 H   0  0  0  0  0  0  0  0  0  0  0  0
   -1.8121    1.9902    0.3632 H   0  0  0  0  0  0  0  0  0  0  0  0
   -1.3776    1.8988   -1.3392 H   0  0  0  0  0  0  0  0  0  0  0  0
   -3.8270    1.5706   -0.9857 H   0  0  0  0  0  0  0  0  0  0  0  0
   -3.0886    0.1651   -1.7260 H   0  0  0  0  0  0  0  0  0  0  0  0
   -4.6162   -0.5509    0.0760 H   0  0  0  0  0  0  0  0  0  0  0  0
   -3.7866    0.4766    1.2309 H   0  0  0  0  0  0  0  0  0  0  0  0
   -1.3029   -0.1055    1.8779 H   0  0  0  0  0  0  0  0  0  0  0  0
   -0.5512   -1.5053    1.1195 H   0  0  0  0  0  0  0  0  0  0  0  0
 11  1  1  0
 11  7  1  0
  1 10  1  0
  2  3  1  0
  5  4  2  0
  3  4  1  0
  4  6  1  0
  6  7  1  0
 10  9  1  0
  7  8  1  0
  8  9  1  0
  1 12  1  0
  1 13  1  0
  2 14  1  0
  2 15  1  0
  2 16  1  0
  3 17  1  0
  6 18  1  0
  7 19  1  6
  8 20  1  0
  8 21  1  0
  9 22  1  0
  9 23  1  0
 10 24  1  0
 10 25  1  0
 11 26  1  0
 11 27  1  0
M  END
