
     RDKit          3D

 54 56  0  0  0  0  0  0  0  0999 V2000
   -0.7318    8.7082   -6.2433 C   0  0  0  0  0  0  0  0  0  0  0  0
   -1.2870    8.9869   -7.4855 C   0  0  0  0  0  0  0  0  0  0  0  0
   -2.4829    8.3843   -7.8364 C   0  0  0  0  0  0  0  0  0  0  0  0
   -3.1885    8.7183   -9.3864 Cl  0  0  0  0  0  0  0  0  0  0  0  0
   -3.1255    7.5137   -6.9681 C   0  0  0  0  0  0  0  0  0  0  0  0
   -2.5573    7.2509   -5.7319 C   0  0  0  0  0  0  0  0  0  0  0  0
   -1.3567    7.8464   -5.3489 C   0  0  0  0  0  0  0  0  0  0  0  0
    4.7639   -0.1803   -2.1039 C   0  0  0  0  0  0  0  0  0  0  0  0
    5.6300   -0.9627   -1.3915 N   0  0  0  0  0  0  0  0  0  0  0  0
    4.7303   -0.2400   -3.5060 C   0  0  0  0  0  0  0  0  0  0  0  0
    3.8795    0.6049   -4.1922 C   0  0  0  0  0  0  0  0  0  0  0  0
    3.0882    1.4857   -3.4507 C   0  0  0  0  0  0  0  0  0  0  0  0
    3.1755    1.4736   -2.0675 C   0  0  0  0  0  0  0  0  0  0  0  0
    3.9998    0.6576   -1.4080 N   0  0  0  0  0  0  0  0  0  0  0  0
    0.8885    1.1241    1.1915 N   0  0  0  0  0  0  0  0  0  0  0  0
    0.3494    2.4836    1.1530 C   0  0  0  0  0  0  0  0  0  0  0  0
   -0.0521    2.7329   -0.3031 C   0  0  2  0  0  0  0  0  0  0  0  0
    0.8875    1.7906   -1.0721 C   0  0  2  0  0  0  0  0  0  0  0  0
    0.8499    0.5671   -0.1618 C   0  0  0  0  0  0  0  0  0  0  0  0
    2.2969    2.3725   -1.2467 C   0  0  0  0  0  0  0  0  0  0  0  0
    0.0479    4.1264   -0.6714 N   0  0  0  0  0  0  0  0  0  0  0  0
   -0.4680    4.4124   -1.9949 C   0  0  0  0  0  0  0  0  0  0  0  0
   -0.3366    5.8918   -2.3147 C   0  0  0  0  0  0  0  0  0  0  0  0
   -0.8352    6.1738   -3.6461 N   0  0  0  0  0  0  0  0  0  0  0  0
   -0.7645    7.5787   -3.9912 C   0  0  0  0  0  0  0  0  0  0  0  0
    0.2097    9.1722   -5.9750 H   0  0  0  0  0  0  0  0  0  0  0  0
   -0.7866    9.6605   -8.1679 H   0  0  0  0  0  0  0  0  0  0  0  0
   -4.0591    7.0465   -7.2512 H   0  0  0  0  0  0  0  0  0  0  0  0
   -3.0537    6.5662   -5.0569 H   0  0  0  0  0  0  0  0  0  0  0  0
    5.9721   -1.7965   -1.8392 H   0  0  0  0  0  0  0  0  0  0  0  0
    5.4057   -1.0879   -0.4178 H   0  0  0  0  0  0  0  0  0  0  0  0
    5.3646   -0.9405   -4.0363 H   0  0  0  0  0  0  0  0  0  0  0  0
    2.4094    2.1693   -3.9478 H   0  0  0  0  0  0  0  0  0  0  0  0
    0.3757    0.5431    1.8370 H   0  0  0  0  0  0  0  0  0  0  0  0
    1.1107    3.2160    1.4481 H   0  0  0  0  0  0  0  0  0  0  0  0
   -0.4969    2.6104    1.8325 H   0  0  0  0  0  0  0  0  0  0  0  0
   -1.0761    2.3478   -0.4544 H   0  0  0  0  0  0  0  0  0  0  0  0
    0.4835    1.5436   -2.0579 H   0  0  0  0  0  0  0  0  0  0  0  0
   -0.0680   -0.0018   -0.3578 H   0  0  0  0  0  0  0  0  0  0  0  0
    1.6899   -0.1095   -0.3342 H   0  0  0  0  0  0  0  0  0  0  0  0
    2.7599    2.5407   -0.2720 H   0  0  0  0  0  0  0  0  0  0  0  0
    2.2181    3.3468   -1.7335 H   0  0  0  0  0  0  0  0  0  0  0  0
    4.4768   -0.1513   -6.1197 H   0  0  0  0  0  0  0  0  0  0  0  0
    2.7882    0.3487   -6.0200 H   0  0  0  0  0  0  0  0  0  0  0  0
    4.0526    1.5609   -6.1043 H   0  0  0  0  0  0  0  0  0  0  0  0
   -0.4654    4.6796    0.0055 H   0  0  0  0  0  0  0  0  0  0  0  0
    0.1142    3.8392   -2.7242 H   0  0  0  0  0  0  0  0  0  0  0  0
   -1.5174    4.1050   -2.1245 H   0  0  0  0  0  0  0  0  0  0  0  0
   -0.9298    6.4711   -1.5990 H   0  0  0  0  0  0  0  0  0  0  0  0
    0.7110    6.1984   -2.1718 H   0  0  0  0  0  0  0  0  0  0  0  0
   -0.2937    5.6451   -4.3203 H   0  0  0  0  0  0  0  0  0  0  0  0
    0.2584    7.9836   -3.9545 H   0  0  0  0  0  0  0  0  0  0  0  0
   -1.3331    8.1376   -3.2403 H   0  0  0  0  0  0  0  0  0  0  0  0
    3.8003    0.5845   -5.6883 C   0  0  0  0  0  0  0  0  0  0  0  0
  1  7  2  0
  1  2  1  0
  1 26  1  0
  2  3  2  0
  2 27  1  0
  3  5  1  0
  3  4  1  0
  5  6  2  0
  5 28  1  0
  6  7  1  0
  6 29  1  0
  7 25  1  0
  8 14  2  0
  8  9  1  0
  8 10  1  0
  9 30  1  0
  9 31  1  0
 10 11  2  0
 10 32  1  0
 11 12  1  0
 11 54  1  0
 12 13  2  0
 12 33  1  0
 13 20  1  0
 13 14  1  0
 15 16  1  0
 15 19  1  0
 15 34  1  0
 16 17  1  0
 16 35  1  0
 16 36  1  0
 17 21  1  0
 17 18  1  0
 17 37  1  1
 18 20  1  0
 18 19  1  0
 18 38  1  6
 19 39  1  0
 19 40  1  0
 20 41  1  0
 20 42  1  0
 54 43  1  0
 54 44  1  0
 54 45  1  0
 21 22  1  0
 21 46  1  0
 22 23  1  0
 22 47  1  0
 22 48  1  0
 23 24  1  0
 23 49  1  0
 23 50  1  0
 24 25  1  0
 24 51  1  0
 25 52  1  0
 25 53  1  0
M  END
