
     RDKit          3D

 27 28  0  0  0  0  0  0  0  0999 V2000
   -2.8724   -0.5003    0.2771 C   0  0  0  0  0  0  0  0  0  0  0  0
   -2.1195   -1.5699    0.7531 C   0  0  0  0  0  0  0  0  0  0  0  0
   -0.7399   -1.5694    0.6420 C   0  0  0  0  0  0  0  0  0  0  0  0
   -0.0582   -0.5105    0.0443 C   0  0  0  0  0  0  0  0  0  0  0  0
    1.4126   -0.5602   -0.0843 C   0  0  0  0  0  0  0  0  0  0  0  0
    2.0346   -1.5657   -0.8221 C   0  0  0  0  0  0  0  0  0  0  0  0
    4.2033   -0.6875   -0.2783 C   0  0  0  0  0  0  0  0  0  0  0  0
    3.6098    0.3181    0.4727 C   0  0  0  0  0  0  0  0  0  0  0  0
   -0.8277    0.5428   -0.4422 C   0  0  0  0  0  0  0  0  0  0  0  0
   -2.2091    0.5582   -0.3314 C   0  0  0  0  0  0  0  0  0  0  0  0
   -0.0575    1.8669   -1.2574 Cl  0  0  0  0  0  0  0  0  0  0  0  0
   -4.3710   -0.4932    0.4460 C   0  0  0  0  0  0  0  0  0  0  0  0
   -5.0375    0.3654   -0.5127 N   0  0  0  0  0  0  0  0  0  0  0  0
    2.2325    0.3585    0.5560 C   0  0  0  0  0  0  0  0  0  0  0  0
    1.6618    1.3162    1.3020 F   0  0  0  0  0  0  0  0  0  0  0  0
    3.4169   -1.6323   -0.9228 C   0  0  0  0  0  0  0  0  0  0  0  0
   -2.6151   -2.4140    1.2169 H   0  0  0  0  0  0  0  0  0  0  0  0
   -0.1716   -2.4069    1.0266 H   0  0  0  0  0  0  0  0  0  0  0  0
    1.4202   -2.2999   -1.3277 H   0  0  0  0  0  0  0  0  0  0  0  0
    5.2816   -0.7306   -0.3535 H   0  0  0  0  0  0  0  0  0  0  0  0
    4.2063    1.0565    0.9924 H   0  0  0  0  0  0  0  0  0  0  0  0
   -2.7772    1.3886   -0.7279 H   0  0  0  0  0  0  0  0  0  0  0  0
   -4.7219   -1.5337    0.4366 H   0  0  0  0  0  0  0  0  0  0  0  0
   -4.5956   -0.1155    1.4478 H   0  0  0  0  0  0  0  0  0  0  0  0
   -5.0364   -0.0736   -1.4247 H   0  0  0  0  0  0  0  0  0  0  0  0
   -6.0089    0.4662   -0.2505 H   0  0  0  0  0  0  0  0  0  0  0  0
    3.8774   -2.4193   -1.5045 H   0  0  0  0  0  0  0  0  0  0  0  0
 15 14  1  0
  8 14  2  0
  8  7  1  0
 14  5  1  0
  3  2  1  0
  3  4  2  0
  2  1  2  0
  7 16  2  0
  5  4  1  0
  5  6  2  0
  4  9  1  0
 16  6  1  0
  1 12  1  0
  1 10  1  0
 12 13  1  0
  9 10  2  0
  9 11  1  0
  2 17  1  0
  3 18  1  0
  6 19  1  0
  7 20  1  0
  8 21  1  0
 10 22  1  0
 12 23  1  0
 12 24  1  0
 13 25  1  0
 13 26  1  0
 16 27  1  0
M  END
