
     RDKit          3D

 39 41  0  0  0  0  0  0  0  0999 V2000
    1.6052   -2.5529   -0.1094 N   0  0  0  0  0  0  0  0  0  0  0  0
    1.9847    0.9425   -0.8594 C   0  0  0  0  0  0  0  0  0  0  0  0
    0.4934   -3.2566    0.0600 N   0  0  0  0  0  0  0  0  0  0  0  0
   -0.9663    0.0074    0.4987 C   0  0  0  0  0  0  0  0  0  0  0  0
    3.5454   -0.4030    0.3689 C   0  0  0  0  0  0  0  0  0  0  0  0
   -1.3664    2.1503    1.4767 C   0  0  0  0  0  0  0  0  0  0  0  0
   -0.1370   -1.1687    0.2451 C   0  0  0  0  0  0  0  0  0  0  0  0
   -0.5110    1.0851    1.2571 C   0  0  0  0  0  0  0  0  0  0  0  0
    0.5315   -4.6980   -0.0113 C   0  0  0  0  0  0  0  0  0  0  0  0
    4.5202    0.5704    0.2142 C   0  0  0  0  0  0  0  0  0  0  0  0
    4.1998    1.7231   -0.4766 C   0  0  0  0  0  0  0  0  0  0  0  0
    2.9464    1.9276   -1.0206 C   0  0  0  0  0  0  0  0  0  0  0  0
    2.2655   -0.2299   -0.1578 C   0  0  0  0  0  0  0  0  0  0  0  0
   -2.6111    2.2074    1.0189 N   0  0  0  0  0  0  0  0  0  0  0  0
   -3.0596    1.1811    0.2990 C   0  0  0  0  0  0  0  0  0  0  0  0
   -2.2713    0.0734    0.0140 C   0  0  0  0  0  0  0  0  0  0  0  0
    1.2540   -1.2815    0.0004 C   0  0  0  0  0  0  0  0  0  0  0  0
   -0.5760   -2.4784    0.2645 C   0  0  0  0  0  0  0  0  0  0  0  0
   -4.4669    1.3041   -0.2243 C   0  0  0  0  0  0  0  0  0  0  0  0
   -5.0599    0.0269   -0.5481 N   0  0  0  0  0  0  0  0  0  0  0  0
   -6.3599    0.1605   -1.1734 C   0  0  0  0  0  0  0  0  0  0  0  0
    1.0073    1.0907   -1.2997 H   0  0  0  0  0  0  0  0  0  0  0  0
    3.7839   -1.3050    0.9169 H   0  0  0  0  0  0  0  0  0  0  0  0
   -1.0301    2.9976    2.0649 H   0  0  0  0  0  0  0  0  0  0  0  0
    0.4807    1.0931    1.6882 H   0  0  0  0  0  0  0  0  0  0  0  0
    1.2638   -5.0854    0.6934 H   0  0  0  0  0  0  0  0  0  0  0  0
   -0.4482   -5.0895    0.2454 H   0  0  0  0  0  0  0  0  0  0  0  0
    0.7929   -5.0230   -1.0165 H   0  0  0  0  0  0  0  0  0  0  0  0
    5.5097    0.4357    0.6311 H   0  0  0  0  0  0  0  0  0  0  0  0
    2.7249    2.8342   -1.5684 H   0  0  0  0  0  0  0  0  0  0  0  0
   -2.6770   -0.7261   -0.5914 H   0  0  0  0  0  0  0  0  0  0  0  0
   -1.5576   -2.8879    0.4428 H   0  0  0  0  0  0  0  0  0  0  0  0
   -5.0536    1.8922    0.4975 H   0  0  0  0  0  0  0  0  0  0  0  0
   -4.4385    1.9061   -1.1401 H   0  0  0  0  0  0  0  0  0  0  0  0
   -5.1554   -0.5182    0.2998 H   0  0  0  0  0  0  0  0  0  0  0  0
   -7.0774    0.7607   -0.5970 H   0  0  0  0  0  0  0  0  0  0  0  0
   -6.2541    0.6298   -2.1535 H   0  0  0  0  0  0  0  0  0  0  0  0
   -6.7961   -0.8263   -1.3261 H   0  0  0  0  0  0  0  0  0  0  0  0
    5.1361    2.6737   -0.6246 F   0  0  0  0  0  0  0  0  0  0  0  0
  5 10  2  0
  5 13  1  0
 10 11  1  0
  9  3  1  0
  1  3  1  0
  1 17  2  0
  3 18  1  0
 13 17  1  0
 13  2  2  0
 17  7  1  0
 11 39  1  0
 11 12  2  0
 18  7  2  0
  7  4  1  0
  2 12  1  0
  8  4  1  0
  8  6  2  0
  4 16  2  0
  6 14  1  0
 16 15  1  0
 14 15  2  0
 15 19  1  0
 21 20  1  0
 20 19  1  0
  2 22  1  0
  5 23  1  0
  6 24  1  0
  8 25  1  0
  9 26  1  0
  9 27  1  0
  9 28  1  0
 10 29  1  0
 12 30  1  0
 16 31  1  0
 18 32  1  0
 19 33  1  0
 19 34  1  0
 20 35  1  0
 21 36  1  0
 21 37  1  0
 21 38  1  0
M  END
