
     RDKit          3D

 58 60  0  0  0  0  0  0  0  0999 V2000
    6.3717    1.1832    1.4064 C   0  0  0  0  0  0  0  0  0  0  0  0
    7.2575    2.1013    1.0841 N   0  0  0  0  0  0  0  0  0  0  0  0
   -3.4081   -4.2140    0.1287 O   0  0  0  0  0  0  0  0  0  0  0  0
    5.4615    0.6491    0.4249 C   0  0  0  0  0  0  0  0  0  0  0  0
    6.3432    0.7699    2.6761 N   0  0  0  0  0  0  0  0  0  0  0  0
   -3.4938   -1.6372    0.0062 O   0  0  0  0  0  0  0  0  0  0  0  0
    3.6581   -0.7934   -0.3019 C   0  0  0  0  0  0  0  0  0  0  0  0
   -7.6931    1.2344    0.0429 O   0  0  0  0  0  0  0  0  0  0  0  0
    2.6126   -1.8366   -0.0280 C   0  0  0  0  0  0  0  0  0  0  0  0
    1.2965   -1.2922   -0.2721 N   0  0  0  0  0  0  0  0  0  0  0  0
   -6.9095    3.3183   -0.1119 O   0  0  0  0  0  0  0  0  0  0  0  0
   -3.3993   -5.6213    0.2073 C   0  0  0  0  0  0  0  0  0  0  0  0
    6.5117    2.1302   -1.1809 N   0  0  0  0  0  0  0  0  0  0  0  0
   -3.6279   -0.2287   -0.0624 C   0  0  0  0  0  0  0  0  0  0  0  0
   -5.1058    0.0998   -0.0144 C   0  0  0  0  0  0  0  0  0  0  0  0
   -5.3152    1.6043   -0.0841 C   0  0  0  0  0  0  0  0  0  0  0  0
   -6.7670    2.0019   -0.0428 C   0  0  0  0  0  0  0  0  0  0  0  0
   -8.1357    5.3584   -0.1814 C   0  0  0  0  0  0  0  0  0  0  0  0
   -8.2413    3.8563   -0.0784 C   0  0  0  0  0  0  0  0  0  0  0  0
    7.2876    2.5298   -0.1943 C   0  0  0  0  0  0  0  0  0  0  0  0
    0.1671   -2.0799   -0.1303 C   0  0  0  0  0  0  0  0  0  0  0  0
   -1.0894   -1.4468   -0.1101 C   0  0  0  0  0  0  0  0  0  0  0  0
   -2.2597   -2.1753   -0.0208 C   0  0  0  0  0  0  0  0  0  0  0  0
   -2.2116   -3.5840    0.0479 C   0  0  0  0  0  0  0  0  0  0  0  0
   -0.9775   -4.2008    0.0340 C   0  0  0  0  0  0  0  0  0  0  0  0
    0.2084   -3.4652   -0.0461 C   0  0  0  0  0  0  0  0  0  0  0  0
    3.7940   -0.2552   -1.5983 C   0  0  0  0  0  0  0  0  0  0  0  0
    5.5966    1.1852   -0.8714 C   0  0  0  0  0  0  0  0  0  0  0  0
    4.7313    0.7021   -1.8798 C   0  0  0  0  0  0  0  0  0  0  0  0
    4.4885   -0.3300    0.6896 C   0  0  0  0  0  0  0  0  0  0  0  0
    7.0173    1.1327    3.3279 H   0  0  0  0  0  0  0  0  0  0  0  0
    5.7344    0.0414    3.0003 H   0  0  0  0  0  0  0  0  0  0  0  0
    8.1965    3.9385   -1.3446 H   0  0  0  0  0  0  0  0  0  0  0  0
    8.6984    3.9101    0.2924 H   0  0  0  0  0  0  0  0  0  0  0  0
    2.7701   -2.6861   -0.6991 H   0  0  0  0  0  0  0  0  0  0  0  0
    2.7295   -2.2206    0.9948 H   0  0  0  0  0  0  0  0  0  0  0  0
    1.1817   -0.3506    0.0716 H   0  0  0  0  0  0  0  0  0  0  0  0
   -4.4383   -5.9367    0.2709 H   0  0  0  0  0  0  0  0  0  0  0  0
   -2.9472   -6.0814   -0.6768 H   0  0  0  0  0  0  0  0  0  0  0  0
   -2.8694   -5.9811    1.0945 H   0  0  0  0  0  0  0  0  0  0  0  0
   -3.1044    0.2464    0.7762 H   0  0  0  0  0  0  0  0  0  0  0  0
   -3.1810    0.1534   -0.9884 H   0  0  0  0  0  0  0  0  0  0  0  0
   -5.6139   -0.3888   -0.8486 H   0  0  0  0  0  0  0  0  0  0  0  0
   -5.5361   -0.2963    0.9080 H   0  0  0  0  0  0  0  0  0  0  0  0
   -4.8023    2.1057    0.7428 H   0  0  0  0  0  0  0  0  0  0  0  0
   -4.8739    2.0161   -0.9972 H   0  0  0  0  0  0  0  0  0  0  0  0
   -7.6664    5.6653   -1.1161 H   0  0  0  0  0  0  0  0  0  0  0  0
   -9.1368    5.7878   -0.1539 H   0  0  0  0  0  0  0  0  0  0  0  0
   -7.5689    5.7793    0.6490 H   0  0  0  0  0  0  0  0  0  0  0  0
   -8.8234    3.4481   -0.9070 H   0  0  0  0  0  0  0  0  0  0  0  0
   -8.7309    3.5632    0.8524 H   0  0  0  0  0  0  0  0  0  0  0  0
   -1.1205   -0.3664   -0.1733 H   0  0  0  0  0  0  0  0  0  0  0  0
   -0.9011   -5.2783    0.0929 H   0  0  0  0  0  0  0  0  0  0  0  0
    1.1456   -4.0040   -0.0412 H   0  0  0  0  0  0  0  0  0  0  0  0
    3.1424   -0.6104   -2.3879 H   0  0  0  0  0  0  0  0  0  0  0  0
    4.8281    1.1055   -2.8798 H   0  0  0  0  0  0  0  0  0  0  0  0
    4.3768   -0.7397    1.6870 H   0  0  0  0  0  0  0  0  0  0  0  0
    8.2456    3.4415   -0.4723 N   0  0  0  0  0  0  0  0  0  0  0  0
  4  1  2  0
  2  1  1  0
  1  5  1  0
 20  2  2  0
 24  3  1  0
  3 12  1  0
 28  4  1  0
  4 30  1  0
  5 31  1  0
  5 32  1  0
 14  6  1  0
  6 23  1  0
 27  7  1  0
  7  9  1  0
  7 30  2  0
 58 20  1  0
 58 33  1  0
 58 34  1  0
 17  8  2  0
 10  9  1  0
  9 35  1  0
  9 36  1  0
 10 21  1  0
 10 37  1  0
 11 19  1  0
 11 17  1  0
 12 38  1  0
 12 39  1  0
 12 40  1  0
 13 28  2  0
 13 20  1  0
 15 14  1  0
 14 41  1  0
 14 42  1  0
 15 16  1  0
 15 43  1  0
 15 44  1  0
 17 16  1  0
 16 45  1  0
 16 46  1  0
 18 19  1  0
 18 47  1  0
 18 48  1  0
 18 49  1  0
 19 50  1  0
 19 51  1  0
 22 21  2  0
 21 26  1  0
 22 23  1  0
 22 52  1  0
 23 24  2  0
 24 25  1  0
 26 25  2  0
 25 53  1  0
 26 54  1  0
 29 27  2  0
 27 55  1  0
 29 28  1  0
 29 56  1  0
 30 57  1  0
M  END
