
     RDKit          3D

 20 20  0  0  0  0  0  0  0  0999 V2000
    1.0122   -0.5626    0.1291 C   0  0  0  0  0  0  0  0  0  0  0  0
   -4.9494   -0.2973   -0.1931 C   0  0  0  0  0  0  0  0  0  0  0  0
   -3.4659   -0.1938   -0.3997 C   0  0  0  0  0  0  0  0  0  0  0  0
   -2.9493   -0.2575   -1.4898 O   0  0  0  0  0  0  0  0  0  0  0  0
   -2.6526    0.0033    0.8656 C   0  0  0  0  0  0  0  0  0  0  0  0
   -1.2025    0.2636    0.6059 C   0  0  0  0  0  0  0  0  0  0  0  0
   -0.7107    1.5620    0.5297 C   0  0  0  0  0  0  0  0  0  0  0  0
    0.6262    1.8018    0.2581 C   0  0  0  0  0  0  0  0  0  0  0  0
    1.4935    0.7396    0.0549 C   0  0  0  0  0  0  0  0  0  0  0  0
    3.1551    1.0470   -0.2808 Cl  0  0  0  0  0  0  0  0  0  0  0  0
    2.0686   -1.9025   -0.1150 Cl  0  0  0  0  0  0  0  0  0  0  0  0
   -0.3268   -0.7951    0.4006 C   0  0  0  0  0  0  0  0  0  0  0  0
   -5.4591   -0.6002   -1.1050 H   0  0  0  0  0  0  0  0  0  0  0  0
   -5.1821   -1.0016    0.6068 H   0  0  0  0  0  0  0  0  0  0  0  0
   -5.3379    0.6737    0.1221 H   0  0  0  0  0  0  0  0  0  0  0  0
   -3.1038    0.8168    1.4408 H   0  0  0  0  0  0  0  0  0  0  0  0
   -2.7872   -0.8927    1.4802 H   0  0  0  0  0  0  0  0  0  0  0  0
   -1.3742    2.4030    0.6863 H   0  0  0  0  0  0  0  0  0  0  0  0
    0.9986    2.8158    0.2035 H   0  0  0  0  0  0  0  0  0  0  0  0
   -0.6836   -1.8155    0.4604 H   0  0  0  0  0  0  0  0  0  0  0  0
 10  9  1  0
  9  8  1  0
  9  1  2  0
  8  7  2  0
 11  1  1  0
  1 12  1  0
  7  6  1  0
 12  6  2  0
  6  5  1  0
  5  3  1  0
  3  4  2  0
  3  2  1  0
  2 13  1  0
  2 14  1  0
  2 15  1  0
  5 16  1  0
  5 17  1  0
  7 18  1  0
  8 19  1  0
 12 20  1  0
M  END
