
     RDKit          3D

 22 21  0  0  0  0  0  0  0  0999 V2000
    1.4394    1.8571   -0.1262 N   0  0  0  0  0  0  0  0  0  0  0  0
    1.4616    0.5123    0.3950 C   0  0  1  0  0  0  0  0  0  0  0  0
    0.3343   -0.3979   -0.1058 C   0  0  0  0  0  0  0  0  0  0  0  0
   -0.8851    0.2072    0.3212 O   0  0  0  0  0  0  0  0  0  0  0  0
   -2.0309   -0.3085   -0.1182 C   0  0  0  0  0  0  0  0  0  0  0  0
   -2.0860   -1.2564   -0.8597 O   0  0  0  0  0  0  0  0  0  0  0  0
   -3.2147    0.4378    0.4344 C   0  0  0  0  0  0  0  0  0  0  0  0
    2.7971   -0.1359    0.0760 C   0  0  0  0  0  0  0  0  0  0  0  0
    3.6073    0.3095   -0.6931 O   0  0  0  0  0  0  0  0  0  0  0  0
   -4.5467   -0.0830   -0.0730 C   0  0  0  0  0  0  0  0  0  0  0  0
    2.9612   -1.2715    0.7427 O   0  0  0  0  0  0  0  0  0  0  0  0
    1.4274    1.8482   -1.1390 H   0  0  0  0  0  0  0  0  0  0  0  0
    0.5914    2.3214    0.1698 H   0  0  0  0  0  0  0  0  0  0  0  0
    1.3881    0.5680    1.4866 H   0  0  0  0  0  0  0  0  0  0  0  0
    0.3670   -0.4667   -1.1969 H   0  0  0  0  0  0  0  0  0  0  0  0
    0.4131   -1.4056    0.3069 H   0  0  0  0  0  0  0  0  0  0  0  0
   -3.1673    0.3806    1.5256 H   0  0  0  0  0  0  0  0  0  0  0  0
   -3.0947    1.4975    0.1940 H   0  0  0  0  0  0  0  0  0  0  0  0
   -4.6289    0.0074   -1.1557 H   0  0  0  0  0  0  0  0  0  0  0  0
   -4.6976   -1.1292    0.1901 H   0  0  0  0  0  0  0  0  0  0  0  0
   -5.3599    0.4905    0.3697 H   0  0  0  0  0  0  0  0  0  0  0  0
    3.8079   -1.6781    0.5037 H   0  0  0  0  0  0  0  0  0  0  0  0
  8  9  2  0
  8  2  1  0
  1  2  1  0
  2  3  1  0
  3  4  1  0
  6  5  2  0
  4  5  1  0
  5  7  1  0
  7 10  1  0
  8 11  1  0
  1 12  1  0
  1 13  1  0
  2 14  1  1
  3 15  1  0
  3 16  1  0
  7 17  1  0
  7 18  1  0
 10 19  1  0
 10 20  1  0
 10 21  1  0
 11 22  1  0
M  END
