
     RDKit          3D

 59 63  0  0  0  0  0  0  0  0999 V2000
    5.2920    4.1424    2.0164 C   0  0  0  0  0  0  0  0  0  0  0  0
    4.4364    3.8605    1.0397 C   0  0  0  0  0  0  0  0  0  0  0  0
    3.2093    3.0600    1.2993 C   0  0  0  0  0  0  0  0  0  0  0  0
    2.9970    2.5389    2.3903 O   0  0  0  0  0  0  0  0  0  0  0  0
    2.3478    2.9294    0.2761 N   0  0  0  0  0  0  0  0  0  0  0  0
    2.4518    3.5613   -1.0413 C   0  0  0  0  0  0  0  0  0  0  0  0
    1.0954    3.2873   -1.6757 C   0  0  0  0  0  0  0  0  0  0  0  0
    0.6888    1.9591   -1.0504 C   0  0  1  0  0  0  0  0  0  0  0  0
    1.1522    2.1143    0.4015 C   0  0  0  0  0  0  0  0  0  0  0  0
   -0.7113    1.6792   -1.2051 N   0  0  0  0  0  0  0  0  0  0  0  0
   -1.2703    0.4727   -0.9891 C   0  0  0  0  0  0  0  0  0  0  0  0
   -2.6022    0.4167   -1.0228 N   0  0  0  0  0  0  0  0  0  0  0  0
   -3.1557   -0.7701   -0.8013 C   0  0  0  0  0  0  0  0  0  0  0  0
   -4.6571   -0.8581   -0.8614 C   0  0  0  0  0  0  0  0  0  0  0  0
   -5.3156    0.2259   -0.1732 N   0  0  0  0  0  0  0  0  0  0  0  0
   -5.0729    0.1931    1.2585 C   0  0  0  0  0  0  0  0  0  0  0  0
   -5.7788    1.3544    1.9306 C   0  0  0  0  0  0  0  0  0  0  0  0
   -7.1641    1.3471    1.6657 O   0  0  0  0  0  0  0  0  0  0  0  0
   -7.4058    1.3854    0.2766 C   0  0  0  0  0  0  0  0  0  0  0  0
   -6.7437    0.2222   -0.4356 C   0  0  0  0  0  0  0  0  0  0  0  0
   -2.4062   -1.9058   -0.5557 C   0  0  0  0  0  0  0  0  0  0  0  0
   -1.0211   -1.7336   -0.5690 C   0  0  0  0  0  0  0  0  0  0  0  0
   -0.2007   -2.8083   -0.3526 N   0  0  0  0  0  0  0  0  0  0  0  0
    1.1584   -2.8407   -0.3380 C   0  0  0  0  0  0  0  0  0  0  0  0
    1.7797   -3.9564   -0.1313 N   0  0  0  0  0  0  0  0  0  0  0  0
    3.1336   -3.7657   -0.1586 C   0  0  0  0  0  0  0  0  0  0  0  0
    4.1245   -4.7252    0.0187 C   0  0  0  0  0  0  0  0  0  0  0  0
    5.4415   -4.3037   -0.0513 C   0  0  0  0  0  0  0  0  0  0  0  0
    5.7292   -2.9609   -0.2925 C   0  0  0  0  0  0  0  0  0  0  0  0
    4.7955   -2.0315   -0.4655 N   0  0  0  0  0  0  0  0  0  0  0  0
    3.5489   -2.4479   -0.3956 C   0  0  0  0  0  0  0  0  0  0  0  0
    2.1498   -1.4184   -0.5913 S   0  0  0  0  0  0  0  0  0  0  0  0
   -0.4514   -0.5623   -0.7749 N   0  0  0  0  0  0  0  0  0  0  0  0
    5.1296    3.8121    3.0343 H   0  0  0  0  0  0  0  0  0  0  0  0
    6.1868    4.7179    1.8235 H   0  0  0  0  0  0  0  0  0  0  0  0
    4.6389    4.2105    0.0355 H   0  0  0  0  0  0  0  0  0  0  0  0
    2.6540    4.6288   -0.9618 H   0  0  0  0  0  0  0  0  0  0  0  0
    3.2531    3.1055   -1.6288 H   0  0  0  0  0  0  0  0  0  0  0  0
    0.3806    4.0670   -1.3984 H   0  0  0  0  0  0  0  0  0  0  0  0
    1.1499    3.2486   -2.7624 H   0  0  0  0  0  0  0  0  0  0  0  0
    1.2601    1.1563   -1.5213 H   0  0  0  0  0  0  0  0  0  0  0  0
    1.3692    1.1576    0.8757 H   0  0  0  0  0  0  0  0  0  0  0  0
    0.3833    2.6215    0.9941 H   0  0  0  0  0  0  0  0  0  0  0  0
   -1.3511    2.4572   -1.2421 H   0  0  0  0  0  0  0  0  0  0  0  0
   -4.9480   -0.8230   -1.9170 H   0  0  0  0  0  0  0  0  0  0  0  0
   -4.9729   -1.8449   -0.4851 H   0  0  0  0  0  0  0  0  0  0  0  0
   -5.4104   -0.7586    1.7057 H   0  0  0  0  0  0  0  0  0  0  0  0
   -4.0023    0.2806    1.4559 H   0  0  0  0  0  0  0  0  0  0  0  0
   -5.6510    1.2939    3.0124 H   0  0  0  0  0  0  0  0  0  0  0  0
   -5.3283    2.2973    1.5883 H   0  0  0  0  0  0  0  0  0  0  0  0
   -8.4863    1.3474    0.1300 H   0  0  0  0  0  0  0  0  0  0  0  0
   -7.0390    2.3295   -0.1513 H   0  0  0  0  0  0  0  0  0  0  0  0
   -6.9147    0.3215   -1.5106 H   0  0  0  0  0  0  0  0  0  0  0  0
   -7.2170   -0.7228   -0.1161 H   0  0  0  0  0  0  0  0  0  0  0  0
   -2.8654   -2.8638   -0.3570 H   0  0  0  0  0  0  0  0  0  0  0  0
   -0.6394   -3.7028   -0.1833 H   0  0  0  0  0  0  0  0  0  0  0  0
    3.8688   -5.7606    0.2028 H   0  0  0  0  0  0  0  0  0  0  0  0
    6.2524   -5.0065    0.0791 H   0  0  0  0  0  0  0  0  0  0  0  0
    6.7582   -2.6272   -0.3487 H   0  0  0  0  0  0  0  0  0  0  0  0
 28 27  1  0
 28 29  2  0
 27 26  2  0
 29 30  1  0
 26 31  1  0
 26 25  1  0
 30 31  2  0
 31 32  1  0
 25 24  2  0
 24 32  1  0
 24 23  1  0
 23 22  1  0
 22 21  1  0
 22 33  2  0
  7  6  1  0
  7  8  1  0
 21 13  2  0
 33 11  1  0
  6  5  1  0
 11 10  1  0
 11 12  2  0
 13 14  1  0
 13 12  1  0
  8 10  1  0
  8  9  1  0
 14 15  1  0
  5  9  1  0
  5  3  1  0
  4  3  2  0
  3  2  1  0
 15 20  1  0
 15 16  1  0
 20 19  1  0
 16 17  1  0
  2  1  2  0
 19 18  1  0
 17 18  1  0
  1 34  1  0
  1 35  1  0
  2 36  1  0
  6 37  1  0
  6 38  1  0
  7 39  1  0
  7 40  1  0
  8 41  1  6
  9 42  1  0
  9 43  1  0
 10 44  1  0
 14 45  1  0
 14 46  1  0
 16 47  1  0
 16 48  1  0
 17 49  1  0
 17 50  1  0
 19 51  1  0
 19 52  1  0
 20 53  1  0
 20 54  1  0
 21 55  1  0
 23 56  1  0
 27 57  1  0
 28 58  1  0
 29 59  1  0
M  END
