
     RDKit          3D

 83 82  0  0  0  0  0  0  0  0999 V2000
    1.0794    0.5917  -14.3545 C   0  0  0  0  0  0  0  0  0  0  0  0
    0.1198    0.1058  -13.2717 C   0  0  1  0  0  0  0  0  0  0  0  0
   -0.3841   -1.2951  -13.6055 C   0  0  0  0  0  0  0  0  0  0  0  0
    0.7920    0.1658  -11.8990 C   0  0  0  0  0  0  0  0  0  0  0  0
   -0.1269   -0.1053  -10.7138 C   0  0  0  0  0  0  0  0  0  0  0  0
    0.5847    0.0390   -9.3733 C   0  0  0  0  0  0  0  0  0  0  0  0
   -0.3376   -0.1523   -8.1762 C   0  0  0  0  0  0  0  0  0  0  0  0
    0.3685    0.0137   -6.8360 C   0  0  0  0  0  0  0  0  0  0  0  0
   -0.5765   -0.0968   -5.6448 C   0  0  0  0  0  0  0  0  0  0  0  0
    0.1241    0.1262   -4.3095 C   0  0  0  0  0  0  0  0  0  0  0  0
   -0.7657   -0.0209   -3.0716 C   0  0  2  0  0  0  0  0  0  0  0  0
   -1.9199    0.9781   -3.0886 C   0  0  0  0  0  0  0  0  0  0  0  0
    0.0836    0.1240   -1.8052 C   0  0  0  0  0  0  0  0  0  0  0  0
   -0.6594   -0.1129   -0.4955 C   0  0  0  0  0  0  0  0  0  0  0  0
    0.2389   -0.0008    0.7310 C   0  0  0  0  0  0  0  0  0  0  0  0
   -0.5211   -0.1845    2.0386 C   0  0  0  0  0  0  0  0  0  0  0  0
    0.3448   -0.0119    3.2800 C   0  0  0  0  0  0  0  0  0  0  0  0
   -0.4367   -0.1749    4.5776 C   0  0  0  0  0  0  0  0  0  0  0  0
    0.4089    0.0290    5.8282 C   0  0  0  0  0  0  0  0  0  0  0  0
   -0.3857   -0.1252    7.1188 C   0  0  0  0  0  0  0  0  0  0  0  0
    0.4498    0.0867    8.3749 C   0  0  0  0  0  0  0  0  0  0  0  0
   -0.3516   -0.0672    9.6613 C   0  0  0  0  0  0  0  0  0  0  0  0
    0.4797    0.1442   10.9208 C   0  0  0  0  0  0  0  0  0  0  0  0
   -0.3313   -0.0310   12.1989 C   0  0  0  0  0  0  0  0  0  0  0  0
    0.4269    0.2612   13.4953 C   0  0  1  0  0  0  0  0  0  0  0  0
   -0.5218    0.1899   14.6885 C   0  0  0  0  0  0  0  0  0  0  0  0
    1.6112   -0.6790   13.7001 C   0  0  0  0  0  0  0  0  0  0  0  0
    1.9438   -0.0723  -14.4354 H   0  0  0  0  0  0  0  0  0  0  0  0
    0.5944    0.6218  -15.3319 H   0  0  0  0  0  0  0  0  0  0  0  0
    1.4523    1.5946  -14.1374 H   0  0  0  0  0  0  0  0  0  0  0  0
   -0.7412    0.7854  -13.2557 H   0  0  0  0  0  0  0  0  0  0  0  0
    0.4393   -2.0136  -13.5867 H   0  0  0  0  0  0  0  0  0  0  0  0
   -1.1426   -1.6432  -12.9037 H   0  0  0  0  0  0  0  0  0  0  0  0
   -0.8258   -1.3261  -14.6034 H   0  0  0  0  0  0  0  0  0  0  0  0
    1.2365    1.1593  -11.7712 H   0  0  0  0  0  0  0  0  0  0  0  0
    1.6300   -0.5427  -11.8833 H   0  0  0  0  0  0  0  0  0  0  0  0
   -0.5566   -1.1095  -10.7829 H   0  0  0  0  0  0  0  0  0  0  0  0
   -0.9736    0.5900  -10.7477 H   0  0  0  0  0  0  0  0  0  0  0  0
    1.0468    1.0311   -9.3160 H   0  0  0  0  0  0  0  0  0  0  0  0
    1.4090   -0.6809   -9.3206 H   0  0  0  0  0  0  0  0  0  0  0  0
   -0.8013   -1.1440   -8.2232 H   0  0  0  0  0  0  0  0  0  0  0  0
   -1.1604    0.5688   -8.2390 H   0  0  0  0  0  0  0  0  0  0  0  0
    0.8647    0.9908   -6.8101 H   0  0  0  0  0  0  0  0  0  0  0  0
    1.1652   -0.7328   -6.7463 H   0  0  0  0  0  0  0  0  0  0  0  0
   -1.0566   -1.0821   -5.6463 H   0  0  0  0  0  0  0  0  0  0  0  0
   -1.3808    0.6329   -5.7726 H   0  0  0  0  0  0  0  0  0  0  0  0
    0.5761    1.1261   -4.3044 H   0  0  0  0  0  0  0  0  0  0  0  0
    0.9573   -0.5814   -4.2299 H   0  0  0  0  0  0  0  0  0  0  0  0
   -1.1897   -1.0340   -3.0793 H   0  0  0  0  0  0  0  0  0  0  0  0
   -1.5403    2.0035   -3.0829 H   0  0  0  0  0  0  0  0  0  0  0  0
   -2.5482    0.8644   -3.9722 H   0  0  0  0  0  0  0  0  0  0  0  0
   -2.5720    0.8639   -2.2226 H   0  0  0  0  0  0  0  0  0  0  0  0
    0.5282    1.1271   -1.7903 H   0  0  0  0  0  0  0  0  0  0  0  0
    0.9243   -0.5769   -1.8623 H   0  0  0  0  0  0  0  0  0  0  0  0
   -1.1293   -1.1029   -0.5156 H   0  0  0  0  0  0  0  0  0  0  0  0
   -1.4756    0.6076   -0.3926 H   0  0  0  0  0  0  0  0  0  0  0  0
    0.7262    0.9810    0.7314 H   0  0  0  0  0  0  0  0  0  0  0  0
    1.0456   -0.7394    0.6682 H   0  0  0  0  0  0  0  0  0  0  0  0
   -0.9851   -1.1771    2.0527 H   0  0  0  0  0  0  0  0  0  0  0  0
   -1.3475    0.5344    2.0756 H   0  0  0  0  0  0  0  0  0  0  0  0
    0.8119    0.9793    3.2607 H   0  0  0  0  0  0  0  0  0  0  0  0
    1.1683   -0.7345    3.2565 H   0  0  0  0  0  0  0  0  0  0  0  0
   -0.8906   -1.1720    4.6040 H   0  0  0  0  0  0  0  0  0  0  0  0
   -1.2708    0.5360    4.5867 H   0  0  0  0  0  0  0  0  0  0  0  0
    0.8646    1.0253    5.8000 H   0  0  0  0  0  0  0  0  0  0  0  0
    1.2411   -0.6839    5.8260 H   0  0  0  0  0  0  0  0  0  0  0  0
   -0.8383   -1.1228    7.1478 H   0  0  0  0  0  0  0  0  0  0  0  0
   -1.2207    0.5846    7.1159 H   0  0  0  0  0  0  0  0  0  0  0  0
    0.9026    1.0842    8.3468 H   0  0  0  0  0  0  0  0  0  0  0  0
    1.2842   -0.6237    8.3801 H   0  0  0  0  0  0  0  0  0  0  0  0
   -0.8032   -1.0655    9.6883 H   0  0  0  0  0  0  0  0  0  0  0  0
   -1.1874    0.6416    9.6544 H   0  0  0  0  0  0  0  0  0  0  0  0
    0.9178    1.1487   10.9038 H   0  0  0  0  0  0  0  0  0  0  0  0
    1.3227   -0.5536   10.9102 H   0  0  0  0  0  0  0  0  0  0  0  0
   -0.7287   -1.0528   12.2405 H   0  0  0  0  0  0  0  0  0  0  0  0
   -1.2043    0.6301   12.1534 H   0  0  0  0  0  0  0  0  0  0  0  0
    0.8143    1.2859   13.4335 H   0  0  0  0  0  0  0  0  0  0  0  0
   -0.0111    0.4367   15.6210 H   0  0  0  0  0  0  0  0  0  0  0  0
   -1.3579    0.8824   14.5748 H   0  0  0  0  0  0  0  0  0  0  0  0
   -0.9376   -0.8152   14.7966 H   0  0  0  0  0  0  0  0  0  0  0  0
    1.2768   -1.7190   13.7398 H   0  0  0  0  0  0  0  0  0  0  0  0
    2.3465   -0.5973   12.8994 H   0  0  0  0  0  0  0  0  0  0  0  0
    2.1252   -0.4619   14.6381 H   0  0  0  0  0  0  0  0  0  0  0  0
  1  2  1  0
  1 28  1  0
  1 29  1  0
  1 30  1  0
  2  3  1  0
  2  4  1  0
  2 31  1  1
  3 32  1  0
  3 33  1  0
  3 34  1  0
  4  5  1  0
  4 35  1  0
  4 36  1  0
  5  6  1  0
  5 37  1  0
  5 38  1  0
  6  7  1  0
  6 39  1  0
  6 40  1  0
  7  8  1  0
  7 41  1  0
  7 42  1  0
  8  9  1  0
  8 43  1  0
  8 44  1  0
  9 10  1  0
  9 45  1  0
  9 46  1  0
 10 11  1  0
 10 47  1  0
 10 48  1  0
 11 12  1  0
 11 13  1  0
 11 49  1  1
 12 50  1  0
 12 51  1  0
 12 52  1  0
 13 14  1  0
 13 53  1  0
 13 54  1  0
 14 15  1  0
 14 55  1  0
 14 56  1  0
 15 16  1  0
 15 57  1  0
 15 58  1  0
 16 17  1  0
 16 59  1  0
 16 60  1  0
 17 18  1  0
 17 61  1  0
 17 62  1  0
 18 19  1  0
 18 63  1  0
 18 64  1  0
 19 20  1  0
 19 65  1  0
 19 66  1  0
 20 21  1  0
 20 67  1  0
 20 68  1  0
 21 22  1  0
 21 69  1  0
 21 70  1  0
 22 23  1  0
 22 71  1  0
 22 72  1  0
 23 24  1  0
 23 73  1  0
 23 74  1  0
 24 25  1  0
 24 75  1  0
 24 76  1  0
 25 26  1  0
 25 27  1  0
 25 77  1  6
 26 78  1  0
 26 79  1  0
 26 80  1  0
 27 81  1  0
 27 82  1  0
 27 83  1  0
M  END
