
     RDKit          3D

 31 32  0  0  0  0  0  0  0  0999 V2000
    0.4598   -0.0303    0.0752 N   0  0  0  0  0  0  0  0  0  0  0  0
   -1.5077   -3.6884   -0.3244 N   0  0  0  0  0  0  0  0  0  0  0  0
    4.8001    0.6457    1.0709 N   0  0  0  0  0  0  0  0  0  0  0  0
    4.5997    0.1584   -1.2302 N   0  0  0  0  0  0  0  0  0  0  0  0
   -5.1288   -0.2049   -0.0279 N   0  0  0  0  0  0  0  0  0  0  0  0
   -2.9665   -1.2830    0.0641 C   0  0  0  0  0  0  0  0  0  0  0  0
   -1.5886   -1.3101    0.0618 C   0  0  0  0  0  0  0  0  0  0  0  0
   -0.8780   -0.0742    0.0354 C   0  0  0  0  0  0  0  0  0  0  0  0
   -1.6267    1.1167   -0.0508 C   0  0  0  0  0  0  0  0  0  0  0  0
   -3.0006    1.1128   -0.0876 C   0  0  0  0  0  0  0  0  0  0  0  0
   -3.6956   -0.1025   -0.0180 C   0  0  0  0  0  0  0  0  0  0  0  0
    1.2285    1.1940    0.0508 C   0  0  0  0  0  0  0  0  0  0  0  0
    2.6889    0.8702   -0.0034 C   0  0  0  0  0  0  0  0  0  0  0  0
    3.5067    0.9442    1.1129 C   0  0  0  0  0  0  0  0  0  0  0  0
    5.2602    0.2699   -0.0993 C   0  0  0  0  0  0  0  0  0  0  0  0
    3.3096    0.4605   -1.1758 C   0  0  0  0  0  0  0  0  0  0  0  0
    0.2846   -2.6755    0.5746 O   0  0  0  0  0  0  0  0  0  0  0  0
   -5.7726    0.6904   -0.5234 O   0  0  0  0  0  0  0  0  0  0  0  0
   -5.6261   -1.2027    0.4512 O   0  0  0  0  0  0  0  0  0  0  0  0
   -3.7717    2.6479   -0.1229 Cl  0  0  0  0  0  0  0  0  0  0  0  0
    6.9405   -0.1238   -0.1628 Cl  0  0  0  0  0  0  0  0  0  0  0  0
    0.9218   -0.8967    0.3207 H   0  0  0  0  0  0  0  0  0  0  0  0
   -2.3609   -3.6346   -0.8525 H   0  0  0  0  0  0  0  0  0  0  0  0
   -1.0469   -4.5839   -0.2982 H   0  0  0  0  0  0  0  0  0  0  0  0
   -3.5190   -2.2095    0.1328 H   0  0  0  0  0  0  0  0  0  0  0  0
   -1.1179    2.0697   -0.0642 H   0  0  0  0  0  0  0  0  0  0  0  0
    0.9572    1.7883   -0.8257 H   0  0  0  0  0  0  0  0  0  0  0  0
    1.0213    1.8121    0.9307 H   0  0  0  0  0  0  0  0  0  0  0  0
    3.1117    1.2582    2.0728 H   0  0  0  0  0  0  0  0  0  0  0  0
    2.7519    0.3772   -2.1026 H   0  0  0  0  0  0  0  0  0  0  0  0
   -0.8578   -2.6083    0.1242 C   0  0  0  0  0  0  0  0  0  0  0  0
  1  8  1  0
  1 12  1  0
  1 22  1  0
  2 31  1  0
  2 23  1  0
  2 24  1  0
  3 15  2  0
  5 19  2  0
  6 11  2  0
  6 25  1  0
  7  6  1  0
  7  8  2  0
  8  9  1  0
  9 10  2  0
  9 26  1  0
 10 20  1  0
 11  5  1  0
 11 10  1  0
 31  7  1  0
 12 13  1  0
 12 27  1  0
 12 28  1  0
 13 16  1  0
 14 13  2  0
 14  3  1  0
 14 29  1  0
 15  4  1  0
 15 21  1  0
 16  4  2  0
 16 30  1  0
 17 31  2  0
 18  5  1  0
M  CHG  2   5   1  18  -1
M  END
