
     RDKit          3D

 23 23  0  0  0  0  0  0  0  0999 V2000
   -1.1034    1.4004   -1.1232 N   0  0  0  0  0  0  0  0  0  0  0  0
    0.0139    0.5333   -1.3999 C   0  0  2  0  0  0  0  0  0  0  0  0
   -0.0198    0.1176   -2.8575 C   0  0  0  0  0  0  0  0  0  0  0  0
   -0.9797    0.2175   -3.5770 O   0  0  0  0  0  0  0  0  0  0  0  0
    1.1375   -0.4047   -3.2444 O   0  0  0  0  0  0  0  0  0  0  0  0
    0.1127   -0.7383   -0.5189 C   0  0  0  0  0  0  0  0  0  0  0  0
    0.1321   -0.4075    0.9332 C   0  0  0  0  0  0  0  0  0  0  0  0
   -0.9661   -0.3010    1.8336 C   0  0  0  0  0  0  0  0  0  0  0  0
    1.1881   -0.0878    1.7237 C   0  0  0  0  0  0  0  0  0  0  0  0
    2.6402    0.0093    1.4574 C   0  0  0  0  0  0  0  0  0  0  0  0
   -2.2584   -0.5021    1.5935 O   0  0  0  0  0  0  0  0  0  0  0  0
   -0.5981    0.0418    3.0321 N   0  0  0  0  0  0  0  0  0  0  0  0
    0.7633    0.1802    2.9600 O   0  0  0  0  0  0  0  0  0  0  0  0
   -1.9824    0.9007   -1.1663 H   0  0  0  0  0  0  0  0  0  0  0  0
   -1.0208    1.7932   -0.1953 H   0  0  0  0  0  0  0  0  0  0  0  0
    0.9301    1.1117   -1.2440 H   0  0  0  0  0  0  0  0  0  0  0  0
    1.0783   -0.7063   -4.1635 H   0  0  0  0  0  0  0  0  0  0  0  0
    1.0083   -1.3048   -0.7782 H   0  0  0  0  0  0  0  0  0  0  0  0
   -0.7294   -1.4019   -0.7434 H   0  0  0  0  0  0  0  0  0  0  0  0
    2.9926    1.0361    1.5644 H   0  0  0  0  0  0  0  0  0  0  0  0
    3.2099   -0.6128    2.1482 H   0  0  0  0  0  0  0  0  0  0  0  0
    2.8620   -0.3186    0.4445 H   0  0  0  0  0  0  0  0  0  0  0  0
   -2.3902   -0.8729    0.7139 H   0  0  0  0  0  0  0  0  0  0  0  0
  1  2  1  0
  1 14  1  0
  1 15  1  0
  2  3  1  0
  2  6  1  0
  2 16  1  6
  3  4  2  0
  3  5  1  0
  5 17  1  0
  6  7  1  0
  6 18  1  0
  6 19  1  0
  7  8  1  0
  7  9  2  0
  8 11  1  0
  8 12  2  0
  9 10  1  0
  9 13  1  0
 10 20  1  0
 10 21  1  0
 10 22  1  0
 11 23  1  0
 12 13  1  0
M  END
