
     RDKit          3D

 57 60  0  0  0  0  0  0  0  0999 V2000
    3.2473   -2.9601   -1.1398 O   0  0  0  0  0  0  0  0  0  0  0  0
    2.8573   -1.5824   -1.3733 S   0  0  2  0  0  0  0  0  0  0  0  0
    2.8587   -1.0943   -2.7411 O   0  0  0  0  0  0  0  0  0  0  0  0
    3.7497   -0.4629   -0.3765 C   0  0  0  0  0  0  0  0  0  0  0  0
    5.1008   -0.6624   -0.1606 C   0  0  0  0  0  0  0  0  0  0  0  0
    5.8220    0.2979    0.5433 C   0  0  0  0  0  0  0  0  0  0  0  0
    7.1260    0.0480    0.7248 O   0  0  0  0  0  0  0  0  0  0  0  0
    7.9067    0.9908    1.4373 C   0  0  0  0  0  0  0  0  0  0  0  0
    5.1638    1.4440    1.0029 C   0  0  0  0  0  0  0  0  0  0  0  0
    1.3742   -1.3564   -0.6831 N   0  0  0  0  0  0  0  0  0  0  0  0
    0.9174   -0.0908   -0.3722 C   0  0  0  0  0  0  0  0  0  0  0  0
    1.6986    0.8687   -0.0366 N   0  0  0  0  0  0  0  0  0  0  0  0
    3.0550    0.6625    0.0896 C   0  0  0  0  0  0  0  0  0  0  0  0
    3.8119    1.6148    0.7756 C   0  0  0  0  0  0  0  0  0  0  0  0
   -0.5445    0.1012   -0.3865 C   0  0  0  0  0  0  0  0  0  0  0  0
   -1.1225    1.3537   -0.3839 C   0  0  0  0  0  0  0  0  0  0  0  0
   -0.3971    2.4496   -0.4454 O   0  0  0  0  0  0  0  0  0  0  0  0
   -1.4159   -1.0534   -0.4244 C   0  0  0  0  0  0  0  0  0  0  0  0
   -1.0289   -2.2265   -0.4386 O   0  0  0  0  0  0  0  0  0  0  0  0
   -2.7664   -0.7961   -0.4604 N   0  0  0  0  0  0  0  0  0  0  0  0
   -3.7251   -1.9022   -0.4764 C   0  0  0  0  0  0  0  0  0  0  0  0
   -4.0899   -2.3524    0.9307 C   0  0  0  0  0  0  0  0  0  0  0  0
   -5.1500   -3.4549    0.9529 C   0  0  1  0  0  0  0  0  0  0  0  0
   -4.6409   -4.7488    0.3227 C   0  0  0  0  0  0  0  0  0  0  0  0
   -5.6027   -3.7096    2.3871 C   0  0  0  0  0  0  0  0  0  0  0  0
   -3.3050    0.3994   -0.3909 N   0  0  0  0  0  0  0  0  0  0  0  0
   -2.5567    1.4496   -0.3454 C   0  0  0  0  0  0  0  0  0  0  0  0
   -3.2367    2.7623   -0.2968 C   0  0  0  0  0  0  0  0  0  0  0  0
   -4.1899    3.0851   -1.2615 C   0  0  0  0  0  0  0  0  0  0  0  0
   -4.8468    4.3044   -1.2114 C   0  0  0  0  0  0  0  0  0  0  0  0
   -2.9558    3.6733    0.7225 C   0  0  0  0  0  0  0  0  0  0  0  0
   -3.6147    4.8944    0.7669 C   0  0  0  0  0  0  0  0  0  0  0  0
   -4.5579    5.2122   -0.1998 C   0  0  0  0  0  0  0  0  0  0  0  0
    5.6038   -1.5458   -0.5341 H   0  0  0  0  0  0  0  0  0  0  0  0
    7.9274    1.9619    0.9368 H   0  0  0  0  0  0  0  0  0  0  0  0
    7.5471    1.1244    2.4603 H   0  0  0  0  0  0  0  0  0  0  0  0
    8.9164    0.5905    1.4695 H   0  0  0  0  0  0  0  0  0  0  0  0
    5.6946    2.2113    1.5492 H   0  0  0  0  0  0  0  0  0  0  0  0
    0.6573   -2.0927   -0.7647 H   0  0  0  0  0  0  0  0  0  0  0  0
    3.3115    2.4985    1.1492 H   0  0  0  0  0  0  0  0  0  0  0  0
   -0.9583    3.2352   -0.5307 H   0  0  0  0  0  0  0  0  0  0  0  0
   -4.6049   -1.5346   -1.0028 H   0  0  0  0  0  0  0  0  0  0  0  0
   -3.3011   -2.7113   -1.0656 H   0  0  0  0  0  0  0  0  0  0  0  0
   -3.1936   -2.7035    1.4521 H   0  0  0  0  0  0  0  0  0  0  0  0
   -4.4609   -1.4849    1.4846 H   0  0  0  0  0  0  0  0  0  0  0  0
   -6.0170   -3.1065    0.3789 H   0  0  0  0  0  0  0  0  0  0  0  0
   -3.7541   -5.1066    0.8514 H   0  0  0  0  0  0  0  0  0  0  0  0
   -5.3977   -5.5326    0.3742 H   0  0  0  0  0  0  0  0  0  0  0  0
   -4.3734   -4.6275   -0.7276 H   0  0  0  0  0  0  0  0  0  0  0  0
   -5.9856   -2.8013    2.8552 H   0  0  0  0  0  0  0  0  0  0  0  0
   -6.3937   -4.4602    2.4248 H   0  0  0  0  0  0  0  0  0  0  0  0
   -4.7716   -4.0728    2.9970 H   0  0  0  0  0  0  0  0  0  0  0  0
   -4.4092    2.3819   -2.0544 H   0  0  0  0  0  0  0  0  0  0  0  0
   -5.5818    4.5483   -1.9671 H   0  0  0  0  0  0  0  0  0  0  0  0
   -2.2460    3.4251    1.5031 H   0  0  0  0  0  0  0  0  0  0  0  0
   -3.3940    5.5938    1.5621 H   0  0  0  0  0  0  0  0  0  0  0  0
   -5.0690    6.1653   -0.1651 H   0  0  0  0  0  0  0  0  0  0  0  0
  1  2  2  0
  2  3  2  0
  2  4  1  0
  2 10  1  1
  4  5  1  0
  4 13  2  0
  5  6  2  0
  6  7  1  0
  6  9  1  0
  7  8  1  0
  9 14  2  0
 10 11  1  0
 11 12  2  0
 11 15  1  0
 12 13  1  0
 13 14  1  0
 15 16  2  0
 15 18  1  0
 16 17  1  0
 16 27  1  0
 18 19  2  0
 18 20  1  0
 20 21  1  0
 20 26  1  0
 21 22  1  0
 22 23  1  0
 23 24  1  0
 23 25  1  0
 26 27  2  0
 27 28  1  0
 28 29  2  0
 28 31  1  0
 29 30  1  0
 30 33  2  0
 31 32  2  0
 32 33  1  0
  5 34  1  0
  8 35  1  0
  8 36  1  0
  8 37  1  0
  9 38  1  0
 10 39  1  0
 14 40  1  0
 17 41  1  0
 21 42  1  0
 21 43  1  0
 22 44  1  0
 22 45  1  0
 23 46  1  6
 24 47  1  0
 24 48  1  0
 24 49  1  0
 25 50  1  0
 25 51  1  0
 25 52  1  0
 29 53  1  0
 30 54  1  0
 31 55  1  0
 32 56  1  0
 33 57  1  0
M  END
