
     RDKit          3D

 36 38  0  0  0  0  0  0  0  0999 V2000
   -5.5930   -1.5408    1.1708 C   0  0  0  0  0  0  0  0  0  0  0  0
   -4.7376   -0.9322    0.1805 N   0  0  0  0  0  0  0  0  0  0  0  0
   -5.1617   -0.7187   -1.0585 N   0  0  0  0  0  0  0  0  0  0  0  0
   -4.2511   -0.1307   -1.7389 N   0  0  0  0  0  0  0  0  0  0  0  0
   -3.1726    0.0638   -0.9271 C   0  0  0  0  0  0  0  0  0  0  0  0
   -1.9249    0.6495   -1.1735 C   0  0  0  0  0  0  0  0  0  0  0  0
   -1.0176    0.6935   -0.1386 C   0  0  0  0  0  0  0  0  0  0  0  0
   -1.3556    0.1583    1.1303 C   0  0  0  0  0  0  0  0  0  0  0  0
   -2.5760   -0.4157    1.3942 C   0  0  0  0  0  0  0  0  0  0  0  0
   -3.4813   -0.4539    0.3300 C   0  0  0  0  0  0  0  0  0  0  0  0
    0.3515    1.3063   -0.3557 C   0  0  1  0  0  0  0  0  0  0  0  0
    0.5484    2.5205    0.5472 C   0  0  0  0  0  0  0  0  0  0  0  0
    1.8265    3.2642    0.2618 C   0  0  0  0  0  0  0  0  0  0  0  0
    2.4684    3.1627   -0.7529 O   0  0  0  0  0  0  0  0  0  0  0  0
    2.1570    4.0783    1.2572 O   0  0  0  0  0  0  0  0  0  0  0  0
    1.4228    0.2450   -0.2101 C   0  0  0  0  0  0  0  0  0  0  0  0
    2.1765    0.0782    0.9460 C   0  0  0  0  0  0  0  0  0  0  0  0
    3.1194   -0.9364    1.0522 C   0  0  0  0  0  0  0  0  0  0  0  0
    3.3096   -1.7956   -0.0154 C   0  0  0  0  0  0  0  0  0  0  0  0
    4.4878   -3.0628    0.1037 Cl  0  0  0  0  0  0  0  0  0  0  0  0
    2.5736   -1.6539   -1.1827 C   0  0  0  0  0  0  0  0  0  0  0  0
    1.6378   -0.6366   -1.2673 C   0  0  0  0  0  0  0  0  0  0  0  0
    0.3860    1.6591   -1.3893 H   0  0  0  0  0  0  0  0  0  0  0  0
   -6.3737   -2.0983    0.6621 H   0  0  0  0  0  0  0  0  0  0  0  0
   -5.0119   -2.2247    1.7849 H   0  0  0  0  0  0  0  0  0  0  0  0
   -6.0461   -0.7835    1.8083 H   0  0  0  0  0  0  0  0  0  0  0  0
   -1.6830    1.0511   -2.1498 H   0  0  0  0  0  0  0  0  0  0  0  0
   -0.6246    0.1935    1.9289 H   0  0  0  0  0  0  0  0  0  0  0  0
   -2.8124   -0.8155    2.3710 H   0  0  0  0  0  0  0  0  0  0  0  0
   -0.2764    3.2223    0.3845 H   0  0  0  0  0  0  0  0  0  0  0  0
    0.4976    2.2625    1.6071 H   0  0  0  0  0  0  0  0  0  0  0  0
    2.0466    0.7373    1.7948 H   0  0  0  0  0  0  0  0  0  0  0  0
    3.6971   -1.0475    1.9599 H   0  0  0  0  0  0  0  0  0  0  0  0
    2.7297   -2.3241   -2.0173 H   0  0  0  0  0  0  0  0  0  0  0  0
    1.0628   -0.5309   -2.1798 H   0  0  0  0  0  0  0  0  0  0  0  0
    2.9650    4.5642    1.0334 H   0  0  0  0  0  0  0  0  0  0  0  0
 24  1  1  0
  1 26  1  0
  1 25  1  0
  1  2  1  0
  2 10  1  0
  2  3  1  0
  3  4  2  0
  5  4  1  0
 10  5  2  0
  5  6  1  0
  7  6  2  0
  6 27  1  0
  8  7  1  0
  7 11  1  0
  9  8  2  0
 28  8  1  0
 29  9  1  0
  9 10  1  0
 12 11  1  0
 11 23  1  6
 11 16  1  0
 13 12  1  0
 12 30  1  0
 12 31  1  0
 14 13  2  0
 15 13  1  0
 15 36  1  0
 16 22  1  0
 16 17  2  0
 32 17  1  0
 17 18  1  0
 18 33  1  0
 18 19  2  0
 21 19  1  0
 19 20  1  0
 22 21  2  0
 21 34  1  0
 35 22  1  0
M  END
