
     RDKit          3D

 60 60  0  0  0  0  0  0  0  0999 V2000
   -0.6225   -0.6268    2.2251 N   0  0  0  0  0  0  0  0  0  0  0  0
   -1.1062    1.8178    0.1452 N   0  0  0  0  0  0  0  0  0  0  0  0
    0.0810   -0.5233   -2.5540 N   0  0  0  0  0  0  0  0  0  0  0  0
    1.8058   -1.6729    0.4263 N   0  0  0  0  0  0  0  0  0  0  0  0
   -3.8600   -2.1970    2.4692 O   0  0  0  0  0  0  0  0  0  0  0  0
    0.0576    5.1892    0.6810 O   0  0  0  0  0  0  0  0  0  0  0  0
   -1.1889   -0.1437   -5.8997 O   0  0  0  0  0  0  0  0  0  0  0  0
    3.6087    0.3353    0.8481 O   0  0  0  0  0  0  0  0  0  0  0  0
   -0.8965    0.7843    2.4717 C   0  0  0  0  0  0  0  0  0  0  0  0
   -1.7529    1.4920    1.4126 C   0  0  0  0  0  0  0  0  0  0  0  0
   -0.5369    0.6355   -0.4799 C   0  0  0  0  0  0  0  0  0  0  0  0
   -0.3288    0.7527   -1.9797 C   0  0  0  0  0  0  0  0  0  0  0  0
    1.2893   -1.0716   -1.9472 C   0  0  0  0  0  0  0  0  0  0  0  0
    1.0030   -1.9983   -0.7426 C   0  0  0  0  0  0  0  0  0  0  0  0
    1.2769   -2.1680    1.6966 C   0  0  0  0  0  0  0  0  0  0  0  0
    0.7139   -1.0714    2.6007 C   0  0  0  0  0  0  0  0  0  0  0  0
   -2.7712   -1.8374    1.7949 C   0  0  0  0  0  0  0  0  0  0  0  0
   -1.6428   -1.4982    2.7452 C   0  0  0  0  0  0  0  0  0  0  0  0
   -0.8241    4.2507    0.3504 C   0  0  0  0  0  0  0  0  0  0  0  0
   -0.1602    2.8964    0.2565 C   0  0  0  0  0  0  0  0  0  0  0  0
   -1.2393   -0.5048   -4.6205 C   0  0  0  0  0  0  0  0  0  0  0  0
    0.1346   -0.4416   -3.9879 C   0  0  0  0  0  0  0  0  0  0  0  0
    4.0611   -0.9834    1.0822 C   0  0  1  0  0  0  0  0  0  0  0  0
    3.2216   -1.9523    0.2497 C   0  0  0  0  0  0  0  0  0  0  0  0
    5.5334   -1.0854    0.7414 C   0  0  0  0  0  0  0  0  0  0  0  0
   -2.7087   -1.8513    0.5927 O   0  0  0  0  0  0  0  0  0  0  0  0
   -1.9851    4.4798    0.1303 O   0  0  0  0  0  0  0  0  0  0  0  0
   -2.2483   -0.8633   -4.0723 O   0  0  0  0  0  0  0  0  0  0  0  0
   -4.5507   -2.4824    1.8526 H   0  0  0  0  0  0  0  0  0  0  0  0
   -0.3714    6.0578    0.6897 H   0  0  0  0  0  0  0  0  0  0  0  0
   -2.0642   -0.2394   -6.3035 H   0  0  0  0  0  0  0  0  0  0  0  0
    2.6557    0.2314    0.6960 H   0  0  0  0  0  0  0  0  0  0  0  0
    0.0554    1.3135    2.5550 H   0  0  0  0  0  0  0  0  0  0  0  0
   -1.3891    0.9250    3.4467 H   0  0  0  0  0  0  0  0  0  0  0  0
   -2.1167    2.4197    1.8604 H   0  0  0  0  0  0  0  0  0  0  0  0
   -2.6465    0.9037    1.1926 H   0  0  0  0  0  0  0  0  0  0  0  0
   -1.2268   -0.1854   -0.3032 H   0  0  0  0  0  0  0  0  0  0  0  0
    0.4034    0.3511    0.0067 H   0  0  0  0  0  0  0  0  0  0  0  0
    0.4129    1.5349   -2.2205 H   0  0  0  0  0  0  0  0  0  0  0  0
   -1.2713    1.0609   -2.4372 H   0  0  0  0  0  0  0  0  0  0  0  0
    1.9750   -0.2683   -1.6369 H   0  0  0  0  0  0  0  0  0  0  0  0
    1.8278   -1.6378   -2.7083 H   0  0  0  0  0  0  0  0  0  0  0  0
    1.1515   -3.0450   -1.0492 H   0  0  0  0  0  0  0  0  0  0  0  0
   -0.0456   -1.9135   -0.4665 H   0  0  0  0  0  0  0  0  0  0  0  0
    0.5180   -2.9406    1.5267 H   0  0  0  0  0  0  0  0  0  0  0  0
    2.0788   -2.6667    2.2490 H   0  0  0  0  0  0  0  0  0  0  0  0
    1.3923   -0.2183    2.5548 H   0  0  0  0  0  0  0  0  0  0  0  0
    0.7441   -1.4248    3.6431 H   0  0  0  0  0  0  0  0  0  0  0  0
   -1.2048   -2.4708    2.9980 H   0  0  0  0  0  0  0  0  0  0  0  0
   -2.0699   -1.1251    3.6873 H   0  0  0  0  0  0  0  0  0  0  0  0
    0.5524    2.7901    1.0891 H   0  0  0  0  0  0  0  0  0  0  0  0
    0.4637    2.9319   -0.6421 H   0  0  0  0  0  0  0  0  0  0  0  0
    0.6576    0.4519   -4.3651 H   0  0  0  0  0  0  0  0  0  0  0  0
    0.6862   -1.2980   -4.3880 H   0  0  0  0  0  0  0  0  0  0  0  0
    3.9359   -1.2401    2.1465 H   0  0  0  0  0  0  0  0  0  0  0  0
    3.4822   -1.8099   -0.8030 H   0  0  0  0  0  0  0  0  0  0  0  0
    3.4856   -2.9900    0.5009 H   0  0  0  0  0  0  0  0  0  0  0  0
    6.1293   -0.3990    1.3437 H   0  0  0  0  0  0  0  0  0  0  0  0
    5.8965   -2.0956    0.9346 H   0  0  0  0  0  0  0  0  0  0  0  0
    5.7090   -0.8583   -0.3119 H   0  0  0  0  0  0  0  0  0  0  0  0
  1  9  1  0
  1 16  1  0
  1 18  1  0
  2 10  1  0
  2 11  1  0
  2 20  1  0
  3 12  1  0
  3 13  1  0
  3 22  1  0
  4 14  1  0
  4 15  1  0
  4 24  1  0
  5 17  1  0
  5 29  1  0
  6 19  1  0
  6 30  1  0
  7 21  1  0
  7 31  1  0
  8 23  1  0
  8 32  1  0
  9 10  1  0
  9 33  1  0
  9 34  1  0
 10 35  1  0
 10 36  1  0
 11 12  1  0
 11 37  1  0
 11 38  1  0
 12 39  1  0
 12 40  1  0
 13 14  1  0
 13 41  1  0
 13 42  1  0
 14 43  1  0
 14 44  1  0
 15 16  1  0
 15 45  1  0
 15 46  1  0
 16 47  1  0
 16 48  1  0
 17 18  1  0
 17 26  2  0
 18 49  1  0
 18 50  1  0
 19 20  1  0
 19 27  2  0
 20 51  1  0
 20 52  1  0
 21 22  1  0
 21 28  2  0
 22 53  1  0
 22 54  1  0
 23 24  1  0
 23 25  1  0
 23 55  1  1
 24 56  1  0
 24 57  1  0
 25 58  1  0
 25 59  1  0
 25 60  1  0
M  END
