
     RDKit          3D

  6  5  0  0  0  0  0  0  0  0999 V2000
   -1.3967    0.0121    0.0804 C   0  0  0  0  0  0  0  0  0  0  0  0
   -0.2358   -0.0063    0.0369 N   0  0  0  0  0  0  0  0  0  0  0  0
    1.1768   -0.0276   -0.0175 C   0  0  0  0  0  0  0  0  0  0  0  0
    1.5822   -0.0717    0.9906 H   0  0  0  0  0  0  0  0  0  0  0  0
    1.5098   -0.8995   -0.5754 H   0  0  0  0  0  0  0  0  0  0  0  0
    1.5389    0.8718   -0.5096 H   0  0  0  0  0  0  0  0  0  0  0  0
  1  2  3  0
  2  3  1  0
  3  4  1  0
  3  5  1  0
  3  6  1  0
M  CHG  1   2   1
M  END
