
     RDKit          3D

 32 35  0  0  0  0  0  0  0  0999 V2000
   -5.7106   -3.0014   -0.4492 N   0  0  0  0  0  0  0  0  0  0  0  0
   -5.0397   -2.0741   -0.3206 C   0  0  0  0  0  0  0  0  0  0  0  0
   -4.2035   -0.9202   -0.1595 C   0  0  0  0  0  0  0  0  0  0  0  0
   -4.8504    0.2477   -0.0373 N   0  0  0  0  0  0  0  0  0  0  0  0
   -4.1518    1.3510    0.1143 C   0  0  0  0  0  0  0  0  0  0  0  0
   -2.7579    1.3129    0.1481 C   0  0  0  0  0  0  0  0  0  0  0  0
   -1.8510    2.3170    0.2957 N   0  0  0  0  0  0  0  0  0  0  0  0
   -0.5910    1.7852    0.2693 C   0  0  0  0  0  0  0  0  0  0  0  0
    0.5294    2.4742    0.3886 N   0  0  0  0  0  0  0  0  0  0  0  0
    1.6431    1.7625    0.3310 C   0  0  0  0  0  0  0  0  0  0  0  0
   -2.8255   -1.0719   -0.1392 C   0  0  0  0  0  0  0  0  0  0  0  0
   -2.0771    0.0845    0.0201 C   0  0  0  0  0  0  0  0  0  0  0  0
   -0.6783    0.3905    0.0990 C   0  0  0  0  0  0  0  0  0  0  0  0
    0.5062   -0.3299    0.0392 C   0  0  0  0  0  0  0  0  0  0  0  0
    1.7012    0.3682    0.1537 C   0  0  0  0  0  0  0  0  0  0  0  0
    2.9979   -0.3390    0.1338 C   0  0  0  0  0  0  0  0  0  0  0  0
    3.2228   -1.4170    0.9874 C   0  0  0  0  0  0  0  0  0  0  0  0
    4.4253   -2.1081    0.9865 C   0  0  0  0  0  0  0  0  0  0  0  0
    5.4311   -1.7150    0.1149 C   0  0  0  0  0  0  0  0  0  0  0  0
    5.2299   -0.6506   -0.7507 C   0  0  0  0  0  0  0  0  0  0  0  0
    4.0185    0.0347   -0.7508 C   0  0  0  0  0  0  0  0  0  0  0  0
    3.7740    1.0539   -1.5969 O   0  0  0  0  0  0  0  0  0  0  0  0
   -4.6968    2.2828    0.2116 H   0  0  0  0  0  0  0  0  0  0  0  0
   -2.0635    3.2966    0.4037 H   0  0  0  0  0  0  0  0  0  0  0  0
    2.5637    2.3224    0.4474 H   0  0  0  0  0  0  0  0  0  0  0  0
   -2.3709   -2.0475   -0.2451 H   0  0  0  0  0  0  0  0  0  0  0  0
    0.5032   -1.4037   -0.1022 H   0  0  0  0  0  0  0  0  0  0  0  0
    2.4386   -1.7086    1.6757 H   0  0  0  0  0  0  0  0  0  0  0  0
    4.5747   -2.9385    1.6633 H   0  0  0  0  0  0  0  0  0  0  0  0
    6.3791   -2.2367    0.1030 H   0  0  0  0  0  0  0  0  0  0  0  0
    6.0159   -0.3547   -1.4367 H   0  0  0  0  0  0  0  0  0  0  0  0
    4.5433    1.2186   -2.1538 H   0  0  0  0  0  0  0  0  0  0  0  0
  1  2  3  0
  2  3  1  0
  3 11  2  0
  3  4  1  0
 22 21  1  0
 11 12  1  0
  4  5  2  0
 12  6  2  0
 12 13  1  0
 20 21  2  0
 20 19  1  0
  5  6  1  0
 21 16  1  0
  6  7  1  0
 14 13  2  0
 14 15  1  0
 13  8  1  0
 19 18  2  0
 16 15  1  0
 16 17  2  0
 15 10  2  0
  7  8  1  0
  8  9  2  0
 10  9  1  0
 18 17  1  0
  5 23  1  0
  7 24  1  0
 10 25  1  0
 11 26  1  0
 14 27  1  0
 17 28  1  0
 18 29  1  0
 19 30  1  0
 20 31  1  0
 22 32  1  0
M  END
