
     RDKit          3D

 48 48  0  0  0  0  0  0  0  0999 V2000
   -7.3600   -2.1143   -3.4115 C   0  0  0  0  0  0  0  0  0  0  0  0
   -5.8703   -1.8560   -3.6259 C   0  0  0  0  0  0  0  0  0  0  0  0
   -5.2859   -1.1861   -2.3842 C   0  0  0  0  0  0  0  0  0  0  0  0
   -3.7724   -1.0554   -2.5409 C   0  0  0  0  0  0  0  0  0  0  0  0
   -3.1871   -0.3927   -1.2958 C   0  0  0  0  0  0  0  0  0  0  0  0
   -1.6643   -0.3581   -1.4058 C   0  0  0  0  0  0  0  0  0  0  0  0
   -1.0733    0.2040   -0.1147 C   0  0  0  0  0  0  0  0  0  0  0  0
    0.4472    0.0653   -0.1482 C   0  0  0  0  0  0  0  0  0  0  0  0
    0.9910    0.6120    1.0188 O   0  0  0  0  0  0  0  0  0  0  0  0
    2.3321    0.3858    1.1637 C   0  0  1  0  0  0  0  0  0  0  0  0
    3.0571    1.6573    0.9559 O   0  0  0  0  0  0  0  0  0  0  0  0
    4.5006    1.5293    1.2443 C   0  0  1  0  0  0  0  0  0  0  0  0
    5.1319    2.8810    1.1638 C   0  0  0  0  0  0  0  0  0  0  0  0
    5.2131    3.2793   -0.1765 O   0  0  0  0  0  0  0  0  0  0  0  0
    4.7608    0.9426    2.6339 C   0  0  1  0  0  0  0  0  0  0  0  0
    4.3310    1.8903    3.6257 O   0  0  0  0  0  0  0  0  0  0  0  0
    4.0349   -0.3329    2.8444 C   0  0  1  0  0  0  0  0  0  0  0  0
    4.2007   -0.7457    4.2391 O   0  0  0  0  0  0  0  0  0  0  0  0
    2.5883   -0.2032    2.5534 C   0  0  1  0  0  0  0  0  0  0  0  0
    1.9916    0.6569    3.5394 O   0  0  0  0  0  0  0  0  0  0  0  0
   -7.7610   -2.6517   -4.2660 H   0  0  0  0  0  0  0  0  0  0  0  0
   -7.4988   -2.7081   -2.5126 H   0  0  0  0  0  0  0  0  0  0  0  0
   -7.8799   -1.1667   -3.3033 H   0  0  0  0  0  0  0  0  0  0  0  0
   -5.3616   -2.7978   -3.8019 H   0  0  0  0  0  0  0  0  0  0  0  0
   -5.7358   -1.2065   -4.4843 H   0  0  0  0  0  0  0  0  0  0  0  0
   -5.7235   -0.2007   -2.2651 H   0  0  0  0  0  0  0  0  0  0  0  0
   -5.5081   -1.7886   -1.5099 H   0  0  0  0  0  0  0  0  0  0  0  0
   -3.5503   -0.4482   -3.4120 H   0  0  0  0  0  0  0  0  0  0  0  0
   -3.3354   -2.0403   -2.6657 H   0  0  0  0  0  0  0  0  0  0  0  0
   -3.4733   -0.9593   -0.4162 H   0  0  0  0  0  0  0  0  0  0  0  0
   -3.5667    0.6201   -1.2129 H   0  0  0  0  0  0  0  0  0  0  0  0
   -1.2905   -1.3636   -1.5668 H   0  0  0  0  0  0  0  0  0  0  0  0
   -1.3762    0.2727   -2.2400 H   0  0  0  0  0  0  0  0  0  0  0  0
   -1.4680   -0.3458    0.7330 H   0  0  0  0  0  0  0  0  0  0  0  0
   -1.3388    1.2517   -0.0216 H   0  0  0  0  0  0  0  0  0  0  0  0
    0.7131   -0.9843   -0.2138 H   0  0  0  0  0  0  0  0  0  0  0  0
    0.8394    0.5924   -1.0113 H   0  0  0  0  0  0  0  0  0  0  0  0
    2.6562   -0.3279    0.4160 H   0  0  0  0  0  0  0  0  0  0  0  0
    4.9496    0.8812    0.5014 H   0  0  0  0  0  0  0  0  0  0  0  0
    4.5307    3.5945    1.7172 H   0  0  0  0  0  0  0  0  0  0  0  0
    6.1287    2.8405    1.5900 H   0  0  0  0  0  0  0  0  0  0  0  0
    5.8896    3.9315   -0.2707 H   0  0  0  0  0  0  0  0  0  0  0  0
    5.8234    0.7643    2.7462 H   0  0  0  0  0  0  0  0  0  0  0  0
    4.9799    1.9465    4.3094 H   0  0  0  0  0  0  0  0  0  0  0  0
    4.4577   -1.0893    2.1943 H   0  0  0  0  0  0  0  0  0  0  0  0
    4.8540   -1.4255    4.2906 H   0  0  0  0  0  0  0  0  0  0  0  0
    2.1299   -1.1832    2.6091 H   0  0  0  0  0  0  0  0  0  0  0  0
    1.5490    0.1325    4.1881 H   0  0  0  0  0  0  0  0  0  0  0  0
  1  2  1  0
  2  3  1  0
  3  4  1  0
  4  5  1  0
  5  6  1  0
  6  7  1  0
  7  8  1  0
  8  9  1  0
  9 10  1  0
 10 11  1  0
 11 12  1  0
 12 13  1  0
 13 14  1  0
 12 15  1  0
 15 16  1  0
 15 17  1  0
 17 18  1  0
 17 19  1  0
 10 19  1  0
 19 20  1  0
  1 21  1  0
  1 22  1  0
  1 23  1  0
  2 24  1  0
  2 25  1  0
  3 26  1  0
  3 27  1  0
  4 28  1  0
  4 29  1  0
  5 30  1  0
  5 31  1  0
  6 32  1  0
  6 33  1  0
  7 34  1  0
  7 35  1  0
  8 36  1  0
  8 37  1  0
 10 38  1  6
 12 39  1  6
 13 40  1  0
 13 41  1  0
 14 42  1  0
 15 43  1  1
 16 44  1  0
 17 45  1  6
 18 46  1  0
 19 47  1  6
 20 48  1  0
M  END
