
     RDKit          3D

133133  0  0  0  0  0  0  0  0999 V2000
    0.2859    2.7363    3.1582 C   0  0  2  0  0  0  0  0  0  0  0  0
    0.2848    3.4045    1.9428 O   0  0  0  0  0  0  0  0  0  0  0  0
    1.4251    1.7127    3.1305 C   0  0  2  0  0  0  0  0  0  0  0  0
    2.6667    2.2886    2.8053 O   0  0  0  0  0  0  0  0  0  0  0  0
    1.1244    0.6304    2.1009 C   0  0  1  0  0  0  0  0  0  0  0  0
    2.0919   -0.3939    2.1249 O   0  0  0  0  0  0  0  0  0  0  0  0
   -0.2337   -0.0035    2.3949 C   0  0  1  0  0  0  0  0  0  0  0  0
   -0.2231   -0.7111    3.6112 O   0  0  0  0  0  0  0  0  0  0  0  0
   -1.2836    1.0965    2.4610 C   0  0  2  0  0  0  0  0  0  0  0  0
   -0.9306    2.0899    3.4123 O   0  0  0  0  0  0  0  0  0  0  0  0
   -2.6569    0.5765    2.8248 C   0  0  0  0  0  0  0  0  0  0  0  0
   -3.5787    1.6348    2.6986 O   0  0  0  0  0  0  0  0  0  0  0  0
   -0.4907    4.5763    1.8850 C   0  0  0  0  0  0  0  0  0  0  0  0
   -0.8936    4.8780    0.4525 C   0  0  2  0  0  0  0  0  0  0  0  0
   -1.7288    3.8426   -0.0735 O   0  0  0  0  0  0  0  0  0  0  0  0
   -3.0431    3.8932    0.1521 C   0  0  0  0  0  0  0  0  0  0  0  0
   -3.5769    4.7842    0.7625 O   0  0  0  0  0  0  0  0  0  0  0  0
   -3.7469    2.7155   -0.4618 C   0  0  0  0  0  0  0  0  0  0  0  0
   -5.2440    2.7035   -0.2038 C   0  0  0  0  0  0  0  0  0  0  0  0
   -5.9006    1.4144   -0.6800 C   0  0  0  0  0  0  0  0  0  0  0  0
   -7.4023    1.4009   -0.4239 C   0  0  0  0  0  0  0  0  0  0  0  0
   -8.0839    0.1028   -0.8367 C   0  0  0  0  0  0  0  0  0  0  0  0
   -9.5837    0.1137   -0.5664 C   0  0  0  0  0  0  0  0  0  0  0  0
  -10.2844   -1.1858   -0.9411 C   0  0  0  0  0  0  0  0  0  0  0  0
  -11.7819   -1.1536   -0.6605 C   0  0  0  0  0  0  0  0  0  0  0  0
  -12.4972   -2.4524   -1.0091 C   0  0  0  0  0  0  0  0  0  0  0  0
  -13.9929   -2.4047   -0.7220 C   0  0  0  0  0  0  0  0  0  0  0  0
  -14.7180   -3.7020   -1.0558 C   0  0  0  0  0  0  0  0  0  0  0  0
  -16.2125   -3.6449   -0.7649 C   0  0  0  0  0  0  0  0  0  0  0  0
  -16.9431   -4.9403   -1.0935 C   0  0  0  0  0  0  0  0  0  0  0  0
  -18.4373   -4.8806   -0.8001 C   0  0  0  0  0  0  0  0  0  0  0  0
  -19.1588   -6.1790   -1.1335 C   0  0  0  0  0  0  0  0  0  0  0  0
    0.2562    5.0689   -0.5131 C   0  0  0  0  0  0  0  0  0  0  0  0
    0.9508    3.8379   -0.6728 O   0  0  0  0  0  0  0  0  0  0  0  0
    2.1913    3.8604   -1.1396 C   0  0  0  0  0  0  0  0  0  0  0  0
    2.7262    4.8575   -1.5590 O   0  0  0  0  0  0  0  0  0  0  0  0
    2.8367    2.5063   -1.0380 C   0  0  0  0  0  0  0  0  0  0  0  0
    4.0508    2.3295   -1.9352 C   0  0  0  0  0  0  0  0  0  0  0  0
    4.7075    0.9691   -1.7381 C   0  0  0  0  0  0  0  0  0  0  0  0
    5.8988    0.7513   -2.6620 C   0  0  0  0  0  0  0  0  0  0  0  0
    6.5935   -0.5867   -2.4450 C   0  0  0  0  0  0  0  0  0  0  0  0
    7.7799   -0.7965   -3.3774 C   0  0  0  0  0  0  0  0  0  0  0  0
    8.5011   -2.1249   -3.1404 C   0  0  0  0  0  0  0  0  0  0  0  0
    9.6455   -2.3146   -4.0872 C   0  0  0  0  0  0  0  0  0  0  0  0
   10.9462   -2.2240   -3.8120 C   0  0  0  0  0  0  0  0  0  0  0  0
   11.5828   -1.9567   -2.4837 C   0  0  0  0  0  0  0  0  0  0  0  0
   12.5965   -3.0330   -2.0951 C   0  0  0  0  0  0  0  0  0  0  0  0
   13.2690   -2.7532   -0.7572 C   0  0  0  0  0  0  0  0  0  0  0  0
   14.3104   -3.7974   -0.3761 C   0  0  0  0  0  0  0  0  0  0  0  0
   14.9652   -3.5265    0.9728 C   0  0  0  0  0  0  0  0  0  0  0  0
   16.0181   -4.5603    1.3506 C   0  0  0  0  0  0  0  0  0  0  0  0
   16.6697   -4.2924    2.7018 C   0  0  0  0  0  0  0  0  0  0  0  0
   17.7195   -5.3321    3.0681 C   0  0  0  0  0  0  0  0  0  0  0  0
    0.4206    3.4337    3.9967 H   0  0  0  0  0  0  0  0  0  0  0  0
    1.4596    1.2474    4.1237 H   0  0  0  0  0  0  0  0  0  0  0  0
    3.0560    2.6614    3.6017 H   0  0  0  0  0  0  0  0  0  0  0  0
    1.0736    1.0933    1.1048 H   0  0  0  0  0  0  0  0  0  0  0  0
    2.9632    0.0156    2.1639 H   0  0  0  0  0  0  0  0  0  0  0  0
   -0.4936   -0.6668    1.5555 H   0  0  0  0  0  0  0  0  0  0  0  0
    0.5605   -1.2718    3.6174 H   0  0  0  0  0  0  0  0  0  0  0  0
   -1.3463    1.5361    1.4576 H   0  0  0  0  0  0  0  0  0  0  0  0
   -2.8937   -0.2514    2.1442 H   0  0  0  0  0  0  0  0  0  0  0  0
   -2.6510    0.1673    3.8419 H   0  0  0  0  0  0  0  0  0  0  0  0
   -4.4602    1.2801    2.8423 H   0  0  0  0  0  0  0  0  0  0  0  0
   -1.3964    4.4993    2.4950 H   0  0  0  0  0  0  0  0  0  0  0  0
    0.0757    5.4362    2.2659 H   0  0  0  0  0  0  0  0  0  0  0  0
   -1.4331    5.8300    0.4714 H   0  0  0  0  0  0  0  0  0  0  0  0
   -3.5369    2.7100   -1.5361 H   0  0  0  0  0  0  0  0  0  0  0  0
   -3.2872    1.8057   -0.0656 H   0  0  0  0  0  0  0  0  0  0  0  0
   -5.4308    2.8244    0.8656 H   0  0  0  0  0  0  0  0  0  0  0  0
   -5.7149    3.5577   -0.6978 H   0  0  0  0  0  0  0  0  0  0  0  0
   -5.7093    1.2694   -1.7488 H   0  0  0  0  0  0  0  0  0  0  0  0
   -5.4355    0.5637   -0.1693 H   0  0  0  0  0  0  0  0  0  0  0  0
   -7.5849    1.5805    0.6416 H   0  0  0  0  0  0  0  0  0  0  0  0
   -7.8672    2.2394   -0.9541 H   0  0  0  0  0  0  0  0  0  0  0  0
   -7.9067   -0.0834   -1.9017 H   0  0  0  0  0  0  0  0  0  0  0  0
   -7.6233   -0.7352   -0.3018 H   0  0  0  0  0  0  0  0  0  0  0  0
   -9.7549    0.3228    0.4956 H   0  0  0  0  0  0  0  0  0  0  0  0
  -10.0436    0.9442   -1.1137 H   0  0  0  0  0  0  0  0  0  0  0  0
  -10.1181   -1.3997   -2.0027 H   0  0  0  0  0  0  0  0  0  0  0  0
   -9.8287   -2.0164   -0.3905 H   0  0  0  0  0  0  0  0  0  0  0  0
  -11.9441   -0.9241    0.3987 H   0  0  0  0  0  0  0  0  0  0  0  0
  -12.2370   -0.3280   -1.2193 H   0  0  0  0  0  0  0  0  0  0  0  0
  -12.3385   -2.6849   -2.0680 H   0  0  0  0  0  0  0  0  0  0  0  0
  -12.0453   -3.2782   -0.4480 H   0  0  0  0  0  0  0  0  0  0  0  0
  -14.1490   -2.1636    0.3356 H   0  0  0  0  0  0  0  0  0  0  0  0
  -14.4441   -1.5814   -1.2872 H   0  0  0  0  0  0  0  0  0  0  0  0
  -14.5642   -3.9444   -2.1133 H   0  0  0  0  0  0  0  0  0  0  0  0
  -14.2687   -4.5256   -0.4897 H   0  0  0  0  0  0  0  0  0  0  0  0
  -16.3651   -3.3995    0.2922 H   0  0  0  0  0  0  0  0  0  0  0  0
  -16.6610   -2.8215   -1.3322 H   0  0  0  0  0  0  0  0  0  0  0  0
  -16.7927   -5.1857   -2.1509 H   0  0  0  0  0  0  0  0  0  0  0  0
  -16.4951   -5.7646   -0.5271 H   0  0  0  0  0  0  0  0  0  0  0  0
  -18.5875   -4.6371    0.2562 H   0  0  0  0  0  0  0  0  0  0  0  0
  -18.8831   -4.0564   -1.3658 H   0  0  0  0  0  0  0  0  0  0  0  0
  -19.0610   -6.4232   -2.1932 H   0  0  0  0  0  0  0  0  0  0  0  0
  -18.7467   -7.0154   -0.5655 H   0  0  0  0  0  0  0  0  0  0  0  0
  -20.2237   -6.1179   -0.9062 H   0  0  0  0  0  0  0  0  0  0  0  0
   -0.1229    5.4096   -1.4801 H   0  0  0  0  0  0  0  0  0  0  0  0
    0.9126    5.8476   -0.1191 H   0  0  0  0  0  0  0  0  0  0  0  0
    3.1166    2.3760    0.0146 H   0  0  0  0  0  0  0  0  0  0  0  0
    2.0892    1.7347   -1.2386 H   0  0  0  0  0  0  0  0  0  0  0  0
    3.7540    2.4426   -2.9821 H   0  0  0  0  0  0  0  0  0  0  0  0
    4.7821    3.1165   -1.7350 H   0  0  0  0  0  0  0  0  0  0  0  0
    5.0299    0.8699   -0.6956 H   0  0  0  0  0  0  0  0  0  0  0  0
    3.9703    0.1758   -1.9030 H   0  0  0  0  0  0  0  0  0  0  0  0
    5.5664    0.8239   -3.7034 H   0  0  0  0  0  0  0  0  0  0  0  0
    6.6219    1.5617   -2.5183 H   0  0  0  0  0  0  0  0  0  0  0  0
    6.9329   -0.6541   -1.4054 H   0  0  0  0  0  0  0  0  0  0  0  0
    5.8732   -1.4007   -2.5821 H   0  0  0  0  0  0  0  0  0  0  0  0
    7.4406   -0.7451   -4.4176 H   0  0  0  0  0  0  0  0  0  0  0  0
    8.4941    0.0229   -3.2494 H   0  0  0  0  0  0  0  0  0  0  0  0
    8.8363   -2.1698   -2.1021 H   0  0  0  0  0  0  0  0  0  0  0  0
    7.7855   -2.9438   -3.2689 H   0  0  0  0  0  0  0  0  0  0  0  0
    9.3633   -2.5097   -5.1188 H   0  0  0  0  0  0  0  0  0  0  0  0
   11.6442   -2.3602   -4.6348 H   0  0  0  0  0  0  0  0  0  0  0  0
   12.1015   -0.9916   -2.5247 H   0  0  0  0  0  0  0  0  0  0  0  0
   10.8301   -1.8630   -1.6971 H   0  0  0  0  0  0  0  0  0  0  0  0
   12.0971   -4.0065   -2.0572 H   0  0  0  0  0  0  0  0  0  0  0  0
   13.3590   -3.1114   -2.8777 H   0  0  0  0  0  0  0  0  0  0  0  0
   13.7411   -1.7647   -0.7883 H   0  0  0  0  0  0  0  0  0  0  0  0
   12.5051   -2.6984    0.0263 H   0  0  0  0  0  0  0  0  0  0  0  0
   13.8439   -4.7888   -0.3598 H   0  0  0  0  0  0  0  0  0  0  0  0
   15.0826   -3.8394   -1.1523 H   0  0  0  0  0  0  0  0  0  0  0  0
   15.4223   -2.5306    0.9601 H   0  0  0  0  0  0  0  0  0  0  0  0
   14.1930   -3.4941    1.7495 H   0  0  0  0  0  0  0  0  0  0  0  0
   15.5626   -5.5571    1.3602 H   0  0  0  0  0  0  0  0  0  0  0  0
   16.7928   -4.5906    0.5761 H   0  0  0  0  0  0  0  0  0  0  0  0
   17.1250   -3.2970    2.6918 H   0  0  0  0  0  0  0  0  0  0  0  0
   15.8974   -4.2636    3.4766 H   0  0  0  0  0  0  0  0  0  0  0  0
   18.1748   -5.1211    4.0365 H   0  0  0  0  0  0  0  0  0  0  0  0
   17.2817   -6.3310    3.1199 H   0  0  0  0  0  0  0  0  0  0  0  0
   18.5201   -5.3642    2.3266 H   0  0  0  0  0  0  0  0  0  0  0  0
  2  1  1  0
  3  1  1  0
  1 10  1  0
  1 54  1  1
  2 13  1  0
  4  3  1  0
  3  5  1  0
  3 55  1  1
  4 56  1  0
  6  5  1  0
  5  7  1  0
  5 57  1  6
  6 58  1  0
  7  9  1  0
  7  8  1  0
  7 59  1  6
  8 60  1  0
 10  9  1  0
  9 11  1  0
  9 61  1  6
 11 12  1  0
 11 62  1  0
 11 63  1  0
 12 64  1  0
 14 13  1  0
 13 65  1  0
 13 66  1  0
 15 14  1  0
 14 33  1  0
 14 67  1  1
 16 15  1  0
 18 16  1  0
 16 17  2  0
 19 18  1  0
 18 68  1  0
 18 69  1  0
 20 19  1  0
 19 70  1  0
 19 71  1  0
 21 20  1  0
 20 72  1  0
 20 73  1  0
 22 21  1  0
 21 74  1  0
 21 75  1  0
 23 22  1  0
 22 76  1  0
 22 77  1  0
 24 23  1  0
 23 78  1  0
 23 79  1  0
 25 24  1  0
 24 80  1  0
 24 81  1  0
 26 25  1  0
 25 82  1  0
 25 83  1  0
 27 26  1  0
 26 84  1  0
 26 85  1  0
 28 27  1  0
 27 86  1  0
 27 87  1  0
 29 28  1  0
 28 88  1  0
 28 89  1  0
 29 30  1  0
 29 90  1  0
 29 91  1  0
 31 30  1  0
 30 92  1  0
 30 93  1  0
 32 31  1  0
 31 94  1  0
 31 95  1  0
 32 96  1  0
 32 97  1  0
 32 98  1  0
 34 33  1  0
 33 99  1  0
 33100  1  0
 34 35  1  0
 37 35  1  0
 35 36  2  0
 38 37  1  0
 37101  1  0
 37102  1  0
 39 38  1  0
 38103  1  0
 38104  1  0
 40 39  1  0
 39105  1  0
 39106  1  0
 41 40  1  0
 40107  1  0
 40108  1  0
 42 41  1  0
 41109  1  0
 41110  1  0
 43 42  1  0
 42111  1  0
 42112  1  0
 44 43  1  0
 43113  1  0
 43114  1  0
 45 44  2  0
 44115  1  0
 45 46  1  0
 45116  1  0
 47 46  1  0
 46117  1  0
 46118  1  0
 47 48  1  0
 47119  1  0
 47120  1  0
 48 49  1  0
 48121  1  0
 48122  1  0
 49 50  1  0
 49123  1  0
 49124  1  0
 50 51  1  0
 50125  1  0
 50126  1  0
 51 52  1  0
 51127  1  0
 51128  1  0
 52 53  1  0
 52129  1  0
 52130  1  0
 53131  1  0
 53132  1  0
 53133  1  0
M  END
