
     RDKit          3D

 49 50  0  0  0  0  0  0  0  0999 V2000
   10.4430    1.8064   -0.8929 C   0  0  0  0  0  0  0  0  0  0  0  0
    9.3049    0.8162   -0.9066 C   0  0  0  0  0  0  0  0  0  0  0  0
    9.3818   -0.2516   -1.4911 O   0  0  0  0  0  0  0  0  0  0  0  0
    8.1998    1.2342   -0.2418 N   0  0  0  0  0  0  0  0  0  0  0  0
    6.9481    0.6108   -0.1364 C   0  0  0  0  0  0  0  0  0  0  0  0
    6.7251   -0.7495   -0.3629 C   0  0  0  0  0  0  0  0  0  0  0  0
    5.4567   -1.2815   -0.2111 C   0  0  0  0  0  0  0  0  0  0  0  0
    5.8697    1.4008    0.2495 C   0  0  0  0  0  0  0  0  0  0  0  0
    4.5984    0.8689    0.4083 C   0  0  0  0  0  0  0  0  0  0  0  0
    4.3806   -0.4847    0.1732 C   0  0  0  0  0  0  0  0  0  0  0  0
    3.1846   -1.1015    0.2946 O   0  0  0  0  0  0  0  0  0  0  0  0
    2.0608   -0.3216    0.6277 C   0  0  0  0  0  0  0  0  0  0  0  0
    0.8456   -1.2502    0.6551 C   0  0  1  0  0  0  0  0  0  0  0  0
    0.6517   -1.8811   -0.5874 O   0  0  0  0  0  0  0  0  0  0  0  0
    0.9855   -2.3532    1.7024 C   0  0  0  0  0  0  0  0  0  0  0  0
   -0.3753   -0.3998    1.0548 C   0  0  0  0  0  0  0  0  0  0  0  0
   -0.3100    0.4310    1.9383 O   0  0  0  0  0  0  0  0  0  0  0  0
   -1.5040   -0.7057    0.3646 N   0  0  0  0  0  0  0  0  0  0  0  0
   -2.7772   -0.1839    0.5115 C   0  0  0  0  0  0  0  0  0  0  0  0
   -3.7818   -0.7626   -0.2735 C   0  0  0  0  0  0  0  0  0  0  0  0
   -3.1129    0.8535    1.3788 C   0  0  0  0  0  0  0  0  0  0  0  0
   -4.4206    1.2980    1.4307 C   0  0  0  0  0  0  0  0  0  0  0  0
   -5.3953    0.7454    0.6209 C   0  0  0  0  0  0  0  0  0  0  0  0
   -6.7158    1.3450    0.6896 N   0  0  0  0  0  0  0  0  0  0  0  0
   -7.1086    1.7065    1.7728 O   0  0  0  0  0  0  0  0  0  0  0  0
   -7.3297    1.4806   -0.3414 O   0  0  0  0  0  0  0  0  0  0  0  0
   -5.0854   -0.3098   -0.2428 C   0  0  0  0  0  0  0  0  0  0  0  0
   -6.1028   -1.0285   -1.0959 C   0  0  1  0  0  0  0  0  0  0  0  0
   -5.6540   -2.2309   -1.4676 F   0  0  0  0  0  0  0  0  0  0  0  0
   -7.2447   -1.2385   -0.4360 F   0  0  0  0  0  0  0  0  0  0  0  0
   -6.3844   -0.3655   -2.2177 F   0  0  0  0  0  0  0  0  0  0  0  0
   10.4528    2.3515   -1.8384 H   0  0  0  0  0  0  0  0  0  0  0  0
   10.3744    2.5331   -0.0856 H   0  0  0  0  0  0  0  0  0  0  0  0
   11.3901    1.2772   -0.8093 H   0  0  0  0  0  0  0  0  0  0  0  0
    8.2483    2.1554    0.1648 H   0  0  0  0  0  0  0  0  0  0  0  0
    7.5319   -1.4033   -0.6520 H   0  0  0  0  0  0  0  0  0  0  0  0
    5.2989   -2.3380   -0.3888 H   0  0  0  0  0  0  0  0  0  0  0  0
    6.0147    2.4592    0.4320 H   0  0  0  0  0  0  0  0  0  0  0  0
    3.7996    1.5316    0.7126 H   0  0  0  0  0  0  0  0  0  0  0  0
    2.1856    0.1572    1.6024 H   0  0  0  0  0  0  0  0  0  0  0  0
    1.9046    0.4702   -0.1177 H   0  0  0  0  0  0  0  0  0  0  0  0
    0.7944   -1.2492   -1.3028 H   0  0  0  0  0  0  0  0  0  0  0  0
    1.1069   -1.9293    2.6979 H   0  0  0  0  0  0  0  0  0  0  0  0
    0.0987   -2.9880    1.7088 H   0  0  0  0  0  0  0  0  0  0  0  0
    1.8494   -2.9807    1.4891 H   0  0  0  0  0  0  0  0  0  0  0  0
   -1.3942   -1.4267   -0.3370 H   0  0  0  0  0  0  0  0  0  0  0  0
   -3.5162   -1.5959   -0.9097 H   0  0  0  0  0  0  0  0  0  0  0  0
   -2.3785    1.3231    2.0100 H   0  0  0  0  0  0  0  0  0  0  0  0
   -4.6650    2.1111    2.0995 H   0  0  0  0  0  0  0  0  0  0  0  0
  1  2  1  0
  1 32  1  0
  1 33  1  0
  1 34  1  0
  2  3  2  0
  2  4  1  0
  4  5  1  0
  4 35  1  0
  5  6  2  0
  5  8  1  0
  6  7  1  0
  6 36  1  0
  7 10  2  0
  7 37  1  0
  8  9  2  0
  8 38  1  0
  9 10  1  0
  9 39  1  0
 10 11  1  0
 11 12  1  0
 12 13  1  0
 12 40  1  0
 12 41  1  0
 13 14  1  6
 13 15  1  0
 13 16  1  0
 14 42  1  0
 15 43  1  0
 15 44  1  0
 15 45  1  0
 16 17  2  0
 16 18  1  0
 18 19  1  0
 18 46  1  0
 19 20  2  0
 19 21  1  0
 20 27  1  0
 20 47  1  0
 21 22  2  0
 21 48  1  0
 22 23  1  0
 22 49  1  0
 23 24  1  0
 23 27  2  0
 24 25  1  0
 24 26  2  0
 27 28  1  0
 28 29  1  6
 28 30  1  0
 28 31  1  0
M  CHG  2  24   1  25  -1
M  END
