
     RDKit          3D

 23 23  0  0  0  0  0  0  0  0999 V2000
    1.9625    1.1853   -0.8117 N   0  0  0  0  0  0  0  0  0  0  0  0
    2.0676   -0.1840   -0.3291 C   0  0  1  0  0  0  0  0  0  0  0  0
    3.4830   -0.5871    0.0783 C   0  0  0  0  0  0  0  0  0  0  0  0
    1.0989   -0.3938    0.8401 C   0  0  0  0  0  0  0  0  0  0  0  0
   -0.3407   -0.1906    0.4663 C   0  0  0  0  0  0  0  0  0  0  0  0
   -0.9745    1.0347    0.6592 C   0  0  0  0  0  0  0  0  0  0  0  0
   -1.0722   -1.2286   -0.1081 C   0  0  0  0  0  0  0  0  0  0  0  0
   -2.3017    1.2182    0.2941 C   0  0  0  0  0  0  0  0  0  0  0  0
   -2.3982   -1.0501   -0.4806 C   0  0  0  0  0  0  0  0  0  0  0  0
   -3.0189    0.1760   -0.2797 C   0  0  0  0  0  0  0  0  0  0  0  0
    2.2722    1.8192   -0.0826 H   0  0  0  0  0  0  0  0  0  0  0  0
    2.6093    1.3196   -1.5800 H   0  0  0  0  0  0  0  0  0  0  0  0
    1.7481   -0.8394   -1.1475 H   0  0  0  0  0  0  0  0  0  0  0  0
    4.1793   -0.4492   -0.7506 H   0  0  0  0  0  0  0  0  0  0  0  0
    3.8343    0.0229    0.9144 H   0  0  0  0  0  0  0  0  0  0  0  0
    3.5337   -1.6339    0.3840 H   0  0  0  0  0  0  0  0  0  0  0  0
    1.2390   -1.4071    1.2250 H   0  0  0  0  0  0  0  0  0  0  0  0
    1.3773    0.2870    1.6518 H   0  0  0  0  0  0  0  0  0  0  0  0
   -0.4252    1.8533    1.1087 H   0  0  0  0  0  0  0  0  0  0  0  0
   -0.5983   -2.1918   -0.2628 H   0  0  0  0  0  0  0  0  0  0  0  0
   -2.7766    2.1776    0.4577 H   0  0  0  0  0  0  0  0  0  0  0  0
   -2.9476   -1.8717   -0.9230 H   0  0  0  0  0  0  0  0  0  0  0  0
   -4.0536    0.3182   -0.5641 H   0  0  0  0  0  0  0  0  0  0  0  0
  3  2  1  0
  2  1  1  0
  2  4  1  0
  6  8  1  0
  6  5  2  0
  8 10  2  0
  4  5  1  0
  5  7  1  0
 10  9  1  0
  7  9  2  0
  1 11  1  0
  1 12  1  0
  2 13  1  6
  3 14  1  0
  3 15  1  0
  3 16  1  0
  4 17  1  0
  4 18  1  0
  6 19  1  0
  7 20  1  0
  8 21  1  0
  9 22  1  0
 10 23  1  0
M  END
