
     RDKit          3D

 40 44  0  0  0  0  0  0  0  0999 V2000
    1.4279    0.0644    3.4404 O   0  0  0  0  0  0  0  0  0  0  0  0
    1.0426    0.0386    2.3049 C   0  0  0  0  0  0  0  0  0  0  0  0
    1.8213    0.0334    1.0556 C   0  0  0  0  0  0  0  0  0  0  0  0
    3.1896    0.0565    0.8630 C   0  0  0  0  0  0  0  0  0  0  0  0
    3.6530    0.0412   -0.4470 C   0  0  0  0  0  0  0  0  0  0  0  0
   -0.2563    0.0047    1.9821 O   0  0  0  0  0  0  0  0  0  0  0  0
   -0.4720   -0.0223    0.5439 C   0  0  2  0  0  0  0  0  0  0  0  0
   -1.2532    1.1951    0.1455 C   0  0  0  0  0  0  0  0  0  0  0  0
   -0.7199    2.4729    0.2946 C   0  0  0  0  0  0  0  0  0  0  0  0
   -1.4362    3.6029   -0.0342 C   0  0  0  0  0  0  0  0  0  0  0  0
   -2.7351    3.4737   -0.5327 C   0  0  0  0  0  0  0  0  0  0  0  0
   -3.4887    4.5318   -0.8749 O   0  0  0  0  0  0  0  0  0  0  0  0
   -3.2891    2.2152   -0.6932 C   0  0  0  0  0  0  0  0  0  0  0  0
   -2.5467    1.0941   -0.3497 C   0  0  0  0  0  0  0  0  0  0  0  0
   -3.1641   -0.0931   -0.5407 O   0  0  0  0  0  0  0  0  0  0  0  0
   -2.4982   -1.2450   -0.3087 C   0  0  0  0  0  0  0  0  0  0  0  0
   -3.1959   -2.4102   -0.6107 C   0  0  0  0  0  0  0  0  0  0  0  0
   -2.5931   -3.6397   -0.4090 C   0  0  0  0  0  0  0  0  0  0  0  0
   -3.2093   -4.8029   -0.6748 O   0  0  0  0  0  0  0  0  0  0  0  0
   -1.2872   -3.7019    0.0866 C   0  0  0  0  0  0  0  0  0  0  0  0
   -0.6198   -2.5347    0.3734 C   0  0  0  0  0  0  0  0  0  0  0  0
   -1.2043   -1.2808    0.1849 C   0  0  0  0  0  0  0  0  0  0  0  0
    0.9340   -0.0035    0.0032 C   0  0  0  0  0  0  0  0  0  0  0  0
    1.3800   -0.0190   -1.3039 C   0  0  0  0  0  0  0  0  0  0  0  0
    2.7489    0.0037   -1.5172 C   0  0  0  0  0  0  0  0  0  0  0  0
    5.9295    0.0886    0.2322 O   0  0  0  0  0  0  0  0  0  0  0  0
    5.1234    0.0640   -0.6581 C   0  0  0  0  0  0  0  0  0  0  0  0
    5.4622    0.0502   -1.9474 O   0  0  0  0  0  0  0  0  0  0  0  0
    3.8771    0.0844    1.6976 H   0  0  0  0  0  0  0  0  0  0  0  0
    3.1200   -0.0091   -2.5323 H   0  0  0  0  0  0  0  0  0  0  0  0
    0.2859    2.5925    0.6784 H   0  0  0  0  0  0  0  0  0  0  0  0
   -0.9880    4.5801    0.1007 H   0  0  0  0  0  0  0  0  0  0  0  0
   -3.0055    5.3495   -0.7307 H   0  0  0  0  0  0  0  0  0  0  0  0
   -4.2933    2.1024   -1.0800 H   0  0  0  0  0  0  0  0  0  0  0  0
   -4.2055   -2.3300   -0.9976 H   0  0  0  0  0  0  0  0  0  0  0  0
   -4.1021   -4.6482   -0.9950 H   0  0  0  0  0  0  0  0  0  0  0  0
   -0.8178   -4.6629    0.2444 H   0  0  0  0  0  0  0  0  0  0  0  0
    0.3919   -2.5976    0.7553 H   0  0  0  0  0  0  0  0  0  0  0  0
    0.6880   -0.0489   -2.1348 H   0  0  0  0  0  0  0  0  0  0  0  0
    6.4263    0.0620   -2.0130 H   0  0  0  0  0  0  0  0  0  0  0  0
  1  2  2  0
  2  3  1  0
  2  6  1  0
  3  4  2  0
  3 23  1  0
  4  5  1  0
  5 25  2  0
  5 27  1  0
  7  6  1  1
  7  8  1  0
  7 22  1  0
  7 23  1  0
  8  9  2  0
  8 14  1  0
  9 10  1  0
 10 11  2  0
 11 12  1  0
 11 13  1  0
 13 14  2  0
 14 15  1  0
 15 16  1  0
 16 17  2  0
 16 22  1  0
 17 18  1  0
 18 19  1  0
 18 20  2  0
 20 21  1  0
 21 22  2  0
 23 24  2  0
 24 25  1  0
 26 27  2  0
 27 28  1  0
  4 29  1  0
 25 30  1  0
  9 31  1  0
 10 32  1  0
 12 33  1  0
 13 34  1  0
 17 35  1  0
 19 36  1  0
 20 37  1  0
 21 38  1  0
 24 39  1  0
 28 40  1  0
M  END
