
     RDKit          3D

 30 29  0  0  0  0  0  0  0  0999 V2000
   -0.6677   -0.3267   -2.7060 C   0  0  0  0  0  0  0  0  0  0  0  0
   -0.3369    0.0717   -1.3709 O   0  0  0  0  0  0  0  0  0  0  0  0
   -0.3680    0.2648    1.0030 O   0  0  0  0  0  0  0  0  0  0  0  0
    0.4643    0.1022   -3.6243 C   0  0  1  0  0  0  0  0  0  0  0  0
    0.1583   -0.3492   -5.0440 C   0  0  0  0  0  0  0  0  0  0  0  0
    1.2728   -0.0713   -5.8543 O   0  0  0  0  0  0  0  0  0  0  0  0
   -1.0554   -0.6203   -0.1307 P   0  0  1  0  0  0  0  0  0  0  0  0
   -2.6010   -0.2202   -0.1851 O   0  0  0  0  0  0  0  0  0  0  0  0
   -0.9274   -2.0837   -0.0061 O   0  0  0  0  0  0  0  0  0  0  0  0
    0.7207    1.4811   -3.5371 O   0  0  0  0  0  0  0  0  0  0  0  0
   -0.5095   -0.0712    2.3867 C   0  0  0  0  0  0  0  0  0  0  0  0
    0.6902    0.5469    3.1155 C   0  0  2  0  0  0  0  0  0  0  0  0
    1.9796    0.1012    2.6530 N   0  0  0  0  0  0  0  0  0  0  0  0
    0.5603    0.2800    4.6045 C   0  0  0  0  0  0  0  0  0  0  0  0
   -0.5474    0.8146    5.1020 O   0  0  0  0  0  0  0  0  0  0  0  0
    1.3525   -0.3459    5.2575 O   0  0  0  0  0  0  0  0  0  0  0  0
   -0.8017   -1.4100   -2.7662 H   0  0  0  0  0  0  0  0  0  0  0  0
   -1.6079    0.1480   -3.0044 H   0  0  0  0  0  0  0  0  0  0  0  0
    1.3810   -0.3959   -3.2915 H   0  0  0  0  0  0  0  0  0  0  0  0
   -0.0794   -1.4208   -5.0316 H   0  0  0  0  0  0  0  0  0  0  0  0
   -0.7434    0.1703   -5.3995 H   0  0  0  0  0  0  0  0  0  0  0  0
    1.0543   -0.3206   -6.7565 H   0  0  0  0  0  0  0  0  0  0  0  0
   -2.7924    0.7259   -0.2413 H   0  0  0  0  0  0  0  0  0  0  0  0
   -0.0428    1.9606   -3.8782 H   0  0  0  0  0  0  0  0  0  0  0  0
   -0.5075   -1.1569    2.5209 H   0  0  0  0  0  0  0  0  0  0  0  0
   -1.4554    0.3250    2.7577 H   0  0  0  0  0  0  0  0  0  0  0  0
    0.6344    1.6334    2.9816 H   0  0  0  0  0  0  0  0  0  0  0  0
    2.0586   -0.9059    2.7274 H   0  0  0  0  0  0  0  0  0  0  0  0
    2.0858    0.3278    1.6733 H   0  0  0  0  0  0  0  0  0  0  0  0
   -0.6223    0.6121    6.0470 H   0  0  0  0  0  0  0  0  0  0  0  0
  1  2  1  0
  1  4  1  0
  1 17  1  0
  1 18  1  0
  7  2  1  6
  3  7  1  0
  3 11  1  0
  4  5  1  0
  4 10  1  0
  4 19  1  1
  5  6  1  0
  5 20  1  0
  5 21  1  0
  6 22  1  0
  7  8  1  0
  7  9  2  0
  8 23  1  0
 10 24  1  0
 11 12  1  0
 11 25  1  0
 11 26  1  0
 12 13  1  0
 12 14  1  0
 12 27  1  1
 13 28  1  0
 13 29  1  0
 14 15  1  0
 14 16  2  0
 15 30  1  0
M  END
