
     RDKit          3D

 25 26  0  0  0  0  0  0  0  0999 V2000
    4.3757    0.5847   -0.0256 N   0  0  0  0  0  0  0  0  0  0  0  0
    3.3504   -0.2711    0.1272 C   0  0  0  0  0  0  0  0  0  0  0  0
    3.5286   -1.4558    0.4189 O   0  0  0  0  0  0  0  0  0  0  0  0
    2.0108    0.2719   -0.0585 C   0  0  0  0  0  0  0  0  0  0  0  0
    1.5695    1.5812   -0.3576 C   0  0  0  0  0  0  0  0  0  0  0  0
    0.2691    1.6679   -0.3996 N   0  0  0  0  0  0  0  0  0  0  0  0
   -0.1803    0.4122   -0.1411 N   0  0  0  0  0  0  0  0  0  0  0  0
    0.8300   -0.4584    0.0842 C   0  0  0  0  0  0  0  0  0  0  0  0
    0.6476   -1.7723    0.3509 N   0  0  0  0  0  0  0  0  0  0  0  0
   -1.5690    0.1674   -0.0903 C   0  0  0  0  0  0  0  0  0  0  0  0
   -2.1115   -0.9445   -0.7250 C   0  0  0  0  0  0  0  0  0  0  0  0
   -3.4803   -1.1662   -0.6629 C   0  0  0  0  0  0  0  0  0  0  0  0
   -4.3068   -0.2759    0.0076 C   0  0  0  0  0  0  0  0  0  0  0  0
   -3.7583    0.8424    0.6233 C   0  0  0  0  0  0  0  0  0  0  0  0
   -2.3907    1.0646    0.5834 C   0  0  0  0  0  0  0  0  0  0  0  0
    4.2507    1.5452   -0.2921 H   0  0  0  0  0  0  0  0  0  0  0  0
    5.3218    0.2543    0.0663 H   0  0  0  0  0  0  0  0  0  0  0  0
    2.1666    2.4622   -0.5458 H   0  0  0  0  0  0  0  0  0  0  0  0
    1.4812   -2.2392    0.6738 H   0  0  0  0  0  0  0  0  0  0  0  0
   -0.1949   -2.0413    0.8356 H   0  0  0  0  0  0  0  0  0  0  0  0
   -1.4788   -1.6273   -1.2765 H   0  0  0  0  0  0  0  0  0  0  0  0
   -3.9003   -2.0335   -1.1548 H   0  0  0  0  0  0  0  0  0  0  0  0
   -5.3740   -0.4499    0.0475 H   0  0  0  0  0  0  0  0  0  0  0  0
   -4.3961    1.5426    1.1465 H   0  0  0  0  0  0  0  0  0  0  0  0
   -1.9615    1.9296    1.0704 H   0  0  0  0  0  0  0  0  0  0  0  0
  1  2  1  0
  3  2  2  0
  2  4  1  0
  4  5  1  0
  4  8  2  0
  9  8  1  0
  5  6  2  0
  8  7  1  0
  6  7  1  0
  7 10  1  0
 11 10  2  0
 11 12  1  0
 10 15  1  0
 12 13  2  0
 15 14  2  0
 13 14  1  0
  1 16  1  0
  1 17  1  0
  5 18  1  0
  9 19  1  0
  9 20  1  0
 11 21  1  0
 12 22  1  0
 13 23  1  0
 14 24  1  0
 15 25  1  0
M  END
