
     RDKit          3D

 49 50  0  0  0  0  0  0  0  0999 V2000
   -5.7533   -0.2205   -0.8607 C   0  0  0  0  0  0  0  0  0  0  0  0
   -5.5794   -1.8836    0.8626 C   0  0  0  0  0  0  0  0  0  0  0  0
   -4.3164   -1.3574    1.1515 C   0  0  0  0  0  0  0  0  0  0  0  0
   -3.8497   -0.2848    0.4113 C   0  0  0  0  0  0  0  0  0  0  0  0
   -1.5468    0.1048   -0.5249 C   0  0  0  0  0  0  0  0  0  0  0  0
   -0.1830    0.6717   -0.2550 C   0  0  0  0  0  0  0  0  0  0  0  0
    0.0784    2.0222   -0.4105 C   0  0  0  0  0  0  0  0  0  0  0  0
   -6.3050   -1.3052   -0.1601 C   0  0  0  0  0  0  0  0  0  0  0  0
   -6.1391   -3.0245    1.6563 C   0  0  0  0  0  0  0  0  0  0  0  0
   -2.4912    0.3029    0.6688 C   0  0  0  0  0  0  0  0  0  0  0  0
    1.3186    2.5560   -0.1151 C   0  0  0  0  0  0  0  0  0  0  0  0
    2.3235    1.7292    0.3495 C   0  0  0  0  0  0  0  0  0  0  0  0
    2.1190    0.3708    0.5250 C   0  0  0  0  0  0  0  0  0  0  0  0
    0.8572   -0.1261    0.2132 C   0  0  0  0  0  0  0  0  0  0  0  0
    3.2245   -0.5261    1.0029 C   0  0  0  0  0  0  0  0  0  0  0  0
    4.2236   -0.8751   -0.1029 C   0  0  0  0  0  0  0  0  0  0  0  0
    5.2831   -1.8429    0.4054 C   0  0  0  0  0  0  0  0  0  0  0  0
    7.4621   -2.7698    0.1194 C   0  0  0  0  0  0  0  0  0  0  0  0
    5.9952   -2.6549   -1.7527 C   0  0  0  0  0  0  0  0  0  0  0  0
   -0.8735    2.8532   -0.8509 F   0  0  0  0  0  0  0  0  0  0  0  0
    1.5418    3.8610   -0.2744 F   0  0  0  0  0  0  0  0  0  0  0  0
    3.5104    2.2791    0.6317 F   0  0  0  0  0  0  0  0  0  0  0  0
   -4.5520    0.2724   -0.5755 N   0  0  0  0  0  0  0  0  0  0  0  0
   -6.4619    0.4044   -1.8483 N   0  0  0  0  0  0  0  0  0  0  0  0
    6.3926   -2.0267   -0.5111 N   0  0  0  0  0  0  0  0  0  0  0  0
   -3.7058   -1.7846    1.9370 H   0  0  0  0  0  0  0  0  0  0  0  0
   -1.9900    0.5552   -1.4142 H   0  0  0  0  0  0  0  0  0  0  0  0
   -1.4486   -0.9627   -0.7310 H   0  0  0  0  0  0  0  0  0  0  0  0
   -7.2871   -1.6797   -0.4236 H   0  0  0  0  0  0  0  0  0  0  0  0
   -6.7597   -2.6506    2.4731 H   0  0  0  0  0  0  0  0  0  0  0  0
   -6.7653   -3.6719    1.0435 H   0  0  0  0  0  0  0  0  0  0  0  0
   -5.3490   -3.6289    2.0998 H   0  0  0  0  0  0  0  0  0  0  0  0
   -2.5967    1.3710    0.8760 H   0  0  0  0  0  0  0  0  0  0  0  0
   -2.0508   -0.1526    1.5578 H   0  0  0  0  0  0  0  0  0  0  0  0
    0.6753   -1.1862    0.3459 H   0  0  0  0  0  0  0  0  0  0  0  0
    3.7524   -0.0636    1.8405 H   0  0  0  0  0  0  0  0  0  0  0  0
    2.7804   -1.4457    1.3910 H   0  0  0  0  0  0  0  0  0  0  0  0
    3.6775   -1.3044   -0.9463 H   0  0  0  0  0  0  0  0  0  0  0  0
    4.7130    0.0310   -0.4695 H   0  0  0  0  0  0  0  0  0  0  0  0
    5.6926   -1.4476    1.3406 H   0  0  0  0  0  0  0  0  0  0  0  0
    4.8031   -2.8047    0.6641 H   0  0  0  0  0  0  0  0  0  0  0  0
    8.3138   -2.8482   -0.5581 H   0  0  0  0  0  0  0  0  0  0  0  0
    7.7975   -2.2524    1.0196 H   0  0  0  0  0  0  0  0  0  0  0  0
    7.1710   -3.7921    0.4090 H   0  0  0  0  0  0  0  0  0  0  0  0
    5.5693   -3.6620   -1.6127 H   0  0  0  0  0  0  0  0  0  0  0  0
    5.2555   -2.0503   -2.2769 H   0  0  0  0  0  0  0  0  0  0  0  0
    6.8603   -2.7509   -2.4101 H   0  0  0  0  0  0  0  0  0  0  0  0
   -7.1934   -0.1235   -2.2948 H   0  0  0  0  0  0  0  0  0  0  0  0
   -5.9247    0.9718   -2.4834 H   0  0  0  0  0  0  0  0  0  0  0  0
 18 25  1  0
 19 25  1  0
 25 17  1  0
 17 16  1  0
 15 16  1  0
 15 13  1  0
 13 14  2  0
 13 12  1  0
 22 12  1  0
 14  6  1  0
 12 11  2  0
 24  1  1  0
 10  4  1  0
 10  5  1  0
 23  1  2  0
 23  4  1  0
  6  5  1  0
  6  7  2  0
  1  8  1  0
  4  3  2  0
 11  7  1  0
 11 21  1  0
  7 20  1  0
  8  2  2  0
  3  2  1  0
  2  9  1  0
  3 26  1  0
  5 27  1  0
  5 28  1  0
  8 29  1  0
  9 30  1  0
  9 31  1  0
  9 32  1  0
 10 33  1  0
 10 34  1  0
 14 35  1  0
 15 36  1  0
 15 37  1  0
 16 38  1  0
 16 39  1  0
 17 40  1  0
 17 41  1  0
 18 42  1  0
 18 43  1  0
 18 44  1  0
 19 45  1  0
 19 46  1  0
 19 47  1  0
 24 48  1  0
 24 49  1  0
M  END
