
     RDKit          3D

 29 30  0  0  0  0  0  0  0  0999 V2000
   -5.2236    0.2259    0.0274 C   0  0  0  0  0  0  0  0  0  0  0  0
   -4.6244   -0.9399    0.4859 C   0  0  0  0  0  0  0  0  0  0  0  0
   -3.2439   -1.0649    0.4789 C   0  0  0  0  0  0  0  0  0  0  0  0
   -2.4390   -0.0263    0.0054 C   0  0  0  0  0  0  0  0  0  0  0  0
   -3.0510    1.1402   -0.4594 C   0  0  0  0  0  0  0  0  0  0  0  0
   -4.4311    1.2648   -0.4439 C   0  0  0  0  0  0  0  0  0  0  0  0
   -0.9814   -0.1404   -0.0064 C   0  0  0  0  0  0  0  0  0  0  0  0
   -0.0679    0.8708    0.0943 C   0  0  0  0  0  0  0  0  0  0  0  0
    1.2781    0.4104    0.0444 C   0  0  0  0  0  0  0  0  0  0  0  0
    1.3549   -0.9674   -0.0972 C   0  0  0  0  0  0  0  0  0  0  0  0
   -0.2222   -1.6698   -0.1708 S   0  0  0  0  0  0  0  0  0  0  0  0
    2.5866   -1.7533   -0.1785 C   0  0  0  0  0  0  0  0  0  0  0  0
    3.6895   -1.2067   -0.0804 O   0  0  0  0  0  0  0  0  0  0  0  0
    2.4722   -3.0789   -0.3512 N   0  0  0  0  0  0  0  0  0  0  0  0
    2.4097    1.1846    0.1267 N   0  0  0  0  0  0  0  0  0  0  0  0
    2.4773    2.5533    0.2553 C   0  0  0  0  0  0  0  0  0  0  0  0
    1.4947    3.2752    0.3279 O   0  0  0  0  0  0  0  0  0  0  0  0
    3.7433    3.0208    0.3250 N   0  0  0  0  0  0  0  0  0  0  0  0
   -6.3012    0.3235    0.0350 H   0  0  0  0  0  0  0  0  0  0  0  0
   -5.2315   -1.7543    0.8586 H   0  0  0  0  0  0  0  0  0  0  0  0
   -2.7946   -1.9721    0.8649 H   0  0  0  0  0  0  0  0  0  0  0  0
   -2.4488    1.9483   -0.8544 H   0  0  0  0  0  0  0  0  0  0  0  0
   -4.8883    2.1735   -0.8125 H   0  0  0  0  0  0  0  0  0  0  0  0
   -0.3470    1.9017    0.2287 H   0  0  0  0  0  0  0  0  0  0  0  0
    1.6001   -3.5482   -0.5262 H   0  0  0  0  0  0  0  0  0  0  0  0
    3.3069   -3.6309   -0.4633 H   0  0  0  0  0  0  0  0  0  0  0  0
    3.2668    0.6406    0.0858 H   0  0  0  0  0  0  0  0  0  0  0  0
    4.5405    2.4520    0.0956 H   0  0  0  0  0  0  0  0  0  0  0  0
    3.8810    4.0162    0.2888 H   0  0  0  0  0  0  0  0  0  0  0  0
  1  2  2  0
  1  6  1  0
  2  3  1  0
  3  4  2  0
  4  5  1  0
  4  7  1  0
  5  6  2  0
  7  8  2  0
  7 11  1  0
  8  9  1  0
  9 10  2  0
  9 15  1  0
 10 11  1  0
 10 12  1  0
 12 13  2  0
 12 14  1  0
 15 16  1  0
 16 17  2  0
 16 18  1  0
  1 19  1  0
  2 20  1  0
  3 21  1  0
  5 22  1  0
  6 23  1  0
  8 24  1  0
 14 25  1  0
 14 26  1  0
 15 27  1  0
 18 28  1  0
 18 29  1  0
M  END
