
     RDKit          3D

 56 59  0  0  0  0  0  0  0  0999 V2000
   -6.0618    4.3160   -0.4556 C   0  0  0  0  0  0  0  0  0  0  0  0
   -5.9711    2.8292   -0.2950 C   0  0  0  0  0  0  0  0  0  0  0  0
   -4.7794    2.1521   -0.5800 C   0  0  0  0  0  0  0  0  0  0  0  0
   -7.0547    2.0870    0.1272 C   0  0  0  0  0  0  0  0  0  0  0  0
   -6.9222    0.6926    0.2496 C   0  0  0  0  0  0  0  0  0  0  0  0
   -7.9614   -0.0679    0.7059 N   0  0  0  0  0  0  0  0  0  0  0  0
   -5.7871    0.0607   -0.0263 N   0  0  0  0  0  0  0  0  0  0  0  0
   -4.7359    0.7780   -0.4301 C   0  0  0  0  0  0  0  0  0  0  0  0
   -3.4699    0.0093   -0.6784 C   0  0  0  0  0  0  0  0  0  0  0  0
   -2.8277   -0.4554    0.6361 C   0  0  0  0  0  0  0  0  0  0  0  0
   -1.5664   -1.2388    0.4016 C   0  0  0  0  0  0  0  0  0  0  0  0
   -0.3797   -0.5858    0.0856 C   0  0  0  0  0  0  0  0  0  0  0  0
   -1.5667   -2.6298    0.4515 C   0  0  0  0  0  0  0  0  0  0  0  0
   -0.4125   -3.3648    0.1999 C   0  0  0  0  0  0  0  0  0  0  0  0
   -0.4325   -4.8693    0.3079 C   0  0  0  0  0  0  0  0  0  0  0  0
    0.3548   -5.5035   -0.7359 N   0  0  0  0  0  0  0  0  0  0  0  0
    0.7587   -2.6848   -0.1214 C   0  0  0  0  0  0  0  0  0  0  0  0
    0.7884   -1.2948   -0.1791 C   0  0  0  0  0  0  0  0  0  0  0  0
    2.0699   -0.5619   -0.4621 C   0  0  0  0  0  0  0  0  0  0  0  0
    2.8469   -0.2602    0.8292 C   0  0  0  0  0  0  0  0  0  0  0  0
    4.0955    0.5244    0.5475 C   0  0  0  0  0  0  0  0  0  0  0  0
    5.1689   -0.1616    0.1738 N   0  0  0  0  0  0  0  0  0  0  0  0
    6.2408    0.5565   -0.1218 C   0  0  0  0  0  0  0  0  0  0  0  0
    7.4450    0.0649   -0.5208 N   0  0  0  0  0  0  0  0  0  0  0  0
    8.3073    1.1064   -0.7352 C   0  0  0  0  0  0  0  0  0  0  0  0
    7.6815    2.2917   -0.4792 C   0  0  0  0  0  0  0  0  0  0  0  0
    6.3489    1.9656   -0.0815 C   0  0  0  0  0  0  0  0  0  0  0  0
    5.2102    2.6632    0.3151 C   0  0  0  0  0  0  0  0  0  0  0  0
    4.0827    1.9278    0.6299 C   0  0  0  0  0  0  0  0  0  0  0  0
   -5.9974    4.5945   -1.5091 H   0  0  0  0  0  0  0  0  0  0  0  0
   -6.9980    4.7081   -0.0613 H   0  0  0  0  0  0  0  0  0  0  0  0
   -5.2392    4.8159    0.0568 H   0  0  0  0  0  0  0  0  0  0  0  0
   -3.9005    2.6916   -0.9105 H   0  0  0  0  0  0  0  0  0  0  0  0
   -7.9960    2.5667    0.3679 H   0  0  0  0  0  0  0  0  0  0  0  0
   -8.8900    0.3080    0.6098 H   0  0  0  0  0  0  0  0  0  0  0  0
   -7.8985   -1.0561    0.5228 H   0  0  0  0  0  0  0  0  0  0  0  0
   -3.6899   -0.8638   -1.2982 H   0  0  0  0  0  0  0  0  0  0  0  0
   -2.7599    0.6275   -1.2322 H   0  0  0  0  0  0  0  0  0  0  0  0
   -2.6109    0.4201    1.2542 H   0  0  0  0  0  0  0  0  0  0  0  0
   -3.5484   -1.0623    1.1881 H   0  0  0  0  0  0  0  0  0  0  0  0
   -0.3637    0.4990    0.0403 H   0  0  0  0  0  0  0  0  0  0  0  0
   -2.4879   -3.1514    0.6922 H   0  0  0  0  0  0  0  0  0  0  0  0
    0.0019   -5.1557    1.2705 H   0  0  0  0  0  0  0  0  0  0  0  0
   -1.4786   -5.2026    0.3427 H   0  0  0  0  0  0  0  0  0  0  0  0
    1.6596   -3.2492   -0.3327 H   0  0  0  0  0  0  0  0  0  0  0  0
    0.3944   -6.4998   -0.5634 H   0  0  0  0  0  0  0  0  0  0  0  0
   -0.1140   -5.3930   -1.6263 H   0  0  0  0  0  0  0  0  0  0  0  0
    2.7060   -1.1496   -1.1282 H   0  0  0  0  0  0  0  0  0  0  0  0
    1.8538    0.3784   -0.9760 H   0  0  0  0  0  0  0  0  0  0  0  0
    2.2021    0.2953    1.5142 H   0  0  0  0  0  0  0  0  0  0  0  0
    3.1072   -1.2008    1.3200 H   0  0  0  0  0  0  0  0  0  0  0  0
    3.1761    2.4276    0.9454 H   0  0  0  0  0  0  0  0  0  0  0  0
    7.6691   -0.9099   -0.6355 H   0  0  0  0  0  0  0  0  0  0  0  0
    9.3175    0.9179   -1.0603 H   0  0  0  0  0  0  0  0  0  0  0  0
    8.1176    3.2736   -0.5681 H   0  0  0  0  0  0  0  0  0  0  0  0
    5.2028    3.7442    0.3794 H   0  0  0  0  0  0  0  0  0  0  0  0
  1  2  1  0
  2  3  2  0
  2  4  1  0
  3  8  1  0
  4  5  2  0
  5  6  1  0
  5  7  1  0
  7  8  2  0
  8  9  1  0
  9 10  1  0
 10 11  1  0
 11 12  2  0
 11 13  1  0
 12 18  1  0
 13 14  2  0
 14 15  1  0
 14 17  1  0
 15 16  1  0
 17 18  2  0
 18 19  1  0
 19 20  1  0
 20 21  1  0
 21 22  2  0
 21 29  1  0
 22 23  1  0
 23 24  1  0
 23 27  2  0
 24 25  1  0
 25 26  2  0
 26 27  1  0
 27 28  1  0
 28 29  2  0
  1 30  1  0
  1 31  1  0
  1 32  1  0
  3 33  1  0
  4 34  1  0
  6 35  1  0
  6 36  1  0
  9 37  1  0
  9 38  1  0
 10 39  1  0
 10 40  1  0
 12 41  1  0
 13 42  1  0
 15 43  1  0
 15 44  1  0
 17 45  1  0
 16 46  1  0
 16 47  1  0
 19 48  1  0
 19 49  1  0
 20 50  1  0
 20 51  1  0
 29 52  1  0
 24 53  1  0
 25 54  1  0
 26 55  1  0
 28 56  1  0
M  END
