
     RDKit          3D

 46 46  0  0  0  0  0  0  0  0999 V2000
    0.3879    3.3463    0.4272 O   0  0  0  0  0  0  0  0  0  0  0  0
    1.5861    2.4728   -0.2100 P   0  0  1  0  0  0  0  0  0  0  0  0
    1.3497    2.3479   -1.6695 O   0  0  0  0  0  0  0  0  0  0  0  0
    2.9454    3.2348    0.2035 O   0  0  0  0  0  0  0  0  0  0  0  0
    1.7421    0.9335    0.7373 C   0  0  0  0  0  0  0  0  0  0  0  0
    1.4619   -0.3482   -0.0743 C   0  0  1  0  0  0  0  0  0  0  0  0
    2.4624   -1.4382    0.2969 C   0  0  0  0  0  0  0  0  0  0  0  0
    3.8689   -1.1275   -0.1749 C   0  0  0  0  0  0  0  0  0  0  0  0
    4.8257   -2.0210    0.1652 N   0  0  0  0  0  0  0  0  0  0  0  0
    4.5116   -3.0094    1.0609 O   0  0  0  0  0  0  0  0  0  0  0  0
    6.2368   -1.8571   -0.0812 C   0  0  0  0  0  0  0  0  0  0  0  0
    4.1367   -0.1476   -0.8556 O   0  0  0  0  0  0  0  0  0  0  0  0
    0.0417   -0.8658    0.1569 C   0  0  0  0  0  0  0  0  0  0  0  0
   -1.0672    0.1114   -0.2119 C   0  0  0  0  0  0  0  0  0  0  0  0
   -2.4493   -0.5176   -0.0841 C   0  0  0  0  0  0  0  0  0  0  0  0
   -3.5807    0.4840   -0.3207 C   0  0  0  0  0  0  0  0  0  0  0  0
   -4.9384   -0.1468   -0.1850 C   0  0  0  0  0  0  0  0  0  0  0  0
   -5.6275   -0.6191   -1.2997 C   0  0  0  0  0  0  0  0  0  0  0  0
   -6.8657   -1.2352   -1.1670 C   0  0  0  0  0  0  0  0  0  0  0  0
   -7.4358   -1.3912    0.0895 C   0  0  0  0  0  0  0  0  0  0  0  0
   -6.7588   -0.9248    1.2096 C   0  0  0  0  0  0  0  0  0  0  0  0
   -5.5224   -0.3090    1.0706 C   0  0  0  0  0  0  0  0  0  0  0  0
    0.4579    3.5122    1.3760 H   0  0  0  0  0  0  0  0  0  0  0  0
    3.0649    4.0835   -0.2442 H   0  0  0  0  0  0  0  0  0  0  0  0
    2.7560    0.9241    1.1378 H   0  0  0  0  0  0  0  0  0  0  0  0
    1.0824    0.9780    1.6079 H   0  0  0  0  0  0  0  0  0  0  0  0
    1.5702   -0.1359   -1.1399 H   0  0  0  0  0  0  0  0  0  0  0  0
    2.4524   -1.6041    1.3776 H   0  0  0  0  0  0  0  0  0  0  0  0
    2.1508   -2.3884   -0.1498 H   0  0  0  0  0  0  0  0  0  0  0  0
    4.3757   -3.8139    0.5416 H   0  0  0  0  0  0  0  0  0  0  0  0
    6.3835   -1.1009   -0.8455 H   0  0  0  0  0  0  0  0  0  0  0  0
    6.7643   -1.5508    0.8243 H   0  0  0  0  0  0  0  0  0  0  0  0
    6.6625   -2.7948   -0.4379 H   0  0  0  0  0  0  0  0  0  0  0  0
   -0.0880   -1.7830   -0.4269 H   0  0  0  0  0  0  0  0  0  0  0  0
   -0.0698   -1.1543    1.2089 H   0  0  0  0  0  0  0  0  0  0  0  0
   -1.0244    0.9938    0.4343 H   0  0  0  0  0  0  0  0  0  0  0  0
   -0.9170    0.4726   -1.2342 H   0  0  0  0  0  0  0  0  0  0  0  0
   -2.5437   -1.3468   -0.7923 H   0  0  0  0  0  0  0  0  0  0  0  0
   -2.5591   -0.9536    0.9144 H   0  0  0  0  0  0  0  0  0  0  0  0
   -3.4852    1.3052    0.3956 H   0  0  0  0  0  0  0  0  0  0  0  0
   -3.4736    0.9230   -1.3164 H   0  0  0  0  0  0  0  0  0  0  0  0
   -5.1929   -0.4976   -2.2853 H   0  0  0  0  0  0  0  0  0  0  0  0
   -7.3867   -1.5892   -2.0476 H   0  0  0  0  0  0  0  0  0  0  0  0
   -8.4004   -1.8705    0.1962 H   0  0  0  0  0  0  0  0  0  0  0  0
   -7.1960   -1.0382    2.1936 H   0  0  0  0  0  0  0  0  0  0  0  0
   -5.0045    0.0548    1.9509 H   0  0  0  0  0  0  0  0  0  0  0  0
 19 20  2  0
 19 18  1  0
 20 21  1  0
 18 17  2  0
 21 22  2  0
 17 22  1  0
 17 16  1  0
 16 15  1  0
 10  9  1  0
 11  9  1  0
 15 14  1  0
  9  8  1  0
  3  2  2  0
 14 13  1  0
  8 12  2  0
  8  7  1  0
  6  7  1  0
  6 13  1  0
  6  5  1  0
  2  4  1  6
  2  5  1  0
  2  1  1  0
  1 23  1  0
  4 24  1  0
  5 25  1  0
  5 26  1  0
  6 27  1  6
  7 28  1  0
  7 29  1  0
 10 30  1  0
 11 31  1  0
 11 32  1  0
 11 33  1  0
 13 34  1  0
 13 35  1  0
 14 36  1  0
 14 37  1  0
 15 38  1  0
 15 39  1  0
 16 40  1  0
 16 41  1  0
 18 42  1  0
 19 43  1  0
 20 44  1  0
 21 45  1  0
 22 46  1  0
M  END
