
     RDKit          3D

 53 56  0  0  0  0  0  0  0  0999 V2000
    7.6982    1.9234   -0.0231 N   0  0  0  0  0  0  0  0  0  0  0  0
    6.4129    1.5524    0.0055 C   0  0  0  0  0  0  0  0  0  0  0  0
    6.1488    0.2397    0.0679 N   0  0  0  0  0  0  0  0  0  0  0  0
    4.8783   -0.1076    0.0827 C   0  0  0  0  0  0  0  0  0  0  0  0
    5.4891    2.5228   -0.0444 N   0  0  0  0  0  0  0  0  0  0  0  0
    4.2289    2.1415   -0.0259 C   0  0  0  0  0  0  0  0  0  0  0  0
    3.8268    0.8086    0.0401 C   0  0  0  0  0  0  0  0  0  0  0  0
    2.4235    0.3751    0.0705 C   0  0  0  0  0  0  0  0  0  0  0  0
    1.3746    1.2730    0.0899 C   0  0  0  0  0  0  0  0  0  0  0  0
    2.2220   -0.9460    0.0867 N   0  0  0  0  0  0  0  0  0  0  0  0
    0.9609   -1.3674    0.1184 C   0  0  0  0  0  0  0  0  0  0  0  0
    0.7476   -2.7069    0.0936 N   0  0  0  0  0  0  0  0  0  0  0  0
   -0.5666   -3.2893    0.2754 C   0  0  0  0  0  0  0  0  0  0  0  0
   -0.7267   -4.4874   -0.6431 C   0  0  0  0  0  0  0  0  0  0  0  0
    0.3065   -5.4303   -0.4636 O   0  0  0  0  0  0  0  0  0  0  0  0
    1.5667   -4.8461   -0.7073 C   0  0  0  0  0  0  0  0  0  0  0  0
    1.8296   -3.6641    0.2078 C   0  0  0  0  0  0  0  0  0  0  0  0
   -0.1221   -0.5846    0.1597 N   0  0  0  0  0  0  0  0  0  0  0  0
    0.0811    0.7218    0.1388 C   0  0  0  0  0  0  0  0  0  0  0  0
   -0.9807    1.5678    0.1641 N   0  0  0  0  0  0  0  0  0  0  0  0
   -2.3504    1.2935    0.2204 C   0  0  0  0  0  0  0  0  0  0  0  0
   -2.9045    0.1335    0.7367 C   0  0  0  0  0  0  0  0  0  0  0  0
   -4.2914   -0.0140    0.7755 C   0  0  0  0  0  0  0  0  0  0  0  0
   -3.2051    2.3043   -0.2456 C   0  0  0  0  0  0  0  0  0  0  0  0
   -4.5790    2.1624   -0.1940 C   0  0  0  0  0  0  0  0  0  0  0  0
   -5.4590    3.0891   -0.6147 O   0  0  0  0  0  0  0  0  0  0  0  0
   -4.9579    4.3061   -1.1296 C   0  0  0  0  0  0  0  0  0  0  0  0
   -5.1408    0.9765    0.3213 C   0  0  0  0  0  0  0  0  0  0  0  0
   -6.4887    0.9166    0.3263 O   0  0  0  0  0  0  0  0  0  0  0  0
   -7.0948   -0.2305    0.8836 C   0  0  0  0  0  0  0  0  0  0  0  0
    7.9429    2.8970    0.0220 H   0  0  0  0  0  0  0  0  0  0  0  0
    8.4223    1.2406    0.1131 H   0  0  0  0  0  0  0  0  0  0  0  0
    4.6666   -1.1693    0.1336 H   0  0  0  0  0  0  0  0  0  0  0  0
    3.4991    2.9432   -0.0652 H   0  0  0  0  0  0  0  0  0  0  0  0
    1.5133    2.3443    0.0822 H   0  0  0  0  0  0  0  0  0  0  0  0
   -0.7020   -3.5958    1.3206 H   0  0  0  0  0  0  0  0  0  0  0  0
   -1.3344   -2.5553    0.0453 H   0  0  0  0  0  0  0  0  0  0  0  0
   -1.6716   -4.9897   -0.4316 H   0  0  0  0  0  0  0  0  0  0  0  0
   -0.7519   -4.1396   -1.6855 H   0  0  0  0  0  0  0  0  0  0  0  0
    2.3226   -5.6146   -0.5402 H   0  0  0  0  0  0  0  0  0  0  0  0
    1.6429   -4.5177   -1.7535 H   0  0  0  0  0  0  0  0  0  0  0  0
    2.7704   -3.1949   -0.0664 H   0  0  0  0  0  0  0  0  0  0  0  0
    1.9184   -4.0082    1.2461 H   0  0  0  0  0  0  0  0  0  0  0  0
   -0.7481    2.5418    0.0491 H   0  0  0  0  0  0  0  0  0  0  0  0
   -2.2830   -0.6605    1.1157 H   0  0  0  0  0  0  0  0  0  0  0  0
   -4.6869   -0.9348    1.1803 H   0  0  0  0  0  0  0  0  0  0  0  0
   -2.7665    3.2063   -0.6527 H   0  0  0  0  0  0  0  0  0  0  0  0
   -4.3574    4.8455   -0.3922 H   0  0  0  0  0  0  0  0  0  0  0  0
   -4.3564    4.1532   -2.0296 H   0  0  0  0  0  0  0  0  0  0  0  0
   -5.8234    4.9112   -1.3877 H   0  0  0  0  0  0  0  0  0  0  0  0
   -6.8308   -1.1408    0.3380 H   0  0  0  0  0  0  0  0  0  0  0  0
   -6.8279   -0.3631    1.9360 H   0  0  0  0  0  0  0  0  0  0  0  0
   -8.1693   -0.0801    0.8106 H   0  0  0  0  0  0  0  0  0  0  0  0
  1  2  1  0
  1 31  1  0
  1 32  1  0
  3  2  2  0
  2  5  1  0
  3  4  1  0
  4  7  2  0
  4 33  1  0
  5  6  2  0
  7  6  1  0
  6 34  1  0
  7  8  1  0
  9  8  2  0
  8 10  1  0
  9 19  1  0
  9 35  1  0
 10 11  2  0
 18 11  1  0
 11 12  1  0
 12 13  1  0
 12 17  1  0
 13 14  1  0
 13 36  1  0
 13 37  1  0
 14 15  1  0
 14 38  1  0
 14 39  1  0
 15 16  1  0
 17 16  1  0
 16 40  1  0
 16 41  1  0
 17 42  1  0
 17 43  1  0
 19 18  2  0
 20 19  1  0
 20 21  1  0
 20 44  1  0
 24 21  1  0
 21 22  2  0
 22 23  1  0
 22 45  1  0
 28 23  2  0
 23 46  1  0
 24 25  2  0
 24 47  1  0
 26 25  1  0
 25 28  1  0
 27 26  1  0
 27 48  1  0
 27 49  1  0
 27 50  1  0
 28 29  1  0
 29 30  1  0
 30 51  1  0
 30 52  1  0
 30 53  1  0
M  END
