
     RDKit          3D

 38 40  0  0  0  0  0  0  0  0999 V2000
    2.4922    4.6639   -0.7730 O   0  0  0  0  0  0  0  0  0  0  0  0
    1.7460    3.5761   -0.5128 C   0  0  0  0  0  0  0  0  0  0  0  0
    0.8130    3.5269    0.5186 C   0  0  0  0  0  0  0  0  0  0  0  0
    0.0736    2.3748    0.7278 C   0  0  0  0  0  0  0  0  0  0  0  0
    0.2596    1.2532   -0.0718 C   0  0  0  0  0  0  0  0  0  0  0  0
   -0.4754   -0.0097    0.1783 C   0  0  0  0  0  0  0  0  0  0  0  0
   -1.9288   -0.0356    0.0726 C   0  0  0  0  0  0  0  0  0  0  0  0
   -2.6486    1.0803   -0.3713 C   0  0  0  0  0  0  0  0  0  0  0  0
   -4.0213    1.0836   -0.4634 C   0  0  0  0  0  0  0  0  0  0  0  0
   -4.7292   -0.0677   -0.1042 C   0  0  0  0  0  0  0  0  0  0  0  0
   -6.0672   -0.1344   -0.1614 O   0  0  0  0  0  0  0  0  0  0  0  0
   -4.0533   -1.2018    0.3182 C   0  0  0  0  0  0  0  0  0  0  0  0
   -2.6644   -1.2062    0.3970 C   0  0  0  0  0  0  0  0  0  0  0  0
   -2.0709   -2.3295    0.7765 O   0  0  0  0  0  0  0  0  0  0  0  0
    0.1362   -1.1057    0.4645 N   0  0  0  0  0  0  0  0  0  0  0  0
    1.5089   -1.1772    0.6918 C   0  0  0  0  0  0  0  0  0  0  0  0
    2.2975   -2.0071   -0.1040 C   0  0  0  0  0  0  0  0  0  0  0  0
    1.5651   -2.8121   -1.4487 Cl  0  0  0  0  0  0  0  0  0  0  0  0
    3.6515   -2.1681    0.1374 C   0  0  0  0  0  0  0  0  0  0  0  0
    4.2405   -1.4991    1.1984 C   0  0  0  0  0  0  0  0  0  0  0  0
    3.4717   -0.6729    2.0056 C   0  0  0  0  0  0  0  0  0  0  0  0
    2.1200   -0.5144    1.7551 C   0  0  0  0  0  0  0  0  0  0  0  0
    1.2024    1.3102   -1.0958 C   0  0  0  0  0  0  0  0  0  0  0  0
    1.9332    2.4589   -1.3244 C   0  0  0  0  0  0  0  0  0  0  0  0
    2.2665    5.3848   -0.1789 H   0  0  0  0  0  0  0  0  0  0  0  0
    0.6569    4.3815    1.1663 H   0  0  0  0  0  0  0  0  0  0  0  0
   -0.6437    2.3554    1.5384 H   0  0  0  0  0  0  0  0  0  0  0  0
   -2.1148    1.9730   -0.6661 H   0  0  0  0  0  0  0  0  0  0  0  0
   -4.5358    1.9681   -0.8171 H   0  0  0  0  0  0  0  0  0  0  0  0
   -6.4380    0.7002   -0.4608 H   0  0  0  0  0  0  0  0  0  0  0  0
   -4.6030   -2.0969    0.5800 H   0  0  0  0  0  0  0  0  0  0  0  0
   -1.0857   -2.1726    0.7208 H   0  0  0  0  0  0  0  0  0  0  0  0
    4.2409   -2.8132   -0.4989 H   0  0  0  0  0  0  0  0  0  0  0  0
    5.2965   -1.6284    1.3907 H   0  0  0  0  0  0  0  0  0  0  0  0
    3.9249   -0.1510    2.8375 H   0  0  0  0  0  0  0  0  0  0  0  0
    1.5179    0.1209    2.3909 H   0  0  0  0  0  0  0  0  0  0  0  0
    1.3606    0.4481   -1.7320 H   0  0  0  0  0  0  0  0  0  0  0  0
    2.6571    2.4964   -2.1278 H   0  0  0  0  0  0  0  0  0  0  0  0
 20 21  2  0
 20 19  1  0
 21 22  1  0
 19 17  2  0
 22 16  2  0
 17 16  1  0
 17 18  1  0
 16 15  1  0
 15  6  2  0
  1  2  1  0
 24  2  2  0
 24 23  1  0
  2  3  1  0
 23  5  2  0
  3  4  2  0
  5  4  1  0
  5  6  1  0
  6  7  1  0
 14 13  1  0
  7 13  1  0
  7  8  2  0
 13 12  2  0
  8  9  1  0
 12 10  1  0
  9 10  2  0
 10 11  1  0
  1 25  1  0
  3 26  1  0
  4 27  1  0
  8 28  1  0
  9 29  1  0
 11 30  1  0
 12 31  1  0
 14 32  1  0
 19 33  1  0
 20 34  1  0
 21 35  1  0
 22 36  1  0
 23 37  1  0
 24 38  1  0
M  END
