
     RDKit          3D

 61 64  0  0  0  0  0  0  0  0999 V2000
    5.4702    1.1158   -2.0896 C   0  0  0  0  0  0  0  0  0  0  0  0
    4.8621    1.4639   -0.7371 C   0  0  0  0  0  0  0  0  0  0  0  0
    3.7137    0.5378   -0.3559 C   0  0  0  0  0  0  0  0  0  0  0  0
    3.1190    0.9319    0.9791 C   0  0  0  0  0  0  0  0  0  0  0  0
    1.5589    1.2644    3.3077 C   0  0  0  0  0  0  0  0  0  0  0  0
   -0.5715   -0.4681    3.6829 C   0  0  0  0  0  0  0  0  0  0  0  0
    0.0158   -1.7124    1.5419 C   0  0  0  0  0  0  0  0  0  0  0  0
   -1.1524   -3.6334    2.6107 C   0  0  0  0  0  0  0  0  0  0  0  0
   -2.4026   -2.3958    1.2775 C   0  0  0  0  0  0  0  0  0  0  0  0
   -2.8357   -1.3630    0.3355 C   0  0  0  0  0  0  0  0  0  0  0  0
   -4.2345   -0.7724   -1.5510 C   0  0  0  0  0  0  0  0  0  0  0  0
   -4.2491    1.5473   -2.4548 C   0  0  0  0  0  0  0  0  0  0  0  0
   -4.7366    3.3066   -3.7401 C   0  0  0  0  0  0  0  0  0  0  0  0
    7.2336    1.7762   -3.7841 C   0  0  0  0  0  0  0  0  0  0  0  0
    6.6035    2.0615   -2.4500 C   0  0  0  0  0  0  0  0  0  0  0  0
    2.0517    0.0442    1.2774 O   0  0  0  0  0  0  0  0  0  0  0  0
    1.3140    0.2538    2.3837 C   0  0  0  0  0  0  0  0  0  0  0  0
    0.7329    1.4011    4.4179 C   0  0  0  0  0  0  0  0  0  0  0  0
   -0.3332    0.5410    4.6103 C   0  0  0  0  0  0  0  0  0  0  0  0
    0.2391   -0.6292    2.5702 C   0  0  0  0  0  0  0  0  0  0  0  0
   -1.1493   -2.5239    1.8019 N   0  0  0  0  0  0  0  0  0  0  0  0
   -2.4237   -4.1279    2.5277 C   0  0  0  0  0  0  0  0  0  0  0  0
   -3.1844   -3.3612    1.7005 N   0  0  0  0  0  0  0  0  0  0  0  0
   -3.7691   -1.7066   -0.6449 C   0  0  0  0  0  0  0  0  0  0  0  0
   -3.7819    0.5499   -1.5088 C   0  0  0  0  0  0  0  0  0  0  0  0
   -3.9440    2.8621   -2.6441 C   0  0  0  0  0  0  0  0  0  0  0  0
   -5.4614    2.2337   -4.1361 C   0  0  0  0  0  0  0  0  0  0  0  0
   -5.1730    1.1675   -3.3650 O   0  0  0  0  0  0  0  0  0  0  0  0
   -2.8598    0.8985   -0.5196 C   0  0  0  0  0  0  0  0  0  0  0  0
   -2.3988   -0.0372    0.3880 C   0  0  0  0  0  0  0  0  0  0  0  0
    8.2072    2.6383   -4.0657 O   0  0  0  0  0  0  0  0  0  0  0  0
    5.8359    0.0861   -2.0707 H   0  0  0  0  0  0  0  0  0  0  0  0
    4.6939    1.1570   -2.8578 H   0  0  0  0  0  0  0  0  0  0  0  0
    5.6386    1.4231    0.0339 H   0  0  0  0  0  0  0  0  0  0  0  0
    4.5055    2.4993   -0.7556 H   0  0  0  0  0  0  0  0  0  0  0  0
    2.9370    0.5769   -1.1251 H   0  0  0  0  0  0  0  0  0  0  0  0
    4.0699   -0.4955   -0.3116 H   0  0  0  0  0  0  0  0  0  0  0  0
    3.8807    0.8851    1.7659 H   0  0  0  0  0  0  0  0  0  0  0  0
    2.7512    1.9634    0.9358 H   0  0  0  0  0  0  0  0  0  0  0  0
    2.3848    1.9507    3.1803 H   0  0  0  0  0  0  0  0  0  0  0  0
   -1.4102   -1.1365    3.8346 H   0  0  0  0  0  0  0  0  0  0  0  0
   -0.0736   -1.2869    0.5414 H   0  0  0  0  0  0  0  0  0  0  0  0
    0.8835   -2.3740    1.5018 H   0  0  0  0  0  0  0  0  0  0  0  0
   -4.9495   -1.0860   -2.2999 H   0  0  0  0  0  0  0  0  0  0  0  0
   -4.7612    4.2930   -4.1733 H   0  0  0  0  0  0  0  0  0  0  0  0
    6.2506    3.0980   -2.4565 H   0  0  0  0  0  0  0  0  0  0  0  0
    7.3899    2.0282   -1.6890 H   0  0  0  0  0  0  0  0  0  0  0  0
    0.9341    2.1897    5.1313 H   0  0  0  0  0  0  0  0  0  0  0  0
   -0.9785    0.6450    5.4721 H   0  0  0  0  0  0  0  0  0  0  0  0
    0.8599   -4.3829    2.6812 H   0  0  0  0  0  0  0  0  0  0  0  0
    0.4240   -3.3639    4.0484 H   0  0  0  0  0  0  0  0  0  0  0  0
   -0.2186   -4.9993    3.9251 H   0  0  0  0  0  0  0  0  0  0  0  0
   -2.8216   -4.9974    3.0292 H   0  0  0  0  0  0  0  0  0  0  0  0
   -4.1290   -2.7252   -0.7023 H   0  0  0  0  0  0  0  0  0  0  0  0
   -3.2385    3.4494   -2.0793 H   0  0  0  0  0  0  0  0  0  0  0  0
   -6.1902    2.0840   -4.9159 H   0  0  0  0  0  0  0  0  0  0  0  0
   -2.5011    1.9168   -0.4424 H   0  0  0  0  0  0  0  0  0  0  0  0
   -1.7158    0.2907    1.1604 H   0  0  0  0  0  0  0  0  0  0  0  0
    8.5885    2.4323   -4.9319 H   0  0  0  0  0  0  0  0  0  0  0  0
    0.0410   -4.1119    3.3514 C   0  0  0  0  0  0  0  0  0  0  0  0
    6.9156    0.8825   -4.5291 O   0  0  0  0  0  0  0  0  0  0  0  0
 61 14  2  0
 31 14  1  0
 14 15  1  0
 60  8  1  0
 18  5  2  0
 18 19  1  0
  5 17  1  0
 15  1  1  0
  2  1  1  0
  2  3  1  0
 19  6  2  0
 17 16  1  0
 17 20  2  0
  4 16  1  0
  4  3  1  0
  8 22  2  0
  8 21  1  0
  6 20  1  0
 22 23  1  0
 20  7  1  0
  7 21  1  0
 21  9  1  0
 23  9  2  0
  9 10  1  0
 10 24  1  0
 10 30  2  0
 24 11  2  0
 30 29  1  0
 11 25  1  0
 29 25  2  0
 25 12  1  0
 12 26  2  0
 12 28  1  0
 26 13  1  0
 28 27  1  0
 13 27  2  0
  1 32  1  0
  1 33  1  0
  2 34  1  0
  2 35  1  0
  3 36  1  0
  3 37  1  0
  4 38  1  0
  4 39  1  0
  5 40  1  0
  6 41  1  0
  7 42  1  0
  7 43  1  0
 11 44  1  0
 13 45  1  0
 15 46  1  0
 15 47  1  0
 18 48  1  0
 19 49  1  0
 60 50  1  0
 60 51  1  0
 60 52  1  0
 22 53  1  0
 24 54  1  0
 26 55  1  0
 27 56  1  0
 29 57  1  0
 30 58  1  0
 31 59  1  0
M  END
