
     RDKit          3D

 65 69  0  0  0  0  0  0  0  0999 V2000
    3.5754   -2.3187    0.3777 N   0  0  0  0  0  0  0  0  0  0  0  0
    4.3906   -1.2189    0.2646 C   0  0  0  0  0  0  0  0  0  0  0  0
    5.7536   -1.3384   -0.1034 C   0  0  0  0  0  0  0  0  0  0  0  0
    6.5895   -0.2188   -0.2270 C   0  0  0  0  0  0  0  0  0  0  0  0
    6.0224    0.9992    0.0216 C   0  0  0  0  0  0  0  0  0  0  0  0
    6.5175    2.2867   -0.0095 N   0  0  0  0  0  0  0  0  0  0  0  0
    5.4892    3.1158    0.3181 C   0  0  0  0  0  0  0  0  0  0  0  0
    5.6317    4.4437    0.3533 N   0  0  0  0  0  0  0  0  0  0  0  0
    6.8848    5.1252    0.1412 C   0  0  0  0  0  0  0  0  0  0  0  0
    4.3648    2.4726    0.5711 N   0  0  0  0  0  0  0  0  0  0  0  0
    4.6633    1.1497    0.3938 C   0  0  0  0  0  0  0  0  0  0  0  0
    3.8316    0.0457    0.5296 C   0  0  0  0  0  0  0  0  0  0  0  0
    2.3897    0.2099    0.8992 C   0  0  0  0  0  0  0  0  0  0  0  0
    1.5085    0.4190   -0.3301 C   0  0  0  0  0  0  0  0  0  0  0  0
    0.1115    0.5091    0.0439 N   0  0  0  0  0  0  0  0  0  0  0  0
   -0.7693    0.7432   -1.0832 C   0  0  0  0  0  0  0  0  0  0  0  0
   -2.2355    0.7398   -0.6682 C   0  0  2  0  0  0  0  0  0  0  0  0
   -2.6675   -0.6099   -0.1006 C   0  0  0  0  0  0  0  0  0  0  0  0
   -4.1369   -0.6165    0.3034 C   0  0  0  0  0  0  0  0  0  0  0  0
   -5.0344   -0.2284   -0.8800 C   0  0  1  0  0  0  0  0  0  0  0  0
   -6.4398   -0.2253   -0.4943 C   0  0  0  0  0  0  0  0  0  0  0  0
   -7.5972   -0.2058   -0.1551 C   0  0  0  0  0  0  0  0  0  0  0  0
   -4.6088    1.1326   -1.4503 C   0  0  0  0  0  0  0  0  0  0  0  0
   -3.1350    1.1241   -1.8410 C   0  0  0  0  0  0  0  0  0  0  0  0
    6.2948   -2.6565   -0.3662 C   0  0  0  0  0  0  0  0  0  0  0  0
    7.4488   -2.9030   -0.6866 O   0  0  0  0  0  0  0  0  0  0  0  0
    5.3794   -3.6768   -0.2294 N   0  0  0  0  0  0  0  0  0  0  0  0
    4.0740   -3.4835    0.1326 C   0  0  0  0  0  0  0  0  0  0  0  0
    3.2994   -4.5916    0.1760 N   0  0  0  0  0  0  0  0  0  0  0  0
    7.6276   -0.3303   -0.5105 H   0  0  0  0  0  0  0  0  0  0  0  0
    7.4593    2.5557   -0.2437 H   0  0  0  0  0  0  0  0  0  0  0  0
    4.8355    4.9716    0.6673 H   0  0  0  0  0  0  0  0  0  0  0  0
    7.6177    4.9081    0.9221 H   0  0  0  0  0  0  0  0  0  0  0  0
    7.3216    4.8682   -0.8257 H   0  0  0  0  0  0  0  0  0  0  0  0
    6.6970    6.1946    0.1432 H   0  0  0  0  0  0  0  0  0  0  0  0
    2.0352   -0.6687    1.4384 H   0  0  0  0  0  0  0  0  0  0  0  0
    2.2806    1.0697    1.5662 H   0  0  0  0  0  0  0  0  0  0  0  0
    1.8645    1.3062   -0.8776 H   0  0  0  0  0  0  0  0  0  0  0  0
    1.6296   -0.4327   -1.0064 H   0  0  0  0  0  0  0  0  0  0  0  0
   -0.0014    1.2708    0.7038 H   0  0  0  0  0  0  0  0  0  0  0  0
   -0.5421    1.6900   -1.6015 H   0  0  0  0  0  0  0  0  0  0  0  0
   -0.6042   -0.0530   -1.8181 H   0  0  0  0  0  0  0  0  0  0  0  0
   -2.3701    1.4997    0.1150 H   0  0  0  0  0  0  0  0  0  0  0  0
   -2.4980   -1.3833   -0.8603 H   0  0  0  0  0  0  0  0  0  0  0  0
   -2.0452   -0.8753    0.7557 H   0  0  0  0  0  0  0  0  0  0  0  0
   -4.4233   -1.6017    0.6776 H   0  0  0  0  0  0  0  0  0  0  0  0
   -4.3014    0.0945    1.1195 H   0  0  0  0  0  0  0  0  0  0  0  0
   -4.9031   -0.9812   -1.6674 H   0  0  0  0  0  0  0  0  0  0  0  0
   -5.2287    1.3864   -2.3126 H   0  0  0  0  0  0  0  0  0  0  0  0
   -4.7857    1.9034   -0.6932 H   0  0  0  0  0  0  0  0  0  0  0  0
   -2.8554    2.1093   -2.2242 H   0  0  0  0  0  0  0  0  0  0  0  0
   -2.9812    0.4134   -2.6617 H   0  0  0  0  0  0  0  0  0  0  0  0
    2.4080   -4.4870    0.6318 H   0  0  0  0  0  0  0  0  0  0  0  0
    3.7320   -5.4925    0.2978 H   0  0  0  0  0  0  0  0  0  0  0  0
   -8.9632   -0.1852    0.2453 C   0  0  0  0  0  0  0  0  0  0  0  0
   -9.9877   -0.1131   -0.7041 C   0  0  0  0  0  0  0  0  0  0  0  0
  -11.2734   -0.0887   -0.3931 N   0  0  0  0  0  0  0  0  0  0  0  0
  -11.6094   -0.1363    0.8917 C   0  0  0  0  0  0  0  0  0  0  0  0
  -10.6770   -0.2097    1.9165 C   0  0  0  0  0  0  0  0  0  0  0  0
   -9.3328   -0.2346    1.5904 C   0  0  0  0  0  0  0  0  0  0  0  0
   -9.7377   -0.0741   -1.7587 H   0  0  0  0  0  0  0  0  0  0  0  0
  -12.6692   -0.1151    1.1174 H   0  0  0  0  0  0  0  0  0  0  0  0
  -11.0001   -0.2465    2.9476 H   0  0  0  0  0  0  0  0  0  0  0  0
   -8.5755   -0.2910    2.3608 H   0  0  0  0  0  0  0  0  0  0  0  0
    5.7106   -4.6133   -0.4205 H   0  0  0  0  0  0  0  0  0  0  0  0
 22 21  3  0
 21 20  1  0
  9  8  1  0
 19 20  1  0
 19 18  1  0
 20 23  1  0
  8  7  1  0
 18 17  1  0
 23 24  1  0
 17 24  1  0
 17 16  1  0
  7 10  2  0
  7  6  1  0
 15 16  1  0
 15 14  1  0
 10 11  1  0
  6  5  1  0
 14 13  1  0
 11  5  2  0
 11 12  1  0
 13 12  1  0
  5  4  1  0
 12  2  2  0
  4  3  2  0
  2  3  1  0
  2  1  1  0
  3 25  1  0
  1 28  2  0
 25 26  2  0
 25 27  1  0
 28 27  1  0
 28 29  1  0
  4 30  1  0
  6 31  1  0
  8 32  1  0
  9 33  1  0
  9 34  1  0
  9 35  1  0
 13 36  1  0
 13 37  1  0
 14 38  1  0
 14 39  1  0
 15 40  1  0
 16 41  1  0
 16 42  1  0
 17 43  1  1
 18 44  1  0
 18 45  1  0
 19 46  1  0
 19 47  1  0
 20 48  1  6
 23 49  1  0
 23 50  1  0
 24 51  1  0
 24 52  1  0
 29 53  1  0
 29 54  1  0
 22 55  1  0
 55 56  2  0
 56 57  1  0
 57 58  2  0
 58 59  1  0
 59 60  2  0
 60 55  1  0
 56 61  1  0
 58 62  1  0
 59 63  1  0
 60 64  1  0
 27 65  1  0
M  END
