
     RDKit          3D

 33 34  0  0  0  0  0  0  0  0999 V2000
   -0.8461    0.7686    0.7876 C   0  0  0  0  0  0  0  0  0  0  0  0
   -1.5153   -0.3040    1.3756 C   0  0  0  0  0  0  0  0  0  0  0  0
   -2.8459   -0.5617    1.0994 C   0  0  0  0  0  0  0  0  0  0  0  0
   -3.5510    0.2551    0.2145 C   0  0  0  0  0  0  0  0  0  0  0  0
   -2.8993    1.3328   -0.3813 C   0  0  0  0  0  0  0  0  0  0  0  0
   -1.5626    1.5745   -0.0882 C   0  0  0  0  0  0  0  0  0  0  0  0
    1.3358   -0.9377   -0.3181 C   0  0  0  0  0  0  0  0  0  0  0  0
    1.5023    0.5239   -0.0966 C   0  0  2  0  0  0  0  0  0  0  0  0
    2.9630    0.8399    0.2170 C   0  0  0  0  0  0  0  0  0  0  0  0
    0.6102    1.0240    1.0563 C   0  0  0  0  0  0  0  0  0  0  0  0
   -5.5989    0.7331   -0.8837 C   0  0  0  0  0  0  0  0  0  0  0  0
    1.0179   -2.7465   -1.1948 N   0  0  0  0  0  0  0  0  0  0  0  0
    1.1949   -3.0109    0.0627 N   0  0  0  0  0  0  0  0  0  0  0  0
    1.0915   -1.4776   -1.4951 N   0  0  0  0  0  0  0  0  0  0  0  0
    1.4003   -1.8747    0.6435 N   0  0  0  0  0  0  0  0  0  0  0  0
    3.5084    1.7432   -0.6127 N   0  0  0  0  0  0  0  0  0  0  0  0
    4.8118    2.1730   -0.4443 N   0  0  0  0  0  0  0  0  0  0  0  0
    3.5383    0.3164    1.1525 O   0  0  0  0  0  0  0  0  0  0  0  0
   -4.8417   -0.0674    0.0002 O   0  0  0  0  0  0  0  0  0  0  0  0
   -0.9860   -0.9536    2.0624 H   0  0  0  0  0  0  0  0  0  0  0  0
   -3.3490   -1.3991    1.5671 H   0  0  0  0  0  0  0  0  0  0  0  0
   -3.4110    1.9931   -1.0687 H   0  0  0  0  0  0  0  0  0  0  0  0
   -1.0739    2.4205   -0.5583 H   0  0  0  0  0  0  0  0  0  0  0  0
    1.1962    1.0276   -1.0169 H   0  0  0  0  0  0  0  0  0  0  0  0
    0.7885    2.0946    1.1823 H   0  0  0  0  0  0  0  0  0  0  0  0
    0.9154    0.5394    1.9842 H   0  0  0  0  0  0  0  0  0  0  0  0
   -5.1847    0.7301   -1.8956 H   0  0  0  0  0  0  0  0  0  0  0  0
   -6.5969    0.3025   -0.9143 H   0  0  0  0  0  0  0  0  0  0  0  0
   -5.6735    1.7676   -0.5377 H   0  0  0  0  0  0  0  0  0  0  0  0
    2.9573    2.1216   -1.3697 H   0  0  0  0  0  0  0  0  0  0  0  0
    5.3362    1.9713   -1.2856 H   0  0  0  0  0  0  0  0  0  0  0  0
    4.8139    3.1766   -0.3161 H   0  0  0  0  0  0  0  0  0  0  0  0
    0.8286   -3.4675   -1.8785 H   0  0  0  0  0  0  0  0  0  0  0  0
 11 19  1  0
 19  4  1  0
 18  9  2  0
  5  4  2  0
  5  6  1  0
  4  3  1  0
 14 12  1  0
 14  7  2  0
  6  1  2  0
  9  8  1  0
  9 16  1  0
  3  2  2  0
 12 13  1  0
  8  7  1  0
  8 10  1  0
  7 15  1  0
  1  2  1  0
  1 10  1  0
 17 16  1  0
 13 15  2  0
  2 20  1  0
  3 21  1  0
  5 22  1  0
  6 23  1  0
  8 24  1  6
 10 25  1  0
 10 26  1  0
 11 27  1  0
 11 28  1  0
 11 29  1  0
 12 33  1  0
 16 30  1  0
 17 31  1  0
 17 32  1  0
M  END
