
     RDKit          3D

 82 85  0  0  0  0  0  0  0  0999 V2000
   -3.8781    5.5362   -0.4084 N   0  0  0  0  0  0  0  0  0  0  0  0
   -2.9053    4.9176   -0.4697 C   0  0  0  0  0  0  0  0  0  0  0  0
   -1.7155    4.1475   -0.5455 C   0  0  0  0  0  0  0  0  0  0  0  0
   -1.6452    2.8878    0.0515 C   0  0  0  0  0  0  0  0  0  0  0  0
   -0.5010    2.1302   -0.0308 C   0  0  0  0  0  0  0  0  0  0  0  0
   -0.5907    4.6229   -1.2240 C   0  0  0  0  0  0  0  0  0  0  0  0
    0.5576    3.8686   -1.3114 C   0  0  0  0  0  0  0  0  0  0  0  0
    0.6448    2.5890   -0.7200 C   0  0  0  0  0  0  0  0  0  0  0  0
    1.7610    1.8105   -0.7911 N   0  0  0  0  0  0  0  0  0  0  0  0
    3.0333    2.2584   -1.3401 C   0  0  0  0  0  0  0  0  0  0  0  0
    4.1401    2.1538   -0.3493 C   0  0  0  0  0  0  0  0  0  0  0  0
    4.2059    2.8866    0.8077 N   0  0  0  0  0  0  0  0  0  0  0  0
    3.2521    3.8705    1.2659 C   0  0  0  0  0  0  0  0  0  0  0  0
    5.3247    2.5001    1.4543 C   0  0  0  0  0  0  0  0  0  0  0  0
    5.9816    1.5770    0.7983 N   0  0  0  0  0  0  0  0  0  0  0  0
    5.2476    1.3517   -0.3280 C   0  0  0  0  0  0  0  0  0  0  0  0
    1.7223    0.4204   -0.3826 C   0  0  0  0  0  0  0  0  0  0  0  0
    0.9316   -0.4234   -1.3867 C   0  0  0  0  0  0  0  0  0  0  0  0
    0.7317   -1.8081   -0.9802 N   0  0  0  0  0  0  0  0  0  0  0  0
    1.8200   -2.9644   -1.4036 S   0  0  1  0  0  0  0  0  0  0  0  0
    3.0870   -2.9581   -0.2017 C   0  0  0  0  0  0  0  0  0  0  0  0
    4.0204   -1.9728   -0.1595 N   0  0  0  0  0  0  0  0  0  0  0  0
    4.7528   -2.2575    0.8821 C   0  0  0  0  0  0  0  0  0  0  0  0
    4.3320   -3.3828    1.5067 N   0  0  0  0  0  0  0  0  0  0  0  0
    4.9246   -3.9864    2.6832 C   0  0  0  0  0  0  0  0  0  0  0  0
    3.2553   -3.8481    0.8236 C   0  0  0  0  0  0  0  0  0  0  0  0
    1.1525   -4.2505   -1.2770 O   0  0  0  0  0  0  0  0  0  0  0  0
    2.4012   -2.5653   -2.6739 O   0  0  0  0  0  0  0  0  0  0  0  0
   -0.1520   -2.0949    0.1500 C   0  0  0  0  0  0  0  0  0  0  0  0
   -1.5498   -2.5461   -0.2556 C   0  0  1  0  0  0  0  0  0  0  0  0
   -2.3432   -2.9336    0.9942 C   0  0  0  0  0  0  0  0  0  0  0  0
   -3.7871   -3.2813    0.6489 C   0  0  0  0  0  0  0  0  0  0  0  0
   -2.2934   -1.4800   -1.0620 C   0  0  0  0  0  0  0  0  0  0  0  0
   -3.7422   -1.8785   -1.3126 C   0  0  0  0  0  0  0  0  0  0  0  0
   -4.4155   -2.1782   -0.0588 N   0  0  0  0  0  0  0  0  0  0  0  0
   -5.1074   -1.2559    0.6607 C   0  0  0  0  0  0  0  0  0  0  0  0
   -5.4873   -1.4410    1.8012 O   0  0  0  0  0  0  0  0  0  0  0  0
   -5.3347   -0.1506   -0.0438 O   0  0  0  0  0  0  0  0  0  0  0  0
   -6.0807    0.9761    0.4842 C   0  0  1  0  0  0  0  0  0  0  0  0
   -5.4109    1.5597    1.7231 C   0  0  0  0  0  0  0  0  0  0  0  0
   -6.0246    1.9914   -0.6512 C   0  0  0  0  0  0  0  0  0  0  0  0
   -7.5288    0.5896    0.7597 C   0  0  0  0  0  0  0  0  0  0  0  0
   -2.4933    2.4950    0.5966 H   0  0  0  0  0  0  0  0  0  0  0  0
   -0.5012    1.1719    0.4656 H   0  0  0  0  0  0  0  0  0  0  0  0
   -0.6175    5.5936   -1.7010 H   0  0  0  0  0  0  0  0  0  0  0  0
    1.3804    4.2885   -1.8691 H   0  0  0  0  0  0  0  0  0  0  0  0
    3.3014    1.6544   -2.2116 H   0  0  0  0  0  0  0  0  0  0  0  0
    2.9486    3.2798   -1.7036 H   0  0  0  0  0  0  0  0  0  0  0  0
    2.3072    3.4048    1.5392 H   0  0  0  0  0  0  0  0  0  0  0  0
    3.6563    4.3749    2.1397 H   0  0  0  0  0  0  0  0  0  0  0  0
    3.0703    4.6165    0.4942 H   0  0  0  0  0  0  0  0  0  0  0  0
    5.6101    2.9314    2.4025 H   0  0  0  0  0  0  0  0  0  0  0  0
    5.5328    0.6178   -1.0666 H   0  0  0  0  0  0  0  0  0  0  0  0
    2.7457    0.0529   -0.3258 H   0  0  0  0  0  0  0  0  0  0  0  0
    1.3221    0.3237    0.6301 H   0  0  0  0  0  0  0  0  0  0  0  0
   -0.0560    0.0106   -1.5506 H   0  0  0  0  0  0  0  0  0  0  0  0
    1.4304   -0.4033   -2.3534 H   0  0  0  0  0  0  0  0  0  0  0  0
    5.5989   -1.6861    1.2338 H   0  0  0  0  0  0  0  0  0  0  0  0
    4.2010   -4.0232    3.4938 H   0  0  0  0  0  0  0  0  0  0  0  0
    5.2677   -4.9932    2.4586 H   0  0  0  0  0  0  0  0  0  0  0  0
    5.7743   -3.3869    2.9958 H   0  0  0  0  0  0  0  0  0  0  0  0
    2.7249   -4.7414    1.1084 H   0  0  0  0  0  0  0  0  0  0  0  0
    0.3015   -2.8461    0.8019 H   0  0  0  0  0  0  0  0  0  0  0  0
   -0.2226   -1.1946    0.7672 H   0  0  0  0  0  0  0  0  0  0  0  0
   -1.4527   -3.4395   -0.8829 H   0  0  0  0  0  0  0  0  0  0  0  0
   -1.8711   -3.7880    1.4867 H   0  0  0  0  0  0  0  0  0  0  0  0
   -2.3366   -2.1094    1.7164 H   0  0  0  0  0  0  0  0  0  0  0  0
   -3.8128   -4.1581   -0.0048 H   0  0  0  0  0  0  0  0  0  0  0  0
   -4.3570   -3.5276    1.5408 H   0  0  0  0  0  0  0  0  0  0  0  0
   -2.2813   -0.5230   -0.5267 H   0  0  0  0  0  0  0  0  0  0  0  0
   -1.8021   -1.3159   -2.0234 H   0  0  0  0  0  0  0  0  0  0  0  0
   -4.2718   -1.1071   -1.8632 H   0  0  0  0  0  0  0  0  0  0  0  0
   -3.7735   -2.7851   -1.9235 H   0  0  0  0  0  0  0  0  0  0  0  0
   -4.3618    1.7921    1.5323 H   0  0  0  0  0  0  0  0  0  0  0  0
   -5.9087    2.4934    1.9868 H   0  0  0  0  0  0  0  0  0  0  0  0
   -5.4629    0.8954    2.5819 H   0  0  0  0  0  0  0  0  0  0  0  0
   -6.5098    1.6125   -1.5518 H   0  0  0  0  0  0  0  0  0  0  0  0
   -6.5369    2.9058   -0.3527 H   0  0  0  0  0  0  0  0  0  0  0  0
   -4.9957    2.2534   -0.9027 H   0  0  0  0  0  0  0  0  0  0  0  0
   -7.6213   -0.1109    1.5867 H   0  0  0  0  0  0  0  0  0  0  0  0
   -8.0956    1.4856    1.0167 H   0  0  0  0  0  0  0  0  0  0  0  0
   -7.9918    0.1494   -0.1249 H   0  0  0  0  0  0  0  0  0  0  0  0
  2  1  3  0
  3  2  1  0
  6  3  2  0
  3  4  1  0
  5  4  2  0
  4 43  1  0
  8  5  1  0
  5 44  1  0
  7  6  1  0
  6 45  1  0
  7  8  2  0
  7 46  1  0
  9  8  1  0
 17  9  1  0
  9 10  1  0
 10 11  1  0
 10 47  1  0
 10 48  1  0
 11 12  1  0
 11 16  2  0
 13 12  1  0
 12 14  1  0
 13 49  1  0
 13 50  1  0
 13 51  1  0
 14 15  2  0
 14 52  1  0
 16 15  1  0
 16 53  1  0
 17 18  1  0
 17 54  1  0
 17 55  1  0
 19 18  1  0
 18 56  1  0
 18 57  1  0
 20 19  1  1
 19 29  1  0
 27 20  2  0
 28 20  2  0
 20 21  1  0
 21 26  2  0
 21 22  1  0
 22 23  2  0
 24 23  1  0
 23 58  1  0
 26 24  1  0
 24 25  1  0
 25 59  1  0
 25 60  1  0
 25 61  1  0
 26 62  1  0
 30 29  1  0
 29 63  1  0
 29 64  1  0
 31 30  1  0
 33 30  1  0
 30 65  1  6
 32 31  1  0
 31 66  1  0
 31 67  1  0
 32 35  1  0
 32 68  1  0
 32 69  1  0
 34 33  1  0
 33 70  1  0
 33 71  1  0
 35 34  1  0
 34 72  1  0
 34 73  1  0
 36 35  1  0
 38 36  1  0
 37 36  2  0
 39 38  1  6
 41 39  1  0
 42 39  1  0
 40 39  1  0
 40 74  1  0
 40 75  1  0
 40 76  1  0
 41 77  1  0
 41 78  1  0
 41 79  1  0
 42 80  1  0
 42 81  1  0
 42 82  1  0
M  END
