
     RDKit          3D

 22 21  0  0  0  0  0  0  0  0999 V2000
    1.0637   -0.5063    0.0575 C   0  0  0  0  0  0  0  0  0  0  0  0
   -0.3500    1.1916    1.2736 C   0  0  0  0  0  0  0  0  0  0  0  0
   -2.8009   -0.2811   -0.0324 C   0  0  0  0  0  0  0  0  0  0  0  0
   -1.3839   -0.7812    0.0765 C   0  0  0  0  0  0  0  0  0  0  0  0
   -0.2673    0.2718    0.0610 C   0  0  2  0  0  0  0  0  0  0  0  0
    2.3029    0.3757    0.0245 C   0  0  0  0  0  0  0  0  0  0  0  0
   -3.6514   -1.3058   -0.0803 O   0  0  0  0  0  0  0  0  0  0  0  0
   -3.1677    0.8654   -0.0726 O   0  0  0  0  0  0  0  0  0  0  0  0
   -0.3632    1.0905   -1.0883 O   0  0  0  0  0  0  0  0  0  0  0  0
    3.7673   -0.7036   -0.1261 S   0  0  0  0  0  0  0  0  0  0  0  0
    1.1016   -1.1543    0.9376 H   0  0  0  0  0  0  0  0  0  0  0  0
    1.0742   -1.1713   -0.8143 H   0  0  0  0  0  0  0  0  0  0  0  0
    0.4495    1.9323    1.2628 H   0  0  0  0  0  0  0  0  0  0  0  0
   -1.2950    1.7291    1.3052 H   0  0  0  0  0  0  0  0  0  0  0  0
   -0.2581    0.6136    2.1937 H   0  0  0  0  0  0  0  0  0  0  0  0
   -1.3128   -1.3835    0.9875 H   0  0  0  0  0  0  0  0  0  0  0  0
   -1.2278   -1.4919   -0.7433 H   0  0  0  0  0  0  0  0  0  0  0  0
    2.2708    1.0592   -0.8225 H   0  0  0  0  0  0  0  0  0  0  0  0
    2.3938    0.9622    0.9372 H   0  0  0  0  0  0  0  0  0  0  0  0
   -4.5604   -0.9755   -0.1391 H   0  0  0  0  0  0  0  0  0  0  0  0
   -0.2399    0.5401   -1.8694 H   0  0  0  0  0  0  0  0  0  0  0  0
    4.7034    0.2501   -0.0737 H   0  0  0  0  0  0  0  0  0  0  0  0
  8  3  2  0
  4  3  1  0
  4  5  1  0
  3  7  1  0
  1  5  1  0
  1  6  1  0
 10  6  1  0
  5  9  1  6
  5  2  1  0
  1 11  1  0
  1 12  1  0
  2 13  1  0
  2 14  1  0
  2 15  1  0
  4 16  1  0
  4 17  1  0
  6 18  1  0
  6 19  1  0
  7 20  1  0
  9 21  1  0
 10 22  1  0
M  END
