
     RDKit          3D

 36 38  0  0  0  0  0  0  0  0999 V2000
   -3.6271    0.8900    0.7666 C   0  0  0  0  0  0  0  0  0  0  0  0
   -4.2816    2.0954    0.9579 C   0  0  0  0  0  0  0  0  0  0  0  0
   -4.2110    3.0739   -0.0239 C   0  0  0  0  0  0  0  0  0  0  0  0
   -3.4926    2.8542   -1.1903 C   0  0  0  0  0  0  0  0  0  0  0  0
    6.0444    0.4470    0.5773 F   0  0  0  0  0  0  0  0  0  0  0  0
   -2.8520    1.6401   -1.3861 C   0  0  0  0  0  0  0  0  0  0  0  0
    4.6697    2.0394    1.0233 F   0  0  0  0  0  0  0  0  0  0  0  0
   -2.9190    0.6569   -0.4095 C   0  0  0  0  0  0  0  0  0  0  0  0
    5.0171    1.4551   -1.0189 F   0  0  0  0  0  0  0  0  0  0  0  0
   -2.2490   -0.5699   -0.6024 N   0  0  0  0  0  0  0  0  0  0  0  0
   -2.9237   -1.7169   -0.8632 N   0  0  0  0  0  0  0  0  0  0  0  0
   -2.0182   -2.6508   -0.9929 C   0  0  0  0  0  0  0  0  0  0  0  0
   -0.9295   -0.7945   -0.5659 C   0  0  0  0  0  0  0  0  0  0  0  0
   -0.7150   -2.1319   -0.8102 C   0  0  0  0  0  0  0  0  0  0  0  0
    0.0861    0.0673   -0.3341 N   0  0  0  0  0  0  0  0  0  0  0  0
    1.3491   -0.4399   -0.3808 C   0  0  0  0  0  0  0  0  0  0  0  0
    1.6214   -1.6788   -0.6097 N   0  0  0  0  0  0  0  0  0  0  0  0
    0.6355   -2.6359   -0.8306 C   0  0  0  0  0  0  0  0  0  0  0  0
    0.9363   -3.8005   -1.0325 O   0  0  0  0  0  0  0  0  0  0  0  0
    2.4403    0.5715   -0.1943 C   0  0  0  0  0  0  0  0  0  0  0  0
    3.7429   -0.0358    0.3237 C   0  0  2  0  0  0  0  0  0  0  0  0
    3.5936   -0.5447    1.7556 C   0  0  0  0  0  0  0  0  0  0  0  0
    4.8640    0.9764    0.2261 C   0  0  1  0  0  0  0  0  0  0  0  0
   -3.6721   -0.3188    1.9927 Cl  0  0  0  0  0  0  0  0  0  0  0  0
   -4.8361    2.2716    1.8693 H   0  0  0  0  0  0  0  0  0  0  0  0
   -4.7192    4.0158    0.1326 H   0  0  0  0  0  0  0  0  0  0  0  0
   -3.4370    3.6200   -1.9509 H   0  0  0  0  0  0  0  0  0  0  0  0
   -2.3051    1.4448   -2.2997 H   0  0  0  0  0  0  0  0  0  0  0  0
   -2.3076   -3.6665   -1.2130 H   0  0  0  0  0  0  0  0  0  0  0  0
   -0.0698    1.0464   -0.1356 H   0  0  0  0  0  0  0  0  0  0  0  0
    2.5839    1.0423   -1.1721 H   0  0  0  0  0  0  0  0  0  0  0  0
    2.0921    1.3586    0.4792 H   0  0  0  0  0  0  0  0  0  0  0  0
    4.0236   -0.8684   -0.3270 H   0  0  0  0  0  0  0  0  0  0  0  0
    4.5245   -0.9561    2.1426 H   0  0  0  0  0  0  0  0  0  0  0  0
    3.2596    0.2458    2.4283 H   0  0  0  0  0  0  0  0  0  0  0  0
    2.8549   -1.3432    1.7880 H   0  0  0  0  0  0  0  0  0  0  0  0
  3  2  1  0
  3  4  2  0
 23  7  1  1
  2  1  2  0
  9 23  1  0
  4  6  1  0
 23  5  1  0
 23 21  1  0
  1 24  1  0
  1  8  1  0
  6  8  2  0
 21 20  1  0
 21 22  1  0
  8 10  1  0
 20 16  1  0
 15 16  1  0
 15 13  1  0
 16 17  2  0
 10 13  1  0
 10 11  1  0
 13 14  2  0
 11 12  2  0
 17 18  1  0
 14 12  1  0
 14 18  1  0
 18 19  2  0
  2 25  1  0
  3 26  1  0
  4 27  1  0
  6 28  1  0
 12 29  1  0
 15 30  1  0
 20 31  1  0
 20 32  1  0
 21 33  1  6
 22 34  1  0
 22 35  1  0
 22 36  1  0
M  END
