
     RDKit          3D

 42 43  0  0  0  0  0  0  0  0999 V2000
    6.8567   -1.0330   -0.2717 C   0  0  0  0  0  0  0  0  0  0  0  0
    5.8495   -0.3690    0.6656 C   0  0  1  0  0  0  0  0  0  0  0  0
    5.5253   -1.3509    1.8005 C   0  0  0  0  0  0  0  0  0  0  0  0
    6.4921    0.8967    1.2514 C   0  0  0  0  0  0  0  0  0  0  0  0
    4.5594    0.0144   -0.0462 C   0  0  0  0  0  0  0  0  0  0  0  0
    3.5219    0.6094    0.6783 C   0  0  0  0  0  0  0  0  0  0  0  0
    2.3334    0.9781    0.0766 C   0  0  0  0  0  0  0  0  0  0  0  0
    4.3601   -0.1937   -1.4096 C   0  0  0  0  0  0  0  0  0  0  0  0
    3.1749    0.1689   -2.0335 C   0  0  0  0  0  0  0  0  0  0  0  0
    2.1662    0.7517   -1.2844 C   0  0  0  0  0  0  0  0  0  0  0  0
    0.6379    1.1767   -2.0536 S   0  0  1  0  0  0  0  0  0  0  0  0
    0.0115    2.2470   -1.2731 O   0  0  0  0  0  0  0  0  0  0  0  0
    0.8721    1.3944   -3.4695 O   0  0  0  0  0  0  0  0  0  0  0  0
   -0.2311   -0.1995   -1.9129 N   0  0  0  0  0  0  0  0  0  0  0  0
   -1.1974   -0.2918   -1.0665 C   0  0  0  0  0  0  0  0  0  0  0  0
   -1.8913    0.8997    0.0255 S   0  0  0  0  0  0  0  0  0  0  0  0
   -2.9719   -0.3465    0.5554 C   0  0  0  0  0  0  0  0  0  0  0  0
   -4.1612   -0.0528    1.8376 S   0  0  1  0  0  0  0  0  0  0  0  0
   -4.5164    1.3463    1.7103 O   0  0  0  0  0  0  0  0  0  0  0  0
   -5.1473   -1.1043    1.7298 O   0  0  0  0  0  0  0  0  0  0  0  0
   -3.2464   -0.2052    3.1764 N   0  0  0  0  0  0  0  0  0  0  0  0
   -2.8583   -1.4788   -0.0146 N   0  0  0  0  0  0  0  0  0  0  0  0
   -1.8765   -1.4537   -0.9178 N   0  0  0  0  0  0  0  0  0  0  0  0
   -1.5761   -2.6401   -1.6977 C   0  0  0  0  0  0  0  0  0  0  0  0
    6.4673   -1.9548   -0.7085 H   0  0  0  0  0  0  0  0  0  0  0  0
    7.1626   -0.3744   -1.0866 H   0  0  0  0  0  0  0  0  0  0  0  0
    7.7559   -1.2915    0.2893 H   0  0  0  0  0  0  0  0  0  0  0  0
    5.0501   -2.2560    1.4181 H   0  0  0  0  0  0  0  0  0  0  0  0
    6.4432   -1.6459    2.3133 H   0  0  0  0  0  0  0  0  0  0  0  0
    4.8590   -0.9129    2.5447 H   0  0  0  0  0  0  0  0  0  0  0  0
    7.4299    0.6435    1.7492 H   0  0  0  0  0  0  0  0  0  0  0  0
    6.7123    1.6244    0.4686 H   0  0  0  0  0  0  0  0  0  0  0  0
    5.8482    1.3803    1.9868 H   0  0  0  0  0  0  0  0  0  0  0  0
    3.6355    0.7991    1.7377 H   0  0  0  0  0  0  0  0  0  0  0  0
    1.5569    1.4451    0.6673 H   0  0  0  0  0  0  0  0  0  0  0  0
    5.1324   -0.6455   -2.0157 H   0  0  0  0  0  0  0  0  0  0  0  0
    3.0540   -0.0054   -3.0941 H   0  0  0  0  0  0  0  0  0  0  0  0
   -3.2551   -1.1248    3.6015 H   0  0  0  0  0  0  0  0  0  0  0  0
   -3.3607    0.5477    3.8446 H   0  0  0  0  0  0  0  0  0  0  0  0
   -0.5441   -2.9429   -1.5360 H   0  0  0  0  0  0  0  0  0  0  0  0
   -2.2436   -3.4291   -1.3697 H   0  0  0  0  0  0  0  0  0  0  0  0
   -1.7334   -2.4432   -2.7558 H   0  0  0  0  0  0  0  0  0  0  0  0
  2  4  1  1
 24 23  1  0
  8  9  1  0
  8  5  2  0
  9 10  2  0
  2  3  1  0
  2  5  1  0
  2  1  1  0
  5  6  1  0
 12 11  2  0
 11 14  1  6
 14 15  2  0
 10 11  1  0
 10  7  1  0
  6  7  2  0
 11 13  2  0
 23 15  1  0
 23 22  1  0
 15 16  1  0
 22 17  2  0
 16 17  1  0
 17 18  1  0
 18 20  2  0
 18 21  1  1
 18 19  2  0
  1 25  1  0
  1 26  1  0
  1 27  1  0
  3 28  1  0
  3 29  1  0
  3 30  1  0
  4 31  1  0
  4 32  1  0
  4 33  1  0
  6 34  1  0
  7 35  1  0
  8 36  1  0
  9 37  1  0
 21 38  1  0
 21 39  1  0
 24 40  1  0
 24 41  1  0
 24 42  1  0
M  END
