
     RDKit          3D

 45 45  0  0  0  0  0  0  0  0999 V2000
   -4.1170    2.0675    1.9886 C   0  0  0  0  0  0  0  0  0  0  0  0
   -5.1921    1.2388    1.3501 C   0  0  0  0  0  0  0  0  0  0  0  0
   -6.5624    1.4534    1.9256 C   0  0  0  0  0  0  0  0  0  0  0  0
   -4.9978    0.3768    0.3486 C   0  0  0  0  0  0  0  0  0  0  0  0
   -3.7156    0.0390   -0.3453 C   0  0  0  0  0  0  0  0  0  0  0  0
   -3.2903   -1.4143   -0.0811 C   0  0  0  0  0  0  0  0  0  0  0  0
   -2.0484   -1.8108   -0.8355 C   0  0  0  0  0  0  0  0  0  0  0  0
   -2.2203   -1.9679   -2.3164 C   0  0  0  0  0  0  0  0  0  0  0  0
   -0.9000   -1.9851   -0.1782 C   0  0  0  0  0  0  0  0  0  0  0  0
    0.4466   -2.3241   -0.7518 C   0  0  0  0  0  0  0  0  0  0  0  0
    1.4287   -1.2060   -0.4995 C   0  0  0  0  0  0  0  0  0  0  0  0
    1.4532   -0.1037   -1.3570 C   0  0  0  0  0  0  0  0  0  0  0  0
    0.6258   -0.1191   -2.3908 O   0  0  0  0  0  0  0  0  0  0  0  0
    2.3202    0.9890   -1.1300 C   0  0  0  0  0  0  0  0  0  0  0  0
    2.2732    2.1142   -2.0343 C   0  0  0  0  0  0  0  0  0  0  0  0
    1.5345    2.1819   -3.0142 O   0  0  0  0  0  0  0  0  0  0  0  0
    3.1931    0.9860   -0.0152 C   0  0  0  0  0  0  0  0  0  0  0  0
    4.1180    2.1402    0.2430 C   0  0  0  0  0  0  0  0  0  0  0  0
    3.1422   -0.0970    0.8339 C   0  0  0  0  0  0  0  0  0  0  0  0
    4.1395   -0.1904    2.2502 Cl  0  0  0  0  0  0  0  0  0  0  0  0
    2.2694   -1.1817    0.6061 C   0  0  0  0  0  0  0  0  0  0  0  0
    2.3042   -2.1573    1.5119 O   0  0  0  0  0  0  0  0  0  0  0  0
   -4.2881    3.1312    1.8031 H   0  0  0  0  0  0  0  0  0  0  0  0
   -4.1321    1.9380    3.0736 H   0  0  0  0  0  0  0  0  0  0  0  0
   -3.1151    1.8261    1.6404 H   0  0  0  0  0  0  0  0  0  0  0  0
   -6.5791    1.2259    2.9947 H   0  0  0  0  0  0  0  0  0  0  0  0
   -6.8692    2.4986    1.8286 H   0  0  0  0  0  0  0  0  0  0  0  0
   -7.3147    0.8343    1.4371 H   0  0  0  0  0  0  0  0  0  0  0  0
   -5.8666   -0.1677   -0.0161 H   0  0  0  0  0  0  0  0  0  0  0  0
   -3.8525    0.1876   -1.4209 H   0  0  0  0  0  0  0  0  0  0  0  0
   -2.9046    0.7055   -0.0461 H   0  0  0  0  0  0  0  0  0  0  0  0
   -3.1318   -1.5423    0.9926 H   0  0  0  0  0  0  0  0  0  0  0  0
   -4.1158   -2.0807   -0.3568 H   0  0  0  0  0  0  0  0  0  0  0  0
   -3.0204   -2.6807   -2.5301 H   0  0  0  0  0  0  0  0  0  0  0  0
   -2.5118   -1.0237   -2.7813 H   0  0  0  0  0  0  0  0  0  0  0  0
   -1.3228   -2.3117   -2.8237 H   0  0  0  0  0  0  0  0  0  0  0  0
   -0.9104   -1.8436    0.9005 H   0  0  0  0  0  0  0  0  0  0  0  0
    0.8041   -3.2666   -0.3231 H   0  0  0  0  0  0  0  0  0  0  0  0
    0.3893   -2.5206   -1.8213 H   0  0  0  0  0  0  0  0  0  0  0  0
    0.7428    0.7232   -2.8922 H   0  0  0  0  0  0  0  0  0  0  0  0
    2.9357    2.9596   -1.8162 H   0  0  0  0  0  0  0  0  0  0  0  0
    3.5729    2.9798    0.6776 H   0  0  0  0  0  0  0  0  0  0  0  0
    4.9103    1.8731    0.9353 H   0  0  0  0  0  0  0  0  0  0  0  0
    4.5956    2.4943   -0.6681 H   0  0  0  0  0  0  0  0  0  0  0  0
    1.7142   -2.8827    1.2749 H   0  0  0  0  0  0  0  0  0  0  0  0
 13 12  1  0
 16 15  2  0
 15 14  1  0
 12 14  1  0
 12 11  2  0
 10  9  1  0
 10 11  1  0
  9  7  2  0
 14 17  2  0
 11 21  1  0
  7  6  1  0
  7  8  1  0
  6  5  1  0
 17 18  1  0
 17 19  1  0
 21 19  2  0
 21 22  1  0
  5  4  1  0
  4  2  2  0
 19 20  1  0
  2  3  1  0
  2  1  1  0
  1 23  1  0
  1 24  1  0
  1 25  1  0
  3 26  1  0
  3 27  1  0
  3 28  1  0
  4 29  1  0
  5 30  1  0
  5 31  1  0
  6 32  1  0
  6 33  1  0
  8 34  1  0
  8 35  1  0
  8 36  1  0
  9 37  1  0
 10 38  1  0
 10 39  1  0
 13 40  1  0
 15 41  1  0
 18 42  1  0
 18 43  1  0
 18 44  1  0
 22 45  1  0
M  END
