
     RDKit          3D

 60 64  0  0  0  0  0  0  0  0999 V2000
    5.0440   -1.7951   -2.1714 N   0  0  0  0  0  0  0  0  0  0  0  0
   -2.7415    0.4673   -1.0291 N   0  0  0  0  0  0  0  0  0  0  0  0
    5.9711   -1.4699   -1.2278 C   0  0  0  0  0  0  0  0  0  0  0  0
    7.3221   -1.7973   -1.1341 C   0  0  0  0  0  0  0  0  0  0  0  0
    8.0258   -1.3305   -0.0428 C   0  0  0  0  0  0  0  0  0  0  0  0
    7.3810   -0.5504    0.9287 C   0  0  0  0  0  0  0  0  0  0  0  0
    6.0486   -0.2128    0.8461 C   0  0  0  0  0  0  0  0  0  0  0  0
    1.4836    2.2164    0.3217 C   0  0  0  0  0  0  0  0  0  0  0  0
   -1.8754    0.2140    0.1064 C   0  0  0  0  0  0  0  0  0  0  0  0
   -4.0479   -1.5813   -0.7821 C   0  0  0  0  0  0  0  0  0  0  0  0
   -5.6905   -2.2570    0.6609 C   0  0  0  0  0  0  0  0  0  0  0  0
   -6.8087    0.2076    1.0697 C   0  0  0  0  0  0  0  0  0  0  0  0
   -5.7228    0.1331    0.2255 C   0  0  0  0  0  0  0  0  0  0  0  0
   -5.1532   -1.1262    0.0060 C   0  0  0  0  0  0  0  0  0  0  0  0
   -1.8099    2.7159   -1.3088 C   0  0  0  0  0  0  0  0  0  0  0  0
    3.9651    2.3487    0.1715 N   0  0  0  0  0  0  0  0  0  0  0  0
    2.7778    1.6675   -0.2856 C   0  0  1  0  0  0  0  0  0  0  0  0
    1.4432    2.6353    1.4719 O   0  0  0  0  0  0  0  0  0  0  0  0
    2.8505    0.1672    0.0487 C   0  0  0  0  0  0  0  0  0  0  0  0
   -0.9312    2.5434   -0.0733 C   0  0  1  0  0  0  0  0  0  0  0  0
   -1.5674    1.5029    0.8476 C   0  0  0  0  0  0  0  0  0  0  0  0
   -3.9611   -2.9275   -0.5676 C   0  0  0  0  0  0  0  0  0  0  0  0
   -6.7861   -2.1628    1.5160 C   0  0  0  0  0  0  0  0  0  0  0  0
   -7.3458   -0.9166    1.7139 C   0  0  0  0  0  0  0  0  0  0  0  0
    3.9516   -0.5551   -0.6525 C   0  0  0  0  0  0  0  0  0  0  0  0
   -2.1365    1.3848   -1.9724 C   0  0  0  0  0  0  0  0  0  0  0  0
    3.8400   -1.2529   -1.8234 C   0  0  0  0  0  0  0  0  0  0  0  0
    5.3198   -0.6823   -0.2516 C   0  0  0  0  0  0  0  0  0  0  0  0
    0.4116    2.1597   -0.4807 N   0  0  0  0  0  0  0  0  0  0  0  0
   -4.9454   -3.3352    0.2878 N   0  0  0  0  0  0  0  0  0  0  0  0
    8.3172    0.0156    2.2850 Cl  0  0  0  0  0  0  0  0  0  0  0  0
   -7.5467    1.7580    1.3671 Cl  0  0  0  0  0  0  0  0  0  0  0  0
    5.2096   -2.3558   -2.9901 H   0  0  0  0  0  0  0  0  0  0  0  0
    7.8131   -2.3999   -1.8872 H   0  0  0  0  0  0  0  0  0  0  0  0
    9.0756   -1.5666    0.0646 H   0  0  0  0  0  0  0  0  0  0  0  0
    5.5800    0.3978    1.6057 H   0  0  0  0  0  0  0  0  0  0  0  0
   -2.3777   -0.4778    0.7848 H   0  0  0  0  0  0  0  0  0  0  0  0
   -0.9355   -0.2799   -0.2035 H   0  0  0  0  0  0  0  0  0  0  0  0
   -5.3033    1.0138   -0.2409 H   0  0  0  0  0  0  0  0  0  0  0  0
   -2.7419    3.1932   -0.9981 H   0  0  0  0  0  0  0  0  0  0  0  0
   -1.3327    3.3837   -2.0299 H   0  0  0  0  0  0  0  0  0  0  0  0
    3.9330    3.3228   -0.1037 H   0  0  0  0  0  0  0  0  0  0  0  0
    3.9852    2.3479    1.1843 H   0  0  0  0  0  0  0  0  0  0  0  0
    2.7294    1.7649   -1.3752 H   0  0  0  0  0  0  0  0  0  0  0  0
    2.9554    0.0547    1.1328 H   0  0  0  0  0  0  0  0  0  0  0  0
    1.8949   -0.2958   -0.2119 H   0  0  0  0  0  0  0  0  0  0  0  0
   -0.8629    3.4988    0.4530 H   0  0  0  0  0  0  0  0  0  0  0  0
   -2.4993    1.9169    1.2426 H   0  0  0  0  0  0  0  0  0  0  0  0
   -0.9199    1.2993    1.7013 H   0  0  0  0  0  0  0  0  0  0  0  0
   -3.7598   -0.4550   -2.5628 H   0  0  0  0  0  0  0  0  0  0  0  0
   -2.3470   -1.3618   -2.0472 H   0  0  0  0  0  0  0  0  0  0  0  0
   -3.2563   -3.6382   -0.9707 H   0  0  0  0  0  0  0  0  0  0  0  0
   -7.1914   -3.0324    2.0169 H   0  0  0  0  0  0  0  0  0  0  0  0
   -8.1973   -0.8062    2.3713 H   0  0  0  0  0  0  0  0  0  0  0  0
   -1.2305    0.9547   -2.4389 H   0  0  0  0  0  0  0  0  0  0  0  0
   -2.8387    1.5566   -2.7916 H   0  0  0  0  0  0  0  0  0  0  0  0
    2.9692   -1.4106   -2.4410 H   0  0  0  0  0  0  0  0  0  0  0  0
    0.5520    1.8423   -1.4269 H   0  0  0  0  0  0  0  0  0  0  0  0
   -5.0800   -4.2808    0.6038 H   0  0  0  0  0  0  0  0  0  0  0  0
   -3.1888   -0.7512   -1.6762 C   0  0  0  0  0  0  0  0  0  0  0  0
 27  1  1  0
 27 25  2  0
  1  3  1  0
 21  9  1  0
 21 20  1  0
 25 19  1  0
 25 28  1  0
  3  4  2  0
  3 28  1  0
  9  2  1  0
 18  8  2  0
 19 17  1  0
  4  5  1  0
 28  7  2  0
 20 29  1  0
 20 15  1  0
  8 29  1  0
  8 17  1  0
  2 60  1  0
  2 26  1  0
 17 16  1  0
 60 10  1  0
  5  6  2  0
 15 26  1  0
  7  6  1  0
 22 10  2  0
 22 30  1  0
 10 14  1  0
  6 31  1  0
 30 11  1  0
 14 11  2  0
 14 13  1  0
 11 23  1  0
 13 12  2  0
 23 24  2  0
 12 24  1  0
 12 32  1  0
  1 33  1  0
  4 34  1  0
  5 35  1  0
  7 36  1  0
  9 37  1  0
  9 38  1  0
 13 39  1  0
 15 40  1  0
 15 41  1  0
 16 42  1  0
 16 43  1  0
 17 44  1  6
 19 45  1  0
 19 46  1  0
 20 47  1  1
 21 48  1  0
 21 49  1  0
 60 50  1  0
 60 51  1  0
 22 52  1  0
 23 53  1  0
 24 54  1  0
 26 55  1  0
 26 56  1  0
 27 57  1  0
 29 58  1  0
 30 59  1  0
M  END
