
     RDKit          3D

 32 33  0  0  0  0  0  0  0  0999 V2000
    0.6916    3.7197   -0.2257 N   0  0  0  0  0  0  0  0  0  0  0  0
   -1.2738    0.0463    0.0536 N   0  0  0  0  0  0  0  0  0  0  0  0
   -5.5047   -0.2986   -1.2336 N   0  0  0  0  0  0  0  0  0  0  0  0
    4.3136    0.2368    0.0504 N   0  0  0  0  0  0  0  0  0  0  0  0
    2.1480    1.3078    0.1357 C   0  0  0  0  0  0  0  0  0  0  0  0
    0.7706    1.3337    0.1076 C   0  0  0  0  0  0  0  0  0  0  0  0
    0.0612    0.0982    0.0310 C   0  0  0  0  0  0  0  0  0  0  0  0
    0.8151   -1.0882   -0.0899 C   0  0  0  0  0  0  0  0  0  0  0  0
    2.1887   -1.0814   -0.0979 C   0  0  0  0  0  0  0  0  0  0  0  0
    2.8818    0.1316    0.0295 C   0  0  0  0  0  0  0  0  0  0  0  0
    0.0374    2.6289    0.1909 C   0  0  0  0  0  0  0  0  0  0  0  0
   -2.0437   -1.1748   -0.0667 C   0  0  0  0  0  0  0  0  0  0  0  0
   -3.5081   -0.8527   -0.0278 C   0  0  0  0  0  0  0  0  0  0  0  0
   -4.2161   -0.6111   -1.2000 C   0  0  0  0  0  0  0  0  0  0  0  0
   -6.1513   -0.2092   -0.0771 C   0  0  0  0  0  0  0  0  0  0  0  0
   -5.5455   -0.4285    1.1513 C   0  0  0  0  0  0  0  0  0  0  0  0
   -4.1994   -0.7562    1.1734 C   0  0  0  0  0  0  0  0  0  0  0  0
   -1.1107    2.6852    0.6281 O   0  0  0  0  0  0  0  0  0  0  0  0
    4.9711   -0.6500   -0.4432 O   0  0  0  0  0  0  0  0  0  0  0  0
    4.7998    1.2293    0.5528 O   0  0  0  0  0  0  0  0  0  0  0  0
    2.9612   -2.6145   -0.1797 Cl  0  0  0  0  0  0  0  0  0  0  0  0
    1.5482    3.6781   -0.7498 H   0  0  0  0  0  0  0  0  0  0  0  0
    0.2296    4.6140   -0.1840 H   0  0  0  0  0  0  0  0  0  0  0  0
   -1.7527    0.9103    0.2706 H   0  0  0  0  0  0  0  0  0  0  0  0
    2.6960    2.2330    0.2454 H   0  0  0  0  0  0  0  0  0  0  0  0
    0.3076   -2.0397   -0.1561 H   0  0  0  0  0  0  0  0  0  0  0  0
   -1.7971   -1.6796   -1.0049 H   0  0  0  0  0  0  0  0  0  0  0  0
   -1.7973   -1.8679    0.7441 H   0  0  0  0  0  0  0  0  0  0  0  0
   -3.7102   -0.6831   -2.1583 H   0  0  0  0  0  0  0  0  0  0  0  0
   -7.2040    0.0455   -0.1282 H   0  0  0  0  0  0  0  0  0  0  0  0
   -6.1183   -0.3467    2.0645 H   0  0  0  0  0  0  0  0  0  0  0  0
   -3.6938   -0.9417    2.1133 H   0  0  0  0  0  0  0  0  0  0  0  0
  1 11  1  0
  1 22  1  0
  1 23  1  0
  2  7  1  0
  2 12  1  0
  2 24  1  0
  4 20  2  0
  5 10  2  0
  5 25  1  0
  6  5  1  0
  6  7  2  0
  7  8  1  0
  8  9  2  0
  8 26  1  0
  9 21  1  0
 10  4  1  0
 10  9  1  0
 11  6  1  0
 12 13  1  0
 12 27  1  0
 12 28  1  0
 13 14  1  0
 14  3  2  0
 14 29  1  0
 15  3  1  0
 15 30  1  0
 16 15  2  0
 16 31  1  0
 17 13  2  0
 17 16  1  0
 17 32  1  0
 18 11  2  0
 19  4  1  0
M  CHG  2   4   1  19  -1
M  END
