
     RDKit          3D

 26 26  0  0  0  0  0  0  0  0999 V2000
   -0.2598    5.2185   -0.1605 C   0  0  0  0  0  0  0  0  0  0  0  0
   -0.8522    2.9571    0.4231 C   0  0  0  0  0  0  0  0  0  0  0  0
   -0.4977    1.5024    0.2583 C   0  0  0  0  0  0  0  0  0  0  0  0
   -1.4810    0.5254    0.3519 C   0  0  0  0  0  0  0  0  0  0  0  0
   -1.1553   -0.8198    0.2441 C   0  0  0  0  0  0  0  0  0  0  0  0
    0.1576   -1.2123    0.0263 C   0  0  0  0  0  0  0  0  0  0  0  0
    1.1385   -0.2372   -0.0736 C   0  0  0  0  0  0  0  0  0  0  0  0
    0.8167    1.1089    0.0420 C   0  0  0  0  0  0  0  0  0  0  0  0
    2.5734   -0.6076   -0.2918 C   0  0  1  0  0  0  0  0  0  0  0  0
   -2.2476   -1.8427    0.3055 C   0  0  1  0  0  0  0  0  0  0  0  0
    3.3361   -0.2482    0.7505 F   0  0  0  0  0  0  0  0  0  0  0  0
    2.7469   -1.9196   -0.4697 F   0  0  0  0  0  0  0  0  0  0  0  0
    3.0841    0.0073   -1.3668 F   0  0  0  0  0  0  0  0  0  0  0  0
   -2.8744   -1.9625   -0.8741 F   0  0  0  0  0  0  0  0  0  0  0  0
   -1.7926   -3.0567    0.6285 F   0  0  0  0  0  0  0  0  0  0  0  0
   -3.1836   -1.5202    1.2056 F   0  0  0  0  0  0  0  0  0  0  0  0
   -0.0470    3.8091   -0.4224 N   0  0  0  0  0  0  0  0  0  0  0  0
    0.3344    5.8125   -0.8541 H   0  0  0  0  0  0  0  0  0  0  0  0
   -1.3058    5.5412   -0.2506 H   0  0  0  0  0  0  0  0  0  0  0  0
    0.0719    5.4602    0.8507 H   0  0  0  0  0  0  0  0  0  0  0  0
   -1.9346    3.0833    0.2697 H   0  0  0  0  0  0  0  0  0  0  0  0
   -0.6635    3.2417    1.4639 H   0  0  0  0  0  0  0  0  0  0  0  0
   -2.5081    0.8303    0.5121 H   0  0  0  0  0  0  0  0  0  0  0  0
    0.4093   -2.2590   -0.0673 H   0  0  0  0  0  0  0  0  0  0  0  0
    1.5804    1.8726   -0.0374 H   0  0  0  0  0  0  0  0  0  0  0  0
   -0.2662    3.6153   -1.3916 H   0  0  0  0  0  0  0  0  0  0  0  0
  1 17  1  0
  2  3  1  0
  2 17  1  0
  3  8  2  0
  3  4  1  0
  4  5  2  0
  5  6  1  0
  5 10  1  0
  6  7  2  0
  7  8  1  0
  7  9  1  0
  9 12  1  6
  9 13  1  0
  9 11  1  0
 10 14  1  6
 10 15  1  0
 10 16  1  0
  1 18  1  0
  1 19  1  0
  1 20  1  0
  2 21  1  0
  2 22  1  0
  4 23  1  0
  6 24  1  0
  8 25  1  0
 17 26  1  0
M  END
