
     RDKit          3D

 36 38  0  0  0  0  0  0  0  0999 V2000
   -1.1605   -0.1839    0.8020 C   0  0  0  0  0  0  0  0  0  0  0  0
   -0.3894    0.6751    0.0630 C   0  0  0  0  0  0  0  0  0  0  0  0
   -0.9750    1.4549   -0.9617 C   0  0  0  0  0  0  0  0  0  0  0  0
   -2.3049    1.3394   -1.2532 C   0  0  0  0  0  0  0  0  0  0  0  0
   -2.5401   -0.3009    0.5370 C   0  0  0  0  0  0  0  0  0  0  0  0
   -3.1180    0.4612   -0.5050 C   0  0  0  0  0  0  0  0  0  0  0  0
   -4.4380    0.3620   -0.7881 N   0  0  0  0  0  0  0  0  0  0  0  0
   -5.1368   -0.4590   -0.0576 C   0  0  0  0  0  0  0  0  0  0  0  0
   -4.5582   -1.2200    0.9885 C   0  0  0  0  0  0  0  0  0  0  0  0
   -3.2918   -1.1453    1.2820 N   0  0  0  0  0  0  0  0  0  0  0  0
    1.0463    0.9212    0.4160 C   0  0  0  0  0  0  0  0  0  0  0  0
    2.5830   -1.5654   -1.3827 C   0  0  0  0  0  0  0  0  0  0  0  0
    1.6430   -1.4118   -0.1926 C   0  0  0  0  0  0  0  0  0  0  0  0
    1.8754   -0.1368    0.4729 N   0  0  0  0  0  0  0  0  0  0  0  0
    3.2471    0.0355    0.9264 C   0  0  0  0  0  0  0  0  0  0  0  0
    4.2414   -0.0558   -0.2281 C   0  0  2  0  0  0  0  0  0  0  0  0
    4.0379   -1.3735   -0.9725 C   0  0  0  0  0  0  0  0  0  0  0  0
    1.3851    2.0676    0.6830 O   0  0  0  0  0  0  0  0  0  0  0  0
    5.6668    0.0963    0.2822 C   0  0  0  0  0  0  0  0  0  0  0  0
   -0.7356   -0.7804    1.6005 H   0  0  0  0  0  0  0  0  0  0  0  0
   -0.3561    2.1397   -1.5261 H   0  0  0  0  0  0  0  0  0  0  0  0
   -2.7567    1.9180   -2.0485 H   0  0  0  0  0  0  0  0  0  0  0  0
   -6.1959   -0.5527   -0.2682 H   0  0  0  0  0  0  0  0  0  0  0  0
   -5.1778   -1.8915    1.5714 H   0  0  0  0  0  0  0  0  0  0  0  0
    2.3100   -0.8314   -2.1473 H   0  0  0  0  0  0  0  0  0  0  0  0
    0.6103   -1.4881   -0.5198 H   0  0  0  0  0  0  0  0  0  0  0  0
    1.8130   -2.2158    0.5295 H   0  0  0  0  0  0  0  0  0  0  0  0
    3.3377    0.9855    1.4481 H   0  0  0  0  0  0  0  0  0  0  0  0
    3.4580   -0.7589    1.6517 H   0  0  0  0  0  0  0  0  0  0  0  0
    4.0280    0.7686   -0.9193 H   0  0  0  0  0  0  0  0  0  0  0  0
    4.3467   -2.2016   -0.3236 H   0  0  0  0  0  0  0  0  0  0  0  0
    4.6876   -1.4099   -1.8507 H   0  0  0  0  0  0  0  0  0  0  0  0
    5.9064   -0.6715    1.0216 H   0  0  0  0  0  0  0  0  0  0  0  0
    6.3846    0.0044   -0.5340 H   0  0  0  0  0  0  0  0  0  0  0  0
    5.8215    1.0691    0.7520 H   0  0  0  0  0  0  0  0  0  0  0  0
    2.4339   -2.5536   -1.8228 H   0  0  0  0  0  0  0  0  0  0  0  0
 19 16  1  0
 16 15  1  0
 16 17  1  0
 15 14  1  0
 17 12  1  0
  8  7  2  0
  8  9  1  0
  7  6  1  0
  9 10  2  0
  6  4  2  0
  6  5  1  0
  4  3  1  0
 10  5  1  0
  5  1  2  0
 14 13  1  0
 14 11  1  0
  3  2  2  0
  1  2  1  0
 12 13  1  0
  2 11  1  0
 11 18  2  0
  1 20  1  0
  3 21  1  0
  4 22  1  0
  8 23  1  0
  9 24  1  0
 12 36  1  0
 12 25  1  0
 13 26  1  0
 13 27  1  0
 15 28  1  0
 15 29  1  0
 16 30  1  6
 17 31  1  0
 17 32  1  0
 19 33  1  0
 19 34  1  0
 19 35  1  0
M  END
