
     RDKit          3D

 48 51  0  0  0  0  0  0  0  0999 V2000
    2.5520   -0.6169    0.8301 O   0  0  0  0  0  0  0  0  0  0  0  0
    2.1859    0.1788   -0.0150 C   0  0  0  0  0  0  0  0  0  0  0  0
    3.0504    1.3467   -0.4649 C   0  0  0  0  0  0  0  0  0  0  0  0
    4.5132    1.0795   -0.2791 C   0  0  0  0  0  0  0  0  0  0  0  0
    5.2428    0.4273   -1.2692 C   0  0  0  0  0  0  0  0  0  0  0  0
    6.5952    0.1608   -1.1096 C   0  0  0  0  0  0  0  0  0  0  0  0
    5.1687    1.4593    0.8872 C   0  0  0  0  0  0  0  0  0  0  0  0
    6.5214    1.2058    1.0678 C   0  0  0  0  0  0  0  0  0  0  0  0
    7.2107    0.5584    0.0616 C   0  0  0  0  0  0  0  0  0  0  0  0
    8.5222    0.3130    0.2245 F   0  0  0  0  0  0  0  0  0  0  0  0
    0.9781    0.1357   -0.6239 N   0  0  0  0  0  0  0  0  0  0  0  0
   -0.0860   -0.7398   -0.3203 C   0  0  0  0  0  0  0  0  0  0  0  0
   -1.3705   -0.2258   -0.3033 C   0  0  0  0  0  0  0  0  0  0  0  0
   -2.4477   -1.0844   -0.0624 C   0  0  0  0  0  0  0  0  0  0  0  0
   -2.1949   -2.4516    0.1816 C   0  0  0  0  0  0  0  0  0  0  0  0
   -0.9031   -2.9721    0.1656 C   0  0  0  0  0  0  0  0  0  0  0  0
    0.1438   -2.1112   -0.0941 C   0  0  0  0  0  0  0  0  0  0  0  0
   -3.8666   -0.8937   -0.0009 C   0  0  0  0  0  0  0  0  0  0  0  0
   -4.3948   -2.1255    0.2755 C   0  0  0  0  0  0  0  0  0  0  0  0
   -3.3989   -3.0552    0.3894 N   0  0  0  0  0  0  0  0  0  0  0  0
   -4.6017    0.3981   -0.1740 C   0  0  1  0  0  0  0  0  0  0  0  0
   -5.8876    0.2484   -0.9892 C   0  0  0  0  0  0  0  0  0  0  0  0
   -6.5957    1.5881   -1.1247 C   0  0  0  0  0  0  0  0  0  0  0  0
   -6.8903    2.1304    0.1900 N   0  0  0  0  0  0  0  0  0  0  0  0
   -5.6770    2.3751    0.9504 C   0  0  0  0  0  0  0  0  0  0  0  0
   -4.9241    1.0704    1.1668 C   0  0  0  0  0  0  0  0  0  0  0  0
    2.8345    1.5961   -1.5061 H   0  0  0  0  0  0  0  0  0  0  0  0
    2.7445    2.2162    0.1252 H   0  0  0  0  0  0  0  0  0  0  0  0
    0.7577    0.8955   -1.2497 H   0  0  0  0  0  0  0  0  0  0  0  0
    4.7530    0.1215   -2.1858 H   0  0  0  0  0  0  0  0  0  0  0  0
    4.6219    1.9709    1.6695 H   0  0  0  0  0  0  0  0  0  0  0  0
    7.1580   -0.3438   -1.8841 H   0  0  0  0  0  0  0  0  0  0  0  0
    7.0283    1.5113    1.9737 H   0  0  0  0  0  0  0  0  0  0  0  0
   -1.5321    0.8319   -0.4806 H   0  0  0  0  0  0  0  0  0  0  0  0
    1.1487   -2.5031   -0.1373 H   0  0  0  0  0  0  0  0  0  0  0  0
   -0.7179   -4.0249    0.3358 H   0  0  0  0  0  0  0  0  0  0  0  0
   -3.5446   -4.0361    0.5571 H   0  0  0  0  0  0  0  0  0  0  0  0
   -5.4246   -2.4197    0.4046 H   0  0  0  0  0  0  0  0  0  0  0  0
   -3.9492    1.0847   -0.7300 H   0  0  0  0  0  0  0  0  0  0  0  0
   -5.6609   -0.1533   -1.9796 H   0  0  0  0  0  0  0  0  0  0  0  0
   -6.5606   -0.4620   -0.4990 H   0  0  0  0  0  0  0  0  0  0  0  0
   -5.5336    0.3916    1.7720 H   0  0  0  0  0  0  0  0  0  0  0  0
   -4.0035    1.2629    1.7235 H   0  0  0  0  0  0  0  0  0  0  0  0
   -5.9578    2.2619   -1.7223 H   0  0  0  0  0  0  0  0  0  0  0  0
   -7.5312    1.4651   -1.6748 H   0  0  0  0  0  0  0  0  0  0  0  0
   -7.4012    2.9974    0.0873 H   0  0  0  0  0  0  0  0  0  0  0  0
   -5.0028    3.0895    0.4465 H   0  0  0  0  0  0  0  0  0  0  0  0
   -5.9453    2.8175    1.9123 H   0  0  0  0  0  0  0  0  0  0  0  0
  1  2  2  0
  2  3  1  0
  2 11  1  0
  3  4  1  0
  4  5  2  0
  4  7  1  0
  5  6  1  0
  6  9  2  0
  7  8  2  0
  8  9  1  0
  9 10  1  0
 11 12  1  0
 12 13  2  0
 12 17  1  0
 13 14  1  0
 14 15  2  0
 14 18  1  0
 15 16  1  0
 15 20  1  0
 16 17  2  0
 18 19  2  0
 18 21  1  0
 19 20  1  0
 21 22  1  0
 21 26  1  0
 22 23  1  0
 23 24  1  0
 24 25  1  0
 25 26  1  0
  3 27  1  0
  3 28  1  0
 11 29  1  0
  5 30  1  0
  7 31  1  0
  6 32  1  0
  8 33  1  0
 13 34  1  0
 17 35  1  0
 16 36  1  0
 20 37  1  0
 19 38  1  0
 21 39  1  6
 22 40  1  0
 22 41  1  0
 26 42  1  0
 26 43  1  0
 23 44  1  0
 23 45  1  0
 24 46  1  0
 25 47  1  0
 25 48  1  0
M  END
