
     RDKit          3D

 58 61  0  0  0  0  0  0  0  0999 V2000
    5.2752    1.1716    1.5951 C   0  0  0  0  0  0  0  0  0  0  0  0
   -4.2165   -0.3401    0.2671 C   0  0  0  0  0  0  0  0  0  0  0  0
   -6.3106   -0.1314   -0.8770 C   0  0  0  0  0  0  0  0  0  0  0  0
   -6.9467    0.2951    0.2846 C   0  0  0  0  0  0  0  0  0  0  0  0
   -6.1842    0.3954    1.4447 C   0  0  0  0  0  0  0  0  0  0  0  0
    3.9101    0.8575   -1.7214 C   0  0  0  0  0  0  0  0  0  0  0  0
    2.7749    2.9151   -2.4582 C   0  0  0  0  0  0  0  0  0  0  0  0
   -0.2196   -1.8427    0.5231 C   0  0  0  0  0  0  0  0  0  0  0  0
   -0.4816   -0.4800    0.6451 C   0  0  0  0  0  0  0  0  0  0  0  0
    0.5913    0.4033    0.7130 C   0  0  0  0  0  0  0  0  0  0  0  0
    1.8985   -0.0387    0.5968 C   0  0  0  0  0  0  0  0  0  0  0  0
    2.1504   -1.4125    0.4611 C   0  0  0  0  0  0  0  0  0  0  0  0
    1.0818   -2.3070    0.4458 C   0  0  0  0  0  0  0  0  0  0  0  0
    2.9818    0.8544    0.6688 N   0  0  0  0  0  0  0  0  0  0  0  0
    4.0913    0.2443    1.3899 C   0  0  1  0  0  0  0  0  0  0  0  0
    4.5107   -1.0814    0.7647 C   0  0  0  0  0  0  0  0  0  0  0  0
    3.4692   -1.8472    0.3171 N   0  0  0  0  0  0  0  0  0  0  0  0
    5.6671   -1.4498    0.6923 O   0  0  0  0  0  0  0  0  0  0  0  0
    3.7288   -3.1708   -0.2209 C   0  0  0  0  0  0  0  0  0  0  0  0
    3.3101    1.6211   -0.5324 C   0  0  2  0  0  0  0  0  0  0  0  0
   -2.8501   -0.6820    0.2526 N   0  0  0  0  0  0  0  0  0  0  0  0
   -2.0549    1.1660    1.2935 O   0  0  0  0  0  0  0  0  0  0  0  0
   -4.9555   -0.4458   -0.9156 C   0  0  0  0  0  0  0  0  0  0  0  0
   -4.8369    0.0739    1.4411 C   0  0  0  0  0  0  0  0  0  0  0  0
    3.7885    1.8350   -2.9041 C   0  0  0  0  0  0  0  0  0  0  0  0
    2.1461    2.3708   -1.1767 C   0  0  0  0  0  0  0  0  0  0  0  0
   -8.4154    0.6053    0.2907 C   0  0  0  0  0  0  0  0  0  0  0  0
    4.9350    2.1197    2.0108 H   0  0  0  0  0  0  0  0  0  0  0  0
    5.9710    0.7293    2.3049 H   0  0  0  0  0  0  0  0  0  0  0  0
    5.8245    1.3720    0.6758 H   0  0  0  0  0  0  0  0  0  0  0  0
   -6.8861   -0.2109   -1.7932 H   0  0  0  0  0  0  0  0  0  0  0  0
   -6.6470    0.7212    2.3685 H   0  0  0  0  0  0  0  0  0  0  0  0
    4.9404    0.5414   -1.5469 H   0  0  0  0  0  0  0  0  0  0  0  0
    3.3214   -0.0441   -1.9136 H   0  0  0  0  0  0  0  0  0  0  0  0
    3.2903    3.8543   -2.2480 H   0  0  0  0  0  0  0  0  0  0  0  0
    2.0277    3.1278   -3.2228 H   0  0  0  0  0  0  0  0  0  0  0  0
   -3.9477   -1.9138   -2.1426 H   0  0  0  0  0  0  0  0  0  0  0  0
   -5.0180   -0.8361   -3.0226 H   0  0  0  0  0  0  0  0  0  0  0  0
   -3.4538   -0.2584   -2.4549 H   0  0  0  0  0  0  0  0  0  0  0  0
   -1.0195   -2.5719    0.5219 H   0  0  0  0  0  0  0  0  0  0  0  0
    0.4141    1.4612    0.8527 H   0  0  0  0  0  0  0  0  0  0  0  0
    1.2514   -3.3724    0.3744 H   0  0  0  0  0  0  0  0  0  0  0  0
    3.0807   -3.3565   -1.0749 H   0  0  0  0  0  0  0  0  0  0  0  0
    4.7598   -3.2290   -0.5516 H   0  0  0  0  0  0  0  0  0  0  0  0
    3.5594   -3.9481    0.5255 H   0  0  0  0  0  0  0  0  0  0  0  0
    4.0285    2.3841   -0.2194 H   0  0  0  0  0  0  0  0  0  0  0  0
   -2.5881   -1.4725   -0.3156 H   0  0  0  0  0  0  0  0  0  0  0  0
   -4.2717    0.1357    2.3607 H   0  0  0  0  0  0  0  0  0  0  0  0
    4.7516    2.2844   -3.1473 H   0  0  0  0  0  0  0  0  0  0  0  0
    3.4518    1.3180   -3.8029 H   0  0  0  0  0  0  0  0  0  0  0  0
    1.7317    3.1490   -0.5335 H   0  0  0  0  0  0  0  0  0  0  0  0
    1.3377    1.6787   -1.4258 H   0  0  0  0  0  0  0  0  0  0  0  0
   -8.9991   -0.2719    0.5785 H   0  0  0  0  0  0  0  0  0  0  0  0
   -8.6547    1.3973    0.9999 H   0  0  0  0  0  0  0  0  0  0  0  0
   -8.7632    0.9159   -0.6941 H   0  0  0  0  0  0  0  0  0  0  0  0
    3.7034   -0.0090    2.3865 H   0  0  0  0  0  0  0  0  0  0  0  0
   -1.8556    0.0825    0.7697 C   0  0  0  0  0  0  0  0  0  0  0  0
   -4.3100   -0.8843   -2.1973 C   0  0  0  0  0  0  0  0  0  0  0  0
  1 15  1  0
 57  9  1  0
 57 21  1  0
 57 22  2  0
  2 21  1  0
  2 23  2  0
  2 24  1  0
  3  4  2  0
  3 23  1  0
  4  5  1  0
  4 27  1  0
  5 24  2  0
  6 20  1  0
  6 25  1  0
  7 25  1  0
  7 26  1  0
 58 23  1  0
  8  9  2  0
  8 13  1  0
  9 10  1  0
 10 11  2  0
 11 12  1  0
 11 14  1  0
 12 13  2  0
 12 17  1  0
 14 15  1  0
 14 20  1  0
 16 17  1  0
 16 18  2  0
 17 19  1  0
 20 26  1  0
  1 28  1  0
  1 29  1  0
  1 30  1  0
  3 31  1  0
  5 32  1  0
  6 33  1  0
  6 34  1  0
  7 35  1  0
  7 36  1  0
 58 37  1  0
 58 38  1  0
 58 39  1  0
  8 40  1  0
 10 41  1  0
 13 42  1  0
 19 43  1  0
 19 44  1  0
 19 45  1  0
 20 46  1  1
 21 47  1  0
 24 48  1  0
 25 49  1  0
 25 50  1  0
 26 51  1  0
 26 52  1  0
 27 53  1  0
 27 54  1  0
 27 55  1  0
 15 16  1  0
 15 56  1  1
M  END
