
     RDKit          3D

 31 32  0  0  0  0  0  0  0  0999 V2000
    1.5917   -0.3259   -0.0614 C   0  0  0  0  0  0  0  0  0  0  0  0
    3.0212   -0.0880   -0.0994 C   0  0  0  0  0  0  0  0  0  0  0  0
    3.4145    1.3696   -0.2032 C   0  0  0  0  0  0  0  0  0  0  0  0
   -0.6070    0.1015   -0.0542 C   0  0  0  0  0  0  0  0  0  0  0  0
    0.9133   -1.5476   -0.0587 C   0  0  0  0  0  0  0  0  0  0  0  0
   -4.2525    0.2413   -0.0211 C   0  0  0  0  0  0  0  0  0  0  0  0
    0.6271    0.7115   -0.0565 C   0  0  0  0  0  0  0  0  0  0  0  0
   -1.9271    0.7022   -0.0582 C   0  0  0  0  0  0  0  0  0  0  0  0
    1.0097    2.1528   -0.0535 C   0  0  0  0  0  0  0  0  0  0  0  0
    2.4293    2.3109    0.4867 C   0  0  0  0  0  0  0  0  0  0  0  0
    1.4255   -2.9401   -0.0595 C   0  0  0  0  0  0  0  0  0  0  0  0
   -5.1455   -0.9703    0.0854 C   0  0  0  0  0  0  0  0  0  0  0  0
   -0.3914   -1.2636   -0.0539 N   0  0  0  0  0  0  0  0  0  0  0  0
    3.8488   -0.9845   -0.0841 O   0  0  0  0  0  0  0  0  0  0  0  0
   -2.1289    1.8957   -0.1013 O   0  0  0  0  0  0  0  0  0  0  0  0
   -2.8904   -0.2124   -0.0118 O   0  0  0  0  0  0  0  0  0  0  0  0
    4.4235    1.4968    0.1925 H   0  0  0  0  0  0  0  0  0  0  0  0
    3.4650    1.6104   -1.2725 H   0  0  0  0  0  0  0  0  0  0  0  0
   -4.4490    0.7885   -0.9454 H   0  0  0  0  0  0  0  0  0  0  0  0
   -4.4186    0.9236    0.8146 H   0  0  0  0  0  0  0  0  0  0  0  0
    0.9604    2.5423   -1.0759 H   0  0  0  0  0  0  0  0  0  0  0  0
    0.3070    2.7446    0.5322 H   0  0  0  0  0  0  0  0  0  0  0  0
    2.4344    2.1155    1.5625 H   0  0  0  0  0  0  0  0  0  0  0  0
    2.7586    3.3421    0.3537 H   0  0  0  0  0  0  0  0  0  0  0  0
    1.9449   -3.1634    0.8727 H   0  0  0  0  0  0  0  0  0  0  0  0
    0.6150   -3.6572   -0.1772 H   0  0  0  0  0  0  0  0  0  0  0  0
    2.1395   -3.0908   -0.8676 H   0  0  0  0  0  0  0  0  0  0  0  0
   -6.1854   -0.6448    0.0769 H   0  0  0  0  0  0  0  0  0  0  0  0
   -5.0018   -1.6511   -0.7534 H   0  0  0  0  0  0  0  0  0  0  0  0
   -4.9744   -1.5166    1.0128 H   0  0  0  0  0  0  0  0  0  0  0  0
   -1.1226   -1.9588   -0.0514 H   0  0  0  0  0  0  0  0  0  0  0  0
 11  5  1  0
 14  2  2  0
  5  1  2  0
  5 13  1  0
  2  1  1  0
  2  3  1  0
  1  7  1  0
 13  4  1  0
  3 10  1  0
  7  4  2  0
  7  9  1  0
  4  8  1  0
 15  8  2  0
  9 10  1  0
  8 16  1  0
 16  6  1  0
  6 12  1  0
  3 17  1  0
  3 18  1  0
  6 19  1  0
  6 20  1  0
  9 21  1  0
  9 22  1  0
 10 23  1  0
 10 24  1  0
 11 25  1  0
 11 26  1  0
 11 27  1  0
 12 28  1  0
 12 29  1  0
 12 30  1  0
 13 31  1  0
M  END
