
     RDKit          3D

 17 18  0  0  0  0  0  0  0  0999 V2000
    0.5426    0.4308   -0.0045 C   0  0  0  0  0  0  0  0  0  0  0  0
   -3.4124    0.5337   -0.0021 Cl  0  0  0  0  0  0  0  0  0  0  0  0
   -1.7707   -0.0268   -0.0075 C   0  0  0  0  0  0  0  0  0  0  0  0
   -1.5251   -1.3904   -0.0198 C   0  0  0  0  0  0  0  0  0  0  0  0
   -0.2069   -1.8468   -0.0243 C   0  0  0  0  0  0  0  0  0  0  0  0
    0.8258   -0.9359   -0.0166 C   0  0  0  0  0  0  0  0  0  0  0  0
    2.3108   -1.1030   -0.0196 C   0  0  0  0  0  0  0  0  0  0  0  0
    2.8253    0.3281   -0.0090 C   0  0  0  0  0  0  0  0  0  0  0  0
    3.9797    0.6965   -0.0086 O   0  0  0  0  0  0  0  0  0  0  0  0
    1.7303    1.1440    0.0005 N   0  0  0  0  0  0  0  0  0  0  0  0
   -0.7497    0.9186    0.0005 C   0  0  0  0  0  0  0  0  0  0  0  0
   -2.3454   -2.0940   -0.0261 H   0  0  0  0  0  0  0  0  0  0  0  0
   -0.0096   -2.9111   -0.0342 H   0  0  0  0  0  0  0  0  0  0  0  0
    2.6886   -1.6396    0.8541 H   0  0  0  0  0  0  0  0  0  0  0  0
    2.6865   -1.6258   -0.9026 H   0  0  0  0  0  0  0  0  0  0  0  0
    1.7920    2.1514    0.0074 H   0  0  0  0  0  0  0  0  0  0  0  0
   -0.9609    1.9791    0.0104 H   0  0  0  0  0  0  0  0  0  0  0  0
  1  6  1  0
  1 10  1  0
  1 11  2  0
  2  3  1  0
  3  4  2  0
  3 11  1  0
  4  5  1  0
  5  6  2  0
  6  7  1  0
  7  8  1  0
  8  9  2  0
  8 10  1  0
  4 12  1  0
  5 13  1  0
  7 14  1  0
  7 15  1  0
 10 16  1  0
 11 17  1  0
M  END
