
     RDKit          3D

 56 59  0  0  0  0  0  0  0  0999 V2000
   -7.3123   -3.2670    0.2582 F   0  0  0  0  0  0  0  0  0  0  0  0
   -6.7262   -2.0604    0.1823 C   0  0  0  0  0  0  0  0  0  0  0  0
   -7.1267   -1.0648    1.0491 C   0  0  0  0  0  0  0  0  0  0  0  0
   -6.5094    0.1769    0.9590 C   0  0  0  0  0  0  0  0  0  0  0  0
   -5.7396   -1.8558   -0.7655 C   0  0  0  0  0  0  0  0  0  0  0  0
   -5.1380   -0.6092   -0.8390 C   0  0  0  0  0  0  0  0  0  0  0  0
   -5.5134    0.4220    0.0212 C   0  0  0  0  0  0  0  0  0  0  0  0
   -4.8387    1.7692   -0.0497 C   0  0  0  0  0  0  0  0  0  0  0  0
   -3.4587    1.7273    0.3828 N   0  0  0  0  0  0  0  0  0  0  0  0
   -2.4084    1.6523   -0.4523 C   0  0  0  0  0  0  0  0  0  0  0  0
   -2.5235    1.6511   -1.6718 O   0  0  0  0  0  0  0  0  0  0  0  0
   -1.0508    1.5701    0.2146 C   0  0  1  0  0  0  0  0  0  0  0  0
   -0.3597    0.2520   -0.1320 C   0  0  0  0  0  0  0  0  0  0  0  0
    1.0471    0.2193    0.4394 C   0  0  0  0  0  0  0  0  0  0  0  0
    1.8515    1.3331   -0.0373 N   0  0  0  0  0  0  0  0  0  0  0  0
    1.2450    2.5940    0.3535 C   0  0  0  0  0  0  0  0  0  0  0  0
   -0.1570    2.7281   -0.2220 C   0  0  0  0  0  0  0  0  0  0  0  0
    3.2385    1.1737    0.3834 C   0  0  2  0  0  0  0  0  0  0  0  0
    4.0858    2.4281    0.1593 C   0  0  0  0  0  0  0  0  0  0  0  0
    3.8928    0.0291   -0.3743 C   0  0  0  0  0  0  0  0  0  0  0  0
    3.5334   -0.2140   -1.6764 C   0  0  0  0  0  0  0  0  0  0  0  0
    4.1585   -1.2157   -2.4430 C   0  0  0  0  0  0  0  0  0  0  0  0
    5.1546   -1.9769   -1.9009 C   0  0  0  0  0  0  0  0  0  0  0  0
    5.5651   -1.7621   -0.5655 C   0  0  0  0  0  0  0  0  0  0  0  0
    4.9338   -0.7499    0.2126 C   0  0  0  0  0  0  0  0  0  0  0  0
    6.6008   -2.5400    0.0050 C   0  0  0  0  0  0  0  0  0  0  0  0
    7.0098   -2.3330    1.2926 C   0  0  0  0  0  0  0  0  0  0  0  0
    6.3919   -1.3321    2.0683 C   0  0  0  0  0  0  0  0  0  0  0  0
    5.3867   -0.5652    1.5444 C   0  0  0  0  0  0  0  0  0  0  0  0
   -7.9012   -1.2482    1.7822 H   0  0  0  0  0  0  0  0  0  0  0  0
   -6.8150    0.9654    1.6358 H   0  0  0  0  0  0  0  0  0  0  0  0
   -5.4494   -2.6541   -1.4363 H   0  0  0  0  0  0  0  0  0  0  0  0
   -4.3688   -0.4411   -1.5825 H   0  0  0  0  0  0  0  0  0  0  0  0
   -4.8657    2.1566   -1.0674 H   0  0  0  0  0  0  0  0  0  0  0  0
   -5.3723    2.4821    0.5800 H   0  0  0  0  0  0  0  0  0  0  0  0
   -3.2902    1.6721    1.3741 H   0  0  0  0  0  0  0  0  0  0  0  0
   -1.1692    1.6189    1.3033 H   0  0  0  0  0  0  0  0  0  0  0  0
   -0.9250   -0.5943    0.2659 H   0  0  0  0  0  0  0  0  0  0  0  0
   -0.3141    0.1321   -1.2171 H   0  0  0  0  0  0  0  0  0  0  0  0
    0.9962    0.2138    1.5434 H   0  0  0  0  0  0  0  0  0  0  0  0
    1.5219   -0.7184    0.1464 H   0  0  0  0  0  0  0  0  0  0  0  0
    1.2062    2.7051    1.4522 H   0  0  0  0  0  0  0  0  0  0  0  0
    1.8412    3.4227   -0.0263 H   0  0  0  0  0  0  0  0  0  0  0  0
   -0.0951    2.7523   -1.3124 H   0  0  0  0  0  0  0  0  0  0  0  0
   -0.5807    3.6822    0.1009 H   0  0  0  0  0  0  0  0  0  0  0  0
    3.2627    0.9532    1.4630 H   0  0  0  0  0  0  0  0  0  0  0  0
    3.9982    2.7780   -0.8708 H   0  0  0  0  0  0  0  0  0  0  0  0
    3.8102    3.2411    0.8305 H   0  0  0  0  0  0  0  0  0  0  0  0
    5.1362    2.2026    0.3439 H   0  0  0  0  0  0  0  0  0  0  0  0
    2.7376    0.3748   -2.1143 H   0  0  0  0  0  0  0  0  0  0  0  0
    3.8429   -1.3770   -3.4657 H   0  0  0  0  0  0  0  0  0  0  0  0
    5.6417   -2.7484   -2.4850 H   0  0  0  0  0  0  0  0  0  0  0  0
    7.0683   -3.3052   -0.6031 H   0  0  0  0  0  0  0  0  0  0  0  0
    7.8041   -2.9322    1.7184 H   0  0  0  0  0  0  0  0  0  0  0  0
    6.7150   -1.1685    3.0881 H   0  0  0  0  0  0  0  0  0  0  0  0
    4.9380    0.1926    2.1714 H   0  0  0  0  0  0  0  0  0  0  0  0
 27 28  2  0
 27 26  1  0
 28 29  1  0
 26 24  2  0
  1  2  1  0
  2  5  2  0
  2  3  1  0
 29 25  2  0
  5  6  1  0
 24 25  1  0
 24 23  1  0
  3  4  2  0
 25 20  1  0
 23 22  2  0
  6  7  2  0
  4  7  1  0
  7  8  1  0
 20 18  1  0
 20 21  2  0
 22 21  1  0
  9  8  1  0
  9 10  1  0
 14 13  1  0
 14 15  1  0
 18 15  1  0
 18 19  1  0
 13 12  1  0
 12 10  1  0
 12 17  1  0
 15 16  1  0
 10 11  2  0
 16 17  1  0
  3 30  1  0
  4 31  1  0
  5 32  1  0
  6 33  1  0
  8 34  1  0
  8 35  1  0
  9 36  1  0
 12 37  1  1
 13 38  1  0
 13 39  1  0
 14 40  1  0
 14 41  1  0
 16 42  1  0
 16 43  1  0
 17 44  1  0
 17 45  1  0
 18 46  1  1
 19 47  1  0
 19 48  1  0
 19 49  1  0
 21 50  1  0
 22 51  1  0
 23 52  1  0
 26 53  1  0
 27 54  1  0
 28 55  1  0
 29 56  1  0
M  END
