
     RDKit          3D

 33 35  0  0  0  0  0  0  0  0999 V2000
    5.0645   -2.1304    0.8202 O   0  0  0  0  0  0  0  0  0  0  0  0
    5.2163   -0.8887    0.0762 S   0  0  1  0  0  0  0  0  0  0  0  0
    6.2293    0.0641    0.5081 O   0  0  0  0  0  0  0  0  0  0  0  0
    5.3808   -1.3269   -1.5061 N   0  0  0  0  0  0  0  0  0  0  0  0
    3.6636   -0.0405    0.0407 C   0  0  0  0  0  0  0  0  0  0  0  0
    2.4930   -0.7845   -0.0290 C   0  0  0  0  0  0  0  0  0  0  0  0
    1.2737   -0.1352   -0.0398 C   0  0  0  0  0  0  0  0  0  0  0  0
    1.2142    1.2616    0.0166 C   0  0  0  0  0  0  0  0  0  0  0  0
    2.4040    1.9897    0.0855 C   0  0  0  0  0  0  0  0  0  0  0  0
    3.6272    1.3450    0.1011 C   0  0  0  0  0  0  0  0  0  0  0  0
   -0.0550    1.9594    0.0085 C   0  0  0  0  0  0  0  0  0  0  0  0
   -1.1769    1.2171   -0.0003 O   0  0  0  0  0  0  0  0  0  0  0  0
   -0.3857    3.2877    0.0069 C   0  0  0  0  0  0  0  0  0  0  0  0
   -1.7940    3.3495   -0.0028 C   0  0  0  0  0  0  0  0  0  0  0  0
   -2.2380    2.0542   -0.0061 C   0  0  0  0  0  0  0  0  0  0  0  0
   -3.5479    1.5067   -0.0097 C   0  0  0  0  0  0  0  0  0  0  0  0
   -3.8749    0.2027   -0.0054 C   0  0  0  0  0  0  0  0  0  0  0  0
   -2.7833   -1.1677    0.0038 S   0  0  0  0  0  0  0  0  0  0  0  0
   -4.1444   -2.3090    0.0065 C   0  0  0  0  0  0  0  0  0  0  0  0
   -5.3249   -1.6186   -0.0004 N   0  0  0  0  0  0  0  0  0  0  0  0
   -5.2821   -0.2438   -0.0063 C   0  0  0  0  0  0  0  0  0  0  0  0
   -6.2568    0.4699   -0.0116 O   0  0  0  0  0  0  0  0  0  0  0  0
   -4.0147   -3.5017    0.0136 O   0  0  0  0  0  0  0  0  0  0  0  0
    5.6731   -0.5584   -2.1012 H   0  0  0  0  0  0  0  0  0  0  0  0
    6.0113   -2.1162   -1.6123 H   0  0  0  0  0  0  0  0  0  0  0  0
    4.5356    1.9275    0.1645 H   0  0  0  0  0  0  0  0  0  0  0  0
    2.5200   -1.8648   -0.0721 H   0  0  0  0  0  0  0  0  0  0  0  0
    2.3841    3.0701    0.1343 H   0  0  0  0  0  0  0  0  0  0  0  0
    0.3721   -0.7295   -0.0931 H   0  0  0  0  0  0  0  0  0  0  0  0
    0.2974    4.1210    0.0099 H   0  0  0  0  0  0  0  0  0  0  0  0
   -2.4142    4.2311   -0.0068 H   0  0  0  0  0  0  0  0  0  0  0  0
   -4.3554    2.2293   -0.0140 H   0  0  0  0  0  0  0  0  0  0  0  0
   -6.2062   -2.1184   -0.0005 H   0  0  0  0  0  0  0  0  0  0  0  0
  2  1  2  0
  3  2  2  0
  2  4  1  6
  2  5  1  0
  5  6  2  0
  7  6  1  0
  8  7  2  0
  9  8  1  0
 10  9  2  0
  5 10  1  0
  8 11  1  0
 11 12  1  0
 11 13  2  0
 13 14  1  0
 12 15  1  0
 14 15  2  0
 15 16  1  0
 16 17  2  0
 17 18  1  0
 18 19  1  0
 19 20  1  0
 17 21  1  0
 20 21  1  0
 21 22  2  0
 19 23  2  0
  4 24  1  0
  4 25  1  0
 10 26  1  0
  6 27  1  0
  9 28  1  0
  7 29  1  0
 13 30  1  0
 14 31  1  0
 16 32  1  0
 20 33  1  0
M  END
