
     RDKit          3D

 44 47  0  0  0  0  0  0  0  0999 V2000
    6.5571    0.5254    0.4786 C   0  0  0  0  0  0  0  0  0  0  0  0
    7.7965   -0.0110    0.1573 C   0  0  0  0  0  0  0  0  0  0  0  0
    7.9231   -1.3715   -0.0932 C   0  0  0  0  0  0  0  0  0  0  0  0
    6.8030   -2.1889   -0.0177 C   0  0  0  0  0  0  0  0  0  0  0  0
    5.5656   -1.6468    0.3036 C   0  0  0  0  0  0  0  0  0  0  0  0
    5.4285   -0.2853    0.5549 C   0  0  0  0  0  0  0  0  0  0  0  0
    4.0911    0.2978    0.9015 C   0  0  0  0  0  0  0  0  0  0  0  0
    3.3503    0.7951   -0.3340 C   0  0  0  0  0  0  0  0  0  0  0  0
    3.8499    0.6929   -1.4444 O   0  0  0  0  0  0  0  0  0  0  0  0
    2.1374    1.3584   -0.1360 N   0  0  0  0  0  0  0  0  0  0  0  0
    1.3233    1.7881   -1.2591 C   0  0  0  0  0  0  0  0  0  0  0  0
    0.0785    0.9195   -1.3875 C   0  0  0  0  0  0  0  0  0  0  0  0
    1.4341    1.4143    1.1319 C   0  0  0  0  0  0  0  0  0  0  0  0
    0.1930    0.5300    1.0986 C   0  0  0  0  0  0  0  0  0  0  0  0
   -0.7098    0.9423   -0.0715 C   0  0  2  0  0  0  0  0  0  0  0  0
   -1.9376    0.1114   -0.1357 C   0  0  0  0  0  0  0  0  0  0  0  0
   -3.1617    0.4809    0.0435 N   0  0  0  0  0  0  0  0  0  0  0  0
   -1.8374   -1.1852   -0.3951 O   0  0  0  0  0  0  0  0  0  0  0  0
   -3.1022   -1.7108   -0.3843 N   0  0  0  0  0  0  0  0  0  0  0  0
   -3.8552   -0.6842   -0.1193 C   0  0  0  0  0  0  0  0  0  0  0  0
   -5.2932   -0.7457   -0.0009 C   0  0  0  0  0  0  0  0  0  0  0  0
   -6.1232   -1.8238   -0.1415 C   0  0  0  0  0  0  0  0  0  0  0  0
   -7.4838   -1.4852    0.0513 C   0  0  0  0  0  0  0  0  0  0  0  0
   -7.6569   -0.1618    0.3341 C   0  0  0  0  0  0  0  0  0  0  0  0
   -6.1749    0.6855    0.3683 S   0  0  0  0  0  0  0  0  0  0  0  0
    6.4674    1.5872    0.6763 H   0  0  0  0  0  0  0  0  0  0  0  0
    8.6643    0.6340    0.1058 H   0  0  0  0  0  0  0  0  0  0  0  0
    8.8889   -1.7923   -0.3414 H   0  0  0  0  0  0  0  0  0  0  0  0
    6.8928   -3.2513   -0.2051 H   0  0  0  0  0  0  0  0  0  0  0  0
    4.6976   -2.2929    0.3644 H   0  0  0  0  0  0  0  0  0  0  0  0
    3.4794   -0.4501    1.4135 H   0  0  0  0  0  0  0  0  0  0  0  0
    4.2146    1.1226    1.6086 H   0  0  0  0  0  0  0  0  0  0  0  0
    1.0310    2.8314   -1.1011 H   0  0  0  0  0  0  0  0  0  0  0  0
    1.9111    1.7489   -2.1715 H   0  0  0  0  0  0  0  0  0  0  0  0
   -0.5382    1.2966   -2.2053 H   0  0  0  0  0  0  0  0  0  0  0  0
    0.3742   -0.1020   -1.6390 H   0  0  0  0  0  0  0  0  0  0  0  0
    2.0794    1.1164    1.9525 H   0  0  0  0  0  0  0  0  0  0  0  0
    1.1433    2.4522    1.3224 H   0  0  0  0  0  0  0  0  0  0  0  0
    0.4984   -0.5148    0.9960 H   0  0  0  0  0  0  0  0  0  0  0  0
   -0.3431    0.6253    2.0445 H   0  0  0  0  0  0  0  0  0  0  0  0
   -1.0592    1.9638    0.1068 H   0  0  0  0  0  0  0  0  0  0  0  0
   -5.7737   -2.8195   -0.3745 H   0  0  0  0  0  0  0  0  0  0  0  0
   -8.2973   -2.1920   -0.0177 H   0  0  0  0  0  0  0  0  0  0  0  0
   -8.5825    0.3586    0.5263 H   0  0  0  0  0  0  0  0  0  0  0  0
  2  1  2  0
  1  6  1  0
  1 26  1  0
  2  3  1  0
  2 27  1  0
  3  4  2  0
  3 28  1  0
  4  5  1  0
  4 29  1  0
  6  5  2  0
  5 30  1  0
  6  7  1  0
  8  7  1  0
  7 31  1  0
  7 32  1  0
  9  8  2  0
  8 10  1  0
 13 10  1  0
 10 11  1  0
 11 12  1  0
 11 33  1  0
 11 34  1  0
 15 12  1  0
 12 35  1  0
 12 36  1  0
 13 14  1  0
 13 37  1  0
 13 38  1  0
 14 15  1  0
 14 39  1  0
 14 40  1  0
 15 16  1  0
 15 41  1  1
 17 16  2  0
 16 18  1  0
 17 20  1  0
 18 19  1  0
 20 19  2  0
 21 20  1  0
 22 21  2  0
 21 25  1  0
 23 22  1  0
 22 42  1  0
 23 24  2  0
 23 43  1  0
 24 25  1  0
 24 44  1  0
M  END
