
     RDKit          3D

 96100  0  0  0  0  0  0  0  0999 V2000
    3.9096   -1.5940    0.7826 O   0  0  0  0  0  0  0  0  0  0  0  0
    4.1610   -0.5036    1.2685 C   0  0  0  0  0  0  0  0  0  0  0  0
    5.3990    0.0922    1.1502 N   0  0  0  0  0  0  0  0  0  0  0  0
    6.4857   -0.4934    0.5389 C   0  0  0  0  0  0  0  0  0  0  0  0
    7.5747    0.2522    0.2157 N   0  0  0  0  0  0  0  0  0  0  0  0
    7.7768    1.6353    0.4085 C   0  0  0  0  0  0  0  0  0  0  0  0
    6.8474    2.5576   -0.0605 C   0  0  0  0  0  0  0  0  0  0  0  0
    7.0591    3.9121    0.1453 C   0  0  0  0  0  0  0  0  0  0  0  0
    8.2008    4.3764    0.7948 C   0  0  0  0  0  0  0  0  0  0  0  0
    8.4093    5.8437    1.0271 C   0  0  0  0  0  0  0  0  0  0  0  0
    9.1313    3.4364    1.2330 C   0  0  0  0  0  0  0  0  0  0  0  0
    8.9245    2.0777    1.0535 C   0  0  0  0  0  0  0  0  0  0  0  0
    8.5664   -0.5067   -0.2906 N   0  0  0  0  0  0  0  0  0  0  0  0
    8.0963   -1.7330   -0.3203 C   0  0  0  0  0  0  0  0  0  0  0  0
    8.9054   -2.8870   -0.8511 C   0  0  1  0  0  0  0  0  0  0  0  0
    8.9384   -4.0004    0.2020 C   0  0  0  0  0  0  0  0  0  0  0  0
    8.2419   -3.4197   -2.1272 C   0  0  0  0  0  0  0  0  0  0  0  0
   10.3357   -2.4559   -1.1710 C   0  0  0  0  0  0  0  0  0  0  0  0
    6.7802   -1.7914    0.1909 C   0  0  0  0  0  0  0  0  0  0  0  0
    3.2730    0.2258    1.9775 N   0  0  0  0  0  0  0  0  0  0  0  0
    1.8984   -0.1839    2.1431 C   0  0  0  0  0  0  0  0  0  0  0  0
    1.0201    0.2241    0.9617 C   0  0  0  0  0  0  0  0  0  0  0  0
   -0.3674   -0.1351    1.1792 N   0  0  0  0  0  0  0  0  0  0  0  0
   -1.2739    0.6473    0.3668 C   0  0  0  0  0  0  0  0  0  0  0  0
   -2.7163    0.3499    0.7299 C   0  0  0  0  0  0  0  0  0  0  0  0
   -0.6250   -1.5445    0.9567 C   0  0  0  0  0  0  0  0  0  0  0  0
   -2.0471   -1.9044    1.3395 C   0  0  0  0  0  0  0  0  0  0  0  0
   -2.9975   -1.0756    0.6129 N   0  0  0  0  0  0  0  0  0  0  0  0
   -4.2514   -1.5825    0.4291 C   0  0  0  0  0  0  0  0  0  0  0  0
   -4.5785   -2.7019    0.7876 O   0  0  0  0  0  0  0  0  0  0  0  0
   -5.1353   -0.7530   -0.2207 N   0  0  0  0  0  0  0  0  0  0  0  0
   -6.4741   -1.0356   -0.3971 C   0  0  0  0  0  0  0  0  0  0  0  0
   -7.2091   -2.1976   -0.3819 C   0  0  0  0  0  0  0  0  0  0  0  0
   -8.5281   -1.7883   -0.6844 C   0  0  0  0  0  0  0  0  0  0  0  0
   -9.7444   -2.6704   -0.7868 C   0  0  1  0  0  0  0  0  0  0  0  0
  -10.9983   -1.8458   -1.0740 C   0  0  0  0  0  0  0  0  0  0  0  0
   -9.5353   -3.6831   -1.9188 C   0  0  0  0  0  0  0  0  0  0  0  0
   -9.9265   -3.4237    0.5366 C   0  0  0  0  0  0  0  0  0  0  0  0
   -8.5917   -0.4900   -0.8760 N   0  0  0  0  0  0  0  0  0  0  0  0
   -7.3423   -0.0298   -0.6827 N   0  0  0  0  0  0  0  0  0  0  0  0
   -7.0707    1.3485   -0.8172 C   0  0  0  0  0  0  0  0  0  0  0  0
   -7.5189    2.0294   -1.9437 C   0  0  0  0  0  0  0  0  0  0  0  0
   -6.3797    2.0323    0.1751 C   0  0  0  0  0  0  0  0  0  0  0  0
   -6.1194    3.3873    0.0230 C   0  0  0  0  0  0  0  0  0  0  0  0
   -6.5592    4.0872   -1.0961 C   0  0  0  0  0  0  0  0  0  0  0  0
   -6.2734    5.5503   -1.2627 C   0  0  0  0  0  0  0  0  0  0  0  0
   -7.2707    3.3853   -2.0697 C   0  0  0  0  0  0  0  0  0  0  0  0
    5.5546    0.9800    1.6046 H   0  0  0  0  0  0  0  0  0  0  0  0
    5.9682    2.2287   -0.5998 H   0  0  0  0  0  0  0  0  0  0  0  0
    6.3259    4.6189   -0.2237 H   0  0  0  0  0  0  0  0  0  0  0  0
    7.7991    6.1960    1.8611 H   0  0  0  0  0  0  0  0  0  0  0  0
    9.4480    6.0680    1.2650 H   0  0  0  0  0  0  0  0  0  0  0  0
    8.1267    6.4308    0.1532 H   0  0  0  0  0  0  0  0  0  0  0  0
   10.0338    3.7688    1.7315 H   0  0  0  0  0  0  0  0  0  0  0  0
    9.6546    1.3629    1.4095 H   0  0  0  0  0  0  0  0  0  0  0  0
    7.9361   -4.3494    0.4547 H   0  0  0  0  0  0  0  0  0  0  0  0
    9.5019   -4.8587   -0.1700 H   0  0  0  0  0  0  0  0  0  0  0  0
    9.4157   -3.6603    1.1227 H   0  0  0  0  0  0  0  0  0  0  0  0
    8.2148   -2.6569   -2.9073 H   0  0  0  0  0  0  0  0  0  0  0  0
    8.8005   -4.2756   -2.5118 H   0  0  0  0  0  0  0  0  0  0  0  0
    7.2172   -3.7469   -1.9434 H   0  0  0  0  0  0  0  0  0  0  0  0
   10.8526   -2.0818   -0.2862 H   0  0  0  0  0  0  0  0  0  0  0  0
   10.9007   -3.3093   -1.5509 H   0  0  0  0  0  0  0  0  0  0  0  0
   10.3649   -1.6728   -1.9292 H   0  0  0  0  0  0  0  0  0  0  0  0
    6.1540   -2.6571    0.3051 H   0  0  0  0  0  0  0  0  0  0  0  0
    3.5179    1.1511    2.2901 H   0  0  0  0  0  0  0  0  0  0  0  0
    1.8685   -1.2606    2.3084 H   0  0  0  0  0  0  0  0  0  0  0  0
    1.5178    0.2862    3.0497 H   0  0  0  0  0  0  0  0  0  0  0  0
    1.0816    1.3099    0.8543 H   0  0  0  0  0  0  0  0  0  0  0  0
    1.4186   -0.2079    0.0298 H   0  0  0  0  0  0  0  0  0  0  0  0
   -1.0964    1.7096    0.5437 H   0  0  0  0  0  0  0  0  0  0  0  0
   -1.1285    0.4649   -0.7112 H   0  0  0  0  0  0  0  0  0  0  0  0
   -2.9150    0.6874    1.7538 H   0  0  0  0  0  0  0  0  0  0  0  0
   -3.3410    0.9446    0.0667 H   0  0  0  0  0  0  0  0  0  0  0  0
   -0.4454   -1.8268   -0.0948 H   0  0  0  0  0  0  0  0  0  0  0  0
    0.0448   -2.1495    1.5691 H   0  0  0  0  0  0  0  0  0  0  0  0
   -2.2203   -2.9513    1.1041 H   0  0  0  0  0  0  0  0  0  0  0  0
   -2.1788   -1.7783    2.4208 H   0  0  0  0  0  0  0  0  0  0  0  0
   -4.7922    0.0767   -0.6774 H   0  0  0  0  0  0  0  0  0  0  0  0
   -6.8525   -3.1946   -0.1986 H   0  0  0  0  0  0  0  0  0  0  0  0
  -11.1849   -1.1094   -0.2915 H   0  0  0  0  0  0  0  0  0  0  0  0
  -10.9250   -1.3124   -2.0225 H   0  0  0  0  0  0  0  0  0  0  0  0
  -11.8681   -2.5030   -1.1293 H   0  0  0  0  0  0  0  0  0  0  0  0
  -10.3966   -4.3503   -1.9943 H   0  0  0  0  0  0  0  0  0  0  0  0
   -9.4148   -3.1815   -2.8805 H   0  0  0  0  0  0  0  0  0  0  0  0
   -8.6524   -4.3020   -1.7501 H   0  0  0  0  0  0  0  0  0  0  0  0
  -10.0577   -2.7327    1.3711 H   0  0  0  0  0  0  0  0  0  0  0  0
  -10.8086   -4.0654    0.4891 H   0  0  0  0  0  0  0  0  0  0  0  0
   -9.0685   -4.0600    0.7607 H   0  0  0  0  0  0  0  0  0  0  0  0
   -8.0623    1.4993   -2.7146 H   0  0  0  0  0  0  0  0  0  0  0  0
   -6.0603    1.5221    1.0749 H   0  0  0  0  0  0  0  0  0  0  0  0
   -5.5799    3.9079    0.8046 H   0  0  0  0  0  0  0  0  0  0  0  0
   -5.5003    5.7145   -2.0159 H   0  0  0  0  0  0  0  0  0  0  0  0
   -7.1603    6.0937   -1.5896 H   0  0  0  0  0  0  0  0  0  0  0  0
   -5.9270    5.9989   -0.3327 H   0  0  0  0  0  0  0  0  0  0  0  0
   -7.6335    3.9067   -2.9474 H   0  0  0  0  0  0  0  0  0  0  0  0
 35 37  1  6
 36 35  1  0
 35 38  1  0
 35 34  1  0
 39 34  2  0
 39 40  1  0
 34 33  1  0
 43 44  2  0
 43 41  1  0
 44 45  1  0
 40 41  1  0
 40 32  1  0
 41 42  2  0
 45 46  1  0
 45 47  2  0
 33 32  2  0
 42 47  1  0
 32 31  1  0
 30 29  2  0
 31 29  1  0
 29 28  1  0
 28 25  1  0
 28 27  1  0
 25 24  1  0
 24 23  1  0
 27 26  1  0
 26 23  1  0
 23 22  1  0
 22 21  1  0
 21 20  1  0
 20  2  1  0
  1  2  2  0
  2  3  1  0
  3  4  1  0
  7  8  2  0
  7  6  1  0
  8  9  1  0
  4 19  2  0
  4  5  1  0
 19 14  1  0
  5  6  1  0
  5 13  1  0
  6 12  2  0
 15 16  1  1
  9 10  1  0
  9 11  2  0
 14 13  2  0
 14 15  1  0
 15 17  1  0
 15 18  1  0
 12 11  1  0
  3 48  1  0
  7 49  1  0
  8 50  1  0
 10 51  1  0
 10 52  1  0
 10 53  1  0
 11 54  1  0
 12 55  1  0
 16 56  1  0
 16 57  1  0
 16 58  1  0
 17 59  1  0
 17 60  1  0
 17 61  1  0
 18 62  1  0
 18 63  1  0
 18 64  1  0
 19 65  1  0
 20 66  1  0
 21 67  1  0
 21 68  1  0
 22 69  1  0
 22 70  1  0
 24 71  1  0
 24 72  1  0
 25 73  1  0
 25 74  1  0
 26 75  1  0
 26 76  1  0
 27 77  1  0
 27 78  1  0
 31 79  1  0
 33 80  1  0
 36 81  1  0
 36 82  1  0
 36 83  1  0
 37 84  1  0
 37 85  1  0
 37 86  1  0
 38 87  1  0
 38 88  1  0
 38 89  1  0
 42 90  1  0
 43 91  1  0
 44 92  1  0
 46 93  1  0
 46 94  1  0
 46 95  1  0
 47 96  1  0
M  END
