
     RDKit          3D

 49 51  0  0  0  0  0  0  0  0999 V2000
    2.2220   -2.5310   -1.1556 C   0  0  0  0  0  0  0  0  0  0  0  0
    2.8229   -2.1170    0.1830 C   0  0  1  0  0  0  0  0  0  0  0  0
    3.8800   -3.1105    0.6390 C   0  0  0  0  0  0  0  0  0  0  0  0
    3.5242    1.4793   -0.1057 C   0  0  0  0  0  0  0  0  0  0  0  0
    1.8642    2.9563    0.0376 C   0  0  0  0  0  0  0  0  0  0  0  0
    1.2643    0.7477    0.3030 C   0  0  0  0  0  0  0  0  0  0  0  0
   -1.1283    0.1789    0.5535 C   0  0  2  0  0  0  0  0  0  0  0  0
   -1.8884   -0.8999    1.3165 C   0  0  0  0  0  0  0  0  0  0  0  0
   -3.3884   -0.6258    1.3188 C   0  0  0  0  0  0  0  0  0  0  0  0
   -3.1829    0.6036   -0.8517 C   0  0  0  0  0  0  0  0  0  0  0  0
   -1.6817    0.3374   -0.8620 C   0  0  0  0  0  0  0  0  0  0  0  0
   -5.9614   -0.7026   -1.4076 C   0  0  0  0  0  0  0  0  0  0  0  0
    2.6285    0.4203    0.1215 C   0  0  0  0  0  0  0  0  0  0  0  0
    3.3513   -0.7533    0.1143 N   0  0  0  0  0  0  0  0  0  0  0  0
    4.6528   -0.4382   -0.1308 C   0  0  0  0  0  0  0  0  0  0  0  0
    4.8124    0.9141   -0.2648 C   0  0  0  0  0  0  0  0  0  0  0  0
    3.1478    2.7744   -0.1458 N   0  0  0  0  0  0  0  0  0  0  0  0
    0.9245    2.0334    0.2485 N   0  0  0  0  0  0  0  0  0  0  0  0
   -3.9340   -0.5032   -0.1028 C   0  0  2  0  0  0  0  0  0  0  0  0
   -5.3888   -0.3979   -0.1152 N   0  0  0  0  0  0  0  0  0  0  0  0
   -5.9151    0.8470    0.4024 C   0  0  0  0  0  0  0  0  0  0  0  0
    2.9941   -2.5594   -1.9256 H   0  0  0  0  0  0  0  0  0  0  0  0
    1.7837   -3.5259   -1.0779 H   0  0  0  0  0  0  0  0  0  0  0  0
    1.4405   -1.8488   -1.4941 H   0  0  0  0  0  0  0  0  0  0  0  0
    2.0546   -2.1194    0.9584 H   0  0  0  0  0  0  0  0  0  0  0  0
    4.6634   -3.2517   -0.1058 H   0  0  0  0  0  0  0  0  0  0  0  0
    4.3389   -2.8098    1.5805 H   0  0  0  0  0  0  0  0  0  0  0  0
    3.4017   -4.0768    0.7924 H   0  0  0  0  0  0  0  0  0  0  0  0
    1.5074    3.9817    0.0135 H   0  0  0  0  0  0  0  0  0  0  0  0
   -1.2431    1.1271    1.0842 H   0  0  0  0  0  0  0  0  0  0  0  0
   -1.6991   -1.8761    0.8534 H   0  0  0  0  0  0  0  0  0  0  0  0
   -1.5166   -0.9595    2.3420 H   0  0  0  0  0  0  0  0  0  0  0  0
   -3.9122   -1.4291    1.8418 H   0  0  0  0  0  0  0  0  0  0  0  0
   -3.5784    0.2934    1.8822 H   0  0  0  0  0  0  0  0  0  0  0  0
   -3.3796    1.5715   -0.3781 H   0  0  0  0  0  0  0  0  0  0  0  0
   -3.5419    0.6846   -1.8810 H   0  0  0  0  0  0  0  0  0  0  0  0
   -1.1558    1.1470   -1.3728 H   0  0  0  0  0  0  0  0  0  0  0  0
   -1.4746   -0.5792   -1.4259 H   0  0  0  0  0  0  0  0  0  0  0  0
   -5.6007   -1.6703   -1.7606 H   0  0  0  0  0  0  0  0  0  0  0  0
   -7.0482   -0.7663   -1.3235 H   0  0  0  0  0  0  0  0  0  0  0  0
   -5.7401    0.0426   -2.1870 H   0  0  0  0  0  0  0  0  0  0  0  0
    5.4043   -1.2073   -0.1926 H   0  0  0  0  0  0  0  0  0  0  0  0
    5.7380    1.4344   -0.4505 H   0  0  0  0  0  0  0  0  0  0  0  0
    0.5031   -1.1268    0.4636 H   0  0  0  0  0  0  0  0  0  0  0  0
   -3.7012   -1.4507   -0.6060 H   0  0  0  0  0  0  0  0  0  0  0  0
   -5.7007    1.7208   -0.2304 H   0  0  0  0  0  0  0  0  0  0  0  0
   -7.0004    0.7715    0.4927 H   0  0  0  0  0  0  0  0  0  0  0  0
   -5.5241    1.0532    1.3986 H   0  0  0  0  0  0  0  0  0  0  0  0
    0.2871   -0.1496    0.5492 N   0  0  0  0  0  0  0  0  0  0  0  0
 21 20  1  0
 20 19  1  0
 20 12  1  0
 19  9  1  0
 19 10  1  0
  9  8  1  0
  8  7  1  0
  1  2  1  0
  3  2  1  0
 10 11  1  0
  2 14  1  0
 11  7  1  0
  7 49  1  0
 49  6  1  0
 14 13  1  0
 14 15  1  0
  6 13  2  0
  6 18  1  0
 13  4  1  0
 15 16  2  0
 18  5  2  0
  4 16  1  0
  4 17  2  0
  5 17  1  0
  1 22  1  0
  1 23  1  0
  1 24  1  0
  2 25  1  1
  3 26  1  0
  3 27  1  0
  3 28  1  0
  5 29  1  0
  7 30  1  1
  8 31  1  0
  8 32  1  0
  9 33  1  0
  9 34  1  0
 10 35  1  0
 10 36  1  0
 11 37  1  0
 11 38  1  0
 12 39  1  0
 12 40  1  0
 12 41  1  0
 15 42  1  0
 16 43  1  0
 49 44  1  0
 19 45  1  6
 21 46  1  0
 21 47  1  0
 21 48  1  0
M  END
