
     RDKit          3D

 22 22  0  0  0  0  0  0  0  0999 V2000
   -3.8965    2.4135    1.2619 C   0  0  0  0  0  0  0  0  0  0  0  0
   -2.5830    1.9560   -0.7028 O   0  0  0  0  0  0  0  0  0  0  0  0
   -2.7243   -2.2024    0.4131 O   0  0  0  0  0  0  0  0  0  0  0  0
   -2.8737   -0.8610   -1.7044 O   0  0  0  0  0  0  0  0  0  0  0  0
    1.2673    0.2952   -1.1504 C   0  0  0  0  0  0  0  0  0  0  0  0
    1.3004   -0.7217    1.0480 C   0  0  0  0  0  0  0  0  0  0  0  0
   -0.0892    0.0293   -1.2530 C   0  0  0  0  0  0  0  0  0  0  0  0
   -0.0533   -0.9906    0.9418 C   0  0  0  0  0  0  0  0  0  0  0  0
   -3.1984    0.2083    0.5881 N   0  0  0  0  0  0  0  0  0  0  0  0
   -3.1666    1.5512    0.2753 C   0  0  0  0  0  0  0  0  0  0  0  0
    1.9475   -0.0810   -0.0010 C   0  0  0  0  0  0  0  0  0  0  0  0
   -0.7351   -0.6100   -0.2065 C   0  0  0  0  0  0  0  0  0  0  0  0
   -2.4576   -0.9819   -0.3243 S   0  0  1  0  0  0  0  0  0  0  0  0
   -3.9230    3.4418    0.9126 H   0  0  0  0  0  0  0  0  0  0  0  0
   -4.9160    2.0575    1.4106 H   0  0  0  0  0  0  0  0  0  0  0  0
   -3.3937    2.3813    2.2298 H   0  0  0  0  0  0  0  0  0  0  0  0
    1.7754    0.7905   -1.9658 H   0  0  0  0  0  0  0  0  0  0  0  0
    1.8344   -1.0192    1.9397 H   0  0  0  0  0  0  0  0  0  0  0  0
   -0.6203    0.3200   -2.1475 H   0  0  0  0  0  0  0  0  0  0  0  0
   -0.5567   -1.4941    1.7558 H   0  0  0  0  0  0  0  0  0  0  0  0
   -3.6342   -0.1086    1.4463 H   0  0  0  0  0  0  0  0  0  0  0  0
    3.7880    0.2796    0.1392 Br  0  0  0  0  0  0  0  0  0  0  0  0
  1 10  1  0
  1 14  1  0
  1 15  1  0
  1 16  1  0
  2 10  2  0
 13  3  2  0
 13  4  2  0
 11 22  1  0
 11  5  2  0
  7  5  1  0
  5 17  1  0
  8  6  2  0
  6 11  1  0
  6 18  1  0
 12  7  2  0
  7 19  1  0
  8 12  1  0
  8 20  1  0
 10  9  1  0
 13  9  1  1
  9 21  1  0
 13 12  1  0
M  END
