
     RDKit          3D

 35 36  0  0  0  0  0  0  0  0999 V2000
   -1.1221    0.9142   -0.3685 C   0  0  0  0  0  0  0  0  0  0  0  0
   -1.9210    0.1093   -1.1613 C   0  0  0  0  0  0  0  0  0  0  0  0
   -3.0249   -0.5587   -0.5633 C   0  0  0  0  0  0  0  0  0  0  0  0
   -0.3913    0.8188   -2.4242 C   0  0  0  0  0  0  0  0  0  0  0  0
   -3.8235   -1.3294   -1.0762 O   0  0  0  0  0  0  0  0  0  0  0  0
   -1.4495    0.0689   -2.4468 N   0  0  0  0  0  0  0  0  0  0  0  0
   -3.1278   -0.2282    0.7902 N   0  0  0  0  0  0  0  0  0  0  0  0
   -2.2958    0.6097    1.4755 C   0  0  0  0  0  0  0  0  0  0  0  0
   -2.5474    0.7679    2.7897 N   0  0  0  0  0  0  0  0  0  0  0  0
   -1.2848    1.2232    0.9246 N   0  0  0  0  0  0  0  0  0  0  0  0
   -0.1438    1.3693   -1.1939 N   0  0  0  0  0  0  0  0  0  0  0  0
    1.0230    2.1392   -0.8292 C   0  0  0  0  0  0  0  0  0  0  0  0
    2.1697    1.2373   -0.3865 C   0  0  1  0  0  0  0  0  0  0  0  0
    3.4598    2.0109   -0.1897 C   0  0  0  0  0  0  0  0  0  0  0  0
    3.2483    3.0412    0.7433 O   0  0  0  0  0  0  0  0  0  0  0  0
    1.7555    0.5965    0.8030 O   0  0  0  0  0  0  0  0  0  0  0  0
    2.2717   -0.6861    1.0313 C   0  0  0  0  0  0  0  0  0  0  0  0
    1.0388   -1.9442    0.5523 P   0  0  1  0  0  0  0  0  0  0  0  0
   -0.2683   -1.8845    1.2444 O   0  0  0  0  0  0  0  0  0  0  0  0
    0.8223   -1.8122   -1.0352 O   0  0  0  0  0  0  0  0  0  0  0  0
    1.9160   -3.2716    0.7939 O   0  0  0  0  0  0  0  0  0  0  0  0
    0.2532    1.0271   -3.2659 H   0  0  0  0  0  0  0  0  0  0  0  0
   -3.8778   -0.6805    1.2968 H   0  0  0  0  0  0  0  0  0  0  0  0
   -3.4601    0.5572    3.1574 H   0  0  0  0  0  0  0  0  0  0  0  0
   -2.0578    1.5141    3.2539 H   0  0  0  0  0  0  0  0  0  0  0  0
    1.3302    2.7234   -1.6969 H   0  0  0  0  0  0  0  0  0  0  0  0
    0.7511    2.8385   -0.0399 H   0  0  0  0  0  0  0  0  0  0  0  0
    2.3550    0.5057   -1.1840 H   0  0  0  0  0  0  0  0  0  0  0  0
    4.2457    1.3162    0.1380 H   0  0  0  0  0  0  0  0  0  0  0  0
    3.7737    2.3958   -1.1686 H   0  0  0  0  0  0  0  0  0  0  0  0
    4.0665    3.5374    0.8329 H   0  0  0  0  0  0  0  0  0  0  0  0
    3.2223   -0.8702    0.5161 H   0  0  0  0  0  0  0  0  0  0  0  0
    2.4696   -0.8014    2.1006 H   0  0  0  0  0  0  0  0  0  0  0  0
    1.6047   -1.9708   -1.5787 H   0  0  0  0  0  0  0  0  0  0  0  0
    1.4088   -4.0950    0.7812 H   0  0  0  0  0  0  0  0  0  0  0  0
  1  2  2  0
  1 10  1  0
  1 11  1  0
  2  3  1  0
  2  6  1  0
  3  5  2  0
  3  7  1  0
  4  6  2  0
  4 11  1  0
  7  8  1  0
  8  9  1  0
  8 10  2  0
 11 12  1  0
 12 13  1  0
 13 14  1  0
 13 16  1  0
 14 15  1  0
 16 17  1  0
 17 18  1  0
 18 19  2  0
 18 20  1  6
 18 21  1  0
  4 22  1  0
  7 23  1  0
  9 24  1  0
  9 25  1  0
 12 26  1  0
 12 27  1  0
 13 28  1  6
 14 29  1  0
 14 30  1  0
 15 31  1  0
 17 32  1  0
 17 33  1  0
 20 34  1  0
 21 35  1  0
M  END
