
     RDKit          3D

 49 51  0  0  0  0  0  0  0  0999 V2000
    3.7600    3.0189   -1.7375 C   0  0  0  0  0  0  0  0  0  0  0  0
    6.1210   -1.8708   -0.0644 C   0  0  0  0  0  0  0  0  0  0  0  0
   -4.3267    0.0539   -1.7165 C   0  0  0  0  0  0  0  0  0  0  0  0
   -3.6233   -2.2939    2.2934 C   0  0  0  0  0  0  0  0  0  0  0  0
   -6.4916    2.0208   -0.8693 C   0  0  0  0  0  0  0  0  0  0  0  0
    0.2158    0.5393    0.1077 C   0  0  0  0  0  0  0  0  0  0  0  0
    1.4123    1.2119   -0.0200 C   0  0  0  0  0  0  0  0  0  0  0  0
   -5.3203    0.1415    1.8146 C   0  0  0  0  0  0  0  0  0  0  0  0
    1.3608   -1.5548    0.1954 C   0  0  0  0  0  0  0  0  0  0  0  0
    3.9444    2.5736   -0.2971 C   0  0  0  0  0  0  0  0  0  0  0  0
   -1.1068   -1.6223    0.3326 C   0  0  0  0  0  0  0  0  0  0  0  0
    0.1701   -0.8541    0.2242 C   0  0  0  0  0  0  0  0  0  0  0  0
    4.8637   -1.0722   -0.0550 C   0  0  0  0  0  0  0  0  0  0  0  0
   -4.8390    0.2226   -0.3314 C   0  0  0  0  0  0  0  0  0  0  0  0
   -4.5073   -0.4482    0.8329 C   0  0  0  0  0  0  0  0  0  0  0  0
    5.0088    0.3943   -0.2093 C   0  0  0  0  0  0  0  0  0  0  0  0
    2.5833   -0.8958    0.0808 C   0  0  0  0  0  0  0  0  0  0  0  0
    2.6193    0.5048   -0.0297 C   0  0  0  0  0  0  0  0  0  0  0  0
   -3.4848   -1.5320    0.9801 C   0  0  1  0  0  0  0  0  0  0  0  0
   -6.0850    1.0884    1.3057 N   0  0  0  0  0  0  0  0  0  0  0  0
    3.7300   -1.6524    0.0748 N   0  0  0  0  0  0  0  0  0  0  0  0
   -2.1544   -0.9526    0.8376 N   0  0  0  0  0  0  0  0  0  0  0  0
   -5.7757    1.1293    0.0101 N   0  0  0  0  0  0  0  0  0  0  0  0
    3.8481    1.1206   -0.1487 N   0  0  0  0  0  0  0  0  0  0  0  0
   -1.1712   -2.7900   -0.0309 O   0  0  0  0  0  0  0  0  0  0  0  0
    4.5206    2.5800   -2.3825 H   0  0  0  0  0  0  0  0  0  0  0  0
    2.7804    2.7459   -2.1307 H   0  0  0  0  0  0  0  0  0  0  0  0
    3.8532    4.1027   -1.7985 H   0  0  0  0  0  0  0  0  0  0  0  0
    5.8941   -2.9258    0.0676 H   0  0  0  0  0  0  0  0  0  0  0  0
    6.6619   -1.7415   -1.0031 H   0  0  0  0  0  0  0  0  0  0  0  0
    6.7938   -1.5517    0.7331 H   0  0  0  0  0  0  0  0  0  0  0  0
   -3.8243    0.9539   -2.0757 H   0  0  0  0  0  0  0  0  0  0  0  0
   -3.6058   -0.7602   -1.7549 H   0  0  0  0  0  0  0  0  0  0  0  0
   -5.1272   -0.1778   -2.4207 H   0  0  0  0  0  0  0  0  0  0  0  0
   -4.6082   -2.7558    2.3661 H   0  0  0  0  0  0  0  0  0  0  0  0
   -2.8751   -3.0829    2.3557 H   0  0  0  0  0  0  0  0  0  0  0  0
   -3.4929   -1.6337    3.1519 H   0  0  0  0  0  0  0  0  0  0  0  0
   -7.4289    1.5755   -1.2021 H   0  0  0  0  0  0  0  0  0  0  0  0
   -6.7050    2.9466   -0.3424 H   0  0  0  0  0  0  0  0  0  0  0  0
   -5.8845    2.2501   -1.7411 H   0  0  0  0  0  0  0  0  0  0  0  0
   -0.6931    1.1268    0.0869 H   0  0  0  0  0  0  0  0  0  0  0  0
    1.3855    2.2862   -0.1215 H   0  0  0  0  0  0  0  0  0  0  0  0
   -5.3746   -0.0900    2.8682 H   0  0  0  0  0  0  0  0  0  0  0  0
    1.3719   -2.6345    0.2683 H   0  0  0  0  0  0  0  0  0  0  0  0
    4.9211    2.8757    0.0698 H   0  0  0  0  0  0  0  0  0  0  0  0
    3.2125    3.0381    0.3603 H   0  0  0  0  0  0  0  0  0  0  0  0
   -3.6032   -2.2441    0.1598 H   0  0  0  0  0  0  0  0  0  0  0  0
   -2.0097   -0.0468    1.2542 H   0  0  0  0  0  0  0  0  0  0  0  0
    6.0995    0.9142   -0.3736 O   0  0  0  0  0  0  0  0  0  0  0  0
 49 16  2  0
  1 10  1  0
  2 13  1  0
 16 13  1  0
 16 24  1  0
 10 24  1  0
 13 21  2  0
 24 18  1  0
 21 17  1  0
 18 17  2  0
 18  7  1  0
 17  9  1  0
  7  6  2  0
  9 12  2  0
  6 12  1  0
 12 11  1  0
 11 25  2  0
 11 22  1  0
 22 19  1  0
  4 19  1  0
 19 15  1  0
 15 14  2  0
 15  8  1  0
  3 14  1  0
 14 23  1  0
  8 20  2  0
 23 20  1  0
 23  5  1  0
  1 26  1  0
  1 27  1  0
  1 28  1  0
  2 29  1  0
  2 30  1  0
  2 31  1  0
  3 32  1  0
  3 33  1  0
  3 34  1  0
  4 35  1  0
  4 36  1  0
  4 37  1  0
  5 38  1  0
  5 39  1  0
  5 40  1  0
  6 41  1  0
  7 42  1  0
  8 43  1  0
  9 44  1  0
 10 45  1  0
 10 46  1  0
 19 47  1  6
 22 48  1  0
M  END
