
     RDKit          3D

 55 57  0  0  0  0  0  0  0  0999 V2000
   -4.0031   -1.6339    1.0205 O   0  0  0  0  0  0  0  0  0  0  0  0
   -4.1923   -0.6631    0.3231 C   0  0  0  0  0  0  0  0  0  0  0  0
   -5.3739   -0.1712   -0.0300 O   0  0  0  0  0  0  0  0  0  0  0  0
   -6.6352   -0.7259    0.4398 C   0  0  1  0  0  0  0  0  0  0  0  0
   -6.7469   -0.6051    1.9543 C   0  0  0  0  0  0  0  0  0  0  0  0
   -7.6689    0.1680   -0.2335 C   0  0  0  0  0  0  0  0  0  0  0  0
   -6.8124   -2.1638   -0.0310 C   0  0  0  0  0  0  0  0  0  0  0  0
   -3.2167    0.1081   -0.2349 N   0  0  0  0  0  0  0  0  0  0  0  0
   -1.8370   -0.0453   -0.1313 C   0  0  0  0  0  0  0  0  0  0  0  0
   -1.1896   -1.1376    0.4328 C   0  0  0  0  0  0  0  0  0  0  0  0
   -1.0504    0.9973   -0.6670 C   0  0  0  0  0  0  0  0  0  0  0  0
   -1.7396    2.0181   -1.2109 O   0  0  0  0  0  0  0  0  0  0  0  0
   -1.0295    3.1223   -1.7378 C   0  0  0  0  0  0  0  0  0  0  0  0
    0.3308    0.9257   -0.6247 C   0  0  0  0  0  0  0  0  0  0  0  0
    0.9712   -0.1676   -0.0342 C   0  0  0  0  0  0  0  0  0  0  0  0
    0.1973   -1.1948    0.4827 C   0  0  0  0  0  0  0  0  0  0  0  0
    2.4342   -0.2366    0.0024 C   0  0  0  0  0  0  0  0  0  0  0  0
    3.0558   -1.3604   -0.2715 N   0  0  0  0  0  0  0  0  0  0  0  0
    4.3717   -1.1380   -0.1632 N   0  0  0  0  0  0  0  0  0  0  0  0
    5.3287   -2.1996   -0.4412 C   0  0  1  0  0  0  0  0  0  0  0  0
    5.0828   -3.3914    0.4722 C   0  0  0  0  0  0  0  0  0  0  0  0
    5.2922   -2.5783   -1.9148 C   0  0  0  0  0  0  0  0  0  0  0  0
    4.6261    0.1390    0.1722 C   0  0  0  0  0  0  0  0  0  0  0  0
    5.8258    0.6999    0.3547 N   0  0  0  0  0  0  0  0  0  0  0  0
    3.3880    0.7749    0.3074 C   0  0  0  0  0  0  0  0  0  0  0  0
    3.4416    2.1159    0.7553 C   0  0  0  0  0  0  0  0  0  0  0  0
    2.3569    2.8511    1.0178 N   0  0  0  0  0  0  0  0  0  0  0  0
    4.6360    2.6877    0.9237 N   0  0  0  0  0  0  0  0  0  0  0  0
    5.7341    1.9643    0.7080 C   0  0  0  0  0  0  0  0  0  0  0  0
   -6.5584    0.4188    2.2812 H   0  0  0  0  0  0  0  0  0  0  0  0
   -7.7612   -0.8659    2.2588 H   0  0  0  0  0  0  0  0  0  0  0  0
   -6.0632   -1.2706    2.4770 H   0  0  0  0  0  0  0  0  0  0  0  0
   -7.5413    1.2125    0.0542 H   0  0  0  0  0  0  0  0  0  0  0  0
   -7.6044    0.0985   -1.3204 H   0  0  0  0  0  0  0  0  0  0  0  0
   -8.6710   -0.1399    0.0628 H   0  0  0  0  0  0  0  0  0  0  0  0
   -7.8357   -2.4809    0.1747 H   0  0  0  0  0  0  0  0  0  0  0  0
   -6.6533   -2.2468   -1.1074 H   0  0  0  0  0  0  0  0  0  0  0  0
   -6.1439   -2.8562    0.4751 H   0  0  0  0  0  0  0  0  0  0  0  0
   -3.5296    0.9148   -0.7542 H   0  0  0  0  0  0  0  0  0  0  0  0
   -1.7590   -1.9525    0.8479 H   0  0  0  0  0  0  0  0  0  0  0  0
   -1.7768    3.8336   -2.0790 H   0  0  0  0  0  0  0  0  0  0  0  0
   -0.4054    3.6003   -0.9780 H   0  0  0  0  0  0  0  0  0  0  0  0
   -0.4020    2.8345   -2.5848 H   0  0  0  0  0  0  0  0  0  0  0  0
    0.9264    1.7053   -1.0817 H   0  0  0  0  0  0  0  0  0  0  0  0
    0.6717   -2.0512    0.9423 H   0  0  0  0  0  0  0  0  0  0  0  0
    6.3036   -1.7696   -0.2074 H   0  0  0  0  0  0  0  0  0  0  0  0
    4.1151   -3.8503    0.2711 H   0  0  0  0  0  0  0  0  0  0  0  0
    5.8546   -4.1423    0.3072 H   0  0  0  0  0  0  0  0  0  0  0  0
    5.1156   -3.0976    1.5213 H   0  0  0  0  0  0  0  0  0  0  0  0
    5.5049   -1.7177   -2.5492 H   0  0  0  0  0  0  0  0  0  0  0  0
    6.0430   -3.3413   -2.1199 H   0  0  0  0  0  0  0  0  0  0  0  0
    4.3173   -2.9802   -2.1917 H   0  0  0  0  0  0  0  0  0  0  0  0
    1.4483    2.4271    1.0910 H   0  0  0  0  0  0  0  0  0  0  0  0
    2.4770    3.7531    1.4484 H   0  0  0  0  0  0  0  0  0  0  0  0
    6.6714    2.4904    0.8572 H   0  0  0  0  0  0  0  0  0  0  0  0
  7  4  1  0
  6  4  1  0
  4  5  1  0
  4  3  1  6
  1  2  2  0
  3  2  1  0
  2  8  1  0
 10 16  1  0
 10  9  2  0
 16 15  2  0
  8  9  1  0
  9 11  1  0
 21 20  1  0
 15 17  1  0
 15 14  1  0
 11 14  2  0
 11 12  1  0
 17 18  2  0
 17 25  1  0
 18 19  1  0
 27 26  1  0
 25 26  2  0
 25 23  1  0
 26 28  1  0
 19 23  1  0
 19 20  1  0
 12 13  1  0
 23 24  2  0
 20 22  1  0
 28 29  2  0
 24 29  1  0
  5 30  1  0
  5 31  1  0
  5 32  1  0
  6 33  1  0
  6 34  1  0
  6 35  1  0
  7 36  1  0
  7 37  1  0
  7 38  1  0
  8 39  1  0
 10 40  1  0
 13 41  1  0
 13 42  1  0
 13 43  1  0
 14 44  1  0
 16 45  1  0
 20 46  1  1
 21 47  1  0
 21 48  1  0
 21 49  1  0
 22 50  1  0
 22 51  1  0
 22 52  1  0
 27 53  1  0
 27 54  1  0
 29 55  1  0
M  END
