
     RDKit          3D

 80 82  0  0  0  0  0  0  0  0999 V2000
   -5.3888    0.5789    1.1197 O   0  0  0  0  0  0  0  0  0  0  0  0
   -3.9430    0.4907    1.2588 S   0  0  1  0  0  0  0  0  0  0  0  0
   -3.3035    0.9676    2.4762 O   0  0  0  0  0  0  0  0  0  0  0  0
   -3.5111   -1.2143    1.0750 C   0  0  0  0  0  0  0  0  0  0  0  0
   -2.4077   -1.7322    1.7509 C   0  0  0  0  0  0  0  0  0  0  0  0
   -2.0441   -3.0486    1.5663 C   0  0  0  0  0  0  0  0  0  0  0  0
   -4.2582   -2.0304    0.2380 C   0  0  0  0  0  0  0  0  0  0  0  0
   -3.8954   -3.3541    0.0468 C   0  0  0  0  0  0  0  0  0  0  0  0
   -2.7804   -3.8718    0.7065 C   0  0  0  0  0  0  0  0  0  0  0  0
   -2.3524   -5.1323    0.5850 O   0  0  0  0  0  0  0  0  0  0  0  0
   -3.0600   -6.0151   -0.2686 C   0  0  0  0  0  0  0  0  0  0  0  0
   -3.2876    1.3247    0.0051 N   0  0  0  0  0  0  0  0  0  0  0  0
   -3.9992    1.3591   -1.2755 C   0  0  0  0  0  0  0  0  0  0  0  0
   -4.9934    2.5117   -1.4151 C   0  0  1  0  0  0  0  0  0  0  0  0
   -4.3134    3.8606   -1.2132 C   0  0  0  0  0  0  0  0  0  0  0  0
   -5.6727    2.4016   -2.7821 C   0  0  0  0  0  0  0  0  0  0  0  0
   -6.8077    3.3950   -2.9947 C   0  0  0  0  0  0  0  0  0  0  0  0
   -1.8985    1.7601    0.0715 C   0  0  0  0  0  0  0  0  0  0  0  0
   -0.8660    0.7134   -0.3522 C   0  0  1  0  0  0  0  0  0  0  0  0
   -0.8935    0.4396   -1.7342 O   0  0  0  0  0  0  0  0  0  0  0  0
    0.5389    1.0880    0.1401 C   0  0  2  0  0  0  0  0  0  0  0  0
    1.0605    2.4120   -0.4412 C   0  0  0  0  0  0  0  0  0  0  0  0
    2.3909    2.7801    0.1505 C   0  0  0  0  0  0  0  0  0  0  0  0
    2.4548    3.4847    1.3505 C   0  0  0  0  0  0  0  0  0  0  0  0
    3.6763    3.7867    1.9358 C   0  0  0  0  0  0  0  0  0  0  0  0
    4.8579    3.3841    1.3263 C   0  0  0  0  0  0  0  0  0  0  0  0
    4.8052    2.6825    0.1298 C   0  0  0  0  0  0  0  0  0  0  0  0
    3.5812    2.3816   -0.4520 C   0  0  0  0  0  0  0  0  0  0  0  0
    1.4547    0.0131   -0.1494 N   0  0  0  0  0  0  0  0  0  0  0  0
    2.2624   -0.5444    0.7730 C   0  0  0  0  0  0  0  0  0  0  0  0
    2.2222   -0.3396    1.9681 O   0  0  0  0  0  0  0  0  0  0  0  0
    3.1163   -1.3873    0.1844 O   0  0  0  0  0  0  0  0  0  0  0  0
    4.0256   -2.1095    1.0050 C   0  0  0  0  0  0  0  0  0  0  0  0
    5.1079   -2.6665    0.1006 C   0  0  0  0  0  0  0  0  0  0  0  0
    5.8932   -1.6568   -0.5547 N   0  0  0  0  0  0  0  0  0  0  0  0
    6.7135   -0.7221    0.1881 C   0  0  0  0  0  0  0  0  0  0  0  0
    5.6017   -1.1626   -1.7949 C   0  0  0  0  0  0  0  0  0  0  0  0
    4.8400   -1.6534   -2.6109 O   0  0  0  0  0  0  0  0  0  0  0  0
    6.3359   -0.0172   -1.9629 N   0  0  0  0  0  0  0  0  0  0  0  0
    7.3593    0.0756   -0.9409 C   0  0  0  0  0  0  0  0  0  0  0  0
   -1.8304   -1.1143    2.4256 H   0  0  0  0  0  0  0  0  0  0  0  0
   -1.1885   -3.4543    2.0906 H   0  0  0  0  0  0  0  0  0  0  0  0
   -5.1387   -1.6571   -0.2672 H   0  0  0  0  0  0  0  0  0  0  0  0
   -4.4967   -3.9646   -0.6117 H   0  0  0  0  0  0  0  0  0  0  0  0
   -2.5412   -6.9687   -0.2214 H   0  0  0  0  0  0  0  0  0  0  0  0
   -4.0920   -6.1566    0.0607 H   0  0  0  0  0  0  0  0  0  0  0  0
   -3.0604   -5.6636   -1.3030 H   0  0  0  0  0  0  0  0  0  0  0  0
   -3.2454    1.4328   -2.0601 H   0  0  0  0  0  0  0  0  0  0  0  0
   -4.5059    0.4076   -1.4543 H   0  0  0  0  0  0  0  0  0  0  0  0
   -5.7617    2.3929   -0.6455 H   0  0  0  0  0  0  0  0  0  0  0  0
   -5.0275    4.6816   -1.2714 H   0  0  0  0  0  0  0  0  0  0  0  0
   -3.8371    3.9232   -0.2342 H   0  0  0  0  0  0  0  0  0  0  0  0
   -3.5473    4.0344   -1.9741 H   0  0  0  0  0  0  0  0  0  0  0  0
   -4.9226    2.5259   -3.5709 H   0  0  0  0  0  0  0  0  0  0  0  0
   -6.0676    1.3872   -2.8987 H   0  0  0  0  0  0  0  0  0  0  0  0
   -7.3075    3.2174   -3.9474 H   0  0  0  0  0  0  0  0  0  0  0  0
   -7.5576    3.3078   -2.2064 H   0  0  0  0  0  0  0  0  0  0  0  0
   -6.4543    4.4265   -3.0021 H   0  0  0  0  0  0  0  0  0  0  0  0
   -1.8223    2.6486   -0.5604 H   0  0  0  0  0  0  0  0  0  0  0  0
   -1.6782    2.1018    1.0831 H   0  0  0  0  0  0  0  0  0  0  0  0
   -1.1138   -0.2361    0.1268 H   0  0  0  0  0  0  0  0  0  0  0  0
   -0.7436    1.2555   -2.2240 H   0  0  0  0  0  0  0  0  0  0  0  0
    0.4850    1.1857    1.2261 H   0  0  0  0  0  0  0  0  0  0  0  0
    1.1528    2.3300   -1.5280 H   0  0  0  0  0  0  0  0  0  0  0  0
    0.3355    3.2063   -0.2458 H   0  0  0  0  0  0  0  0  0  0  0  0
    1.5366    3.8018    1.8325 H   0  0  0  0  0  0  0  0  0  0  0  0
    3.7058    4.3392    2.8665 H   0  0  0  0  0  0  0  0  0  0  0  0
    5.8129    3.6172    1.7792 H   0  0  0  0  0  0  0  0  0  0  0  0
    5.7189    2.3705   -0.3586 H   0  0  0  0  0  0  0  0  0  0  0  0
    3.5568    1.8331   -1.3865 H   0  0  0  0  0  0  0  0  0  0  0  0
    1.6156   -0.2164   -1.1183 H   0  0  0  0  0  0  0  0  0  0  0  0
    4.4556   -1.4623    1.7720 H   0  0  0  0  0  0  0  0  0  0  0  0
    3.5146   -2.9329    1.5106 H   0  0  0  0  0  0  0  0  0  0  0  0
    5.7662   -3.2876    0.7127 H   0  0  0  0  0  0  0  0  0  0  0  0
    4.6710   -3.3162   -0.6578 H   0  0  0  0  0  0  0  0  0  0  0  0
    6.1064   -0.0720    0.8293 H   0  0  0  0  0  0  0  0  0  0  0  0
    7.4432   -1.2358    0.8134 H   0  0  0  0  0  0  0  0  0  0  0  0
    6.5433    0.2723   -2.9056 H   0  0  0  0  0  0  0  0  0  0  0  0
    7.5660    1.1057   -0.6561 H   0  0  0  0  0  0  0  0  0  0  0  0
    8.2980   -0.3868   -1.2615 H   0  0  0  0  0  0  0  0  0  0  0  0
 11 10  1  0
 10  9  1  0
  9  6  1  0
  9  8  2  0
  6  5  2  0
 16 17  1  0
 16 14  1  0
  8  7  1  0
 20 19  1  0
  5  4  1  0
 14 13  1  0
 14 15  1  0
 18 19  1  0
 18 12  1  0
 13 12  1  0
  7  4  2  0
  4  2  1  0
 19 21  1  0
  2 12  1  6
  2  1  2  0
  2  3  2  0
 21 22  1  0
 21 29  1  0
 22 23  1  0
 29 30  1  0
 30 32  1  0
 30 31  2  0
 23 28  1  0
 23 24  2  0
 32 33  1  0
 28 27  2  0
 24 25  1  0
 38 37  2  0
 33 34  1  0
 27 26  1  0
 34 35  1  0
 37 35  1  0
 37 39  1  0
 25 26  2  0
 35 36  1  0
 39 40  1  0
 36 40  1  0
  5 41  1  0
  6 42  1  0
  7 43  1  0
  8 44  1  0
 11 45  1  0
 11 46  1  0
 11 47  1  0
 13 48  1  0
 13 49  1  0
 14 50  1  1
 15 51  1  0
 15 52  1  0
 15 53  1  0
 16 54  1  0
 16 55  1  0
 17 56  1  0
 17 57  1  0
 17 58  1  0
 18 59  1  0
 18 60  1  0
 19 61  1  1
 20 62  1  0
 21 63  1  1
 22 64  1  0
 22 65  1  0
 24 66  1  0
 25 67  1  0
 26 68  1  0
 27 69  1  0
 28 70  1  0
 29 71  1  0
 33 72  1  0
 33 73  1  0
 34 74  1  0
 34 75  1  0
 36 76  1  0
 36 77  1  0
 39 78  1  0
 40 79  1  0
 40 80  1  0
M  END
