
     RDKit          3D

 39 42  0  0  0  0  0  0  0  0999 V2000
    5.9071   -1.2399   -0.8717 C   0  0  0  0  0  0  0  0  0  0  0  0
    6.7596   -1.5712    0.1462 C   0  0  0  0  0  0  0  0  0  0  0  0
    6.4124   -1.2890    1.4840 C   0  0  0  0  0  0  0  0  0  0  0  0
    5.2219   -0.6810    1.7776 C   0  0  0  0  0  0  0  0  0  0  0  0
   -2.6261   -0.5085   -0.2201 C   0  0  0  0  0  0  0  0  0  0  0  0
   -1.4558   -1.2678   -0.1943 C   0  0  0  0  0  0  0  0  0  0  0  0
   -0.2170   -0.6773   -0.0448 C   0  0  0  0  0  0  0  0  0  0  0  0
   -0.1064    0.7031    0.1006 C   0  0  0  0  0  0  0  0  0  0  0  0
   -1.2661    1.4937    0.0871 C   0  0  0  0  0  0  0  0  0  0  0  0
   -2.5034    0.8675   -0.0779 C   0  0  0  0  0  0  0  0  0  0  0  0
   -3.9250   -1.1527   -0.3978 C   0  0  0  0  0  0  0  0  0  0  0  0
   -4.2073   -2.3388   -1.0535 C   0  0  0  0  0  0  0  0  0  0  0  0
   -5.5245   -2.5420   -0.9517 N   0  0  0  0  0  0  0  0  0  0  0  0
   -6.1548   -1.5811   -0.2774 N   0  0  0  0  0  0  0  0  0  0  0  0
   -5.1984   -0.7585    0.0480 C   0  0  0  0  0  0  0  0  0  0  0  0
   -1.2023    2.9688    0.2462 C   0  0  0  0  0  0  0  0  0  0  0  0
   -2.3833    3.5467    0.0437 O   0  0  0  0  0  0  0  0  0  0  0  0
   -0.2151    3.6016    0.5285 O   0  0  0  0  0  0  0  0  0  0  0  0
    2.2464    0.6303   -0.0018 C   0  0  0  0  0  0  0  0  0  0  0  0
    3.0839    0.3001    1.0229 C   0  0  0  0  0  0  0  0  0  0  0  0
    4.3217   -0.3268    0.7460 C   0  0  0  0  0  0  0  0  0  0  0  0
    4.6695   -0.6127   -0.5994 C   0  0  0  0  0  0  0  0  0  0  0  0
    3.7670   -0.2557   -1.6298 C   0  0  0  0  0  0  0  0  0  0  0  0
    2.5784    0.3540   -1.3452 C   0  0  0  0  0  0  0  0  0  0  0  0
   -5.4806    0.3287    0.7545 F   0  0  0  0  0  0  0  0  0  0  0  0
    6.1724   -1.4539   -1.8999 H   0  0  0  0  0  0  0  0  0  0  0  0
    7.7037   -2.0525   -0.0726 H   0  0  0  0  0  0  0  0  0  0  0  0
    7.0941   -1.5565    2.2808 H   0  0  0  0  0  0  0  0  0  0  0  0
    4.9547   -0.4663    2.8051 H   0  0  0  0  0  0  0  0  0  0  0  0
    0.6619   -1.3069   -0.0198 H   0  0  0  0  0  0  0  0  0  0  0  0
   -3.3903    1.4820   -0.1078 H   0  0  0  0  0  0  0  0  0  0  0  0
   -3.5653   -3.0244   -1.5822 H   0  0  0  0  0  0  0  0  0  0  0  0
   -6.0520   -3.3109   -1.3326 H   0  0  0  0  0  0  0  0  0  0  0  0
   -2.2999    4.5027    0.1730 H   0  0  0  0  0  0  0  0  0  0  0  0
    2.8084    0.5203    2.0472 H   0  0  0  0  0  0  0  0  0  0  0  0
    4.0333   -0.4645   -2.6585 H   0  0  0  0  0  0  0  0  0  0  0  0
    1.8973    0.6338   -2.1392 H   0  0  0  0  0  0  0  0  0  0  0  0
    1.0862    1.3086    0.2787 O   0  0  0  0  0  0  0  0  0  0  0  0
   -1.5065   -2.3461   -0.2760 H   0  0  0  0  0  0  0  0  0  0  0  0
 18 16  2  0
 16 17  1  0
 16  9  1  0
 10  9  2  0
 10  5  1  0
  9  8  1  0
 13 14  1  0
 13 12  1  0
 14 15  2  0
 12 11  2  0
 15 11  1  0
 15 25  1  0
 11  5  1  0
  5  6  2  0
  8 38  1  0
  8  7  2  0
 38 19  1  0
  6  7  1  0
 20 19  2  0
 20 21  1  0
 19 24  1  0
  4 21  2  0
  4  3  1  0
 21 22  1  0
 24 23  2  0
  3  2  2  0
 22 23  1  0
 22  1  2  0
  2  1  1  0
  1 26  1  0
  2 27  1  0
  3 28  1  0
  4 29  1  0
  6 39  1  0
  7 30  1  0
 10 31  1  0
 12 32  1  0
 13 33  1  0
 17 34  1  0
 20 35  1  0
 23 36  1  0
 24 37  1  0
M  END
