
     RDKit          3D

 24 24  0  0  0  0  0  0  0  0999 V2000
   -2.9476   -0.3569   -0.1598 O   0  0  0  0  0  0  0  0  0  0  0  0
   -1.5790   -0.3569   -0.1598 C   0  0  2  0  0  0  0  0  0  0  0  0
   -1.1002   -0.3569    1.2392 O   0  0  0  0  0  0  0  0  0  0  0  0
    0.3746   -0.3569    1.3233 C   0  0  1  0  0  0  0  0  0  0  0  0
    0.8894   -1.6656    0.8110 C   0  0  0  0  0  0  0  0  0  0  0  0
    1.5592   -2.3421    1.8439 O   0  0  0  0  0  0  0  0  0  0  0  0
    0.9981    0.7754    0.5053 C   0  0  2  0  0  0  0  0  0  0  0  0
    0.6547    2.0309    1.1140 O   0  0  0  0  0  0  0  0  0  0  0  0
    0.5195    0.7771   -0.8983 C   0  0  2  0  0  0  0  0  0  0  0  0
    1.0729    1.9992   -1.4841 O   0  0  0  0  0  0  0  0  0  0  0  0
   -1.0838    0.8638   -0.9381 C   0  0  1  0  0  0  0  0  0  0  0  0
   -1.4558    0.7159   -2.3201 O   0  0  0  0  0  0  0  0  0  0  0  0
   -3.2620   -1.2079    0.0970 H   0  0  0  0  0  0  0  0  0  0  0  0
   -1.2224   -1.2538   -0.6517 H   0  0  0  0  0  0  0  0  0  0  0  0
    0.6657   -0.2405    2.3602 H   0  0  0  0  0  0  0  0  0  0  0  0
    1.5754   -1.4880   -0.0084 H   0  0  0  0  0  0  0  0  0  0  0  0
    0.0597   -2.2688    0.4630 H   0  0  0  0  0  0  0  0  0  0  0  0
    1.8039   -3.2035    1.5486 H   0  0  0  0  0  0  0  0  0  0  0  0
    2.0751    0.6590    0.5087 H   0  0  0  0  0  0  0  0  0  0  0  0
    1.4120    2.3875    1.5478 H   0  0  0  0  0  0  0  0  0  0  0  0
    0.8712   -0.1018   -1.4250 H   0  0  0  0  0  0  0  0  0  0  0  0
    1.5959    1.7782   -2.2369 H   0  0  0  0  0  0  0  0  0  0  0  0
   -1.4475    1.7905   -0.5111 H   0  0  0  0  0  0  0  0  0  0  0  0
   -2.0288    1.4223   -2.5687 H   0  0  0  0  0  0  0  0  0  0  0  0
  1  2  1  0
  2  3  1  0
  3  4  1  0
  4  5  1  0
  5  6  1  0
  4  7  1  0
  7  8  1  0
  7  9  1  0
  9 10  1  0
  9 11  1  0
  2 11  1  0
 11 12  1  0
  2 14  1  6
  4 15  1  1
  5 16  1  0
  5 17  1  0
  6 18  1  0
  7 19  1  6
  8 20  1  0
  9 21  1  6
 10 22  1  0
 11 23  1  1
 12 24  1  0
 13  1  1  0
M  END
