
     RDKit          3D

 50 53  0  0  0  0  0  0  0  0999 V2000
    1.9508    2.5176   -1.0493 C   0  0  0  0  0  0  0  0  0  0  0  0
    3.1030    1.7892   -1.3775 C   0  0  0  0  0  0  0  0  0  0  0  0
    0.7868    1.8880   -0.6721 C   0  0  0  0  0  0  0  0  0  0  0  0
    3.0865    0.3992   -1.3347 C   0  0  0  0  0  0  0  0  0  0  0  0
    0.7899    0.4956   -0.6262 C   0  0  0  0  0  0  0  0  0  0  0  0
    1.9217   -0.2434   -0.9539 C   0  0  0  0  0  0  0  0  0  0  0  0
    4.1587    2.5890   -1.7224 N   0  0  0  0  0  0  0  0  0  0  0  0
    3.8737    3.9281   -1.7262 C   0  0  0  0  0  0  0  0  0  0  0  0
    2.2186    4.2387   -1.2094 S   0  0  0  0  0  0  0  0  0  0  0  0
    6.7782    8.3609   -3.4214 C   0  0  0  0  0  0  0  0  0  0  0  0
    5.6745    9.0996   -2.9730 C   0  0  0  0  0  0  0  0  0  0  0  0
    7.8527    8.9716   -4.0274 C   0  0  0  0  0  0  0  0  0  0  0  0
    5.6410   10.4796   -3.1451 C   0  0  0  0  0  0  0  0  0  0  0  0
    7.8069   10.3549   -4.1837 C   0  0  0  0  0  0  0  0  0  0  0  0
    6.7163   11.1029   -3.7524 C   0  0  0  0  0  0  0  0  0  0  0  0
    4.7117    8.3199   -2.3912 N   0  0  0  0  0  0  0  0  0  0  0  0
    4.9868    6.9791   -2.4068 C   0  0  0  0  0  0  0  0  0  0  0  0
    6.5639    6.6511   -3.1202 S   0  0  0  0  0  0  0  0  0  0  0  0
    4.1921    6.0897   -1.9599 N   0  0  0  0  0  0  0  0  0  0  0  0
    4.7099    4.8269   -2.0655 N   0  0  0  0  0  0  0  0  0  0  0  0
    2.3697    8.8558   -2.9687 C   0  0  0  0  0  0  0  0  0  0  0  0
    9.1623   11.1806   -4.9368 S   0  0  1  0  0  0  0  0  0  0  0  0
    5.4527    2.0935   -2.1696 C   0  0  0  0  0  0  0  0  0  0  0  0
    5.4868    1.8356   -3.6653 C   0  0  0  0  0  0  0  0  0  0  0  0
   -0.6687   -0.3472   -0.1292 S   0  0  1  0  0  0  0  0  0  0  0  0
   10.0262   11.7046   -3.6968 O   0  0  0  0  0  0  0  0  0  0  0  0
   -1.8122    0.5162   -0.3417 O   0  0  0  0  0  0  0  0  0  0  0  0
   -0.6561   -1.6891   -0.6661 O   0  0  0  0  0  0  0  0  0  0  0  0
   -0.4645   -0.5683    1.4420 O   0  0  0  0  0  0  0  0  0  0  0  0
    9.9432   10.2217   -5.6910 O   0  0  0  0  0  0  0  0  0  0  0  0
    8.6967   12.3971   -5.5635 O   0  0  0  0  0  0  0  0  0  0  0  0
   -0.0968    2.4628   -0.4288 H   0  0  0  0  0  0  0  0  0  0  0  0
    3.9568   -0.1848   -1.5991 H   0  0  0  0  0  0  0  0  0  0  0  0
    1.9059   -1.3240   -0.9249 H   0  0  0  0  0  0  0  0  0  0  0  0
    8.6950    8.3887   -4.3754 H   0  0  0  0  0  0  0  0  0  0  0  0
    4.7944   11.0697   -2.8233 H   0  0  0  0  0  0  0  0  0  0  0  0
    6.6889   12.1747   -3.8920 H   0  0  0  0  0  0  0  0  0  0  0  0
    3.1377    8.1859   -1.0634 H   0  0  0  0  0  0  0  0  0  0  0  0
    3.6128    9.8155   -1.4775 H   0  0  0  0  0  0  0  0  0  0  0  0
    2.6651    9.4881   -3.8062 H   0  0  0  0  0  0  0  0  0  0  0  0
    2.1648    7.8547   -3.3463 H   0  0  0  0  0  0  0  0  0  0  0  0
    1.4449    9.2573   -2.5558 H   0  0  0  0  0  0  0  0  0  0  0  0
    6.1988    2.8342   -1.8891 H   0  0  0  0  0  0  0  0  0  0  0  0
    5.6802    1.1887   -1.6074 H   0  0  0  0  0  0  0  0  0  0  0  0
    4.7622    1.0759   -3.9584 H   0  0  0  0  0  0  0  0  0  0  0  0
    5.2745    2.7473   -4.2223 H   0  0  0  0  0  0  0  0  0  0  0  0
    6.4769    1.4852   -3.9545 H   0  0  0  0  0  0  0  0  0  0  0  0
   10.5375   10.9951   -3.2742 H   0  0  0  0  0  0  0  0  0  0  0  0
   -0.6428    0.2355    1.9571 H   0  0  0  0  0  0  0  0  0  0  0  0
    3.4399    8.8232   -1.8922 C   0  0  0  0  0  0  0  0  0  0  0  0
  1  2  1  0
  1  3  2  0
  1  9  1  0
  2  4  2  0
  2  7  1  0
  3  5  1  0
  3 32  1  0
  4  6  1  0
  4 33  1  0
  5  6  2  0
  5 25  1  0
  6 34  1  0
  7  8  1  0
  7 23  1  0
  8  9  1  0
  8 20  2  0
 10 11  1  0
 10 12  2  0
 10 18  1  0
 11 13  2  0
 11 16  1  0
 12 14  1  0
 12 35  1  0
 13 15  1  0
 13 36  1  0
 14 15  2  0
 14 22  1  0
 15 37  1  0
 16 17  1  0
 16 50  1  0
 17 18  1  0
 17 19  2  0
 19 20  1  0
 50 21  1  0
 50 38  1  0
 50 39  1  0
 21 40  1  0
 21 41  1  0
 21 42  1  0
 22 26  1  1
 22 30  2  0
 22 31  2  0
 23 24  1  0
 23 43  1  0
 23 44  1  0
 24 45  1  0
 24 46  1  0
 24 47  1  0
 25 27  2  0
 25 28  2  0
 25 29  1  1
 26 48  1  0
 29 49  1  0
M  END
