
     RDKit          3D

 34 34  0  0  0  0  0  0  0  0999 V2000
   -5.1281    1.0754    0.7872 Cl  0  0  0  0  0  0  0  0  0  0  0  0
   -3.4882    0.5535    0.7303 C   0  0  0  0  0  0  0  0  0  0  0  0
   -2.9792   -0.2249    1.7587 C   0  0  0  0  0  0  0  0  0  0  0  0
   -1.6618   -0.6458    1.7213 C   0  0  0  0  0  0  0  0  0  0  0  0
   -2.6641    0.9083   -0.3306 C   0  0  0  0  0  0  0  0  0  0  0  0
   -3.2679    1.8759   -1.6224 Cl  0  0  0  0  0  0  0  0  0  0  0  0
   -1.3444    0.4839   -0.3633 C   0  0  0  0  0  0  0  0  0  0  0  0
   -0.8262   -0.2931    0.6660 C   0  0  0  0  0  0  0  0  0  0  0  0
    0.6042   -0.7756    0.6394 C   0  0  1  0  0  0  0  0  0  0  0  0
    0.6095   -2.3732   -0.2421 P   0  0  1  0  0  0  0  0  0  0  0  0
    0.4365   -1.8980   -1.7609 O   0  0  0  0  0  0  0  0  0  0  0  0
    2.1244   -2.9192   -0.2494 O   0  0  0  0  0  0  0  0  0  0  0  0
   -0.3852   -3.3461    0.2699 O   0  0  0  0  0  0  0  0  0  0  0  0
    1.5949    0.2746    0.1110 C   0  0  0  0  0  0  0  0  0  0  0  0
    3.0179    0.0742    0.6279 C   0  0  0  0  0  0  0  0  0  0  0  0
    3.9436    1.0351    0.0716 N   0  0  0  0  0  0  0  0  0  0  0  0
    4.2795    0.8154   -1.2406 O   0  0  0  0  0  0  0  0  0  0  0  0
    4.1399    2.2783    0.5770 C   0  0  0  0  0  0  0  0  0  0  0  0
    3.6699    2.5922    1.6602 O   0  0  0  0  0  0  0  0  0  0  0  0
    4.9820    3.2127   -0.2511 C   0  0  0  0  0  0  0  0  0  0  0  0
   -3.6160   -0.5019    2.5875 H   0  0  0  0  0  0  0  0  0  0  0  0
   -1.2790   -1.2464    2.5360 H   0  0  0  0  0  0  0  0  0  0  0  0
   -0.7271    0.7804   -1.2005 H   0  0  0  0  0  0  0  0  0  0  0  0
    0.8782   -1.0289    1.6704 H   0  0  0  0  0  0  0  0  0  0  0  0
    1.5971    0.3030   -0.9796 H   0  0  0  0  0  0  0  0  0  0  0  0
    1.2479    1.2545    0.4470 H   0  0  0  0  0  0  0  0  0  0  0  0
    0.1995   -2.6047   -2.3775 H   0  0  0  0  0  0  0  0  0  0  0  0
    2.3352   -3.4900    0.5016 H   0  0  0  0  0  0  0  0  0  0  0  0
    3.0408    0.1735    1.7123 H   0  0  0  0  0  0  0  0  0  0  0  0
    3.3969   -0.9194    0.3928 H   0  0  0  0  0  0  0  0  0  0  0  0
    4.4772    3.4769   -1.1806 H   0  0  0  0  0  0  0  0  0  0  0  0
    5.1599    4.1228    0.3157 H   0  0  0  0  0  0  0  0  0  0  0  0
    5.9420    2.7715   -0.5175 H   0  0  0  0  0  0  0  0  0  0  0  0
    5.0926    0.2920   -1.2261 H   0  0  0  0  0  0  0  0  0  0  0  0
  1  2  1  0
  2  3  2  0
  2  5  1  0
  3  4  1  0
  4  8  2  0
  5  6  1  0
  5  7  2  0
  7  8  1  0
  8  9  1  0
  9 10  1  0
  9 14  1  0
 10 11  1  6
 10 12  1  0
 10 13  2  0
 14 15  1  0
 15 16  1  0
 16 17  1  0
 16 18  1  0
 18 19  2  0
 18 20  1  0
  3 21  1  0
  4 22  1  0
  7 23  1  0
  9 24  1  1
 14 25  1  0
 14 26  1  0
 11 27  1  0
 12 28  1  0
 15 29  1  0
 15 30  1  0
 20 31  1  0
 20 32  1  0
 20 33  1  0
 17 34  1  0
M  END
