
     RDKit          3D

 60 61  0  0  0  0  0  0  0  0999 V2000
   -8.5355    0.3578   -0.0442 C   0  0  0  0  0  0  0  0  0  0  0  0
   -7.5096    1.4826   -0.1129 C   0  0  1  0  0  0  0  0  0  0  0  0
   -7.0365    1.7261   -1.5411 C   0  0  0  0  0  0  0  0  0  0  0  0
   -8.1105    2.7631    0.4547 C   0  0  0  0  0  0  0  0  0  0  0  0
   -5.5694    0.1894    0.6286 C   0  0  0  0  0  0  0  0  0  0  0  0
   -3.5383   -0.7408    1.6237 C   0  0  0  0  0  0  0  0  0  0  0  0
   -2.3995   -0.3368    0.6929 C   0  0  0  0  0  0  0  0  0  0  0  0
    0.1430   -0.7778   -0.2949 C   0  0  0  0  0  0  0  0  0  0  0  0
    1.5410   -1.3082    0.0006 C   0  0  2  0  0  0  0  0  0  0  0  0
    2.6687   -3.4794    0.2256 C   0  0  0  0  0  0  0  0  0  0  0  0
    3.7296   -2.9637    0.9776 C   0  0  0  0  0  0  0  0  0  0  0  0
    4.8164   -3.7663    1.3012 C   0  0  0  0  0  0  0  0  0  0  0  0
    4.8816   -5.0871    0.8852 C   0  0  0  0  0  0  0  0  0  0  0  0
    3.8317   -5.6015    0.1309 C   0  0  0  0  0  0  0  0  0  0  0  0
    2.7420   -4.8146   -0.1953 C   0  0  0  0  0  0  0  0  0  0  0  0
    2.5202   -0.6688   -0.9963 C   0  0  0  0  0  0  0  0  0  0  0  0
    4.0541    1.2060   -1.3687 C   0  0  0  0  0  0  0  0  0  0  0  0
    4.2197    2.5874   -0.8055 C   0  0  0  0  0  0  0  0  0  0  0  0
    5.3545    2.9615   -0.0997 C   0  0  0  0  0  0  0  0  0  0  0  0
    5.4407    4.2494    0.4081 C   0  0  0  0  0  0  0  0  0  0  0  0
    4.3810    5.1158    0.1922 C   0  0  0  0  0  0  0  0  0  0  0  0
    3.2167    3.5407   -0.9619 C   0  0  0  0  0  0  0  0  0  0  0  0
   -4.6264    0.2036    1.5958 N   0  0  0  0  0  0  0  0  0  0  0  0
    1.5405   -2.7407   -0.0792 N   0  0  0  0  0  0  0  0  0  0  0  0
    3.1255    0.4423   -0.5571 N   0  0  0  0  0  0  0  0  0  0  0  0
    3.2863    4.7730   -0.4801 N   0  0  0  0  0  0  0  0  0  0  0  0
   -6.3899    1.2282    0.7748 O   0  0  0  0  0  0  0  0  0  0  0  0
   -5.6469   -0.6654   -0.2312 O   0  0  0  0  0  0  0  0  0  0  0  0
    2.6838   -1.1354   -2.1115 O   0  0  0  0  0  0  0  0  0  0  0  0
   -1.0470   -1.5393    0.8464 S   0  0  0  0  0  0  0  0  0  0  0  0
   -8.8150    0.1428    0.9883 H   0  0  0  0  0  0  0  0  0  0  0  0
   -9.4383    0.6691   -0.5716 H   0  0  0  0  0  0  0  0  0  0  0  0
   -8.1801   -0.5595   -0.5076 H   0  0  0  0  0  0  0  0  0  0  0  0
   -7.8747    2.0928   -2.1354 H   0  0  0  0  0  0  0  0  0  0  0  0
   -6.2539    2.4862   -1.5718 H   0  0  0  0  0  0  0  0  0  0  0  0
   -6.6631    0.8220   -2.0164 H   0  0  0  0  0  0  0  0  0  0  0  0
   -8.4414    2.6258    1.4853 H   0  0  0  0  0  0  0  0  0  0  0  0
   -7.3927    3.5844    0.4304 H   0  0  0  0  0  0  0  0  0  0  0  0
   -8.9771    3.0580   -0.1367 H   0  0  0  0  0  0  0  0  0  0  0  0
   -3.9088   -1.7318    1.3606 H   0  0  0  0  0  0  0  0  0  0  0  0
   -3.1756   -0.7969    2.6503 H   0  0  0  0  0  0  0  0  0  0  0  0
   -2.7498   -0.3061   -0.3402 H   0  0  0  0  0  0  0  0  0  0  0  0
   -2.0304    0.6549    0.9615 H   0  0  0  0  0  0  0  0  0  0  0  0
    0.1256    0.3036   -0.1528 H   0  0  0  0  0  0  0  0  0  0  0  0
   -0.1407   -0.9876   -1.3288 H   0  0  0  0  0  0  0  0  0  0  0  0
    1.7968   -1.0037    1.0207 H   0  0  0  0  0  0  0  0  0  0  0  0
    3.7226   -1.9391    1.3250 H   0  0  0  0  0  0  0  0  0  0  0  0
    5.6231   -3.3413    1.8850 H   0  0  0  0  0  0  0  0  0  0  0  0
    5.7318   -5.7053    1.1406 H   0  0  0  0  0  0  0  0  0  0  0  0
    3.8612   -6.6288   -0.2099 H   0  0  0  0  0  0  0  0  0  0  0  0
    1.9319   -5.2332   -0.7814 H   0  0  0  0  0  0  0  0  0  0  0  0
    3.6675    1.2587   -2.3875 H   0  0  0  0  0  0  0  0  0  0  0  0
    5.0243    0.7045   -1.4205 H   0  0  0  0  0  0  0  0  0  0  0  0
    6.1620    2.2548    0.0497 H   0  0  0  0  0  0  0  0  0  0  0  0
    6.3105    4.5768    0.9606 H   0  0  0  0  0  0  0  0  0  0  0  0
    4.4170    6.1293    0.5755 H   0  0  0  0  0  0  0  0  0  0  0  0
    2.3149    3.2863   -1.5115 H   0  0  0  0  0  0  0  0  0  0  0  0
   -4.5819    0.9955    2.2163 H   0  0  0  0  0  0  0  0  0  0  0  0
    1.0095   -3.1089   -0.8547 H   0  0  0  0  0  0  0  0  0  0  0  0
    3.0134    0.7107    0.4079 H   0  0  0  0  0  0  0  0  0  0  0  0
 28  5  2  0
 21 20  1  0
 21 26  2  0
  1  2  1  0
 20 19  2  0
  4  2  1  0
 26 22  1  0
  5 27  1  0
  5 23  1  0
  2 27  1  1
  2  3  1  0
 19 18  1  0
 23  6  1  0
 22 18  2  0
 18 17  1  0
  6  7  1  0
  8 30  1  0
  8  9  1  0
 24  9  1  0
 24 10  1  0
 17 25  1  0
 30  7  1  0
 25 16  1  0
  9 16  1  0
 16 29  2  0
 11 10  2  0
 11 12  1  0
 10 15  1  0
 12 13  2  0
 15 14  2  0
 13 14  1  0
  1 31  1  0
  1 32  1  0
  1 33  1  0
  3 34  1  0
  3 35  1  0
  3 36  1  0
  4 37  1  0
  4 38  1  0
  4 39  1  0
  6 40  1  0
  6 41  1  0
  7 42  1  0
  7 43  1  0
  8 44  1  0
  8 45  1  0
  9 46  1  1
 11 47  1  0
 12 48  1  0
 13 49  1  0
 14 50  1  0
 15 51  1  0
 17 52  1  0
 17 53  1  0
 19 54  1  0
 20 55  1  0
 21 56  1  0
 22 57  1  0
 23 58  1  0
 24 59  1  0
 25 60  1  0
M  END
