
     RDKit          3D

 23 23  0  0  0  0  0  0  0  0999 V2000
    3.1264    0.5221   -0.8605 N   0  0  0  0  0  0  0  0  0  0  0  0
    2.2417   -0.1165   -0.1908 C   0  0  0  0  0  0  0  0  0  0  0  0
    2.5517   -1.3145    0.3868 N   0  0  0  0  0  0  0  0  0  0  0  0
    0.8693    0.3748    0.0167 C   0  0  0  0  0  0  0  0  0  0  0  0
   -0.2655   -0.3956    0.0782 N   0  0  0  0  0  0  0  0  0  0  0  0
   -0.3614   -1.8250   -0.1492 C   0  0  0  0  0  0  0  0  0  0  0  0
    0.5043    1.6867    0.2319 C   0  0  0  0  0  0  0  0  0  0  0  0
   -0.8879    1.7052    0.4375 C   0  0  0  0  0  0  0  0  0  0  0  0
   -1.3386    0.4080    0.3324 C   0  0  0  0  0  0  0  0  0  0  0  0
   -2.7404   -0.0955    0.4258 C   0  0  0  0  0  0  0  0  0  0  0  0
   -3.2456   -0.5148   -0.8773 N   0  0  0  0  0  0  0  0  0  0  0  0
    2.7101    1.3278   -1.3117 H   0  0  0  0  0  0  0  0  0  0  0  0
    3.5288   -1.5627    0.3786 H   0  0  0  0  0  0  0  0  0  0  0  0
    2.0744   -1.5712    1.2348 H   0  0  0  0  0  0  0  0  0  0  0  0
   -0.1887   -2.3898    0.7667 H   0  0  0  0  0  0  0  0  0  0  0  0
   -1.3542   -2.0510   -0.5261 H   0  0  0  0  0  0  0  0  0  0  0  0
    0.3652   -2.1380   -0.8927 H   0  0  0  0  0  0  0  0  0  0  0  0
    1.1814    2.5260    0.2711 H   0  0  0  0  0  0  0  0  0  0  0  0
   -1.5063    2.5654    0.6432 H   0  0  0  0  0  0  0  0  0  0  0  0
   -2.7898   -0.9560    1.0983 H   0  0  0  0  0  0  0  0  0  0  0  0
   -3.3368    0.6943    0.8980 H   0  0  0  0  0  0  0  0  0  0  0  0
   -4.1767   -0.8962   -0.7655 H   0  0  0  0  0  0  0  0  0  0  0  0
   -3.3443    0.2976   -1.4733 H   0  0  0  0  0  0  0  0  0  0  0  0
  1  2  2  0
  1 12  1  0
  2  3  1  0
  2  4  1  0
  3 13  1  0
  3 14  1  0
  4  5  1  0
  4  7  2  0
  5  6  1  0
  5  9  1  0
  6 15  1  0
  6 16  1  0
  6 17  1  0
  7  8  1  0
  7 18  1  0
  8  9  2  0
  8 19  1  0
  9 10  1  0
 10 11  1  0
 10 20  1  0
 10 21  1  0
 11 22  1  0
 11 23  1  0
M  END
