
     RDKit          3D

 41 40  0  0  0  0  0  0  0  0999 V2000
   -7.7822    1.6443   -0.1921 C   0  0  0  0  0  0  0  0  0  0  0  0
   -7.5075    0.4493    0.6603 C   0  0  0  0  0  0  0  0  0  0  0  0
   -6.3890   -0.2860    0.6952 C   0  0  0  0  0  0  0  0  0  0  0  0
   -5.1840   -0.0713   -0.0894 C   0  0  0  0  0  0  0  0  0  0  0  0
   -4.1050   -0.8572   -0.0114 C   0  0  0  0  0  0  0  0  0  0  0  0
   -2.8416   -0.6670   -0.7836 C   0  0  0  0  0  0  0  0  0  0  0  0
   -1.6182   -0.5285    0.1239 C   0  0  0  0  0  0  0  0  0  0  0  0
   -0.3165   -0.3850   -0.6540 C   0  0  0  0  0  0  0  0  0  0  0  0
    0.9085   -0.2891    0.2467 C   0  0  0  0  0  0  0  0  0  0  0  0
    2.2134   -0.1401   -0.5253 C   0  0  0  0  0  0  0  0  0  0  0  0
    3.4388   -0.0669    0.3772 C   0  0  0  0  0  0  0  0  0  0  0  0
    4.7440    0.0729   -0.3958 C   0  0  0  0  0  0  0  0  0  0  0  0
    5.9682    0.1365    0.5092 C   0  0  0  0  0  0  0  0  0  0  0  0
    7.2552    0.2668   -0.2810 C   0  0  0  0  0  0  0  0  0  0  0  0
    8.3462    0.3255    0.6143 O   0  0  0  0  0  0  0  0  0  0  0  0
   -6.9916    1.8553   -0.9100 H   0  0  0  0  0  0  0  0  0  0  0  0
   -8.7122    1.5117   -0.7490 H   0  0  0  0  0  0  0  0  0  0  0  0
   -7.9189    2.5368    0.4236 H   0  0  0  0  0  0  0  0  0  0  0  0
   -8.3158    0.1559    1.3226 H   0  0  0  0  0  0  0  0  0  0  0  0
   -6.3609   -1.1298    1.3785 H   0  0  0  0  0  0  0  0  0  0  0  0
   -5.1646    0.7733   -0.7719 H   0  0  0  0  0  0  0  0  0  0  0  0
   -4.1205   -1.7031    0.6740 H   0  0  0  0  0  0  0  0  0  0  0  0
   -2.6873   -1.5294   -1.4429 H   0  0  0  0  0  0  0  0  0  0  0  0
   -2.9252    0.2085   -1.4343 H   0  0  0  0  0  0  0  0  0  0  0  0
   -1.7504    0.3369    0.7814 H   0  0  0  0  0  0  0  0  0  0  0  0
   -1.5556   -1.4029    0.7809 H   0  0  0  0  0  0  0  0  0  0  0  0
   -0.2018   -1.2389   -1.3311 H   0  0  0  0  0  0  0  0  0  0  0  0
   -0.3703    0.5033   -1.2933 H   0  0  0  0  0  0  0  0  0  0  0  0
    0.7914    0.5590    0.9305 H   0  0  0  0  0  0  0  0  0  0  0  0
    0.9616   -1.1821    0.8797 H   0  0  0  0  0  0  0  0  0  0  0  0
    2.3243   -0.9824   -1.2174 H   0  0  0  0  0  0  0  0  0  0  0  0
    2.1667    0.7596   -1.1493 H   0  0  0  0  0  0  0  0  0  0  0  0
    3.3319    0.7776    1.0669 H   0  0  0  0  0  0  0  0  0  0  0  0
    3.4818   -0.9652    1.0032 H   0  0  0  0  0  0  0  0  0  0  0  0
    4.8458   -0.7699   -1.0883 H   0  0  0  0  0  0  0  0  0  0  0  0
    4.7020    0.9733   -1.0187 H   0  0  0  0  0  0  0  0  0  0  0  0
    5.8731    0.9854    1.1938 H   0  0  0  0  0  0  0  0  0  0  0  0
    6.0118   -0.7652    1.1291 H   0  0  0  0  0  0  0  0  0  0  0  0
    7.3457   -0.5879   -0.9654 H   0  0  0  0  0  0  0  0  0  0  0  0
    7.2044    1.1671   -0.9086 H   0  0  0  0  0  0  0  0  0  0  0  0
    9.1554    0.3762    0.0983 H   0  0  0  0  0  0  0  0  0  0  0  0
  1  2  1  0
  2  3  2  0
  3  4  1  0
  4  5  2  0
  5  6  1  0
  6  7  1  0
  7  8  1  0
  8  9  1  0
  9 10  1  0
 10 11  1  0
 11 12  1  0
 12 13  1  0
 13 14  1  0
 14 15  1  0
  1 16  1  0
  1 17  1  0
  1 18  1  0
  2 19  1  0
  3 20  1  0
  4 21  1  0
  5 22  1  0
  6 23  1  0
  6 24  1  0
  7 25  1  0
  7 26  1  0
  8 27  1  0
  8 28  1  0
  9 29  1  0
  9 30  1  0
 10 31  1  0
 10 32  1  0
 11 33  1  0
 11 34  1  0
 12 35  1  0
 12 36  1  0
 13 37  1  0
 13 38  1  0
 14 39  1  0
 14 40  1  0
 15 41  1  0
M  END
