
     RDKit          3D

 48 50  0  0  0  0  0  0  0  0999 V2000
    6.4644    1.6268   -2.5092 C   0  0  0  0  0  0  0  0  0  0  0  0
    6.2818   -1.1924    1.5379 C   0  0  0  0  0  0  0  0  0  0  0  0
   -4.9209    2.4496    2.5823 C   0  0  0  0  0  0  0  0  0  0  0  0
   -7.4227    0.0809   -1.1032 C   0  0  0  0  0  0  0  0  0  0  0  0
   -1.2780   -0.9175    0.7991 C   0  0  0  0  0  0  0  0  0  0  0  0
   -6.2169    1.2116    0.8039 C   0  0  0  0  0  0  0  0  0  0  0  0
   -3.7375    1.3544    0.6623 C   0  0  0  0  0  0  0  0  0  0  0  0
   -4.9224    0.2090   -1.0788 C   0  0  0  0  0  0  0  0  0  0  0  0
    3.2360   -0.4930    0.3902 C   0  0  0  0  0  0  0  0  0  0  0  0
    6.0034    0.8106   -1.3677 C   0  0  0  0  0  0  0  0  0  0  0  0
   -1.3030   -0.1677   -0.3296 C   0  0  0  0  0  0  0  0  0  0  0  0
    5.8179   -0.4010    0.3740 C   0  0  0  0  0  0  0  0  0  0  0  0
    0.8729   -0.2781   -0.0658 C   0  0  0  0  0  0  0  0  0  0  0  0
    4.5643   -0.1272   -0.0775 C   0  0  0  0  0  0  0  0  0  0  0  0
   -4.9252    1.2771    1.6113 C   0  0  1  0  0  0  0  0  0  0  0  0
   -6.1787    0.0876   -0.2252 C   0  0  2  0  0  0  0  0  0  0  0  0
    6.7139    0.2107   -0.4699 N   0  0  0  0  0  0  0  0  0  0  0  0
   -0.0733    0.1911   -0.8130 N   0  0  0  0  0  0  0  0  0  0  0  0
    2.1940   -0.0375   -0.3586 N   0  0  0  0  0  0  0  0  0  0  0  0
   -3.7171    0.2384   -0.2682 N   0  0  0  0  0  0  0  0  0  0  0  0
    3.0578   -1.1665    1.3923 O   0  0  0  0  0  0  0  0  0  0  0  0
    4.6918    0.6474   -1.1927 O   0  0  0  0  0  0  0  0  0  0  0  0
    0.3475   -1.1986    1.2990 S   0  0  0  0  0  0  0  0  0  0  0  0
    6.0519    1.2565   -3.4475 H   0  0  0  0  0  0  0  0  0  0  0  0
    6.1503    2.6650   -2.3949 H   0  0  0  0  0  0  0  0  0  0  0  0
    7.5487    1.5960   -2.5645 H   0  0  0  0  0  0  0  0  0  0  0  0
    6.9580   -1.9822    1.2090 H   0  0  0  0  0  0  0  0  0  0  0  0
    6.8392   -0.5562    2.2268 H   0  0  0  0  0  0  0  0  0  0  0  0
    5.4560   -1.6445    2.0769 H   0  0  0  0  0  0  0  0  0  0  0  0
   -5.7703    2.3947    3.2644 H   0  0  0  0  0  0  0  0  0  0  0  0
   -4.0106    2.4647    3.1844 H   0  0  0  0  0  0  0  0  0  0  0  0
   -4.9835    3.4020    2.0508 H   0  0  0  0  0  0  0  0  0  0  0  0
   -8.3281   -0.0226   -0.5030 H   0  0  0  0  0  0  0  0  0  0  0  0
   -7.5072    1.0123   -1.6683 H   0  0  0  0  0  0  0  0  0  0  0  0
   -2.1145   -1.3063    1.3571 H   0  0  0  0  0  0  0  0  0  0  0  0
   -7.0762    1.0874    1.4700 H   0  0  0  0  0  0  0  0  0  0  0  0
   -6.3609    2.1691    0.2855 H   0  0  0  0  0  0  0  0  0  0  0  0
   -2.3386    1.2347   -1.5492 H   0  0  0  0  0  0  0  0  0  0  0  0
   -2.6659   -0.4482   -1.9177 H   0  0  0  0  0  0  0  0  0  0  0  0
   -3.7713    2.3188    0.1197 H   0  0  0  0  0  0  0  0  0  0  0  0
   -2.8095    1.3522    1.2386 H   0  0  0  0  0  0  0  0  0  0  0  0
   -4.8612   -0.6437   -1.7615 H   0  0  0  0  0  0  0  0  0  0  0  0
   -5.0063    1.1140   -1.7099 H   0  0  0  0  0  0  0  0  0  0  0  0
   -4.8305    0.3486    2.1873 H   0  0  0  0  0  0  0  0  0  0  0  0
   -6.1244   -0.8671    0.3123 H   0  0  0  0  0  0  0  0  0  0  0  0
    2.3550    0.5184   -1.1876 H   0  0  0  0  0  0  0  0  0  0  0  0
   -2.5263    0.2510   -1.0870 C   0  0  0  0  0  0  0  0  0  0  0  0
   -7.4026   -0.7426   -1.8189 H   0  0  0  0  0  0  0  0  0  0  0  0
  1 10  1  0
 10 17  2  0
 10 22  1  0
 17 12  1  0
 22 14  1  0
 12 14  2  0
 12  2  1  0
 14  9  1  0
 19  9  1  0
 19 13  1  0
  9 21  2  0
 18 13  2  0
 18 11  1  0
 13 23  1  0
 47 11  1  0
 47 20  1  0
  8 20  1  0
  8 16  1  0
 11  5  2  0
  4 16  1  0
 20  7  1  0
 16  6  1  0
 23  5  1  0
  7 15  1  0
  6 15  1  0
 15  3  1  0
  1 24  1  0
  1 25  1  0
  1 26  1  0
  2 27  1  0
  2 28  1  0
  2 29  1  0
  3 30  1  0
  3 31  1  0
  3 32  1  0
  4 48  1  0
  4 33  1  0
  4 34  1  0
  5 35  1  0
  6 36  1  0
  6 37  1  0
 47 38  1  0
 47 39  1  0
  7 40  1  0
  7 41  1  0
  8 42  1  0
  8 43  1  0
 15 44  1  1
 16 45  1  1
 19 46  1  0
M  END
