
     RDKit          3D

 42 45  0  0  0  0  0  0  0  0999 V2000
   -0.1437   -2.0456   -0.3809 C   0  0  0  0  0  0  0  0  0  0  0  0
    2.3904   -0.3743   -1.2411 C   0  0  0  0  0  0  0  0  0  0  0  0
    2.6853    2.0243   -1.1307 C   0  0  0  0  0  0  0  0  0  0  0  0
    3.2184   -0.4984   -0.1332 C   0  0  0  0  0  0  0  0  0  0  0  0
    1.3747   -3.6608   -0.5553 C   0  0  0  0  0  0  0  0  0  0  0  0
    0.4467   -4.1323    0.3265 C   0  0  0  0  0  0  0  0  0  0  0  0
   -4.0255    0.7837    0.8863 C   0  0  0  0  0  0  0  0  0  0  0  0
   -4.3898    2.0385    0.4346 C   0  0  0  0  0  0  0  0  0  0  0  0
   -3.4795    2.3752   -0.4973 N   0  0  0  0  0  0  0  0  0  0  0  0
   -2.5426    1.4344   -0.6857 N   0  0  0  0  0  0  0  0  0  0  0  0
   -2.8650    0.4615    0.1473 C   0  0  0  0  0  0  0  0  0  0  0  0
   -2.0557   -0.7587    0.2340 C   0  0  0  0  0  0  0  0  0  0  0  0
   -2.4658   -1.8196    1.0686 C   0  0  0  0  0  0  0  0  0  0  0  0
   -1.7301   -2.9800    1.1849 C   0  0  0  0  0  0  0  0  0  0  0  0
   -0.5436   -3.1118    0.4560 C   0  0  0  0  0  0  0  0  0  0  0  0
    1.0263   -2.4101   -0.9905 N   0  0  0  0  0  0  0  0  0  0  0  0
    1.7920   -1.5895   -1.9024 C   0  0  0  0  0  0  0  0  0  0  0  0
    2.1338    0.9042   -1.7274 C   0  0  0  0  0  0  0  0  0  0  0  0
    3.5154    1.8876   -0.0179 C   0  0  0  0  0  0  0  0  0  0  0  0
    4.0097    3.0259    0.5048 O   0  0  0  0  0  0  0  0  0  0  0  0
    4.8817    2.9371    1.6140 C   0  0  0  0  0  0  0  0  0  0  0  0
    3.7806    0.6125    0.4809 C   0  0  0  0  0  0  0  0  0  0  0  0
   -0.8818   -0.8736   -0.4996 C   0  0  0  0  0  0  0  0  0  0  0  0
    2.4740    3.0118   -1.5217 H   0  0  0  0  0  0  0  0  0  0  0  0
    3.4369   -1.4793    0.2729 H   0  0  0  0  0  0  0  0  0  0  0  0
    2.2756   -4.1287   -0.9217 H   0  0  0  0  0  0  0  0  0  0  0  0
    0.4674   -5.0912    0.8192 H   0  0  0  0  0  0  0  0  0  0  0  0
   -4.5265    0.2025    1.6423 H   0  0  0  0  0  0  0  0  0  0  0  0
   -5.8913    2.6107    1.6250 H   0  0  0  0  0  0  0  0  0  0  0  0
   -5.3032    3.8250    0.6647 H   0  0  0  0  0  0  0  0  0  0  0  0
   -3.4448    3.2276   -1.0329 H   0  0  0  0  0  0  0  0  0  0  0  0
   -3.3831   -1.7256    1.6356 H   0  0  0  0  0  0  0  0  0  0  0  0
   -2.0710   -3.7774    1.8335 H   0  0  0  0  0  0  0  0  0  0  0  0
    1.1586   -1.2874   -2.7401 H   0  0  0  0  0  0  0  0  0  0  0  0
    2.5748   -2.2229   -2.3216 H   0  0  0  0  0  0  0  0  0  0  0  0
    1.4874    1.0323   -2.5882 H   0  0  0  0  0  0  0  0  0  0  0  0
    4.3973    2.4818    2.4817 H   0  0  0  0  0  0  0  0  0  0  0  0
    5.7854    2.3697    1.3770 H   0  0  0  0  0  0  0  0  0  0  0  0
    5.1648    3.9556    1.8675 H   0  0  0  0  0  0  0  0  0  0  0  0
    4.4214    0.4648    1.3393 H   0  0  0  0  0  0  0  0  0  0  0  0
   -0.5575   -0.0609   -1.1362 H   0  0  0  0  0  0  0  0  0  0  0  0
   -5.4687    2.8322    0.7374 N   0  0  0  0  0  0  0  0  0  0  0  0
  9 10  1  0
  9  8  1  0
 42  8  1  0
 10 11  2  0
  8  7  2  0
 11  7  1  0
 11 12  1  0
 12 13  2  0
 12 23  1  0
 13 14  1  0
 23  1  2  0
 14 15  2  0
  1 15  1  0
  1 16  1  0
 15  6  1  0
 16 17  1  0
 16  5  1  0
 17  2  1  0
  6  5  2  0
  2  4  2  0
  2 18  1  0
  4 22  1  0
 18  3  2  0
 22 19  2  0
  3 19  1  0
 19 20  1  0
 20 21  1  0
  3 24  1  0
  4 25  1  0
  5 26  1  0
  6 27  1  0
  7 28  1  0
 42 29  1  0
 42 30  1  0
  9 31  1  0
 13 32  1  0
 14 33  1  0
 17 34  1  0
 17 35  1  0
 18 36  1  0
 21 37  1  0
 21 38  1  0
 21 39  1  0
 22 40  1  0
 23 41  1  0
M  END
