
     RDKit          3D

 25 25  0  0  0  0  0  0  0  0999 V2000
   -2.0604   -1.8618   -1.0007 O   0  0  0  0  0  0  0  0  0  0  0  0
   -0.6971   -1.8618   -1.0007 C   0  0  2  0  0  0  0  0  0  0  0  0
   -0.2058   -1.8618    0.4335 C   0  0  0  0  0  0  0  0  0  0  0  0
   -0.5180   -0.5950    1.1271 C   0  0  1  0  0  0  0  0  0  0  0  0
    0.1194   -0.6071    2.4362 O   0  0  0  0  0  0  0  0  0  0  0  0
   -0.0307    0.5998    0.3629 C   0  0  1  0  0  0  0  0  0  0  0  0
    1.4049    0.5971    0.3638 O   0  0  0  0  0  0  0  0  0  0  0  0
    1.9760    1.5691    1.2049 C   0  0  0  0  0  0  0  0  0  0  0  0
   -0.5225    0.5959   -1.0798 C   0  0  2  0  0  0  0  0  0  0  0  0
   -0.2099   -0.6619   -1.7661 O   0  0  0  0  0  0  0  0  0  0  0  0
    0.1313    1.7300   -1.8201 C   0  0  0  0  0  0  0  0  0  0  0  0
   -2.3748   -2.5566   -1.5552 H   0  0  0  0  0  0  0  0  0  0  0  0
   -0.3406   -2.7587   -1.4926 H   0  0  0  0  0  0  0  0  0  0  0  0
    0.8676   -2.0074    0.4362 H   0  0  0  0  0  0  0  0  0  0  0  0
   -0.6784   -2.6785    0.9658 H   0  0  0  0  0  0  0  0  0  0  0  0
   -1.5914   -0.5182    1.2523 H   0  0  0  0  0  0  0  0  0  0  0  0
   -0.5194   -0.8239    3.0950 H   0  0  0  0  0  0  0  0  0  0  0  0
   -0.3869    1.4982    0.8523 H   0  0  0  0  0  0  0  0  0  0  0  0
    2.8315    1.1458    1.7173 H   0  0  0  0  0  0  0  0  0  0  0  0
    2.2941    2.4180    0.6118 H   0  0  0  0  0  0  0  0  0  0  0  0
    1.2424    1.8924    1.9336 H   0  0  0  0  0  0  0  0  0  0  0  0
   -1.5963    0.7393   -1.0839 H   0  0  0  0  0  0  0  0  0  0  0  0
    1.1813    1.5077   -1.9669 H   0  0  0  0  0  0  0  0  0  0  0  0
   -0.3489    1.8573   -2.7828 H   0  0  0  0  0  0  0  0  0  0  0  0
    0.0324    2.6420   -1.2438 H   0  0  0  0  0  0  0  0  0  0  0  0
  1  2  1  0
  1 12  1  0
  2  3  1  0
  2 10  1  0
  2 13  1  6
  3  4  1  0
  3 14  1  0
  3 15  1  0
  4  5  1  0
  4  6  1  0
  4 16  1  1
  5 17  1  0
  6  7  1  0
  6  9  1  0
  6 18  1  1
  7  8  1  0
  8 19  1  0
  8 20  1  0
  8 21  1  0
  9 10  1  0
  9 11  1  0
  9 22  1  1
 11 23  1  0
 11 24  1  0
 11 25  1  0
M  END
