
     RDKit          3D

189191  0  0  0  0  0  0  0  0999 V2000
   19.2821   -1.7218    0.6901 N   0  0  0  0  0  0  0  0  0  0  0  0
   20.3707   -2.4218    0.2704 C   0  0  0  0  0  0  0  0  0  0  0  0
   20.9564   -2.4584   -0.9470 N   0  0  0  0  0  0  0  0  0  0  0  0
   20.3261   -1.6519   -1.8511 C   0  0  0  0  0  0  0  0  0  0  0  0
   19.1435   -0.8408   -1.5458 C   0  0  0  0  0  0  0  0  0  0  0  0
   18.6441   -0.9001   -0.2010 C   0  0  0  0  0  0  0  0  0  0  0  0
   17.5926   -0.0631    0.2192 N   0  0  0  0  0  0  0  0  0  0  0  0
   18.7675   -0.1258   -2.6928 N   0  0  0  0  0  0  0  0  0  0  0  0
   19.6526   -0.4722   -3.6392 C   0  0  0  0  0  0  0  0  0  0  0  0
   20.6230   -1.3929   -3.1939 N   0  0  0  0  0  0  0  0  0  0  0  0
   16.3482    1.1353    2.0242 C   0  0  0  0  0  0  0  0  0  0  0  0
   15.4379    1.1152   -0.2118 C   0  0  0  0  0  0  0  0  0  0  0  0
   17.3178   -0.0085    1.6504 C   0  0  0  0  0  0  0  0  0  0  0  0
   16.3920   -0.0406   -0.6013 C   0  0  0  0  0  0  0  0  0  0  0  0
   15.1598    1.1867    1.2007 N   0  0  0  0  0  0  0  0  0  0  0  0
    5.2672   -0.9164   -0.3171 O   0  0  0  0  0  0  0  0  0  0  0  0
   13.8000    0.7549    2.9857 O   0  0  0  0  0  0  0  0  0  0  0  0
    8.9449    0.4744    1.5415 C   0  0  0  0  0  0  0  0  0  0  0  0
   10.2185    0.6352    0.7389 C   0  0  0  0  0  0  0  0  0  0  0  0
    7.7358    0.4085    0.6334 C   0  0  0  0  0  0  0  0  0  0  0  0
   11.4268    0.7015    1.6474 C   0  0  0  0  0  0  0  0  0  0  0  0
    6.4649    0.2311    1.4385 C   0  0  0  0  0  0  0  0  0  0  0  0
   12.7010    0.8397    0.8406 C   0  0  0  0  0  0  0  0  0  0  0  0
    5.2854    0.0188    0.5079 C   0  0  0  0  0  0  0  0  0  0  0  0
   13.9125    0.8987    1.7515 C   0  0  0  0  0  0  0  0  0  0  0  0
    4.2330    0.9148    0.5896 N   0  0  0  0  0  0  0  0  0  0  0  0
    3.0196    0.7495   -0.1635 C   0  0  2  0  0  0  0  0  0  0  0  0
    2.6037    2.0020   -0.9543 C   0  0  0  0  0  0  0  0  0  0  0  0
    3.5974    2.3283   -2.0461 C   0  0  0  0  0  0  0  0  0  0  0  0
    3.0768    3.4990   -2.8819 C   0  0  0  0  0  0  0  0  0  0  0  0
    4.0259    3.9446   -3.8866 N   0  0  0  0  0  0  0  0  0  0  0  0
    3.4454    4.6342   -5.0175 C   0  0  0  0  0  0  0  0  0  0  0  0
    2.5584    5.7117   -4.7009 N   0  0  0  0  0  0  0  0  0  0  0  0
    3.7511    4.2350   -6.2273 N   0  0  0  0  0  0  0  0  0  0  0  0
    1.8276    0.4256    0.7779 C   0  0  0  0  0  0  0  0  0  0  0  0
    1.7213    0.9627    1.8981 O   0  0  0  0  0  0  0  0  0  0  0  0
    0.9147   -0.5074    0.3246 N   0  0  0  0  0  0  0  0  0  0  0  0
   -0.3140   -0.7727    1.0286 C   0  0  2  0  0  0  0  0  0  0  0  0
   -0.6890   -2.2642    1.0437 C   0  0  0  0  0  0  0  0  0  0  0  0
    0.3239   -3.0860    1.8096 C   0  0  0  0  0  0  0  0  0  0  0  0
   -0.1772   -4.5277    1.9283 C   0  0  0  0  0  0  0  0  0  0  0  0
    0.7431   -5.3626    2.6760 N   0  0  0  0  0  0  0  0  0  0  0  0
    0.4104   -6.7598    2.7924 C   0  0  0  0  0  0  0  0  0  0  0  0
    1.4303   -7.5669    3.4036 N   0  0  0  0  0  0  0  0  0  0  0  0
   -0.7375   -7.2139    2.3523 N   0  0  0  0  0  0  0  0  0  0  0  0
   -1.5095   -0.0187    0.3856 C   0  0  0  0  0  0  0  0  0  0  0  0
   -1.5171    0.2887   -0.8231 O   0  0  0  0  0  0  0  0  0  0  0  0
   -2.5555    0.3077    1.2224 N   0  0  0  0  0  0  0  0  0  0  0  0
   -3.7650    0.9255    0.7451 C   0  0  2  0  0  0  0  0  0  0  0  0
   -4.2262    2.1172    1.6013 C   0  0  0  0  0  0  0  0  0  0  0  0
   -3.2321    3.2553    1.5494 C   0  0  0  0  0  0  0  0  0  0  0  0
   -3.7817    4.4570    2.3225 C   0  0  0  0  0  0  0  0  0  0  0  0
   -2.8609    5.5771    2.3037 N   0  0  0  0  0  0  0  0  0  0  0  0
   -3.2064    6.7356    3.0789 C   0  0  0  0  0  0  0  0  0  0  0  0
   -2.1544    7.7009    3.2201 N   0  0  0  0  0  0  0  0  0  0  0  0
   -4.4034    6.8596    3.6043 N   0  0  0  0  0  0  0  0  0  0  0  0
   -4.9336   -0.0974    0.7594 C   0  0  0  0  0  0  0  0  0  0  0  0
   -5.1146   -0.8519    1.7354 O   0  0  0  0  0  0  0  0  0  0  0  0
   -5.7478   -0.1369   -0.3507 N   0  0  0  0  0  0  0  0  0  0  0  0
   -6.8940   -1.0027   -0.4393 C   0  0  2  0  0  0  0  0  0  0  0  0
   -6.9879   -1.7750   -1.7653 C   0  0  0  0  0  0  0  0  0  0  0  0
   -5.8369   -2.7394   -1.9391 C   0  0  0  0  0  0  0  0  0  0  0  0
   -6.0736   -3.5999   -3.1817 C   0  0  0  0  0  0  0  0  0  0  0  0
   -5.0168   -4.5703   -3.4061 N   0  0  0  0  0  0  0  0  0  0  0  0
   -4.9400   -5.0786   -4.7597 C   0  0  0  0  0  0  0  0  0  0  0  0
   -6.1457   -5.6541   -5.2726 N   0  0  0  0  0  0  0  0  0  0  0  0
   -3.8117   -4.9713   -5.4157 N   0  0  0  0  0  0  0  0  0  0  0  0
   -8.1998   -0.1668   -0.3392 C   0  0  0  0  0  0  0  0  0  0  0  0
   -8.3932    0.8043   -1.0977 O   0  0  0  0  0  0  0  0  0  0  0  0
   -9.1287   -0.5602    0.5953 N   0  0  0  0  0  0  0  0  0  0  0  0
  -10.3586    0.1581    0.8142 C   0  0  2  0  0  0  0  0  0  0  0  0
  -10.3470    1.0589    2.0630 C   0  0  0  0  0  0  0  0  0  0  0  0
   -9.4927    2.2865    1.8364 C   0  0  0  0  0  0  0  0  0  0  0  0
   -9.2908    3.0279    3.1594 C   0  0  0  0  0  0  0  0  0  0  0  0
   -8.4155    4.1730    3.0075 N   0  0  0  0  0  0  0  0  0  0  0  0
   -8.1662    4.9714    4.1815 C   0  0  0  0  0  0  0  0  0  0  0  0
   -7.4297    6.1801    3.9379 N   0  0  0  0  0  0  0  0  0  0  0  0
   -8.6161    4.5895    5.3530 N   0  0  0  0  0  0  0  0  0  0  0  0
  -11.5274   -0.8429    0.9982 C   0  0  0  0  0  0  0  0  0  0  0  0
  -11.3786   -1.9094    1.6318 O   0  0  0  0  0  0  0  0  0  0  0  0
  -12.7385   -0.4965    0.4484 N   0  0  0  0  0  0  0  0  0  0  0  0
  -13.9002   -1.3475    0.5350 C   0  0  2  0  0  0  0  0  0  0  0  0
  -14.8953   -1.1235   -0.6109 C   0  0  0  0  0  0  0  0  0  0  0  0
  -14.3086   -1.5074   -1.9504 C   0  0  0  0  0  0  0  0  0  0  0  0
  -15.3912   -1.4044   -3.0278 C   0  0  0  0  0  0  0  0  0  0  0  0
  -14.8667   -1.6785   -4.3521 N   0  0  0  0  0  0  0  0  0  0  0  0
  -15.8096   -1.6783   -5.4421 C   0  0  0  0  0  0  0  0  0  0  0  0
  -15.2590   -2.0894   -6.7045 N   0  0  0  0  0  0  0  0  0  0  0  0
  -17.0593   -1.3357   -5.2478 N   0  0  0  0  0  0  0  0  0  0  0  0
  -14.6547   -1.1480    1.8764 C   0  0  0  0  0  0  0  0  0  0  0  0
  -15.7984   -0.6528    1.9126 O   0  0  0  0  0  0  0  0  0  0  0  0
  -14.0141   -1.5433    3.0165 N   0  0  0  0  0  0  0  0  0  0  0  0
   20.8400   -3.0632    1.0481 H   0  0  0  0  0  0  0  0  0  0  0  0
   19.6565   -0.0946   -4.6692 H   0  0  0  0  0  0  0  0  0  0  0  0
   21.3648   -1.7836   -3.7116 H   0  0  0  0  0  0  0  0  0  0  0  0
   16.0618    1.0027    3.1058 H   0  0  0  0  0  0  0  0  0  0  0  0
   16.8825    2.1217    1.9110 H   0  0  0  0  0  0  0  0  0  0  0  0
   15.9144    2.0925   -0.5159 H   0  0  0  0  0  0  0  0  0  0  0  0
   14.4957    0.9853   -0.8101 H   0  0  0  0  0  0  0  0  0  0  0  0
   16.8939   -0.9868    2.0180 H   0  0  0  0  0  0  0  0  0  0  0  0
   18.2836    0.1837    2.1966 H   0  0  0  0  0  0  0  0  0  0  0  0
   16.6597    0.1107   -1.6813 H   0  0  0  0  0  0  0  0  0  0  0  0
   15.8362   -1.0190   -0.5077 H   0  0  0  0  0  0  0  0  0  0  0  0
    9.0058   -0.4612    2.1581 H   0  0  0  0  0  0  0  0  0  0  0  0
    8.8380    1.3345    2.2541 H   0  0  0  0  0  0  0  0  0  0  0  0
   10.3247   -0.2268    0.0283 H   0  0  0  0  0  0  0  0  0  0  0  0
   10.1577    1.5692    0.1201 H   0  0  0  0  0  0  0  0  0  0  0  0
    7.6688    1.3478    0.0239 H   0  0  0  0  0  0  0  0  0  0  0  0
    7.8409   -0.4488   -0.0844 H   0  0  0  0  0  0  0  0  0  0  0  0
   11.3344    1.5706    2.3508 H   0  0  0  0  0  0  0  0  0  0  0  0
   11.4852   -0.2225    2.2815 H   0  0  0  0  0  0  0  0  0  0  0  0
    6.5429   -0.6874    2.0803 H   0  0  0  0  0  0  0  0  0  0  0  0
    6.3189    1.1095    2.1188 H   0  0  0  0  0  0  0  0  0  0  0  0
   12.8071   -0.0393    0.1506 H   0  0  0  0  0  0  0  0  0  0  0  0
   12.6529    1.7710    0.2166 H   0  0  0  0  0  0  0  0  0  0  0  0
    4.2124    1.5869    1.3209 H   0  0  0  0  0  0  0  0  0  0  0  0
    3.1821   -0.1022   -0.8942 H   0  0  0  0  0  0  0  0  0  0  0  0
    1.5957    1.8018   -1.4068 H   0  0  0  0  0  0  0  0  0  0  0  0
    2.4949    2.8748   -0.2584 H   0  0  0  0  0  0  0  0  0  0  0  0
    4.5898    2.5910   -1.5948 H   0  0  0  0  0  0  0  0  0  0  0  0
    3.7526    1.4294   -2.6996 H   0  0  0  0  0  0  0  0  0  0  0  0
    2.0873    3.2009   -3.3359 H   0  0  0  0  0  0  0  0  0  0  0  0
    2.8819    4.3728   -2.1954 H   0  0  0  0  0  0  0  0  0  0  0  0
    4.6249    3.1966   -4.1894 H   0  0  0  0  0  0  0  0  0  0  0  0
    2.6193    6.0512   -3.7663 H   0  0  0  0  0  0  0  0  0  0  0  0
    2.5731    6.4487   -5.3715 H   0  0  0  0  0  0  0  0  0  0  0  0
    3.4128    4.8032   -6.9721 H   0  0  0  0  0  0  0  0  0  0  0  0
    0.9268   -0.7596   -0.6383 H   0  0  0  0  0  0  0  0  0  0  0  0
   -0.1771   -0.4183    2.0968 H   0  0  0  0  0  0  0  0  0  0  0  0
   -1.6965   -2.3629    1.5291 H   0  0  0  0  0  0  0  0  0  0  0  0
   -0.7810   -2.6484   -0.0061 H   0  0  0  0  0  0  0  0  0  0  0  0
    1.3129   -3.0634    1.2813 H   0  0  0  0  0  0  0  0  0  0  0  0
    0.4777   -2.6460    2.8298 H   0  0  0  0  0  0  0  0  0  0  0  0
   -1.1635   -4.5326    2.4743 H   0  0  0  0  0  0  0  0  0  0  0  0
   -0.3645   -4.9284    0.8892 H   0  0  0  0  0  0  0  0  0  0  0  0
    1.6897   -5.2333    2.3702 H   0  0  0  0  0  0  0  0  0  0  0  0
    2.1160   -7.0643    3.9240 H   0  0  0  0  0  0  0  0  0  0  0  0
    1.0641   -8.3359    3.9219 H   0  0  0  0  0  0  0  0  0  0  0  0
   -0.9263   -8.1714    2.5532 H   0  0  0  0  0  0  0  0  0  0  0  0
   -2.5673   -0.0320    2.1563 H   0  0  0  0  0  0  0  0  0  0  0  0
   -3.5708    1.2896   -0.3101 H   0  0  0  0  0  0  0  0  0  0  0  0
   -5.2182    2.4601    1.2033 H   0  0  0  0  0  0  0  0  0  0  0  0
   -4.3853    1.7876    2.6618 H   0  0  0  0  0  0  0  0  0  0  0  0
   -2.2549    2.9284    1.9930 H   0  0  0  0  0  0  0  0  0  0  0  0
   -3.0377    3.5413    0.4822 H   0  0  0  0  0  0  0  0  0  0  0  0
   -4.7448    4.7964    1.8452 H   0  0  0  0  0  0  0  0  0  0  0  0
   -4.0237    4.1281    3.3752 H   0  0  0  0  0  0  0  0  0  0  0  0
   -1.9153    5.2840    2.4632 H   0  0  0  0  0  0  0  0  0  0  0  0
   -1.4115    7.6293    2.5606 H   0  0  0  0  0  0  0  0  0  0  0  0
   -2.4813    8.6373    3.3168 H   0  0  0  0  0  0  0  0  0  0  0  0
   -4.5870    7.7353    4.0434 H   0  0  0  0  0  0  0  0  0  0  0  0
   -5.6176    0.5123   -1.0911 H   0  0  0  0  0  0  0  0  0  0  0  0
   -6.8293   -1.7488    0.4109 H   0  0  0  0  0  0  0  0  0  0  0  0
   -7.9588   -2.3384   -1.7574 H   0  0  0  0  0  0  0  0  0  0  0  0
   -7.0245   -1.0532   -2.6238 H   0  0  0  0  0  0  0  0  0  0  0  0
   -4.8750   -2.1720   -2.0443 H   0  0  0  0  0  0  0  0  0  0  0  0
   -5.7450   -3.3930   -1.0319 H   0  0  0  0  0  0  0  0  0  0  0  0
   -7.0350   -4.1738   -3.0446 H   0  0  0  0  0  0  0  0  0  0  0  0
   -6.2145   -2.9148   -4.0679 H   0  0  0  0  0  0  0  0  0  0  0  0
   -4.1242   -4.2207   -3.1032 H   0  0  0  0  0  0  0  0  0  0  0  0
   -6.8287   -5.8872   -4.5853 H   0  0  0  0  0  0  0  0  0  0  0  0
   -5.9863   -6.4022   -5.9120 H   0  0  0  0  0  0  0  0  0  0  0  0
   -3.7760   -5.4264   -6.3009 H   0  0  0  0  0  0  0  0  0  0  0  0
   -8.9275   -1.3025    1.2262 H   0  0  0  0  0  0  0  0  0  0  0  0
  -10.5377    0.8109   -0.0951 H   0  0  0  0  0  0  0  0  0  0  0  0
  -11.4012    1.3697    2.2869 H   0  0  0  0  0  0  0  0  0  0  0  0
   -9.9732    0.4804    2.9485 H   0  0  0  0  0  0  0  0  0  0  0  0
   -8.4998    1.9908    1.4051 H   0  0  0  0  0  0  0  0  0  0  0  0
   -9.9898    2.9561    1.0858 H   0  0  0  0  0  0  0  0  0  0  0  0
  -10.3029    3.3168    3.5681 H   0  0  0  0  0  0  0  0  0  0  0  0
   -8.8144    2.3282    3.9042 H   0  0  0  0  0  0  0  0  0  0  0  0
   -8.6826    4.7406    2.2252 H   0  0  0  0  0  0  0  0  0  0  0  0
   -6.9219    6.1950    3.0780 H   0  0  0  0  0  0  0  0  0  0  0  0
   -6.8404    6.4318    4.7040 H   0  0  0  0  0  0  0  0  0  0  0  0
   -8.3222    5.1474    6.1244 H   0  0  0  0  0  0  0  0  0  0  0  0
  -12.8471    0.3794   -0.0053 H   0  0  0  0  0  0  0  0  0  0  0  0
  -13.5451   -2.4244    0.5017 H   0  0  0  0  0  0  0  0  0  0  0  0
  -15.8025   -1.7485   -0.3915 H   0  0  0  0  0  0  0  0  0  0  0  0
  -15.2363   -0.0549   -0.6220 H   0  0  0  0  0  0  0  0  0  0  0  0
  -13.4504   -0.8325   -2.2058 H   0  0  0  0  0  0  0  0  0  0  0  0
  -13.9091   -2.5548   -1.9034 H   0  0  0  0  0  0  0  0  0  0  0  0
  -16.2371   -2.1004   -2.7535 H   0  0  0  0  0  0  0  0  0  0  0  0
  -15.8067   -0.3565   -3.0338 H   0  0  0  0  0  0  0  0  0  0  0  0
  -14.2990   -2.5054   -4.3592 H   0  0  0  0  0  0  0  0  0  0  0  0
  -14.2653   -2.0459   -6.7685 H   0  0  0  0  0  0  0  0  0  0  0  0
  -15.6979   -1.6509   -7.4851 H   0  0  0  0  0  0  0  0  0  0  0  0
  -17.6213   -1.2744   -6.0682 H   0  0  0  0  0  0  0  0  0  0  0  0
  -13.1164   -1.9625    2.9796 H   0  0  0  0  0  0  0  0  0  0  0  0
  -14.4696   -1.4539    3.8905 H   0  0  0  0  0  0  0  0  0  0  0  0
  1  2  2  0
  1  6  1  0
  2  3  1  0
  3  4  2  0
  4  5  1  0
  4 10  1  0
  5  6  2  0
  5  8  1  0
  6  7  1  0
  7 13  1  0
  7 14  1  0
  8  9  2  0
  9 10  1  0
 11 13  1  0
 11 15  1  0
 12 14  1  0
 12 15  1  0
  2 93  1  0
  9 94  1  0
 10 95  1  0
 11 96  1  0
 11 97  1  0
 12 98  1  0
 12 99  1  0
 13100  1  0
 13101  1  0
 14102  1  0
 14103  1  0
 16 24  2  0
 17 25  2  0
 18 19  1  0
 18 20  1  0
 18104  1  0
 18105  1  0
 19 21  1  0
 19106  1  0
 19107  1  0
 20 22  1  0
 20108  1  0
 20109  1  0
 21 23  1  0
 21110  1  0
 21111  1  0
 22 24  1  0
 22112  1  0
 22113  1  0
 23 25  1  0
 23114  1  0
 23115  1  0
 26 27  1  0
 26116  1  0
 27 28  1  0
 27 35  1  0
 27117  1  6
 28 29  1  0
 28118  1  0
 28119  1  0
 29 30  1  0
 29120  1  0
 29121  1  0
 30 31  1  0
 30122  1  0
 30123  1  0
 31 32  1  0
 31124  1  0
 32 33  1  0
 32 34  2  0
 33125  1  0
 33126  1  0
 34127  1  0
 35 36  2  0
 37 38  1  0
 37128  1  0
 38 39  1  0
 38 46  1  0
 38129  1  1
 39 40  1  0
 39130  1  0
 39131  1  0
 40 41  1  0
 40132  1  0
 40133  1  0
 41 42  1  0
 41134  1  0
 41135  1  0
 42 43  1  0
 42136  1  0
 43 44  1  0
 43 45  2  0
 44137  1  0
 44138  1  0
 45139  1  0
 46 47  2  0
 48 49  1  0
 48140  1  0
 49 50  1  0
 49 57  1  0
 49141  1  6
 50 51  1  0
 50142  1  0
 50143  1  0
 51 52  1  0
 51144  1  0
 51145  1  0
 52 53  1  0
 52146  1  0
 52147  1  0
 53 54  1  0
 53148  1  0
 54 55  1  0
 54 56  2  0
 55149  1  0
 55150  1  0
 56151  1  0
 57 58  2  0
 59 60  1  0
 59152  1  0
 60 61  1  0
 60 68  1  0
 60153  1  1
 61 62  1  0
 61154  1  0
 61155  1  0
 62 63  1  0
 62156  1  0
 62157  1  0
 63 64  1  0
 63158  1  0
 63159  1  0
 64 65  1  0
 64160  1  0
 65 66  1  0
 65 67  2  0
 66161  1  0
 66162  1  0
 67163  1  0
 68 69  2  0
 70 71  1  0
 70164  1  0
 71 72  1  0
 71 79  1  0
 71165  1  6
 72 73  1  0
 72166  1  0
 72167  1  0
 73 74  1  0
 73168  1  0
 73169  1  0
 74 75  1  0
 74170  1  0
 74171  1  0
 75 76  1  0
 75172  1  0
 76 77  1  0
 76 78  2  0
 77173  1  0
 77174  1  0
 78175  1  0
 79 80  2  0
 81 82  1  0
 81176  1  0
 82 83  1  0
 82 90  1  0
 82177  1  1
 83 84  1  0
 83178  1  0
 83179  1  0
 84 85  1  0
 84180  1  0
 84181  1  0
 85 86  1  0
 85182  1  0
 85183  1  0
 86 87  1  0
 86184  1  0
 87 88  1  0
 87 89  2  0
 88185  1  0
 88186  1  0
 89187  1  0
 90 91  2  0
 92188  1  0
 92189  1  0
 15 25  1  0
 24 26  1  0
 35 37  1  0
 46 48  1  0
 57 59  1  0
 68 70  1  0
 79 81  1  0
 90 92  1  0
M  END
