
     RDKit          3D

 19 18  0  0  0  0  0  0  0  0999 V2000
   -0.9732    1.6101   -0.0936 O   0  0  0  0  0  0  0  0  0  0  0  0
   -2.5345   -0.2336    0.1957 C   0  0  0  0  0  0  0  0  0  0  0  0
   -0.1653   -1.0629   -1.4633 C   0  0  0  0  0  0  0  0  0  0  0  0
   -0.0116   -0.6329   -0.0129 C   0  0  1  0  0  0  0  0  0  0  0  0
   -0.0216   -1.8046    0.7647 O   0  0  0  0  0  0  0  0  0  0  0  0
    1.3031    0.1105    0.2498 C   0  0  0  0  0  0  0  0  0  0  0  0
   -1.1453    0.3223    0.4536 C   0  0  1  0  0  0  0  0  0  0  0  0
    1.8316    0.6848   -0.8144 O   0  0  0  0  0  0  0  0  0  0  0  0
    1.7948    0.1623    1.3510 O   0  0  0  0  0  0  0  0  0  0  0  0
   -1.2436    1.5963   -1.0178 H   0  0  0  0  0  0  0  0  0  0  0  0
   -1.0197    0.4506    1.5350 H   0  0  0  0  0  0  0  0  0  0  0  0
   -2.7615   -0.2857   -0.8712 H   0  0  0  0  0  0  0  0  0  0  0  0
   -2.6461   -1.2346    0.6105 H   0  0  0  0  0  0  0  0  0  0  0  0
   -3.2826    0.4053    0.6653 H   0  0  0  0  0  0  0  0  0  0  0  0
   -1.0577   -1.6773   -1.5781 H   0  0  0  0  0  0  0  0  0  0  0  0
   -0.2570   -0.2128   -2.1376 H   0  0  0  0  0  0  0  0  0  0  0  0
    0.6897   -1.6531   -1.7935 H   0  0  0  0  0  0  0  0  0  0  0  0
    0.1479   -1.5718    1.6852 H   0  0  0  0  0  0  0  0  0  0  0  0
    2.6455    1.1523   -0.5706 H   0  0  0  0  0  0  0  0  0  0  0  0
  1  7  1  0
  2  7  1  0
  3  4  1  0
  4  5  1  1
  4  6  1  0
  4  7  1  0
  6  9  2  0
  6  8  1  0
  1 10  1  0
  7 11  1  1
  2 12  1  0
  2 13  1  0
  2 14  1  0
  3 15  1  0
  3 16  1  0
  3 17  1  0
  5 18  1  0
  8 19  1  0
M  END
