
     RDKit          3D

 59 58  0  0  0  0  0  0  0  0999 V2000
   11.8008   -2.8405   -0.0876 C   0  0  0  0  0  0  0  0  0  0  0  0
   -5.2781    1.5869    1.0713 O   0  0  0  0  0  0  0  0  0  0  0  0
   10.3183   -2.8279    0.2590 C   0  0  0  0  0  0  0  0  0  0  0  0
   -5.9353   -0.1676   -0.1386 O   0  0  0  0  0  0  0  0  0  0  0  0
    9.6413   -1.5059   -0.0816 C   0  0  0  0  0  0  0  0  0  0  0  0
   -7.5478   -2.4609    0.1546 O   0  0  0  0  0  0  0  0  0  0  0  0
    8.1583   -1.4782    0.2665 C   0  0  0  0  0  0  0  0  0  0  0  0
    7.4891   -0.1507   -0.0671 C   0  0  0  0  0  0  0  0  0  0  0  0
    6.0166   -0.0995    0.3202 C   0  0  0  0  0  0  0  0  0  0  0  0
    5.3616    1.2357   -0.0098 C   0  0  0  0  0  0  0  0  0  0  0  0
    3.9117    1.3294    0.4649 C   0  0  0  0  0  0  0  0  0  0  0  0
    3.3167    2.6749    0.1868 C   0  0  0  0  0  0  0  0  0  0  0  0
    2.1567    2.9564   -0.4048 C   0  0  0  0  0  0  0  0  0  0  0  0
    1.1186    1.9990   -0.9007 C   0  0  0  0  0  0  0  0  0  0  0  0
   -0.2013    2.1636   -0.1447 C   0  0  0  0  0  0  0  0  0  0  0  0
   -1.2991    1.2340   -0.6450 C   0  0  0  0  0  0  0  0  0  0  0  0
   -2.6193    1.4516    0.0839 C   0  0  0  0  0  0  0  0  0  0  0  0
   -3.7001    0.4933   -0.3889 C   0  0  0  0  0  0  0  0  0  0  0  0
   -5.0331    0.7175    0.2727 C   0  0  0  0  0  0  0  0  0  0  0  0
   -7.2591   -0.0624    0.3839 C   0  0  0  0  0  0  0  0  0  0  0  0
   -8.0750   -1.2048   -0.1959 C   0  0  2  0  0  0  0  0  0  0  0  0
   -9.5297   -1.0433    0.2176 C   0  0  0  0  0  0  0  0  0  0  0  0
   12.3379   -2.0601    0.4551 H   0  0  0  0  0  0  0  0  0  0  0  0
   12.2639   -3.7959    0.1625 H   0  0  0  0  0  0  0  0  0  0  0  0
   11.9576   -2.6655   -1.1535 H   0  0  0  0  0  0  0  0  0  0  0  0
    9.8110   -3.6413   -0.2689 H   0  0  0  0  0  0  0  0  0  0  0  0
   10.1902   -3.0346    1.3263 H   0  0  0  0  0  0  0  0  0  0  0  0
   10.1514   -0.6921    0.4459 H   0  0  0  0  0  0  0  0  0  0  0  0
    9.7679   -1.2982   -1.1501 H   0  0  0  0  0  0  0  0  0  0  0  0
    7.6450   -2.2891   -0.2621 H   0  0  0  0  0  0  0  0  0  0  0  0
    8.0342   -1.6883    1.3348 H   0  0  0  0  0  0  0  0  0  0  0  0
  -11.2030   -1.9489   -0.1218 H   0  0  0  0  0  0  0  0  0  0  0  0
    8.0216    0.6601    0.4424 H   0  0  0  0  0  0  0  0  0  0  0  0
    7.5917    0.0487   -1.1397 H   0  0  0  0  0  0  0  0  0  0  0  0
    5.4768   -0.9079   -0.1850 H   0  0  0  0  0  0  0  0  0  0  0  0
    5.9189   -0.2946    1.3940 H   0  0  0  0  0  0  0  0  0  0  0  0
    5.9393    2.0446    0.4509 H   0  0  0  0  0  0  0  0  0  0  0  0
    5.4045    1.4094   -1.0900 H   0  0  0  0  0  0  0  0  0  0  0  0
    3.3223    0.5310    0.0092 H   0  0  0  0  0  0  0  0  0  0  0  0
    3.8897    1.1453    1.5457 H   0  0  0  0  0  0  0  0  0  0  0  0
    3.9255    3.5164    0.5107 H   0  0  0  0  0  0  0  0  0  0  0  0
    1.8990    4.0063   -0.5217 H   0  0  0  0  0  0  0  0  0  0  0  0
    0.9366    2.1843   -1.9652 H   0  0  0  0  0  0  0  0  0  0  0  0
    1.4593    0.9641   -0.8197 H   0  0  0  0  0  0  0  0  0  0  0  0
   -0.0292    1.9836    0.9211 H   0  0  0  0  0  0  0  0  0  0  0  0
   -0.5376    3.2025   -0.2295 H   0  0  0  0  0  0  0  0  0  0  0  0
   -1.4460    1.3867   -1.7198 H   0  0  0  0  0  0  0  0  0  0  0  0
   -0.9771    0.1940   -0.5244 H   0  0  0  0  0  0  0  0  0  0  0  0
   -2.4647    1.3299    1.1595 H   0  0  0  0  0  0  0  0  0  0  0  0
   -2.9484    2.4830   -0.0680 H   0  0  0  0  0  0  0  0  0  0  0  0
   -3.8429    0.5786   -1.4713 H   0  0  0  0  0  0  0  0  0  0  0  0
   -3.3989   -0.5445   -0.2152 H   0  0  0  0  0  0  0  0  0  0  0  0
   -7.2430   -0.1178    1.4771 H   0  0  0  0  0  0  0  0  0  0  0  0
   -7.6968    0.8988    0.1033 H   0  0  0  0  0  0  0  0  0  0  0  0
   -8.0204   -1.1524   -1.2884 H   0  0  0  0  0  0  0  0  0  0  0  0
   -9.8728   -0.0458   -0.0859 H   0  0  0  0  0  0  0  0  0  0  0  0
   -9.6011   -1.0819    1.3150 H   0  0  0  0  0  0  0  0  0  0  0  0
   -7.6311   -2.5767    1.1079 H   0  0  0  0  0  0  0  0  0  0  0  0
  -10.2866   -2.0612   -0.3886 O   0  0  0  0  0  0  0  0  0  0  0  0
  1  3  1  0
  2 19  2  0
  3  5  1  0
  4 19  1  0
  4 20  1  0
  5  7  1  0
  6 21  1  0
  7  8  1  0
 59 22  1  0
  8  9  1  0
  9 10  1  0
 10 11  1  0
 11 12  1  0
 12 13  2  0
 13 14  1  0
 14 15  1  0
 15 16  1  0
 16 17  1  0
 17 18  1  0
 18 19  1  0
 20 21  1  0
 21 22  1  0
  1 23  1  0
  1 24  1  0
  1 25  1  0
  3 26  1  0
  3 27  1  0
  5 28  1  0
  5 29  1  0
  6 58  1  0
  7 30  1  0
  7 31  1  0
 59 32  1  0
  8 33  1  0
  8 34  1  0
  9 35  1  0
  9 36  1  0
 10 37  1  0
 10 38  1  0
 11 39  1  0
 11 40  1  0
 12 41  1  0
 13 42  1  0
 14 43  1  0
 14 44  1  0
 15 45  1  0
 15 46  1  0
 16 47  1  0
 16 48  1  0
 17 49  1  0
 17 50  1  0
 18 51  1  0
 18 52  1  0
 20 53  1  0
 20 54  1  0
 21 55  1  6
 22 56  1  0
 22 57  1  0
M  END
