
     RDKit          3D

 64 68  0  0  0  0  0  0  0  0999 V2000
   -1.7086    0.3323    0.1198 N   0  0  0  0  0  0  0  0  0  0  0  0
   -1.3638    1.6614    0.2085 C   0  0  0  0  0  0  0  0  0  0  0  0
   -2.0051    2.4136   -0.6377 N   0  0  0  0  0  0  0  0  0  0  0  0
   -2.6393    0.2445   -0.8930 C   0  0  0  0  0  0  0  0  0  0  0  0
   -2.8166    1.5627   -1.3379 C   0  0  0  0  0  0  0  0  0  0  0  0
   -0.0356   -1.3766   -0.1887 C   0  0  0  0  0  0  0  0  0  0  0  0
   -1.0284   -0.7593    0.8023 C   0  0  2  0  0  0  0  0  0  0  0  0
   -3.3371   -0.8197   -1.4589 C   0  0  0  0  0  0  0  0  0  0  0  0
   -3.7213    1.8598   -2.3572 C   0  0  0  0  0  0  0  0  0  0  0  0
   -4.2215   -0.5030   -2.4615 C   0  0  0  0  0  0  0  0  0  0  0  0
    2.4005   -1.2750   -0.7134 C   0  0  0  0  0  0  0  0  0  0  0  0
   -0.3509    2.1778    1.1388 C   0  0  0  0  0  0  0  0  0  0  0  0
   -4.4144    0.8103   -2.9031 C   0  0  0  0  0  0  0  0  0  0  0  0
    4.7749   -1.7924   -2.0882 C   0  0  0  0  0  0  0  0  0  0  0  0
    4.7712   -1.0001   -0.9425 C   0  0  0  0  0  0  0  0  0  0  0  0
    3.6091   -0.7260   -0.2436 C   0  0  0  0  0  0  0  0  0  0  0  0
   -0.4071   -2.1161   -1.0748 O   0  0  0  0  0  0  0  0  0  0  0  0
    7.1249   -1.6087   -2.3928 O   0  0  0  0  0  0  0  0  0  0  0  0
    2.3926   -2.0717   -1.8580 C   0  0  0  0  0  0  0  0  0  0  0  0
    3.5713   -2.3237   -2.5370 C   0  0  0  0  0  0  0  0  0  0  0  0
   -1.9515   -1.8008    1.4355 C   0  0  1  0  0  0  0  0  0  0  0  0
    0.7008    2.9398    0.6350 C   0  0  0  0  0  0  0  0  0  0  0  0
   -0.4315    1.9571    2.5127 C   0  0  0  0  0  0  0  0  0  0  0  0
   -4.9255   -1.4751   -3.0528 F   0  0  0  0  0  0  0  0  0  0  0  0
   -5.2985    1.0197   -3.8865 F   0  0  0  0  0  0  0  0  0  0  0  0
    5.9293   -2.7678   -3.8751 O   0  0  0  0  0  0  0  0  0  0  0  0
    1.5807    3.2010    2.8436 C   0  0  0  0  0  0  0  0  0  0  0  0
    1.6696    3.4523    1.4827 C   0  0  0  0  0  0  0  0  0  0  0  0
    0.5321    2.4613    3.3694 C   0  0  0  0  0  0  0  0  0  0  0  0
    2.7969    3.8196    3.9027 Cl  0  0  0  0  0  0  0  0  0  0  0  0
    3.6536    0.1396    0.9826 C   0  0  0  0  0  0  0  0  0  0  0  0
   -1.1106   -2.7639    2.2793 C   0  0  0  0  0  0  0  0  0  0  0  0
   -3.0344   -1.1370    2.2873 C   0  0  0  0  0  0  0  0  0  0  0  0
   -3.8974   -2.1715    3.0011 C   0  0  0  0  0  0  0  0  0  0  0  0
   -1.9817   -3.7894    2.9971 C   0  0  0  0  0  0  0  0  0  0  0  0
   -3.0513   -3.1147    3.8471 C   0  0  0  0  0  0  0  0  0  0  0  0
   -0.4798   -0.3016    1.6259 H   0  0  0  0  0  0  0  0  0  0  0  0
   -3.2080   -1.8504   -1.1659 H   0  0  0  0  0  0  0  0  0  0  0  0
    1.3911   -0.3698    0.8057 H   0  0  0  0  0  0  0  0  0  0  0  0
   -3.8707    2.8724   -2.7074 H   0  0  0  0  0  0  0  0  0  0  0  0
    5.7022   -0.5815   -0.5823 H   0  0  0  0  0  0  0  0  0  0  0  0
    1.4757   -2.4977   -2.2278 H   0  0  0  0  0  0  0  0  0  0  0  0
    3.5309   -2.9435   -3.4215 H   0  0  0  0  0  0  0  0  0  0  0  0
   -2.4350   -2.3928    0.6533 H   0  0  0  0  0  0  0  0  0  0  0  0
    0.7740    3.1262   -0.4279 H   0  0  0  0  0  0  0  0  0  0  0  0
   -1.2616    1.4031    2.9317 H   0  0  0  0  0  0  0  0  0  0  0  0
    2.4885    4.0326    1.0814 H   0  0  0  0  0  0  0  0  0  0  0  0
    0.4590    2.2823    4.4326 H   0  0  0  0  0  0  0  0  0  0  0  0
    3.2921   -0.3830    1.8720 H   0  0  0  0  0  0  0  0  0  0  0  0
    4.6731    0.4535    1.1948 H   0  0  0  0  0  0  0  0  0  0  0  0
    3.0622    1.0521    0.8661 H   0  0  0  0  0  0  0  0  0  0  0  0
   -0.3801   -3.2833    1.6536 H   0  0  0  0  0  0  0  0  0  0  0  0
   -0.5398   -2.1933    3.0220 H   0  0  0  0  0  0  0  0  0  0  0  0
   -2.5612   -0.4896    3.0355 H   0  0  0  0  0  0  0  0  0  0  0  0
   -3.6676   -0.4940    1.6729 H   0  0  0  0  0  0  0  0  0  0  0  0
   -4.6401   -1.6633    3.6198 H   0  0  0  0  0  0  0  0  0  0  0  0
   -4.4562   -2.7505    2.2578 H   0  0  0  0  0  0  0  0  0  0  0  0
   -2.4635   -4.4367    2.2565 H   0  0  0  0  0  0  0  0  0  0  0  0
   -1.3523   -4.4361    3.6118 H   0  0  0  0  0  0  0  0  0  0  0  0
   -2.5734   -2.5488    4.6542 H   0  0  0  0  0  0  0  0  0  0  0  0
   -3.6834   -3.8662    4.3257 H   0  0  0  0  0  0  0  0  0  0  0  0
    6.7922   -2.8954   -4.2943 H   0  0  0  0  0  0  0  0  0  0  0  0
    1.2464   -0.9764    0.0144 N   0  0  0  0  0  0  0  0  0  0  0  0
    6.0610   -2.0335   -2.7786 C   0  0  0  0  0  0  0  0  0  0  0  0
  1  2  1  0
  1  4  1  0
  1  7  1  0
  2  3  2  0
  2 12  1  0
  3  5  1  0
  4  5  2  0
  4  8  1  0
  5  9  1  0
  6  7  1  0
  6 63  1  0
  6 17  2  0
  7 21  1  0
  8 10  2  0
 63 11  1  0
  9 13  2  0
 10 13  1  0
 10 24  1  0
 11 16  2  0
 11 19  1  0
 64 14  1  0
 64 18  2  0
 64 26  1  0
 12 22  2  0
 12 23  1  0
 13 25  1  0
 14 15  2  0
 14 20  1  0
 15 16  1  0
 16 31  1  0
 19 20  2  0
 21 32  1  0
 21 33  1  0
 22 28  1  0
 23 29  2  0
 27 28  2  0
 27 29  1  0
 27 30  1  0
 32 35  1  0
 33 34  1  0
 34 36  1  0
 35 36  1  0
  7 37  1  1
  8 38  1  0
 63 39  1  0
  9 40  1  0
 15 41  1  0
 19 42  1  0
 20 43  1  0
 21 44  1  6
 22 45  1  0
 23 46  1  0
 28 47  1  0
 29 48  1  0
 31 49  1  0
 31 50  1  0
 31 51  1  0
 32 52  1  0
 32 53  1  0
 33 54  1  0
 33 55  1  0
 34 56  1  0
 34 57  1  0
 35 58  1  0
 35 59  1  0
 36 60  1  0
 36 61  1  0
 26 62  1  0
M  END
