
     RDKit          3D

 31 30  0  0  0  0  0  0  0  0999 V2000
   -1.1234    0.2223   -4.5560 C   0  0  0  0  0  0  0  0  0  0  0  0
   -0.3250   -0.3897   -3.6895 C   0  0  0  0  0  0  0  0  0  0  0  0
    0.2783    0.2362   -2.4673 C   0  0  1  0  0  0  0  0  0  0  0  0
   -0.2941   -0.4372   -1.2128 C   0  0  0  0  0  0  0  0  0  0  0  0
    0.2138    0.1298    0.1084 C   0  0  0  0  0  0  0  0  0  0  0  0
   -0.4884   -0.5161    1.2964 C   0  0  0  0  0  0  0  0  0  0  0  0
   -0.0643   -0.0136    2.6835 C   0  0  1  0  0  0  0  0  0  0  0  0
   -0.8912   -0.7355    3.7481 C   0  0  0  0  0  0  0  0  0  0  0  0
    1.4187   -0.2537    2.9393 C   0  0  0  0  0  0  0  0  0  0  0  0
    1.8030    0.1405   -2.5352 C   0  0  0  0  0  0  0  0  0  0  0  0
   -0.2581    1.3925    2.7888 O   0  0  0  0  0  0  0  0  0  0  0  0
   -1.4021    1.2631   -4.4359 H   0  0  0  0  0  0  0  0  0  0  0  0
   -1.5309   -0.2932   -5.4164 H   0  0  0  0  0  0  0  0  0  0  0  0
   -0.0739   -1.4367   -3.8512 H   0  0  0  0  0  0  0  0  0  0  0  0
   -0.0050    1.2950   -2.4449 H   0  0  0  0  0  0  0  0  0  0  0  0
   -1.3850   -0.3464   -1.2412 H   0  0  0  0  0  0  0  0  0  0  0  0
   -0.0800   -1.5119   -1.2532 H   0  0  0  0  0  0  0  0  0  0  0  0
    1.2919   -0.0282    0.1890 H   0  0  0  0  0  0  0  0  0  0  0  0
    0.0569    1.2124    0.1268 H   0  0  0  0  0  0  0  0  0  0  0  0
   -1.5712   -0.3704    1.1929 H   0  0  0  0  0  0  0  0  0  0  0  0
   -0.3334   -1.5996    1.2593 H   0  0  0  0  0  0  0  0  0  0  0  0
   -0.6205   -0.3987    4.7502 H   0  0  0  0  0  0  0  0  0  0  0  0
   -1.9601   -0.5556    3.6072 H   0  0  0  0  0  0  0  0  0  0  0  0
   -0.7342   -1.8143    3.7023 H   0  0  0  0  0  0  0  0  0  0  0  0
    1.6579   -1.3115    2.8259 H   0  0  0  0  0  0  0  0  0  0  0  0
    2.0497    0.3074    2.2490 H   0  0  0  0  0  0  0  0  0  0  0  0
    1.6904    0.0421    3.9542 H   0  0  0  0  0  0  0  0  0  0  0  0
    2.1289   -0.9026   -2.5357 H   0  0  0  0  0  0  0  0  0  0  0  0
    2.1830    0.6078   -3.4445 H   0  0  0  0  0  0  0  0  0  0  0  0
    2.2774    0.6351   -1.6875 H   0  0  0  0  0  0  0  0  0  0  0  0
   -1.1882    1.5800    2.6231 H   0  0  0  0  0  0  0  0  0  0  0  0
  1  2  2  0
  1 12  1  0
  1 13  1  0
  2  3  1  0
  2 14  1  0
  3  4  1  0
  3 10  1  0
  3 15  1  1
  4  5  1  0
  4 16  1  0
  4 17  1  0
  5  6  1  0
  5 18  1  0
  5 19  1  0
  6  7  1  0
  6 20  1  0
  6 21  1  0
  7  8  1  0
  7  9  1  0
  7 11  1  6
  8 22  1  0
  8 23  1  0
  8 24  1  0
  9 25  1  0
  9 26  1  0
  9 27  1  0
 10 28  1  0
 10 29  1  0
 10 30  1  0
 11 31  1  0
M  END
