
     RDKit          3D

 63 67  0  0  0  0  0  0  0  0999 V2000
   29.1127   20.0086   31.1345 C   0  0  0  0  0  0  0  0  0  0  0  0
   28.0307   19.6473   30.1375 C   0  0  0  0  0  0  0  0  0  0  0  0
   26.9633   18.9134   30.7817 N   0  0  0  0  0  0  0  0  0  0  0  0
   25.9579   18.4885   29.8349 C   0  0  0  0  0  0  0  0  0  0  0  0
   26.3961   19.7179   31.8414 C   0  0  0  0  0  0  0  0  0  0  0  0
   27.4461   20.0878   32.8728 C   0  0  0  0  0  0  0  0  0  0  0  0
   28.5633   20.7685   32.2487 N   0  0  0  0  0  0  0  0  0  0  0  0
   29.4430   21.4697   33.0641 C   0  0  0  0  0  0  0  0  0  0  0  0
   30.4930   22.2101   32.4926 C   0  0  0  0  0  0  0  0  0  0  0  0
   31.3655   22.9496   33.2734 C   0  0  0  0  0  0  0  0  0  0  0  0
   32.3791   23.6748   32.7701 O   0  0  0  0  0  0  0  0  0  0  0  0
   32.6214   23.6330   31.3789 C   0  0  0  0  0  0  0  0  0  0  0  0
   29.3123   21.4989   34.4565 C   0  0  0  0  0  0  0  0  0  0  0  0
   30.1689   22.2684   35.2284 C   0  0  0  0  0  0  0  0  0  0  0  0
   31.2027   23.0165   34.6751 C   0  0  0  0  0  0  0  0  0  0  0  0
   32.1436   23.7397   35.3907 N   0  0  0  0  0  0  0  0  0  0  0  0
   31.8476   24.4523   36.4084 C   0  0  0  0  0  0  0  0  0  0  0  0
   30.5564   24.6683   36.8326 N   0  0  0  0  0  0  0  0  0  0  0  0
   32.9484   25.0566   37.0350 N   0  0  0  0  0  0  0  0  0  0  0  0
   32.7574   25.7097   38.1022 C   0  0  0  0  0  0  0  0  0  0  0  0
   31.4315   25.8830   38.7627 C   0  0  2  0  0  0  0  0  0  0  0  0
   31.4796   24.9780   40.3279 Cl  0  0  0  0  0  0  0  0  0  0  0  0
   30.3299   25.3399   37.9007 C   0  0  0  0  0  0  0  0  0  0  0  0
   29.0882   25.6190   38.3396 N   0  0  0  0  0  0  0  0  0  0  0  0
   27.8554   25.2326   37.8256 C   0  0  0  0  0  0  0  0  0  0  0  0
   26.7204   25.6475   38.5263 C   0  0  0  0  0  0  0  0  0  0  0  0
   26.6382   26.4552   39.7558 C   0  0  0  0  0  0  0  0  0  0  0  0
   27.5799   26.9121   40.3994 O   0  0  0  0  0  0  0  0  0  0  0  0
   25.3276   26.5923   40.0336 N   0  0  0  0  0  0  0  0  0  0  0  0
   24.7920   27.2976   41.1670 C   0  0  0  0  0  0  0  0  0  0  0  0
   24.4667   25.9208   39.0836 C   0  0  0  0  0  0  0  0  0  0  0  0
   25.4407   25.3214   38.1189 C   0  0  0  0  0  0  0  0  0  0  0  0
   25.2273   24.5600   36.9844 C   0  0  0  0  0  0  0  0  0  0  0  0
   26.3515   24.1435   36.2820 C   0  0  0  0  0  0  0  0  0  0  0  0
   27.6474   24.4652   36.6783 C   0  0  0  0  0  0  0  0  0  0  0  0
   29.5965   19.0898   31.4972 H   0  0  0  0  0  0  0  0  0  0  0  0
   29.8699   20.5886   30.6134 H   0  0  0  0  0  0  0  0  0  0  0  0
   27.6595   20.5692   29.6552 H   0  0  0  0  0  0  0  0  0  0  0  0
   28.4737   19.0282   29.3543 H   0  0  0  0  0  0  0  0  0  0  0  0
   25.1905   17.9004   30.3409 H   0  0  0  0  0  0  0  0  0  0  0  0
   25.4583   19.3284   29.3275 H   0  0  0  0  0  0  0  0  0  0  0  0
   26.4092   17.8570   29.0680 H   0  0  0  0  0  0  0  0  0  0  0  0
   25.9347   20.6419   31.4492 H   0  0  0  0  0  0  0  0  0  0  0  0
   25.6076   19.1528   32.3434 H   0  0  0  0  0  0  0  0  0  0  0  0
   26.9785   20.7489   33.6029 H   0  0  0  0  0  0  0  0  0  0  0  0
   27.7713   19.1807   33.4044 H   0  0  0  0  0  0  0  0  0  0  0  0
   30.6047   22.2263   31.4183 H   0  0  0  0  0  0  0  0  0  0  0  0
   28.5594   20.9147   34.9649 H   0  0  0  0  0  0  0  0  0  0  0  0
   31.7839   24.0372   30.8044 H   0  0  0  0  0  0  0  0  0  0  0  0
   33.4971   24.2525   31.2002 H   0  0  0  0  0  0  0  0  0  0  0  0
   32.8302   22.6184   31.0290 H   0  0  0  0  0  0  0  0  0  0  0  0
   30.0465   22.2499   36.3024 H   0  0  0  0  0  0  0  0  0  0  0  0
   33.6089   26.1715   38.5937 H   0  0  0  0  0  0  0  0  0  0  0  0
   31.2635   26.9304   39.0189 H   0  0  0  0  0  0  0  0  0  0  0  0
   23.7881   26.6275   38.5973 H   0  0  0  0  0  0  0  0  0  0  0  0
   29.0140   26.1730   39.1894 H   0  0  0  0  0  0  0  0  0  0  0  0
   28.4842   24.1167   36.0958 H   0  0  0  0  0  0  0  0  0  0  0  0
   25.6045   27.7315   41.7432 H   0  0  0  0  0  0  0  0  0  0  0  0
   24.1286   28.1009   40.8440 H   0  0  0  0  0  0  0  0  0  0  0  0
   24.2285   26.6221   41.8123 H   0  0  0  0  0  0  0  0  0  0  0  0
   23.8532   25.1622   39.5787 H   0  0  0  0  0  0  0  0  0  0  0  0
   24.2319   24.2981   36.6518 H   0  0  0  0  0  0  0  0  0  0  0  0
   26.2263   23.5444   35.3890 H   0  0  0  0  0  0  0  0  0  0  0  0
  1  2  1  0
  1  7  1  0
  2  3  1  0
  3  4  1  0
  3  5  1  0
  5  6  1  0
  6  7  1  0
  7  8  1  0
  8  9  2  0
  8 13  1  0
  9 10  1  0
 10 11  1  0
 10 15  2  0
 11 12  1  0
 13 14  2  0
 14 15  1  0
 15 16  1  0
 16 17  2  0
 17 18  1  0
 17 19  1  0
 18 23  2  0
 19 20  2  0
 20 21  1  0
 21 22  1  0
 21 23  1  0
 23 24  1  0
 24 25  1  0
 25 26  2  0
 25 35  1  0
 26 27  1  0
 26 32  1  0
 27 28  2  0
 27 29  1  0
 29 30  1  0
 29 31  1  0
 31 32  1  0
 32 33  2  0
 33 34  1  0
 34 35  2  0
  1 36  1  0
  1 37  1  0
  2 38  1  0
  2 39  1  0
  4 40  1  0
  4 41  1  0
  4 42  1  0
  5 43  1  0
  5 44  1  0
  6 45  1  0
  6 46  1  0
  9 47  1  0
 13 48  1  0
 12 49  1  0
 12 50  1  0
 12 51  1  0
 14 52  1  0
 20 53  1  0
 21 54  1  1
 24 56  1  0
 35 57  1  0
 30 58  1  0
 30 59  1  0
 30 60  1  0
 31 61  1  0
 31 55  1  0
 33 62  1  0
 34 63  1  0
M  END
