
     RDKit          3D

 58 60  0  0  0  0  0  0  0  0999 V2000
   -0.2731    0.5098   -8.0291 C   0  0  0  0  0  0  0  0  0  0  0  0
   -0.9670    1.4932   -8.4642 N   0  0  0  0  0  0  0  0  0  0  0  0
    0.2342   -0.5028   -8.7982 N   0  0  0  0  0  0  0  0  0  0  0  0
   -0.0237    0.3946   -6.5717 C   0  0  0  0  0  0  0  0  0  0  0  0
   -0.1633    1.5186   -5.7529 C   0  0  0  0  0  0  0  0  0  0  0  0
    0.0555    1.4492   -4.3953 C   0  0  0  0  0  0  0  0  0  0  0  0
    0.4209    0.2380   -3.7819 C   0  0  0  0  0  0  0  0  0  0  0  0
    0.5842    0.2048   -2.4217 N   0  0  0  0  0  0  0  0  0  0  0  0
    1.1640   -0.9188   -1.7239 C   0  0  0  0  0  0  0  0  0  0  0  0
   -0.4059   -0.1821    4.5501 C   0  0  0  0  0  0  0  0  0  0  0  0
   -0.1409    0.1674    5.9823 C   0  0  0  0  0  0  0  0  0  0  0  0
   -0.0307    1.5004    6.3701 C   0  0  0  0  0  0  0  0  0  0  0  0
    0.2379    1.8291    7.6908 C   0  0  0  0  0  0  0  0  0  0  0  0
    0.3998    0.8250    8.6381 C   0  0  0  0  0  0  0  0  0  0  0  0
    0.0255   -0.8316    6.9354 C   0  0  0  0  0  0  0  0  0  0  0  0
    0.2925   -0.5062    8.2592 C   0  0  0  0  0  0  0  0  0  0  0  0
    1.0151   -0.7272   -0.2389 C   0  0  0  0  0  0  0  0  0  0  0  0
   -0.2896   -0.6682    1.7918 C   0  0  0  0  0  0  0  0  0  0  0  0
   -0.2073   -0.8567    0.4101 C   0  0  0  0  0  0  0  0  0  0  0  0
   -1.3662   -1.2631   -0.2946 N   0  0  0  0  0  0  0  0  0  0  0  0
   -2.7424   -0.3386   -0.3969 S   0  0  1  0  0  0  0  0  0  0  0  0
   -2.3369    1.1496   -1.2778 C   0  0  0  0  0  0  0  0  0  0  0  0
   -3.6561   -1.1248   -1.2095 O   0  0  0  0  0  0  0  0  0  0  0  0
   -3.1263    0.0405    0.9528 O   0  0  0  0  0  0  0  0  0  0  0  0
    0.8255   -0.3064    2.5252 C   0  0  0  0  0  0  0  0  0  0  0  0
    0.8297   -0.0875    3.8521 O   0  0  0  0  0  0  0  0  0  0  0  0
    2.1418   -0.3943    0.5161 C   0  0  0  0  0  0  0  0  0  0  0  0
    2.0697   -0.1718    1.8791 C   0  0  0  0  0  0  0  0  0  0  0  0
    3.1075    0.1589    2.6669 O   0  0  0  0  0  0  0  0  0  0  0  0
    4.3854    0.2704    2.0733 C   0  0  0  0  0  0  0  0  0  0  0  0
    0.5613   -0.8910   -4.5967 C   0  0  0  0  0  0  0  0  0  0  0  0
    0.3362   -0.8044   -5.9622 C   0  0  0  0  0  0  0  0  0  0  0  0
   -1.0295    1.4751   -9.4785 H   0  0  0  0  0  0  0  0  0  0  0  0
    0.2066   -0.3720   -9.7973 H   0  0  0  0  0  0  0  0  0  0  0  0
    1.0723   -0.9644   -8.4848 H   0  0  0  0  0  0  0  0  0  0  0  0
   -0.4427    2.4647   -6.1967 H   0  0  0  0  0  0  0  0  0  0  0  0
   -0.0529    2.3407   -3.7878 H   0  0  0  0  0  0  0  0  0  0  0  0
    0.7742    1.0990   -1.9957 H   0  0  0  0  0  0  0  0  0  0  0  0
    2.2238   -1.0595   -1.9679 H   0  0  0  0  0  0  0  0  0  0  0  0
    0.6655   -1.8380   -2.0448 H   0  0  0  0  0  0  0  0  0  0  0  0
   -1.1371    0.5064    4.1125 H   0  0  0  0  0  0  0  0  0  0  0  0
   -0.8114   -1.1962    4.4720 H   0  0  0  0  0  0  0  0  0  0  0  0
   -0.1621    2.2863    5.6357 H   0  0  0  0  0  0  0  0  0  0  0  0
    0.3184    2.8683    7.9823 H   0  0  0  0  0  0  0  0  0  0  0  0
    0.6053    1.0808    9.6695 H   0  0  0  0  0  0  0  0  0  0  0  0
   -0.0601   -1.8715    6.6428 H   0  0  0  0  0  0  0  0  0  0  0  0
    0.4149   -1.2918    8.9932 H   0  0  0  0  0  0  0  0  0  0  0  0
   -1.2364   -0.8334    2.2834 H   0  0  0  0  0  0  0  0  0  0  0  0
   -1.1998   -1.7709   -1.1555 H   0  0  0  0  0  0  0  0  0  0  0  0
   -3.2308    1.7714   -1.2818 H   0  0  0  0  0  0  0  0  0  0  0  0
   -1.5292    1.6694   -0.7680 H   0  0  0  0  0  0  0  0  0  0  0  0
   -2.0472    0.9006   -2.2945 H   0  0  0  0  0  0  0  0  0  0  0  0
    3.0879   -0.3039   -0.0019 H   0  0  0  0  0  0  0  0  0  0  0  0
    5.0772    0.5154    2.8752 H   0  0  0  0  0  0  0  0  0  0  0  0
    4.7018   -0.6665    1.6074 H   0  0  0  0  0  0  0  0  0  0  0  0
    4.4203    1.0653    1.3236 H   0  0  0  0  0  0  0  0  0  0  0  0
    0.8478   -1.8469   -4.1800 H   0  0  0  0  0  0  0  0  0  0  0  0
    0.4378   -1.7106   -6.5465 H   0  0  0  0  0  0  0  0  0  0  0  0
  1  2  2  0
  1  3  1  0
  1  4  1  0
  2 33  1  0
  3 34  1  0
  3 35  1  0
  4  5  2  0
  4 32  1  0
  5  6  1  0
  5 36  1  0
  6  7  2  0
  6 37  1  0
  7  8  1  0
  7 31  1  0
  8  9  1  0
  8 38  1  0
  9 17  1  0
  9 39  1  0
  9 40  1  0
 10 11  1  0
 10 26  1  0
 10 41  1  0
 10 42  1  0
 11 12  2  0
 11 15  1  0
 12 13  1  0
 12 43  1  0
 13 14  2  0
 13 44  1  0
 14 16  1  0
 14 45  1  0
 15 16  2  0
 15 46  1  0
 16 47  1  0
 17 19  1  0
 17 27  2  0
 18 19  2  0
 18 25  1  0
 18 48  1  0
 19 20  1  0
 21 20  1  1
 20 49  1  0
 21 22  1  0
 21 23  2  0
 21 24  2  0
 22 50  1  0
 22 51  1  0
 22 52  1  0
 25 26  1  0
 25 28  2  0
 27 28  1  0
 27 53  1  0
 28 29  1  0
 29 30  1  0
 30 54  1  0
 30 55  1  0
 30 56  1  0
 31 32  2  0
 31 57  1  0
 32 58  1  0
M  END
