
     RDKit          3D

 40 42  0  0  0  0  0  0  0  0999 V2000
   -0.6967   -0.0328    0.8465 N   0  0  0  0  0  0  0  0  0  0  0  0
    0.3531    0.4786    1.7069 C   0  0  0  0  0  0  0  0  0  0  0  0
    1.5938    0.8611    0.9441 C   0  0  0  0  0  0  0  0  0  0  0  0
    2.0138    2.1665    0.9386 C   0  0  0  0  0  0  0  0  0  0  0  0
    3.1764    2.5691    0.2502 C   0  0  0  0  0  0  0  0  0  0  0  0
    3.9206    1.6490   -0.4308 C   0  0  0  0  0  0  0  0  0  0  0  0
    4.3013   -0.6779   -1.1413 C   0  0  0  0  0  0  0  0  0  0  0  0
    1.9925   -1.4849    0.1958 C   0  0  0  0  0  0  0  0  0  0  0  0
   -1.2053    0.9639   -0.0717 C   0  0  0  0  0  0  0  0  0  0  0  0
   -3.2696   -0.3184   -0.2968 N   0  0  0  0  0  0  0  0  0  0  0  0
   -4.9943    0.9661   -1.4623 C   0  0  0  0  0  0  0  0  0  0  0  0
   -5.4378   -0.6567    0.2241 O   0  0  0  0  0  0  0  0  0  0  0  0
   -4.5898   -0.0706   -0.4391 C   0  0  0  0  0  0  0  0  0  0  0  0
    3.9290   -1.9935   -1.1522 C   0  0  0  0  0  0  0  0  0  0  0  0
    2.7620   -2.3983   -0.4738 C   0  0  0  0  0  0  0  0  0  0  0  0
    2.3536   -0.1154    0.2343 C   0  0  0  0  0  0  0  0  0  0  0  0
   -2.2047    0.3385   -1.0297 C   0  0  0  0  0  0  0  0  0  0  0  0
   -2.7798   -1.2844    0.6683 C   0  0  0  0  0  0  0  0  0  0  0  0
   -1.7773   -0.6314    1.6034 C   0  0  0  0  0  0  0  0  0  0  0  0
    3.5311    0.2885   -0.4518 C   0  0  0  0  0  0  0  0  0  0  0  0
    0.0158    1.3496    2.2921 H   0  0  0  0  0  0  0  0  0  0  0  0
    0.5933   -0.3026    2.4352 H   0  0  0  0  0  0  0  0  0  0  0  0
    1.4390    2.9103    1.4778 H   0  0  0  0  0  0  0  0  0  0  0  0
    3.4730    3.6096    0.2664 H   0  0  0  0  0  0  0  0  0  0  0  0
    4.8188    1.9472   -0.9580 H   0  0  0  0  0  0  0  0  0  0  0  0
    5.1977   -0.3577   -1.6590 H   0  0  0  0  0  0  0  0  0  0  0  0
    1.0855   -1.8101    0.6837 H   0  0  0  0  0  0  0  0  0  0  0  0
   -1.6851    1.8040    0.4610 H   0  0  0  0  0  0  0  0  0  0  0  0
   -0.3815    1.3807   -0.6536 H   0  0  0  0  0  0  0  0  0  0  0  0
   -4.5953    1.9513   -1.2187 H   0  0  0  0  0  0  0  0  0  0  0  0
   -4.6444    0.7099   -2.4626 H   0  0  0  0  0  0  0  0  0  0  0  0
   -6.0787    1.0334   -1.4851 H   0  0  0  0  0  0  0  0  0  0  0  0
    4.5259   -2.7249   -1.6814 H   0  0  0  0  0  0  0  0  0  0  0  0
    2.4692   -3.4403   -0.4882 H   0  0  0  0  0  0  0  0  0  0  0  0
   -2.6021    1.1044   -1.6887 H   0  0  0  0  0  0  0  0  0  0  0  0
   -1.6901   -0.3990   -1.6542 H   0  0  0  0  0  0  0  0  0  0  0  0
   -3.6132   -1.6921    1.2330 H   0  0  0  0  0  0  0  0  0  0  0  0
   -2.2950   -2.1097    0.1364 H   0  0  0  0  0  0  0  0  0  0  0  0
   -1.3650   -1.3940    2.2680 H   0  0  0  0  0  0  0  0  0  0  0  0
   -2.2991    0.1073    2.2364 H   0  0  0  0  0  0  0  0  0  0  0  0
 13 11  1  0
 12 13  2  0
 13 10  1  0
 10 18  1  0
 19 18  1  0
  1 19  1  0
  1  2  1  0
  2  3  1  0
  3  4  2  0
  5  4  1  0
  6  5  2  0
 20  6  1  0
  7 20  2  0
 14  7  1  0
 15 14  2  0
  8 15  1  0
 16  8  2  0
  3 16  1  0
 16 20  1  0
  9  1  1  0
 17  9  1  0
 10 17  1  0
  2 21  1  0
  2 22  1  0
  4 23  1  0
  5 24  1  0
  6 25  1  0
  7 26  1  0
  8 27  1  0
  9 28  1  0
  9 29  1  0
 11 30  1  0
 11 31  1  0
 11 32  1  0
 14 33  1  0
 15 34  1  0
 17 35  1  0
 17 36  1  0
 18 37  1  0
 18 38  1  0
 19 39  1  0
 19 40  1  0
M  END
