
     RDKit          3D

 41 43  0  0  0  0  0  0  0  0999 V2000
    5.9586    0.7207    0.4585 C   0  0  0  0  0  0  0  0  0  0  0  0
    0.5294   -1.2104   -0.5551 N   0  0  0  0  0  0  0  0  0  0  0  0
    6.5739    0.5236    1.6205 O   0  0  0  0  0  0  0  0  0  0  0  0
    4.5128    0.3126    0.5150 C   0  0  0  0  0  0  0  0  0  0  0  0
   -3.9526   -1.8330    0.0096 N   0  0  0  0  0  0  0  0  0  0  0  0
    6.5139    1.1783   -0.5094 O   0  0  0  0  0  0  0  0  0  0  0  0
    3.7878    0.4385   -0.8220 C   0  0  0  0  0  0  0  0  0  0  0  0
   -1.8076   -2.5615   -0.3199 O   0  0  0  0  0  0  0  0  0  0  0  0
    2.3511    0.0442   -0.7030 C   0  0  0  0  0  0  0  0  0  0  0  0
    1.8550   -1.2604   -0.7380 C   0  0  0  0  0  0  0  0  0  0  0  0
    2.5893   -2.5403   -0.9063 C   0  0  0  0  0  0  0  0  0  0  0  0
    1.2627    0.8976   -0.4810 C   0  0  0  0  0  0  0  0  0  0  0  0
    1.3350    2.3823   -0.3685 C   0  0  0  0  0  0  0  0  0  0  0  0
    0.1156    0.0901   -0.3940 C   0  0  0  0  0  0  0  0  0  0  0  0
   -1.2145    0.5042   -0.1932 C   0  0  0  0  0  0  0  0  0  0  0  0
   -2.3881   -0.1889   -0.0922 C   0  0  0  0  0  0  0  0  0  0  0  0
   -2.6110   -1.6430   -0.1561 C   0  0  0  0  0  0  0  0  0  0  0  0
   -3.6977    0.4079    0.1181 C   0  0  0  0  0  0  0  0  0  0  0  0
   -4.6303   -0.6371    0.1759 C   0  0  0  0  0  0  0  0  0  0  0  0
   -5.9797   -0.4131    0.3692 C   0  0  0  0  0  0  0  0  0  0  0  0
   -6.3998    0.9078    0.5074 C   0  0  0  0  0  0  0  0  0  0  0  0
   -5.4903    1.9601    0.4522 C   0  0  0  0  0  0  0  0  0  0  0  0
   -4.1341    1.7168    0.2570 C   0  0  0  0  0  0  0  0  0  0  0  0
   -0.1301   -1.9896   -0.5257 H   0  0  0  0  0  0  0  0  0  0  0  0
    7.5003    0.7995    1.5549 H   0  0  0  0  0  0  0  0  0  0  0  0
    4.4562   -0.7145    0.8869 H   0  0  0  0  0  0  0  0  0  0  0  0
   -4.3811   -2.7458    0.0189 H   0  0  0  0  0  0  0  0  0  0  0  0
    3.8602    1.4657   -1.1839 H   0  0  0  0  0  0  0  0  0  0  0  0
    2.8581   -2.9733    0.0599 H   0  0  0  0  0  0  0  0  0  0  0  0
    1.9945   -3.2789   -1.4431 H   0  0  0  0  0  0  0  0  0  0  0  0
    3.5141   -2.3851   -1.4599 H   0  0  0  0  0  0  0  0  0  0  0  0
    1.6425    2.8384   -1.3118 H   0  0  0  0  0  0  0  0  0  0  0  0
    0.3819    2.8285   -0.0892 H   0  0  0  0  0  0  0  0  0  0  0  0
    2.0649    2.6847    0.3844 H   0  0  0  0  0  0  0  0  0  0  0  0
   -1.3148    1.5813   -0.1016 H   0  0  0  0  0  0  0  0  0  0  0  0
   -6.6872   -1.2307    0.4115 H   0  0  0  0  0  0  0  0  0  0  0  0
   -7.4511    1.1148    0.6588 H   0  0  0  0  0  0  0  0  0  0  0  0
   -5.8403    2.9779    0.5632 H   0  0  0  0  0  0  0  0  0  0  0  0
   -3.4348    2.5432    0.2157 H   0  0  0  0  0  0  0  0  0  0  0  0
    4.0166    0.9230    1.2762 H   0  0  0  0  0  0  0  0  0  0  0  0
    4.2891   -0.1820   -1.5691 H   0  0  0  0  0  0  0  0  0  0  0  0
  6  1  2  0
  3  1  1  0
  1  4  1  0
  4  7  1  0
  7  9  1  0
  9 12  1  0
  9 10  2  0
 13 12  1  0
 11 10  1  0
 12 14  2  0
 10  2  1  0
 14  2  1  0
 14 15  1  0
 15 16  2  0
  8 17  2  0
 16 17  1  0
 16 18  1  0
 17  5  1  0
 18 23  2  0
 18 19  1  0
 23 22  1  0
  5 19  1  0
 19 20  2  0
 22 21  2  0
 20 21  1  0
  2 24  1  0
  3 25  1  0
  4 26  1  0
  5 27  1  0
  7 28  1  0
 11 29  1  0
 11 30  1  0
 11 31  1  0
 13 32  1  0
 13 33  1  0
 13 34  1  0
 15 35  1  0
 20 36  1  0
 21 37  1  0
 22 38  1  0
 23 39  1  0
  4 40  1  0
  7 41  1  0
M  END
