
     RDKit          3D

 44 46  0  0  0  0  0  0  0  0999 V2000
    3.8067    0.0436    1.8377 C   0  0  0  0  0  0  0  0  0  0  0  0
    4.8345    0.9620    1.6586 C   0  0  0  0  0  0  0  0  0  0  0  0
    3.2769   -0.6648    0.7659 C   0  0  0  0  0  0  0  0  0  0  0  0
    5.3199    1.1636    0.3832 C   0  0  0  0  0  0  0  0  0  0  0  0
    3.7922   -0.4302   -0.5078 C   0  0  0  0  0  0  0  0  0  0  0  0
    4.8155    0.4825   -0.7100 C   0  0  0  0  0  0  0  0  0  0  0  0
    2.1798   -1.6765    0.9670 C   0  0  0  0  0  0  0  0  0  0  0  0
   -0.8980   -2.4428   -1.0211 C   0  0  0  0  0  0  0  0  0  0  0  0
    0.1681   -2.6102    0.0465 C   0  0  0  0  0  0  0  0  0  0  0  0
   -0.7073   -0.0381   -0.7695 C   0  0  0  0  0  0  0  0  0  0  0  0
    0.3699   -0.2499    0.2798 C   0  0  0  0  0  0  0  0  0  0  0  0
   -2.9392   -1.1228   -0.8224 C   0  0  0  0  0  0  0  0  0  0  0  0
   -3.5604    0.2258   -0.6053 C   0  0  0  0  0  0  0  0  0  0  0  0
   -4.4434    1.9124    0.8439 C   0  0  0  0  0  0  0  0  0  0  0  0
   -3.7921    0.6915    0.6925 C   0  0  0  0  0  0  0  0  0  0  0  0
   -4.8556    2.6525   -0.2562 C   0  0  0  0  0  0  0  0  0  0  0  0
   -4.6237    2.1764   -1.5381 C   0  0  0  0  0  0  0  0  0  0  0  0
   -3.9810    0.9582   -1.7087 C   0  0  0  0  0  0  0  0  0  0  0  0
   -3.3390   -0.0924    1.8902 C   0  0  0  0  0  0  0  0  0  0  0  0
    6.3105    2.0529    0.1948 F   0  0  0  0  0  0  0  0  0  0  0  0
    1.0847   -1.4867    0.0365 N   0  0  0  0  0  0  0  0  0  0  0  0
   -1.5961   -1.1840   -0.8333 N   0  0  0  0  0  0  0  0  0  0  0  0
   -3.6607   -2.1008   -0.9752 O   0  0  0  0  0  0  0  0  0  0  0  0
    3.4118   -0.1146    2.8339 H   0  0  0  0  0  0  0  0  0  0  0  0
    5.2398    1.5143    2.4963 H   0  0  0  0  0  0  0  0  0  0  0  0
    3.3799   -0.9615   -1.3562 H   0  0  0  0  0  0  0  0  0  0  0  0
    5.2147    0.6617   -1.6999 H   0  0  0  0  0  0  0  0  0  0  0  0
    2.5824   -2.6806    0.8033 H   0  0  0  0  0  0  0  0  0  0  0  0
    1.8409   -1.6480    2.0158 H   0  0  0  0  0  0  0  0  0  0  0  0
   -0.4332   -2.4521   -2.0123 H   0  0  0  0  0  0  0  0  0  0  0  0
   -1.6061   -3.2654   -0.9727 H   0  0  0  0  0  0  0  0  0  0  0  0
   -0.3211   -2.7337    1.0279 H   0  0  0  0  0  0  0  0  0  0  0  0
    0.7244   -3.5283   -0.1541 H   0  0  0  0  0  0  0  0  0  0  0  0
   -1.2650    0.8675   -0.5447 H   0  0  0  0  0  0  0  0  0  0  0  0
   -0.2352    0.1000   -1.7479 H   0  0  0  0  0  0  0  0  0  0  0  0
    1.0641    0.5909    0.2302 H   0  0  0  0  0  0  0  0  0  0  0  0
   -0.0842   -0.2358    1.2866 H   0  0  0  0  0  0  0  0  0  0  0  0
   -4.6309    2.2898    1.8421 H   0  0  0  0  0  0  0  0  0  0  0  0
   -5.3595    3.5990   -0.1088 H   0  0  0  0  0  0  0  0  0  0  0  0
   -4.9415    2.7462   -2.4014 H   0  0  0  0  0  0  0  0  0  0  0  0
   -3.7956    0.5821   -2.7075 H   0  0  0  0  0  0  0  0  0  0  0  0
   -2.2496   -0.1290    1.9565 H   0  0  0  0  0  0  0  0  0  0  0  0
   -3.7071    0.3526    2.8129 H   0  0  0  0  0  0  0  0  0  0  0  0
   -3.6909   -1.1243    1.8545 H   0  0  0  0  0  0  0  0  0  0  0  0
 11 21  1  0
 11 10  1  0
  9 21  1  0
  9  8  1  0
 21  7  1  0
 18 17  2  0
 18 13  1  0
 17 16  1  0
 10 22  1  0
 20  4  1  0
  6  4  2  0
  6  5  1  0
  4  2  1  0
  8 22  1  0
  5  3  2  0
 22 12  1  0
  2  1  2  0
  3  1  1  0
  3  7  1  0
 12 13  1  0
 12 23  2  0
 13 15  2  0
 16 14  2  0
 15 14  1  0
 15 19  1  0
  1 24  1  0
  2 25  1  0
  5 26  1  0
  6 27  1  0
  7 28  1  0
  7 29  1  0
  8 30  1  0
  8 31  1  0
  9 32  1  0
  9 33  1  0
 10 34  1  0
 10 35  1  0
 11 36  1  0
 11 37  1  0
 14 38  1  0
 16 39  1  0
 17 40  1  0
 18 41  1  0
 19 42  1  0
 19 43  1  0
 19 44  1  0
M  END
