
     RDKit          3D

 86 90  0  0  0  0  0  0  0  0999 V2000
    7.6137    2.8766   -1.8810 C   0  0  0  0  0  0  0  0  0  0  0  0
    7.5414    4.1711   -2.3627 C   0  0  0  0  0  0  0  0  0  0  0  0
    6.6405    5.0885   -1.8631 C   0  0  0  0  0  0  0  0  0  0  0  0
    5.7855    4.6875   -0.8430 C   0  0  0  0  0  0  0  0  0  0  0  0
    5.8323    3.3978   -0.3263 C   0  0  0  0  0  0  0  0  0  0  0  0
    6.7522    2.4984   -0.8628 C   0  0  0  0  0  0  0  0  0  0  0  0
    4.9256    2.9775    0.7998 C   0  0  0  0  0  0  0  0  0  0  0  0
    3.0573   -0.2176    1.3114 C   0  0  0  0  0  0  0  0  0  0  0  0
    1.8037   -0.3081    0.7270 C   0  0  0  0  0  0  0  0  0  0  0  0
    1.2519   -1.5219    0.3114 C   0  0  0  0  0  0  0  0  0  0  0  0
    2.0017   -2.6772    0.5051 C   0  0  0  0  0  0  0  0  0  0  0  0
    3.2521   -2.6131    1.0977 C   0  0  0  0  0  0  0  0  0  0  0  0
    3.7929   -1.3980    1.4964 C   0  0  0  0  0  0  0  0  0  0  0  0
    5.1419   -1.3844    2.1520 C   0  0  1  0  0  0  0  0  0  0  0  0
    3.5639    1.1644    1.6456 C   0  0  0  0  0  0  0  0  0  0  0  0
   -0.0689   -1.5568   -0.3152 C   0  0  0  0  0  0  0  0  0  0  0  0
   -0.9575   -2.6410   -0.4897 C   0  0  0  0  0  0  0  0  0  0  0  0
   -2.0408   -2.0987   -1.1399 C   0  0  0  0  0  0  0  0  0  0  0  0
   -3.2640   -2.8322   -1.5590 C   0  0  0  0  0  0  0  0  0  0  0  0
   -2.9948   -4.3274   -1.3905 C   0  0  0  0  0  0  0  0  0  0  0  0
   -0.9219   -4.0834   -0.0942 C   0  0  0  0  0  0  0  0  0  0  0  0
   -3.2978   -3.1873    1.9752 C   0  0  0  0  0  0  0  0  0  0  0  0
   -3.6788    0.7074   -0.8321 C   0  0  2  0  0  0  0  0  0  0  0  0
   -4.5361    1.7902   -1.4805 C   0  0  0  0  0  0  0  0  0  0  0  0
   -6.0737    3.5765   -1.1027 C   0  0  0  0  0  0  0  0  0  0  0  0
   -7.1154    4.1591   -0.1614 C   0  0  0  0  0  0  0  0  0  0  0  0
   -8.3126    3.2271    0.0624 C   0  0  2  0  0  0  0  0  0  0  0  0
   -7.7574    1.8520    0.4520 C   0  0  0  0  0  0  0  0  0  0  0  0
   -6.6934    1.3416   -0.5078 C   0  0  0  0  0  0  0  0  0  0  0  0
   -9.1716    3.1283   -1.2001 C   0  0  0  0  0  0  0  0  0  0  0  0
   -9.1770    3.7697    1.1977 C   0  0  0  0  0  0  0  0  0  0  0  0
    8.3751    4.5450   -3.3493 F   0  0  0  0  0  0  0  0  0  0  0  0
    5.7001   -2.5999    2.1887 F   0  0  0  0  0  0  0  0  0  0  0  0
    6.0156   -0.5844    1.5294 F   0  0  0  0  0  0  0  0  0  0  0  0
    5.0752   -0.9616    3.4267 F   0  0  0  0  0  0  0  0  0  0  0  0
    4.3143    1.6936    0.5234 N   0  0  0  0  0  0  0  0  0  0  0  0
   -1.7748   -0.7895   -1.3135 N   0  0  0  0  0  0  0  0  0  0  0  0
   -0.5957   -0.4481   -0.8167 N   0  0  0  0  0  0  0  0  0  0  0  0
   -2.2712   -4.6479   -0.1615 N   0  0  0  0  0  0  0  0  0  0  0  0
   -5.5964    2.2866   -0.6314 N   0  0  0  0  0  0  0  0  0  0  0  0
   -2.2542   -5.5747    2.1596 O   0  0  0  0  0  0  0  0  0  0  0  0
   -4.4208   -5.3163    0.9191 O   0  0  0  0  0  0  0  0  0  0  0  0
   -3.0647    1.1289    0.3547 O   0  0  0  0  0  0  0  0  0  0  0  0
   -3.1006   -4.8068    1.2587 S   0  0  1  0  0  0  0  0  0  0  0  0
    8.3292    2.1773   -2.2940 H   0  0  0  0  0  0  0  0  0  0  0  0
    6.5987    6.0940   -2.2607 H   0  0  0  0  0  0  0  0  0  0  0  0
    5.0702    5.3980   -0.4464 H   0  0  0  0  0  0  0  0  0  0  0  0
    6.7916    1.4871   -0.4794 H   0  0  0  0  0  0  0  0  0  0  0  0
    5.5181    2.8732    1.7149 H   0  0  0  0  0  0  0  0  0  0  0  0
    4.1971    3.7776    0.9999 H   0  0  0  0  0  0  0  0  0  0  0  0
    1.2311    0.6020    0.5953 H   0  0  0  0  0  0  0  0  0  0  0  0
    1.6361   -3.6419    0.1826 H   0  0  0  0  0  0  0  0  0  0  0  0
    3.7992   -3.5349    1.2344 H   0  0  0  0  0  0  0  0  0  0  0  0
    2.7019    1.7893    1.9218 H   0  0  0  0  0  0  0  0  0  0  0  0
    4.2132    1.1597    2.5212 H   0  0  0  0  0  0  0  0  0  0  0  0
   -4.1360   -2.5256   -0.9728 H   0  0  0  0  0  0  0  0  0  0  0  0
   -3.5137   -2.6310   -2.6037 H   0  0  0  0  0  0  0  0  0  0  0  0
   -3.9163   -4.9004   -1.4355 H   0  0  0  0  0  0  0  0  0  0  0  0
   -2.3653   -4.6812   -2.2094 H   0  0  0  0  0  0  0  0  0  0  0  0
   -0.2850   -4.6702   -0.7630 H   0  0  0  0  0  0  0  0  0  0  0  0
   -0.5160   -4.2258    0.9081 H   0  0  0  0  0  0  0  0  0  0  0  0
   -3.8888   -2.5587    1.3144 H   0  0  0  0  0  0  0  0  0  0  0  0
   -3.8196   -3.3151    2.9228 H   0  0  0  0  0  0  0  0  0  0  0  0
   -2.3241   -2.7372    2.1538 H   0  0  0  0  0  0  0  0  0  0  0  0
   -3.1733   -0.2080   -2.7259 H   0  0  0  0  0  0  0  0  0  0  0  0
   -2.0364    1.0337   -2.2185 H   0  0  0  0  0  0  0  0  0  0  0  0
   -4.3085   -0.1415   -0.5476 H   0  0  0  0  0  0  0  0  0  0  0  0
   -3.8794    2.6314   -1.7298 H   0  0  0  0  0  0  0  0  0  0  0  0
   -4.9228    1.4115   -2.4436 H   0  0  0  0  0  0  0  0  0  0  0  0
   -6.4800    3.5079   -2.1272 H   0  0  0  0  0  0  0  0  0  0  0  0
   -5.2229    4.2605   -1.1581 H   0  0  0  0  0  0  0  0  0  0  0  0
   -6.6361    4.3612    0.8028 H   0  0  0  0  0  0  0  0  0  0  0  0
   -7.4532    5.1243   -0.5507 H   0  0  0  0  0  0  0  0  0  0  0  0
   -7.3186    1.9170    1.4537 H   0  0  0  0  0  0  0  0  0  0  0  0
   -8.5681    1.1194    0.5110 H   0  0  0  0  0  0  0  0  0  0  0  0
   -6.3147    0.3910   -0.1260 H   0  0  0  0  0  0  0  0  0  0  0  0
   -7.1380    1.1169   -1.4938 H   0  0  0  0  0  0  0  0  0  0  0  0
   -8.6238    2.7339   -2.0558 H   0  0  0  0  0  0  0  0  0  0  0  0
  -10.0276    2.4711   -1.0312 H   0  0  0  0  0  0  0  0  0  0  0  0
   -9.5571    4.1098   -1.4846 H   0  0  0  0  0  0  0  0  0  0  0  0
   -9.5715    4.7590    0.9538 H   0  0  0  0  0  0  0  0  0  0  0  0
  -10.0286    3.1140    1.3942 H   0  0  0  0  0  0  0  0  0  0  0  0
   -8.6040    3.8581    2.1234 H   0  0  0  0  0  0  0  0  0  0  0  0
    3.6996    1.7806   -0.2776 H   0  0  0  0  0  0  0  0  0  0  0  0
   -2.5296    1.9080    0.1675 H   0  0  0  0  0  0  0  0  0  0  0  0
   -2.6581    0.2114   -1.8606 C   0  0  0  0  0  0  0  0  0  0  0  0
 32  2  1  0
  2  3  1  0
  2  1  2  0
  3  4  2  0
  1  6  1  0
  4  5  1  0
  6  5  2  0
  5  7  1  0
 14 34  1  6
 36  7  1  0
 36 15  1  0
 14 33  1  0
 14 35  1  0
 14 13  1  0
 15  8  1  0
 13  8  1  0
 13 12  2  0
  8  9  2  0
 26 25  1  0
 26 27  1  0
 27 31  1  1
 12 11  1  0
 25 40  1  0
  9 10  1  0
 27 30  1  0
 27 28  1  0
 11 10  2  0
 10 16  1  0
 40 24  1  0
 40 29  1  0
 28 29  1  0
 24 23  1  0
 16 38  2  0
 16 17  1  0
 38 37  1  0
 17 21  1  0
 17 18  2  0
 21 39  1  0
 43 23  1  0
 37 18  1  0
 37 86  1  0
 23 86  1  0
 18 19  1  0
 39 20  1  0
 39 44  1  0
 19 20  1  0
 44 22  1  1
 41 44  2  0
 44 42  2  0
  1 45  1  0
  3 46  1  0
  4 47  1  0
  6 48  1  0
  7 49  1  0
  7 50  1  0
  9 51  1  0
 11 52  1  0
 12 53  1  0
 15 54  1  0
 15 55  1  0
 19 56  1  0
 19 57  1  0
 20 58  1  0
 20 59  1  0
 21 60  1  0
 21 61  1  0
 22 62  1  0
 22 63  1  0
 22 64  1  0
 86 65  1  0
 86 66  1  0
 23 67  1  1
 24 68  1  0
 24 69  1  0
 25 70  1  0
 25 71  1  0
 26 72  1  0
 26 73  1  0
 28 74  1  0
 28 75  1  0
 29 76  1  0
 29 77  1  0
 30 78  1  0
 30 79  1  0
 30 80  1  0
 31 81  1  0
 31 82  1  0
 31 83  1  0
 36 84  1  0
 43 85  1  0
M  END
