
     RDKit          3D

 34 37  0  0  0  0  0  0  0  0999 V2000
   -3.5511    2.5379   -1.5886 O   0  0  0  0  0  0  0  0  0  0  0  0
   -2.9079    1.8740   -0.2978 P   0  0  2  0  0  0  0  0  0  0  0  0
   -3.0794    2.6260    0.9535 O   0  0  0  0  0  0  0  0  0  0  0  0
   -1.3910    1.5396   -0.7321 O   0  0  0  0  0  0  0  0  0  0  0  0
   -3.4511    0.3601   -0.3052 O   0  0  0  0  0  0  0  0  0  0  0  0
   -2.4760   -0.5951   -0.6903 C   0  0  2  0  0  0  0  0  0  0  0  0
   -2.1418   -1.5793    0.4394 C   0  0  2  0  0  0  0  0  0  0  0  0
   -0.7293   -1.6965    0.4022 O   0  0  0  0  0  0  0  0  0  0  0  0
   -2.7794   -2.9328    0.2532 C   0  0  0  0  0  0  0  0  0  0  0  0
   -2.4545   -3.7423    1.3521 O   0  0  0  0  0  0  0  0  0  0  0  0
   -0.2112   -0.4249    0.1367 C   0  0  1  0  0  0  0  0  0  0  0  0
    1.1510   -0.5599   -0.2746 N   0  0  0  0  0  0  0  0  0  0  0  0
    1.6349   -1.3156   -1.3126 C   0  0  0  0  0  0  0  0  0  0  0  0
    2.9266   -1.2638   -1.4234 N   0  0  0  0  0  0  0  0  0  0  0  0
    3.3273   -0.4338   -0.4066 C   0  0  0  0  0  0  0  0  0  0  0  0
    4.5891    0.0269    0.0141 C   0  0  0  0  0  0  0  0  0  0  0  0
    5.7239   -0.3233   -0.5905 N   0  0  0  0  0  0  0  0  0  0  0  0
    4.6352    0.8441    1.0729 N   0  0  0  0  0  0  0  0  0  0  0  0
    3.5025    1.1854    1.6797 C   0  0  0  0  0  0  0  0  0  0  0  0
    2.2672    0.8226    1.3772 N   0  0  0  0  0  0  0  0  0  0  0  0
    2.2396    0.0114    0.3247 C   0  0  0  0  0  0  0  0  0  0  0  0
   -1.1520    0.1610   -0.9298 C   0  0  2  0  0  0  0  0  0  0  0  0
   -3.9870    3.3845   -1.4197 H   0  0  0  0  0  0  0  0  0  0  0  0
   -2.8210   -1.1035   -1.5920 H   0  0  0  0  0  0  0  0  0  0  0  0
   -2.4601   -1.1429    1.3970 H   0  0  0  0  0  0  0  0  0  0  0  0
   -3.8617   -2.7746    0.1598 H   0  0  0  0  0  0  0  0  0  0  0  0
   -2.4357   -3.3624   -0.6974 H   0  0  0  0  0  0  0  0  0  0  0  0
   -2.8650   -4.6021    1.2240 H   0  0  0  0  0  0  0  0  0  0  0  0
   -0.2146    0.2201    1.0254 H   0  0  0  0  0  0  0  0  0  0  0  0
    0.9802   -1.8898   -1.9514 H   0  0  0  0  0  0  0  0  0  0  0  0
    5.7177   -0.8917   -1.4191 H   0  0  0  0  0  0  0  0  0  0  0  0
    6.5999    0.0663   -0.2877 H   0  0  0  0  0  0  0  0  0  0  0  0
    3.6102    1.8473    2.5320 H   0  0  0  0  0  0  0  0  0  0  0  0
   -0.7676    0.0083   -1.9394 H   0  0  0  0  0  0  0  0  0  0  0  0
  9  7  1  0
  9 10  1  0
  7  8  1  0
  7  6  1  0
  8 11  1  0
  6  5  1  0
  6 22  1  0
  5  2  1  0
 11 12  1  0
 11 22  1  0
 13 12  1  0
 13 14  2  0
 12 21  1  0
 22  4  1  0
  3  2  2  0
  2  4  1  0
  2  1  1  6
 14 15  1  0
 21 20  2  0
 21 15  1  0
 20 19  1  0
 15 16  2  0
 19 18  2  0
 16 18  1  0
 16 17  1  0
  1 23  1  0
  6 24  1  6
  7 25  1  1
  9 26  1  0
  9 27  1  0
 10 28  1  0
 11 29  1  1
 13 30  1  0
 17 31  1  0
 17 32  1  0
 19 33  1  0
 22 34  1  6
M  END
