
     RDKit          3D

 34 36  0  0  0  0  0  0  0  0999 V2000
    6.1531   -0.4382   -0.1600 C   0  0  0  0  0  0  0  0  0  0  0  0
    4.6676   -0.2565   -0.1366 C   0  0  0  0  0  0  0  0  0  0  0  0
    4.1005    0.9369    0.3180 C   0  0  0  0  0  0  0  0  0  0  0  0
    2.7319    1.1035    0.3644 C   0  0  0  0  0  0  0  0  0  0  0  0
    1.8717    0.0733   -0.0345 C   0  0  0  0  0  0  0  0  0  0  0  0
    2.4362   -1.1206   -0.4905 C   0  0  0  0  0  0  0  0  0  0  0  0
    3.8108   -1.2755   -0.5452 C   0  0  0  0  0  0  0  0  0  0  0  0
    0.4213    0.2830    0.0162 C   0  0  0  0  0  0  0  0  0  0  0  0
   -0.4629   -0.8690   -0.1035 C   0  0  0  0  0  0  0  0  0  0  0  0
   -1.7794   -0.6424   -0.0964 C   0  0  0  0  0  0  0  0  0  0  0  0
   -2.3179    0.6791   -0.0044 C   0  0  0  0  0  0  0  0  0  0  0  0
   -3.6340    0.8988   -0.2083 C   0  0  0  0  0  0  0  0  0  0  0  0
   -4.5079   -0.1967   -0.5501 C   0  0  0  0  0  0  0  0  0  0  0  0
   -4.0741   -1.4507   -0.5400 C   0  0  0  0  0  0  0  0  0  0  0  0
   -2.7192   -1.7631   -0.0937 N   0  0  2  0  0  0  0  0  0  0  0  0
   -2.8025   -2.3607    1.2951 C   0  0  0  0  0  0  0  0  0  0  0  0
   -1.3538    1.7807    0.2350 C   0  0  0  0  0  0  0  0  0  0  0  0
   -1.7372    2.9136    0.4452 O   0  0  0  0  0  0  0  0  0  0  0  0
   -0.0086    1.4932    0.1871 N   0  0  0  0  0  0  0  0  0  0  0  0
    6.5199   -0.7116    0.8316 H   0  0  0  0  0  0  0  0  0  0  0  0
    6.4503   -1.2284   -0.8477 H   0  0  0  0  0  0  0  0  0  0  0  0
    6.6627    0.4806   -0.4489 H   0  0  0  0  0  0  0  0  0  0  0  0
    4.7435    1.7475    0.6388 H   0  0  0  0  0  0  0  0  0  0  0  0
    2.3169    2.0363    0.7194 H   0  0  0  0  0  0  0  0  0  0  0  0
    1.8200   -1.9399   -0.8349 H   0  0  0  0  0  0  0  0  0  0  0  0
    4.2224   -2.2062   -0.9150 H   0  0  0  0  0  0  0  0  0  0  0  0
   -0.0658   -1.8716   -0.1680 H   0  0  0  0  0  0  0  0  0  0  0  0
   -4.0378    1.9010   -0.1646 H   0  0  0  0  0  0  0  0  0  0  0  0
   -5.5315   -0.0009   -0.8326 H   0  0  0  0  0  0  0  0  0  0  0  0
   -4.6570   -2.3259   -0.7828 H   0  0  0  0  0  0  0  0  0  0  0  0
   -2.3517   -2.4957   -0.7090 H   0  0  0  0  0  0  0  0  0  0  0  0
   -3.1690   -1.5956    1.9717 H   0  0  0  0  0  0  0  0  0  0  0  0
   -3.4838   -3.2048    1.2582 H   0  0  0  0  0  0  0  0  0  0  0  0
   -1.8078   -2.6886    1.5798 H   0  0  0  0  0  0  0  0  0  0  0  0
  1  2  1  0
  2  3  2  0
  2  7  1  0
  3  4  1  0
  4  5  2  0
  5  6  1  0
  5  8  1  0
  6  7  2  0
  8  9  1  0
  8 19  2  0
  9 10  2  0
 10 11  1  0
 10 15  1  0
 11 12  2  0
 11 17  1  0
 12 13  1  0
 13 14  2  0
 14 15  1  0
 15 16  1  0
 17 18  2  0
 17 19  1  0
  1 20  1  0
  1 21  1  0
  1 22  1  0
  3 23  1  0
  4 24  1  0
  6 25  1  0
  7 26  1  0
  9 27  1  0
 12 28  1  0
 13 29  1  0
 14 30  1  0
 15 31  1  6
 16 32  1  0
 16 33  1  0
 16 34  1  0
M  CHG  1  15   1
M  END
