
     RDKit          3D

 52 54  0  0  0  0  0  0  0  0999 V2000
   -4.6862   -1.9805   -1.0566 C   0  0  0  0  0  0  0  0  0  0  0  0
   -5.5680   -3.1973   -0.7999 C   0  0  0  0  0  0  0  0  0  0  0  0
   -6.8378   -2.8351   -0.3065 O   0  0  0  0  0  0  0  0  0  0  0  0
   -6.7485   -2.1205    0.9064 C   0  0  0  0  0  0  0  0  0  0  0  0
   -5.9437   -0.8381    0.7535 C   0  0  0  0  0  0  0  0  0  0  0  0
   -4.5586   -1.1677    0.2248 C   0  0  2  0  0  0  0  0  0  0  0  0
   -3.8820    0.0641    0.0201 O   0  0  0  0  0  0  0  0  0  0  0  0
   -2.5383    0.1058   -0.0568 C   0  0  0  0  0  0  0  0  0  0  0  0
   -1.9739    1.3770   -0.2298 C   0  0  0  0  0  0  0  0  0  0  0  0
   -0.6012    1.5362   -0.2633 C   0  0  0  0  0  0  0  0  0  0  0  0
   -2.8601    2.5729   -0.4115 C   0  0  0  0  0  0  0  0  0  0  0  0
   -3.6072    2.6901   -1.3708 O   0  0  0  0  0  0  0  0  0  0  0  0
   -2.7337    3.5019    0.5441 N   0  0  0  0  0  0  0  0  0  0  0  0
   -3.4758    4.7403    0.5269 C   0  0  0  0  0  0  0  0  0  0  0  0
   -1.6888   -0.9842    0.0653 C   0  0  0  0  0  0  0  0  0  0  0  0
   -0.3056   -0.8232    0.0170 C   0  0  0  0  0  0  0  0  0  0  0  0
    0.2485    0.4363   -0.1502 C   0  0  0  0  0  0  0  0  0  0  0  0
    1.5741    0.7022   -0.2130 O   0  0  0  0  0  0  0  0  0  0  0  0
    2.4677   -0.3664   -0.0936 C   0  0  0  0  0  0  0  0  0  0  0  0
    3.8717    0.1943   -0.2648 C   0  0  0  0  0  0  0  0  0  0  0  0
    4.0773    1.3104   -0.6916 O   0  0  0  0  0  0  0  0  0  0  0  0
    4.8281   -0.6979    0.0861 N   0  0  0  0  0  0  0  0  0  0  0  0
    6.2213   -0.5693    0.0400 C   0  0  0  0  0  0  0  0  0  0  0  0
    6.8925    0.5990   -0.3249 C   0  0  0  0  0  0  0  0  0  0  0  0
    8.2817    0.6181   -0.3264 C   0  0  0  0  0  0  0  0  0  0  0  0
    9.0208   -0.5006    0.0262 C   0  0  0  0  0  0  0  0  0  0  0  0
    8.3494   -1.6621    0.3872 C   0  0  0  0  0  0  0  0  0  0  0  0
    6.9661   -1.6979    0.3926 C   0  0  0  0  0  0  0  0  0  0  0  0
   -3.7146   -2.3180   -1.4251 H   0  0  0  0  0  0  0  0  0  0  0  0
   -5.1310   -1.3567   -1.8371 H   0  0  0  0  0  0  0  0  0  0  0  0
   -5.7276   -3.7499   -1.7265 H   0  0  0  0  0  0  0  0  0  0  0  0
   -5.0624   -3.8739   -0.0950 H   0  0  0  0  0  0  0  0  0  0  0  0
   -7.7676   -1.8945    1.2225 H   0  0  0  0  0  0  0  0  0  0  0  0
   -6.2934   -2.7487    1.6865 H   0  0  0  0  0  0  0  0  0  0  0  0
   -6.4517   -0.1602    0.0611 H   0  0  0  0  0  0  0  0  0  0  0  0
   -5.8761   -0.3364    1.7218 H   0  0  0  0  0  0  0  0  0  0  0  0
   -4.0349   -1.7630    0.9850 H   0  0  0  0  0  0  0  0  0  0  0  0
   -0.1772    2.5257   -0.3903 H   0  0  0  0  0  0  0  0  0  0  0  0
   -2.1479    3.3013    1.3375 H   0  0  0  0  0  0  0  0  0  0  0  0
   -3.3195    5.2813   -0.4059 H   0  0  0  0  0  0  0  0  0  0  0  0
   -4.5468    4.5748    0.6520 H   0  0  0  0  0  0  0  0  0  0  0  0
   -3.1276    5.3615    1.3471 H   0  0  0  0  0  0  0  0  0  0  0  0
   -2.0736   -1.9846    0.2095 H   0  0  0  0  0  0  0  0  0  0  0  0
    0.3111   -1.7065    0.1140 H   0  0  0  0  0  0  0  0  0  0  0  0
    2.3769   -0.8675    0.8776 H   0  0  0  0  0  0  0  0  0  0  0  0
    2.3005   -1.1275   -0.8680 H   0  0  0  0  0  0  0  0  0  0  0  0
    4.5028   -1.5870    0.4391 H   0  0  0  0  0  0  0  0  0  0  0  0
    6.3525    1.4869   -0.6077 H   0  0  0  0  0  0  0  0  0  0  0  0
    8.7871    1.5322   -0.6121 H   0  0  0  0  0  0  0  0  0  0  0  0
   10.1021   -0.4698    0.0206 H   0  0  0  0  0  0  0  0  0  0  0  0
    8.9030   -2.5488    0.6675 H   0  0  0  0  0  0  0  0  0  0  0  0
    6.4548   -2.6118    0.6758 H   0  0  0  0  0  0  0  0  0  0  0  0
 26 25  1  0
 26 27  2  0
 25 24  2  0
 27 28  1  0
 24 23  1  0
 28 23  2  0
 23 22  1  0
 21 20  2  0
 22 20  1  0
 20 19  1  0
 19 18  1  0
 18 17  1  0
 17 10  1  0
 17 16  2  0
 10  9  2  0
 16 15  1  0
 12 11  2  0
  9 11  1  0
  9  8  1  0
 11 13  1  0
 15  8  2  0
  8  7  1  0
 13 14  1  0
  7  6  1  0
  5  6  1  0
  5  4  1  0
  6  1  1  0
  4  3  1  0
  1  2  1  0
  3  2  1  0
  1 29  1  0
  1 30  1  0
  2 31  1  0
  2 32  1  0
  4 33  1  0
  4 34  1  0
  5 35  1  0
  5 36  1  0
  6 37  1  1
 10 38  1  0
 13 39  1  0
 14 40  1  0
 14 41  1  0
 14 42  1  0
 15 43  1  0
 16 44  1  0
 19 45  1  0
 19 46  1  0
 22 47  1  0
 24 48  1  0
 25 49  1  0
 26 50  1  0
 27 51  1  0
 28 52  1  0
M  END
