
     RDKit          3D

 34 36  0  0  0  0  0  0  0  0999 V2000
   -0.6942    0.8399    0.8287 C   0  0  0  0  0  0  0  0  0  0  0  0
   -2.5435   -0.5079    0.2324 C   0  0  0  0  0  0  0  0  0  0  0  0
    0.5726    1.0968    1.6047 C   0  0  0  0  0  0  0  0  0  0  0  0
    1.7919    1.0009    0.7210 C   0  0  0  0  0  0  0  0  0  0  0  0
    2.4702    2.1423    0.3069 C   0  0  0  0  0  0  0  0  0  0  0  0
    3.5714    2.0420   -0.5341 C   0  0  0  0  0  0  0  0  0  0  0  0
    4.0089    0.7976   -0.9611 C   0  0  0  0  0  0  0  0  0  0  0  0
    3.3481   -0.3586   -0.5528 C   0  0  0  0  0  0  0  0  0  0  0  0
    2.2483   -0.2417    0.2890 C   0  0  0  0  0  0  0  0  0  0  0  0
   -1.3890   -0.3380    1.0020 C   0  0  0  0  0  0  0  0  0  0  0  0
   -4.4005   -1.1601   -0.7462 N   0  0  0  0  0  0  0  0  0  0  0  0
   -4.1380   -0.0143   -1.2502 N   0  0  0  0  0  0  0  0  0  0  0  0
   -1.1442    1.8142   -0.0989 C   0  0  0  0  0  0  0  0  0  0  0  0
   -3.4700   -1.4887    0.1438 N   0  0  0  0  0  0  0  0  0  0  0  0
   -3.5149   -2.7476    0.8469 C   0  0  0  0  0  0  0  0  0  0  0  0
    4.7411   -2.1702    0.0391 O   0  0  0  0  0  0  0  0  0  0  0  0
   -2.9902    0.4491   -0.6784 C   0  0  0  0  0  0  0  0  0  0  0  0
   -2.2772    1.6415   -0.8555 C   0  0  0  0  0  0  0  0  0  0  0  0
    0.5291    2.0910    2.0557 H   0  0  0  0  0  0  0  0  0  0  0  0
    0.6484    0.3800    2.4245 H   0  0  0  0  0  0  0  0  0  0  0  0
    3.0056   -2.3979   -1.0865 H   0  0  0  0  0  0  0  0  0  0  0  0
    4.3492   -1.6400   -1.9361 H   0  0  0  0  0  0  0  0  0  0  0  0
    2.1395    3.1170    0.6458 H   0  0  0  0  0  0  0  0  0  0  0  0
    4.0888    2.9376   -0.8540 H   0  0  0  0  0  0  0  0  0  0  0  0
    4.8672    0.7229   -1.6184 H   0  0  0  0  0  0  0  0  0  0  0  0
    1.7186   -1.1381    0.5961 H   0  0  0  0  0  0  0  0  0  0  0  0
   -1.0475   -1.0925    1.6994 H   0  0  0  0  0  0  0  0  0  0  0  0
   -0.5707    2.7268   -0.2090 H   0  0  0  0  0  0  0  0  0  0  0  0
   -3.3522   -2.5834    1.9099 H   0  0  0  0  0  0  0  0  0  0  0  0
   -4.4977   -3.1865    0.7064 H   0  0  0  0  0  0  0  0  0  0  0  0
   -2.7535   -3.4277    0.4687 H   0  0  0  0  0  0  0  0  0  0  0  0
    4.9859   -3.0753   -0.1771 H   0  0  0  0  0  0  0  0  0  0  0  0
   -2.6098    2.3983   -1.5533 H   0  0  0  0  0  0  0  0  0  0  0  0
    3.8520   -1.7129   -0.9607 C   0  0  0  0  0  0  0  0  0  0  0  0
 16 34  1  0
 34  8  1  0
  8  7  2  0
  8  9  1  0
  7  6  1  0
  9  4  2  0
  6  5  2  0
  5  4  1  0
  4  3  1  0
  3  1  1  0
 13 18  2  0
 13  1  1  0
 18 17  1  0
  1 10  2  0
 17  2  2  0
 17 12  1  0
 10  2  1  0
  2 14  1  0
 12 11  2  0
 14 11  1  0
 14 15  1  0
  3 19  1  0
  3 20  1  0
 34 21  1  0
 34 22  1  0
  5 23  1  0
  6 24  1  0
  7 25  1  0
  9 26  1  0
 10 27  1  0
 13 28  1  0
 15 29  1  0
 15 30  1  0
 15 31  1  0
 16 32  1  0
 18 33  1  0
M  END
