
     RDKit          3D

 20 21  0  0  0  0  0  0  0  0999 V2000
   -1.4839   -2.2879    0.0201 N   0  0  0  0  0  0  0  0  0  0  0  0
   -1.8757   -1.0093    0.0165 C   0  0  0  0  0  0  0  0  0  0  0  0
   -3.2437   -0.6731    0.0375 C   0  0  0  0  0  0  0  0  0  0  0  0
   -3.6276    0.6441    0.0336 C   0  0  0  0  0  0  0  0  0  0  0  0
   -2.7757    1.6749    0.0100 N   0  0  0  0  0  0  0  0  0  0  0  0
   -1.4922    1.3691   -0.0095 C   0  0  0  0  0  0  0  0  0  0  0  0
   -0.9626    0.0790   -0.0067 C   0  0  0  0  0  0  0  0  0  0  0  0
    0.4746   -0.1259   -0.0250 C   0  0  0  0  0  0  0  0  0  0  0  0
    1.6202    1.1977   -0.0388 S   0  0  0  0  0  0  0  0  0  0  0  0
    1.0663   -1.2754   -0.0304 N   0  0  0  0  0  0  0  0  0  0  0  0
    2.4122   -1.2284   -0.0385 N   0  0  0  0  0  0  0  0  0  0  0  0
    2.8680   -0.0116   -0.0467 C   0  0  0  0  0  0  0  0  0  0  0  0
    4.1724    0.3140   -0.1145 N   0  0  0  0  0  0  0  0  0  0  0  0
   -2.1633   -3.0280    0.0317 H   0  0  0  0  0  0  0  0  0  0  0  0
   -0.5009   -2.5160   -0.0011 H   0  0  0  0  0  0  0  0  0  0  0  0
   -3.9898   -1.4567    0.0558 H   0  0  0  0  0  0  0  0  0  0  0  0
   -4.6835    0.8908    0.0499 H   0  0  0  0  0  0  0  0  0  0  0  0
   -0.8138    2.2186   -0.0303 H   0  0  0  0  0  0  0  0  0  0  0  0
    4.4664    1.2262    0.1914 H   0  0  0  0  0  0  0  0  0  0  0  0
    4.8257   -0.4262    0.0892 H   0  0  0  0  0  0  0  0  0  0  0  0
  9 12  1  0
  9  8  1  0
  6  5  2  0
  6  7  1  0
  5  4  1  0
 13 12  1  0
 12 11  2  0
  8  7  1  0
  8 10  2  0
  7  2  2  0
  4  3  2  0
 11 10  1  0
  2  3  1  0
  2  1  1  0
  1 14  1  0
  1 15  1  0
  3 16  1  0
  4 17  1  0
  6 18  1  0
 13 19  1  0
 13 20  1  0
M  END
