
     RDKit          3D

 43 45  0  0  0  0  0  0  0  0999 V2000
   -5.0763    1.8798   -1.6915 C   0  0  0  0  0  0  0  0  0  0  0  0
   -4.8982    1.1584    0.6962 C   0  0  0  0  0  0  0  0  0  0  0  0
   -4.0996    0.1205    2.8199 C   0  0  0  0  0  0  0  0  0  0  0  0
   -2.9798   -0.0097    0.5842 C   0  0  0  0  0  0  0  0  0  0  0  0
   -1.8607   -0.7718    0.8169 C   0  0  0  0  0  0  0  0  0  0  0  0
   -1.0207   -1.0300   -0.2714 C   0  0  0  0  0  0  0  0  0  0  0  0
   -1.2766   -0.5386   -1.5613 C   0  0  0  0  0  0  0  0  0  0  0  0
   -0.3675   -0.7567   -2.7383 C   0  0  0  0  0  0  0  0  0  0  0  0
   -2.4241    0.2316   -1.7596 C   0  0  0  0  0  0  0  0  0  0  0  0
   -3.2617    0.4834   -0.6924 C   0  0  0  0  0  0  0  0  0  0  0  0
    1.9070    0.1647    0.3001 C   0  0  0  0  0  0  0  0  0  0  0  0
    3.3644    0.5334    0.3224 C   0  0  0  0  0  0  0  0  0  0  0  0
    4.2751   -0.2487    1.0295 C   0  0  0  0  0  0  0  0  0  0  0  0
    5.6191    0.0830    1.0695 C   0  0  0  0  0  0  0  0  0  0  0  0
    6.0417    1.2101    0.3872 C   0  0  0  0  0  0  0  0  0  0  0  0
    5.1704    2.0049   -0.3282 C   0  0  0  0  0  0  0  0  0  0  0  0
    3.8260    1.6534   -0.3565 C   0  0  0  0  0  0  0  0  0  0  0  0
    7.3427    1.5402    0.4243 F   0  0  0  0  0  0  0  0  0  0  0  0
   -4.4326    1.1857   -0.6041 N   0  0  0  0  0  0  0  0  0  0  0  0
   -3.9887    0.4187    1.4147 N   0  0  0  0  0  0  0  0  0  0  0  0
    1.7374   -1.1519   -0.3039 N   0  0  0  0  0  0  0  0  0  0  0  0
    0.4312   -2.2750    1.4973 O   0  0  0  0  0  0  0  0  0  0  0  0
    0.4238   -3.1831   -0.8372 O   0  0  0  0  0  0  0  0  0  0  0  0
    0.4019   -2.0399    0.0621 S   0  0  1  0  0  0  0  0  0  0  0  0
   -6.0617    2.2051   -1.3723 H   0  0  0  0  0  0  0  0  0  0  0  0
   -4.4991    2.7534   -1.9932 H   0  0  0  0  0  0  0  0  0  0  0  0
   -5.1882    1.2159   -2.5470 H   0  0  0  0  0  0  0  0  0  0  0  0
   -4.9274    0.6854    3.2376 H   0  0  0  0  0  0  0  0  0  0  0  0
   -4.2834   -0.9416    2.9799 H   0  0  0  0  0  0  0  0  0  0  0  0
   -3.1870    0.4056    3.3417 H   0  0  0  0  0  0  0  0  0  0  0  0
   -1.6368   -1.1559    1.8018 H   0  0  0  0  0  0  0  0  0  0  0  0
   -0.0521   -1.7917   -2.8468 H   0  0  0  0  0  0  0  0  0  0  0  0
   -0.8725   -0.4716   -3.6588 H   0  0  0  0  0  0  0  0  0  0  0  0
    0.5286   -0.1350   -2.6697 H   0  0  0  0  0  0  0  0  0  0  0  0
   -2.6453    0.6189   -2.7457 H   0  0  0  0  0  0  0  0  0  0  0  0
    1.5247    0.1230    1.3210 H   0  0  0  0  0  0  0  0  0  0  0  0
    1.3314    0.9308   -0.2283 H   0  0  0  0  0  0  0  0  0  0  0  0
    3.9317   -1.1292    1.5584 H   0  0  0  0  0  0  0  0  0  0  0  0
    6.3251   -0.5216    1.6234 H   0  0  0  0  0  0  0  0  0  0  0  0
    5.5286    2.8792   -0.8556 H   0  0  0  0  0  0  0  0  0  0  0  0
    3.1334    2.2664   -0.9199 H   0  0  0  0  0  0  0  0  0  0  0  0
    1.9998   -1.2113   -1.2809 H   0  0  0  0  0  0  0  0  0  0  0  0
   -5.9102    1.6846    1.1162 O   0  0  0  0  0  0  0  0  0  0  0  0
 14 13  2  0
 14 15  1  0
 18 15  1  0
 13 12  1  0
 15 16  2  0
 12 17  2  0
 12 11  1  0
 16 17  1  0
 11 21  1  0
  3 20  1  0
 24 21  1  6
 20  2  1  0
 20  4  1  0
 43  2  2  0
 23 24  2  0
  2 19  1  0
  5  4  2  0
  5  6  1  0
  4 10  1  0
 24  6  1  0
 24 22  2  0
  6  7  2  0
 19 10  1  0
 19  1  1  0
 10  9  2  0
  7  9  1  0
  7  8  1  0
  1 25  1  0
  1 26  1  0
  1 27  1  0
  3 28  1  0
  3 29  1  0
  3 30  1  0
  5 31  1  0
  8 32  1  0
  8 33  1  0
  8 34  1  0
  9 35  1  0
 11 36  1  0
 11 37  1  0
 13 38  1  0
 14 39  1  0
 16 40  1  0
 17 41  1  0
 21 42  1  0
M  END
