
     RDKit          3D

 22 22  0  0  0  0  0  0  0  0999 V2000
   -0.8125   -0.6830   -1.2937 C   0  0  1  0  0  0  0  0  0  0  0  0
    0.7157   -0.6830   -1.2937 C   0  0  1  0  0  0  0  0  0  0  0  0
    1.2684   -0.6830    0.0706 C   0  0  0  0  0  0  0  0  0  0  0  0
    0.7093    0.4141    0.8977 C   0  0  2  0  0  0  0  0  0  0  0  0
   -0.8253    0.4144    0.8938 C   0  0  1  0  0  0  0  0  0  0  0  0
   -1.3129    1.6365    1.6159 C   0  0  0  0  0  0  0  0  0  0  0  0
   -1.2547   -1.8776   -0.8032 O   0  0  0  0  0  0  0  0  0  0  0  0
    1.1819   -1.8624   -1.9855 O   0  0  0  0  0  0  0  0  0  0  0  0
    1.1741    1.6687    0.3788 O   0  0  0  0  0  0  0  0  0  0  0  0
   -1.3721    0.4159   -0.4623 O   0  0  0  0  0  0  0  0  0  0  0  0
   -1.1624   -0.5641   -2.3120 H   0  0  0  0  0  0  0  0  0  0  0  0
    1.0668    0.1996   -1.8147 H   0  0  0  0  0  0  0  0  0  0  0  0
    1.0374   -1.6304    0.5424 H   0  0  0  0  0  0  0  0  0  0  0  0
    2.3438   -0.5654    0.0130 H   0  0  0  0  0  0  0  0  0  0  0  0
    1.0576    0.2976    1.9169 H   0  0  0  0  0  0  0  0  0  0  0  0
   -1.1766   -0.4698    1.4117 H   0  0  0  0  0  0  0  0  0  0  0  0
   -1.1209    2.5142    1.0107 H   0  0  0  0  0  0  0  0  0  0  0  0
   -2.3774    1.5484    1.7967 H   0  0  0  0  0  0  0  0  0  0  0  0
   -0.7925    1.7290    2.5615 H   0  0  0  0  0  0  0  0  0  0  0  0
   -1.9874   -2.1762   -1.3161 H   0  0  0  0  0  0  0  0  0  0  0  0
    1.7257   -1.6065   -2.7120 H   0  0  0  0  0  0  0  0  0  0  0  0
    1.9141    1.9630    0.8836 H   0  0  0  0  0  0  0  0  0  0  0  0
  1  2  1  0
  1  7  1  0
  1 10  1  0
  1 11  1  6
  2  3  1  0
  2  8  1  0
  2 12  1  6
  3  4  1  0
  3 13  1  0
  3 14  1  0
  4  5  1  0
  4  9  1  0
  4 15  1  1
  5  6  1  0
  5 10  1  0
  5 16  1  1
  6 17  1  0
  6 18  1  0
  6 19  1  0
  7 20  1  0
  8 21  1  0
  9 22  1  0
M  END
