
     RDKit          3D

 55 58  0  0  0  0  0  0  0  0999 V2000
    6.9212    0.7818    0.8623 O   0  0  0  0  0  0  0  0  0  0  0  0
    7.0255    0.9447   -0.3451 C   0  0  0  0  0  0  0  0  0  0  0  0
    8.2086    1.1828   -0.9502 N   0  0  0  0  0  0  0  0  0  0  0  0
    9.4064    1.3734   -0.1585 C   0  0  0  0  0  0  0  0  0  0  0  0
    8.3332    1.5158   -2.3549 C   0  0  0  0  0  0  0  0  0  0  0  0
    5.8035    0.8733   -1.2530 C   0  0  0  0  0  0  0  0  0  0  0  0
    4.5392    0.6510   -0.4808 C   0  0  0  0  0  0  0  0  0  0  0  0
    4.1030   -0.6337   -0.1903 C   0  0  0  0  0  0  0  0  0  0  0  0
    3.7742    1.7240   -0.0390 C   0  0  0  0  0  0  0  0  0  0  0  0
    2.5975    1.5107    0.6600 C   0  0  0  0  0  0  0  0  0  0  0  0
    2.1740    0.2222    0.9659 C   0  0  0  0  0  0  0  0  0  0  0  0
    2.9386   -0.8585    0.5357 C   0  0  0  0  0  0  0  0  0  0  0  0
    2.6112   -2.1745    0.8931 N   0  0  0  0  0  0  0  0  0  0  0  0
    1.4139   -2.8092    0.8579 C   0  0  0  0  0  0  0  0  0  0  0  0
    1.3612   -4.0221    0.9893 O   0  0  0  0  0  0  0  0  0  0  0  0
    1.0065    0.0058    1.7163 N   0  0  0  0  0  0  0  0  0  0  0  0
   -0.0334   -0.7267    1.1463 C   0  0  0  0  0  0  0  0  0  0  0  0
    0.1639   -2.0251    0.6631 C   0  0  0  0  0  0  0  0  0  0  0  0
   -0.9163   -2.6996    0.0937 C   0  0  0  0  0  0  0  0  0  0  0  0
   -2.1645   -2.1202   -0.0005 C   0  0  0  0  0  0  0  0  0  0  0  0
   -1.3058   -0.1595    1.0805 C   0  0  0  0  0  0  0  0  0  0  0  0
   -2.3760   -0.8405    0.5162 C   0  0  0  0  0  0  0  0  0  0  0  0
   -3.7069   -0.2068    0.4477 C   0  0  0  0  0  0  0  0  0  0  0  0
   -4.5072   -0.4026   -0.6733 C   0  0  0  0  0  0  0  0  0  0  0  0
   -5.7658    0.1859   -0.7849 C   0  0  0  0  0  0  0  0  0  0  0  0
   -6.5718    0.0048   -1.8255 O   0  0  0  0  0  0  0  0  0  0  0  0
   -6.1797   -0.8901   -2.8557 C   0  0  0  0  0  0  0  0  0  0  0  0
   -4.1737    0.5846    1.4971 C   0  0  0  0  0  0  0  0  0  0  0  0
   -5.4228    1.1631    1.4156 C   0  0  0  0  0  0  0  0  0  0  0  0
   -6.2072    0.9836    0.2854 C   0  0  0  0  0  0  0  0  0  0  0  0
   -7.4926    1.6465    0.2501 N   0  0  0  0  0  0  0  0  0  0  0  0
   -8.0746    1.7930    1.3024 O   0  0  0  0  0  0  0  0  0  0  0  0
   -7.9118    2.0394   -0.8119 O   0  0  0  0  0  0  0  0  0  0  0  0
    9.2776    0.9583    0.8355 H   0  0  0  0  0  0  0  0  0  0  0  0
   10.2453    0.8708   -0.6396 H   0  0  0  0  0  0  0  0  0  0  0  0
    9.6551    2.4335   -0.0635 H   0  0  0  0  0  0  0  0  0  0  0  0
    8.2078    2.5866   -2.5348 H   0  0  0  0  0  0  0  0  0  0  0  0
    9.3258    1.2294   -2.6982 H   0  0  0  0  0  0  0  0  0  0  0  0
    7.6149    0.9766   -2.9661 H   0  0  0  0  0  0  0  0  0  0  0  0
    5.7285    1.7976   -1.8323 H   0  0  0  0  0  0  0  0  0  0  0  0
    5.9465    0.0743   -1.9860 H   0  0  0  0  0  0  0  0  0  0  0  0
    4.6826   -1.4874   -0.5240 H   0  0  0  0  0  0  0  0  0  0  0  0
    4.0884    2.7378   -0.2538 H   0  0  0  0  0  0  0  0  0  0  0  0
    2.0019    2.3549    0.9866 H   0  0  0  0  0  0  0  0  0  0  0  0
    3.3969   -2.8044    0.9850 H   0  0  0  0  0  0  0  0  0  0  0  0
    0.6800    0.8514    2.1624 H   0  0  0  0  0  0  0  0  0  0  0  0
   -0.7738   -3.7079   -0.2699 H   0  0  0  0  0  0  0  0  0  0  0  0
   -2.9799   -2.6813   -0.4369 H   0  0  0  0  0  0  0  0  0  0  0  0
   -1.4428    0.8502    1.4494 H   0  0  0  0  0  0  0  0  0  0  0  0
   -4.1267   -1.0048   -1.4865 H   0  0  0  0  0  0  0  0  0  0  0  0
   -5.2839   -0.5420   -3.3734 H   0  0  0  0  0  0  0  0  0  0  0  0
   -6.0067   -1.8973   -2.4710 H   0  0  0  0  0  0  0  0  0  0  0  0
   -7.0063   -0.9161   -3.5595 H   0  0  0  0  0  0  0  0  0  0  0  0
   -3.5761    0.7322    2.3860 H   0  0  0  0  0  0  0  0  0  0  0  0
   -5.7853    1.7709    2.2326 H   0  0  0  0  0  0  0  0  0  0  0  0
  2  6  1  0
  2  1  2  0
  3  2  1  0
  4  3  1  0
  4 34  1  0
  4 35  1  0
  4 36  1  0
  5  3  1  0
  5 37  1  0
  5 38  1  0
  5 39  1  0
  6  7  1  0
  6 40  1  0
  6 41  1  0
  7  9  2  0
  8  7  1  0
  8 12  2  0
  8 42  1  0
  9 10  1  0
  9 43  1  0
 10 44  1  0
 11 10  2  0
 11 16  1  0
 12 11  1  0
 13 12  1  0
 13 14  1  0
 13 45  1  0
 14 18  1  0
 15 14  2  0
 16 46  1  0
 17 16  1  0
 17 21  2  0
 18 17  1  0
 19 18  2  0
 19 20  1  0
 19 47  1  0
 20 22  2  0
 20 48  1  0
 21 49  1  0
 22 21  1  0
 22 23  1  0
 23 24  2  0
 23 28  1  0
 24 25  1  0
 24 50  1  0
 25 26  1  0
 25 30  2  0
 27 26  1  0
 27 51  1  0
 27 52  1  0
 27 53  1  0
 28 29  2  0
 28 54  1  0
 29 30  1  0
 29 55  1  0
 30 31  1  0
 31 32  2  0
 33 31  1  0
M  CHG  2  31   1  33  -1
M  END
