
     RDKit          3D

 51 53  0  0  0  0  0  0  0  0999 V2000
    2.0542    4.3665   -2.1009 F   0  0  0  0  0  0  0  0  0  0  0  0
    3.0366    3.7896   -1.3865 C   0  0  0  0  0  0  0  0  0  0  0  0
    3.9542    4.5974   -0.7429 C   0  0  0  0  0  0  0  0  0  0  0  0
    4.9598    3.9811   -0.0106 C   0  0  0  0  0  0  0  0  0  0  0  0
    5.0330    2.5969    0.0666 C   0  0  0  0  0  0  0  0  0  0  0  0
    3.0881    2.4113   -1.3255 C   0  0  0  0  0  0  0  0  0  0  0  0
    4.1005    1.7975   -0.5905 C   0  0  0  0  0  0  0  0  0  0  0  0
    4.1384    0.3011   -0.4706 C   0  0  0  0  0  0  0  0  0  0  0  0
    3.2052   -0.1874    0.6388 C   0  0  0  0  0  0  0  0  0  0  0  0
    3.2117   -1.6348    0.7577 N   0  0  0  0  0  0  0  0  0  0  0  0
    4.3308   -2.1270    1.5464 C   0  0  0  0  0  0  0  0  0  0  0  0
    4.6938   -3.5677    1.2287 C   0  0  0  0  0  0  0  0  0  0  0  0
    1.9379   -2.1485    1.2134 C   0  0  0  0  0  0  0  0  0  0  0  0
    0.8602   -2.0289    0.1647 C   0  0  0  0  0  0  0  0  0  0  0  0
    1.1482   -2.2260   -1.1834 C   0  0  0  0  0  0  0  0  0  0  0  0
    0.1342   -2.1484   -2.1258 C   0  0  0  0  0  0  0  0  0  0  0  0
   -1.1741   -1.8803   -1.7486 C   0  0  0  0  0  0  0  0  0  0  0  0
   -1.4678   -1.6629   -0.4036 C   0  0  0  0  0  0  0  0  0  0  0  0
   -0.4441   -1.7354    0.5398 C   0  0  0  0  0  0  0  0  0  0  0  0
   -2.7765   -1.4114    0.0298 N   0  0  0  0  0  0  0  0  0  0  0  0
   -3.6373   -0.4939   -0.5406 C   0  0  0  0  0  0  0  0  0  0  0  0
   -3.3962    0.3192   -1.4901 N   0  0  0  0  0  0  0  0  0  0  0  0
   -4.9863   -0.5059    0.0454 C   0  0  0  0  0  0  0  0  0  0  0  0
   -5.6449   -1.9064    0.8073 S   0  0  0  0  0  0  0  0  0  0  0  0
   -7.1162   -1.1032    1.1410 C   0  0  0  0  0  0  0  0  0  0  0  0
   -7.1065    0.1806    0.6824 C   0  0  0  0  0  0  0  0  0  0  0  0
   -5.8856    0.5221    0.0499 C   0  0  0  0  0  0  0  0  0  0  0  0
    3.8867    5.6750   -0.8128 H   0  0  0  0  0  0  0  0  0  0  0  0
    5.6933    4.5900    0.5014 H   0  0  0  0  0  0  0  0  0  0  0  0
    5.8259    2.1314    0.6392 H   0  0  0  0  0  0  0  0  0  0  0  0
    2.3470    1.8178   -1.8480 H   0  0  0  0  0  0  0  0  0  0  0  0
    3.8280   -0.1647   -1.4087 H   0  0  0  0  0  0  0  0  0  0  0  0
    5.1626   -0.0253   -0.2760 H   0  0  0  0  0  0  0  0  0  0  0  0
    3.4666    0.3030    1.5899 H   0  0  0  0  0  0  0  0  0  0  0  0
    2.1919    0.1416    0.3957 H   0  0  0  0  0  0  0  0  0  0  0  0
    5.1985   -1.5020    1.3284 H   0  0  0  0  0  0  0  0  0  0  0  0
    4.1447   -2.0136    2.6269 H   0  0  0  0  0  0  0  0  0  0  0  0
    3.8920   -4.2656    1.4719 H   0  0  0  0  0  0  0  0  0  0  0  0
    4.9275   -3.6799    0.1698 H   0  0  0  0  0  0  0  0  0  0  0  0
    5.5680   -3.8719    1.8051 H   0  0  0  0  0  0  0  0  0  0  0  0
    2.0553   -3.2079    1.4561 H   0  0  0  0  0  0  0  0  0  0  0  0
    1.5982   -1.6642    2.1438 H   0  0  0  0  0  0  0  0  0  0  0  0
    2.1662   -2.4334   -1.4854 H   0  0  0  0  0  0  0  0  0  0  0  0
    0.3585   -2.3102   -3.1723 H   0  0  0  0  0  0  0  0  0  0  0  0
   -1.9562   -1.8590   -2.4961 H   0  0  0  0  0  0  0  0  0  0  0  0
   -0.6703   -1.5503    1.5845 H   0  0  0  0  0  0  0  0  0  0  0  0
   -2.9493   -1.6284    1.0003 H   0  0  0  0  0  0  0  0  0  0  0  0
   -2.4214    0.2980   -1.7736 H   0  0  0  0  0  0  0  0  0  0  0  0
   -7.9128   -1.6214    1.6521 H   0  0  0  0  0  0  0  0  0  0  0  0
   -7.9393    0.8595    0.7940 H   0  0  0  0  0  0  0  0  0  0  0  0
   -5.6698    1.4910   -0.3763 H   0  0  0  0  0  0  0  0  0  0  0  0
 26 25  2  0
 26 27  1  0
 25 24  1  0
 27 23  2  0
 24 23  1  0
 23 21  1  0
 21 22  2  0
 21 20  1  0
 16 17  1  0
 16 15  2  0
 17 18  2  0
 18 20  1  0
 18 19  1  0
 15 14  1  0
 19 14  2  0
 14 13  1  0
 13 10  1  0
 10 11  1  0
 10  9  1  0
 11 12  1  0
  9  8  1  0
  4  5  2  0
  4  3  1  0
  5  7  1  0
  3  2  2  0
  7  8  1  0
  7  6  2  0
  2  6  1  0
  2  1  1  0
  3 28  1  0
  4 29  1  0
  5 30  1  0
  6 31  1  0
  8 32  1  0
  8 33  1  0
  9 34  1  0
  9 35  1  0
 11 36  1  0
 11 37  1  0
 12 38  1  0
 12 39  1  0
 12 40  1  0
 13 41  1  0
 13 42  1  0
 15 43  1  0
 16 44  1  0
 17 45  1  0
 19 46  1  0
 20 47  1  0
 22 48  1  0
 25 49  1  0
 26 50  1  0
 27 51  1  0
M  END
