
     RDKit          3D

 57 58  0  0  0  0  0  0  0  0999 V2000
    1.4311    1.9548    0.7767 C   0  0  0  0  0  0  0  0  0  0  0  0
    0.2252    2.6361    0.7727 C   0  0  0  0  0  0  0  0  0  0  0  0
   -0.4030    2.9389   -0.4299 C   0  0  0  0  0  0  0  0  0  0  0  0
    0.1708    2.5605   -1.6345 C   0  0  0  0  0  0  0  0  0  0  0  0
    1.3817    1.8818   -1.6454 C   0  0  0  0  0  0  0  0  0  0  0  0
    2.0008    1.5871   -0.4376 C   0  0  0  0  0  0  0  0  0  0  0  0
    3.5358    0.6966   -0.4329 S   0  0  1  0  0  0  0  0  0  0  0  0
    3.9887    0.6241   -1.8110 O   0  0  0  0  0  0  0  0  0  0  0  0
    4.4068    1.2553    0.5878 O   0  0  0  0  0  0  0  0  0  0  0  0
    3.1875   -0.8308    0.0777 N   0  0  0  0  0  0  0  0  0  0  0  0
    2.1336   -1.5901   -0.5830 C   0  0  1  0  0  0  0  0  0  0  0  0
    2.6246   -2.9121   -1.2046 C   0  0  1  0  0  0  0  0  0  0  0  0
    1.5809   -3.4397   -2.1869 C   0  0  0  0  0  0  0  0  0  0  0  0
    3.9542   -2.7264   -1.9273 C   0  0  0  0  0  0  0  0  0  0  0  0
    0.7474   -1.7602    0.6597 P   0  0  2  0  0  0  0  0  0  0  0  0
    1.1002   -1.0824    1.9466 O   0  0  0  0  0  0  0  0  0  0  0  0
    0.5175   -3.3426    0.7782 O   0  0  0  0  0  0  0  0  0  0  0  0
   -0.7538   -1.0595   -0.0977 C   0  0  0  0  0  0  0  0  0  0  0  0
   -1.8749   -0.7192    0.8895 C   0  0  2  0  0  0  0  0  0  0  0  0
   -2.5111   -1.9451    1.5105 C   0  0  0  0  0  0  0  0  0  0  0  0
   -2.0511   -3.0668    1.4615 O   0  0  0  0  0  0  0  0  0  0  0  0
   -3.6222   -1.6621    2.1512 O   0  0  0  0  0  0  0  0  0  0  0  0
   -2.9135    0.1747    0.2490 C   0  0  0  0  0  0  0  0  0  0  0  0
   -3.1924    1.4209    0.7950 C   0  0  0  0  0  0  0  0  0  0  0  0
   -3.5763   -0.2222   -0.9066 C   0  0  0  0  0  0  0  0  0  0  0  0
   -4.4968    0.6283   -1.5026 C   0  0  0  0  0  0  0  0  0  0  0  0
   -4.7586    1.8760   -0.9551 C   0  0  0  0  0  0  0  0  0  0  0  0
   -4.1107    2.2843    0.2075 C   0  0  0  0  0  0  0  0  0  0  0  0
   -4.3943    3.6281    0.8291 C   0  0  0  0  0  0  0  0  0  0  0  0
   -4.4857    4.6733   -0.1762 N   0  0  0  0  0  0  0  0  0  0  0  0
    1.9152    1.7203    1.7145 H   0  0  0  0  0  0  0  0  0  0  0  0
   -0.2221    2.9331    1.7115 H   0  0  0  0  0  0  0  0  0  0  0  0
   -1.3443    3.4714   -0.4277 H   0  0  0  0  0  0  0  0  0  0  0  0
   -0.3188    2.7935   -2.5701 H   0  0  0  0  0  0  0  0  0  0  0  0
    1.8299    1.5930   -2.5859 H   0  0  0  0  0  0  0  0  0  0  0  0
    3.1771   -0.8866    1.0927 H   0  0  0  0  0  0  0  0  0  0  0  0
    1.7312   -0.9889   -1.4081 H   0  0  0  0  0  0  0  0  0  0  0  0
    2.7721   -3.6487   -0.4105 H   0  0  0  0  0  0  0  0  0  0  0  0
    1.4534   -2.7443   -3.0198 H   0  0  0  0  0  0  0  0  0  0  0  0
    1.9023   -4.3951   -2.6028 H   0  0  0  0  0  0  0  0  0  0  0  0
    0.6047   -3.6008   -1.7325 H   0  0  0  0  0  0  0  0  0  0  0  0
    4.7435   -2.3915   -1.2571 H   0  0  0  0  0  0  0  0  0  0  0  0
    4.2659   -3.6765   -2.3632 H   0  0  0  0  0  0  0  0  0  0  0  0
    3.8682   -2.0003   -2.7371 H   0  0  0  0  0  0  0  0  0  0  0  0
   -0.4174   -3.5179    1.0199 H   0  0  0  0  0  0  0  0  0  0  0  0
   -0.4409   -0.1231   -0.5660 H   0  0  0  0  0  0  0  0  0  0  0  0
   -1.1033   -1.7026   -0.9095 H   0  0  0  0  0  0  0  0  0  0  0  0
   -1.4348   -0.1688    1.7306 H   0  0  0  0  0  0  0  0  0  0  0  0
   -3.9845   -2.4570    2.5733 H   0  0  0  0  0  0  0  0  0  0  0  0
   -2.6747    1.7301    1.6970 H   0  0  0  0  0  0  0  0  0  0  0  0
   -3.3758   -1.1911   -1.3493 H   0  0  0  0  0  0  0  0  0  0  0  0
   -5.0103    0.3161   -2.4030 H   0  0  0  0  0  0  0  0  0  0  0  0
   -5.4650    2.5408   -1.4349 H   0  0  0  0  0  0  0  0  0  0  0  0
   -5.3558    3.5804    1.3490 H   0  0  0  0  0  0  0  0  0  0  0  0
   -3.6424    3.8180    1.6072 H   0  0  0  0  0  0  0  0  0  0  0  0
   -4.7399    5.5456    0.2688 H   0  0  0  0  0  0  0  0  0  0  0  0
   -3.5758    4.8274   -0.5926 H   0  0  0  0  0  0  0  0  0  0  0  0
  1  6  2  0
  1  2  1  0
  1 31  1  0
  2  3  2  0
  2 32  1  0
  3  4  1  0
  3 33  1  0
  4  5  2  0
  4 34  1  0
  5  6  1  0
  5 35  1  0
  6  7  1  0
  7 10  1  1
  7  8  2  0
  7  9  2  0
 10 11  1  0
 10 36  1  0
 11 12  1  0
 11 15  1  0
 11 37  1  6
 12 13  1  0
 12 14  1  0
 12 38  1  1
 13 39  1  0
 13 40  1  0
 13 41  1  0
 14 42  1  0
 14 43  1  0
 14 44  1  0
 15 16  2  0
 15 18  1  0
 15 17  1  1
 17 45  1  0
 18 19  1  0
 18 46  1  0
 18 47  1  0
 19 23  1  0
 19 20  1  0
 19 48  1  1
 20 21  2  0
 20 22  1  0
 22 49  1  0
 23 24  2  0
 23 25  1  0
 24 28  1  0
 24 50  1  0
 25 26  2  0
 25 51  1  0
 26 27  1  0
 26 52  1  0
 27 28  2  0
 27 53  1  0
 28 29  1  0
 29 30  1  0
 29 54  1  0
 29 55  1  0
 30 56  1  0
 30 57  1  0
M  END
