
     RDKit          3D

 50 55  0  0  0  0  0  0  0  0999 V2000
   -0.3921   -0.2556   -7.2790 C   0  0  1  0  0  0  0  0  0  0  0  0
   -0.4612    1.2914   -8.9774 C   0  0  0  0  0  0  0  0  0  0  0  0
    1.0180    1.0457   -8.6704 C   0  0  0  0  0  0  0  0  0  0  0  0
   -0.5768   -0.4239   -5.7899 C   0  0  0  0  0  0  0  0  0  0  0  0
   -1.7531   -1.0397   -5.3234 C   0  0  0  0  0  0  0  0  0  0  0  0
   -2.0269   -1.1776   -3.9764 C   0  0  0  0  0  0  0  0  0  0  0  0
   -1.0941   -0.6778   -3.0665 C   0  0  0  0  0  0  0  0  0  0  0  0
    0.0768   -0.0677   -3.5439 C   0  0  0  0  0  0  0  0  0  0  0  0
    0.3604    0.0683   -4.8972 C   0  0  0  0  0  0  0  0  0  0  0  0
    0.0125   -0.0826   -1.3407 C   0  0  0  0  0  0  0  0  0  0  0  0
   -0.0529   -0.0073    2.3599 C   0  0  0  0  0  0  0  0  0  0  0  0
    1.1695    0.6088    2.6833 C   0  0  0  0  0  0  0  0  0  0  0  0
    2.0298    1.0038    1.6599 C   0  0  0  0  0  0  0  0  0  0  0  0
    1.6425    0.7698    0.3559 C   0  0  0  0  0  0  0  0  0  0  0  0
    0.2065    0.1847    4.5387 C   0  0  0  0  0  0  0  0  0  0  0  0
   -0.0788    0.0776    5.9633 C   0  0  0  0  0  0  0  0  0  0  0  0
    0.8990    0.4521    6.8863 C   0  0  0  0  0  0  0  0  0  0  0  0
    0.6694    0.3639    8.2456 C   0  0  0  0  0  0  0  0  0  0  0  0
   -0.5570   -0.1043    8.7178 C   0  0  0  0  0  0  0  0  0  0  0  0
   -1.5438   -0.4790    7.8066 C   0  0  0  0  0  0  0  0  0  0  0  0
   -1.3025   -0.3870    6.4493 C   0  0  0  0  0  0  0  0  0  0  0  0
    0.4143    0.1530    0.0436 C   0  0  0  0  0  0  0  0  0  0  0  0
   -0.4531   -0.2456    1.0583 C   0  0  0  0  0  0  0  0  0  0  0  0
   -1.1496    0.8929   -7.7562 N   0  0  0  0  0  0  0  0  0  0  0  0
    1.0026   -0.0393   -7.6869 N   0  0  0  0  0  0  0  0  0  0  0  0
    0.7587    0.2972   -2.4153 N   0  0  0  0  0  0  0  0  0  0  0  0
   -1.1017   -0.6726   -1.6967 N   0  0  0  0  0  0  0  0  0  0  0  0
    1.2984    0.7132    4.0397 N   0  0  0  0  0  0  0  0  0  0  0  0
   -0.6397   -0.2610    3.5694 N   0  0  0  0  0  0  0  0  0  0  0  0
   -0.8381   -0.2134   10.0251 O   0  0  0  0  0  0  0  0  0  0  0  0
   -0.7887   -1.1516   -7.7756 H   0  0  0  0  0  0  0  0  0  0  0  0
   -0.7946    0.6596   -9.8056 H   0  0  0  0  0  0  0  0  0  0  0  0
   -0.6912    2.3254   -9.2326 H   0  0  0  0  0  0  0  0  0  0  0  0
    1.5959    0.7757   -9.5555 H   0  0  0  0  0  0  0  0  0  0  0  0
    1.4714    1.9471   -8.2464 H   0  0  0  0  0  0  0  0  0  0  0  0
   -2.4625   -1.4210   -6.0486 H   0  0  0  0  0  0  0  0  0  0  0  0
   -2.9350   -1.6581   -3.6357 H   0  0  0  0  0  0  0  0  0  0  0  0
    1.2740    0.5247   -5.2546 H   0  0  0  0  0  0  0  0  0  0  0  0
    2.9758    1.4803    1.8805 H   0  0  0  0  0  0  0  0  0  0  0  0
    2.3177    1.0742   -0.4330 H   0  0  0  0  0  0  0  0  0  0  0  0
    1.8541    0.8164    6.5329 H   0  0  0  0  0  0  0  0  0  0  0  0
    1.4474    0.6575    8.9410 H   0  0  0  0  0  0  0  0  0  0  0  0
   -2.4987   -0.8405    8.1653 H   0  0  0  0  0  0  0  0  0  0  0  0
   -2.0975   -0.6801    5.7757 H   0  0  0  0  0  0  0  0  0  0  0  0
   -1.3966   -0.7193    0.8233 H   0  0  0  0  0  0  0  0  0  0  0  0
   -1.0622    1.6410   -7.0760 H   0  0  0  0  0  0  0  0  0  0  0  0
    1.3806   -0.8878   -8.0833 H   0  0  0  0  0  0  0  0  0  0  0  0
    1.6430    0.7788   -2.3986 H   0  0  0  0  0  0  0  0  0  0  0  0
   -1.5221   -0.7276    3.7058 H   0  0  0  0  0  0  0  0  0  0  0  0
   -0.0896    0.0756   10.5595 H   0  0  0  0  0  0  0  0  0  0  0  0
  1  4  1  0
  1 24  1  0
  1 25  1  0
  1 31  1  6
  2  3  1  0
  2 24  1  0
  2 32  1  0
  2 33  1  0
  3 25  1  0
  3 34  1  0
  3 35  1  0
  4  5  2  0
  4  9  1  0
  5  6  1  0
  5 36  1  0
  6  7  2  0
  6 37  1  0
  7  8  1  0
  7 27  1  0
  8  9  2  0
  8 26  1  0
  9 38  1  0
 10 22  1  0
 10 26  1  0
 10 27  2  0
 11 12  1  0
 11 23  2  0
 11 29  1  0
 12 13  2  0
 12 28  1  0
 13 14  1  0
 13 39  1  0
 14 22  2  0
 14 40  1  0
 15 16  1  0
 15 28  2  0
 15 29  1  0
 16 17  2  0
 16 21  1  0
 17 18  1  0
 17 41  1  0
 18 19  2  0
 18 42  1  0
 19 20  1  0
 19 30  1  0
 20 21  2  0
 20 43  1  0
 21 44  1  0
 22 23  1  0
 23 45  1  0
 24 46  1  0
 25 47  1  0
 26 48  1  0
 29 49  1  0
 30 50  1  0
M  END
