
     RDKit          3D

 35 37  0  0  0  0  0  0  0  0999 V2000
    2.9571   -1.9650    0.0802 O   0  0  0  0  0  0  0  0  0  0  0  0
    2.7705   -0.7673    0.0539 C   0  0  0  0  0  0  0  0  0  0  0  0
    3.8659    0.2307    0.0402 C   0  0  0  0  0  0  0  0  0  0  0  0
    5.2249   -0.1502    0.0425 C   0  0  0  0  0  0  0  0  0  0  0  0
    5.7127   -1.5700    0.0557 C   0  0  0  0  0  0  0  0  0  0  0  0
    6.1821    0.8624    0.0303 C   0  0  0  0  0  0  0  0  0  0  0  0
    5.8377    2.2051    0.0172 C   0  0  0  0  0  0  0  0  0  0  0  0
    4.5018    2.5755    0.0142 C   0  0  0  0  0  0  0  0  0  0  0  0
    3.5325    1.5900    0.0257 C   0  0  0  0  0  0  0  0  0  0  0  0
    1.3461   -0.2525    0.0343 C   0  0  0  0  0  0  0  0  0  0  0  0
    0.2563   -1.6963    0.0633 S   0  0  0  0  0  0  0  0  0  0  0  0
   -1.2743   -0.8686    0.0264 C   0  0  0  0  0  0  0  0  0  0  0  0
   -2.4246   -1.5664    0.0362 N   0  0  0  0  0  0  0  0  0  0  0  0
   -3.4376   -0.6375    0.0004 C   0  0  0  0  0  0  0  0  0  0  0  0
   -4.8474   -0.7597   -0.0077 C   0  0  0  0  0  0  0  0  0  0  0  0
   -5.5320   -1.7717    0.0188 O   0  0  0  0  0  0  0  0  0  0  0  0
   -5.4259    0.5099   -0.0518 N   0  0  0  0  0  0  0  0  0  0  0  0
   -4.7485    1.6982   -0.0812 C   0  0  0  0  0  0  0  0  0  0  0  0
   -5.4988    2.8121   -0.1707 N   0  0  0  0  0  0  0  0  0  0  0  0
   -3.4458    1.7834   -0.0662 N   0  0  0  0  0  0  0  0  0  0  0  0
   -2.8105    0.5940   -0.0288 C   0  0  0  0  0  0  0  0  0  0  0  0
   -1.4604    0.4343   -0.0122 N   0  0  0  0  0  0  0  0  0  0  0  0
    5.3631   -2.1319   -0.8095 H   0  0  0  0  0  0  0  0  0  0  0  0
    6.8020   -1.5856    0.0456 H   0  0  0  0  0  0  0  0  0  0  0  0
    5.3789   -2.1095    0.9412 H   0  0  0  0  0  0  0  0  0  0  0  0
    7.2296    0.5879    0.0317 H   0  0  0  0  0  0  0  0  0  0  0  0
    6.6139    2.9589    0.0083 H   0  0  0  0  0  0  0  0  0  0  0  0
    4.2168    3.6188    0.0044 H   0  0  0  0  0  0  0  0  0  0  0  0
    2.4953    1.8963    0.0232 H   0  0  0  0  0  0  0  0  0  0  0  0
    1.1480    0.3831    0.8985 H   0  0  0  0  0  0  0  0  0  0  0  0
    1.1578    0.3408   -0.8620 H   0  0  0  0  0  0  0  0  0  0  0  0
   -2.5278   -2.5693    0.0644 H   0  0  0  0  0  0  0  0  0  0  0  0
   -6.4374    0.5305   -0.0706 H   0  0  0  0  0  0  0  0  0  0  0  0
   -6.4766    2.7867    0.0635 H   0  0  0  0  0  0  0  0  0  0  0  0
   -5.0334    3.6898   -0.0112 H   0  0  0  0  0  0  0  0  0  0  0  0
 19 18  1  0
 20 18  2  0
 20 21  1  0
 18 17  1  0
 17 15  1  0
 21 22  1  0
 21 14  2  0
 22 12  2  0
 15 14  1  0
 15 16  2  0
 14 13  1  0
 12 13  1  0
 12 11  1  0
 10 11  1  0
 10  2  1  0
  8  9  2  0
  8  7  1  0
  9  3  1  0
  7  6  2  0
  3  2  1  0
  3  4  2  0
  6  4  1  0
  2  1  2  0
  4  5  1  0
  5 23  1  0
  5 24  1  0
  5 25  1  0
  6 26  1  0
  7 27  1  0
  8 28  1  0
  9 29  1  0
 10 30  1  0
 10 31  1  0
 13 32  1  0
 17 33  1  0
 19 34  1  0
 19 35  1  0
M  END
