
     RDKit          3D

 18 17  0  0  0  0  0  0  0  0999 V2000
   -3.0474    0.2492    0.0113 O   0  0  0  0  0  0  0  0  0  0  0  0
   -1.8755   -0.5354    0.0070 C   0  0  0  0  0  0  0  0  0  0  0  0
   -0.6703    0.3850   -0.0105 C   0  0  0  0  0  0  0  0  0  0  0  0
    0.6319   -0.4064   -0.0180 C   0  0  0  0  0  0  0  0  0  0  0  0
    1.8274    0.5236   -0.0257 C   0  0  0  0  0  0  0  0  0  0  0  0
    3.1016   -0.2427   -0.0427 N   0  0  0  0  0  0  0  0  0  0  0  0
   -3.8047   -0.3426    0.0256 H   0  0  0  0  0  0  0  0  0  0  0  0
   -1.8368   -1.1958   -0.8694 H   0  0  0  0  0  0  0  0  0  0  0  0
   -1.8213   -1.1820    0.8928 H   0  0  0  0  0  0  0  0  0  0  0  0
   -0.6990    1.0401    0.8655 H   0  0  0  0  0  0  0  0  0  0  0  0
   -0.7152    1.0285   -0.8942 H   0  0  0  0  0  0  0  0  0  0  0  0
    0.6671   -1.0570   -0.8966 H   0  0  0  0  0  0  0  0  0  0  0  0
    0.6787   -1.0542    0.8623 H   0  0  0  0  0  0  0  0  0  0  0  0
    1.8524    1.1538    0.8606 H   0  0  0  0  0  0  0  0  0  0  0  0
    1.8353    1.1625   -0.9061 H   0  0  0  0  0  0  0  0  0  0  0  0
    3.1901   -0.8510    0.7711 H   0  0  0  0  0  0  0  0  0  0  0  0
    3.9119    0.3756   -0.0405 H   0  0  0  0  0  0  0  0  0  0  0  0
    3.1792   -0.8319   -0.8711 H   0  0  0  0  0  0  0  0  0  0  0  0
  1  2  1  0
  1  7  1  0
  2  3  1  0
  2  8  1  0
  2  9  1  0
  3  4  1  0
  3 10  1  0
  3 11  1  0
  4  5  1  0
  4 12  1  0
  4 13  1  0
  5  6  1  0
  5 14  1  0
  5 15  1  0
  6 16  1  0
  6 17  1  0
  6 18  1  0
M  CHG  1   6   1
M  END
