
     RDKit          3D

 48 51  0  0  0  0  0  0  0  0999 V2000
   -7.5401   -0.3856    0.0322 C   0  0  0  0  0  0  0  0  0  0  0  0
   -8.4073   -1.2914    0.6275 C   0  0  0  0  0  0  0  0  0  0  0  0
   -8.0979   -2.6456    0.6383 C   0  0  0  0  0  0  0  0  0  0  0  0
   -6.9196   -3.0893    0.0520 C   0  0  0  0  0  0  0  0  0  0  0  0
   -6.0546   -2.1801   -0.5416 C   0  0  0  0  0  0  0  0  0  0  0  0
   -6.3578   -0.8220   -0.5586 C   0  0  0  0  0  0  0  0  0  0  0  0
   -5.4115    0.1603   -1.1784 C   0  0  0  0  0  0  0  0  0  0  0  0
   -4.5192    0.5908   -0.1428 O   0  0  0  0  0  0  0  0  0  0  0  0
   -3.6035    1.5073   -0.4741 C   0  0  0  0  0  0  0  0  0  0  0  0
   -3.4819    1.9726   -1.5898 O   0  0  0  0  0  0  0  0  0  0  0  0
   -2.8538    1.8360    0.5939 N   0  0  0  0  0  0  0  0  0  0  0  0
   -1.7676    2.7837    0.5393 C   0  0  0  0  0  0  0  0  0  0  0  0
   -0.4102    2.1287    0.4705 C   0  0  0  0  0  0  0  0  0  0  0  0
   -0.0818    1.2763   -0.5838 C   0  0  0  0  0  0  0  0  0  0  0  0
    1.1617    0.6785   -0.6493 C   0  0  0  0  0  0  0  0  0  0  0  0
    0.5412    2.3675    1.4531 C   0  0  0  0  0  0  0  0  0  0  0  0
    1.7911    1.7677    1.3960 C   0  0  0  0  0  0  0  0  0  0  0  0
    2.1129    0.9114    0.3466 C   0  0  0  0  0  0  0  0  0  0  0  0
    3.4333    0.2650    0.2416 C   0  0  0  0  0  0  0  0  0  0  0  0
    3.8707   -0.1081   -0.9092 N   0  0  0  0  0  0  0  0  0  0  0  0
    5.1041   -0.7071   -0.9716 C   0  0  0  0  0  0  0  0  0  0  0  0
    5.5855   -1.1273   -2.2198 C   0  0  0  0  0  0  0  0  0  0  0  0
    6.8206   -1.7293   -2.3181 C   0  0  0  0  0  0  0  0  0  0  0  0
    7.6120   -1.9305   -1.1811 C   0  0  0  0  0  0  0  0  0  0  0  0
    7.1550   -1.5217    0.0526 C   0  0  0  0  0  0  0  0  0  0  0  0
    5.9041   -0.9089    0.1647 C   0  0  0  0  0  0  0  0  0  0  0  0
    5.3959   -0.4839    1.4620 C   0  0  0  0  0  0  0  0  0  0  0  0
    5.9727   -0.6099    2.5266 O   0  0  0  0  0  0  0  0  0  0  0  0
    4.1443    0.0889    1.3943 N   0  0  0  0  0  0  0  0  0  0  0  0
   -7.7894    0.6690    0.0227 H   0  0  0  0  0  0  0  0  0  0  0  0
   -9.3258   -0.9406    1.0794 H   0  0  0  0  0  0  0  0  0  0  0  0
   -8.7758   -3.3530    1.0983 H   0  0  0  0  0  0  0  0  0  0  0  0
   -6.6746   -4.1435    0.0544 H   0  0  0  0  0  0  0  0  0  0  0  0
   -5.1377   -2.5319   -0.9996 H   0  0  0  0  0  0  0  0  0  0  0  0
   -4.8476   -0.3020   -1.9915 H   0  0  0  0  0  0  0  0  0  0  0  0
   -5.9539    1.0157   -1.5859 H   0  0  0  0  0  0  0  0  0  0  0  0
   -3.0046    1.3471    1.4621 H   0  0  0  0  0  0  0  0  0  0  0  0
   -1.9119    3.4307   -0.3257 H   0  0  0  0  0  0  0  0  0  0  0  0
   -1.8218    3.4234    1.4209 H   0  0  0  0  0  0  0  0  0  0  0  0
   -0.8028    1.0857   -1.3687 H   0  0  0  0  0  0  0  0  0  0  0  0
    0.3147    3.0346    2.2758 H   0  0  0  0  0  0  0  0  0  0  0  0
    1.4024    0.0219   -1.4742 H   0  0  0  0  0  0  0  0  0  0  0  0
    2.5108    2.0066    2.1687 H   0  0  0  0  0  0  0  0  0  0  0  0
    3.7255    0.3407    2.2802 H   0  0  0  0  0  0  0  0  0  0  0  0
    4.9715   -0.9691   -3.0969 H   0  0  0  0  0  0  0  0  0  0  0  0
    7.1840   -2.0486   -3.2860 H   0  0  0  0  0  0  0  0  0  0  0  0
    8.5789   -2.4066   -1.2730 H   0  0  0  0  0  0  0  0  0  0  0  0
    7.7571   -1.6720    0.9388 H   0  0  0  0  0  0  0  0  0  0  0  0
  1  2  2  0
  1  6  1  0
  2  3  1  0
  3  4  2  0
  4  5  1  0
  5  6  2  0
  6  7  1  0
  7  8  1  0
  8  9  1  0
  9 10  2  0
  9 11  1  0
 11 12  1  0
 12 13  1  0
 13 14  2  0
 13 16  1  0
 14 15  1  0
 15 18  2  0
 16 17  2  0
 17 18  1  0
 18 19  1  0
 19 20  2  0
 19 29  1  0
 20 21  1  0
 21 22  2  0
 21 26  1  0
 22 23  1  0
 23 24  2  0
 24 25  1  0
 25 26  2  0
 26 27  1  0
 27 28  2  0
 27 29  1  0
  1 30  1  0
  2 31  1  0
  3 32  1  0
  4 33  1  0
  5 34  1  0
  7 35  1  0
  7 36  1  0
 11 37  1  0
 12 38  1  0
 12 39  1  0
 14 40  1  0
 16 41  1  0
 15 42  1  0
 17 43  1  0
 29 44  1  0
 22 45  1  0
 23 46  1  0
 24 47  1  0
 25 48  1  0
M  END
