
     RDKit          3D

 18 18  0  0  0  0  0  0  0  0999 V2000
   -0.3767   -0.3919    2.3346 C   0  0  0  0  0  0  0  0  0  0  0  0
    0.8886   -0.3479    2.0804 N   0  0  0  0  0  0  0  0  0  0  0  0
    1.1295    0.0378    0.7867 C   0  0  0  0  0  0  0  0  0  0  0  0
    0.0130    0.2983    0.0447 C   0  0  0  0  0  0  0  0  0  0  0  0
   -1.3869    0.0353    1.0173 S   0  0  0  0  0  0  0  0  0  0  0  0
    2.5402    0.1224    0.3057 C   0  0  0  0  0  0  0  0  0  0  0  0
   -0.0982    0.6793   -1.3941 C   0  0  0  0  0  0  0  0  0  0  0  0
   -0.3009   -0.5437   -2.2805 C   0  0  0  0  0  0  0  0  0  0  0  0
   -0.3751   -0.1111   -3.6187 O   0  0  0  0  0  0  0  0  0  0  0  0
   -0.7940   -0.6658    3.2937 H   0  0  0  0  0  0  0  0  0  0  0  0
    2.9368   -0.8676    0.0716 H   0  0  0  0  0  0  0  0  0  0  0  0
    2.6284    0.7314   -0.5920 H   0  0  0  0  0  0  0  0  0  0  0  0
    3.1813    0.5567    1.0724 H   0  0  0  0  0  0  0  0  0  0  0  0
   -0.9232    1.3800   -1.5425 H   0  0  0  0  0  0  0  0  0  0  0  0
    0.8135    1.1978   -1.6990 H   0  0  0  0  0  0  0  0  0  0  0  0
    0.5327   -1.2398   -2.1217 H   0  0  0  0  0  0  0  0  0  0  0  0
   -1.2159   -1.0649   -1.9711 H   0  0  0  0  0  0  0  0  0  0  0  0
   -0.5204   -0.8804   -4.1766 H   0  0  0  0  0  0  0  0  0  0  0  0
  1  2  2  0
  1  5  1  0
  1 10  1  0
  2  3  1  0
  3  4  2  0
  3  6  1  0
  4  5  1  0
  4  7  1  0
  6 11  1  0
  6 12  1  0
  6 13  1  0
  7  8  1  0
  7 14  1  0
  7 15  1  0
  8  9  1  0
  8 16  1  0
  8 17  1  0
  9 18  1  0
M  END
