
     RDKit          3D

 48 52  0  0  0  0  0  0  0  0999 V2000
   -3.8464    0.6333   -0.6386 C   0  0  0  0  0  0  0  0  0  0  0  0
   -5.2287    0.6336   -0.6046 C   0  0  0  0  0  0  0  0  0  0  0  0
   -5.8982    1.7173   -0.0570 C   0  0  0  0  0  0  0  0  0  0  0  0
   -5.2567    2.7678    0.4357 N   0  0  0  0  0  0  0  0  0  0  0  0
   -3.9326    2.7738    0.4122 C   0  0  0  0  0  0  0  0  0  0  0  0
   -3.1576    1.7287   -0.1080 C   0  0  0  0  0  0  0  0  0  0  0  0
   -1.7749    1.8359   -0.1139 N   0  0  0  0  0  0  0  0  0  0  0  0
   -1.0991    3.1009    0.1883 C   0  0  0  0  0  0  0  0  0  0  0  0
    0.3880    2.8303   -0.0883 C   0  0  0  0  0  0  0  0  0  0  0  0
    0.4468    1.3348   -0.1259 C   0  0  0  0  0  0  0  0  0  0  0  0
   -0.8579    0.8214   -0.1678 C   0  0  0  0  0  0  0  0  0  0  0  0
   -1.1607   -0.4543   -0.2172 N   0  0  0  0  0  0  0  0  0  0  0  0
   -0.1051   -1.2875   -0.1995 C   0  0  0  0  0  0  0  0  0  0  0  0
   -0.3773   -2.6167   -0.2139 N   0  0  0  0  0  0  0  0  0  0  0  0
    0.6656   -3.6124   -0.3572 C   0  0  0  0  0  0  0  0  0  0  0  0
    0.3479   -4.8166    0.5098 C   0  0  0  0  0  0  0  0  0  0  0  0
   -0.9343   -5.3371    0.2378 O   0  0  0  0  0  0  0  0  0  0  0  0
   -1.9284   -4.3599    0.4500 C   0  0  0  0  0  0  0  0  0  0  0  0
   -1.7140   -3.1360   -0.4222 C   0  0  0  0  0  0  0  0  0  0  0  0
    1.1675   -0.9172   -0.1532 N   0  0  0  0  0  0  0  0  0  0  0  0
    1.4543    0.3952   -0.1199 C   0  0  0  0  0  0  0  0  0  0  0  0
    2.8809    0.7257   -0.0457 C   0  0  0  0  0  0  0  0  0  0  0  0
    3.8098   -0.1962    0.4428 C   0  0  0  0  0  0  0  0  0  0  0  0
    5.0993    0.0484    0.5352 N   0  0  0  0  0  0  0  0  0  0  0  0
    5.5143    1.2536    0.1170 C   0  0  0  0  0  0  0  0  0  0  0  0
    6.8197    1.5290    0.2301 N   0  0  0  0  0  0  0  0  0  0  0  0
    4.7232    2.2057   -0.3932 N   0  0  0  0  0  0  0  0  0  0  0  0
    3.4350    1.9333   -0.4638 C   0  0  0  0  0  0  0  0  0  0  0  0
   -3.3155   -0.1995   -1.0705 H   0  0  0  0  0  0  0  0  0  0  0  0
   -5.7819   -0.2028   -1.0100 H   0  0  0  0  0  0  0  0  0  0  0  0
   -6.9812    1.7395   -0.0183 H   0  0  0  0  0  0  0  0  0  0  0  0
   -3.4606    3.6553    0.8293 H   0  0  0  0  0  0  0  0  0  0  0  0
   -1.4963    3.9025   -0.4336 H   0  0  0  0  0  0  0  0  0  0  0  0
   -1.2598    3.3722    1.2349 H   0  0  0  0  0  0  0  0  0  0  0  0
    0.6831    3.2738   -1.0424 H   0  0  0  0  0  0  0  0  0  0  0  0
    1.0175    3.2726    0.6846 H   0  0  0  0  0  0  0  0  0  0  0  0
    0.7505   -3.9196   -1.4074 H   0  0  0  0  0  0  0  0  0  0  0  0
    1.6218   -3.1916   -0.0581 H   0  0  0  0  0  0  0  0  0  0  0  0
    1.0718   -5.6094    0.3159 H   0  0  0  0  0  0  0  0  0  0  0  0
    0.4317   -4.5330    1.5685 H   0  0  0  0  0  0  0  0  0  0  0  0
   -2.8917   -4.8148    0.2151 H   0  0  0  0  0  0  0  0  0  0  0  0
   -1.9460   -4.0519    1.5050 H   0  0  0  0  0  0  0  0  0  0  0  0
   -2.4520   -2.3799   -0.1679 H   0  0  0  0  0  0  0  0  0  0  0  0
   -1.8573   -3.3981   -1.4785 H   0  0  0  0  0  0  0  0  0  0  0  0
    3.4756   -1.1719    0.7772 H   0  0  0  0  0  0  0  0  0  0  0  0
    7.4637    0.8057    0.4981 H   0  0  0  0  0  0  0  0  0  0  0  0
    7.1914    2.3700   -0.1747 H   0  0  0  0  0  0  0  0  0  0  0  0
    2.8200    2.7092   -0.9044 H   0  0  0  0  0  0  0  0  0  0  0  0
  1  2  2  0
  1  6  1  0
  2  3  1  0
  3  4  2  0
  4  5  1  0
  5  6  2  0
  6  7  1  0
  7  8  1  0
  7 11  1  0
  8  9  1  0
  9 10  1  0
 10 11  2  0
 10 21  1  0
 11 12  1  0
 12 13  2  0
 13 14  1  0
 13 20  1  0
 14 15  1  0
 14 19  1  0
 15 16  1  0
 16 17  1  0
 17 18  1  0
 18 19  1  0
 20 21  2  0
 21 22  1  0
 22 23  2  0
 22 28  1  0
 23 24  1  0
 24 25  2  0
 25 26  1  0
 25 27  1  0
 27 28  2  0
  1 29  1  0
  2 30  1  0
  3 31  1  0
  5 32  1  0
  8 33  1  0
  8 34  1  0
  9 35  1  0
  9 36  1  0
 15 37  1  0
 15 38  1  0
 16 39  1  0
 16 40  1  0
 18 41  1  0
 18 42  1  0
 19 43  1  0
 19 44  1  0
 23 45  1  0
 26 46  1  0
 26 47  1  0
 28 48  1  0
M  END
