
     RDKit          3D

 18 18  0  0  0  0  0  0  0  0999 V2000
    4.7564   -0.7472    0.0360 C   0  0  0  0  0  0  0  0  0  0  0  0
    3.5015    0.0677   -0.0972 C   0  0  0  0  0  0  0  0  0  0  0  0
    2.3494   -0.6839   -0.0009 N   0  0  0  0  0  0  0  0  0  0  0  0
    1.0602   -0.2433   -0.0278 C   0  0  0  0  0  0  0  0  0  0  0  0
   -0.1026   -0.9519    0.0285 C   0  0  0  0  0  0  0  0  0  0  0  0
   -1.0686    0.0666   -0.0367 C   0  0  0  0  0  0  0  0  0  0  0  0
    0.7988    1.0568   -0.1169 O   0  0  0  0  0  0  0  0  0  0  0  0
   -2.5496   -0.1082    0.0017 C   0  0  1  0  0  0  0  0  0  0  0  0
    3.4853    1.2676   -0.2448 O   0  0  0  0  0  0  0  0  0  0  0  0
   -0.5499    1.2542   -0.1238 N   0  0  0  0  0  0  0  0  0  0  0  0
   -3.1924    1.0349   -0.2127 F   0  0  0  0  0  0  0  0  0  0  0  0
   -2.9448   -0.9864   -0.9226 F   0  0  0  0  0  0  0  0  0  0  0  0
   -2.9373   -0.5820    1.1890 F   0  0  0  0  0  0  0  0  0  0  0  0
    4.9965   -0.8616    1.0949 H   0  0  0  0  0  0  0  0  0  0  0  0
    4.6580   -1.7441   -0.3910 H   0  0  0  0  0  0  0  0  0  0  0  0
    5.5840   -0.2325   -0.4447 H   0  0  0  0  0  0  0  0  0  0  0  0
    2.4479   -1.6837    0.0979 H   0  0  0  0  0  0  0  0  0  0  0  0
   -0.2364   -2.0175    0.1011 H   0  0  0  0  0  0  0  0  0  0  0  0
  7 10  1  0
  7  4  1  0
 10  6  2  0
  3  4  1  0
  3  2  1  0
  4  5  2  0
  8 12  1  6
  1  2  1  0
  6  5  1  0
  6  8  1  0
  2  9  2  0
  8 13  1  0
  8 11  1  0
  1 14  1  0
  1 15  1  0
  1 16  1  0
  3 17  1  0
  5 18  1  0
M  END
