
     RDKit          3D

 57 61  0  0  0  0  0  0  0  0999 V2000
   -7.1998    0.5744   -3.2092 C   0  0  0  0  0  0  0  0  0  0  0  0
   -4.6541   -2.2964   -1.1044 C   0  0  1  0  0  0  0  0  0  0  0  0
   -5.0353   -1.0011   -0.3959 C   0  0  0  0  0  0  0  0  0  0  0  0
   -6.2326   -0.3373   -1.0670 C   0  0  0  0  0  0  0  0  0  0  0  0
   -5.9816   -0.0548   -2.5475 C   0  0  1  0  0  0  0  0  0  0  0  0
   -5.5581   -1.3402   -3.2577 C   0  0  0  0  0  0  0  0  0  0  0  0
   -4.3680   -2.0059   -2.5764 C   0  0  0  0  0  0  0  0  0  0  0  0
   -3.4957   -2.9048   -0.4626 N   0  0  0  0  0  0  0  0  0  0  0  0
   -3.3801   -4.3298   -0.7168 C   0  0  0  0  0  0  0  0  0  0  0  0
   -2.0724   -4.8729   -0.2095 C   0  0  0  0  0  0  0  0  0  0  0  0
   -0.8733   -4.4321   -0.7793 C   0  0  0  0  0  0  0  0  0  0  0  0
    0.3245   -4.9553   -0.3440 C   0  0  0  0  0  0  0  0  0  0  0  0
    0.3395   -5.9146    0.6895 C   0  0  0  0  0  0  0  0  0  0  0  0
   -0.8372   -6.3442    1.2775 C   0  0  0  0  0  0  0  0  0  0  0  0
   -2.0382   -5.8140    0.8153 C   0  0  0  0  0  0  0  0  0  0  0  0
    1.7253   -4.6549   -0.8423 C   0  0  0  0  0  0  0  0  0  0  0  0
    2.5458   -5.5641    0.0169 C   0  0  0  0  0  0  0  0  0  0  0  0
    1.7327   -6.2585    0.8794 C   0  0  0  0  0  0  0  0  0  0  0  0
    3.8423   -6.0336    0.2931 C   0  0  0  0  0  0  0  0  0  0  0  0
    3.7955   -6.9434    1.2665 N   0  0  0  0  0  0  0  0  0  0  0  0
    2.5172   -7.0662    1.6058 N   0  0  0  0  0  0  0  0  0  0  0  0
    5.1131   -5.6761   -0.3327 C   0  0  0  0  0  0  0  0  0  0  0  0
    6.2978   -6.3343    0.0103 C   0  0  0  0  0  0  0  0  0  0  0  0
    7.4902   -6.0021   -0.6007 C   0  0  0  0  0  0  0  0  0  0  0  0
    7.5373   -5.0009   -1.5711 C   0  0  0  0  0  0  0  0  0  0  0  0
    6.3613   -4.3367   -1.9134 C   0  0  0  0  0  0  0  0  0  0  0  0
    5.1665   -4.6720   -1.3002 C   0  0  0  0  0  0  0  0  0  0  0  0
    8.8393   -4.6930   -2.2062 C   0  0  0  0  0  0  0  0  0  0  0  0
    8.7632   -3.7265   -3.1112 O   0  0  0  0  0  0  0  0  0  0  0  0
    9.8703   -5.2627   -1.9357 O   0  0  0  0  0  0  0  0  0  0  0  0
   -8.0524   -0.1089   -3.1899 H   0  0  0  0  0  0  0  0  0  0  0  0
   -7.4998    1.4928   -2.7004 H   0  0  0  0  0  0  0  0  0  0  0  0
   -7.0018    0.8250   -4.2530 H   0  0  0  0  0  0  0  0  0  0  0  0
   -5.1475    0.6564   -2.6157 H   0  0  0  0  0  0  0  0  0  0  0  0
   -5.3176   -1.1283   -4.3032 H   0  0  0  0  0  0  0  0  0  0  0  0
   -6.4069   -2.0349   -3.2713 H   0  0  0  0  0  0  0  0  0  0  0  0
   -4.1048   -2.9247   -3.1076 H   0  0  0  0  0  0  0  0  0  0  0  0
   -3.4920   -1.3498   -2.6303 H   0  0  0  0  0  0  0  0  0  0  0  0
   -5.5321   -2.9663   -1.0519 H   0  0  0  0  0  0  0  0  0  0  0  0
   -5.2605   -1.2056    0.6556 H   0  0  0  0  0  0  0  0  0  0  0  0
   -7.1081   -0.9919   -0.9752 H   0  0  0  0  0  0  0  0  0  0  0  0
   -6.4847    0.5910   -0.5468 H   0  0  0  0  0  0  0  0  0  0  0  0
   -3.5597   -2.7663    0.5396 H   0  0  0  0  0  0  0  0  0  0  0  0
   -3.4289   -4.4888   -1.7971 H   0  0  0  0  0  0  0  0  0  0  0  0
   -4.2110   -4.9083   -0.2860 H   0  0  0  0  0  0  0  0  0  0  0  0
   -2.9697   -6.1456    1.2590 H   0  0  0  0  0  0  0  0  0  0  0  0
   -0.8317   -7.0780    2.0731 H   0  0  0  0  0  0  0  0  0  0  0  0
   -0.8964   -3.6930   -1.5720 H   0  0  0  0  0  0  0  0  0  0  0  0
    1.8245   -4.8680   -1.9103 H   0  0  0  0  0  0  0  0  0  0  0  0
    1.9752   -3.5982   -0.7094 H   0  0  0  0  0  0  0  0  0  0  0  0
    2.2578   -7.7093    2.3368 H   0  0  0  0  0  0  0  0  0  0  0  0
    4.2696   -4.1376   -1.5850 H   0  0  0  0  0  0  0  0  0  0  0  0
    6.3618   -3.5547   -2.6596 H   0  0  0  0  0  0  0  0  0  0  0  0
    8.3933   -6.5296   -0.3239 H   0  0  0  0  0  0  0  0  0  0  0  0
    6.2813   -7.1164    0.7567 H   0  0  0  0  0  0  0  0  0  0  0  0
    9.6352   -3.5728   -3.5040 H   0  0  0  0  0  0  0  0  0  0  0  0
   -4.1761   -0.3208   -0.4100 H   0  0  0  0  0  0  0  0  0  0  0  0
  1  5  1  0
  1 31  1  0
  1 32  1  0
  1 33  1  0
  2  7  1  0
  2  3  1  0
  2  8  1  0
  2 39  1  6
  3  4  1  0
  3 57  1  0
  3 40  1  0
  4  5  1  0
  4 41  1  0
  4 42  1  0
  5  6  1  0
  5 34  1  1
  6  7  1  0
  6 35  1  0
  6 36  1  0
  7 37  1  0
  7 38  1  0
  8  9  1  0
  8 43  1  0
  9 10  1  0
  9 44  1  0
  9 45  1  0
 10 15  1  0
 10 11  2  0
 11 12  1  0
 11 48  1  0
 12 13  2  0
 12 16  1  0
 13 14  1  0
 13 18  1  0
 14 15  2  0
 14 47  1  0
 15 46  1  0
 16 17  1  0
 16 49  1  0
 16 50  1  0
 17 19  1  0
 17 18  2  0
 18 21  1  0
 19 20  2  0
 19 22  1  0
 20 21  1  0
 21 51  1  0
 22 27  1  0
 22 23  2  0
 23 24  1  0
 23 55  1  0
 24 25  2  0
 24 54  1  0
 25 26  1  0
 25 28  1  0
 26 27  2  0
 26 53  1  0
 27 52  1  0
 28 29  1  0
 28 30  2  0
 29 56  1  0
M  END
