
     RDKit          3D

 44 46  0  0  0  0  0  0  0  0999 V2000
    3.0591   -0.9124   -0.8314 C   0  0  0  0  0  0  0  0  0  0  0  0
   -0.4431   -0.7816   -1.6904 C   0  0  0  0  0  0  0  0  0  0  0  0
   -2.2360   -0.5697   -0.0384 C   0  0  0  0  0  0  0  0  0  0  0  0
   -2.9168    0.5662   -0.4729 C   0  0  0  0  0  0  0  0  0  0  0  0
   -2.7093    0.0600    2.2466 C   0  0  0  0  0  0  0  0  0  0  0  0
   -3.3840    1.1899    1.8059 C   0  0  0  0  0  0  0  0  0  0  0  0
    2.2483    1.4801    0.4681 C   0  0  2  0  0  0  0  0  0  0  0  0
    3.3979   -0.4682    0.5900 C   0  0  2  0  0  0  0  0  0  0  0  0
    1.4466    0.6513    1.4979 C   0  0  0  0  0  0  0  0  0  0  0  0
    2.2336   -0.6716    1.5869 C   0  0  0  0  0  0  0  0  0  0  0  0
    1.7787    1.2699   -0.9696 C   0  0  0  0  0  0  0  0  0  0  0  0
    1.8520   -0.1894   -1.4205 C   0  0  2  0  0  0  0  0  0  0  0  0
    4.3295    1.4660    1.7234 C   0  0  0  0  0  0  0  0  0  0  0  0
   -1.5886   -1.5188   -1.0234 C   0  0  1  0  0  0  0  0  0  0  0  0
   -2.5746   -2.0611   -2.0455 C   0  0  0  0  0  0  0  0  0  0  0  0
   -2.1395   -0.8119    1.3286 C   0  0  0  0  0  0  0  0  0  0  0  0
   -3.4883    1.4380    0.4433 C   0  0  0  0  0  0  0  0  0  0  0  0
    3.6198    0.9780    0.5575 N   0  0  0  0  0  0  0  0  0  0  0  0
    0.6756   -0.9179   -1.0023 O   0  0  0  0  0  0  0  0  0  0  0  0
   -0.5572   -0.1113   -2.6868 O   0  0  0  0  0  0  0  0  0  0  0  0
   -1.8642   -2.9073   -2.9177 O   0  0  0  0  0  0  0  0  0  0  0  0
    3.9195   -0.6997   -1.4701 H   0  0  0  0  0  0  0  0  0  0  0  0
    2.9012   -1.9926   -0.8784 H   0  0  0  0  0  0  0  0  0  0  0  0
   -2.6238   -0.1454    3.3059 H   0  0  0  0  0  0  0  0  0  0  0  0
   -3.8267    1.8733    2.5189 H   0  0  0  0  0  0  0  0  0  0  0  0
    2.2230    2.5492    0.6918 H   0  0  0  0  0  0  0  0  0  0  0  0
    4.3086   -0.9818    0.9070 H   0  0  0  0  0  0  0  0  0  0  0  0
    1.4320    1.1612    2.4628 H   0  0  0  0  0  0  0  0  0  0  0  0
    0.4067    0.5107    1.2045 H   0  0  0  0  0  0  0  0  0  0  0  0
    1.6258   -1.5441    1.3513 H   0  0  0  0  0  0  0  0  0  0  0  0
    2.6222   -0.8254    2.5953 H   0  0  0  0  0  0  0  0  0  0  0  0
    0.7709    1.6657   -1.1127 H   0  0  0  0  0  0  0  0  0  0  0  0
    2.4310    1.8500   -1.6272 H   0  0  0  0  0  0  0  0  0  0  0  0
    1.9044   -0.2321   -2.5103 H   0  0  0  0  0  0  0  0  0  0  0  0
    3.8880    1.1793    2.6875 H   0  0  0  0  0  0  0  0  0  0  0  0
    5.3553    1.0943    1.7107 H   0  0  0  0  0  0  0  0  0  0  0  0
    4.3754    2.5555    1.6935 H   0  0  0  0  0  0  0  0  0  0  0  0
   -1.1829   -2.3637   -0.4615 H   0  0  0  0  0  0  0  0  0  0  0  0
   -3.3585   -2.6029   -1.5039 H   0  0  0  0  0  0  0  0  0  0  0  0
   -3.0626   -1.2390   -2.5812 H   0  0  0  0  0  0  0  0  0  0  0  0
   -1.6131   -1.6911    1.6804 H   0  0  0  0  0  0  0  0  0  0  0  0
   -4.0155    2.3149    0.0903 H   0  0  0  0  0  0  0  0  0  0  0  0
   -2.4954   -3.3706   -3.4758 H   0  0  0  0  0  0  0  0  0  0  0  0
   -3.0023    0.7809   -1.5307 H   0  0  0  0  0  0  0  0  0  0  0  0
 11 12  1  0
 11  7  1  0
  1 12  1  0
  1  8  1  0
 12 19  1  0
 18 13  1  0
 18  7  1  0
 18  8  1  0
  7  9  1  0
  8 10  1  0
 20  2  2  0
 19  2  1  0
 17  4  2  0
 17  6  1  0
  2 14  1  0
  4  3  1  0
  9 10  1  0
  6  5  2  0
  3 14  1  0
  3 16  2  0
 14 15  1  0
 15 21  1  0
  5 16  1  0
  1 22  1  0
  1 23  1  0
  4 44  1  0
  5 24  1  0
  6 25  1  0
  7 26  1  1
  8 27  1  1
  9 28  1  0
  9 29  1  0
 10 30  1  0
 10 31  1  0
 11 32  1  0
 11 33  1  0
 12 34  1  6
 13 35  1  0
 13 36  1  0
 13 37  1  0
 14 38  1  1
 15 39  1  0
 15 40  1  0
 16 41  1  0
 17 42  1  0
 21 43  1  0
M  END
