
     RDKit          3D

 19 19  0  0  0  0  0  0  0  0999 V2000
   -0.1476   -0.6280   -0.1935 C   0  0  0  0  0  0  0  0  0  0  0  0
    1.7665    0.9466   -0.0369 C   0  0  0  0  0  0  0  0  0  0  0  0
    0.3151    0.6825   -0.0288 C   0  0  0  0  0  0  0  0  0  0  0  0
   -0.6204    1.7120    0.0577 C   0  0  0  0  0  0  0  0  0  0  0  0
   -1.9759    1.4572   -0.0198 C   0  0  0  0  0  0  0  0  0  0  0  0
   -2.4253    0.1505   -0.1964 C   0  0  0  0  0  0  0  0  0  0  0  0
   -1.5007   -0.8915   -0.2853 C   0  0  0  0  0  0  0  0  0  0  0  0
    0.7648   -1.8137   -0.2631 C   0  0  0  0  0  0  0  0  0  0  0  0
    2.5894    0.1226   -0.3636 O   0  0  0  0  0  0  0  0  0  0  0  0
    2.0791    2.1796    0.3324 O   0  0  0  0  0  0  0  0  0  0  0  0
   -3.7195   -0.1684   -0.2861 O   0  0  0  0  0  0  0  0  0  0  0  0
    1.2644   -2.1130    0.9230 O   0  0  0  0  0  0  0  0  0  0  0  0
    0.9282   -2.4648   -1.2618 O   0  0  0  0  0  0  0  0  0  0  0  0
   -0.2947    2.7361    0.1747 H   0  0  0  0  0  0  0  0  0  0  0  0
   -2.6822    2.2758    0.0471 H   0  0  0  0  0  0  0  0  0  0  0  0
   -1.8583   -1.9060   -0.4119 H   0  0  0  0  0  0  0  0  0  0  0  0
    3.0374    2.3100    0.2727 H   0  0  0  0  0  0  0  0  0  0  0  0
   -4.2753    0.6174   -0.2200 H   0  0  0  0  0  0  0  0  0  0  0  0
    1.8370   -2.8934    0.8603 H   0  0  0  0  0  0  0  0  0  0  0  0
 11  6  1  0
  5  6  2  0
  5  4  1  0
  6  7  1  0
  4  3  2  0
  9  2  2  0
  7  1  2  0
 13  8  2  0
  3  1  1  0
  3  2  1  0
  1  8  1  0
  2 10  1  0
  8 12  1  0
  4 14  1  0
  5 15  1  0
  7 16  1  0
 10 17  1  0
 11 18  1  0
 12 19  1  0
M  END
