
     RDKit          3D

 62 64  0  0  0  0  0  0  0  0999 V2000
   -8.3830    2.0324   -0.4306 C   0  0  0  0  0  0  0  0  0  0  0  0
   -8.2345    0.9456    0.6365 C   0  0  1  0  0  0  0  0  0  0  0  0
   -8.7694    1.4844    1.9651 C   0  0  0  0  0  0  0  0  0  0  0  0
   -9.0469   -0.2887    0.2391 C   0  0  0  0  0  0  0  0  0  0  0  0
   -6.7529    0.5864    0.8389 C   0  0  0  0  0  0  0  0  0  0  0  0
   -6.0518   -0.0188   -0.3726 C   0  0  0  0  0  0  0  0  0  0  0  0
   -4.6507   -0.2592   -0.0976 N   0  0  0  0  0  0  0  0  0  0  0  0
   -3.6341    0.2683   -0.7957 C   0  0  0  0  0  0  0  0  0  0  0  0
   -3.7847    0.9573   -1.7974 O   0  0  0  0  0  0  0  0  0  0  0  0
   -2.2487   -0.0227   -0.2427 C   0  0  2  0  0  0  0  0  0  0  0  0
   -1.7061    1.2449    0.4147 C   0  0  0  0  0  0  0  0  0  0  0  0
   -1.3327   -0.5185   -1.3770 C   0  0  0  0  0  0  0  0  0  0  0  0
    0.0079   -0.9740   -0.8823 C   0  0  0  0  0  0  0  0  0  0  0  0
    0.1841   -2.2650   -0.2649 C   0  0  0  0  0  0  0  0  0  0  0  0
    1.3301   -2.6740    0.2287 N   0  0  0  0  0  0  0  0  0  0  0  0
   -0.8532   -3.1361   -0.2174 N   0  0  0  0  0  0  0  0  0  0  0  0
    1.1066   -0.1771   -0.9698 C   0  0  0  0  0  0  0  0  0  0  0  0
    2.3603   -0.5903   -0.4521 C   0  0  0  0  0  0  0  0  0  0  0  0
    3.5137    0.2099   -0.5073 C   0  0  0  0  0  0  0  0  0  0  0  0
    2.4094   -1.8656    0.1543 C   0  0  0  0  0  0  0  0  0  0  0  0
    3.6389   -2.2993    0.6946 C   0  0  0  0  0  0  0  0  0  0  0  0
    4.7459   -1.4926    0.6472 C   0  0  0  0  0  0  0  0  0  0  0  0
    4.7007   -0.2138    0.0488 C   0  0  0  0  0  0  0  0  0  0  0  0
    5.9019    0.6498   -0.0266 C   0  0  0  0  0  0  0  0  0  0  0  0
    6.1371    1.1970   -1.2196 N   0  0  0  0  0  0  0  0  0  0  0  0
    7.1903    1.9841   -1.3787 C   0  0  0  0  0  0  0  0  0  0  0  0
    8.0756    2.2715   -0.3533 C   0  0  0  0  0  0  0  0  0  0  0  0
    7.8169    1.7284    0.8935 C   0  0  0  0  0  0  0  0  0  0  0  0
    6.7130    0.9052    1.0911 C   0  0  0  0  0  0  0  0  0  0  0  0
    6.4188    0.3788    2.4658 C   0  0  0  0  0  0  0  0  0  0  0  0
   -9.4280    2.3301   -0.5376 H   0  0  0  0  0  0  0  0  0  0  0  0
   -7.8124    2.9244   -0.1613 H   0  0  0  0  0  0  0  0  0  0  0  0
   -8.0396    1.7010   -1.4121 H   0  0  0  0  0  0  0  0  0  0  0  0
   -8.6965    0.7339    2.7554 H   0  0  0  0  0  0  0  0  0  0  0  0
   -8.2079    2.3641    2.2877 H   0  0  0  0  0  0  0  0  0  0  0  0
   -9.8185    1.7744    1.8779 H   0  0  0  0  0  0  0  0  0  0  0  0
   -8.7490   -0.6856   -0.7334 H   0  0  0  0  0  0  0  0  0  0  0  0
   -8.9332   -1.0887    0.9745 H   0  0  0  0  0  0  0  0  0  0  0  0
  -10.1102   -0.0471    0.1777 H   0  0  0  0  0  0  0  0  0  0  0  0
   -6.2089    1.4885    1.1387 H   0  0  0  0  0  0  0  0  0  0  0  0
   -6.6749   -0.1154    1.6775 H   0  0  0  0  0  0  0  0  0  0  0  0
   -6.5276   -0.9578   -0.6651 H   0  0  0  0  0  0  0  0  0  0  0  0
   -6.1067    0.6498   -1.2293 H   0  0  0  0  0  0  0  0  0  0  0  0
   -4.4318   -0.8112    0.7164 H   0  0  0  0  0  0  0  0  0  0  0  0
   -2.3227   -0.7963    0.5287 H   0  0  0  0  0  0  0  0  0  0  0  0
   -1.6160    2.0538   -0.3113 H   0  0  0  0  0  0  0  0  0  0  0  0
   -2.3599    1.5810    1.2203 H   0  0  0  0  0  0  0  0  0  0  0  0
   -0.7214    1.0681    0.8460 H   0  0  0  0  0  0  0  0  0  0  0  0
   -1.8275   -1.3253   -1.9266 H   0  0  0  0  0  0  0  0  0  0  0  0
   -1.1921    0.2906   -2.0957 H   0  0  0  0  0  0  0  0  0  0  0  0
   -0.7471   -3.9527    0.3609 H   0  0  0  0  0  0  0  0  0  0  0  0
   -1.7976   -2.8276   -0.3593 H   0  0  0  0  0  0  0  0  0  0  0  0
    1.0260    0.7973   -1.4395 H   0  0  0  0  0  0  0  0  0  0  0  0
    3.4570    1.1817   -0.9841 H   0  0  0  0  0  0  0  0  0  0  0  0
    3.6932   -3.2826    1.1448 H   0  0  0  0  0  0  0  0  0  0  0  0
    5.6782   -1.8589    1.0571 H   0  0  0  0  0  0  0  0  0  0  0  0
    7.3356    2.4044   -2.3678 H   0  0  0  0  0  0  0  0  0  0  0  0
    8.9297    2.9128   -0.5225 H   0  0  0  0  0  0  0  0  0  0  0  0
    8.4671    1.9575    1.7296 H   0  0  0  0  0  0  0  0  0  0  0  0
    6.8143   -0.6274    2.6133 H   0  0  0  0  0  0  0  0  0  0  0  0
    6.8773    1.0167    3.2205 H   0  0  0  0  0  0  0  0  0  0  0  0
    5.3488    0.3367    2.6662 H   0  0  0  0  0  0  0  0  0  0  0  0
 16 14  1  0
 14 15  1  0
 14 13  2  0
 15 20  2  0
 11 10  1  0
 12 10  1  0
 12 13  1  0
 10  8  1  0
 13 17  1  0
 20 21  1  0
 20 18  1  0
 21 22  2  0
 17 18  2  0
  7  8  1  0
  7  6  1  0
  8  9  2  0
 18 19  1  0
 22 23  1  0
  6  5  1  0
  2  5  1  1
 19 23  2  0
 23 24  1  0
  3  2  1  0
  2  4  1  0
  2  1  1  0
 25 24  2  0
 25 26  1  0
 24 29  1  0
 26 27  2  0
 29 30  1  0
 29 28  2  0
 27 28  1  0
  1 31  1  0
  1 32  1  0
  1 33  1  0
  3 34  1  0
  3 35  1  0
  3 36  1  0
  4 37  1  0
  4 38  1  0
  4 39  1  0
  5 40  1  0
  5 41  1  0
  6 42  1  0
  6 43  1  0
  7 44  1  0
 10 45  1  1
 11 46  1  0
 11 47  1  0
 11 48  1  0
 12 49  1  0
 12 50  1  0
 16 51  1  0
 16 52  1  0
 17 53  1  0
 19 54  1  0
 21 55  1  0
 22 56  1  0
 26 57  1  0
 27 58  1  0
 28 59  1  0
 30 60  1  0
 30 61  1  0
 30 62  1  0
M  END
