
     RDKit          3D

 26 28  0  0  0  0  0  0  0  0999 V2000
    0.8796   -1.8798   -0.1267 C   0  0  0  0  0  0  0  0  0  0  0  0
   -2.0387   -1.8318    0.0355 O   0  0  0  0  0  0  0  0  0  0  0  0
   -1.3963   -0.5837    0.0142 C   0  0  1  0  0  0  0  0  0  0  0  0
   -2.1466    0.4691   -0.8136 C   0  0  0  0  0  0  0  0  0  0  0  0
   -1.2123    1.6728   -1.0688 C   0  0  0  0  0  0  0  0  0  0  0  0
   -0.0319    1.5997   -0.1046 C   0  0  1  0  0  0  0  0  0  0  0  0
   -0.5638    1.4075    1.3169 C   0  0  0  0  0  0  0  0  0  0  0  0
   -1.1576   -0.0137    1.4175 C   0  0  0  0  0  0  0  0  0  0  0  0
    0.7391    0.4113   -0.4642 N   0  0  0  0  0  0  0  0  0  0  0  0
   -0.0461   -0.7912   -0.6830 C   0  0  1  0  0  0  0  0  0  0  0  0
    2.1084   -1.2029    0.1633 O   0  0  0  0  0  0  0  0  0  0  0  0
    1.9357    0.1259    0.1003 C   0  0  0  0  0  0  0  0  0  0  0  0
    2.7745    0.9034    0.4889 O   0  0  0  0  0  0  0  0  0  0  0  0
    0.5071   -2.3417    0.7896 H   0  0  0  0  0  0  0  0  0  0  0  0
    1.0736   -2.6643   -0.8547 H   0  0  0  0  0  0  0  0  0  0  0  0
   -2.8922   -1.7316    0.4709 H   0  0  0  0  0  0  0  0  0  0  0  0
   -2.4733    0.0269   -1.7570 H   0  0  0  0  0  0  0  0  0  0  0  0
   -3.0455    0.7796   -0.2735 H   0  0  0  0  0  0  0  0  0  0  0  0
   -0.8446    1.6737   -2.0966 H   0  0  0  0  0  0  0  0  0  0  0  0
   -1.7388    2.6156   -0.9212 H   0  0  0  0  0  0  0  0  0  0  0  0
    0.6039    2.4800   -0.1922 H   0  0  0  0  0  0  0  0  0  0  0  0
    0.2301    1.5498    2.0519 H   0  0  0  0  0  0  0  0  0  0  0  0
   -1.3204    2.1679    1.5214 H   0  0  0  0  0  0  0  0  0  0  0  0
   -2.1040    0.0032    1.9643 H   0  0  0  0  0  0  0  0  0  0  0  0
   -0.4938   -0.6729    1.9836 H   0  0  0  0  0  0  0  0  0  0  0  0
   -0.2198   -0.9535   -1.7528 H   0  0  0  0  0  0  0  0  0  0  0  0
 13 12  2  0
 11 12  1  0
 11  1  1  0
  7  8  1  0
  7  6  1  0
 12  9  1  0
  8  3  1  0
  1 10  1  0
  6  9  1  0
  6  5  1  0
  9 10  1  0
 10  3  1  0
  3  2  1  1
  3  4  1  0
  5  4  1  0
  1 14  1  0
  1 15  1  0
  2 16  1  0
  4 17  1  0
  4 18  1  0
  5 19  1  0
  5 20  1  0
  6 21  1  1
  7 22  1  0
  7 23  1  0
  8 24  1  0
  8 25  1  0
 10 26  1  6
M  END
