
     RDKit          3D

 40 41  0  0  0  0  0  0  0  0999 V2000
    3.5779    0.7408    1.7406 O   0  0  0  0  0  0  0  0  0  0  0  0
    3.3062   -0.0551    0.8648 C   0  0  0  0  0  0  0  0  0  0  0  0
    4.2398   -0.8866    0.3089 N   0  0  0  0  0  0  0  0  0  0  0  0
    4.0531   -1.8247   -0.6959 C   0  0  0  0  0  0  0  0  0  0  0  0
    4.9866   -2.4938   -1.0986 O   0  0  0  0  0  0  0  0  0  0  0  0
    2.6918   -1.8957   -1.1628 C   0  0  0  0  0  0  0  0  0  0  0  0
    1.7583   -1.0925   -0.6241 C   0  0  0  0  0  0  0  0  0  0  0  0
    2.0318   -0.1850    0.3540 N   0  0  0  0  0  0  0  0  0  0  0  0
    0.9984    0.6990    0.9370 C   0  0  2  0  0  0  0  0  0  0  0  0
   -0.2653    0.2066    0.6202 O   0  0  0  0  0  0  0  0  0  0  0  0
    1.0821    2.1173    0.3690 C   0  0  2  0  0  0  0  0  0  0  0  0
    0.6278    3.0001    1.3572 O   0  0  0  0  0  0  0  0  0  0  0  0
    0.0844    2.0338   -0.7925 C   0  0  2  0  0  0  0  0  0  0  0  0
   -0.4758    3.2648   -1.1484 O   0  0  0  0  0  0  0  0  0  0  0  0
   -0.9850    1.1137   -0.2161 C   0  0  1  0  0  0  0  0  0  0  0  0
   -1.7666    0.3471   -1.2661 C   0  0  0  0  0  0  0  0  0  0  0  0
   -2.7261   -0.5713   -0.7037 N   0  0  0  0  0  0  0  0  0  0  0  0
   -3.9368   -0.1894   -0.2669 C   0  0  0  0  0  0  0  0  0  0  0  0
   -4.3501    0.9570   -0.3712 O   0  0  0  0  0  0  0  0  0  0  0  0
   -4.7576   -1.2708    0.4201 C   0  0  2  0  0  0  0  0  0  0  0  0
   -6.1238   -1.1856   -0.0643 N   0  0  0  0  0  0  0  0  0  0  0  0
   -4.6012   -1.1089    1.9349 C   0  0  0  0  0  0  0  0  0  0  0  0
    5.1771   -0.7935    0.6812 H   0  0  0  0  0  0  0  0  0  0  0  0
    2.4269   -2.6010   -1.9348 H   0  0  0  0  0  0  0  0  0  0  0  0
    0.7306   -1.1485   -0.9466 H   0  0  0  0  0  0  0  0  0  0  0  0
    1.1458    0.6896    2.0183 H   0  0  0  0  0  0  0  0  0  0  0  0
    2.0929    2.3709    0.0304 H   0  0  0  0  0  0  0  0  0  0  0  0
    0.2054    3.7464    0.9136 H   0  0  0  0  0  0  0  0  0  0  0  0
    0.5707    1.5512   -1.6519 H   0  0  0  0  0  0  0  0  0  0  0  0
    0.1117    3.7086   -1.7686 H   0  0  0  0  0  0  0  0  0  0  0  0
   -1.6802    1.6951    0.4009 H   0  0  0  0  0  0  0  0  0  0  0  0
   -2.2782    1.0675   -1.9064 H   0  0  0  0  0  0  0  0  0  0  0  0
   -1.0887   -0.2208   -1.9058 H   0  0  0  0  0  0  0  0  0  0  0  0
   -2.4428   -1.5287   -0.5763 H   0  0  0  0  0  0  0  0  0  0  0  0
   -4.3668   -2.2527    0.1376 H   0  0  0  0  0  0  0  0  0  0  0  0
   -6.6865   -1.8815    0.4094 H   0  0  0  0  0  0  0  0  0  0  0  0
   -6.5158   -0.2870    0.1922 H   0  0  0  0  0  0  0  0  0  0  0  0
   -3.5588   -1.1939    2.2476 H   0  0  0  0  0  0  0  0  0  0  0  0
   -4.9759   -0.1371    2.2603 H   0  0  0  0  0  0  0  0  0  0  0  0
   -5.1679   -1.8830    2.4535 H   0  0  0  0  0  0  0  0  0  0  0  0
 12 11  1  0
 14 13  1  0
 21 20  1  0
 11 13  1  0
 11  9  1  0
 13 15  1  0
 15 16  1  0
 15 10  1  0
 20 22  1  0
 20 18  1  0
 16 17  1  0
 10  9  1  0
  9  8  1  0
 17 18  1  0
 18 19  2  0
  1  2  2  0
  8  2  1  0
  8  7  1  0
  2  3  1  0
  7  6  2  0
  3  4  1  0
  6  4  1  0
  4  5  2  0
  3 23  1  0
  6 24  1  0
  7 25  1  0
  9 26  1  1
 11 27  1  6
 12 28  1  0
 13 29  1  6
 14 30  1  0
 15 31  1  1
 16 32  1  0
 16 33  1  0
 17 34  1  0
 20 35  1  6
 21 36  1  0
 21 37  1  0
 22 38  1  0
 22 39  1  0
 22 40  1  0
M  END
