
     RDKit          3D

 69 73  0  0  0  0  0  0  0  0999 V2000
   16.4141   -5.3625    3.7425 C   0  0  0  0  0  0  0  0  0  0  0  0
   16.9809   -6.5217    2.9234 C   0  0  0  0  0  0  0  0  0  0  0  0
   15.9721   -7.4470    2.5980 O   0  0  0  0  0  0  0  0  0  0  0  0
   14.9986   -6.8931    1.7308 C   0  0  0  0  0  0  0  0  0  0  0  0
   14.8656   -5.3788    1.9014 C   0  0  0  0  0  0  0  0  0  0  0  0
   15.0657   -5.0580    3.2955 N   0  0  0  0  0  0  0  0  0  0  0  0
   14.5637   -3.7724    3.7210 C   0  0  0  0  0  0  0  0  0  0  0  0
   15.2028   -2.5440    3.0638 C   0  0  0  0  0  0  0  0  0  0  0  0
   14.6709   -1.2426    3.6199 C   0  0  0  0  0  0  0  0  0  0  0  0
   13.2828   -1.1635    3.3129 O   0  0  0  0  0  0  0  0  0  0  0  0
   12.5732   -0.1336    3.7701 C   0  0  0  0  0  0  0  0  0  0  0  0
   13.0754    0.9140    4.5064 C   0  0  0  0  0  0  0  0  0  0  0  0
   11.1826   -0.1702    3.4578 C   0  0  0  0  0  0  0  0  0  0  0  0
   10.6839   -1.2248    2.7676 O   0  0  0  0  0  0  0  0  0  0  0  0
   10.8349   -1.1413    1.3545 C   0  0  0  0  0  0  0  0  0  0  0  0
   10.3574    0.8305    3.8860 C   0  0  0  0  0  0  0  0  0  0  0  0
   10.8548    1.9069    4.6486 C   0  0  0  0  0  0  0  0  0  0  0  0
   12.2277    1.9436    4.9585 C   0  0  0  0  0  0  0  0  0  0  0  0
   12.7701    2.9484    5.6982 N   0  0  0  0  0  0  0  0  0  0  0  0
   11.9427    3.8660    6.1062 C   0  0  0  0  0  0  0  0  0  0  0  0
   10.6253    3.9453    5.8807 N   0  0  0  0  0  0  0  0  0  0  0  0
   10.0686    2.9935    5.1593 C   0  0  0  0  0  0  0  0  0  0  0  0
    8.7444    3.0382    4.8934 N   0  0  0  0  0  0  0  0  0  0  0  0
    7.7577    3.9387    5.3041 C   0  0  0  0  0  0  0  0  0  0  0  0
    6.5093    3.8146    4.6925 C   0  0  0  0  0  0  0  0  0  0  0  0
    5.4384    4.6196    5.0367 C   0  0  0  0  0  0  0  0  0  0  0  0
    7.9111    4.9174    6.2870 C   0  0  0  0  0  0  0  0  0  0  0  0
    6.8400    5.7231    6.6305 C   0  0  0  0  0  0  0  0  0  0  0  0
    5.5916    5.5942    6.0236 C   0  0  0  0  0  0  0  0  0  0  0  0
    4.5856    6.4676    6.4513 N   0  0  0  0  0  0  0  0  0  0  0  0
    3.2764    6.4978    6.1038 C   0  0  0  0  0  0  0  0  0  0  0  0
    2.7548    5.6943    5.3482 O   0  0  0  0  0  0  0  0  0  0  0  0
    2.4806    7.5955    6.7335 C   0  0  0  0  0  0  0  0  0  0  0  0
    1.1093    7.3986    6.8872 C   0  0  0  0  0  0  0  0  0  0  0  0
    0.3185    8.3854    7.4539 C   0  0  0  0  0  0  0  0  0  0  0  0
    0.8860    9.5881    7.8557 C   0  0  0  0  0  0  0  0  0  0  0  0
    2.2478    9.7986    7.6891 C   0  0  0  0  0  0  0  0  0  0  0  0
    3.0431    8.8074    7.1326 C   0  0  0  0  0  0  0  0  0  0  0  0
   16.3821   -5.6234    4.8055 H   0  0  0  0  0  0  0  0  0  0  0  0
   17.1117   -4.5169    3.6482 H   0  0  0  0  0  0  0  0  0  0  0  0
   17.4742   -6.1451    2.0173 H   0  0  0  0  0  0  0  0  0  0  0  0
   17.7409   -7.0496    3.5009 H   0  0  0  0  0  0  0  0  0  0  0  0
   15.2333   -7.1245    0.6839 H   0  0  0  0  0  0  0  0  0  0  0  0
   14.0512   -7.3790    1.9751 H   0  0  0  0  0  0  0  0  0  0  0  0
   15.5543   -4.8493    1.2244 H   0  0  0  0  0  0  0  0  0  0  0  0
   13.8582   -5.0825    1.6002 H   0  0  0  0  0  0  0  0  0  0  0  0
   13.4854   -3.7557    3.5411 H   0  0  0  0  0  0  0  0  0  0  0  0
   14.6958   -3.7009    4.8064 H   0  0  0  0  0  0  0  0  0  0  0  0
   16.2830   -2.5403    3.2312 H   0  0  0  0  0  0  0  0  0  0  0  0
   15.0578   -2.5652    1.9801 H   0  0  0  0  0  0  0  0  0  0  0  0
   14.8149   -1.2032    4.7060 H   0  0  0  0  0  0  0  0  0  0  0  0
   15.1992   -0.3901    3.1813 H   0  0  0  0  0  0  0  0  0  0  0  0
   14.1227    0.9790    4.7679 H   0  0  0  0  0  0  0  0  0  0  0  0
    9.3091    0.7463    3.6265 H   0  0  0  0  0  0  0  0  0  0  0  0
   10.3934   -2.0423    0.9341 H   0  0  0  0  0  0  0  0  0  0  0  0
   10.3110   -0.2700    0.9533 H   0  0  0  0  0  0  0  0  0  0  0  0
   11.8837   -1.0932    1.0554 H   0  0  0  0  0  0  0  0  0  0  0  0
   12.3584    4.6726    6.7018 H   0  0  0  0  0  0  0  0  0  0  0  0
    8.3947    2.3222    4.2780 H   0  0  0  0  0  0  0  0  0  0  0  0
    6.3625    3.0658    3.9227 H   0  0  0  0  0  0  0  0  0  0  0  0
    8.8564    5.0557    6.7838 H   0  0  0  0  0  0  0  0  0  0  0  0
    4.4980    4.4773    4.5314 H   0  0  0  0  0  0  0  0  0  0  0  0
    6.9863    6.4727    7.3995 H   0  0  0  0  0  0  0  0  0  0  0  0
    4.8781    7.1159    7.1659 H   0  0  0  0  0  0  0  0  0  0  0  0
    0.6608    6.4669    6.5695 H   0  0  0  0  0  0  0  0  0  0  0  0
    4.0979    9.0081    6.9910 H   0  0  0  0  0  0  0  0  0  0  0  0
   -0.7426    8.2162    7.5807 H   0  0  0  0  0  0  0  0  0  0  0  0
    0.2680   10.3616    8.2927 H   0  0  0  0  0  0  0  0  0  0  0  0
    2.6933   10.7380    7.9881 H   0  0  0  0  0  0  0  0  0  0  0  0
  1  2  1  0
  1  6  1  0
  2  3  1  0
  3  4  1  0
  4  5  1  0
  5  6  1  0
  6  7  1  0
  7  8  1  0
  8  9  1  0
  9 10  1  0
 10 11  1  0
 11 12  2  0
 11 13  1  0
 12 18  1  0
 13 14  1  0
 13 16  2  0
 14 15  1  0
 16 17  1  0
 17 18  2  0
 17 22  1  0
 18 19  1  0
 19 20  2  0
 20 21  1  0
 21 22  2  0
 22 23  1  0
 23 24  1  0
 24 25  2  0
 24 27  1  0
 25 26  1  0
 26 29  2  0
 27 28  2  0
 28 29  1  0
 29 30  1  0
 30 31  1  0
 31 32  2  0
 31 33  1  0
 33 34  2  0
 33 38  1  0
 34 35  1  0
 35 36  2  0
 36 37  1  0
 37 38  2  0
  1 39  1  0
  1 40  1  0
  2 41  1  0
  2 42  1  0
  4 43  1  0
  4 44  1  0
  5 45  1  0
  5 46  1  0
  7 47  1  0
  7 48  1  0
  8 49  1  0
  8 50  1  0
  9 51  1  0
  9 52  1  0
 12 53  1  0
 16 54  1  0
 15 55  1  0
 15 56  1  0
 15 57  1  0
 20 58  1  0
 23 59  1  0
 25 60  1  0
 27 61  1  0
 26 62  1  0
 28 63  1  0
 30 64  1  0
 34 65  1  0
 38 66  1  0
 35 67  1  0
 36 68  1  0
 37 69  1  0
M  END
