
     RDKit          3D

 22 23  0  0  0  0  0  0  0  0999 V2000
    3.4771   -1.3052   -0.0273 C   0  0  0  0  0  0  0  0  0  0  0  0
    2.1166   -0.6843   -0.0017 C   0  0  0  0  0  0  0  0  0  0  0  0
    1.9968    0.7258    0.0148 C   0  0  0  0  0  0  0  0  0  0  0  0
    0.7587    1.3082    0.0285 C   0  0  0  0  0  0  0  0  0  0  0  0
    0.4991    2.7692    0.0463 C   0  0  0  0  0  0  0  0  0  0  0  0
   -0.2978    0.4682    0.0252 N   0  0  0  0  0  0  0  0  0  0  0  0
   -1.5861    0.8423    0.0324 N   0  0  0  0  0  0  0  0  0  0  0  0
   -2.2629   -0.3028    0.0271 C   0  0  0  0  0  0  0  0  0  0  0  0
   -3.6292   -0.3005    0.0886 N   0  0  0  0  0  0  0  0  0  0  0  0
   -1.4213   -1.4306    0.0131 C   0  0  0  0  0  0  0  0  0  0  0  0
   -0.1416   -0.9074    0.0104 C   0  0  0  0  0  0  0  0  0  0  0  0
    1.0715   -1.4779   -0.0026 N   0  0  0  0  0  0  0  0  0  0  0  0
    4.0873   -0.9378    0.7989 H   0  0  0  0  0  0  0  0  0  0  0  0
    3.4125   -2.3888    0.0381 H   0  0  0  0  0  0  0  0  0  0  0  0
    3.9999   -1.0431   -0.9488 H   0  0  0  0  0  0  0  0  0  0  0  0
    2.8773    1.3522    0.0177 H   0  0  0  0  0  0  0  0  0  0  0  0
    1.4375    3.3172    0.0516 H   0  0  0  0  0  0  0  0  0  0  0  0
   -0.0792    3.0724   -0.8275 H   0  0  0  0  0  0  0  0  0  0  0  0
   -0.0771    3.0515    0.9283 H   0  0  0  0  0  0  0  0  0  0  0  0
   -4.0706    0.5514   -0.2204 H   0  0  0  0  0  0  0  0  0  0  0  0
   -4.0784   -1.1185   -0.2892 H   0  0  0  0  0  0  0  0  0  0  0  0
   -1.7030   -2.4702    0.0055 H   0  0  0  0  0  0  0  0  0  0  0  0
  1  2  1  0
  2  3  1  0
  2 12  2  0
  3  4  2  0
  4  5  1  0
  4  6  1  0
  6  7  1  0
  6 11  1  0
  7  8  2  0
  8  9  1  0
  8 10  1  0
 10 11  2  0
 11 12  1  0
  1 13  1  0
  1 14  1  0
  1 15  1  0
  3 16  1  0
  5 17  1  0
  5 18  1  0
  5 19  1  0
  9 20  1  0
  9 21  1  0
 10 22  1  0
M  END
