
     RDKit          3D

 48 51  0  0  0  0  0  0  0  0999 V2000
   -3.7466   -1.6295    0.9689 C   0  0  0  0  0  0  0  0  0  0  0  0
   -4.6002   -2.8791    0.7697 C   0  0  0  0  0  0  0  0  0  0  0  0
   -6.0723   -2.5287    0.5804 C   0  0  0  0  0  0  0  0  0  0  0  0
   -6.2580   -1.5358   -0.5621 C   0  0  0  0  0  0  0  0  0  0  0  0
   -5.4037   -0.2892   -0.3593 C   0  0  0  0  0  0  0  0  0  0  0  0
   -3.9253   -0.6401   -0.1831 C   0  0  1  0  0  0  0  0  0  0  0  0
   -3.1344    0.6397    0.0001 C   0  0  0  0  0  0  0  0  0  0  0  0
   -1.7413    0.3130    0.0375 O   0  0  0  0  0  0  0  0  0  0  0  0
   -0.8545    1.2854   -0.0330 C   0  0  0  0  0  0  0  0  0  0  0  0
   -1.2319    2.5413   -0.1111 N   0  0  0  0  0  0  0  0  0  0  0  0
   -0.2952    3.5067   -0.2055 C   0  0  0  0  0  0  0  0  0  0  0  0
   -0.7622    4.7681   -0.3346 N   0  0  0  0  0  0  0  0  0  0  0  0
    1.0235    3.3328   -0.2184 N   0  0  0  0  0  0  0  0  0  0  0  0
    1.3668    2.0553   -0.1265 C   0  0  0  0  0  0  0  0  0  0  0  0
    2.6105    1.5158   -0.1115 N   0  0  0  0  0  0  0  0  0  0  0  0
    0.5089    0.9632   -0.0307 C   0  0  0  0  0  0  0  0  0  0  0  0
    1.2141   -0.2083    0.0398 N   0  0  0  0  0  0  0  0  0  0  0  0
    2.4675    0.1487   -0.0111 C   0  0  0  0  0  0  0  0  0  0  0  0
    3.6327   -0.7329    0.0734 C   0  0  0  0  0  0  0  0  0  0  0  0
    4.7998   -0.2338    0.6588 C   0  0  0  0  0  0  0  0  0  0  0  0
    5.9374   -1.0140    0.7737 C   0  0  0  0  0  0  0  0  0  0  0  0
    5.9180   -2.3168    0.2997 C   0  0  0  0  0  0  0  0  0  0  0  0
    4.7630   -2.8183   -0.2822 C   0  0  0  0  0  0  0  0  0  0  0  0
    3.6057   -2.0534   -0.4101 C   0  0  0  0  0  0  0  0  0  0  0  0
    2.4026   -2.6631   -1.0689 C   0  0  0  0  0  0  0  0  0  0  0  0
   -4.0363   -1.1409    1.9072 H   0  0  0  0  0  0  0  0  0  0  0  0
   -2.6963   -1.9104    1.0743 H   0  0  0  0  0  0  0  0  0  0  0  0
   -4.2407   -3.4260   -0.1087 H   0  0  0  0  0  0  0  0  0  0  0  0
   -4.4779   -3.5518    1.6221 H   0  0  0  0  0  0  0  0  0  0  0  0
   -6.6574   -3.4330    0.3957 H   0  0  0  0  0  0  0  0  0  0  0  0
   -6.4599   -2.0898    1.5062 H   0  0  0  0  0  0  0  0  0  0  0  0
   -5.9793   -2.0129   -1.5078 H   0  0  0  0  0  0  0  0  0  0  0  0
   -7.3095   -1.2542   -0.6548 H   0  0  0  0  0  0  0  0  0  0  0  0
   -5.5269    0.3922   -1.2059 H   0  0  0  0  0  0  0  0  0  0  0  0
   -5.7560    0.2500    0.5280 H   0  0  0  0  0  0  0  0  0  0  0  0
   -3.5839   -1.1191   -1.1099 H   0  0  0  0  0  0  0  0  0  0  0  0
   -3.3297    1.3301   -0.8238 H   0  0  0  0  0  0  0  0  0  0  0  0
   -3.4190    1.1413    0.9307 H   0  0  0  0  0  0  0  0  0  0  0  0
   -1.7266    4.9421   -0.1114 H   0  0  0  0  0  0  0  0  0  0  0  0
   -0.1231    5.5297   -0.1852 H   0  0  0  0  0  0  0  0  0  0  0  0
    3.4734    2.0253   -0.2261 H   0  0  0  0  0  0  0  0  0  0  0  0
    4.8192    0.7742    1.0545 H   0  0  0  0  0  0  0  0  0  0  0  0
    6.8273   -0.6069    1.2346 H   0  0  0  0  0  0  0  0  0  0  0  0
    6.7970   -2.9432    0.3794 H   0  0  0  0  0  0  0  0  0  0  0  0
    4.7579   -3.8344   -0.6577 H   0  0  0  0  0  0  0  0  0  0  0  0
    1.5861   -2.8060   -0.3627 H   0  0  0  0  0  0  0  0  0  0  0  0
    2.0139   -2.0314   -1.8677 H   0  0  0  0  0  0  0  0  0  0  0  0
    2.6579   -3.6318   -1.4967 H   0  0  0  0  0  0  0  0  0  0  0  0
  4  3  1  0
  4  5  1  0
  3  2  1  0
  5  6  1  0
  2  1  1  0
  6  1  1  0
  6  7  1  0
  7  8  1  0
  8  9  1  0
 10  9  2  0
 10 11  1  0
  9 16  1  0
 25 24  1  0
 12 11  1  0
 11 13  2  0
 16 17  1  0
 16 14  2  0
 17 18  2  0
 13 14  1  0
 24 23  2  0
 24 19  1  0
 14 15  1  0
 18 15  1  0
 18 19  1  0
 23 22  1  0
 19 20  2  0
 22 21  2  0
 20 21  1  0
  1 26  1  0
  1 27  1  0
  2 28  1  0
  2 29  1  0
  3 30  1  0
  3 31  1  0
  4 32  1  0
  4 33  1  0
  5 34  1  0
  5 35  1  0
  6 36  1  6
  7 37  1  0
  7 38  1  0
 12 39  1  0
 12 40  1  0
 15 41  1  0
 20 42  1  0
 21 43  1  0
 22 44  1  0
 23 45  1  0
 25 46  1  0
 25 47  1  0
 25 48  1  0
M  END
