
     RDKit          3D

 51 54  0  0  0  0  0  0  0  0999 V2000
   -0.5095    2.7469   -1.8456 O   0  0  0  0  0  0  0  0  0  0  0  0
   -1.3566    1.9418   -1.0729 C   0  0  2  0  0  0  0  0  0  0  0  0
   -2.7066    2.5799   -0.7326 C   0  0  2  0  0  0  0  0  0  0  0  0
   -2.5341    3.9201   -0.3300 O   0  0  0  0  0  0  0  0  0  0  0  0
   -3.2087    1.7555    0.4635 C   0  0  1  0  0  0  0  0  0  0  0  0
   -4.2916    0.7780    0.0429 C   0  0  0  0  0  0  0  0  0  0  0  0
   -4.6903    0.0327    1.1700 O   0  0  0  0  0  0  0  0  0  0  0  0
   -1.9629    1.0438    1.0391 C   0  0  0  0  0  0  0  0  0  0  0  0
   -0.7667    1.6551    0.3056 C   0  0  1  0  0  0  0  0  0  0  0  0
    0.3635    0.7651    0.2798 N   0  0  0  0  0  0  0  0  0  0  0  0
    1.6498    1.1191    0.3411 C   0  0  0  0  0  0  0  0  0  0  0  0
    1.9433    2.4005    0.5167 N   0  0  0  0  0  0  0  0  0  0  0  0
    3.2284    2.7470    0.5688 C   0  0  0  0  0  0  0  0  0  0  0  0
    4.2762    1.9802    0.4545 N   0  0  0  0  0  0  0  0  0  0  0  0
    4.0280    0.6540    0.2814 C   0  0  0  0  0  0  0  0  0  0  0  0
    2.7120    0.1401    0.2310 C   0  0  0  0  0  0  0  0  0  0  0  0
    5.1263   -0.2186    0.1496 C   0  0  0  0  0  0  0  0  0  0  0  0
    4.9158   -1.5606   -0.0238 C   0  0  0  0  0  0  0  0  0  0  0  0
    3.6219   -2.0974   -0.0641 C   0  0  0  0  0  0  0  0  0  0  0  0
    2.5352   -1.2611    0.0684 C   0  0  0  0  0  0  0  0  0  0  0  0
    1.2656   -1.6964    0.0649 O   0  0  0  0  0  0  0  0  0  0  0  0
    0.9356   -3.0562   -0.2089 C   0  0  0  0  0  0  0  0  0  0  0  0
   -0.5627   -3.0971   -0.2223 C   0  0  0  0  0  0  0  0  0  0  0  0
   -1.2607   -2.5859   -1.3143 C   0  0  0  0  0  0  0  0  0  0  0  0
   -2.6466   -2.5348   -1.3005 C   0  0  0  0  0  0  0  0  0  0  0  0
   -3.3487   -2.9917   -0.1915 C   0  0  0  0  0  0  0  0  0  0  0  0
   -2.6600   -3.5060    0.8978 C   0  0  0  0  0  0  0  0  0  0  0  0
   -1.2717   -3.5537    0.8828 C   0  0  0  0  0  0  0  0  0  0  0  0
   -0.7914    2.6975   -2.7646 H   0  0  0  0  0  0  0  0  0  0  0  0
   -1.5487    0.9762   -1.5647 H   0  0  0  0  0  0  0  0  0  0  0  0
   -3.3985    2.5205   -1.5860 H   0  0  0  0  0  0  0  0  0  0  0  0
   -0.4603    2.5913    0.7718 H   0  0  0  0  0  0  0  0  0  0  0  0
   -1.9325    4.3346   -0.9597 H   0  0  0  0  0  0  0  0  0  0  0  0
   -3.6370    2.4404    1.2005 H   0  0  0  0  0  0  0  0  0  0  0  0
   -5.1338    1.3350   -0.3901 H   0  0  0  0  0  0  0  0  0  0  0  0
   -3.9020    0.1233   -0.7488 H   0  0  0  0  0  0  0  0  0  0  0  0
   -1.8769    1.1426    2.1202 H   0  0  0  0  0  0  0  0  0  0  0  0
   -2.0148   -0.0296    0.8221 H   0  0  0  0  0  0  0  0  0  0  0  0
   -5.2104   -0.7167    0.8690 H   0  0  0  0  0  0  0  0  0  0  0  0
    0.1727   -0.2130    0.1266 H   0  0  0  0  0  0  0  0  0  0  0  0
    3.4161    3.8064    0.7196 H   0  0  0  0  0  0  0  0  0  0  0  0
    6.1251    0.1950    0.1899 H   0  0  0  0  0  0  0  0  0  0  0  0
    5.7589   -2.2310   -0.1273 H   0  0  0  0  0  0  0  0  0  0  0  0
    3.4953   -3.1636   -0.1906 H   0  0  0  0  0  0  0  0  0  0  0  0
    1.3584   -3.3555   -1.1726 H   0  0  0  0  0  0  0  0  0  0  0  0
    1.3459   -3.7095    0.5661 H   0  0  0  0  0  0  0  0  0  0  0  0
   -0.7196   -2.2261   -2.1816 H   0  0  0  0  0  0  0  0  0  0  0  0
   -0.7379   -3.9478    1.7392 H   0  0  0  0  0  0  0  0  0  0  0  0
   -3.1783   -2.1377   -2.1555 H   0  0  0  0  0  0  0  0  0  0  0  0
   -4.4306   -2.9585   -0.1836 H   0  0  0  0  0  0  0  0  0  0  0  0
   -3.2007   -3.8672    1.7628 H   0  0  0  0  0  0  0  0  0  0  0  0
  1  2  1  0
  2  3  1  0
  2  9  1  0
  3  4  1  0
  3  5  1  0
  5  6  1  0
  5  8  1  0
  6  7  1  0
  8  9  1  0
  9 10  1  0
 10 11  1  0
 11 12  2  0
 11 16  1  0
 12 13  1  0
 13 14  2  0
 14 15  1  0
 15 16  2  0
 15 17  1  0
 16 20  1  0
 17 18  2  0
 18 19  1  0
 19 20  2  0
 20 21  1  0
 21 22  1  0
 22 23  1  0
 23 24  2  0
 23 28  1  0
 24 25  1  0
 25 26  2  0
 26 27  1  0
 27 28  2  0
  1 29  1  0
  2 30  1  6
  3 31  1  6
  9 32  1  1
  4 33  1  0
  5 34  1  1
  6 35  1  0
  6 36  1  0
  8 37  1  0
  8 38  1  0
  7 39  1  0
 10 40  1  0
 13 41  1  0
 17 42  1  0
 18 43  1  0
 19 44  1  0
 22 45  1  0
 22 46  1  0
 24 47  1  0
 28 48  1  0
 25 49  1  0
 26 50  1  0
 27 51  1  0
M  END
