
     RDKit          3D

 49 48  0  0  0  0  0  0  0  0999 V2000
    4.3231    0.2952    0.3782 P   0  0  1  0  0  0  0  0  0  0  0  0
    4.4874    0.0984    1.8339 O   0  0  0  0  0  0  0  0  0  0  0  0
    5.4749   -0.2634   -0.5598 O   0  0  0  0  0  0  0  0  0  0  0  0
    6.8746   -0.2424   -0.1572 C   0  0  1  0  0  0  0  0  0  0  0  0
    7.2693   -1.6360    0.2807 C   0  0  0  0  0  0  0  0  0  0  0  0
    7.6753    0.2614   -1.3380 C   0  0  0  0  0  0  0  0  0  0  0  0
    2.8125   -0.2955   -0.3795 C   0  0  0  0  0  0  0  0  0  0  0  0
    1.5583    0.2976    0.2636 C   0  0  0  0  0  0  0  0  0  0  0  0
    0.2883   -0.2821   -0.3457 C   0  0  0  0  0  0  0  0  0  0  0  0
   -0.9765    0.3046    0.2666 C   0  0  0  0  0  0  0  0  0  0  0  0
   -2.2540   -0.2669   -0.3343 C   0  0  0  0  0  0  0  0  0  0  0  0
   -3.5191    0.3282    0.2704 C   0  0  0  0  0  0  0  0  0  0  0  0
   -4.7988   -0.2346   -0.3345 C   0  0  0  0  0  0  0  0  0  0  0  0
   -6.0624    0.3655    0.2681 C   0  0  0  0  0  0  0  0  0  0  0  0
   -7.3410   -0.1824   -0.3522 C   0  0  0  0  0  0  0  0  0  0  0  0
   -8.6048    0.4131    0.2699 C   0  0  0  0  0  0  0  0  0  0  0  0
   -9.8510   -0.0614   -0.4064 C   0  0  0  0  0  0  0  0  0  0  0  0
  -10.7975   -0.8012    0.1604 C   0  0  0  0  0  0  0  0  0  0  0  0
    6.9978    0.4486    0.6813 H   0  0  0  0  0  0  0  0  0  0  0  0
    7.1478   -2.3516   -0.5336 H   0  0  0  0  0  0  0  0  0  0  0  0
    8.3164   -1.6437    0.5836 H   0  0  0  0  0  0  0  0  0  0  0  0
    6.6730   -1.9685    1.1301 H   0  0  0  0  0  0  0  0  0  0  0  0
    7.3557    1.2591   -1.6388 H   0  0  0  0  0  0  0  0  0  0  0  0
    8.7290    0.3157   -1.0647 H   0  0  0  0  0  0  0  0  0  0  0  0
    7.5845   -0.4093   -2.1938 H   0  0  0  0  0  0  0  0  0  0  0  0
    2.8422   -0.0798   -1.4499 H   0  0  0  0  0  0  0  0  0  0  0  0
    2.8125   -1.3838   -0.2743 H   0  0  0  0  0  0  0  0  0  0  0  0
    1.5657    0.1040    1.3393 H   0  0  0  0  0  0  0  0  0  0  0  0
    1.5544    1.3839    0.1423 H   0  0  0  0  0  0  0  0  0  0  0  0
    0.2886   -0.1036   -1.4260 H   0  0  0  0  0  0  0  0  0  0  0  0
    0.2883   -1.3696   -0.2165 H   0  0  0  0  0  0  0  0  0  0  0  0
   -0.9724    0.1288    1.3479 H   0  0  0  0  0  0  0  0  0  0  0  0
   -0.9701    1.3925    0.1378 H   0  0  0  0  0  0  0  0  0  0  0  0
   -2.2541   -0.0961   -1.4166 H   0  0  0  0  0  0  0  0  0  0  0  0
   -2.2641   -1.3544   -0.2011 H   0  0  0  0  0  0  0  0  0  0  0  0
   -3.5211    0.1551    1.3523 H   0  0  0  0  0  0  0  0  0  0  0  0
   -3.5053    1.4161    0.1403 H   0  0  0  0  0  0  0  0  0  0  0  0
   -4.7951   -0.0611   -1.4164 H   0  0  0  0  0  0  0  0  0  0  0  0
   -4.8152   -1.3223   -0.2045 H   0  0  0  0  0  0  0  0  0  0  0  0
   -6.0733    0.1815    1.3481 H   0  0  0  0  0  0  0  0  0  0  0  0
   -6.0408    1.4544    0.1483 H   0  0  0  0  0  0  0  0  0  0  0  0
   -7.3361    0.0159   -1.4293 H   0  0  0  0  0  0  0  0  0  0  0  0
   -7.3663   -1.2713   -0.2439 H   0  0  0  0  0  0  0  0  0  0  0  0
   -8.6412    0.1709    1.3359 H   0  0  0  0  0  0  0  0  0  0  0  0
   -8.5495    1.5051    0.1975 H   0  0  0  0  0  0  0  0  0  0  0  0
   -9.9612    0.2207   -1.4509 H   0  0  0  0  0  0  0  0  0  0  0  0
  -10.7327   -1.1124    1.1970 H   0  0  0  0  0  0  0  0  0  0  0  0
  -11.6719   -1.1242   -0.3898 H   0  0  0  0  0  0  0  0  0  0  0  0
    4.3189    1.8573    0.0287 F   0  0  0  0  0  0  0  0  0  0  0  0
  5  4  1  0
  4  6  1  0
  4  3  1  0
  3  1  1  0
  2  1  2  0
  1  7  1  0
  7  8  1  0
 18 17  2  0
  8  9  1  0
 15 14  1  0
 15 16  1  0
 14 13  1  0
 17 16  1  0
  9 10  1  0
 10 11  1  0
 13 12  1  0
 12 11  1  0
  4 19  1  1
  5 20  1  0
  5 21  1  0
  5 22  1  0
  6 23  1  0
  6 24  1  0
  6 25  1  0
  7 26  1  0
  7 27  1  0
  8 28  1  0
  8 29  1  0
  9 30  1  0
  9 31  1  0
 10 32  1  0
 10 33  1  0
 11 34  1  0
 11 35  1  0
 12 36  1  0
 12 37  1  0
 13 38  1  0
 13 39  1  0
 14 40  1  0
 14 41  1  0
 15 42  1  0
 15 43  1  0
 16 44  1  0
 16 45  1  0
 17 46  1  0
 18 47  1  0
 18 48  1  0
  1 49  1  1
M  END
