
     RDKit          3D

 65 70  0  0  0  0  0  0  0  0999 V2000
    6.2117    1.2954   -0.4064 C   0  0  0  0  0  0  0  0  0  0  0  0
    6.3395    2.6461   -0.6390 C   0  0  0  0  0  0  0  0  0  0  0  0
    5.2086    3.4857   -0.6678 C   0  0  0  0  0  0  0  0  0  0  0  0
    3.9553    2.9877   -0.4485 C   0  0  0  0  0  0  0  0  0  0  0  0
    4.9027    0.7460   -0.2399 C   0  0  0  0  0  0  0  0  0  0  0  0
    3.7723    1.6004   -0.2332 C   0  0  0  0  0  0  0  0  0  0  0  0
    2.4733    1.0710   -0.0443 C   0  0  0  0  0  0  0  0  0  0  0  0
    2.2850   -0.2826    0.1063 C   0  0  0  0  0  0  0  0  0  0  0  0
    3.4133   -1.1410    0.0445 C   0  0  0  0  0  0  0  0  0  0  0  0
    4.6715   -0.6441   -0.1232 C   0  0  0  0  0  0  0  0  0  0  0  0
    8.5135    0.8224   -1.0538 C   0  0  0  0  0  0  0  0  0  0  0  0
    9.4623   -0.3695   -1.1369 C   0  0  0  0  0  0  0  0  0  0  0  0
    8.5937   -1.2370    0.8983 C   0  0  0  0  0  0  0  0  0  0  0  0
    7.3093    0.4227   -0.3443 N   0  0  0  0  0  0  0  0  0  0  0  0
    9.8044   -0.9392    0.1540 N   0  0  0  0  0  0  0  0  0  0  0  0
    7.6336   -0.0591    0.9983 C   0  0  0  0  0  0  0  0  0  0  0  0
   10.7632   -0.1528    0.9040 C   0  0  0  0  0  0  0  0  0  0  0  0
    1.0606   -0.9201    0.2922 N   0  0  0  0  0  0  0  0  0  0  0  0
   -0.1817   -0.3585    0.4081 C   0  0  0  0  0  0  0  0  0  0  0  0
   -1.1681   -1.3032    0.5199 N   0  0  0  0  0  0  0  0  0  0  0  0
   -0.3902    0.8407    0.4162 O   0  0  0  0  0  0  0  0  0  0  0  0
   -2.5398   -1.0699    0.6332 C   0  0  0  0  0  0  0  0  0  0  0  0
   -3.0890    0.0805    1.2018 C   0  0  0  0  0  0  0  0  0  0  0  0
   -4.4660    0.2147    1.3039 C   0  0  0  0  0  0  0  0  0  0  0  0
   -5.3011   -0.7955    0.8591 C   0  0  0  0  0  0  0  0  0  0  0  0
   -4.7710   -1.9488    0.3059 C   0  0  0  0  0  0  0  0  0  0  0  0
   -3.3981   -2.0796    0.1931 C   0  0  0  0  0  0  0  0  0  0  0  0
   -6.6654   -0.6746    1.0126 O   0  0  0  0  0  0  0  0  0  0  0  0
   -7.3906   -0.1284    0.0163 C   0  0  0  0  0  0  0  0  0  0  0  0
   -6.8742    0.3653   -1.1722 C   0  0  0  0  0  0  0  0  0  0  0  0
   -7.7495    0.9052   -2.1222 C   0  0  0  0  0  0  0  0  0  0  0  0
   -9.0621    0.9897   -1.9878 N   0  0  0  0  0  0  0  0  0  0  0  0
   -8.7718   -0.0592    0.2062 C   0  0  0  0  0  0  0  0  0  0  0  0
   -9.5267    0.5096   -0.8397 C   0  0  0  0  0  0  0  0  0  0  0  0
  -10.8309    0.4759   -0.4577 N   0  0  0  0  0  0  0  0  0  0  0  0
  -10.9264   -0.0919    0.7836 C   0  0  0  0  0  0  0  0  0  0  0  0
   -9.6855   -0.4370    1.2346 C   0  0  0  0  0  0  0  0  0  0  0  0
    7.3164    3.0874   -0.7857 H   0  0  0  0  0  0  0  0  0  0  0  0
    5.3472    4.5447   -0.8447 H   0  0  0  0  0  0  0  0  0  0  0  0
    3.0923    3.6419   -0.4530 H   0  0  0  0  0  0  0  0  0  0  0  0
    1.6428    1.7585   -0.0325 H   0  0  0  0  0  0  0  0  0  0  0  0
    3.2696   -2.2128    0.1196 H   0  0  0  0  0  0  0  0  0  0  0  0
    5.5031   -1.3319   -0.1928 H   0  0  0  0  0  0  0  0  0  0  0  0
    8.2466    1.1426   -2.0628 H   0  0  0  0  0  0  0  0  0  0  0  0
    8.9875   -1.1482   -1.7432 H   0  0  0  0  0  0  0  0  0  0  0  0
   10.3779   -0.0713   -1.6531 H   0  0  0  0  0  0  0  0  0  0  0  0
    8.0745   -2.0632    0.3998 H   0  0  0  0  0  0  0  0  0  0  0  0
    8.8614   -1.5812    1.8999 H   0  0  0  0  0  0  0  0  0  0  0  0
    6.7260   -0.3770    1.5119 H   0  0  0  0  0  0  0  0  0  0  0  0
    8.0716    0.7509    1.6023 H   0  0  0  0  0  0  0  0  0  0  0  0
   10.4229    0.8475    1.2034 H   0  0  0  0  0  0  0  0  0  0  0  0
   11.0358   -0.6876    1.8153 H   0  0  0  0  0  0  0  0  0  0  0  0
   11.6710   -0.0241    0.3124 H   0  0  0  0  0  0  0  0  0  0  0  0
    1.1206   -1.9246    0.3607 H   0  0  0  0  0  0  0  0  0  0  0  0
   -0.9173   -2.2619    0.3314 H   0  0  0  0  0  0  0  0  0  0  0  0
   -2.4613    0.8725    1.5769 H   0  0  0  0  0  0  0  0  0  0  0  0
   -4.8837    1.1102    1.7461 H   0  0  0  0  0  0  0  0  0  0  0  0
   -5.4198   -2.7443   -0.0375 H   0  0  0  0  0  0  0  0  0  0  0  0
   -2.9885   -2.9820   -0.2442 H   0  0  0  0  0  0  0  0  0  0  0  0
   -5.8153    0.3483   -1.3883 H   0  0  0  0  0  0  0  0  0  0  0  0
   -7.3341    1.2886   -3.0471 H   0  0  0  0  0  0  0  0  0  0  0  0
  -11.6064    0.8051   -1.0095 H   0  0  0  0  0  0  0  0  0  0  0  0
  -11.8871   -0.2093    1.2577 H   0  0  0  0  0  0  0  0  0  0  0  0
   -9.4590   -0.9028    2.1795 H   0  0  0  0  0  0  0  0  0  0  0  0
    9.0209    1.6709   -0.5696 H   0  0  0  0  0  0  0  0  0  0  0  0
 12 11  1  0
 12 15  1  0
 11 14  1  0
 17 15  1  0
 15 13  1  0
 13 16  1  0
  2  3  2  0
  2  1  1  0
  3  4  1  0
 14 16  1  0
 14  1  1  0
  1  5  2  0
  4  6  2  0
  5  6  1  0
  5 10  1  0
  6  7  1  0
 36 37  2  0
 36 35  1  0
 10  9  2  0
 37 33  1  0
 35 34  1  0
 26 27  2  0
 26 25  1  0
  7  8  2  0
 27 22  1  0
 21 19  2  0
 33 34  2  0
 33 29  1  0
  9  8  1  0
 34 32  1  0
  8 18  1  0
 28 29  1  0
 28 25  1  0
 29 30  2  0
 19 18  1  0
 19 20  1  0
 25 24  2  0
 32 31  2  0
 22 20  1  0
 22 23  2  0
 30 31  1  0
 24 23  1  0
  2 38  1  0
  3 39  1  0
  4 40  1  0
  7 41  1  0
  9 42  1  0
 10 43  1  0
 11 65  1  0
 11 44  1  0
 12 45  1  0
 12 46  1  0
 13 47  1  0
 13 48  1  0
 16 49  1  0
 16 50  1  0
 17 51  1  0
 17 52  1  0
 17 53  1  0
 18 54  1  0
 20 55  1  0
 23 56  1  0
 24 57  1  0
 26 58  1  0
 27 59  1  0
 30 60  1  0
 31 61  1  0
 35 62  1  0
 36 63  1  0
 37 64  1  0
M  END
