
     RDKit          3D

  6  5  0  0  0  0  0  0  0  0999 V2000
    0.0791    0.0297   -0.2829 P   0  0  1  0  0  0  0  0  0  0  0  0
    0.3817    1.4380    0.1486 O   0  0  0  0  0  0  0  0  0  0  0  0
    0.9312   -1.1219    0.1679 O   0  0  0  0  0  0  0  0  0  0  0  0
   -1.4622   -0.3671    0.1480 O   0  0  0  0  0  0  0  0  0  0  0  0
   -2.0686    0.3764    0.0612 H   0  0  0  0  0  0  0  0  0  0  0  0
   -0.0207    0.0038   -1.7038 H   0  0  0  0  0  0  0  0  0  0  0  0
  4  1  1  0
  1  3  2  0
  1  2  1  0
  4  5  1  0
  1  6  1  6
M  CHG  1   2  -1
M  END
