
     RDKit          3D

 31 32  0  0  0  0  0  0  0  0999 V2000
   -0.4576   -1.0754   -0.2310 C   0  0  2  0  0  0  0  0  0  0  0  0
    1.0716   -0.8209   -0.1690 C   0  0  1  0  0  0  0  0  0  0  0  0
    1.3708    0.2158   -1.2581 C   0  0  2  0  0  0  0  0  0  0  0  0
    0.0308    0.9354   -1.4912 C   0  0  1  0  0  0  0  0  0  0  0  0
   -1.0347   -0.1505   -1.3063 C   0  0  1  0  0  0  0  0  0  0  0  0
   -1.3472   -0.9399   -2.5703 C   0  0  0  0  0  0  0  0  0  0  0  0
    0.1756   -0.2763    1.7531 C   0  0  0  0  0  0  0  0  0  0  0  0
    1.0548    0.7331    3.7298 C   0  0  0  0  0  0  0  0  0  0  0  0
   -1.3780    0.4805    3.4680 C   0  0  0  0  0  0  0  0  0  0  0  0
    1.3070   -0.3088    1.1631 N   0  0  0  0  0  0  0  0  0  0  0  0
   -0.0473    0.1143    3.0268 N   0  0  0  0  0  0  0  0  0  0  0  0
    1.8001   -0.4762   -2.4096 O   0  0  0  0  0  0  0  0  0  0  0  0
   -0.1996    1.9149   -0.5018 O   0  0  0  0  0  0  0  0  0  0  0  0
   -1.8561   -0.0560   -3.5434 O   0  0  0  0  0  0  0  0  0  0  0  0
   -0.9038   -0.7100    1.0797 O   0  0  0  0  0  0  0  0  0  0  0  0
   -0.7299   -2.1209   -0.3935 H   0  0  0  0  0  0  0  0  0  0  0  0
    1.6615   -1.7252   -0.3506 H   0  0  0  0  0  0  0  0  0  0  0  0
    2.1425    0.9197   -0.9152 H   0  0  0  0  0  0  0  0  0  0  0  0
   -0.0047    1.3800   -2.4960 H   0  0  0  0  0  0  0  0  0  0  0  0
   -1.9720    0.2964   -0.9594 H   0  0  0  0  0  0  0  0  0  0  0  0
   -0.4539   -1.4606   -2.9293 H   0  0  0  0  0  0  0  0  0  0  0  0
   -2.0830   -1.7143   -2.3134 H   0  0  0  0  0  0  0  0  0  0  0  0
    0.8636    0.6862    4.8007 H   0  0  0  0  0  0  0  0  0  0  0  0
    1.9794    0.2009    3.5225 H   0  0  0  0  0  0  0  0  0  0  0  0
    1.1917    1.7825    3.4502 H   0  0  0  0  0  0  0  0  0  0  0  0
   -1.4054    0.4449    4.5560 H   0  0  0  0  0  0  0  0  0  0  0  0
   -1.6601    1.4909    3.1560 H   0  0  0  0  0  0  0  0  0  0  0  0
   -2.1247   -0.2169    3.0988 H   0  0  0  0  0  0  0  0  0  0  0  0
    1.8815    0.1544   -3.1320 H   0  0  0  0  0  0  0  0  0  0  0  0
    0.5548    2.5121   -0.4849 H   0  0  0  0  0  0  0  0  0  0  0  0
   -1.9494   -0.5407   -4.3682 H   0  0  0  0  0  0  0  0  0  0  0  0
  1  2  1  0
  1  5  1  0
  1 15  1  0
  1 16  1  6
  2  3  1  0
  2 10  1  0
  2 17  1  6
  3  4  1  0
  3 12  1  0
  3 18  1  1
  4  5  1  0
  4 13  1  0
  4 19  1  6
  5  6  1  0
  5 20  1  1
  6 14  1  0
  6 21  1  0
  6 22  1  0
  7 10  2  0
  7 11  1  0
  7 15  1  0
  8 11  1  0
  8 23  1  0
  8 24  1  0
  8 25  1  0
  9 11  1  0
  9 26  1  0
  9 27  1  0
  9 28  1  0
 12 29  1  0
 13 30  1  0
 14 31  1  0
M  END
