
     RDKit          3D

 67 70  0  0  0  0  0  0  0  0999 V2000
    1.1039   -4.3735    0.3068 C   0  0  0  0  0  0  0  0  0  0  0  0
   -0.2067   -4.8769    0.1447 C   0  0  0  0  0  0  0  0  0  0  0  0
    1.2618   -3.0554    0.7835 C   0  0  0  0  0  0  0  0  0  0  0  0
   -1.2955   -4.0423    0.4807 C   0  0  0  0  0  0  0  0  0  0  0  0
   -5.3761    1.3281   -0.5331 C   0  0  0  0  0  0  0  0  0  0  0  0
    2.7479    2.1641   -0.5272 C   0  0  0  0  0  0  0  0  0  0  0  0
    4.4300    1.3772    0.9714 C   0  0  0  0  0  0  0  0  0  0  0  0
   -5.6021    2.5567   -1.1319 C   0  0  0  0  0  0  0  0  0  0  0  0
    3.7227    2.6244   -1.3903 C   0  0  0  0  0  0  0  0  0  0  0  0
    5.4264    1.8368    0.1168 C   0  0  0  0  0  0  0  0  0  0  0  0
    0.1877   -2.2548    1.0903 C   0  0  0  0  0  0  0  0  0  0  0  0
   -3.1611    2.0388    0.0673 C   0  0  0  0  0  0  0  0  0  0  0  0
    3.0851    1.5327    0.6710 C   0  0  0  0  0  0  0  0  0  0  0  0
   -1.1389   -2.7652    0.9529 C   0  0  0  0  0  0  0  0  0  0  0  0
   -4.1569    1.0636    0.0813 C   0  0  0  0  0  0  0  0  0  0  0  0
   -4.6210    3.5369   -1.1416 C   0  0  0  0  0  0  0  0  0  0  0  0
   -3.3888    3.2763   -0.5460 C   0  0  0  0  0  0  0  0  0  0  0  0
    5.0753    2.4635   -1.0757 C   0  0  0  0  0  0  0  0  0  0  0  0
    0.4770   -0.8950    1.6398 C   0  0  0  0  0  0  0  0  0  0  0  0
    2.0101   -6.4646   -0.4860 C   0  0  0  0  0  0  0  0  0  0  0  0
   -2.5567    5.4353   -1.0738 C   0  0  0  0  0  0  0  0  0  0  0  0
    7.3369    2.8035   -1.7042 C   0  0  0  0  0  0  0  0  0  0  0  0
    2.0155    1.0117    1.5863 C   0  0  0  0  0  0  0  0  0  0  0  0
   -2.3878   -1.9860    1.2805 C   0  0  0  0  0  0  0  0  0  0  0  0
   -3.9244   -0.2646    0.7528 C   0  0  0  0  0  0  0  0  0  0  0  0
   -2.6627   -1.2730   -1.0157 C   0  0  0  0  0  0  0  0  0  0  0  0
    0.7015   -6.9646   -0.6564 C   0  0  0  0  0  0  0  0  0  0  0  0
    1.4977   -0.2489    1.0766 N   0  0  0  0  0  0  0  0  0  0  0  0
   -2.6618   -0.8778    0.3778 N   0  0  0  0  0  0  0  0  0  0  0  0
   -1.8893    1.5245    1.9614 O   0  0  0  0  0  0  0  0  0  0  0  0
   -0.1463   -0.4264    2.5969 O   0  0  0  0  0  0  0  0  0  0  0  0
    2.2083   -5.1961   -0.0126 C   0  0  0  0  0  0  0  0  0  0  0  0
   -0.8034    1.7490    0.0154 O   0  0  0  0  0  0  0  0  0  0  0  0
   -0.3838   -6.1901   -0.3462 C   0  0  0  0  0  0  0  0  0  0  0  0
   -2.3803    4.1608   -0.4877 O   0  0  0  0  0  0  0  0  0  0  0  0
    5.9563    2.9410   -1.9731 O   0  0  0  0  0  0  0  0  0  0  0  0
    2.2722   -2.6932    0.9309 H   0  0  0  0  0  0  0  0  0  0  0  0
    3.2112   -4.8090    0.1195 H   0  0  0  0  0  0  0  0  0  0  0  0
   -2.2983   -4.4335    0.3489 H   0  0  0  0  0  0  0  0  0  0  0  0
   -1.3878   -6.5746   -0.4769 H   0  0  0  0  0  0  0  0  0  0  0  0
   -6.1467    0.5679   -0.5464 H   0  0  0  0  0  0  0  0  0  0  0  0
   -6.5535    2.7598   -1.6061 H   0  0  0  0  0  0  0  0  0  0  0  0
    1.7050    2.3000   -0.7859 H   0  0  0  0  0  0  0  0  0  0  0  0
    3.4455    3.1142   -2.3155 H   0  0  0  0  0  0  0  0  0  0  0  0
    4.7227    0.8930    1.8954 H   0  0  0  0  0  0  0  0  0  0  0  0
    6.4605    1.6955    0.3997 H   0  0  0  0  0  0  0  0  0  0  0  0
   -4.8278    4.4871   -1.6144 H   0  0  0  0  0  0  0  0  0  0  0  0
    2.4176    0.8607    2.5910 H   0  0  0  0  0  0  0  0  0  0  0  0
    1.2040    1.7353    1.6641 H   0  0  0  0  0  0  0  0  0  0  0  0
   -3.2230   -2.7053    1.2763 H   0  0  0  0  0  0  0  0  0  0  0  0
   -2.3282   -1.5870    2.2938 H   0  0  0  0  0  0  0  0  0  0  0  0
   -3.9225   -0.1162    1.8360 H   0  0  0  0  0  0  0  0  0  0  0  0
   -4.7775   -0.9287    0.5381 H   0  0  0  0  0  0  0  0  0  0  0  0
    1.9160   -0.6215    0.2392 H   0  0  0  0  0  0  0  0  0  0  0  0
   -1.1070    1.0066    2.2653 H   0  0  0  0  0  0  0  0  0  0  0  0
    2.8575   -7.0903   -0.7327 H   0  0  0  0  0  0  0  0  0  0  0  0
    0.5589   -7.9680   -1.0353 H   0  0  0  0  0  0  0  0  0  0  0  0
   -1.6263    5.9757   -0.9188 H   0  0  0  0  0  0  0  0  0  0  0  0
   -2.7496    5.3676   -2.1472 H   0  0  0  0  0  0  0  0  0  0  0  0
   -3.3697    5.9928   -0.6020 H   0  0  0  0  0  0  0  0  0  0  0  0
    7.6346    1.7553   -1.6172 H   0  0  0  0  0  0  0  0  0  0  0  0
    7.8622    3.2454   -2.5471 H   0  0  0  0  0  0  0  0  0  0  0  0
    7.6305    3.3299   -0.7922 H   0  0  0  0  0  0  0  0  0  0  0  0
   -3.4022   -2.0568   -1.2422 H   0  0  0  0  0  0  0  0  0  0  0  0
   -2.8876   -0.4112   -1.6436 H   0  0  0  0  0  0  0  0  0  0  0  0
   -1.6809   -1.6415   -1.3084 H   0  0  0  0  0  0  0  0  0  0  0  0
   -1.8232    1.7461    0.6584 C   0  0  0  0  0  0  0  0  0  0  0  0
  1  2  1  0
  1  3  2  0
  1 32  1  0
  2  4  2  0
  2 34  1  0
  3 11  1  0
  4 14  1  0
  5  8  2  0
  5 15  1  0
  6  9  2  0
  6 13  1  0
  7 10  1  0
  7 13  2  0
  8 16  1  0
  9 18  1  0
 10 18  2  0
 11 14  2  0
 11 19  1  0
 12 15  2  0
 12 17  1  0
 12 67  1  0
 13 23  1  0
 14 24  1  0
 15 25  1  0
 16 17  2  0
 17 35  1  0
 18 36  1  0
 19 28  1  0
 19 31  2  0
 67 30  1  0
 67 33  2  0
 20 27  1  0
 20 32  2  0
 21 35  1  0
 22 36  1  0
 23 28  1  0
 24 29  1  0
 25 29  1  0
 26 29  1  0
 27 34  2  0
  3 37  1  0
 32 38  1  0
  4 39  1  0
 34 40  1  0
  5 41  1  0
  8 42  1  0
  6 43  1  0
  9 44  1  0
  7 45  1  0
 10 46  1  0
 16 47  1  0
 23 48  1  0
 23 49  1  0
 24 50  1  0
 24 51  1  0
 25 52  1  0
 25 53  1  0
 28 54  1  0
 30 55  1  0
 20 56  1  0
 27 57  1  0
 21 58  1  0
 21 59  1  0
 21 60  1  0
 22 61  1  0
 22 62  1  0
 22 63  1  0
 26 64  1  0
 26 65  1  0
 26 66  1  0
M  END
