
     RDKit          3D

 46 48  0  0  0  0  0  0  0  0999 V2000
    6.9744   -2.2957   -0.5683 C   0  0  0  0  0  0  0  0  0  0  0  0
    6.9593   -1.2511    0.4334 N   0  0  0  0  0  0  0  0  0  0  0  0
    8.3043   -0.7921    0.7069 C   0  0  0  0  0  0  0  0  0  0  0  0
    6.0939   -0.1440    0.0704 C   0  0  0  0  0  0  0  0  0  0  0  0
    4.6137   -0.5008    0.0902 C   0  0  0  0  0  0  0  0  0  0  0  0
    3.7614    0.7245   -0.2046 C   0  0  0  0  0  0  0  0  0  0  0  0
    2.2796    0.4249   -0.2494 C   0  0  0  0  0  0  0  0  0  0  0  0
    1.8344   -0.6771   -0.5097 O   0  0  0  0  0  0  0  0  0  0  0  0
    1.4963    1.5102    0.0003 N   0  0  0  0  0  0  0  0  0  0  0  0
    0.1104    1.6220   -0.0602 C   0  0  0  0  0  0  0  0  0  0  0  0
   -0.7770    0.5623   -0.2201 C   0  0  0  0  0  0  0  0  0  0  0  0
   -2.1457    0.8214   -0.2566 C   0  0  0  0  0  0  0  0  0  0  0  0
   -2.5668    2.1427   -0.1285 C   0  0  0  0  0  0  0  0  0  0  0  0
   -1.7263    3.1552    0.0338 N   0  0  0  0  0  0  0  0  0  0  0  0
   -0.4311    2.9050    0.0694 C   0  0  0  0  0  0  0  0  0  0  0  0
   -3.1101   -0.2755   -0.4526 C   0  0  0  0  0  0  0  0  0  0  0  0
   -2.8678   -1.2626   -1.3968 C   0  0  0  0  0  0  0  0  0  0  0  0
   -3.7695   -2.3122   -1.6201 C   0  0  0  0  0  0  0  0  0  0  0  0
   -4.9442   -2.4118   -0.9019 C   0  0  0  0  0  0  0  0  0  0  0  0
   -5.1903   -1.4310    0.0561 C   0  0  0  0  0  0  0  0  0  0  0  0
   -4.2972   -0.3615    0.3007 C   0  0  0  0  0  0  0  0  0  0  0  0
   -4.8663    0.4083    1.3636 C   0  0  0  0  0  0  0  0  0  0  0  0
   -6.0427   -0.1970    1.7016 C   0  0  0  0  0  0  0  0  0  0  0  0
   -6.2380   -1.2952    0.9178 N   0  0  0  0  0  0  0  0  0  0  0  0
    7.6223   -3.1108   -0.2426 H   0  0  0  0  0  0  0  0  0  0  0  0
    5.9795   -2.7147   -0.7158 H   0  0  0  0  0  0  0  0  0  0  0  0
    7.3408   -1.9481   -1.5477 H   0  0  0  0  0  0  0  0  0  0  0  0
    8.7998   -0.3412   -0.1676 H   0  0  0  0  0  0  0  0  0  0  0  0
    8.2950   -0.0477    1.5044 H   0  0  0  0  0  0  0  0  0  0  0  0
    8.9226   -1.6272    1.0401 H   0  0  0  0  0  0  0  0  0  0  0  0
    6.2647    0.6601    0.7921 H   0  0  0  0  0  0  0  0  0  0  0  0
    6.3575    0.2691   -0.9206 H   0  0  0  0  0  0  0  0  0  0  0  0
    4.3927   -1.2768   -0.6436 H   0  0  0  0  0  0  0  0  0  0  0  0
    4.3584   -0.9066    1.0723 H   0  0  0  0  0  0  0  0  0  0  0  0
    3.9635    1.5130    0.5253 H   0  0  0  0  0  0  0  0  0  0  0  0
    4.0341    1.1424   -1.1807 H   0  0  0  0  0  0  0  0  0  0  0  0
    1.9834    2.3715    0.1987 H   0  0  0  0  0  0  0  0  0  0  0  0
   -0.4237   -0.4533   -0.2991 H   0  0  0  0  0  0  0  0  0  0  0  0
    0.2291    3.7571    0.2066 H   0  0  0  0  0  0  0  0  0  0  0  0
   -3.6210    2.3911   -0.1783 H   0  0  0  0  0  0  0  0  0  0  0  0
   -1.9689   -1.2116   -1.9991 H   0  0  0  0  0  0  0  0  0  0  0  0
   -3.5411   -3.0528   -2.3753 H   0  0  0  0  0  0  0  0  0  0  0  0
   -5.6448   -3.2191   -1.0733 H   0  0  0  0  0  0  0  0  0  0  0  0
   -7.0307   -1.9124    0.9752 H   0  0  0  0  0  0  0  0  0  0  0  0
   -4.4617    1.2921    1.8289 H   0  0  0  0  0  0  0  0  0  0  0  0
   -6.7665    0.0762    2.4524 H   0  0  0  0  0  0  0  0  0  0  0  0
  1  2  1  0
  2  3  1  0
  2  4  1  0
  4  5  1  0
  5  6  1  0
  6  7  1  0
  7  8  2  0
  7  9  1  0
  9 10  1  0
 10 11  2  0
 10 15  1  0
 11 12  1  0
 12 13  2  0
 12 16  1  0
 13 14  1  0
 14 15  2  0
 16 17  2  0
 16 21  1  0
 17 18  1  0
 18 19  2  0
 19 20  1  0
 20 21  2  0
 20 24  1  0
 21 22  1  0
 22 23  2  0
 23 24  1  0
  1 25  1  0
  1 26  1  0
  1 27  1  0
  3 28  1  0
  3 29  1  0
  3 30  1  0
  4 31  1  0
  4 32  1  0
  5 33  1  0
  5 34  1  0
  6 35  1  0
  6 36  1  0
  9 37  1  0
 11 38  1  0
 15 39  1  0
 13 40  1  0
 17 41  1  0
 18 42  1  0
 19 43  1  0
 24 44  1  0
 22 45  1  0
 23 46  1  0
M  END
