
     RDKit          3D

 56 59  0  0  0  0  0  0  0  0999 V2000
    2.1201    0.3313   -0.4739 C   0  0  1  0  0  0  0  0  0  0  0  0
   -0.2190    1.4745   -0.2359 C   0  0  0  0  0  0  0  0  0  0  0  0
   -1.5922    1.4401    0.4094 C   0  0  0  0  0  0  0  0  0  0  0  0
   -2.3295    0.1775   -0.0392 C   0  0  1  0  0  0  0  0  0  0  0  0
   -1.4558   -1.0354    0.3117 C   0  0  1  0  0  0  0  0  0  0  0  0
   -2.3812   -2.2267    0.0856 C   0  0  0  0  0  0  0  0  0  0  0  0
    2.8573    1.5387    0.1350 C   0  0  0  0  0  0  0  0  0  0  0  0
   -3.7728   -1.7019    0.5037 C   0  0  0  0  0  0  0  0  0  0  0  0
   -3.6062   -0.1907    0.7644 C   0  0  2  0  0  0  0  0  0  0  0  0
   -2.6351    0.2648   -1.5367 C   0  0  0  0  0  0  0  0  0  0  0  0
    2.1585    0.4083   -2.0063 C   0  0  0  0  0  0  0  0  0  0  0  0
    4.3549    1.5324   -0.1594 C   0  0  0  0  0  0  0  0  0  0  0  0
   -4.8210    0.6481    0.4376 C   0  0  0  0  0  0  0  0  0  0  0  0
   -4.9751    1.9195    1.2244 C   0  0  0  0  0  0  0  0  0  0  0  0
    5.0461    0.2610    0.3147 C   0  0  2  0  0  0  0  0  0  0  0  0
    4.3285   -0.9577   -0.2420 C   0  0  0  0  0  0  0  0  0  0  0  0
    2.8285   -0.9454    0.0486 C   0  0  2  0  0  0  0  0  0  0  0  0
    2.1517   -2.2172   -0.4417 C   0  0  0  0  0  0  0  0  0  0  0  0
    0.7068   -2.2707    0.0275 C   0  0  0  0  0  0  0  0  0  0  0  0
   -0.0898   -1.0273   -0.3568 C   0  0  2  0  0  0  0  0  0  0  0  0
    0.6649    0.2703    0.0495 C   0  0  1  0  0  0  0  0  0  0  0  0
    0.1063    2.4113   -0.9307 O   0  0  0  0  0  0  0  0  0  0  0  0
   -5.6329    0.3145   -0.3978 O   0  0  0  0  0  0  0  0  0  0  0  0
    5.0404    0.1534    1.7290 O   0  0  0  0  0  0  0  0  0  0  0  0
   -1.4733    1.4261    1.4986 H   0  0  0  0  0  0  0  0  0  0  0  0
   -2.1252    2.3531    0.1381 H   0  0  0  0  0  0  0  0  0  0  0  0
   -1.2678   -0.9729    1.3942 H   0  0  0  0  0  0  0  0  0  0  0  0
   -2.3740   -2.5298   -0.9648 H   0  0  0  0  0  0  0  0  0  0  0  0
   -2.0768   -3.0990    0.6643 H   0  0  0  0  0  0  0  0  0  0  0  0
    2.4350    2.4706   -0.2395 H   0  0  0  0  0  0  0  0  0  0  0  0
    2.7015    1.5439    1.2195 H   0  0  0  0  0  0  0  0  0  0  0  0
   -4.5114   -1.8807   -0.2769 H   0  0  0  0  0  0  0  0  0  0  0  0
   -4.1378   -2.1992    1.4025 H   0  0  0  0  0  0  0  0  0  0  0  0
   -3.3673   -0.0242    1.8208 H   0  0  0  0  0  0  0  0  0  0  0  0
   -1.7247    0.2899   -2.1370 H   0  0  0  0  0  0  0  0  0  0  0  0
   -3.2260   -0.5799   -1.8904 H   0  0  0  0  0  0  0  0  0  0  0  0
   -3.1889    1.1757   -1.7707 H   0  0  0  0  0  0  0  0  0  0  0  0
    1.8911    1.4044   -2.3543 H   0  0  0  0  0  0  0  0  0  0  0  0
    3.1481    0.1844   -2.4046 H   0  0  0  0  0  0  0  0  0  0  0  0
    1.4696   -0.2937   -2.4759 H   0  0  0  0  0  0  0  0  0  0  0  0
    4.5267    1.6387   -1.2343 H   0  0  0  0  0  0  0  0  0  0  0  0
    4.8253    2.4079    0.3009 H   0  0  0  0  0  0  0  0  0  0  0  0
   -4.0492    2.4955    1.2311 H   0  0  0  0  0  0  0  0  0  0  0  0
   -5.7833    2.5381    0.8400 H   0  0  0  0  0  0  0  0  0  0  0  0
   -5.1848    1.6671    2.2669 H   0  0  0  0  0  0  0  0  0  0  0  0
    6.0823    0.2637   -0.0534 H   0  0  0  0  0  0  0  0  0  0  0  0
    4.5127   -1.0098   -1.3187 H   0  0  0  0  0  0  0  0  0  0  0  0
    4.7677   -1.8677    0.1797 H   0  0  0  0  0  0  0  0  0  0  0  0
    2.7144   -0.9335    1.1410 H   0  0  0  0  0  0  0  0  0  0  0  0
    2.2042   -2.2816   -1.5341 H   0  0  0  0  0  0  0  0  0  0  0  0
    2.6916   -3.0884   -0.0594 H   0  0  0  0  0  0  0  0  0  0  0  0
    0.2093   -3.1544   -0.3804 H   0  0  0  0  0  0  0  0  0  0  0  0
    0.6880   -2.3829    1.1183 H   0  0  0  0  0  0  0  0  0  0  0  0
   -0.2179   -1.0401   -1.4449 H   0  0  0  0  0  0  0  0  0  0  0  0
    0.7310    0.2353    1.1496 H   0  0  0  0  0  0  0  0  0  0  0  0
    5.3704    0.9805    2.0937 H   0  0  0  0  0  0  0  0  0  0  0  0
 12 15  1  0
 12  7  1  0
 15 16  1  0
 15 24  1  0
 16 17  1  0
  7  1  1  0
  1 11  1  6
 17  1  1  0
 17 18  1  0
  1 21  1  0
 18 19  1  0
 22  2  2  0
 21  2  1  0
 21 20  1  0
  2  3  1  0
 19 20  1  0
 20  5  1  0
  4 10  1  6
  3  4  1  0
  5  4  1  0
  5  6  1  0
  4  9  1  0
  6  8  1  0
  9  8  1  0
  9 13  1  0
 13 23  2  0
 13 14  1  0
  3 25  1  0
  3 26  1  0
  5 27  1  1
  6 28  1  0
  6 29  1  0
  7 30  1  0
  7 31  1  0
  8 32  1  0
  8 33  1  0
  9 34  1  1
 10 35  1  0
 10 36  1  0
 10 37  1  0
 11 38  1  0
 11 39  1  0
 11 40  1  0
 12 41  1  0
 12 42  1  0
 14 43  1  0
 14 44  1  0
 14 45  1  0
 15 46  1  6
 16 47  1  0
 16 48  1  0
 17 49  1  1
 18 50  1  0
 18 51  1  0
 19 52  1  0
 19 53  1  0
 20 54  1  6
 21 55  1  1
 24 56  1  0
M  END
