
     RDKit          3D

 42 44  0  0  0  0  0  0  0  0999 V2000
   -5.6502    3.2534    0.0775 C   0  0  0  0  0  0  0  0  0  0  0  0
   -5.7757    1.7502    0.0549 C   0  0  0  0  0  0  0  0  0  0  0  0
   -4.3116   -0.1115    0.0603 C   0  0  0  0  0  0  0  0  0  0  0  0
   -2.9018   -0.5394    0.0763 C   0  0  0  0  0  0  0  0  0  0  0  0
   -1.8744    0.3777    0.0950 C   0  0  0  0  0  0  0  0  0  0  0  0
   -0.5401   -0.0242    0.1092 C   0  0  0  0  0  0  0  0  0  0  0  0
    0.5646    0.9210    0.1284 C   0  0  0  0  0  0  0  0  0  0  0  0
    1.8907    0.2890    0.1386 C   0  0  0  0  0  0  0  0  0  0  0  0
    3.0631    1.0522    0.1550 C   0  0  0  0  0  0  0  0  0  0  0  0
    4.3131    0.4648    0.1645 C   0  0  0  0  0  0  0  0  0  0  0  0
    5.5695    1.3017    0.1818 C   0  0  1  0  0  0  0  0  0  0  0  0
    6.3899    1.0489    1.4460 C   0  0  0  0  0  0  0  0  0  0  0  0
    6.4094    1.0691   -1.0737 C   0  0  0  0  0  0  0  0  0  0  0  0
    4.3794   -0.9358    0.1574 C   0  0  0  0  0  0  0  0  0  0  0  0
    3.2426   -1.7164    0.1412 C   0  0  0  0  0  0  0  0  0  0  0  0
    1.9983   -1.0972    0.1315 C   0  0  0  0  0  0  0  0  0  0  0  0
   -0.3208   -1.4066    0.1033 C   0  0  0  0  0  0  0  0  0  0  0  0
   -2.5411   -1.9297    0.0728 C   0  0  0  0  0  0  0  0  0  0  0  0
   -1.2601   -2.3137    0.0863 N   0  0  0  0  0  0  0  0  0  0  0  0
   -3.4406   -2.9053    0.0554 N   0  0  0  0  0  0  0  0  0  0  0  0
   -4.4467    1.2013    0.0693 O   0  0  0  0  0  0  0  0  0  0  0  0
   -5.2556   -0.8744    0.0412 O   0  0  0  0  0  0  0  0  0  0  0  0
    0.4080    2.1321    0.1349 O   0  0  0  0  0  0  0  0  0  0  0  0
    0.9151   -1.9164    0.1153 O   0  0  0  0  0  0  0  0  0  0  0  0
   -5.1110    3.6246   -0.7939 H   0  0  0  0  0  0  0  0  0  0  0  0
   -6.6476    3.6914    0.0649 H   0  0  0  0  0  0  0  0  0  0  0  0
   -5.1434    3.6007    0.9776 H   0  0  0  0  0  0  0  0  0  0  0  0
   -6.3281    1.3895    0.9244 H   0  0  0  0  0  0  0  0  0  0  0  0
   -6.2984    1.4136   -0.8423 H   0  0  0  0  0  0  0  0  0  0  0  0
   -2.0868    1.4383    0.0986 H   0  0  0  0  0  0  0  0  0  0  0  0
    2.9753    2.1321    0.1604 H   0  0  0  0  0  0  0  0  0  0  0  0
    5.2591    2.3506    0.1879 H   0  0  0  0  0  0  0  0  0  0  0  0
    7.2513    1.7175    1.4825 H   0  0  0  0  0  0  0  0  0  0  0  0
    5.7977    1.2154    2.3465 H   0  0  0  0  0  0  0  0  0  0  0  0
    6.7680    0.0251    1.4784 H   0  0  0  0  0  0  0  0  0  0  0  0
    5.8333    1.2598   -1.9798 H   0  0  0  0  0  0  0  0  0  0  0  0
    7.2762    1.7316   -1.0820 H   0  0  0  0  0  0  0  0  0  0  0  0
    6.7795    0.0430   -1.1214 H   0  0  0  0  0  0  0  0  0  0  0  0
    5.3428   -1.4313    0.1648 H   0  0  0  0  0  0  0  0  0  0  0  0
    3.3110   -2.7964    0.1361 H   0  0  0  0  0  0  0  0  0  0  0  0
   -4.4257   -2.7004    0.0464 H   0  0  0  0  0  0  0  0  0  0  0  0
   -3.1280   -3.8615    0.0550 H   0  0  0  0  0  0  0  0  0  0  0  0
 22  3  2  0
  1  2  1  0
  2 21  1  0
 20 18  1  0
  3 21  1  0
  3  4  1  0
 18  4  2  0
 18 19  1  0
  4  5  1  0
 19 17  2  0
  5  6  2  0
 17  6  1  0
 17 24  1  0
  6  7  1  0
 24 16  1  0
  7 23  2  0
  7  8  1  0
 16  8  2  0
 16 15  1  0
  8  9  1  0
 15 14  2  0
  9 10  2  0
 14 10  1  0
 10 11  1  0
 11 13  1  0
 11 12  1  0
  1 25  1  0
  1 26  1  0
  1 27  1  0
  2 28  1  0
  2 29  1  0
  5 30  1  0
  9 31  1  0
 11 32  1  1
 12 33  1  0
 12 34  1  0
 12 35  1  0
 13 36  1  0
 13 37  1  0
 13 38  1  0
 14 39  1  0
 15 40  1  0
 20 41  1  0
 20 42  1  0
M  END
