
     RDKit          3D

 62 64  0  0  0  0  0  0  0  0999 V2000
   -2.3603    2.4667   -2.4619 C   0  0  0  0  0  0  0  0  0  0  0  0
   -2.1604    1.3181   -1.4826 C   0  0  0  0  0  0  0  0  0  0  0  0
   -0.7515    0.7696   -1.5667 C   0  0  0  0  0  0  0  0  0  0  0  0
   -0.6252   -0.2804   -0.6249 O   0  0  0  0  0  0  0  0  0  0  0  0
    0.5300   -0.9646   -0.5503 C   0  0  0  0  0  0  0  0  0  0  0  0
    1.6717   -0.6581   -1.2727 C   0  0  0  0  0  0  0  0  0  0  0  0
    2.8632   -1.3790   -1.1261 C   0  0  0  0  0  0  0  0  0  0  0  0
    4.0626   -0.9590   -1.9679 C   0  0  2  0  0  0  0  0  0  0  0  0
    4.2645    0.5606   -1.9351 C   0  0  0  0  0  0  0  0  0  0  0  0
    3.8234   -1.3961   -3.4206 C   0  0  0  0  0  0  0  0  0  0  0  0
    5.3427   -1.6047   -1.4263 C   0  0  0  0  0  0  0  0  0  0  0  0
    5.1647   -3.0768   -1.1177 C   0  0  0  0  0  0  0  0  0  0  0  0
    4.1327   -3.3231   -0.0125 C   0  0  2  0  0  0  0  0  0  0  0  0
    4.7263   -2.9749    1.3597 C   0  0  0  0  0  0  0  0  0  0  0  0
    3.7816   -4.8158   -0.0332 C   0  0  0  0  0  0  0  0  0  0  0  0
    2.8969   -2.4619   -0.2450 C   0  0  0  0  0  0  0  0  0  0  0  0
    1.7376   -2.7468    0.4824 C   0  0  0  0  0  0  0  0  0  0  0  0
    0.5586   -2.0369    0.3511 C   0  0  0  0  0  0  0  0  0  0  0  0
   -0.6221   -2.3880    1.1685 C   0  0  0  0  0  0  0  0  0  0  0  0
   -0.5664   -2.3003    2.5476 C   0  0  0  0  0  0  0  0  0  0  0  0
   -1.8020   -2.8635    0.5706 C   0  0  0  0  0  0  0  0  0  0  0  0
   -1.8176   -2.9854   -0.7610 O   0  0  0  0  0  0  0  0  0  0  0  0
   -2.8884   -3.2203    1.3648 C   0  0  0  0  0  0  0  0  0  0  0  0
   -2.8062   -3.1203    2.7413 C   0  0  0  0  0  0  0  0  0  0  0  0
   -1.6449   -2.6615    3.3642 C   0  0  0  0  0  0  0  0  0  0  0  0
   -1.6102   -2.5783    4.8131 C   0  0  0  0  0  0  0  0  0  0  0  0
   -0.6062   -2.1202    5.5743 C   0  0  0  0  0  0  0  0  0  0  0  0
   -0.7257   -2.1049    7.0359 C   0  0  0  0  0  0  0  0  0  0  0  0
    0.3693   -1.6110    7.6115 O   0  0  0  0  0  0  0  0  0  0  0  0
   -1.6847   -2.4856    7.6705 O   0  0  0  0  0  0  0  0  0  0  0  0
    0.2641   -1.6157    8.5742 H   0  0  0  0  0  0  0  0  0  0  0  0
    0.3158   -1.7465    5.1470 H   0  0  0  0  0  0  0  0  0  0  0  0
   -2.5062   -2.9316    5.3153 H   0  0  0  0  0  0  0  0  0  0  0  0
    0.3509   -1.9325    2.9914 H   0  0  0  0  0  0  0  0  0  0  0  0
   -2.6790   -3.2973   -1.0622 H   0  0  0  0  0  0  0  0  0  0  0  0
   -3.7967   -3.5917    0.9049 H   0  0  0  0  0  0  0  0  0  0  0  0
   -3.6596   -3.4098    3.3426 H   0  0  0  0  0  0  0  0  0  0  0  0
    1.7457   -3.5731    1.1830 H   0  0  0  0  0  0  0  0  0  0  0  0
    1.6528    0.1678   -1.9702 H   0  0  0  0  0  0  0  0  0  0  0  0
   -0.5502    0.4023   -2.5806 H   0  0  0  0  0  0  0  0  0  0  0  0
   -0.0243    1.5639   -1.3565 H   0  0  0  0  0  0  0  0  0  0  0  0
   -2.8734    0.5175   -1.6946 H   0  0  0  0  0  0  0  0  0  0  0  0
   -2.3581    1.6591   -0.4633 H   0  0  0  0  0  0  0  0  0  0  0  0
   -2.1901    2.1458   -3.4910 H   0  0  0  0  0  0  0  0  0  0  0  0
   -3.3751    2.8589   -2.4024 H   0  0  0  0  0  0  0  0  0  0  0  0
   -1.6758    3.2904   -2.2529 H   0  0  0  0  0  0  0  0  0  0  0  0
    3.4487    1.1125   -2.4032 H   0  0  0  0  0  0  0  0  0  0  0  0
    4.3685    0.9218   -0.9104 H   0  0  0  0  0  0  0  0  0  0  0  0
    5.1777    0.8220   -2.4742 H   0  0  0  0  0  0  0  0  0  0  0  0
    4.6747   -1.1195   -4.0467 H   0  0  0  0  0  0  0  0  0  0  0  0
    3.6806   -2.4743   -3.5055 H   0  0  0  0  0  0  0  0  0  0  0  0
    2.9354   -0.9155   -3.8353 H   0  0  0  0  0  0  0  0  0  0  0  0
    5.6608   -1.0715   -0.5249 H   0  0  0  0  0  0  0  0  0  0  0  0
    6.1438   -1.4635   -2.1578 H   0  0  0  0  0  0  0  0  0  0  0  0
    4.8542   -3.6052   -2.0246 H   0  0  0  0  0  0  0  0  0  0  0  0
    6.1183   -3.5226   -0.8206 H   0  0  0  0  0  0  0  0  0  0  0  0
    5.0243   -1.9275    1.4222 H   0  0  0  0  0  0  0  0  0  0  0  0
    4.0002   -3.1510    2.1559 H   0  0  0  0  0  0  0  0  0  0  0  0
    5.6049   -3.5886    1.5715 H   0  0  0  0  0  0  0  0  0  0  0  0
    4.6934   -5.4103    0.0571 H   0  0  0  0  0  0  0  0  0  0  0  0
    3.1241   -5.1112    0.7854 H   0  0  0  0  0  0  0  0  0  0  0  0
    3.2961   -5.0936   -0.9706 H   0  0  0  0  0  0  0  0  0  0  0  0
  1  2  1  0
  1 44  1  0
  1 45  1  0
  1 46  1  0
  2  3  1  0
  2 42  1  0
  2 43  1  0
  3  4  1  0
  3 40  1  0
  3 41  1  0
  4  5  1  0
  5  6  2  0
  5 18  1  0
  6  7  1  0
  6 39  1  0
  7 16  2  0
  7  8  1  0
  8  9  1  6
  8 10  1  0
  8 11  1  0
  9 47  1  0
  9 48  1  0
  9 49  1  0
 10 50  1  0
 10 51  1  0
 10 52  1  0
 11 53  1  0
 11 54  1  0
 11 12  1  0
 12 55  1  0
 12 56  1  0
 12 13  1  0
 13 16  1  0
 13 14  1  1
 13 15  1  0
 14 57  1  0
 14 58  1  0
 14 59  1  0
 15 60  1  0
 15 61  1  0
 15 62  1  0
 16 17  1  0
 17 18  2  0
 17 38  1  0
 18 19  1  0
 19 20  2  0
 19 21  1  0
 20 25  1  0
 20 34  1  0
 21 22  1  0
 21 23  2  0
 22 35  1  0
 23 36  1  0
 23 24  1  0
 24 25  2  0
 24 37  1  0
 25 26  1  0
 26 27  2  0
 26 33  1  0
 27 28  1  0
 27 32  1  0
 28 29  1  0
 28 30  2  0
 29 31  1  0
M  END
