
     RDKit          3D

 68 72  0  0  0  0  0  0  0  0999 V2000
   11.3358    0.2775    2.0592 C   0  0  0  0  0  0  0  0  0  0  0  0
    9.3377    0.7465    0.8698 C   0  0  0  0  0  0  0  0  0  0  0  0
    9.2530    0.9864   -1.5167 C   0  0  0  0  0  0  0  0  0  0  0  0
    7.8968    1.2539   -1.4632 C   0  0  0  0  0  0  0  0  0  0  0  0
    7.2427    1.2587   -0.2294 C   0  0  0  0  0  0  0  0  0  0  0  0
    7.9649    1.0036    0.9239 C   0  0  0  0  0  0  0  0  0  0  0  0
    5.4157    2.9502   -0.6291 C   0  0  0  0  0  0  0  0  0  0  0  0
    3.7691    0.1657   -0.5561 C   0  0  0  0  0  0  0  0  0  0  0  0
    3.1691   -0.8745   -1.5021 C   0  0  0  0  0  0  0  0  0  0  0  0
    1.7149   -2.3350   -0.0602 C   0  0  0  0  0  0  0  0  0  0  0  0
   -1.9120   -2.8288    1.0486 C   0  0  0  0  0  0  0  0  0  0  0  0
   -1.6792   -1.0229   -0.5384 C   0  0  0  0  0  0  0  0  0  0  0  0
   -0.3251   -1.2952   -0.5734 C   0  0  0  0  0  0  0  0  0  0  0  0
    0.7414   -0.6286   -1.3488 C   0  0  0  0  0  0  0  0  0  0  0  0
   -3.9370   -1.5337    0.3225 C   0  0  0  0  0  0  0  0  0  0  0  0
   -5.5795    0.0521    0.4831 C   0  0  0  0  0  0  0  0  0  0  0  0
   -8.6621    3.8664    1.0537 C   0  0  0  0  0  0  0  0  0  0  0  0
   -6.2423   -2.0930    0.2517 C   0  0  0  0  0  0  0  0  0  0  0  0
   -4.9235   -2.5151    0.2026 C   0  0  0  0  0  0  0  0  0  0  0  0
    9.9437    0.5227    2.0507 O   0  0  0  0  0  0  0  0  0  0  0  0
    9.9857    0.7336   -0.3614 C   0  0  0  0  0  0  0  0  0  0  0  0
    5.7624    1.5470   -0.1364 C   0  0  1  0  0  0  0  0  0  0  0  0
    5.0228    0.5250   -0.8637 N   0  0  0  0  0  0  0  0  0  0  0  0
    3.1408    0.6127    0.3888 O   0  0  0  0  0  0  0  0  0  0  0  0
    1.8815   -1.3061   -1.0654 N   0  0  0  0  0  0  0  0  0  0  0  0
    0.2418   -2.3017    0.1903 C   0  0  0  0  0  0  0  0  0  0  0  0
   -0.5467   -3.0776    1.0207 C   0  0  0  0  0  0  0  0  0  0  0  0
   -2.4864   -1.8155    0.2728 C   0  0  0  0  0  0  0  0  0  0  0  0
   -4.2793   -0.2626    0.4528 N   0  0  0  0  0  0  0  0  0  0  0  0
   -5.8827    1.3520    0.6346 N   0  0  0  0  0  0  0  0  0  0  0  0
   -7.2193    1.8970    0.5356 C   0  0  1  0  0  0  0  0  0  0  0  0
   -7.2790    3.2552    1.2245 C   0  0  0  0  0  0  0  0  0  0  0  0
   -9.0327    3.9757   -0.3030 O   0  0  0  0  0  0  0  0  0  0  0  0
   -9.0536    2.7204   -0.9480 C   0  0  0  0  0  0  0  0  0  0  0  0
   -7.6928    2.0425   -0.9106 C   0  0  0  0  0  0  0  0  0  0  0  0
   -6.5832   -0.8290    0.3960 N   0  0  0  0  0  0  0  0  0  0  0  0
   -4.5812   -4.1830   -0.0807 Cl  0  0  0  0  0  0  0  0  0  0  0  0
   11.6180    0.1365    3.0996 H   0  0  0  0  0  0  0  0  0  0  0  0
   11.5975   -0.6243    1.4995 H   0  0  0  0  0  0  0  0  0  0  0  0
   11.9014    1.1202    1.6529 H   0  0  0  0  0  0  0  0  0  0  0  0
    9.7623    0.9760   -2.4719 H   0  0  0  0  0  0  0  0  0  0  0  0
    7.3558    1.4604   -2.3791 H   0  0  0  0  0  0  0  0  0  0  0  0
    7.4677    1.0069    1.8875 H   0  0  0  0  0  0  0  0  0  0  0  0
    5.9700    3.7002   -0.0649 H   0  0  0  0  0  0  0  0  0  0  0  0
    5.6548    3.0732   -1.6857 H   0  0  0  0  0  0  0  0  0  0  0  0
    4.3517    3.1457   -0.4965 H   0  0  0  0  0  0  0  0  0  0  0  0
    3.0923   -0.4442   -2.5031 H   0  0  0  0  0  0  0  0  0  0  0  0
    3.8356   -1.7359   -1.5817 H   0  0  0  0  0  0  0  0  0  0  0  0
    2.0519   -3.3080   -0.4276 H   0  0  0  0  0  0  0  0  0  0  0  0
    2.2840   -2.1059    0.8452 H   0  0  0  0  0  0  0  0  0  0  0  0
   -2.5355   -3.4191    1.7059 H   0  0  0  0  0  0  0  0  0  0  0  0
   -2.1058   -0.2253   -1.1332 H   0  0  0  0  0  0  0  0  0  0  0  0
   -8.6882    4.8723    1.4751 H   0  0  0  0  0  0  0  0  0  0  0  0
   -7.0471   -2.8146    0.1594 H   0  0  0  0  0  0  0  0  0  0  0  0
   11.0457    0.5355   -0.4426 H   0  0  0  0  0  0  0  0  0  0  0  0
    5.4667    1.4705    0.9114 H   0  0  0  0  0  0  0  0  0  0  0  0
    5.4474    0.1344   -1.6912 H   0  0  0  0  0  0  0  0  0  0  0  0
   -0.1220   -3.8587    1.6378 H   0  0  0  0  0  0  0  0  0  0  0  0
   -5.1063    1.9941    0.5946 H   0  0  0  0  0  0  0  0  0  0  0  0
   -7.8967    1.2144    1.0560 H   0  0  0  0  0  0  0  0  0  0  0  0
   -6.5258    3.9232    0.7933 H   0  0  0  0  0  0  0  0  0  0  0  0
   -7.0572    3.1558    2.2895 H   0  0  0  0  0  0  0  0  0  0  0  0
   -9.8049    2.0643   -0.4831 H   0  0  0  0  0  0  0  0  0  0  0  0
   -9.3679    2.8956   -1.9779 H   0  0  0  0  0  0  0  0  0  0  0  0
   -6.9660    2.6370   -1.4727 H   0  0  0  0  0  0  0  0  0  0  0  0
   -7.7632    1.0645   -1.3919 H   0  0  0  0  0  0  0  0  0  0  0  0
    0.6366    0.3220   -2.1037 O   0  0  0  0  0  0  0  0  0  0  0  0
   -9.3981    3.2602    1.6022 H   0  0  0  0  0  0  0  0  0  0  0  0
 33 34  1  0
 33 17  1  0
 34 35  1  0
 35 31  1  0
 17 32  1  0
 32 31  1  0
 31 30  1  0
 30 16  1  0
 16 29  2  0
 16 36  1  0
 29 15  1  0
 36 18  2  0
 15 28  1  0
 15 19  2  0
 18 19  1  0
 28 12  2  0
 28 11  1  0
 12 13  1  0
 19 37  1  0
 67 14  2  0
 11 27  2  0
 13 14  1  0
 13 26  2  0
 14 25  1  0
 27 26  1  0
 26 10  1  0
 25 10  1  0
 25  9  1  0
  9  8  1  0
  1 20  1  0
  8 23  1  0
  8 24  2  0
 23 22  1  0
 20  2  1  0
  6  2  2  0
  6  5  1  0
  7 22  1  0
 22  5  1  0
  2 21  1  0
  5  4  2  0
 21  3  2  0
  4  3  1  0
  1 38  1  0
  1 39  1  0
  1 40  1  0
  3 41  1  0
  4 42  1  0
  6 43  1  0
  7 44  1  0
  7 45  1  0
  7 46  1  0
  9 47  1  0
  9 48  1  0
 10 49  1  0
 10 50  1  0
 11 51  1  0
 12 52  1  0
 17 68  1  0
 17 53  1  0
 18 54  1  0
 21 55  1  0
 22 56  1  1
 23 57  1  0
 27 58  1  0
 30 59  1  0
 31 60  1  1
 32 61  1  0
 32 62  1  0
 34 63  1  0
 34 64  1  0
 35 65  1  0
 35 66  1  0
M  END
