
     RDKit          3D

 27 28  0  0  0  0  0  0  0  0999 V2000
   -2.1052    4.0535    6.0237 N   0  0  0  0  0  0  0  0  0  0  0  0
   -1.3788    2.8255    5.8080 C   0  0  1  0  0  0  0  0  0  0  0  0
   -2.3025    1.5895    5.8227 C   0  0  0  0  0  0  0  0  0  0  0  0
   -1.5422    0.3412    5.9596 C   0  0  0  0  0  0  0  0  0  0  0  0
   -0.8860   -0.1435    7.1572 C   0  0  0  0  0  0  0  0  0  0  0  0
   -0.7536    0.3409    8.4597 C   0  0  0  0  0  0  0  0  0  0  0  0
   -0.2724   -1.4055    6.8041 C   0  0  0  0  0  0  0  0  0  0  0  0
   -0.5498   -1.6609    5.4590 N   0  0  0  0  0  0  0  0  0  0  0  0
   -1.3136   -0.6061    4.9587 C   0  0  0  0  0  0  0  0  0  0  0  0
    0.4532   -2.1520    7.7448 C   0  0  0  0  0  0  0  0  0  0  0  0
    0.5554   -1.6259    9.0274 C   0  0  0  0  0  0  0  0  0  0  0  0
    1.4253   -2.4921   10.2077 Cl  0  0  0  0  0  0  0  0  0  0  0  0
   -0.0365   -0.3979    9.3876 C   0  0  0  0  0  0  0  0  0  0  0  0
   -0.6098    2.8245    4.4876 C   0  0  0  0  0  0  0  0  0  0  0  0
   -1.0486    2.7940    3.3347 O   0  0  0  0  0  0  0  0  0  0  0  0
    0.7407    2.8629    4.6340 O   0  0  0  0  0  0  0  0  0  0  0  0
   -2.8180    4.1853    5.3349 H   0  0  0  0  0  0  0  0  0  0  0  0
   -1.4875    4.8399    6.0333 H   0  0  0  0  0  0  0  0  0  0  0  0
   -0.6237    2.7210    6.6461 H   0  0  0  0  0  0  0  0  0  0  0  0
   -3.0125    1.6831    6.6903 H   0  0  0  0  0  0  0  0  0  0  0  0
   -2.9095    1.5741    4.8780 H   0  0  0  0  0  0  0  0  0  0  0  0
   -1.2157    1.2991    8.7398 H   0  0  0  0  0  0  0  0  0  0  0  0
   -0.2541   -2.4524    4.9547 H   0  0  0  0  0  0  0  0  0  0  0  0
   -1.6452   -0.6007    3.9172 H   0  0  0  0  0  0  0  0  0  0  0  0
    0.9190   -3.1096    7.4773 H   0  0  0  0  0  0  0  0  0  0  0  0
    0.0752   -0.0270   10.4172 H   0  0  0  0  0  0  0  0  0  0  0  0
    1.1693    2.8602    3.7627 H   0  0  0  0  0  0  0  0  0  0  0  0
  1  2  1  0
  1 17  1  0
  1 18  1  0
  2  3  1  0
  2 14  1  0
  2 19  1  1
  3  4  1  0
  3 20  1  0
  3 21  1  0
  4  5  1  0
  4  9  2  0
  5  6  2  0
  5  7  1  0
  6 13  1  0
  6 22  1  0
  7  8  1  0
  7 10  2  0
  8  9  1  0
  8 23  1  0
  9 24  1  0
 10 11  1  0
 10 25  1  0
 11 12  1  0
 11 13  2  0
 13 26  1  0
 14 15  2  0
 14 16  1  0
 16 27  1  0
M  END
