
     RDKit          3D

 40 41  0  0  0  0  0  0  0  0999 V2000
    3.5372    0.7183    0.6234 N   0  0  0  0  0  0  0  0  0  0  0  0
   -2.9785    0.7851   -0.3537 C   0  0  0  0  0  0  0  0  0  0  0  0
   -2.0291   -0.3590   -0.5629 C   0  0  1  0  0  0  0  0  0  0  0  0
   -0.7071   -0.1664    0.1985 C   0  0  0  0  0  0  0  0  0  0  0  0
    0.0026    1.1409   -0.1593 C   0  0  0  0  0  0  0  0  0  0  0  0
    2.3793    0.5980   -0.1142 C   0  0  0  0  0  0  0  0  0  0  0  0
    5.1591   -0.5312   -0.8738 C   0  0  0  0  0  0  0  0  0  0  0  0
   -2.7108   -1.6597   -0.1054 C   0  0  1  0  0  0  0  0  0  0  0  0
    1.3164    1.2253    0.4326 N   0  0  0  0  0  0  0  0  0  0  0  0
   -4.2529    3.0713    2.0828 C   0  0  0  0  0  0  0  0  0  0  0  0
   -3.0818    1.3183    0.8839 O   0  0  0  0  0  0  0  0  0  0  0  0
   -3.9712    2.3371    0.8286 C   0  0  0  0  0  0  0  0  0  0  0  0
    6.4714   -0.7771   -0.6462 C   0  0  0  0  0  0  0  0  0  0  0  0
    7.5008   -1.4947   -1.4312 C   0  0  0  0  0  0  0  0  0  0  0  0
   -4.4344    2.4605   -0.4395 C   0  0  0  0  0  0  0  0  0  0  0  0
   -3.7901    1.4464   -1.2115 C   0  0  0  0  0  0  0  0  0  0  0  0
    4.7575    0.1911    0.2828 C   0  0  0  0  0  0  0  0  0  0  0  0
   -3.8398   -1.8853   -0.7797 F   0  0  0  0  0  0  0  0  0  0  0  0
   -1.9269   -2.7273   -0.2857 F   0  0  0  0  0  0  0  0  0  0  0  0
   -3.0261   -1.6123    1.1926 F   0  0  0  0  0  0  0  0  0  0  0  0
    5.7534    0.3538    1.1138 N   0  0  0  0  0  0  0  0  0  0  0  0
   -1.8289   -0.5612   -1.9339 O   0  0  0  0  0  0  0  0  0  0  0  0
    2.3302   -0.0090   -1.1718 O   0  0  0  0  0  0  0  0  0  0  0  0
    6.8296   -0.2554    0.5271 O   0  0  0  0  0  0  0  0  0  0  0  0
    3.5122    1.2292    1.4936 H   0  0  0  0  0  0  0  0  0  0  0  0
   -0.8769   -0.1844    1.2766 H   0  0  0  0  0  0  0  0  0  0  0  0
   -0.0484   -1.0034   -0.0389 H   0  0  0  0  0  0  0  0  0  0  0  0
    0.1002    1.2601   -1.2387 H   0  0  0  0  0  0  0  0  0  0  0  0
   -0.5641    1.9974    0.2027 H   0  0  0  0  0  0  0  0  0  0  0  0
    4.5803   -0.8240   -1.7290 H   0  0  0  0  0  0  0  0  0  0  0  0
    1.3873    1.6432    1.3465 H   0  0  0  0  0  0  0  0  0  0  0  0
   -3.3480    3.5078    2.5088 H   0  0  0  0  0  0  0  0  0  0  0  0
   -4.9540    3.8782    1.8818 H   0  0  0  0  0  0  0  0  0  0  0  0
   -4.6949    2.4223    2.8411 H   0  0  0  0  0  0  0  0  0  0  0  0
    8.3812   -0.8726   -1.5943 H   0  0  0  0  0  0  0  0  0  0  0  0
    7.8239   -2.4008   -0.9170 H   0  0  0  0  0  0  0  0  0  0  0  0
    7.0948   -1.7782   -2.3989 H   0  0  0  0  0  0  0  0  0  0  0  0
   -5.1523    3.1871   -0.7849 H   0  0  0  0  0  0  0  0  0  0  0  0
   -3.9234    1.2454   -2.2620 H   0  0  0  0  0  0  0  0  0  0  0  0
   -1.4632    0.2376   -2.3293 H   0  0  0  0  0  0  0  0  0  0  0  0
 14 13  1  0
 24 13  1  0
 24 21  1  0
 13  7  2  0
 21 17  2  0
  7 17  1  0
 17  1  1  0
  1  6  1  0
 23  6  2  0
  6  9  1  0
  9  5  1  0
  5  4  1  0
 15 16  1  0
 15 12  2  0
 16  2  2  0
  4  3  1  0
 12 10  1  0
 12 11  1  0
  2 11  1  0
  2  3  1  0
  3 22  1  6
  3  8  1  0
  8 19  1  1
  8 18  1  0
  8 20  1  0
  1 25  1  0
  4 26  1  0
  4 27  1  0
  5 28  1  0
  5 29  1  0
  7 30  1  0
  9 31  1  0
 10 32  1  0
 10 33  1  0
 10 34  1  0
 14 35  1  0
 14 36  1  0
 14 37  1  0
 15 38  1  0
 16 39  1  0
 22 40  1  0
M  END
