
     RDKit          3D

 29 30  0  0  0  0  0  0  0  0999 V2000
    2.8284   -1.0029    0.5645 C   0  0  0  0  0  0  0  0  0  0  0  0
    1.8250   -1.9488    0.7004 C   0  0  0  0  0  0  0  0  0  0  0  0
    0.5925   -1.6899    0.1389 C   0  0  0  0  0  0  0  0  0  0  0  0
   -0.3953   -2.5755    0.2464 F   0  0  0  0  0  0  0  0  0  0  0  0
    0.3328   -0.5125   -0.5507 C   0  0  0  0  0  0  0  0  0  0  0  0
    1.3567    0.4148   -0.6524 C   0  0  0  0  0  0  0  0  0  0  0  0
    2.6146    0.1928   -0.1128 C   0  0  0  0  0  0  0  0  0  0  0  0
    3.7092    1.2032   -0.2514 C   0  0  0  0  0  0  0  0  0  0  0  0
    3.6159    2.2502    0.8053 N   0  0  0  0  0  0  0  0  0  0  0  0
   -4.3012    0.4237   -0.3057 C   0  0  0  0  0  0  0  0  0  0  0  0
   -3.1731    0.0282   -1.0066 C   0  0  0  0  0  0  0  0  0  0  0  0
   -1.9302    0.0945   -0.3900 C   0  0  0  0  0  0  0  0  0  0  0  0
   -1.8064    0.5502    0.9142 C   0  0  0  0  0  0  0  0  0  0  0  0
   -0.8592   -0.2943   -1.1561 O   0  0  0  0  0  0  0  0  0  0  0  0
   -2.9489    0.9404    1.6036 C   0  0  0  0  0  0  0  0  0  0  0  0
    1.1065    1.5569   -1.2933 F   0  0  0  0  0  0  0  0  0  0  0  0
   -4.1972    0.8799    1.0031 C   0  0  0  0  0  0  0  0  0  0  0  0
    4.6813    0.7324   -0.1333 H   0  0  0  0  0  0  0  0  0  0  0  0
    3.6970    1.7180   -1.2086 H   0  0  0  0  0  0  0  0  0  0  0  0
    3.8033   -1.2025    0.9895 H   0  0  0  0  0  0  0  0  0  0  0  0
    2.0004   -2.8772    1.2265 H   0  0  0  0  0  0  0  0  0  0  0  0
   -5.2688    0.3676   -0.7869 H   0  0  0  0  0  0  0  0  0  0  0  0
   -5.0813    1.1833    1.5473 H   0  0  0  0  0  0  0  0  0  0  0  0
   -2.8508    1.2956    2.6210 H   0  0  0  0  0  0  0  0  0  0  0  0
   -0.8432    0.6146    1.4044 H   0  0  0  0  0  0  0  0  0  0  0  0
    2.7633    2.8046    0.7331 H   0  0  0  0  0  0  0  0  0  0  0  0
    3.6367    1.8474    1.7425 H   0  0  0  0  0  0  0  0  0  0  0  0
    4.3977    2.9028    0.7431 H   0  0  0  0  0  0  0  0  0  0  0  0
   -3.2531   -0.3305   -2.0249 H   0  0  0  0  0  0  0  0  0  0  0  0
  1  2  2  0
  1  7  1  0
  2  3  1  0
  3  4  1  0
  3  5  2  0
  5  6  1  0
  5 14  1  0
  6  7  2  0
  6 16  1  0
  7  8  1  0
  8  9  1  0
 15 13  1  0
 15 17  2  0
 13 12  2  0
 12 11  1  0
 12 14  1  0
 11 10  2  0
 10 17  1  0
  8 18  1  0
  8 19  1  0
  9 26  1  0
  9 27  1  0
  9 28  1  0
  1 20  1  0
  2 21  1  0
 11 29  1  0
 10 22  1  0
 15 24  1  0
 13 25  1  0
 17 23  1  0
M  CHG  1   9   1
M  END
