
     RDKit          3D

 46 49  0  0  0  0  0  0  0  0999 V2000
   -5.7363   -1.7851   -0.3120 C   0  0  0  0  0  0  0  0  0  0  0  0
   -4.5862   -2.0294   -1.0365 C   0  0  0  0  0  0  0  0  0  0  0  0
   -3.5513   -1.1086   -0.9725 C   0  0  0  0  0  0  0  0  0  0  0  0
   -3.6508    0.0449   -0.1919 C   0  0  0  0  0  0  0  0  0  0  0  0
   -4.8314    0.2506    0.5253 C   0  0  0  0  0  0  0  0  0  0  0  0
   -5.8792   -0.6560    0.4703 C   0  0  0  0  0  0  0  0  0  0  0  0
   -1.2164    0.5962   -0.1329 C   0  0  0  0  0  0  0  0  0  0  0  0
   -0.1667    1.4980   -0.0519 C   0  0  0  0  0  0  0  0  0  0  0  0
    1.7085    0.1000    0.7102 C   0  0  0  0  0  0  0  0  0  0  0  0
    1.0570   -0.4965    1.5476 O   0  0  0  0  0  0  0  0  0  0  0  0
    3.7492   -1.2197    1.4064 C   0  0  0  0  0  0  0  0  0  0  0  0
    5.1576   -1.6192    0.9772 C   0  0  2  0  0  0  0  0  0  0  0  0
    6.1048   -0.4168    0.8461 C   0  0  0  0  0  0  0  0  0  0  0  0
    5.9221    0.0099   -0.6233 C   0  0  0  0  0  0  0  0  0  0  0  0
    4.9064   -1.0130   -1.1567 C   0  0  2  0  0  0  0  0  0  0  0  0
    3.4648   -0.5373   -1.0029 C   0  0  0  0  0  0  0  0  0  0  0  0
   -0.4188    2.8771    0.0410 C   0  0  0  0  0  0  0  0  0  0  0  0
   -1.7507    3.2995    0.0225 C   0  0  0  0  0  0  0  0  0  0  0  0
   -6.7440   -2.6722   -0.3684 F   0  0  0  0  0  0  0  0  0  0  0  0
   -2.5441    1.0184   -0.1227 C   0  0  0  0  0  0  0  0  0  0  0  0
    3.1850   -0.1578    0.4622 C   0  0  1  0  0  0  0  0  0  0  0  0
    5.1088   -2.1541   -0.3387 O   0  0  0  0  0  0  0  0  0  0  0  0
    0.6232    3.7795    0.0837 N   0  0  0  0  0  0  0  0  0  0  0  0
   -2.7890    2.3904   -0.0522 C   0  0  0  0  0  0  0  0  0  0  0  0
   -4.5006   -2.9170   -1.6496 H   0  0  0  0  0  0  0  0  0  0  0  0
   -2.6589   -1.2907   -1.5579 H   0  0  0  0  0  0  0  0  0  0  0  0
   -4.9332    1.1240    1.1567 H   0  0  0  0  0  0  0  0  0  0  0  0
   -6.7858   -0.4897    1.0374 H   0  0  0  0  0  0  0  0  0  0  0  0
   -0.9906   -0.4599   -0.1985 H   0  0  0  0  0  0  0  0  0  0  0  0
    3.7696   -0.8477    2.4330 H   0  0  0  0  0  0  0  0  0  0  0  0
    5.5479   -2.3921    1.6421 H   0  0  0  0  0  0  0  0  0  0  0  0
    5.8615    0.3766    1.5543 H   0  0  0  0  0  0  0  0  0  0  0  0
    7.1341   -0.7182    1.0417 H   0  0  0  0  0  0  0  0  0  0  0  0
    5.5655    1.0359   -0.7277 H   0  0  0  0  0  0  0  0  0  0  0  0
    6.8602   -0.0603   -1.1746 H   0  0  0  0  0  0  0  0  0  0  0  0
    5.0977   -1.2975   -2.1931 H   0  0  0  0  0  0  0  0  0  0  0  0
    3.2957    0.3091   -1.6730 H   0  0  0  0  0  0  0  0  0  0  0  0
    2.7897   -1.3367   -1.3229 H   0  0  0  0  0  0  0  0  0  0  0  0
   -1.9683    4.3595    0.0771 H   0  0  0  0  0  0  0  0  0  0  0  0
    3.6963    0.7921    0.6655 H   0  0  0  0  0  0  0  0  0  0  0  0
    0.3599    4.7144    0.3526 H   0  0  0  0  0  0  0  0  0  0  0  0
    1.4426    3.4765    0.5884 H   0  0  0  0  0  0  0  0  0  0  0  0
   -3.8065    2.7609   -0.0695 H   0  0  0  0  0  0  0  0  0  0  0  0
    1.1748    1.0674   -0.0802 N   0  0  0  0  0  0  0  0  0  0  0  0
    3.1148   -2.1092    1.4008 H   0  0  0  0  0  0  0  0  0  0  0  0
    1.7918    1.5461   -0.7201 H   0  0  0  0  0  0  0  0  0  0  0  0
 22 15  1  0
 22 12  1  0
 23 17  1  0
 15 16  1  0
 15 14  1  0
 16 21  1  0
 10  9  2  0
 12 11  1  0
 12 13  1  0
 11 21  1  0
  9 21  1  0
  9 44  1  0
 17 18  2  0
 17  8  1  0
 14 13  1  0
 18 24  1  0
 44  8  1  0
  8  7  2  0
 24 20  2  0
  7 20  1  0
 20  4  1  0
  4  5  2  0
  4  3  1  0
  5  6  1  0
  3  2  2  0
  6  1  2  0
  2  1  1  0
  1 19  1  0
  2 25  1  0
  3 26  1  0
  5 27  1  0
  6 28  1  0
  7 29  1  0
 11 45  1  0
 11 30  1  0
 12 31  1  1
 13 32  1  0
 13 33  1  0
 14 34  1  0
 14 35  1  0
 15 36  1  6
 16 37  1  0
 16 38  1  0
 18 39  1  0
 44 46  1  0
 21 40  1  1
 23 41  1  0
 23 42  1  0
 24 43  1  0
M  END
