
     RDKit          3D

 27 28  0  0  0  0  0  0  0  0999 V2000
    4.8568   -0.8262    0.4189 O   0  0  0  0  0  0  0  0  0  0  0  0
    4.1701    0.0646   -0.0862 C   0  0  0  0  0  0  0  0  0  0  0  0
    4.7850    1.2471   -0.3622 O   0  0  0  0  0  0  0  0  0  0  0  0
    2.6978    0.0442   -0.4593 C   0  0  1  0  0  0  0  0  0  0  0  0
    2.3519   -1.2135   -1.0856 N   0  0  0  0  0  0  0  0  0  0  0  0
    1.9127    0.4079    0.8219 C   0  0  0  0  0  0  0  0  0  0  0  0
    0.5018    0.6824    0.5336 C   0  0  0  0  0  0  0  0  0  0  0  0
   -0.0745    1.9361    0.3089 C   0  0  0  0  0  0  0  0  0  0  0  0
   -1.4418    1.8016    0.0670 N   0  0  0  0  0  0  0  0  0  0  0  0
   -1.7671    0.4467    0.1335 C   0  0  0  0  0  0  0  0  0  0  0  0
   -0.5611   -0.2967    0.4276 C   0  0  0  0  0  0  0  0  0  0  0  0
   -0.6237   -1.6863    0.5462 C   0  0  0  0  0  0  0  0  0  0  0  0
   -1.8440   -2.3220    0.3787 C   0  0  0  0  0  0  0  0  0  0  0  0
   -3.0180   -1.6030    0.0928 C   0  0  0  0  0  0  0  0  0  0  0  0
   -2.9939   -0.2198   -0.0323 C   0  0  0  0  0  0  0  0  0  0  0  0
   -4.4027    0.6629   -0.3773 Cl  0  0  0  0  0  0  0  0  0  0  0  0
    5.7202    1.1971   -0.1021 H   0  0  0  0  0  0  0  0  0  0  0  0
    2.5167    0.8560   -1.2271 H   0  0  0  0  0  0  0  0  0  0  0  0
    2.3208   -1.9533   -0.4091 H   0  0  0  0  0  0  0  0  0  0  0  0
    1.4567   -1.1324   -1.5307 H   0  0  0  0  0  0  0  0  0  0  0  0
    1.9928   -0.4370    1.5589 H   0  0  0  0  0  0  0  0  0  0  0  0
    2.3963    1.3112    1.2817 H   0  0  0  0  0  0  0  0  0  0  0  0
    0.3977    2.9207    0.3044 H   0  0  0  0  0  0  0  0  0  0  0  0
   -2.0780    2.5314   -0.1198 H   0  0  0  0  0  0  0  0  0  0  0  0
    0.2873   -2.2608    0.7696 H   0  0  0  0  0  0  0  0  0  0  0  0
   -1.9070   -3.4174    0.4696 H   0  0  0  0  0  0  0  0  0  0  0  0
   -3.9661   -2.1486   -0.0325 H   0  0  0  0  0  0  0  0  0  0  0  0
  1  2  2  0
  3 17  1  0
  2  3  1  0
  2  4  1  0
  4  5  1  0
  4  6  1  0
  4 18  1  6
  5 19  1  0
  5 20  1  0
  6  7  1  0
  6 21  1  0
  6 22  1  0
  7  8  2  0
  7 11  1  0
  8  9  1  0
  8 23  1  0
  9 10  1  0
  9 24  1  0
 10 11  2  0
 10 15  1  0
 11 12  1  0
 12 13  2  0
 12 25  1  0
 13 14  1  0
 13 26  1  0
 14 15  2  0
 14 27  1  0
 15 16  1  0
M  END
