
     RDKit          3D

 39 43  0  0  0  0  0  0  0  0999 V2000
   -6.6727    3.1936    0.6769 N   0  0  0  0  0  0  0  0  0  0  0  0
   -5.8096    2.4361    0.5875 C   0  0  0  0  0  0  0  0  0  0  0  0
   -4.7400    1.4969    0.4782 C   0  0  0  0  0  0  0  0  0  0  0  0
   -3.4581    1.9423    0.1554 C   0  0  0  0  0  0  0  0  0  0  0  0
   -4.9837    0.1433    0.6964 C   0  0  0  0  0  0  0  0  0  0  0  0
   -3.9430   -0.7621    0.5944 C   0  0  0  0  0  0  0  0  0  0  0  0
   -2.6582   -0.3276    0.2728 C   0  0  0  0  0  0  0  0  0  0  0  0
   -2.4261    1.0312    0.0528 C   0  0  0  0  0  0  0  0  0  0  0  0
   -1.5479   -1.2846    0.1521 C   0  0  0  0  0  0  0  0  0  0  0  0
   -0.5637   -0.9565   -0.6251 N   0  0  0  0  0  0  0  0  0  0  0  0
    0.4209   -1.8390   -0.6704 N   0  0  0  0  0  0  0  0  0  0  0  0
    0.4495   -3.0332    0.0102 C   0  0  0  0  0  0  0  0  0  0  0  0
   -0.5664   -3.3797    0.8190 N   0  0  0  0  0  0  0  0  0  0  0  0
   -1.5355   -2.5295    0.8906 C   0  0  0  0  0  0  0  0  0  0  0  0
    1.5781   -1.7889   -1.3756 C   0  0  0  0  0  0  0  0  0  0  0  0
    2.2465   -2.8846   -1.1258 N   0  0  0  0  0  0  0  0  0  0  0  0
    1.5555   -3.6660   -0.2682 N   0  0  0  0  0  0  0  0  0  0  0  0
    1.9926   -0.6429   -2.2241 C   0  0  0  0  0  0  0  0  0  0  0  0
    2.2516    0.5831   -1.4073 C   0  0  0  0  0  0  0  0  0  0  0  0
    1.5515    1.7548   -1.4293 C   0  0  0  0  0  0  0  0  0  0  0  0
    3.2736    0.7482   -0.4212 C   0  0  0  0  0  0  0  0  0  0  0  0
    4.3039   -0.0335    0.0954 C   0  0  0  0  0  0  0  0  0  0  0  0
    5.1018    0.5300    1.0763 C   0  0  0  0  0  0  0  0  0  0  0  0
    3.1310    2.0531    0.1055 C   0  0  0  0  0  0  0  0  0  0  0  0
    2.0776    2.6374   -0.5266 N   0  0  0  0  0  0  0  0  0  0  0  0
    3.8835    2.6080    1.0417 N   0  0  0  0  0  0  0  0  0  0  0  0
    4.8551    1.8374    1.5107 C   0  0  0  0  0  0  0  0  0  0  0  0
   -3.2709    2.9944   -0.0079 H   0  0  0  0  0  0  0  0  0  0  0  0
   -5.9788   -0.2009    0.9407 H   0  0  0  0  0  0  0  0  0  0  0  0
   -1.4310    1.3798   -0.1869 H   0  0  0  0  0  0  0  0  0  0  0  0
   -4.1551   -1.8110    0.7494 H   0  0  0  0  0  0  0  0  0  0  0  0
   -2.3596   -2.7677    1.5508 H   0  0  0  0  0  0  0  0  0  0  0  0
    2.8897   -0.9500   -2.7649 H   0  0  0  0  0  0  0  0  0  0  0  0
    1.2219   -0.4418   -2.9714 H   0  0  0  0  0  0  0  0  0  0  0  0
    0.7008    2.0288   -2.0331 H   0  0  0  0  0  0  0  0  0  0  0  0
    1.7449    3.5738   -0.3648 H   0  0  0  0  0  0  0  0  0  0  0  0
    4.4775   -1.0448   -0.2509 H   0  0  0  0  0  0  0  0  0  0  0  0
    5.9161   -0.0289    1.5160 H   0  0  0  0  0  0  0  0  0  0  0  0
    5.4822    2.2726    2.2806 H   0  0  0  0  0  0  0  0  0  0  0  0
  1  2  3  0
  2  3  1  0
  3  4  2  0
  3  5  1  0
  4  8  1  0
  5  6  2  0
  6  7  1  0
  7  8  2  0
  7  9  1  0
  9 10  2  0
  9 14  1  0
 10 11  1  0
 11 12  1  0
 11 15  1  0
 12 13  1  0
 12 17  2  0
 13 14  2  0
 15 16  2  0
 15 18  1  0
 16 17  1  0
 18 19  1  0
 19 20  2  0
 19 21  1  0
 20 25  1  0
 21 22  2  0
 21 24  1  0
 22 23  1  0
 23 27  2  0
 24 25  1  0
 24 26  2  0
 26 27  1  0
  4 28  1  0
  5 29  1  0
  8 30  1  0
  6 31  1  0
 14 32  1  0
 18 33  1  0
 18 34  1  0
 20 35  1  0
 25 36  1  0
 22 37  1  0
 23 38  1  0
 27 39  1  0
M  END
