
     RDKit          3D

 37 39  0  0  0  0  0  0  0  0999 V2000
   -6.4983    2.3005    0.2736 C   0  0  0  0  0  0  0  0  0  0  0  0
   -5.6272    1.3040    0.1826 C   0  0  0  0  0  0  0  0  0  0  0  0
   -5.0660    0.8057   -1.1154 C   0  0  0  0  0  0  0  0  0  0  0  0
   -3.6216    0.9488   -1.1851 N   0  0  0  0  0  0  0  0  0  0  0  0
   -2.7850    0.0800   -0.6277 C   0  0  0  0  0  0  0  0  0  0  0  0
   -1.0668    0.3519   -0.6601 S   0  0  0  0  0  0  0  0  0  0  0  0
   -0.8530   -1.1654    0.2115 C   0  0  0  0  0  0  0  0  0  0  0  0
   -2.1238   -1.7304    0.4220 C   0  0  0  0  0  0  0  0  0  0  0  0
   -3.1792   -1.0210   -0.0379 N   0  0  0  0  0  0  0  0  0  0  0  0
   -2.3471   -2.8871    1.0407 N   0  0  0  0  0  0  0  0  0  0  0  0
    0.3886   -1.7616    0.5397 C   0  0  0  0  0  0  0  0  0  0  0  0
    1.6473   -1.0146    0.2391 C   0  0  0  0  0  0  0  0  0  0  0  0
    1.8180    0.2945    0.6112 C   0  0  0  0  0  0  0  0  0  0  0  0
    3.0317    0.9735    0.3557 C   0  0  0  0  0  0  0  0  0  0  0  0
    4.0818    0.2850   -0.3032 C   0  0  0  0  0  0  0  0  0  0  0  0
    3.8875   -1.0702   -0.6640 C   0  0  0  0  0  0  0  0  0  0  0  0
    2.7117   -1.7070   -0.3882 C   0  0  0  0  0  0  0  0  0  0  0  0
    3.2230    2.3227    0.7345 C   0  0  0  0  0  0  0  0  0  0  0  0
    4.4017    2.9614    0.4600 C   0  0  0  0  0  0  0  0  0  0  0  0
    5.4439    2.2786   -0.2021 C   0  0  0  0  0  0  0  0  0  0  0  0
    5.2884    0.9703   -0.5734 C   0  0  0  0  0  0  0  0  0  0  0  0
    0.4745   -2.8906    1.0409 O   0  0  0  0  0  0  0  0  0  0  0  0
   -6.8574    2.8261   -0.6038 H   0  0  0  0  0  0  0  0  0  0  0  0
   -6.8886    2.6260    1.2292 H   0  0  0  0  0  0  0  0  0  0  0  0
   -5.2844    0.7974    1.0796 H   0  0  0  0  0  0  0  0  0  0  0  0
   -5.3140   -0.2463   -1.2612 H   0  0  0  0  0  0  0  0  0  0  0  0
   -5.4881    1.3593   -1.9532 H   0  0  0  0  0  0  0  0  0  0  0  0
   -3.2591    1.8230   -1.5300 H   0  0  0  0  0  0  0  0  0  0  0  0
   -1.5691   -3.4609    1.3203 H   0  0  0  0  0  0  0  0  0  0  0  0
   -3.2815   -3.2534    1.0963 H   0  0  0  0  0  0  0  0  0  0  0  0
    1.0333    0.8270    1.1367 H   0  0  0  0  0  0  0  0  0  0  0  0
    4.6891   -1.6006   -1.1638 H   0  0  0  0  0  0  0  0  0  0  0  0
    2.5803   -2.7446   -0.6658 H   0  0  0  0  0  0  0  0  0  0  0  0
    2.4214    2.8448    1.2431 H   0  0  0  0  0  0  0  0  0  0  0  0
    4.5405    3.9945    0.7501 H   0  0  0  0  0  0  0  0  0  0  0  0
    6.3707    2.7954   -0.4149 H   0  0  0  0  0  0  0  0  0  0  0  0
    6.0896    0.4451   -1.0788 H   0  0  0  0  0  0  0  0  0  0  0  0
  2  1  2  0
  1 23  1  0
  1 24  1  0
  3  2  1  0
  2 25  1  0
  4  3  1  0
  3 26  1  0
  3 27  1  0
  5  4  1  0
  4 28  1  0
  9  5  2  0
  5  6  1  0
  7  6  1  0
  8  7  2  0
  7 11  1  0
 10  8  1  0
  8  9  1  0
 10 29  1  0
 10 30  1  0
 22 11  2  0
 11 12  1  0
 12 17  1  0
 12 13  2  0
 13 14  1  0
 13 31  1  0
 14 15  2  0
 14 18  1  0
 16 15  1  0
 15 21  1  0
 17 16  2  0
 16 32  1  0
 17 33  1  0
 18 19  2  0
 18 34  1  0
 19 20  1  0
 19 35  1  0
 21 20  2  0
 20 36  1  0
 21 37  1  0
M  END
