
     RDKit          3D

 50 53  0  0  0  0  0  0  0  0999 V2000
   -1.4733    0.3665    0.6314 C   0  0  0  0  0  0  0  0  0  0  0  0
   -0.6361   -0.6258    0.1808 N   0  0  0  0  0  0  0  0  0  0  0  0
    0.7382   -0.3928   -0.2023 C   0  0  0  0  0  0  0  0  0  0  0  0
    3.6936   -1.5685    0.3423 C   0  0  0  0  0  0  0  0  0  0  0  0
    5.1088    0.6743   -0.4292 C   0  0  0  0  0  0  0  0  0  0  0  0
   -1.3465   -1.7993    0.0137 C   0  0  0  0  0  0  0  0  0  0  0  0
   -1.9534   -4.0402   -0.4748 C   0  0  0  0  0  0  0  0  0  0  0  0
   -3.6556   -2.4886    0.2835 C   0  0  0  0  0  0  0  0  0  0  0  0
   -6.0083    1.5827    0.3229 C   0  0  0  0  0  0  0  0  0  0  0  0
   -6.7949    2.0603   -0.7205 C   0  0  0  0  0  0  0  0  0  0  0  0
   -6.3754    1.9710   -2.0414 C   0  0  0  0  0  0  0  0  0  0  0  0
   -5.1475    1.3990   -2.3310 C   0  0  0  0  0  0  0  0  0  0  0  0
   -4.3493    0.9208   -1.2994 C   0  0  0  0  0  0  0  0  0  0  0  0
   -4.7668    1.0049    0.0228 C   0  0  0  0  0  0  0  0  0  0  0  0
   -3.9084    0.4994    1.1598 C   0  0  0  0  0  0  0  0  0  0  0  0
   -2.7228   -0.1949    0.7409 N   0  0  0  0  0  0  0  0  0  0  0  0
   -1.0580    1.5526    0.8874 N   0  0  0  0  0  0  0  0  0  0  0  0
    1.6918   -0.1863    0.9852 C   0  0  2  0  0  0  0  0  0  0  0  0
    1.5193    1.0510    1.6111 O   0  0  0  0  0  0  0  0  0  0  0  0
    3.1095   -0.3130    0.4758 C   0  0  0  0  0  0  0  0  0  0  0  0
    4.9695   -1.7073   -0.1748 C   0  0  0  0  0  0  0  0  0  0  0  0
    5.6833   -0.5835   -0.5648 C   0  0  0  0  0  0  0  0  0  0  0  0
    7.2727   -0.7637   -1.2045 Cl  0  0  0  0  0  0  0  0  0  0  0  0
    3.8292    0.8086    0.0888 C   0  0  0  0  0  0  0  0  0  0  0  0
   -0.9643   -3.0589   -0.4031 C   0  0  0  0  0  0  0  0  0  0  0  0
   -3.2728   -3.7617   -0.1394 C   0  0  0  0  0  0  0  0  0  0  0  0
   -2.6724   -1.5239    0.3585 C   0  0  0  0  0  0  0  0  0  0  0  0
    1.0611   -1.2527   -0.7869 H   0  0  0  0  0  0  0  0  0  0  0  0
    0.7872    0.4768   -0.8641 H   0  0  0  0  0  0  0  0  0  0  0  0
    3.1531   -2.4557    0.6497 H   0  0  0  0  0  0  0  0  0  0  0  0
   -1.6813   -5.0362   -0.7970 H   0  0  0  0  0  0  0  0  0  0  0  0
   -4.6857   -2.2731    0.5357 H   0  0  0  0  0  0  0  0  0  0  0  0
   -5.7698    2.1993    2.3816 H   0  0  0  0  0  0  0  0  0  0  0  0
   -7.4293    2.2294    1.7974 H   0  0  0  0  0  0  0  0  0  0  0  0
   -6.6559    0.6976    2.1814 H   0  0  0  0  0  0  0  0  0  0  0  0
   -7.7532    2.5115   -0.4918 H   0  0  0  0  0  0  0  0  0  0  0  0
   -7.0062    2.3472   -2.8368 H   0  0  0  0  0  0  0  0  0  0  0  0
   -4.8051    1.3230   -3.3547 H   0  0  0  0  0  0  0  0  0  0  0  0
   -3.3926    0.4785   -1.5458 H   0  0  0  0  0  0  0  0  0  0  0  0
   -3.6125    1.3295    1.8070 H   0  0  0  0  0  0  0  0  0  0  0  0
   -4.4827   -0.1713    1.8045 H   0  0  0  0  0  0  0  0  0  0  0  0
   -1.7837    2.1853    1.1947 H   0  0  0  0  0  0  0  0  0  0  0  0
    1.5141   -1.0132    1.6907 H   0  0  0  0  0  0  0  0  0  0  0  0
    0.6160    1.3952    1.4073 H   0  0  0  0  0  0  0  0  0  0  0  0
    5.4156   -2.6874   -0.2736 H   0  0  0  0  0  0  0  0  0  0  0  0
    3.4011    1.7957    0.1948 H   0  0  0  0  0  0  0  0  0  0  0  0
    0.0604   -3.2892   -0.6630 H   0  0  0  0  0  0  0  0  0  0  0  0
   -4.0195   -4.5410   -0.2076 H   0  0  0  0  0  0  0  0  0  0  0  0
    5.9784    2.0874   -0.8976 Cl  0  0  0  0  0  0  0  0  0  0  0  0
   -6.4888    1.6838    1.7416 C   0  0  0  0  0  0  0  0  0  0  0  0
 21  4  2  0
 21 22  1  0
  4 20  1  0
 23 22  1  0
 22  5  2  0
  7 25  1  0
  7 26  2  0
 20 18  1  0
 20 24  2  0
 25  6  2  0
 18 19  1  0
 18  3  1  0
  5 24  1  0
  5 49  1  0
 26  8  1  0
  6 27  1  0
  6  2  1  0
  8 27  2  0
  3  2  1  0
 27 16  1  0
  2  1  1  0
 50  9  1  0
 10 11  1  0
 10  9  2  0
 11 12  2  0
  9 14  1  0
  1 16  1  0
  1 17  2  0
 16 15  1  0
 14 13  2  0
 14 15  1  0
 12 13  1  0
  3 28  1  0
  3 29  1  0
  4 30  1  0
  7 31  1  0
  8 32  1  0
 50 33  1  0
 50 34  1  0
 50 35  1  0
 10 36  1  0
 11 37  1  0
 12 38  1  0
 13 39  1  0
 15 40  1  0
 15 41  1  0
 17 42  1  0
 18 43  1  1
 19 44  1  0
 21 45  1  0
 24 46  1  0
 25 47  1  0
 26 48  1  0
M  END
