
     RDKit          3D

 29 30  0  0  0  0  0  0  0  0999 V2000
   -1.4611    1.1646    0.3554 C   0  0  0  0  0  0  0  0  0  0  0  0
   -2.8405    1.2256    0.4193 C   0  0  0  0  0  0  0  0  0  0  0  0
   -3.5913    0.2720   -0.2545 C   0  0  0  0  0  0  0  0  0  0  0  0
   -5.0415    0.3329   -0.1859 N   0  0  0  0  0  0  0  0  0  0  0  0
   -5.6738   -0.5117   -0.7753 O   0  0  0  0  0  0  0  0  0  0  0  0
   -5.5434    1.2246    0.4570 O   0  0  0  0  0  0  0  0  0  0  0  0
   -2.9907   -0.7359   -0.9952 C   0  0  0  0  0  0  0  0  0  0  0  0
   -1.6106   -0.7921   -1.0576 C   0  0  0  0  0  0  0  0  0  0  0  0
   -0.8551    0.1593   -0.3863 C   0  0  0  0  0  0  0  0  0  0  0  0
    0.5082    0.1165   -0.4927 O   0  0  0  0  0  0  0  0  0  0  0  0
    1.4140   -0.5495    0.6907 P   0  0  1  0  0  0  0  0  0  0  0  0
    0.9948   -0.1495    2.0497 O   0  0  0  0  0  0  0  0  0  0  0  0
    1.2688   -2.1306    0.5111 O   0  0  0  0  0  0  0  0  0  0  0  0
    3.0512   -0.0770    0.1565 C   0  0  0  0  0  0  0  0  0  0  0  0
    4.1073   -0.9771    0.2899 C   0  0  0  0  0  0  0  0  0  0  0  0
    5.3964   -0.5851   -0.0402 C   0  0  0  0  0  0  0  0  0  0  0  0
    5.6352    0.7022   -0.5002 C   0  0  0  0  0  0  0  0  0  0  0  0
    4.5849    1.6024   -0.6303 C   0  0  0  0  0  0  0  0  0  0  0  0
    3.2948    1.2186   -0.3004 C   0  0  0  0  0  0  0  0  0  0  0  0
   -0.8630    1.9062    0.8662 H   0  0  0  0  0  0  0  0  0  0  0  0
   -3.3130    2.0107    0.9907 H   0  0  0  0  0  0  0  0  0  0  0  0
   -3.5782   -1.4761   -1.5179 H   0  0  0  0  0  0  0  0  0  0  0  0
   -1.1252   -1.5667   -1.6357 H   0  0  0  0  0  0  0  0  0  0  0  0
    1.5172   -2.4912   -0.3514 H   0  0  0  0  0  0  0  0  0  0  0  0
    3.9367   -1.9843    0.6481 H   0  0  0  0  0  0  0  0  0  0  0  0
    6.2127   -1.2871    0.0625 H   0  0  0  0  0  0  0  0  0  0  0  0
    6.6411    1.0065   -0.7573 H   0  0  0  0  0  0  0  0  0  0  0  0
    4.7713    2.6059   -0.9886 H   0  0  0  0  0  0  0  0  0  0  0  0
    2.4876    1.9318   -0.4052 H   0  0  0  0  0  0  0  0  0  0  0  0
 18 17  2  0
 18 19  1  0
  5  4  1  0
 17 16  1  0
 19 14  2  0
  4  6  2  0
  4  3  1  0
  2  3  1  0
  2  1  2  0
  3  7  2  0
 16 15  2  0
 14 15  1  0
 14 11  1  0
 12 11  2  0
  1  9  1  0
  7  8  1  0
 11 10  1  6
 11 13  1  0
  9  8  2  0
  9 10  1  0
  1 20  1  0
  2 21  1  0
  7 22  1  0
  8 23  1  0
 13 24  1  0
 15 25  1  0
 16 26  1  0
 17 27  1  0
 18 28  1  0
 19 29  1  0
M  CHG  2   4   1   5  -1
M  END
