
     RDKit          3D

 25 26  0  0  0  0  0  0  0  0999 V2000
   -3.4872    0.0614    2.0753 O   0  0  0  0  0  0  0  0  0  0  0  0
   -2.5662   -0.4495    1.2839 C   0  0  0  0  0  0  0  0  0  0  0  0
   -2.0460   -1.5330    1.4605 O   0  0  0  0  0  0  0  0  0  0  0  0
   -2.2212    0.4247    0.1607 C   0  0  0  0  0  0  0  0  0  0  0  0
   -2.8488    1.6195   -0.0475 N   0  0  0  0  0  0  0  0  0  0  0  0
   -2.3815    2.2151   -1.0840 C   0  0  0  0  0  0  0  0  0  0  0  0
   -1.1335    1.3674   -1.9301 S   0  0  0  0  0  0  0  0  0  0  0  0
   -1.2489    0.1093   -0.7605 C   0  0  0  0  0  0  0  0  0  0  0  0
   -0.5172   -1.0533   -0.8175 N   0  0  0  0  0  0  0  0  0  0  0  0
    1.0810   -1.0886   -1.2957 S   0  0  1  0  0  0  0  0  0  0  0  0
    1.4519   -2.4848   -1.2707 O   0  0  0  0  0  0  0  0  0  0  0  0
    1.1532   -0.2988   -2.5083 O   0  0  0  0  0  0  0  0  0  0  0  0
    1.9580   -0.2326   -0.0271 C   0  0  0  0  0  0  0  0  0  0  0  0
    2.2788    1.1089   -0.1760 C   0  0  0  0  0  0  0  0  0  0  0  0
    2.9400    1.7274    0.8707 C   0  0  0  0  0  0  0  0  0  0  0  0
    3.2441    0.9804    1.9992 C   0  0  0  0  0  0  0  0  0  0  0  0
    2.9380   -0.3061    2.1345 N   0  0  0  0  0  0  0  0  0  0  0  0
    2.3055   -0.9053    1.1397 C   0  0  0  0  0  0  0  0  0  0  0  0
   -3.6807   -0.5560    2.7971 H   0  0  0  0  0  0  0  0  0  0  0  0
   -2.7060    3.1858   -1.4315 H   0  0  0  0  0  0  0  0  0  0  0  0
   -0.7757   -1.7375   -0.1057 H   0  0  0  0  0  0  0  0  0  0  0  0
    2.0372    1.6567   -1.0764 H   0  0  0  0  0  0  0  0  0  0  0  0
    3.2207    2.7689    0.8106 H   0  0  0  0  0  0  0  0  0  0  0  0
    3.7626    1.4417    2.8310 H   0  0  0  0  0  0  0  0  0  0  0  0
    2.0715   -1.9555    1.2727 H   0  0  0  0  0  0  0  0  0  0  0  0
 15 16  1  0
 15 14  2  0
 16 17  2  0
 14 13  1  0
 17 18  1  0
 13 18  2  0
 13 10  1  0
 11 10  2  0
 10  9  1  1
 10 12  2  0
  9  8  1  0
  3  2  2  0
  8  4  2  0
  8  7  1  0
  2  4  1  0
  2  1  1  0
  4  5  1  0
  7  6  1  0
  5  6  2  0
  1 19  1  0
  6 20  1  0
  9 21  1  0
 14 22  1  0
 15 23  1  0
 16 24  1  0
 18 25  1  0
M  END
