
     RDKit          3D

 32 34  0  0  0  0  0  0  0  0999 V2000
   -8.0585    0.2445   -0.8490 N   0  0  0  0  0  0  0  0  0  0  0  0
   -6.9470    0.0652   -0.6069 C   0  0  0  0  0  0  0  0  0  0  0  0
   -5.5627   -0.1428   -0.3195 C   0  0  0  0  0  0  0  0  0  0  0  0
   -5.2417   -1.1772    0.4656 N   0  0  0  0  0  0  0  0  0  0  0  0
   -3.9765   -1.3590    0.7232 C   0  0  0  0  0  0  0  0  0  0  0  0
   -4.5938    0.6975   -0.8407 C   0  0  0  0  0  0  0  0  0  0  0  0
   -3.3073    0.5158   -0.5852 N   0  0  0  0  0  0  0  0  0  0  0  0
   -2.9822   -0.4999    0.1933 C   0  0  0  0  0  0  0  0  0  0  0  0
   -1.6804   -0.7766    0.5004 N   0  0  0  0  0  0  0  0  0  0  0  0
   -0.5533   -0.0223    0.1918 C   0  0  0  0  0  0  0  0  0  0  0  0
   -0.5902    1.1034   -0.2397 O   0  0  0  0  0  0  0  0  0  0  0  0
    0.5908   -0.7267    0.4540 N   0  0  0  0  0  0  0  0  0  0  0  0
    1.8834   -0.2065    0.3482 C   0  0  0  0  0  0  0  0  0  0  0  0
    2.0725    1.0496    0.7930 N   0  0  0  0  0  0  0  0  0  0  0  0
    3.2764    1.5490    0.7389 C   0  0  0  0  0  0  0  0  0  0  0  0
    4.4063    0.8449    0.2687 C   0  0  0  0  0  0  0  0  0  0  0  0
    4.2047   -0.4829   -0.1758 C   0  0  0  0  0  0  0  0  0  0  0  0
    2.8942   -0.9972   -0.1378 C   0  0  0  0  0  0  0  0  0  0  0  0
    5.6992    1.4120    0.2382 C   0  0  0  0  0  0  0  0  0  0  0  0
    6.7563    0.6766   -0.2217 C   0  0  0  0  0  0  0  0  0  0  0  0
    6.5582   -0.6499   -0.6667 C   0  0  0  0  0  0  0  0  0  0  0  0
    5.3153   -1.2213   -0.6472 C   0  0  0  0  0  0  0  0  0  0  0  0
   -3.7050   -2.1960    1.3571 H   0  0  0  0  0  0  0  0  0  0  0  0
   -4.8612    1.5314   -1.4786 H   0  0  0  0  0  0  0  0  0  0  0  0
   -1.5368   -1.6172    1.0415 H   0  0  0  0  0  0  0  0  0  0  0  0
    0.5248   -1.7316    0.5192 H   0  0  0  0  0  0  0  0  0  0  0  0
    3.4006    2.5672    1.0974 H   0  0  0  0  0  0  0  0  0  0  0  0
    2.6922   -2.0006   -0.4914 H   0  0  0  0  0  0  0  0  0  0  0  0
    5.8413    2.4293    0.5817 H   0  0  0  0  0  0  0  0  0  0  0  0
    7.7494    1.1048   -0.2467 H   0  0  0  0  0  0  0  0  0  0  0  0
    7.4058   -1.2187   -1.0263 H   0  0  0  0  0  0  0  0  0  0  0  0
    5.1695   -2.2384   -0.9892 H   0  0  0  0  0  0  0  0  0  0  0  0
 22 21  2  0
 22 17  1  0
 21 20  1  0
 11 10  2  0
 18 17  2  0
 18 13  1  0
 17 16  1  0
 20 19  2  0
 10  9  1  0
 10 12  1  0
  9  8  1  0
 13 12  1  0
 13 14  2  0
 16 19  1  0
 16 15  2  0
 14 15  1  0
  8  5  2  0
  8  7  1  0
  5  4  1  0
  7  6  2  0
  4  3  2  0
  6  3  1  0
  3  2  1  0
  2  1  3  0
  5 23  1  0
  6 24  1  0
  9 25  1  0
 12 26  1  0
 15 27  1  0
 18 28  1  0
 19 29  1  0
 20 30  1  0
 21 31  1  0
 22 32  1  0
M  END
