
     RDKit          3D

 17 17  0  0  0  0  0  0  0  0999 V2000
    0.2741   -0.6815    0.0727 C   0  0  0  0  0  0  0  0  0  0  0  0
    1.6098   -0.2345    0.0012 C   0  0  0  0  0  0  0  0  0  0  0  0
   -0.7348    0.2883    0.0618 C   0  0  0  0  0  0  0  0  0  0  0  0
   -0.0090   -2.0201    0.2066 N   0  0  0  0  0  0  0  0  0  0  0  0
    1.8717    1.1252   -0.0800 C   0  0  0  0  0  0  0  0  0  0  0  0
    2.7274   -1.2354    0.0215 C   0  0  0  0  0  0  0  0  0  0  0  0
   -0.4623    1.6440   -0.0170 C   0  0  0  0  0  0  0  0  0  0  0  0
   -2.3960   -0.2274    0.1533 Cl  0  0  0  0  0  0  0  0  0  0  0  0
    0.8525    2.0698   -0.0900 C   0  0  0  0  0  0  0  0  0  0  0  0
   -0.9393   -2.3101   -0.0484 H   0  0  0  0  0  0  0  0  0  0  0  0
    0.6866   -2.6560   -0.1474 H   0  0  0  0  0  0  0  0  0  0  0  0
    2.9029    1.4530   -0.1368 H   0  0  0  0  0  0  0  0  0  0  0  0
    2.7026   -1.8506    0.9239 H   0  0  0  0  0  0  0  0  0  0  0  0
    2.6840   -1.9166   -0.8326 H   0  0  0  0  0  0  0  0  0  0  0  0
    3.6950   -0.7380   -0.0120 H   0  0  0  0  0  0  0  0  0  0  0  0
   -1.2768    2.3557   -0.0229 H   0  0  0  0  0  0  0  0  0  0  0  0
    1.0780    3.1255   -0.1529 H   0  0  0  0  0  0  0  0  0  0  0  0
  1  2  2  0
  1  3  1  0
  1  4  1  0
  2  5  1  0
  2  6  1  0
  3  7  2  0
  3  8  1  0
  4 10  1  0
  4 11  1  0
  5  9  2  0
  5 12  1  0
  6 13  1  0
  6 14  1  0
  6 15  1  0
  7  9  1  0
  7 16  1  0
  9 17  1  0
M  END
