
     RDKit          3D

 33 32  0  0  0  0  0  0  0  0999 V2000
   -3.3832    1.6804    0.9679 O   0  0  0  0  0  0  0  0  0  0  0  0
   -4.1440    0.4286    0.3628 P   0  0  1  0  0  0  0  0  0  0  0  0
   -4.6175   -0.5748    1.3401 O   0  0  0  0  0  0  0  0  0  0  0  0
   -5.2720    1.1118   -0.5312 O   0  0  0  0  0  0  0  0  0  0  0  0
   -3.1748   -0.1559   -0.7810 O   0  0  0  0  0  0  0  0  0  0  0  0
   -2.0108   -0.9148   -0.4400 C   0  0  0  0  0  0  0  0  0  0  0  0
   -0.7605   -0.0503   -0.4955 C   0  0  1  0  0  0  0  0  0  0  0  0
   -0.8885    1.0166    0.4317 O   0  0  0  0  0  0  0  0  0  0  0  0
    0.4800   -0.9260   -0.2353 C   0  0  1  0  0  0  0  0  0  0  0  0
    0.6434   -1.8397   -1.2882 O   0  0  0  0  0  0  0  0  0  0  0  0
    1.7533   -0.0878   -0.0086 C   0  0  1  0  0  0  0  0  0  0  0  0
    1.6362    0.6904    1.1711 O   0  0  0  0  0  0  0  0  0  0  0  0
    3.0079   -0.9577    0.0704 C   0  0  2  0  0  0  0  0  0  0  0  0
    2.8668   -1.8647    1.1230 O   0  0  0  0  0  0  0  0  0  0  0  0
    4.2505   -0.1014    0.2687 C   0  0  0  0  0  0  0  0  0  0  0  0
    5.0126   -0.3520    1.1706 O   0  0  0  0  0  0  0  0  0  0  0  0
    4.4945    1.0057   -0.7189 C   0  0  0  0  0  0  0  0  0  0  0  0
    5.8101    1.4497   -0.5987 O   0  0  0  0  0  0  0  0  0  0  0  0
   -2.3957    1.5774    0.8887 H   0  0  0  0  0  0  0  0  0  0  0  0
   -6.1384    0.6952   -0.4392 H   0  0  0  0  0  0  0  0  0  0  0  0
   -2.1126   -1.3686    0.5512 H   0  0  0  0  0  0  0  0  0  0  0  0
   -1.9371   -1.7210   -1.1682 H   0  0  0  0  0  0  0  0  0  0  0  0
   -0.6692    0.3760   -1.5048 H   0  0  0  0  0  0  0  0  0  0  0  0
   -0.0757    1.1029    0.9640 H   0  0  0  0  0  0  0  0  0  0  0  0
    0.3059   -1.5297    0.6626 H   0  0  0  0  0  0  0  0  0  0  0  0
    0.7511   -1.3559   -2.1155 H   0  0  0  0  0  0  0  0  0  0  0  0
    1.8590    0.6223   -0.8359 H   0  0  0  0  0  0  0  0  0  0  0  0
    1.7051    0.0964    1.9317 H   0  0  0  0  0  0  0  0  0  0  0  0
    3.1440   -1.4758   -0.8902 H   0  0  0  0  0  0  0  0  0  0  0  0
    3.6863   -1.8492    1.6382 H   0  0  0  0  0  0  0  0  0  0  0  0
    4.2546    0.6328   -1.7251 H   0  0  0  0  0  0  0  0  0  0  0  0
    3.7614    1.7984   -0.5056 H   0  0  0  0  0  0  0  0  0  0  0  0
    5.9165    2.2148   -1.1714 H   0  0  0  0  0  0  0  0  0  0  0  0
  2  1  1  1
  1 19  1  0
  2  3  2  0
  2  4  1  0
  2  5  1  0
  4 20  1  0
  5  6  1  0
  6  7  1  0
  6 21  1  0
  6 22  1  0
  7  8  1  0
  7  9  1  0
  7 23  1  6
  8 24  1  0
  9 10  1  0
  9 11  1  0
  9 25  1  1
 10 26  1  0
 11 12  1  0
 11 13  1  0
 11 27  1  6
 12 28  1  0
 13 15  1  0
 13 14  1  0
 13 29  1  6
 14 30  1  0
 15 17  1  0
 15 16  2  0
 17 18  1  0
 17 31  1  0
 17 32  1  0
 18 33  1  0
M  END
