
     RDKit          3D

 47 48  0  0  0  0  0  0  0  0999 V2000
    6.9799    2.2718    1.3019 N   0  0  0  0  0  0  0  0  0  0  0  0
    6.5539    1.1655    0.7007 C   0  0  0  0  0  0  0  0  0  0  0  0
    5.0891    1.2305    0.2363 C   0  0  0  0  0  0  0  0  0  0  0  0
    4.5994    0.0638   -0.6023 C   0  0  1  0  0  0  0  0  0  0  0  0
    3.1620    0.0132   -0.5825 N   0  0  0  0  0  0  0  0  0  0  0  0
    2.4860   -0.3117    0.5308 C   0  0  0  0  0  0  0  0  0  0  0  0
    1.0058   -0.1118    0.4328 C   0  0  0  0  0  0  0  0  0  0  0  0
    0.5141    1.1520    0.1411 C   0  0  0  0  0  0  0  0  0  0  0  0
   -0.8405    1.4037    0.1032 C   0  0  0  0  0  0  0  0  0  0  0  0
   -1.7552    0.3812    0.3514 C   0  0  0  0  0  0  0  0  0  0  0  0
   -1.2865   -0.9122    0.6611 C   0  0  0  0  0  0  0  0  0  0  0  0
    0.0941   -1.1271    0.6878 C   0  0  0  0  0  0  0  0  0  0  0  0
    0.7275   -2.7083    0.9822 Cl  0  0  0  0  0  0  0  0  0  0  0  0
   -2.2042   -2.0744    0.9563 C   0  0  1  0  0  0  0  0  0  0  0  0
   -1.9156   -2.6259    2.1429 F   0  0  0  0  0  0  0  0  0  0  0  0
   -3.4950   -1.7628    1.0037 F   0  0  0  0  0  0  0  0  0  0  0  0
   -2.0798   -3.0366    0.0312 F   0  0  0  0  0  0  0  0  0  0  0  0
   -3.0727    0.5806    0.3046 O   0  0  0  0  0  0  0  0  0  0  0  0
   -3.5759    1.8438   -0.0882 C   0  0  0  0  0  0  0  0  0  0  0  0
   -5.0744    1.7639   -0.1844 C   0  0  0  0  0  0  0  0  0  0  0  0
   -5.6950    2.9317   -0.0574 N   0  0  0  0  0  0  0  0  0  0  0  0
   -7.0161    2.9630   -0.1742 C   0  0  0  0  0  0  0  0  0  0  0  0
   -7.7860    1.8352   -0.4137 C   0  0  0  0  0  0  0  0  0  0  0  0
   -7.1343    0.6190   -0.5462 C   0  0  0  0  0  0  0  0  0  0  0  0
   -5.7529    0.5769   -0.4342 C   0  0  0  0  0  0  0  0  0  0  0  0
    3.0262   -0.7032    1.5505 O   0  0  0  0  0  0  0  0  0  0  0  0
    5.1040    0.2140   -2.0435 C   0  0  0  0  0  0  0  0  0  0  0  0
    4.7705   -0.9958   -2.9049 C   0  0  0  0  0  0  0  0  0  0  0  0
    4.3946    2.1690    0.5243 O   0  0  0  0  0  0  0  0  0  0  0  0
    7.2105    0.1553    0.5125 O   0  0  0  0  0  0  0  0  0  0  0  0
    7.9169    2.3269    1.6681 H   0  0  0  0  0  0  0  0  0  0  0  0
    6.3744    3.0646    1.4369 H   0  0  0  0  0  0  0  0  0  0  0  0
    5.0057   -0.8627   -0.1893 H   0  0  0  0  0  0  0  0  0  0  0  0
    2.6568    0.3673   -1.3802 H   0  0  0  0  0  0  0  0  0  0  0  0
    1.2040    1.9655   -0.0449 H   0  0  0  0  0  0  0  0  0  0  0  0
   -1.1739    2.4061   -0.1188 H   0  0  0  0  0  0  0  0  0  0  0  0
   -3.3035    2.6192    0.6334 H   0  0  0  0  0  0  0  0  0  0  0  0
   -3.1657    2.1340   -1.0627 H   0  0  0  0  0  0  0  0  0  0  0  0
   -7.4861    3.9342   -0.0651 H   0  0  0  0  0  0  0  0  0  0  0  0
   -8.8614    1.9125   -0.4917 H   0  0  0  0  0  0  0  0  0  0  0  0
   -7.6924   -0.2881   -0.7374 H   0  0  0  0  0  0  0  0  0  0  0  0
   -5.2244   -0.3589   -0.5414 H   0  0  0  0  0  0  0  0  0  0  0  0
    4.6789    1.1224   -2.4798 H   0  0  0  0  0  0  0  0  0  0  0  0
    6.1849    0.3557   -2.0246 H   0  0  0  0  0  0  0  0  0  0  0  0
    5.2011   -1.9054   -2.4849 H   0  0  0  0  0  0  0  0  0  0  0  0
    3.6958   -1.1489   -3.0024 H   0  0  0  0  0  0  0  0  0  0  0  0
    5.1749   -0.8659   -3.9083 H   0  0  0  0  0  0  0  0  0  0  0  0
  1  2  1  0
  1 31  1  0
  1 32  1  0
  2 30  2  0
  3  2  1  0
  3  4  1  0
  4 27  1  0
  4 33  1  1
  5  4  1  0
  5  6  1  0
  5 34  1  0
  6 26  2  0
  7  6  1  0
  7  8  2  0
  8 35  1  0
  9  8  1  0
  9 36  1  0
 10  9  2  0
 11 10  1  0
 11 12  2  0
 12  7  1  0
 13 12  1  0
 14 11  1  0
 14 17  1  6
 15 14  1  0
 16 14  1  0
 18 10  1  0
 18 19  1  0
 19 37  1  0
 19 38  1  0
 20 19  1  0
 20 25  1  0
 21 20  2  0
 22 21  1  0
 22 23  2  0
 22 39  1  0
 23 24  1  0
 23 40  1  0
 24 25  2  0
 24 41  1  0
 25 42  1  0
 27 28  1  0
 27 43  1  0
 27 44  1  0
 28 45  1  0
 28 46  1  0
 28 47  1  0
 29  3  2  0
M  END
