
     RDKit          3D

 36 38  0  0  0  0  0  0  0  0999 V2000
   -3.6901    1.9505   -0.0055 C   0  0  0  0  0  0  0  0  0  0  0  0
   -3.8450    0.5723   -0.1473 C   0  0  0  0  0  0  0  0  0  0  0  0
   -2.4299    2.5308    0.0411 C   0  0  0  0  0  0  0  0  0  0  0  0
   -1.4816    0.3283   -0.1970 C   0  0  0  0  0  0  0  0  0  0  0  0
   -2.7375   -0.2609   -0.2540 C   0  0  0  0  0  0  0  0  0  0  0  0
   -1.3298    1.6958   -0.0489 C   0  0  0  0  0  0  0  0  0  0  0  0
   -0.1388   -0.3014   -0.2073 C   0  0  0  0  0  0  0  0  0  0  0  0
   -2.9208   -1.7270   -0.5191 C   0  0  0  0  0  0  0  0  0  0  0  0
    0.1272    2.0172   -0.0077 C   0  0  0  0  0  0  0  0  0  0  0  0
    2.8154   -0.1560   -1.2420 C   0  0  0  0  0  0  0  0  0  0  0  0
    2.6709   -0.0024    1.2619 C   0  0  0  0  0  0  0  0  0  0  0  0
    4.3383   -0.1543   -1.0999 C   0  0  0  0  0  0  0  0  0  0  0  0
    4.1999   -0.0206    1.3007 C   0  0  0  0  0  0  0  0  0  0  0  0
    2.1969    0.5912   -0.0634 C   0  0  2  0  0  0  0  0  0  0  0  0
    4.8133   -0.6897    0.1654 N   0  0  0  0  0  0  0  0  0  0  0  0
    0.7507    0.7169   -0.1446 N   0  0  0  0  0  0  0  0  0  0  0  0
   -3.4221   -2.4190    0.5097 N   0  0  0  0  0  0  0  0  0  0  0  0
    0.1088   -1.4958   -0.2444 O   0  0  0  0  0  0  0  0  0  0  0  0
   -2.6700   -2.2040   -1.6131 O   0  0  0  0  0  0  0  0  0  0  0  0
   -4.5700    2.5757    0.0684 H   0  0  0  0  0  0  0  0  0  0  0  0
   -4.8427    0.1533   -0.1870 H   0  0  0  0  0  0  0  0  0  0  0  0
   -2.3179    3.6019    0.1491 H   0  0  0  0  0  0  0  0  0  0  0  0
    2.4574   -1.1868   -1.2702 H   0  0  0  0  0  0  0  0  0  0  0  0
    2.2890   -1.0205    1.3754 H   0  0  0  0  0  0  0  0  0  0  0  0
    2.2821    0.5848    2.0987 H   0  0  0  0  0  0  0  0  0  0  0  0
    4.7885   -0.7249   -1.9144 H   0  0  0  0  0  0  0  0  0  0  0  0
    4.7093    0.8721   -1.1987 H   0  0  0  0  0  0  0  0  0  0  0  0
    4.5686    1.0108    1.3286 H   0  0  0  0  0  0  0  0  0  0  0  0
    4.5449   -0.4978    2.2197 H   0  0  0  0  0  0  0  0  0  0  0  0
    2.5664    1.6213   -0.1110 H   0  0  0  0  0  0  0  0  0  0  0  0
    4.5889   -1.6777    0.2070 H   0  0  0  0  0  0  0  0  0  0  0  0
   -3.5740   -1.9948    1.4084 H   0  0  0  0  0  0  0  0  0  0  0  0
   -3.6016   -3.4071    0.4249 H   0  0  0  0  0  0  0  0  0  0  0  0
    0.4239    2.6884   -0.8187 H   0  0  0  0  0  0  0  0  0  0  0  0
    0.4153    2.4925    0.9349 H   0  0  0  0  0  0  0  0  0  0  0  0
    2.5231    0.3186   -2.1824 H   0  0  0  0  0  0  0  0  0  0  0  0
  1  2  2  0
  1  3  1  0
  1 20  1  0
  2  5  1  0
  2 21  1  0
  3  6  2  0
  3 22  1  0
  4  5  2  0
  4  6  1  0
  4  7  1  0
  5  8  1  0
  6  9  1  0
  7 16  1  0
  7 18  2  0
  8 17  1  0
  8 19  2  0
  9 16  1  0
 10 12  1  0
 10 14  1  0
 10 36  1  0
 10 23  1  0
 11 13  1  0
 11 14  1  0
 11 24  1  0
 11 25  1  0
 12 15  1  0
 12 26  1  0
 12 27  1  0
 13 15  1  0
 13 28  1  0
 13 29  1  0
 14 16  1  0
 14 30  1  1
 15 31  1  0
 17 32  1  0
 17 33  1  0
  9 34  1  0
  9 35  1  0
M  END
