
     RDKit          3D

 23 22  0  0  0  0  0  0  0  0999 V2000
   -2.9801   -1.1868    0.7997 O   0  0  0  0  0  0  0  0  0  0  0  0
   -2.8652   -0.1055    0.2379 C   0  0  0  0  0  0  0  0  0  0  0  0
   -3.8962    0.5114   -0.3603 N   0  0  0  0  0  0  0  0  0  0  0  0
   -1.5528    0.6478    0.1929 C   0  0  0  0  0  0  0  0  0  0  0  0
   -0.3315   -0.2571    0.1006 C   0  0  0  0  0  0  0  0  0  0  0  0
    0.9654    0.5423    0.1072 C   0  0  0  0  0  0  0  0  0  0  0  0
    2.2065   -0.3322   -0.0105 C   0  0  0  0  0  0  0  0  0  0  0  0
    3.4950    0.4758    0.0099 C   0  0  0  0  0  0  0  0  0  0  0  0
    4.6595   -0.3900   -0.1154 N   0  0  0  0  0  0  0  0  0  0  0  0
   -4.8202    0.1124   -0.3285 H   0  0  0  0  0  0  0  0  0  0  0  0
   -3.7910    1.3993   -0.8192 H   0  0  0  0  0  0  0  0  0  0  0  0
   -1.5528    1.3622   -0.6342 H   0  0  0  0  0  0  0  0  0  0  0  0
   -1.4951    1.2484    1.1079 H   0  0  0  0  0  0  0  0  0  0  0  0
   -0.3297   -0.9635    0.9338 H   0  0  0  0  0  0  0  0  0  0  0  0
   -0.3853   -0.8562   -0.8140 H   0  0  0  0  0  0  0  0  0  0  0  0
    0.9512    1.2661   -0.7150 H   0  0  0  0  0  0  0  0  0  0  0  0
    1.0211    1.1326    1.0289 H   0  0  0  0  0  0  0  0  0  0  0  0
    2.2276   -1.0622    0.8048 H   0  0  0  0  0  0  0  0  0  0  0  0
    2.1562   -0.9095   -0.9413 H   0  0  0  0  0  0  0  0  0  0  0  0
    3.4397    1.2503   -0.7694 H   0  0  0  0  0  0  0  0  0  0  0  0
    3.5648    1.0081    0.9630 H   0  0  0  0  0  0  0  0  0  0  0  0
    4.6607   -0.8110   -1.0369 H   0  0  0  0  0  0  0  0  0  0  0  0
    5.5016    0.1699   -0.0745 H   0  0  0  0  0  0  0  0  0  0  0  0
  1  2  2  0
  2  4  1  0
  2  3  1  0
  9  8  1  0
  5  4  1  0
  5  6  1  0
  7  8  1  0
  7  6  1  0
  3 10  1  0
  3 11  1  0
  4 12  1  0
  4 13  1  0
  5 14  1  0
  5 15  1  0
  6 16  1  0
  6 17  1  0
  7 18  1  0
  7 19  1  0
  8 20  1  0
  8 21  1  0
  9 22  1  0
  9 23  1  0
M  END
