
     RDKit          3D

 88 87  0  0  0  0  0  0  0  0999 V2000
   16.8197    4.3314    1.0277 C   0  0  0  0  0  0  0  0  0  0  0  0
   16.3978    2.9389    0.5789 C   0  0  0  0  0  0  0  0  0  0  0  0
   14.9438    2.6215    0.9085 C   0  0  0  0  0  0  0  0  0  0  0  0
   14.5137    1.2283    0.4661 C   0  0  0  0  0  0  0  0  0  0  0  0
   13.0590    0.9147    0.7961 C   0  0  0  0  0  0  0  0  0  0  0  0
   12.6290   -0.4833    0.3688 C   0  0  0  0  0  0  0  0  0  0  0  0
   11.1690   -0.7809    0.6886 C   0  0  0  0  0  0  0  0  0  0  0  0
   10.7399   -2.1939    0.2916 C   0  0  0  0  0  0  0  0  0  0  0  0
    9.3127   -2.4708    0.6465 C   0  0  0  0  0  0  0  0  0  0  0  0
    8.3529   -2.7930   -0.2162 C   0  0  0  0  0  0  0  0  0  0  0  0
    6.9182   -3.0254    0.1402 C   0  0  0  0  0  0  0  0  0  0  0  0
    5.9762   -2.0546   -0.5728 C   0  0  0  0  0  0  0  0  0  0  0  0
    4.5120   -2.2775   -0.2152 C   0  0  0  0  0  0  0  0  0  0  0  0
    3.5658   -1.3373   -0.9515 C   0  0  0  0  0  0  0  0  0  0  0  0
    2.1053   -1.5434   -0.5707 C   0  0  0  0  0  0  0  0  0  0  0  0
    1.1559   -0.6248   -1.3300 C   0  0  0  0  0  0  0  0  0  0  0  0
   -0.2895   -0.8476   -0.9160 C   0  0  0  0  0  0  0  0  0  0  0  0
   -1.2776    0.0112   -1.6561 C   0  0  0  0  0  0  0  0  0  0  0  0
   -2.5100   -0.1599   -1.1850 O   0  0  0  0  0  0  0  0  0  0  0  0
   -3.5709    0.5699   -1.7939 C   0  0  0  0  0  0  0  0  0  0  0  0
   -4.8345    0.2504   -1.0120 C   0  0  2  0  0  0  0  0  0  0  0  0
   -6.0253    0.8887   -1.7073 C   0  0  0  0  0  0  0  0  0  0  0  0
   -7.2014    0.4852   -0.9976 O   0  0  0  0  0  0  0  0  0  0  0  0
   -8.6088    1.1433   -1.3275 P   0  0  1  0  0  0  0  0  0  0  0  0
   -8.5820    2.6389   -0.7703 O   0  0  0  0  0  0  0  0  0  0  0  0
  -10.8808    0.4008   -0.2432 C   0  0  0  0  0  0  0  0  0  0  0  0
  -11.4629   -0.5970    0.7247 C   0  0  0  0  0  0  0  0  0  0  0  0
  -11.2045   -0.3740    2.1921 N   0  0  1  0  0  0  0  0  0  0  0  0
   -1.0164    0.7578   -2.5653 O   0  0  0  0  0  0  0  0  0  0  0  0
   -9.7701   -0.5801    2.5493 C   0  0  0  0  0  0  0  0  0  0  0  0
   -4.7424    0.6212    0.3370 O   0  0  0  0  0  0  0  0  0  0  0  0
  -11.6321    0.9882    2.6125 C   0  0  0  0  0  0  0  0  0  0  0  0
   -9.0696    1.1387   -2.7258 O   0  0  0  0  0  0  0  0  0  0  0  0
  -12.0189   -1.3813    2.9342 C   0  0  0  0  0  0  0  0  0  0  0  0
   -9.4617    0.2713   -0.2909 O   0  0  0  0  0  0  0  0  0  0  0  0
   16.6940    4.4535    2.1053 H   0  0  0  0  0  0  0  0  0  0  0  0
   17.8671    4.5266    0.7952 H   0  0  0  0  0  0  0  0  0  0  0  0
   16.2236    5.1036    0.5379 H   0  0  0  0  0  0  0  0  0  0  0  0
   16.5540    2.8390   -0.4997 H   0  0  0  0  0  0  0  0  0  0  0  0
   17.0459    2.1924    1.0483 H   0  0  0  0  0  0  0  0  0  0  0  0
   14.7880    2.7233    1.9884 H   0  0  0  0  0  0  0  0  0  0  0  0
   14.2951    3.3685    0.4378 H   0  0  0  0  0  0  0  0  0  0  0  0
   14.6705    1.1253   -0.6133 H   0  0  0  0  0  0  0  0  0  0  0  0
   15.1616    0.4821    0.9390 H   0  0  0  0  0  0  0  0  0  0  0  0
   12.9002    1.0274    1.8743 H   0  0  0  0  0  0  0  0  0  0  0  0
   12.4114    1.6561    0.3154 H   0  0  0  0  0  0  0  0  0  0  0  0
   12.7969   -0.6038   -0.7071 H   0  0  0  0  0  0  0  0  0  0  0  0
   13.2668   -1.2256    0.8612 H   0  0  0  0  0  0  0  0  0  0  0  0
   10.9969   -0.6404    1.7612 H   0  0  0  0  0  0  0  0  0  0  0  0
   10.5275   -0.0552    0.1788 H   0  0  0  0  0  0  0  0  0  0  0  0
   10.8927   -2.3422   -0.7816 H   0  0  0  0  0  0  0  0  0  0  0  0
   11.3904   -2.9135    0.8016 H   0  0  0  0  0  0  0  0  0  0  0  0
    9.0579   -2.3771    1.7013 H   0  0  0  0  0  0  0  0  0  0  0  0
    8.6040   -2.8835   -1.2721 H   0  0  0  0  0  0  0  0  0  0  0  0
    6.6334   -4.0486   -0.1303 H   0  0  0  0  0  0  0  0  0  0  0  0
    6.7864   -2.9411    1.2232 H   0  0  0  0  0  0  0  0  0  0  0  0
    6.2615   -1.0278   -0.3233 H   0  0  0  0  0  0  0  0  0  0  0  0
    6.1062   -2.1542   -1.6559 H   0  0  0  0  0  0  0  0  0  0  0  0
    4.2369   -3.3143   -0.4381 H   0  0  0  0  0  0  0  0  0  0  0  0
    4.3811   -2.1533    0.8654 H   0  0  0  0  0  0  0  0  0  0  0  0
    3.8513   -0.2997   -0.7468 H   0  0  0  0  0  0  0  0  0  0  0  0
    3.6835   -1.4786   -2.0315 H   0  0  0  0  0  0  0  0  0  0  0  0
    1.8257   -2.5864   -0.7561 H   0  0  0  0  0  0  0  0  0  0  0  0
    1.9859   -1.3832    0.5063 H   0  0  0  0  0  0  0  0  0  0  0  0
    1.4359    0.4170   -1.1512 H   0  0  0  0  0  0  0  0  0  0  0  0
    1.2666   -0.7971   -2.4037 H   0  0  0  0  0  0  0  0  0  0  0  0
   -0.5748   -1.8935   -1.0738 H   0  0  0  0  0  0  0  0  0  0  0  0
   -0.4142   -0.6708    0.1566 H   0  0  0  0  0  0  0  0  0  0  0  0
   -3.3612    1.6439   -1.7697 H   0  0  0  0  0  0  0  0  0  0  0  0
   -3.6854    0.2744   -2.8400 H   0  0  0  0  0  0  0  0  0  0  0  0
   -4.9800   -0.8346   -1.0187 H   0  0  0  0  0  0  0  0  0  0  0  0
   -5.9306    1.9799   -1.7063 H   0  0  0  0  0  0  0  0  0  0  0  0
   -6.0836    0.5554   -2.7454 H   0  0  0  0  0  0  0  0  0  0  0  0
   -8.2491    2.7647    0.1283 H   0  0  0  0  0  0  0  0  0  0  0  0
  -11.3192    0.1610   -1.2142 H   0  0  0  0  0  0  0  0  0  0  0  0
  -11.1724    1.4242    0.0011 H   0  0  0  0  0  0  0  0  0  0  0  0
  -12.5449   -0.5734    0.5981 H   0  0  0  0  0  0  0  0  0  0  0  0
  -11.1181   -1.6040    0.4912 H   0  0  0  0  0  0  0  0  0  0  0  0
   -9.1615    0.2098    2.1254 H   0  0  0  0  0  0  0  0  0  0  0  0
   -9.6811   -0.5611    3.6318 H   0  0  0  0  0  0  0  0  0  0  0  0
   -9.4429   -1.5456    2.1732 H   0  0  0  0  0  0  0  0  0  0  0  0
   -4.5938    1.5720    0.3952 H   0  0  0  0  0  0  0  0  0  0  0  0
  -12.6649    1.1481    2.3148 H   0  0  0  0  0  0  0  0  0  0  0  0
  -11.5450    1.0622    3.6928 H   0  0  0  0  0  0  0  0  0  0  0  0
  -10.9938    1.7381    2.1559 H   0  0  0  0  0  0  0  0  0  0  0  0
  -11.7162   -2.3791    2.6284 H   0  0  0  0  0  0  0  0  0  0  0  0
  -11.8508   -1.2558    4.0000 H   0  0  0  0  0  0  0  0  0  0  0  0
  -13.0711   -1.2292    2.7102 H   0  0  0  0  0  0  0  0  0  0  0  0
  2  1  1  0
  1 36  1  0
  1 37  1  0
  1 38  1  0
  3  2  1  0
  2 39  1  0
  2 40  1  0
  4  3  1  0
  3 41  1  0
  3 42  1  0
  5  4  1  0
  4 43  1  0
  4 44  1  0
  6  5  1  0
  5 45  1  0
  5 46  1  0
  7  6  1  0
  6 47  1  0
  6 48  1  0
  8  7  1  0
  7 49  1  0
  7 50  1  0
  9  8  1  0
  8 51  1  0
  8 52  1  0
 10  9  2  0
  9 53  1  0
 11 10  1  0
 10 54  1  0
 11 12  1  0
 11 55  1  0
 11 56  1  0
 13 12  1  0
 12 57  1  0
 12 58  1  0
 14 13  1  0
 13 59  1  0
 13 60  1  0
 15 14  1  0
 14 61  1  0
 14 62  1  0
 16 15  1  0
 15 63  1  0
 15 64  1  0
 17 16  1  0
 16 65  1  0
 16 66  1  0
 18 17  1  0
 17 67  1  0
 17 68  1  0
 19 18  1  0
 18 29  2  0
 20 19  1  0
 21 20  1  0
 20 69  1  0
 20 70  1  0
 22 21  1  0
 31 21  1  0
 21 71  1  1
 23 22  1  0
 22 72  1  0
 22 73  1  0
 24 23  1  6
 35 24  1  0
 33 24  2  0
 24 25  1  0
 25 74  1  0
 27 26  1  0
 26 35  1  0
 26 75  1  0
 26 76  1  0
 28 27  1  6
 27 77  1  0
 27 78  1  0
 30 28  1  0
 34 28  1  0
 28 32  1  0
 30 79  1  0
 30 80  1  0
 30 81  1  0
 31 82  1  0
 32 83  1  0
 32 84  1  0
 32 85  1  0
 34 86  1  0
 34 87  1  0
 34 88  1  0
M  CHG  1  28   1
M  END
