
     RDKit          3D

 45 47  0  0  0  0  0  0  0  0999 V2000
   -6.9512   -0.9381   -0.4750 N   0  0  0  0  0  0  0  0  0  0  0  0
    4.5436   -1.3156    0.6964 C   0  0  0  0  0  0  0  0  0  0  0  0
    4.2331   -2.5752    1.1881 C   0  0  0  0  0  0  0  0  0  0  0  0
    3.2460   -3.3383    0.5761 C   0  0  0  0  0  0  0  0  0  0  0  0
    2.5778   -2.8325   -0.5304 C   0  0  0  0  0  0  0  0  0  0  0  0
    2.8974   -1.5730   -1.0208 C   0  0  0  0  0  0  0  0  0  0  0  0
   -0.1252    0.6168    0.6107 C   0  0  0  0  0  0  0  0  0  0  0  0
   -2.8273   -0.0007    0.1794 C   0  0  0  0  0  0  0  0  0  0  0  0
   -0.5662    0.2066   -0.6448 C   0  0  0  0  0  0  0  0  0  0  0  0
   -5.2653    0.3821    0.5925 C   0  0  0  0  0  0  0  0  0  0  0  0
   -4.6341   -1.3490   -0.9079 C   0  0  0  0  0  0  0  0  0  0  0  0
    1.7738    0.7360    2.0172 O   0  0  0  0  0  0  0  0  0  0  0  0
    2.0149    1.4278   -0.1252 N   0  0  0  0  0  0  0  0  0  0  0  0
    3.4433    1.6580   -0.0942 C   0  0  1  0  0  0  0  0  0  0  0  0
    4.1854    0.5867   -0.9100 C   0  0  0  0  0  0  0  0  0  0  0  0
    3.8819   -0.7976   -0.4149 C   0  0  0  0  0  0  0  0  0  0  0  0
    3.7637    3.0672   -0.5623 C   0  0  0  0  0  0  0  0  0  0  0  0
    3.3039    3.2223   -1.8857 O   0  0  0  0  0  0  0  0  0  0  0  0
   -1.8993   -0.1044   -0.8558 C   0  0  0  0  0  0  0  0  0  0  0  0
   -2.3804    0.4086    1.4366 C   0  0  0  0  0  0  0  0  0  0  0  0
   -1.0453    0.6989    1.6524 C   0  0  0  0  0  0  0  0  0  0  0  0
   -4.2479   -0.3240   -0.0464 C   0  0  0  0  0  0  0  0  0  0  0  0
   -5.9828   -1.6129   -1.0840 C   0  0  0  0  0  0  0  0  0  0  0  0
   -6.5849    0.0399    0.3453 C   0  0  0  0  0  0  0  0  0  0  0  0
    4.7619   -2.9628    2.0498 H   0  0  0  0  0  0  0  0  0  0  0  0
    3.0026   -4.3217    0.9573 H   0  0  0  0  0  0  0  0  0  0  0  0
    1.8089   -3.4201   -1.0157 H   0  0  0  0  0  0  0  0  0  0  0  0
    2.3760   -1.1900   -1.8907 H   0  0  0  0  0  0  0  0  0  0  0  0
    0.1273    0.0977   -1.4689 H   0  0  0  0  0  0  0  0  0  0  0  0
   -5.0461    1.2043    1.2607 H   0  0  0  0  0  0  0  0  0  0  0  0
   -3.9024   -1.9546   -1.4261 H   0  0  0  0  0  0  0  0  0  0  0  0
    1.5406    1.6330   -0.9902 H   0  0  0  0  0  0  0  0  0  0  0  0
    3.7630    1.5855    0.9461 H   0  0  0  0  0  0  0  0  0  0  0  0
    3.9130    0.6760   -1.9640 H   0  0  0  0  0  0  0  0  0  0  0  0
    5.2577    0.7881   -0.8391 H   0  0  0  0  0  0  0  0  0  0  0  0
    3.2843    3.7814    0.1179 H   0  0  0  0  0  0  0  0  0  0  0  0
    4.8476    3.2200   -0.4854 H   0  0  0  0  0  0  0  0  0  0  0  0
    3.4381    4.1367   -2.1501 H   0  0  0  0  0  0  0  0  0  0  0  0
   -2.2172   -0.4159   -1.8423 H   0  0  0  0  0  0  0  0  0  0  0  0
   -3.0751    0.4754    2.2638 H   0  0  0  0  0  0  0  0  0  0  0  0
   -0.7168    0.9956    2.6393 H   0  0  0  0  0  0  0  0  0  0  0  0
   -6.2917   -2.4139   -1.7467 H   0  0  0  0  0  0  0  0  0  0  0  0
   -7.3823    0.5900    0.8326 H   0  0  0  0  0  0  0  0  0  0  0  0
    1.3102    0.9238    0.9014 C   0  0  0  0  0  0  0  0  0  0  0  0
    5.3111   -0.7238    1.1823 H   0  0  0  0  0  0  0  0  0  0  0  0
  5  4  2  0
  5  6  1  0
  4  3  1  0
 12 44  2  0
  6 16  2  0
  3  2  2  0
 44  7  1  0
 44 13  1  0
  9 19  2  0
  9  7  1  0
 16  2  1  0
 16 15  1  0
 14 13  1  0
 14 15  1  0
 14 17  1  0
 19  8  1  0
  7 21  2  0
 18 17  1  0
 11 23  1  0
 11 22  2  0
  8 20  2  0
  8 22  1  0
 21 20  1  0
 23  1  2  0
 22 10  1  0
  1 24  1  0
 10 24  2  0
  2 45  1  0
  3 25  1  0
  4 26  1  0
  5 27  1  0
  6 28  1  0
  9 29  1  0
 10 30  1  0
 11 31  1  0
 13 32  1  0
 14 33  1  1
 15 34  1  0
 15 35  1  0
 17 36  1  0
 17 37  1  0
 18 38  1  0
 19 39  1  0
 20 40  1  0
 21 41  1  0
 23 42  1  0
 24 43  1  0
M  END
