
     RDKit          3D

 60 64  0  0  0  0  0  0  0  0999 V2000
   -6.9418    1.9156   -2.1628 C   0  0  0  0  0  0  0  0  0  0  0  0
    6.2840   -0.3045   -1.4373 C   0  0  0  0  0  0  0  0  0  0  0  0
    6.9349    0.9398   -1.3567 C   0  0  0  0  0  0  0  0  0  0  0  0
   -5.6995    1.9581   -2.7815 C   0  0  0  0  0  0  0  0  0  0  0  0
   -7.0310    2.0318   -0.7814 C   0  0  0  0  0  0  0  0  0  0  0  0
    4.9596   -0.4104   -1.1099 C   0  0  0  0  0  0  0  0  0  0  0  0
    6.2496    2.0452   -0.9306 C   0  0  0  0  0  0  0  0  0  0  0  0
    1.9556   -1.2484   -1.7430 C   0  0  0  0  0  0  0  0  0  0  0  0
    2.1951    1.7429    0.1387 C   0  0  0  0  0  0  0  0  0  0  0  0
    1.1938   -2.3889   -1.8710 C   0  0  0  0  0  0  0  0  0  0  0  0
    2.8614    2.9751    0.2586 C   0  0  0  0  0  0  0  0  0  0  0  0
   -4.5441    2.1105   -2.0259 C   0  0  0  0  0  0  0  0  0  0  0  0
   -5.8840    2.1872   -0.0154 C   0  0  0  0  0  0  0  0  0  0  0  0
   -1.8193    1.7008    1.5140 C   0  0  0  0  0  0  0  0  0  0  0  0
   -3.3331    0.0677    0.5677 C   0  0  0  0  0  0  0  0  0  0  0  0
   -1.1370    0.6945    2.1689 C   0  0  0  0  0  0  0  0  0  0  0  0
   -2.6496   -0.9359    1.2284 C   0  0  0  0  0  0  0  0  0  0  0  0
    1.4068   -1.1662    0.5937 C   0  0  0  0  0  0  0  0  0  0  0  0
    4.2154    0.7175   -0.6875 C   0  0  0  0  0  0  0  0  0  0  0  0
    4.8816    1.9704   -0.5741 C   0  0  0  0  0  0  0  0  0  0  0  0
    2.0658   -0.6235   -0.5001 C   0  0  0  0  0  0  0  0  0  0  0  0
    2.8352    0.6284   -0.3394 C   0  0  0  0  0  0  0  0  0  0  0  0
    0.5054   -2.9371   -0.7846 C   0  0  0  0  0  0  0  0  0  0  0  0
    4.1776    3.1151   -0.0963 C   0  0  0  0  0  0  0  0  0  0  0  0
    0.6135   -2.3067    0.4720 C   0  0  0  0  0  0  0  0  0  0  0  0
   -4.6518    2.2270   -0.6497 C   0  0  0  0  0  0  0  0  0  0  0  0
   -2.9146    1.3905    0.7098 C   0  0  0  0  0  0  0  0  0  0  0  0
   -1.5540   -0.6226    2.0223 C   0  0  0  0  0  0  0  0  0  0  0  0
    4.8624    4.4434    0.0235 C   0  0  0  0  0  0  0  0  0  0  0  0
   -0.0500   -2.8330    1.5769 N   0  0  0  0  0  0  0  0  0  0  0  0
   -0.9364   -4.7025   -0.0768 O   0  0  0  0  0  0  0  0  0  0  0  0
    0.3904   -1.3529    3.6026 O   0  0  0  0  0  0  0  0  0  0  0  0
   -1.6260   -2.8349    3.4596 O   0  0  0  0  0  0  0  0  0  0  0  0
   -0.3401   -4.5882   -2.2119 O   0  0  0  0  0  0  0  0  0  0  0  0
   -3.5104    2.4327    0.0951 O   0  0  0  0  0  0  0  0  0  0  0  0
   -0.6870   -1.9311    2.8194 S   0  0  1  0  0  0  0  0  0  0  0  0
   -7.8384    1.7956   -2.7562 H   0  0  0  0  0  0  0  0  0  0  0  0
    6.8329   -1.1821   -1.7529 H   0  0  0  0  0  0  0  0  0  0  0  0
    7.9811    1.0203   -1.6209 H   0  0  0  0  0  0  0  0  0  0  0  0
   -5.6245    1.8721   -3.8573 H   0  0  0  0  0  0  0  0  0  0  0  0
   -7.9970    2.0032   -0.2947 H   0  0  0  0  0  0  0  0  0  0  0  0
    4.4787   -1.3780   -1.1627 H   0  0  0  0  0  0  0  0  0  0  0  0
    6.7688    2.9917   -0.8617 H   0  0  0  0  0  0  0  0  0  0  0  0
    2.4549   -0.8354   -2.6090 H   0  0  0  0  0  0  0  0  0  0  0  0
    1.1457    1.6849    0.4016 H   0  0  0  0  0  0  0  0  0  0  0  0
    1.1218   -2.8559   -2.8425 H   0  0  0  0  0  0  0  0  0  0  0  0
    2.3116    3.8324    0.6276 H   0  0  0  0  0  0  0  0  0  0  0  0
   -3.5722    2.1464   -2.5014 H   0  0  0  0  0  0  0  0  0  0  0  0
   -5.9479    2.2822    1.0613 H   0  0  0  0  0  0  0  0  0  0  0  0
   -1.5058    2.7307    1.6232 H   0  0  0  0  0  0  0  0  0  0  0  0
   -4.1820   -0.1918   -0.0495 H   0  0  0  0  0  0  0  0  0  0  0  0
   -0.2887    0.9457    2.7905 H   0  0  0  0  0  0  0  0  0  0  0  0
   -2.9805   -1.9596    1.1078 H   0  0  0  0  0  0  0  0  0  0  0  0
    1.5482   -0.7045    1.5601 H   0  0  0  0  0  0  0  0  0  0  0  0
    5.7168    4.3975    0.7013 H   0  0  0  0  0  0  0  0  0  0  0  0
    5.2383    4.7913   -0.9404 H   0  0  0  0  0  0  0  0  0  0  0  0
    4.1775    5.1988    0.4045 H   0  0  0  0  0  0  0  0  0  0  0  0
   -0.5797   -3.6837    1.3779 H   0  0  0  0  0  0  0  0  0  0  0  0
   -0.8926   -5.3822   -2.2741 H   0  0  0  0  0  0  0  0  0  0  0  0
   -0.3211   -4.1476   -0.9684 C   0  0  0  0  0  0  0  0  0  0  0  0
 34 60  1  0
 60 31  2  0
 60 23  1  0
 10 23  1  0
 10  8  2  0
 23 25  2  0
  8 21  1  0
 25 30  1  0
 25 18  1  0
 21 18  2  0
 21 22  1  0
 36 30  1  6
 22  9  1  0
 22 19  2  0
  9 11  2  0
 17 15  2  0
 17 28  1  0
 15 27  1  0
  6 19  1  0
  6  2  2  0
 33 36  2  0
 19 20  1  0
 36 28  1  0
 36 32  2  0
 28 16  2  0
 11 24  1  0
 27 35  1  0
 27 14  2  0
 35 26  1  0
  2  3  1  0
 20 24  2  0
 20  7  1  0
 16 14  1  0
 24 29  1  0
 13 26  2  0
 13  5  1  0
  3  7  2  0
 26 12  1  0
  5  1  2  0
 12  4  2  0
  1  4  1  0
  1 37  1  0
  2 38  1  0
  3 39  1  0
  4 40  1  0
  5 41  1  0
  6 42  1  0
  7 43  1  0
  8 44  1  0
  9 45  1  0
 10 46  1  0
 11 47  1  0
 12 48  1  0
 13 49  1  0
 14 50  1  0
 15 51  1  0
 16 52  1  0
 17 53  1  0
 18 54  1  0
 29 55  1  0
 29 56  1  0
 29 57  1  0
 30 58  1  0
 34 59  1  0
M  END
