
     RDKit          3D

 40 41  0  0  0  0  0  0  0  0999 V2000
   -2.0618    0.0411    0.2009 C   0  0  0  0  0  0  0  0  0  0  0  0
   -1.2566    1.1751    0.1296 C   0  0  0  0  0  0  0  0  0  0  0  0
   -1.4589   -1.1924    0.4386 C   0  0  0  0  0  0  0  0  0  0  0  0
    0.1119    1.0860    0.3224 C   0  0  0  0  0  0  0  0  0  0  0  0
   -0.0888   -1.2827    0.6221 C   0  0  0  0  0  0  0  0  0  0  0  0
    0.7020   -0.1425    0.5727 C   0  0  0  0  0  0  0  0  0  0  0  0
    2.1096   -0.2001    0.7949 N   0  0  0  0  0  0  0  0  0  0  0  0
    3.0276   -0.4831   -0.5718 S   0  0  1  0  0  0  0  0  0  0  0  0
    3.3059   -1.9039   -0.7322 O   0  0  0  0  0  0  0  0  0  0  0  0
    2.3713    0.2213   -1.6601 O   0  0  0  0  0  0  0  0  0  0  0  0
    4.5347    0.3418   -0.1581 C   0  0  0  0  0  0  0  0  0  0  0  0
    5.7081   -0.3858   -0.0321 C   0  0  0  0  0  0  0  0  0  0  0  0
    4.5102    1.7229   -0.0013 C   0  0  0  0  0  0  0  0  0  0  0  0
    5.6906    2.3826    0.2949 C   0  0  0  0  0  0  0  0  0  0  0  0
    6.8850    0.2895    0.2627 C   0  0  0  0  0  0  0  0  0  0  0  0
    6.8760    1.6669    0.4263 C   0  0  0  0  0  0  0  0  0  0  0  0
    2.5630   -0.8773    2.0078 C   0  0  0  0  0  0  0  0  0  0  0  0
   -3.5618    0.2061   -0.0309 C   0  0  1  0  0  0  0  0  0  0  0  0
   -3.8633   -0.1077   -1.5138 C   0  0  1  0  0  0  0  0  0  0  0  0
   -4.4070   -0.6783    0.9276 C   0  0  1  0  0  0  0  0  0  0  0  0
   -3.4947   -1.3445   -1.8421 F   0  0  0  0  0  0  0  0  0  0  0  0
   -5.1568    0.0217   -1.8049 F   0  0  0  0  0  0  0  0  0  0  0  0
   -3.1908    0.7337   -2.2952 F   0  0  0  0  0  0  0  0  0  0  0  0
   -5.6934   -0.3459    0.8833 F   0  0  0  0  0  0  0  0  0  0  0  0
   -4.3316   -1.9848    0.6669 F   0  0  0  0  0  0  0  0  0  0  0  0
   -3.9895   -0.4904    2.1816 F   0  0  0  0  0  0  0  0  0  0  0  0
   -3.9940    1.5159    0.1325 O   0  0  0  0  0  0  0  0  0  0  0  0
   -1.6782    2.1488   -0.0773 H   0  0  0  0  0  0  0  0  0  0  0  0
   -2.0278   -2.1086    0.4809 H   0  0  0  0  0  0  0  0  0  0  0  0
    0.7223    1.9781    0.2835 H   0  0  0  0  0  0  0  0  0  0  0  0
    0.3515   -2.2533    0.8095 H   0  0  0  0  0  0  0  0  0  0  0  0
    5.7141   -1.4598   -0.1558 H   0  0  0  0  0  0  0  0  0  0  0  0
    3.5885    2.2811   -0.1014 H   0  0  0  0  0  0  0  0  0  0  0  0
    5.6859    3.4565    0.4219 H   0  0  0  0  0  0  0  0  0  0  0  0
    7.8070   -0.2661    0.3663 H   0  0  0  0  0  0  0  0  0  0  0  0
    7.7952    2.1879    0.6589 H   0  0  0  0  0  0  0  0  0  0  0  0
    2.3836   -1.9534    2.0013 H   0  0  0  0  0  0  0  0  0  0  0  0
    3.6286   -0.7040    2.1515 H   0  0  0  0  0  0  0  0  0  0  0  0
    2.0424   -0.4351    2.8534 H   0  0  0  0  0  0  0  0  0  0  0  0
   -3.6519    1.8855    0.9566 H   0  0  0  0  0  0  0  0  0  0  0  0
 14 16  2  0
 14 13  1  0
 16 15  1  0
 13 11  2  0
 15 12  2  0
 11 12  1  0
 11  8  1  0
 17  7  1  0
  9  8  2  0
  5  3  1  0
  5  6  2  0
 19 22  1  1
  3  1  2  0
  8  7  1  1
  8 10  2  0
  7  6  1  0
  6  4  1  0
 18 27  1  1
 19 21  1  0
 19 18  1  0
 19 23  1  0
  1 18  1  0
  1  2  1  0
 18 20  1  0
  4  2  2  0
 20 26  1  1
 20 24  1  0
 20 25  1  0
  2 28  1  0
  3 29  1  0
  4 30  1  0
  5 31  1  0
 12 32  1  0
 13 33  1  0
 14 34  1  0
 15 35  1  0
 16 36  1  0
 17 37  1  0
 17 38  1  0
 17 39  1  0
 27 40  1  0
M  END
