
     RDKit          3D

 60 65  0  0  0  0  0  0  0  0999 V2000
    4.9450    4.4700   -1.3049 C   0  0  0  0  0  0  0  0  0  0  0  0
    5.4145    3.5141   -0.2710 C   0  0  0  0  0  0  0  0  0  0  0  0
    6.5191    3.6907    0.4604 N   0  0  0  0  0  0  0  0  0  0  0  0
    6.8045    2.7224    1.3264 N   0  0  0  0  0  0  0  0  0  0  0  0
    5.8165    1.8447    1.1513 C   0  0  0  0  0  0  0  0  0  0  0  0
    5.5997    0.6129    1.8138 C   0  0  0  0  0  0  0  0  0  0  0  0
    4.5084   -0.1212    1.4546 C   0  0  0  0  0  0  0  0  0  0  0  0
    3.5879    0.3146    0.4500 C   0  0  0  0  0  0  0  0  0  0  0  0
    3.7762    1.5116   -0.1894 C   0  0  0  0  0  0  0  0  0  0  0  0
    4.9029    2.2870    0.1555 C   0  0  0  0  0  0  0  0  0  0  0  0
    2.4143   -0.5308    0.1395 C   0  0  0  0  0  0  0  0  0  0  0  0
    1.1431   -0.0392    0.3806 C   0  0  0  0  0  0  0  0  0  0  0  0
    0.0232   -0.8340    0.1495 C   0  0  0  0  0  0  0  0  0  0  0  0
   -1.1780   -0.2932    0.3970 O   0  0  0  0  0  0  0  0  0  0  0  0
   -2.3313   -1.0989    0.2234 C   0  0  0  0  0  0  0  0  0  0  0  0
   -3.5664   -0.2714    0.5275 C   0  0  1  0  0  0  0  0  0  0  0  0
   -3.6677    0.8292   -0.4123 N   0  0  0  0  0  0  0  0  0  0  0  0
   -4.7849   -1.2149    0.5671 C   0  0  0  0  0  0  0  0  0  0  0  0
   -6.0703   -0.5018    0.8254 C   0  0  0  0  0  0  0  0  0  0  0  0
   -6.6306   -0.2352    2.0439 C   0  0  0  0  0  0  0  0  0  0  0  0
   -7.7950    0.4633    1.8875 N   0  0  0  0  0  0  0  0  0  0  0  0
   -8.0246    0.6664    0.5593 C   0  0  0  0  0  0  0  0  0  0  0  0
   -9.0752    1.3127   -0.0912 C   0  0  0  0  0  0  0  0  0  0  0  0
   -9.0402    1.3564   -1.4716 C   0  0  0  0  0  0  0  0  0  0  0  0
   -7.9866    0.7707   -2.1944 C   0  0  0  0  0  0  0  0  0  0  0  0
   -6.9475    0.1334   -1.5458 C   0  0  0  0  0  0  0  0  0  0  0  0
   -6.9536    0.0730   -0.1467 C   0  0  0  0  0  0  0  0  0  0  0  0
    0.2424   -2.1319   -0.3043 C   0  0  0  0  0  0  0  0  0  0  0  0
    1.4565   -2.5971   -0.5582 N   0  0  0  0  0  0  0  0  0  0  0  0
    2.5293   -1.8381   -0.3702 C   0  0  0  0  0  0  0  0  0  0  0  0
    3.8009   -2.4583   -0.7552 C   0  0  0  0  0  0  0  0  0  0  0  0
    4.0135   -3.8716   -0.8911 C   0  0  0  0  0  0  0  0  0  0  0  0
    5.2847   -4.0268   -1.3154 C   0  0  0  0  0  0  0  0  0  0  0  0
    5.8769   -2.8221   -1.4645 O   0  0  0  0  0  0  0  0  0  0  0  0
    4.9774   -1.8818   -1.1246 C   0  0  0  0  0  0  0  0  0  0  0  0
    5.3014    4.1866   -2.2965 H   0  0  0  0  0  0  0  0  0  0  0  0
    3.8570    4.4863   -1.3398 H   0  0  0  0  0  0  0  0  0  0  0  0
    5.2906    5.4829   -1.1027 H   0  0  0  0  0  0  0  0  0  0  0  0
    6.2768    0.2672    2.5840 H   0  0  0  0  0  0  0  0  0  0  0  0
    4.3203   -1.0684    1.9444 H   0  0  0  0  0  0  0  0  0  0  0  0
    3.0832    1.8469   -0.9523 H   0  0  0  0  0  0  0  0  0  0  0  0
    1.0158    0.9626    0.7739 H   0  0  0  0  0  0  0  0  0  0  0  0
   -2.3849   -1.4767   -0.8060 H   0  0  0  0  0  0  0  0  0  0  0  0
   -2.2897   -1.9665    0.8917 H   0  0  0  0  0  0  0  0  0  0  0  0
   -3.4547    0.1598    1.5281 H   0  0  0  0  0  0  0  0  0  0  0  0
   -3.8662    0.4734   -1.3411 H   0  0  0  0  0  0  0  0  0  0  0  0
   -4.4563    1.4144   -0.1656 H   0  0  0  0  0  0  0  0  0  0  0  0
   -4.8475   -1.7588   -0.3825 H   0  0  0  0  0  0  0  0  0  0  0  0
   -4.6208   -1.9698    1.3409 H   0  0  0  0  0  0  0  0  0  0  0  0
   -6.2812   -0.5009    3.0297 H   0  0  0  0  0  0  0  0  0  0  0  0
   -9.8895    1.7629    0.4623 H   0  0  0  0  0  0  0  0  0  0  0  0
   -9.8415    1.8493   -2.0068 H   0  0  0  0  0  0  0  0  0  0  0  0
   -7.9938    0.8230   -3.2756 H   0  0  0  0  0  0  0  0  0  0  0  0
   -6.1416   -0.3172   -2.1135 H   0  0  0  0  0  0  0  0  0  0  0  0
   -0.5754   -2.8215   -0.4772 H   0  0  0  0  0  0  0  0  0  0  0  0
    3.3015   -4.6541   -0.6883 H   0  0  0  0  0  0  0  0  0  0  0  0
    5.8829   -4.8938   -1.5440 H   0  0  0  0  0  0  0  0  0  0  0  0
    5.3015   -0.8583   -1.2128 H   0  0  0  0  0  0  0  0  0  0  0  0
    7.1337    4.4903    0.4089 H   0  0  0  0  0  0  0  0  0  0  0  0
   -8.3958    0.7560    2.6396 H   0  0  0  0  0  0  0  0  0  0  0  0
  1  2  1  0
  1 36  1  0
  1 37  1  0
  1 38  1  0
  2  3  1  0
  2 10  2  0
  3  4  1  0
  4  5  2  0
 10  5  1  0
  5  6  1  0
  6  7  2  0
  6 39  1  0
  8  7  1  0
  7 40  1  0
  9  8  2  0
  8 11  1  0
 10  9  1  0
  9 41  1  0
 12 11  2  0
 11 30  1  0
 12 13  1  0
 12 42  1  0
 14 13  1  0
 13 28  2  0
 15 14  1  0
 16 15  1  0
 15 43  1  0
 15 44  1  0
 18 16  1  0
 16 17  1  0
 16 45  1  1
 17 46  1  0
 17 47  1  0
 18 19  1  0
 18 48  1  0
 18 49  1  0
 19 27  1  0
 19 20  2  0
 20 21  1  0
 20 50  1  0
 22 21  1  0
 27 22  2  0
 22 23  1  0
 24 23  2  0
 23 51  1  0
 25 24  1  0
 24 52  1  0
 26 25  2  0
 25 53  1  0
 26 27  1  0
 26 54  1  0
 28 29  1  0
 28 55  1  0
 30 29  2  0
 30 31  1  0
 32 31  1  0
 31 35  2  0
 32 33  2  0
 32 56  1  0
 33 34  1  0
 33 57  1  0
 35 34  1  0
 35 58  1  0
  3 59  1  0
 21 60  1  0
M  END
