
     RDKit          3D

 24 24  0  0  0  0  0  0  0  0999 V2000
   -2.1976    0.7276   -0.4113 O   0  0  0  0  0  0  0  0  0  0  0  0
   -0.7677    0.8604   -0.3824 C   0  0  1  0  0  0  0  0  0  0  0  0
   -0.3198    0.8883    1.0267 C   0  0  1  0  0  0  0  0  0  0  0  0
   -0.8744   -0.2955    1.7306 O   0  0  0  0  0  0  0  0  0  0  0  0
    1.1331    0.8642    1.1396 C   0  0  2  0  0  0  0  0  0  0  0  0
    1.6676    2.1150    0.6285 O   0  0  0  0  0  0  0  0  0  0  0  0
    1.7514   -0.2974    0.3573 C   0  0  0  0  0  0  0  0  0  0  0  0
    1.3031   -0.3222   -1.0460 O   0  0  0  0  0  0  0  0  0  0  0  0
   -0.1475   -0.3008   -1.1588 C   0  0  2  0  0  0  0  0  0  0  0  0
   -0.5053   -0.1780   -2.5400 O   0  0  0  0  0  0  0  0  0  0  0  0
   -0.7048   -1.6180   -0.6100 C   0  0  0  0  0  0  0  0  0  0  0  0
   -0.6332   -2.6076   -1.6059 O   0  0  0  0  0  0  0  0  0  0  0  0
   -2.5947    1.5776   -0.6174 H   0  0  0  0  0  0  0  0  0  0  0  0
   -0.4827    1.8001   -0.8634 H   0  0  0  0  0  0  0  0  0  0  0  0
   -0.6954    1.7984    1.4981 H   0  0  0  0  0  0  0  0  0  0  0  0
   -1.2640   -0.0252    2.5347 H   0  0  0  0  0  0  0  0  0  0  0  0
    1.3992    0.7622    2.1831 H   0  0  0  0  0  0  0  0  0  0  0  0
    2.1491    2.5494    1.3064 H   0  0  0  0  0  0  0  0  0  0  0  0
    2.8475   -0.1967    0.3791 H   0  0  0  0  0  0  0  0  0  0  0  0
    1.4667   -1.2344    0.8339 H   0  0  0  0  0  0  0  0  0  0  0  0
    0.2949   -0.0318   -3.0721 H   0  0  0  0  0  0  0  0  0  0  0  0
   -1.7519   -1.4762   -0.3092 H   0  0  0  0  0  0  0  0  0  0  0  0
   -0.1145   -1.9311    0.2579 H   0  0  0  0  0  0  0  0  0  0  0  0
   -0.9591   -3.4282   -1.2595 H   0  0  0  0  0  0  0  0  0  0  0  0
  4  3  1  0
  3  2  1  0
  3  5  1  0
  9 10  1  6
  6  5  1  0
  2  9  1  0
  2  1  1  0
  5  7  1  0
  9 11  1  0
  9  8  1  0
 12 11  1  0
  7  8  1  0
  1 13  1  0
  2 14  1  6
  3 15  1  1
  4 16  1  0
  5 17  1  1
  6 18  1  0
  7 19  1  0
  7 20  1  0
 10 21  1  0
 11 22  1  0
 11 23  1  0
 12 24  1  0
M  END
