
     RDKit          3D

 24 23  0  0  0  0  0  0  0  0999 V2000
    1.7689   -0.2840    2.4380 N   0  0  0  0  0  0  0  0  0  0  0  0
    0.4663    0.2843    2.1771 C   0  0  2  0  0  0  0  0  0  0  0  0
   -0.4365    0.0880    3.3866 C   0  0  0  0  0  0  0  0  0  0  0  0
   -0.6042   -0.9190    4.0763 O   0  0  0  0  0  0  0  0  0  0  0  0
   -0.3048   -0.2690    0.9642 C   0  0  0  0  0  0  0  0  0  0  0  0
    0.3932    0.1340   -0.3339 C   0  0  0  0  0  0  0  0  0  0  0  0
   -0.3495   -0.2925   -1.5040 N   0  0  0  0  0  0  0  0  0  0  0  0
    0.0445    0.0317   -2.8443 C   0  0  0  0  0  0  0  0  0  0  0  0
   -0.8884   -0.5265   -3.8634 N   0  0  0  0  0  0  0  0  0  0  0  0
    1.1117    0.7408   -3.0871 N   0  0  0  0  0  0  0  0  0  0  0  0
   -0.7115   -0.3454   -5.1762 O   0  0  0  0  0  0  0  0  0  0  0  0
   -1.1399    1.2027    3.7217 O   0  0  0  0  0  0  0  0  0  0  0  0
    1.8063   -1.2484    2.1686 H   0  0  0  0  0  0  0  0  0  0  0  0
    2.4771    0.2341    1.9562 H   0  0  0  0  0  0  0  0  0  0  0  0
    0.6135    1.3979    2.0292 H   0  0  0  0  0  0  0  0  0  0  0  0
   -0.3832   -1.3849    1.0363 H   0  0  0  0  0  0  0  0  0  0  0  0
   -1.3458    0.1488    0.9928 H   0  0  0  0  0  0  0  0  0  0  0  0
    0.5587    1.2518   -0.3239 H   0  0  0  0  0  0  0  0  0  0  0  0
    1.4070   -0.3578   -0.3866 H   0  0  0  0  0  0  0  0  0  0  0  0
   -1.1776   -0.8400   -1.3683 H   0  0  0  0  0  0  0  0  0  0  0  0
   -1.6992   -1.0709   -3.5655 H   0  0  0  0  0  0  0  0  0  0  0  0
    1.2992    0.9114   -4.0524 H   0  0  0  0  0  0  0  0  0  0  0  0
   -0.8540    0.6115   -5.3194 H   0  0  0  0  0  0  0  0  0  0  0  0
   -1.6958    1.0174    4.4972 H   0  0  0  0  0  0  0  0  0  0  0  0
  1  2  1  0
  1 13  1  0
  1 14  1  0
  2  3  1  0
  2  5  1  0
  2 15  1  6
  3  4  2  0
  3 12  1  0
  5  6  1  0
  5 16  1  0
  5 17  1  0
  6  7  1  0
  6 18  1  0
  6 19  1  0
  7  8  1  0
  7 20  1  0
  8  9  1  0
  8 10  2  0
  9 11  1  0
  9 21  1  0
 10 22  1  0
 11 23  1  0
 12 24  1  0
M  END
