
     RDKit          3D

 30 31  0  0  0  0  0  0  0  0999 V2000
    0.4743   -2.5648    0.1783 C   0  0  0  0  0  0  0  0  0  0  0  0
   -3.1281    2.2676    0.1155 C   0  0  0  0  0  0  0  0  0  0  0  0
    3.2947    1.3125   -0.4109 C   0  0  0  0  0  0  0  0  0  0  0  0
   -0.5047   -0.3599    0.5024 C   0  0  0  0  0  0  0  0  0  0  0  0
   -1.6689    0.5282    0.8515 C   0  0  0  0  0  0  0  0  0  0  0  0
    0.7594    0.2145    0.1846 C   0  0  0  0  0  0  0  0  0  0  0  0
    1.8689   -0.6198   -0.1177 C   0  0  0  0  0  0  0  0  0  0  0  0
   -0.6288   -1.7330    0.4864 C   0  0  0  0  0  0  0  0  0  0  0  0
    1.6891   -2.0211   -0.1130 C   0  0  0  0  0  0  0  0  0  0  0  0
    0.9672    1.6175    0.1655 C   0  0  0  0  0  0  0  0  0  0  0  0
    3.1264   -0.0447   -0.4127 C   0  0  0  0  0  0  0  0  0  0  0  0
   -2.7852    0.3604   -1.2767 C   0  0  0  0  0  0  0  0  0  0  0  0
    2.1980    2.1473   -0.1172 C   0  0  0  0  0  0  0  0  0  0  0  0
   -2.1923    1.2468   -0.3004 N   0  0  0  0  0  0  0  0  0  0  0  0
   -1.8262   -2.2875    0.7664 O   0  0  0  0  0  0  0  0  0  0  0  0
    0.3470   -3.6417    0.1769 H   0  0  0  0  0  0  0  0  0  0  0  0
   -2.6366    2.9763    0.7845 H   0  0  0  0  0  0  0  0  0  0  0  0
   -3.4853    2.8221   -0.7538 H   0  0  0  0  0  0  0  0  0  0  0  0
   -4.0104    1.8678    0.6409 H   0  0  0  0  0  0  0  0  0  0  0  0
    4.2600    1.7460   -0.6366 H   0  0  0  0  0  0  0  0  0  0  0  0
   -2.4556   -0.0523    1.3545 H   0  0  0  0  0  0  0  0  0  0  0  0
   -1.3383    1.2731    1.5819 H   0  0  0  0  0  0  0  0  0  0  0  0
    2.5295   -2.6646   -0.3433 H   0  0  0  0  0  0  0  0  0  0  0  0
    0.1405    2.2850    0.3631 H   0  0  0  0  0  0  0  0  0  0  0  0
    3.9584   -0.7010   -0.6398 H   0  0  0  0  0  0  0  0  0  0  0  0
   -3.6526   -0.1967   -0.8879 H   0  0  0  0  0  0  0  0  0  0  0  0
   -3.1217    0.9373   -2.1394 H   0  0  0  0  0  0  0  0  0  0  0  0
   -2.0531   -0.3653   -1.6321 H   0  0  0  0  0  0  0  0  0  0  0  0
    2.3290    3.2220   -0.1209 H   0  0  0  0  0  0  0  0  0  0  0  0
   -1.7705   -3.2477    0.7142 H   0  0  0  0  0  0  0  0  0  0  0  0
 15  8  1  0
  1  8  2  0
  1  9  1  0
  8  4  1  0
  9  7  2  0
  4  5  1  0
  4  6  2  0
  7  6  1  0
  7 11  1  0
  5 14  1  0
  6 10  1  0
 11  3  2  0
 12 14  1  0
 14  2  1  0
 10 13  2  0
  3 13  1  0
  1 16  1  0
  2 17  1  0
  2 18  1  0
  2 19  1  0
  3 20  1  0
  5 21  1  0
  5 22  1  0
  9 23  1  0
 10 24  1  0
 11 25  1  0
 12 26  1  0
 12 27  1  0
 12 28  1  0
 13 29  1  0
 15 30  1  0
M  END
