
     RDKit          3D

 37 38  0  0  0  0  0  0  0  0999 V2000
   -0.9271    0.5325    0.9235 C   0  0  0  0  0  0  0  0  0  0  0  0
   -1.7921   -0.4417    0.3414 C   0  0  0  0  0  0  0  0  0  0  0  0
   -3.1526   -0.1125    0.0891 C   0  0  0  0  0  0  0  0  0  0  0  0
   -3.6357    1.1715    0.4333 C   0  0  0  0  0  0  0  0  0  0  0  0
   -2.8000    2.0820    1.0157 C   0  0  0  0  0  0  0  0  0  0  0  0
   -1.4521    1.7551    1.2581 C   0  0  0  0  0  0  0  0  0  0  0  0
   -1.3497   -1.7491    0.0158 C   0  0  0  0  0  0  0  0  0  0  0  0
   -2.2017   -2.6674   -0.5376 C   0  0  0  0  0  0  0  0  0  0  0  0
   -3.5452   -2.3309   -0.8000 C   0  0  0  0  0  0  0  0  0  0  0  0
   -4.0068   -1.0815   -0.4903 C   0  0  0  0  0  0  0  0  0  0  0  0
    0.5185    0.2245    1.1891 C   0  0  0  0  0  0  0  0  0  0  0  0
    1.4165    0.1603   -0.0659 C   0  0  2  0  0  0  0  0  0  0  0  0
    4.4575   -1.9010    0.9569 C   0  0  0  0  0  0  0  0  0  0  0  0
    2.7253   -0.3469    0.3244 N   0  0  0  0  0  0  0  0  0  0  0  0
    2.1885   -2.5327    0.5667 O   0  0  0  0  0  0  0  0  0  0  0  0
    1.5976    1.6097   -0.8670 B   0  0  1  0  0  0  0  0  0  0  0  0
   -4.6738    1.4144    0.2395 H   0  0  0  0  0  0  0  0  0  0  0  0
   -3.1682    3.0609    1.2955 H   0  0  0  0  0  0  0  0  0  0  0  0
   -0.8157    2.4958    1.7288 H   0  0  0  0  0  0  0  0  0  0  0  0
   -0.3225   -2.0311    0.2098 H   0  0  0  0  0  0  0  0  0  0  0  0
   -1.8434   -3.6606   -0.7769 H   0  0  0  0  0  0  0  0  0  0  0  0
   -4.2084   -3.0645   -1.2404 H   0  0  0  0  0  0  0  0  0  0  0  0
   -5.0401   -0.8172   -0.6824 H   0  0  0  0  0  0  0  0  0  0  0  0
    0.5807   -0.7212    1.7373 H   0  0  0  0  0  0  0  0  0  0  0  0
    0.9193    0.9815    1.8697 H   0  0  0  0  0  0  0  0  0  0  0  0
    0.9791   -0.5716   -0.7548 H   0  0  0  0  0  0  0  0  0  0  0  0
    4.8528   -2.6778    0.3025 H   0  0  0  0  0  0  0  0  0  0  0  0
    5.1049   -1.0287    0.8852 H   0  0  0  0  0  0  0  0  0  0  0  0
    4.5103   -2.2818    1.9774 H   0  0  0  0  0  0  0  0  0  0  0  0
    3.4845    0.3138    0.3367 H   0  0  0  0  0  0  0  0  0  0  0  0
    2.7597    0.7500   -2.2629 H   0  0  0  0  0  0  0  0  0  0  0  0
    0.3747    2.6700   -2.0392 H   0  0  0  0  0  0  0  0  0  0  0  0
    1.1600    2.8831    0.6162 H   0  0  0  0  0  0  0  0  0  0  0  0
    3.0153   -1.6205    0.5977 C   0  0  0  0  0  0  0  0  0  0  0  0
    2.7754    1.5650   -1.7562 O   0  0  0  0  0  0  0  0  0  0  0  0
    0.3401    1.8169   -1.5963 O   0  0  0  0  0  0  0  0  0  0  0  0
    1.9151    2.7219    0.0471 O   0  0  0  0  0  0  0  0  0  0  0  0
  1  2  2  0
  1  6  1  0
  1 11  1  0
  2  3  1  0
  2  7  1  0
  3  4  2  0
  3 10  1  0
  4  5  1  0
  4 17  1  0
  5  6  2  0
  5 18  1  0
  6 19  1  0
  7  8  2  0
  7 20  1  0
  8  9  1  0
  8 21  1  0
  9 10  2  0
  9 22  1  0
 10 23  1  0
 11 12  1  0
 11 24  1  0
 11 25  1  0
 12 14  1  0
 12 16  1  0
 12 26  1  6
 13 34  1  0
 13 27  1  0
 13 28  1  0
 13 29  1  0
 34 14  1  0
 34 15  2  0
 14 30  1  0
 16 35  1  6
 35 31  1  0
 36 16  1  0
 36 32  1  0
 37 16  1  0
 37 33  1  0
M  CHG  1  16  -1
M  END
