
     RDKit          3D

 17 16  0  0  0  0  0  0  0  0999 V2000
    1.3953    0.6250    1.4239 O   0  0  0  0  0  0  0  0  0  0  0  0
    1.2518    0.1357    0.0642 S   0  0  1  0  0  0  0  0  0  0  0  0
    1.4163    1.0921   -1.0162 O   0  0  0  0  0  0  0  0  0  0  0  0
    2.2386   -1.1068   -0.1656 O   0  0  0  0  0  0  0  0  0  0  0  0
   -0.2891   -0.7350   -0.1136 C   0  0  0  0  0  0  0  0  0  0  0  0
   -1.4633    0.2173    0.0660 C   0  0  0  0  0  0  0  0  0  0  0  0
   -2.7818   -0.5313   -0.0846 C   0  0  0  0  0  0  0  0  0  0  0  0
   -3.8980    0.3838    0.0833 N   0  0  0  0  0  0  0  0  0  0  0  0
   -0.2870   -1.1904   -1.1054 H   0  0  0  0  0  0  0  0  0  0  0  0
   -0.2979   -1.5283    0.6357 H   0  0  0  0  0  0  0  0  0  0  0  0
   -1.4288    0.6839    1.0521 H   0  0  0  0  0  0  0  0  0  0  0  0
   -1.4121    1.0158   -0.6787 H   0  0  0  0  0  0  0  0  0  0  0  0
   -2.7835   -1.0614   -1.0475 H   0  0  0  0  0  0  0  0  0  0  0  0
   -2.8464   -1.2987    0.6905 H   0  0  0  0  0  0  0  0  0  0  0  0
   -3.9441    1.0060   -0.7144 H   0  0  0  0  0  0  0  0  0  0  0  0
   -4.7646   -0.1379    0.0728 H   0  0  0  0  0  0  0  0  0  0  0  0
    3.1718   -0.8330   -0.1428 H   0  0  0  0  0  0  0  0  0  0  0  0
  7  8  1  0
  7  6  1  0
  6  5  1  0
  5  2  1  0
  3  2  2  0
  2  1  2  0
  2  4  1  6
  5  9  1  0
  5 10  1  0
  6 11  1  0
  6 12  1  0
  7 13  1  0
  7 14  1  0
  8 15  1  0
  8 16  1  0
  4 17  1  0
M  END
