
     RDKit          3D

 46 49  0  0  0  0  0  0  0  0999 V2000
   -1.3128    0.6021   -0.1439 C   0  0  0  0  0  0  0  0  0  0  0  0
   -1.2515    1.9862   -0.3314 C   0  0  0  0  0  0  0  0  0  0  0  0
   -0.0379    2.6367   -0.4110 C   0  0  0  0  0  0  0  0  0  0  0  0
    1.1568    1.9201   -0.3178 C   0  0  0  0  0  0  0  0  0  0  0  0
    1.1221    0.5369   -0.1522 C   0  0  0  0  0  0  0  0  0  0  0  0
   -0.1134   -0.0932   -0.0549 C   0  0  0  0  0  0  0  0  0  0  0  0
    2.2977    2.6259   -0.4052 O   0  0  0  0  0  0  0  0  0  0  0  0
    3.4970    2.0280    0.1218 C   0  0  1  0  0  0  0  0  0  0  0  0
    3.6049    0.6047   -0.4121 C   0  0  0  0  0  0  0  0  0  0  0  0
    2.3984   -0.2704   -0.0510 C   0  0  2  0  0  0  0  0  0  0  0  0
   -2.6062   -0.1009   -0.0454 C   0  0  0  0  0  0  0  0  0  0  0  0
    4.6378    2.8717   -0.4225 C   0  0  0  0  0  0  0  0  0  0  0  0
    3.4639    2.1001    1.6444 C   0  0  0  0  0  0  0  0  0  0  0  0
    2.3454   -1.4466   -1.0352 C   0  0  0  0  0  0  0  0  0  0  0  0
    2.4557   -2.5605   -0.2609 N   0  0  0  0  0  0  0  0  0  0  0  0
    2.5567   -2.1541    1.0693 C   0  0  0  0  0  0  0  0  0  0  0  0
    2.5290   -0.8872    1.2565 N   0  0  0  0  0  0  0  0  0  0  0  0
    2.6152   -3.0958    2.0306 N   0  0  0  0  0  0  0  0  0  0  0  0
    2.2354   -1.4135   -2.2393 O   0  0  0  0  0  0  0  0  0  0  0  0
    2.4412   -3.9227   -0.7371 C   0  0  0  0  0  0  0  0  0  0  0  0
   -3.6802    0.4907    0.6213 C   0  0  0  0  0  0  0  0  0  0  0  0
   -4.8911   -0.1754    0.7057 C   0  0  0  0  0  0  0  0  0  0  0  0
   -5.0718   -1.4306    0.1469 C   0  0  0  0  0  0  0  0  0  0  0  0
   -4.0018   -2.0180   -0.5130 C   0  0  0  0  0  0  0  0  0  0  0  0
   -2.7839   -1.3638   -0.6124 C   0  0  0  0  0  0  0  0  0  0  0  0
   -6.2095    0.5795    1.5436 Cl  0  0  0  0  0  0  0  0  0  0  0  0
   -2.1620    2.5647   -0.4251 H   0  0  0  0  0  0  0  0  0  0  0  0
   -0.0019    3.7100   -0.5489 H   0  0  0  0  0  0  0  0  0  0  0  0
   -0.1424   -1.1638    0.1161 H   0  0  0  0  0  0  0  0  0  0  0  0
    3.6965    0.6578   -1.5011 H   0  0  0  0  0  0  0  0  0  0  0  0
    4.5165    0.1363   -0.0365 H   0  0  0  0  0  0  0  0  0  0  0  0
    4.5389    3.9125   -0.1113 H   0  0  0  0  0  0  0  0  0  0  0  0
    5.5890    2.4992   -0.0430 H   0  0  0  0  0  0  0  0  0  0  0  0
    4.6730    2.8388   -1.5123 H   0  0  0  0  0  0  0  0  0  0  0  0
    2.6254    1.5519    2.0708 H   0  0  0  0  0  0  0  0  0  0  0  0
    4.3767    1.6686    2.0560 H   0  0  0  0  0  0  0  0  0  0  0  0
    3.4048    3.1390    1.9721 H   0  0  0  0  0  0  0  0  0  0  0  0
    2.9817   -4.0074    1.8108 H   0  0  0  0  0  0  0  0  0  0  0  0
    2.8431   -2.7684    2.9553 H   0  0  0  0  0  0  0  0  0  0  0  0
    3.3679   -4.4359   -0.4818 H   0  0  0  0  0  0  0  0  0  0  0  0
    1.5987   -4.4724   -0.3190 H   0  0  0  0  0  0  0  0  0  0  0  0
    2.3447   -3.9115   -1.8191 H   0  0  0  0  0  0  0  0  0  0  0  0
   -3.5643    1.4595    1.0895 H   0  0  0  0  0  0  0  0  0  0  0  0
   -6.0236   -1.9386    0.2195 H   0  0  0  0  0  0  0  0  0  0  0  0
   -4.1280   -2.9933   -0.9639 H   0  0  0  0  0  0  0  0  0  0  0  0
   -1.9740   -1.8323   -1.1565 H   0  0  0  0  0  0  0  0  0  0  0  0
 19 14  2  0
  8 12  1  6
 14 15  1  0
 14 10  1  0
 20 15  1  0
  9  8  1  0
  9 10  1  0
 15 16  1  0
  7  8  1  0
  7  4  1  0
  8 13  1  0
 10  5  1  0
 10 17  1  1
  4  5  2  0
  4  3  1  0
  5  6  1  0
  3  2  2  0
  6  1  2  0
  2  1  1  0
 16 17  2  0
 16 18  1  0
 25 24  2  0
 25 11  1  0
  1 11  1  0
 24 23  1  0
 11 21  2  0
 23 22  2  0
 21 22  1  0
 22 26  1  0
  2 27  1  0
  3 28  1  0
  6 29  1  0
  9 30  1  0
  9 31  1  0
 12 32  1  0
 12 33  1  0
 12 34  1  0
 13 35  1  0
 13 36  1  0
 13 37  1  0
 18 38  1  0
 18 39  1  0
 20 40  1  0
 20 41  1  0
 20 42  1  0
 21 43  1  0
 23 44  1  0
 24 45  1  0
 25 46  1  0
M  END
