
     RDKit          3D

 20 20  0  0  0  0  0  0  0  0999 V2000
    0.5892   -1.0096   -0.3574 N   0  0  0  0  0  0  0  0  0  0  0  0
    0.0131   -0.0888    0.6157 C   0  0  2  0  0  0  0  0  0  0  0  0
   -1.4243    0.2997    0.2746 C   0  0  2  0  0  0  0  0  0  0  0  0
   -2.3603   -0.8060    0.2289 N   0  0  0  0  0  0  0  0  0  0  0  0
    1.0032    1.0948    0.6553 C   0  0  0  0  0  0  0  0  0  0  0  0
    2.2407    0.6090   -0.1183 C   0  0  0  0  0  0  0  0  0  0  0  0
    2.0316   -0.8968   -0.2172 C   0  0  0  0  0  0  0  0  0  0  0  0
   -1.4256    0.9642   -0.9601 O   0  0  0  0  0  0  0  0  0  0  0  0
   -0.0255   -0.5435    1.6189 H   0  0  0  0  0  0  0  0  0  0  0  0
    2.4115   -1.3842    0.6937 H   0  0  0  0  0  0  0  0  0  0  0  0
    2.5479   -1.3464   -1.0679 H   0  0  0  0  0  0  0  0  0  0  0  0
    0.5821    1.9892    0.1980 H   0  0  0  0  0  0  0  0  0  0  0  0
    1.2476    1.3507    1.6863 H   0  0  0  0  0  0  0  0  0  0  0  0
   -2.0049   -1.5490   -0.3636 H   0  0  0  0  0  0  0  0  0  0  0  0
   -2.4767   -1.2014    1.1538 H   0  0  0  0  0  0  0  0  0  0  0  0
    2.2687    1.0504   -1.1159 H   0  0  0  0  0  0  0  0  0  0  0  0
    3.1784    0.8614    0.3767 H   0  0  0  0  0  0  0  0  0  0  0  0
   -2.3372    1.2094   -1.1496 H   0  0  0  0  0  0  0  0  0  0  0  0
   -1.7746    0.9634    1.0799 H   0  0  0  0  0  0  0  0  0  0  0  0
    0.2859   -1.9593   -0.1864 H   0  0  0  0  0  0  0  0  0  0  0  0
  1  2  1  0
  1  7  1  0
  2  3  1  0
  2  5  1  0
  3  4  1  0
  3  8  1  0
  5  6  1  0
  6  7  1  0
  2  9  1  1
  7 10  1  0
  7 11  1  0
  5 12  1  0
  5 13  1  0
  4 14  1  0
  4 15  1  0
  6 16  1  0
  6 17  1  0
  8 18  1  0
  3 19  1  1
  1 20  1  0
M  END
