
     RDKit          3D

 47 50  0  0  0  0  0  0  0  0999 V2000
   -0.7229    2.7768    0.0508 C   0  0  0  0  0  0  0  0  0  0  0  0
   -0.3168    1.3322    0.1197 C   0  0  0  0  0  0  0  0  0  0  0  0
   -1.1848    0.3024    0.0541 C   0  0  0  0  0  0  0  0  0  0  0  0
   -2.6528    0.4973    0.0762 C   0  0  0  0  0  0  0  0  0  0  0  0
   -3.4616   -0.0813   -0.9013 C   0  0  0  0  0  0  0  0  0  0  0  0
   -4.8375    0.0790   -0.8918 C   0  0  0  0  0  0  0  0  0  0  0  0
   -5.4458    0.8156    0.1226 C   0  0  0  0  0  0  0  0  0  0  0  0
   -6.7792    1.0011    0.1879 O   0  0  0  0  0  0  0  0  0  0  0  0
   -4.6571    1.3820    1.1211 C   0  0  0  0  0  0  0  0  0  0  0  0
   -3.2818    1.2205    1.0904 C   0  0  0  0  0  0  0  0  0  0  0  0
   -0.7405   -1.1062   -0.0609 C   0  0  0  0  0  0  0  0  0  0  0  0
    0.2227   -1.4994   -0.9879 C   0  0  0  0  0  0  0  0  0  0  0  0
    0.6272   -2.8203   -1.0974 C   0  0  0  0  0  0  0  0  0  0  0  0
    0.0705   -3.7904   -0.2687 C   0  0  0  0  0  0  0  0  0  0  0  0
    0.4265   -5.0894   -0.3236 O   0  0  0  0  0  0  0  0  0  0  0  0
   -0.9054   -3.4197    0.6547 C   0  0  0  0  0  0  0  0  0  0  0  0
   -1.3060   -2.0983    0.7426 C   0  0  0  0  0  0  0  0  0  0  0  0
    1.1402    1.1077    0.2905 C   0  0  0  0  0  0  0  0  0  0  0  0
    1.6122    0.3221    1.3739 C   0  0  0  0  0  0  0  0  0  0  0  0
    2.9479    0.1339    1.5828 C   0  0  0  0  0  0  0  0  0  0  0  0
    3.9068    0.7076    0.7147 C   0  0  0  0  0  0  0  0  0  0  0  0
    5.2971    0.5249    0.8961 C   0  0  0  0  0  0  0  0  0  0  0  0
    6.1941    1.0923    0.0313 C   0  0  0  0  0  0  0  0  0  0  0  0
    5.7398    1.8704   -1.0546 C   0  0  0  0  0  0  0  0  0  0  0  0
    4.3997    2.0687   -1.2501 C   0  0  0  0  0  0  0  0  0  0  0  0
    3.4491    1.4959   -0.3717 C   0  0  0  0  0  0  0  0  0  0  0  0
    2.0600    1.6880   -0.5483 C   0  0  0  0  0  0  0  0  0  0  0  0
   -0.1186    3.3032   -0.6905 H   0  0  0  0  0  0  0  0  0  0  0  0
   -1.7682    2.9111   -0.2164 H   0  0  0  0  0  0  0  0  0  0  0  0
   -0.5482    3.2811    1.0040 H   0  0  0  0  0  0  0  0  0  0  0  0
   -3.0089   -0.6638   -1.6947 H   0  0  0  0  0  0  0  0  0  0  0  0
   -5.4363   -0.3730   -1.6745 H   0  0  0  0  0  0  0  0  0  0  0  0
   -7.2151    0.5702   -0.5557 H   0  0  0  0  0  0  0  0  0  0  0  0
   -5.1233    1.9407    1.9232 H   0  0  0  0  0  0  0  0  0  0  0  0
   -2.6869    1.6576    1.8832 H   0  0  0  0  0  0  0  0  0  0  0  0
    0.6661   -0.7653   -1.6482 H   0  0  0  0  0  0  0  0  0  0  0  0
    1.3735   -3.0921   -1.8358 H   0  0  0  0  0  0  0  0  0  0  0  0
    1.1109   -5.2220   -0.9889 H   0  0  0  0  0  0  0  0  0  0  0  0
   -1.3489   -4.1681    1.2997 H   0  0  0  0  0  0  0  0  0  0  0  0
   -2.0705   -1.8345    1.4636 H   0  0  0  0  0  0  0  0  0  0  0  0
    0.8954   -0.1257    2.0500 H   0  0  0  0  0  0  0  0  0  0  0  0
    3.2872   -0.4574    2.4253 H   0  0  0  0  0  0  0  0  0  0  0  0
    5.6443   -0.0706    1.7322 H   0  0  0  0  0  0  0  0  0  0  0  0
    7.2563    0.9448    0.1771 H   0  0  0  0  0  0  0  0  0  0  0  0
    6.4576    2.3118   -1.7336 H   0  0  0  0  0  0  0  0  0  0  0  0
    4.0515    2.6660   -2.0846 H   0  0  0  0  0  0  0  0  0  0  0  0
    1.7306    2.2921   -1.3867 H   0  0  0  0  0  0  0  0  0  0  0  0
  8  7  1  0
  9  7  2  0
  9 10  1  0
  7  6  1  0
 10  4  2  0
  6  5  2  0
  4  5  1  0
  4  3  1  0
  3 11  1  0
  3  2  2  0
 12 11  2  0
 12 13  1  0
 11 17  1  0
 13 14  2  0
 17 16  2  0
 14 16  1  0
 14 15  1  0
  1  2  1  0
  2 18  1  0
 18 27  1  0
 18 19  2  0
 27 26  2  0
 19 20  1  0
 26 25  1  0
 26 21  1  0
 25 24  2  0
 20 21  2  0
 21 22  1  0
 24 23  1  0
 22 23  2  0
  1 28  1  0
  1 29  1  0
  1 30  1  0
  5 31  1  0
  6 32  1  0
  8 33  1  0
  9 34  1  0
 10 35  1  0
 12 36  1  0
 13 37  1  0
 15 38  1  0
 16 39  1  0
 17 40  1  0
 19 41  1  0
 20 42  1  0
 22 43  1  0
 23 44  1  0
 24 45  1  0
 25 46  1  0
 27 47  1  0
M  END
