
     RDKit          3D

 19 19  0  0  0  0  0  0  0  0999 V2000
    2.2299    0.9208    0.0139 C   0  0  0  0  0  0  0  0  0  0  0  0
    0.7684   -0.9551    0.0232 C   0  0  0  0  0  0  0  0  0  0  0  0
   -1.7153   -0.6293    0.0936 C   0  0  0  0  0  0  0  0  0  0  0  0
   -0.3453   -0.1040    0.0632 C   0  0  0  0  0  0  0  0  0  0  0  0
   -0.1498    1.2881    0.0760 C   0  0  0  0  0  0  0  0  0  0  0  0
    1.1558    1.7835    0.0522 C   0  0  0  0  0  0  0  0  0  0  0  0
   -1.7988   -1.9457    0.0813 O   0  0  0  0  0  0  0  0  0  0  0  0
   -2.7053    0.0847    0.1284 O   0  0  0  0  0  0  0  0  0  0  0  0
   -1.1487    2.1719    0.1149 O   0  0  0  0  0  0  0  0  0  0  0  0
    2.0607   -0.4695   -0.0050 C   0  0  0  0  0  0  0  0  0  0  0  0
    3.2456   -1.3879   -0.0774 C   0  0  0  0  0  0  0  0  0  0  0  0
    3.2320    1.3333    0.0028 H   0  0  0  0  0  0  0  0  0  0  0  0
    0.6129   -2.0262    0.0152 H   0  0  0  0  0  0  0  0  0  0  0  0
    1.3109    2.8549    0.0670 H   0  0  0  0  0  0  0  0  0  0  0  0
   -2.7284   -2.2198    0.1026 H   0  0  0  0  0  0  0  0  0  0  0  0
   -1.9941    1.6781    0.1281 H   0  0  0  0  0  0  0  0  0  0  0  0
    3.6502   -1.4337   -1.0906 H   0  0  0  0  0  0  0  0  0  0  0  0
    4.0530   -1.0486    0.5723 H   0  0  0  0  0  0  0  0  0  0  0  0
    2.9836   -2.4031    0.2177 H   0  0  0  0  0  0  0  0  0  0  0  0
 11 10  1  0
 10  2  1  0
 10  1  2  0
  2  4  2  0
  1  6  1  0
  8  3  2  0
  4  3  1  0
  4  5  1  0
  3  7  1  0
  6  5  2  0
  5  9  1  0
  1 12  1  0
  2 13  1  0
  6 14  1  0
  7 15  1  0
  9 16  1  0
 11 17  1  0
 11 18  1  0
 11 19  1  0
M  END
