
     RDKit          3D

 38 39  0  0  0  0  0  0  0  0999 V2000
   -0.2312   -3.7053    0.1105 C   0  0  0  0  0  0  0  0  0  0  0  0
    0.8099   -2.8042    0.3538 C   0  0  0  0  0  0  0  0  0  0  0  0
    0.5623   -1.4399    0.3839 C   0  0  0  0  0  0  0  0  0  0  0  0
    1.5623   -0.4896    0.6370 N   0  0  0  0  0  0  0  0  0  0  0  0
    2.7883   -0.4779    0.0423 C   0  0  0  0  0  0  0  0  0  0  0  0
    3.1932   -1.3326   -0.7125 O   0  0  0  0  0  0  0  0  0  0  0  0
    3.4504    0.6064    0.4313 O   0  0  0  0  0  0  0  0  0  0  0  0
    4.7697    0.9498   -0.0745 C   0  0  1  0  0  0  0  0  0  0  0  0
    5.8008   -0.0775    0.3724 C   0  0  0  0  0  0  0  0  0  0  0  0
    4.7536    1.1194   -1.5897 C   0  0  0  0  0  0  0  0  0  0  0  0
    5.0443    2.2940    0.5864 C   0  0  0  0  0  0  0  0  0  0  0  0
   -0.7483   -1.0020    0.1826 C   0  0  0  0  0  0  0  0  0  0  0  0
   -1.3192    0.6361    0.1483 S   0  0  0  0  0  0  0  0  0  0  0  0
   -2.9661    0.1455   -0.1579 C   0  0  0  0  0  0  0  0  0  0  0  0
   -4.1000    1.3362   -0.2290 B   0  0  1  0  0  0  0  0  0  0  0  0
   -3.4580    2.6153   -0.5487 O   0  0  0  0  0  0  0  0  0  0  0  0
   -5.0680    0.8906   -1.2355 O   0  0  0  0  0  0  0  0  0  0  0  0
   -4.6865    1.5545    1.0968 O   0  0  0  0  0  0  0  0  0  0  0  0
   -3.0474   -1.2074   -0.2362 C   0  0  0  0  0  0  0  0  0  0  0  0
   -1.8040   -1.9016   -0.0475 C   0  0  0  0  0  0  0  0  0  0  0  0
   -1.5280   -3.2736   -0.0886 C   0  0  0  0  0  0  0  0  0  0  0  0
   -0.0102   -4.7644    0.0876 H   0  0  0  0  0  0  0  0  0  0  0  0
    1.8086   -3.1770    0.5303 H   0  0  0  0  0  0  0  0  0  0  0  0
    1.3047    0.3235    1.1777 H   0  0  0  0  0  0  0  0  0  0  0  0
    6.7984    0.2694    0.0993 H   0  0  0  0  0  0  0  0  0  0  0  0
    5.7796   -0.2067    1.4556 H   0  0  0  0  0  0  0  0  0  0  0  0
    5.6476   -1.0475   -0.0968 H   0  0  0  0  0  0  0  0  0  0  0  0
    3.9811    1.8260   -1.8957 H   0  0  0  0  0  0  0  0  0  0  0  0
    5.7143    1.5267   -1.9078 H   0  0  0  0  0  0  0  0  0  0  0  0
    4.6005    0.1805   -2.1161 H   0  0  0  0  0  0  0  0  0  0  0  0
    4.3041    3.0396    0.2924 H   0  0  0  0  0  0  0  0  0  0  0  0
    5.0327    2.2084    1.6744 H   0  0  0  0  0  0  0  0  0  0  0  0
    6.0262    2.6632    0.2903 H   0  0  0  0  0  0  0  0  0  0  0  0
   -3.0629    2.5714   -1.4222 H   0  0  0  0  0  0  0  0  0  0  0  0
   -5.7837    1.5314   -1.2890 H   0  0  0  0  0  0  0  0  0  0  0  0
   -4.9631    0.7114    1.4628 H   0  0  0  0  0  0  0  0  0  0  0  0
   -3.9774   -1.7246   -0.4395 H   0  0  0  0  0  0  0  0  0  0  0  0
   -2.3240   -3.9846   -0.2720 H   0  0  0  0  0  0  0  0  0  0  0  0
  9  8  1  0
 11  8  1  0
  8 10  1  0
  8  7  1  1
 15 17  1  6
  7  5  1  0
  6  5  2  0
  5  4  1  0
 18 15  1  0
 13 14  1  0
 13 12  1  0
 15 16  1  0
 15 14  1  0
  4  3  1  0
 14 19  2  0
 12  3  2  0
 12 20  1  0
  3  2  1  0
 19 20  1  0
 20 21  2  0
  2  1  2  0
 21  1  1  0
  1 22  1  0
  2 23  1  0
  4 24  1  0
  9 25  1  0
  9 26  1  0
  9 27  1  0
 10 28  1  0
 10 29  1  0
 10 30  1  0
 11 31  1  0
 11 32  1  0
 11 33  1  0
 16 34  1  0
 17 35  1  0
 18 36  1  0
 19 37  1  0
 21 38  1  0
M  CHG  1  15  -1
M  END
