
     RDKit          3D

 47 50  0  0  0  0  0  0  0  0999 V2000
    7.0104   -1.7568    0.3197 C   0  0  0  0  0  0  0  0  0  0  0  0
    5.7157   -1.5088   -0.1676 O   0  0  0  0  0  0  0  0  0  0  0  0
    4.7160   -1.9156    0.7388 C   0  0  0  0  0  0  0  0  0  0  0  0
    3.3768   -1.6458    0.1184 C   0  0  0  0  0  0  0  0  0  0  0  0
    2.7941   -2.5803   -0.7322 C   0  0  0  0  0  0  0  0  0  0  0  0
    1.5759   -2.3048   -1.3365 C   0  0  0  0  0  0  0  0  0  0  0  0
    0.9344   -1.0991   -1.0993 C   0  0  0  0  0  0  0  0  0  0  0  0
    1.4951   -0.1510   -0.2404 C   0  0  0  0  0  0  0  0  0  0  0  0
    2.7257   -0.4405    0.3529 C   0  0  0  0  0  0  0  0  0  0  0  0
    0.8240    1.1184    0.0302 C   0  0  0  0  0  0  0  0  0  0  0  0
   -0.5142    1.3575    0.1868 C   0  0  0  0  0  0  0  0  0  0  0  0
   -0.7447    2.6938    0.2712 N   0  0  0  0  0  0  0  0  0  0  0  0
   -1.7943    3.3119    1.0608 C   0  0  0  0  0  0  0  0  0  0  0  0
    0.4776    3.3143    0.2576 N   0  0  0  0  0  0  0  0  0  0  0  0
    0.5800    4.7439    0.1266 C   0  0  0  0  0  0  0  0  0  0  0  0
    1.4855    2.4067    0.0700 C   0  0  0  0  0  0  0  0  0  0  0  0
    2.6709    2.7012   -0.0717 O   0  0  0  0  0  0  0  0  0  0  0  0
   -1.6163    0.3933    0.2519 C   0  0  0  0  0  0  0  0  0  0  0  0
   -1.5188   -0.7086    1.1370 C   0  0  0  0  0  0  0  0  0  0  0  0
   -2.5177   -1.6366    1.2097 C   0  0  0  0  0  0  0  0  0  0  0  0
   -3.6623   -1.5084    0.3941 C   0  0  0  0  0  0  0  0  0  0  0  0
   -4.6472   -2.4334    0.4677 N   0  0  0  0  0  0  0  0  0  0  0  0
   -5.6760   -2.2622   -0.3124 C   0  0  0  0  0  0  0  0  0  0  0  0
   -5.7751   -1.1639   -1.2027 C   0  0  0  0  0  0  0  0  0  0  0  0
   -4.8438   -0.2585   -1.2928 N   0  0  0  0  0  0  0  0  0  0  0  0
   -3.7631   -0.4107   -0.4917 C   0  0  0  0  0  0  0  0  0  0  0  0
   -2.7219    0.5370   -0.5490 C   0  0  0  0  0  0  0  0  0  0  0  0
    7.2206   -1.1993    1.2405 H   0  0  0  0  0  0  0  0  0  0  0  0
    7.1746   -2.8211    0.5273 H   0  0  0  0  0  0  0  0  0  0  0  0
    7.7220   -1.4407   -0.4423 H   0  0  0  0  0  0  0  0  0  0  0  0
    4.8170   -2.9857    0.9683 H   0  0  0  0  0  0  0  0  0  0  0  0
    4.8090   -1.3736    1.6901 H   0  0  0  0  0  0  0  0  0  0  0  0
    3.2900   -3.5255   -0.9192 H   0  0  0  0  0  0  0  0  0  0  0  0
    1.1242   -3.0292   -2.0017 H   0  0  0  0  0  0  0  0  0  0  0  0
   -0.0063   -0.8915   -1.5927 H   0  0  0  0  0  0  0  0  0  0  0  0
    3.1784    0.2774    1.0255 H   0  0  0  0  0  0  0  0  0  0  0  0
   -1.4699    3.4746    2.0901 H   0  0  0  0  0  0  0  0  0  0  0  0
   -2.0853    4.2606    0.6164 H   0  0  0  0  0  0  0  0  0  0  0  0
   -2.6625    2.6610    1.0641 H   0  0  0  0  0  0  0  0  0  0  0  0
    0.2695    5.2555    1.0370 H   0  0  0  0  0  0  0  0  0  0  0  0
    1.6238    4.9780   -0.0608 H   0  0  0  0  0  0  0  0  0  0  0  0
   -0.0158    5.1046   -0.7117 H   0  0  0  0  0  0  0  0  0  0  0  0
   -0.6438   -0.8041    1.7659 H   0  0  0  0  0  0  0  0  0  0  0  0
   -2.4522   -2.4765    1.8886 H   0  0  0  0  0  0  0  0  0  0  0  0
   -6.4760   -2.9918   -0.2677 H   0  0  0  0  0  0  0  0  0  0  0  0
   -6.6494   -1.0602   -1.8345 H   0  0  0  0  0  0  0  0  0  0  0  0
   -2.8086    1.3589   -1.2491 H   0  0  0  0  0  0  0  0  0  0  0  0
  1  2  1  0
  2  3  1  0
  3  4  1  0
  4  5  2  0
  4  9  1  0
  5  6  1  0
  6  7  2  0
  7  8  1  0
  8  9  2  0
  8 10  1  0
 10 11  2  0
 10 16  1  0
 11 12  1  0
 11 18  1  0
 12 13  1  0
 12 14  1  0
 14 15  1  0
 14 16  1  0
 16 17  2  0
 18 19  2  0
 18 27  1  0
 19 20  1  0
 20 21  2  0
 21 22  1  0
 21 26  1  0
 22 23  2  0
 23 24  1  0
 24 25  2  0
 25 26  1  0
 26 27  2  0
  1 28  1  0
  1 29  1  0
  1 30  1  0
  3 31  1  0
  3 32  1  0
  5 33  1  0
  6 34  1  0
  7 35  1  0
  9 36  1  0
 13 37  1  0
 13 38  1  0
 13 39  1  0
 15 40  1  0
 15 41  1  0
 15 42  1  0
 19 43  1  0
 20 44  1  0
 23 45  1  0
 24 46  1  0
 27 47  1  0
M  END
