
     RDKit          3D

 16 15  0  0  0  0  0  0  0  0999 V2000
    2.7808    1.3895    0.0226 C   0  0  0  0  0  0  0  0  0  0  0  0
    0.0678    0.7612    0.0282 C   0  0  0  0  0  0  0  0  0  0  0  0
   -1.0269   -0.2697    0.0157 C   0  0  0  0  0  0  0  0  0  0  0  0
   -2.4429    0.3235   -0.0069 C   0  0  0  0  0  0  0  0  0  0  0  0
    1.8531   -0.7298   -1.2416 O   0  0  0  0  0  0  0  0  0  0  0  0
   -3.3544   -0.6168   -0.0118 O   0  0  0  0  0  0  0  0  0  0  0  0
   -2.6311    1.5092   -0.0168 O   0  0  0  0  0  0  0  0  0  0  0  0
   -0.8513   -1.4534    0.0242 O   0  0  0  0  0  0  0  0  0  0  0  0
    1.8642   -0.7431    1.2704 O   0  0  0  0  0  0  0  0  0  0  0  0
    1.6912   -0.0123    0.0189 S   0  0  1  0  0  0  0  0  0  0  0  0
    2.6126    1.9897   -0.8684 H   0  0  0  0  0  0  0  0  0  0  0  0
    2.6179    1.9798    0.9209 H   0  0  0  0  0  0  0  0  0  0  0  0
    3.7966    0.9959    0.0169 H   0  0  0  0  0  0  0  0  0  0  0  0
   -0.0106    1.4160   -0.8435 H   0  0  0  0  0  0  0  0  0  0  0  0
   -0.0123    1.3909    0.9183 H   0  0  0  0  0  0  0  0  0  0  0  0
   -4.2460   -0.2328   -0.0209 H   0  0  0  0  0  0  0  0  0  0  0  0
 10  1  1  6
 10  5  2  0
 10  2  1  0
 10  9  2  0
  2  3  1  0
  7  4  2  0
  4  3  1  0
  4  6  1  0
  3  8  2  0
  1 11  1  0
  1 12  1  0
  1 13  1  0
  2 14  1  0
  2 15  1  0
  6 16  1  0
M  END
