
     RDKit          3D

 44 47  0  0  0  0  0  0  0  0999 V2000
   -7.3099    1.7016   -0.1059 N   0  0  0  0  0  0  0  0  0  0  0  0
    5.3449    0.2852   -2.2163 C   0  0  0  0  0  0  0  0  0  0  0  0
    5.4432    1.2429   -1.2208 C   0  0  0  0  0  0  0  0  0  0  0  0
    4.6651    1.1381   -0.0744 C   0  0  0  0  0  0  0  0  0  0  0  0
    3.7912    0.0575    0.0775 C   0  0  0  0  0  0  0  0  0  0  0  0
    3.4443    0.6982    2.2924 C   0  0  0  0  0  0  0  0  0  0  0  0
   -0.8584   -1.2187    0.1512 C   0  0  0  0  0  0  0  0  0  0  0  0
   -3.4157   -0.0649    0.0474 C   0  0  0  0  0  0  0  0  0  0  0  0
   -1.4406   -0.8932   -1.0717 C   0  0  0  0  0  0  0  0  0  0  0  0
   -5.7514    0.1939    0.9053 C   0  0  0  0  0  0  0  0  0  0  0  0
   -5.0879    1.4954   -0.9691 C   0  0  0  0  0  0  0  0  0  0  0  0
    0.7709   -2.5515    1.2334 O   0  0  0  0  0  0  0  0  0  0  0  0
   -2.7025   -0.3246   -1.1221 C   0  0  0  0  0  0  0  0  0  0  0  0
   -4.7571    0.5439   -0.0063 C   0  0  0  0  0  0  0  0  0  0  0  0
   -6.3630    2.0374   -0.9746 C   0  0  0  0  0  0  0  0  0  0  0  0
   -6.9963    0.7946    0.8121 C   0  0  0  0  0  0  0  0  0  0  0  0
   -2.8329   -0.4016    1.2697 C   0  0  0  0  0  0  0  0  0  0  0  0
   -1.5761   -0.9774    1.3200 C   0  0  0  0  0  0  0  0  0  0  0  0
    1.3457   -1.5949   -0.7357 N   0  0  0  0  0  0  0  0  0  0  0  0
    2.7191   -2.0490   -0.7728 C   0  0  0  0  0  0  0  0  0  0  0  0
    3.6794   -0.9009   -0.9314 C   0  0  0  0  0  0  0  0  0  0  0  0
    3.0393   -0.0979    1.1906 O   0  0  0  0  0  0  0  0  0  0  0  0
    3.7376    2.1060    1.8356 C   0  0  0  0  0  0  0  0  0  0  0  0
    4.7805    2.0995    0.8734 O   0  0  0  0  0  0  0  0  0  0  0  0
    4.4561   -0.7728   -2.0756 C   0  0  0  0  0  0  0  0  0  0  0  0
    6.1206    2.0820   -1.3215 H   0  0  0  0  0  0  0  0  0  0  0  0
    2.6268    0.6918    3.0116 H   0  0  0  0  0  0  0  0  0  0  0  0
    4.3279    0.2603    2.7689 H   0  0  0  0  0  0  0  0  0  0  0  0
   -0.9348   -1.1038   -2.0057 H   0  0  0  0  0  0  0  0  0  0  0  0
   -5.5765   -0.5509    1.6703 H   0  0  0  0  0  0  0  0  0  0  0  0
   -4.3629    1.8330   -1.6980 H   0  0  0  0  0  0  0  0  0  0  0  0
   -3.1414   -0.1061   -2.0869 H   0  0  0  0  0  0  0  0  0  0  0  0
   -6.6266    2.7828   -1.7169 H   0  0  0  0  0  0  0  0  0  0  0  0
   -7.7778    0.5232    1.5132 H   0  0  0  0  0  0  0  0  0  0  0  0
   -3.3561   -0.1981    2.1953 H   0  0  0  0  0  0  0  0  0  0  0  0
   -1.1448   -1.2279    2.2797 H   0  0  0  0  0  0  0  0  0  0  0  0
    1.0690   -0.9498   -1.4580 H   0  0  0  0  0  0  0  0  0  0  0  0
    2.9162   -2.6028    0.1439 H   0  0  0  0  0  0  0  0  0  0  0  0
    2.8546   -2.7452   -1.6033 H   0  0  0  0  0  0  0  0  0  0  0  0
    2.8376    2.5663    1.4135 H   0  0  0  0  0  0  0  0  0  0  0  0
    4.0750    2.7162    2.6724 H   0  0  0  0  0  0  0  0  0  0  0  0
    4.3666   -1.5147   -2.8594 H   0  0  0  0  0  0  0  0  0  0  0  0
    0.4938   -1.8511    0.2702 C   0  0  0  0  0  0  0  0  0  0  0  0
    5.9513    0.3723   -3.1079 H   0  0  0  0  0  0  0  0  0  0  0  0
 23 24  1  0
 23  6  1  0
 24  4  1  0
  4  3  1  0
  4  5  2  0
  6 22  1  0
  3  2  2  0
  5 22  1  0
  5 21  1  0
  2 25  1  0
 21 25  2  0
 21 20  1  0
 20 19  1  0
 19 43  1  0
 43 12  2  0
 43  7  1  0
  9  7  2  0
  9 13  1  0
  7 18  1  0
 13  8  2  0
 18 17  2  0
  8 17  1  0
  8 14  1  0
 11 14  2  0
 11 15  1  0
 14 10  1  0
 15  1  2  0
 10 16  2  0
  1 16  1  0
  2 44  1  0
  3 26  1  0
  6 27  1  0
  6 28  1  0
  9 29  1  0
 10 30  1  0
 11 31  1  0
 13 32  1  0
 15 33  1  0
 16 34  1  0
 17 35  1  0
 18 36  1  0
 19 37  1  0
 20 38  1  0
 20 39  1  0
 23 40  1  0
 23 41  1  0
 25 42  1  0
M  END
