
     RDKit          3D

 51 52  0  0  0  0  0  0  0  0999 V2000
    1.1253    0.2370   -0.5494 C   0  0  0  0  0  0  0  0  0  0  0  0
    0.6281    0.5323   -1.6527 O   0  0  0  0  0  0  0  0  0  0  0  0
    2.4066    0.6515   -0.2544 O   0  0  0  0  0  0  0  0  0  0  0  0
    3.0330    1.4415   -1.2886 C   0  0  0  0  0  0  0  0  0  0  0  0
    4.3819    1.8383   -0.7932 C   0  0  0  0  0  0  0  0  0  0  0  0
    5.1363    0.9902    0.0232 C   0  0  0  0  0  0  0  0  0  0  0  0
    6.4098    1.3745    0.4418 C   0  0  0  0  0  0  0  0  0  0  0  0
    6.9370    2.6023    0.0428 C   0  0  0  0  0  0  0  0  0  0  0  0
    6.1863    3.4502   -0.7724 C   0  0  0  0  0  0  0  0  0  0  0  0
    4.9103    3.0737   -1.1871 C   0  0  0  0  0  0  0  0  0  0  0  0
    0.5411   -0.4668    0.4758 N   0  0  0  0  0  0  0  0  0  0  0  0
   -0.7403   -1.1021    0.3012 C   0  0  2  0  0  0  0  0  0  0  0  0
   -1.9086   -0.1083    0.5491 C   0  0  0  0  0  0  0  0  0  0  0  0
   -2.6807   -0.2494    1.5178 O   0  0  0  0  0  0  0  0  0  0  0  0
   -0.9370   -2.3042    1.2415 C   0  0  0  0  0  0  0  0  0  0  0  0
    0.1120   -3.3388    1.0474 C   0  0  0  0  0  0  0  0  0  0  0  0
    1.1824   -3.4372    1.9440 C   0  0  0  0  0  0  0  0  0  0  0  0
    0.0314   -4.2335   -0.0266 C   0  0  0  0  0  0  0  0  0  0  0  0
    2.1592   -4.4161    1.7671 C   0  0  0  0  0  0  0  0  0  0  0  0
    1.0098   -5.2103   -0.2020 C   0  0  0  0  0  0  0  0  0  0  0  0
    2.0753   -5.3027    0.6938 C   0  0  0  0  0  0  0  0  0  0  0  0
   -2.0358    0.9245   -0.3489 N   0  0  0  0  0  0  0  0  0  0  0  0
   -3.1193    1.8718   -0.2734 C   0  0  2  0  0  0  0  0  0  0  0  0
   -4.2659    1.5410   -1.2441 C   0  0  0  0  0  0  0  0  0  0  0  0
   -4.0682    1.1070   -2.3772 O   0  0  0  0  0  0  0  0  0  0  0  0
   -2.6729    3.3049   -0.5741 C   0  0  0  0  0  0  0  0  0  0  0  0
   -5.6208    1.7952   -0.6482 C   0  0  0  0  0  0  0  0  0  0  0  0
   -6.9149    1.9419   -1.8085 Cl  0  0  0  0  0  0  0  0  0  0  0  0
    3.1112    0.8110   -2.2153 H   0  0  0  0  0  0  0  0  0  0  0  0
    2.3848    2.3327   -1.5006 H   0  0  0  0  0  0  0  0  0  0  0  0
    4.7146    0.0236    0.3380 H   0  0  0  0  0  0  0  0  0  0  0  0
    6.9984    0.7058    1.0870 H   0  0  0  0  0  0  0  0  0  0  0  0
    7.9426    2.9033    0.3712 H   0  0  0  0  0  0  0  0  0  0  0  0
    6.6002    4.4194   -1.0873 H   0  0  0  0  0  0  0  0  0  0  0  0
    4.3183    3.7468   -1.8253 H   0  0  0  0  0  0  0  0  0  0  0  0
    1.0698   -0.6712    1.2914 H   0  0  0  0  0  0  0  0  0  0  0  0
   -0.8237   -1.4642   -0.7708 H   0  0  0  0  0  0  0  0  0  0  0  0
   -0.9564   -1.9488    2.3068 H   0  0  0  0  0  0  0  0  0  0  0  0
   -1.9525   -2.7322    1.0223 H   0  0  0  0  0  0  0  0  0  0  0  0
    1.2484   -2.7449    2.7967 H   0  0  0  0  0  0  0  0  0  0  0  0
   -0.8098   -4.1641   -0.7325 H   0  0  0  0  0  0  0  0  0  0  0  0
    2.9961   -4.4894    2.4774 H   0  0  0  0  0  0  0  0  0  0  0  0
    0.9401   -5.9096   -1.0483 H   0  0  0  0  0  0  0  0  0  0  0  0
    2.8464   -6.0746    0.5549 H   0  0  0  0  0  0  0  0  0  0  0  0
   -1.4570    0.9541   -1.1619 H   0  0  0  0  0  0  0  0  0  0  0  0
   -3.5328    1.8331    0.7822 H   0  0  0  0  0  0  0  0  0  0  0  0
   -3.5497    3.9880   -0.4695 H   0  0  0  0  0  0  0  0  0  0  0  0
   -1.8804    3.6245    0.1437 H   0  0  0  0  0  0  0  0  0  0  0  0
   -2.2728    3.3884   -1.6133 H   0  0  0  0  0  0  0  0  0  0  0  0
   -5.8777    0.9407    0.0290 H   0  0  0  0  0  0  0  0  0  0  0  0
   -5.6069    2.7471   -0.0609 H   0  0  0  0  0  0  0  0  0  0  0  0
  1  2  2  0
  1  3  1  0
  1 11  1  0
  3  4  1  0
  4  5  1  0
  4 29  1  0
  4 30  1  0
  5  6  2  0
  5 10  1  0
  6  7  1  0
  6 31  1  0
  7  8  2  0
  7 32  1  0
  8  9  1  0
  8 33  1  0
  9 10  2  0
  9 34  1  0
 10 35  1  0
 11 12  1  0
 11 36  1  0
 12 13  1  0
 12 15  1  0
 12 37  1  6
 13 14  2  0
 13 22  1  0
 15 16  1  0
 15 38  1  0
 15 39  1  0
 16 17  2  0
 16 18  1  0
 17 19  1  0
 17 40  1  0
 18 20  2  0
 18 41  1  0
 19 21  2  0
 19 42  1  0
 20 21  1  0
 20 43  1  0
 21 44  1  0
 22 23  1  0
 22 45  1  0
 23 24  1  0
 23 26  1  0
 23 46  1  1
 24 25  2  0
 24 27  1  0
 26 47  1  0
 26 48  1  0
 26 49  1  0
 27 50  1  0
 27 28  1  0
 27 51  1  0
M  END
