
     RDKit          3D

 68 74  0  0  0  0  0  0  0  0999 V2000
    0.9673   -0.3647    1.8799 C   0  0  0  0  0  0  0  0  0  0  0  0
    5.5967   -2.3675    2.0847 C   0  0  0  0  0  0  0  0  0  0  0  0
    4.8476   -3.4362    2.5535 C   0  0  0  0  0  0  0  0  0  0  0  0
   -0.4695    2.6483    0.4240 C   0  0  0  0  0  0  0  0  0  0  0  0
   -1.9851    2.7615    0.7279 C   0  0  1  0  0  0  0  0  0  0  0  0
   -1.3929    0.5283    0.1360 C   0  0  0  0  0  0  0  0  0  0  0  0
   -2.8503   -1.3512    0.2917 C   0  0  0  0  0  0  0  0  0  0  0  0
   -1.6009   -0.8178   -0.0730 C   0  0  0  0  0  0  0  0  0  0  0  0
   -2.2649    3.3922    2.0938 C   0  0  0  0  0  0  0  0  0  0  0  0
   -1.9818    4.8850    2.0837 C   0  0  0  0  0  0  0  0  0  0  0  0
   -2.4203    5.0752   -0.2013 C   0  0  0  0  0  0  0  0  0  0  0  0
   -2.0635   -3.6511    0.4269 C   0  0  0  0  0  0  0  0  0  0  0  0
   -2.3894   -5.0231   -0.1294 C   0  0  0  0  0  0  0  0  0  0  0  0
   -4.4300   -3.1921    0.4768 C   0  0  0  0  0  0  0  0  0  0  0  0
   -2.7278    5.5509    1.0893 O   0  0  0  0  0  0  0  0  0  0  0  0
   -2.7115    3.5890   -0.3466 C   0  0  0  0  0  0  0  0  0  0  0  0
   -2.4165    1.3186    0.6594 C   0  0  0  0  0  0  0  0  0  0  0  0
   -3.5868    0.8382    0.9876 N   0  0  0  0  0  0  0  0  0  0  0  0
   -3.8018   -0.4706    0.8271 C   0  0  0  0  0  0  0  0  0  0  0  0
   -3.1191   -2.7014    0.0952 N   0  0  0  0  0  0  0  0  0  0  0  0
   -3.6438   -5.4825    0.3148 O   0  0  0  0  0  0  0  0  0  0  0  0
   -4.6546   -4.5858   -0.0792 C   0  0  0  0  0  0  0  0  0  0  0  0
   -0.2912    1.3031   -0.1406 N   0  0  0  0  0  0  0  0  0  0  0  0
    0.9949    0.7885   -0.3511 C   0  0  0  0  0  0  0  0  0  0  0  0
    1.6031   -0.0510    0.5587 C   0  0  0  0  0  0  0  0  0  0  0  0
    1.6828    1.1881   -1.5269 C   0  0  0  0  0  0  0  0  0  0  0  0
    1.1108    2.0180   -2.5156 C   0  0  0  0  0  0  0  0  0  0  0  0
    1.8374    2.4060   -3.6074 C   0  0  0  0  0  0  0  0  0  0  0  0
    3.1622    1.9613   -3.7350 C   0  0  0  0  0  0  0  0  0  0  0  0
    3.8537    2.3639   -4.8098 F   0  0  0  0  0  0  0  0  0  0  0  0
    3.7525    1.1369   -2.8263 C   0  0  0  0  0  0  0  0  0  0  0  0
    3.0062    0.7251   -1.6998 C   0  0  0  0  0  0  0  0  0  0  0  0
    3.5773   -0.1324   -0.8306 N   0  0  0  0  0  0  0  0  0  0  0  0
    2.9049   -0.5270    0.2192 C   0  0  0  0  0  0  0  0  0  0  0  0
    3.6083   -1.5249    1.0666 C   0  0  0  0  0  0  0  0  0  0  0  0
    4.9714   -1.3968    1.3199 C   0  0  0  0  0  0  0  0  0  0  0  0
    3.4971   -3.4778    2.2390 C   0  0  0  0  0  0  0  0  0  0  0  0
    2.8874   -2.5457    1.5198 N   0  0  0  0  0  0  0  0  0  0  0  0
    0.4004   -1.2957    1.8543 H   0  0  0  0  0  0  0  0  0  0  0  0
    1.7195   -0.4680    2.6592 H   0  0  0  0  0  0  0  0  0  0  0  0
    0.2847    0.4272    2.1845 H   0  0  0  0  0  0  0  0  0  0  0  0
    6.6520   -2.2909    2.3105 H   0  0  0  0  0  0  0  0  0  0  0  0
    5.2943   -4.2195    3.1498 H   0  0  0  0  0  0  0  0  0  0  0  0
   -0.1209    3.4059   -0.2799 H   0  0  0  0  0  0  0  0  0  0  0  0
    0.1307    2.7519    1.3355 H   0  0  0  0  0  0  0  0  0  0  0  0
   -0.8264   -1.4316   -0.5136 H   0  0  0  0  0  0  0  0  0  0  0  0
   -3.3134    3.2203    2.3530 H   0  0  0  0  0  0  0  0  0  0  0  0
   -1.6632    2.9118    2.8697 H   0  0  0  0  0  0  0  0  0  0  0  0
   -2.2533    5.3312    3.0420 H   0  0  0  0  0  0  0  0  0  0  0  0
   -0.9051    5.0635    1.9386 H   0  0  0  0  0  0  0  0  0  0  0  0
   -3.0242    5.6473   -0.9074 H   0  0  0  0  0  0  0  0  0  0  0  0
   -1.3662    5.2807   -0.4403 H   0  0  0  0  0  0  0  0  0  0  0  0
   -1.1151   -3.3380   -0.0053 H   0  0  0  0  0  0  0  0  0  0  0  0
   -2.3599   -4.9870   -1.2277 H   0  0  0  0  0  0  0  0  0  0  0  0
   -1.6365   -5.7384    0.2043 H   0  0  0  0  0  0  0  0  0  0  0  0
   -4.5594   -3.1990    1.5698 H   0  0  0  0  0  0  0  0  0  0  0  0
   -5.2034   -2.5456    0.0597 H   0  0  0  0  0  0  0  0  0  0  0  0
   -2.4161    3.2576   -1.3467 H   0  0  0  0  0  0  0  0  0  0  0  0
   -3.7878    3.4171   -0.2578 H   0  0  0  0  0  0  0  0  0  0  0  0
   -4.7732   -0.8230    1.1455 H   0  0  0  0  0  0  0  0  0  0  0  0
   -5.6045   -4.9739    0.2909 H   0  0  0  0  0  0  0  0  0  0  0  0
   -4.7157   -4.5332   -1.1756 H   0  0  0  0  0  0  0  0  0  0  0  0
    0.0831    2.3399   -2.4167 H   0  0  0  0  0  0  0  0  0  0  0  0
    1.4035    3.0395   -4.3693 H   0  0  0  0  0  0  0  0  0  0  0  0
    4.7684    0.7866   -2.9542 H   0  0  0  0  0  0  0  0  0  0  0  0
    5.5223   -0.5530    0.9289 H   0  0  0  0  0  0  0  0  0  0  0  0
    2.8804   -4.3000    2.5844 H   0  0  0  0  0  0  0  0  0  0  0  0
   -1.9230   -3.7123    1.5159 H   0  0  0  0  0  0  0  0  0  0  0  0
 30 29  1  0
 29 28  2  0
 29 31  1  0
 28 27  1  0
 31 32  2  0
 27 26  2  0
 10 15  1  0
 10  9  1  0
 32 26  1  0
 32 33  1  0
 15 11  1  0
 26 24  1  0
  5  9  1  1
 11 16  1  0
 33 34  2  0
  4  5  1  0
  4 23  1  0
 24 23  1  0
 24 25  2  0
  5 16  1  0
  5 17  1  0
 23  6  1  0
 34 25  1  0
 34 35  1  0
 25  1  1  0
 17  6  2  0
 17 18  1  0
  6  8  1  0
 35 38  2  0
 35 36  1  0
 38 37  1  0
 18 19  2  0
 36  2  2  0
  8  7  2  0
 37  3  2  0
  2  3  1  0
 19  7  1  0
  7 20  1  0
 20 14  1  0
 20 12  1  0
 14 22  1  0
 13 12  1  0
 13 21  1  0
 22 21  1  0
  1 39  1  0
  1 40  1  0
  1 41  1  0
  2 42  1  0
  3 43  1  0
  4 44  1  0
  4 45  1  0
  8 46  1  0
  9 47  1  0
  9 48  1  0
 10 49  1  0
 10 50  1  0
 11 51  1  0
 11 52  1  0
 12 68  1  0
 12 53  1  0
 13 54  1  0
 13 55  1  0
 14 56  1  0
 14 57  1  0
 16 58  1  0
 16 59  1  0
 19 60  1  0
 22 61  1  0
 22 62  1  0
 27 63  1  0
 28 64  1  0
 31 65  1  0
 36 66  1  0
 37 67  1  0
M  END
