
     RDKit          3D

 44 46  0  0  0  0  0  0  0  0999 V2000
    1.8010    5.2406   -0.7660 O   0  0  0  0  0  0  0  0  0  0  0  0
    1.4589    3.9709   -0.4671 C   0  0  0  0  0  0  0  0  0  0  0  0
    2.1559    3.2013    0.4618 C   0  0  0  0  0  0  0  0  0  0  0  0
    1.7570    1.8998    0.7210 C   0  0  0  0  0  0  0  0  0  0  0  0
    0.6529    1.3327    0.0856 C   0  0  0  0  0  0  0  0  0  0  0  0
    0.2561   -0.0701    0.3678 C   0  0  0  0  0  0  0  0  0  0  0  0
    1.3467   -1.0608    0.1870 C   0  0  0  0  0  0  0  0  0  0  0  0
    1.7298   -1.9346    1.2048 C   0  0  0  0  0  0  0  0  0  0  0  0
    2.7614   -2.8440    1.0337 C   0  0  0  0  0  0  0  0  0  0  0  0
    3.4472   -2.8974   -0.1768 C   0  0  0  0  0  0  0  0  0  0  0  0
    4.4432   -3.7983   -0.3010 O   0  0  0  0  0  0  0  0  0  0  0  0
    3.0904   -2.0227   -1.2007 C   0  0  0  0  0  0  0  0  0  0  0  0
    2.0610   -1.1152   -1.0095 C   0  0  0  0  0  0  0  0  0  0  0  0
   -0.9874   -0.4132    0.7475 C   0  0  0  0  0  0  0  0  0  0  0  0
   -2.0832    0.5730    1.0447 C   0  0  0  0  0  0  0  0  0  0  0  0
   -3.2715    0.3807    0.1008 C   0  0  0  0  0  0  0  0  0  0  0  0
   -3.7945   -1.0524    0.1639 C   0  0  1  0  0  0  0  0  0  0  0  0
   -4.9091   -1.3052   -0.8255 C   0  0  0  0  0  0  0  0  0  0  0  0
   -5.9825   -0.4410   -0.6016 F   0  0  0  0  0  0  0  0  0  0  0  0
   -2.6635   -2.0484   -0.0896 C   0  0  0  0  0  0  0  0  0  0  0  0
   -1.4762   -1.8315    0.8551 C   0  0  0  0  0  0  0  0  0  0  0  0
   -0.0207    2.1147   -0.8533 C   0  0  0  0  0  0  0  0  0  0  0  0
    0.3674    3.4157   -1.1297 C   0  0  0  0  0  0  0  0  0  0  0  0
    2.5620    5.5155   -0.2429 H   0  0  0  0  0  0  0  0  0  0  0  0
    3.0126    3.6150    0.9826 H   0  0  0  0  0  0  0  0  0  0  0  0
    2.3169    1.3158    1.4415 H   0  0  0  0  0  0  0  0  0  0  0  0
    1.2147   -1.9011    2.1573 H   0  0  0  0  0  0  0  0  0  0  0  0
    3.0411   -3.5096    1.8411 H   0  0  0  0  0  0  0  0  0  0  0  0
    4.8311   -3.7496   -1.1817 H   0  0  0  0  0  0  0  0  0  0  0  0
    3.6175   -2.0451   -2.1482 H   0  0  0  0  0  0  0  0  0  0  0  0
    1.8066   -0.4387   -1.8167 H   0  0  0  0  0  0  0  0  0  0  0  0
   -2.4277    0.3928    2.0712 H   0  0  0  0  0  0  0  0  0  0  0  0
   -1.7334    1.6036    1.0112 H   0  0  0  0  0  0  0  0  0  0  0  0
   -4.0621    1.0886    0.3576 H   0  0  0  0  0  0  0  0  0  0  0  0
   -2.9616    0.6087   -0.9258 H   0  0  0  0  0  0  0  0  0  0  0  0
   -4.1797   -1.2349    1.1755 H   0  0  0  0  0  0  0  0  0  0  0  0
   -4.5602   -1.1443   -1.8490 H   0  0  0  0  0  0  0  0  0  0  0  0
   -5.2841   -2.3278   -0.7409 H   0  0  0  0  0  0  0  0  0  0  0  0
   -3.0323   -3.0716    0.0235 H   0  0  0  0  0  0  0  0  0  0  0  0
   -2.3128   -1.9527   -1.1232 H   0  0  0  0  0  0  0  0  0  0  0  0
   -0.6969   -2.5557    0.6242 H   0  0  0  0  0  0  0  0  0  0  0  0
   -1.8005   -2.0308    1.8830 H   0  0  0  0  0  0  0  0  0  0  0  0
   -0.8626    1.6966   -1.3923 H   0  0  0  0  0  0  0  0  0  0  0  0
   -0.1699    4.0016   -1.8652 H   0  0  0  0  0  0  0  0  0  0  0  0
  1  2  1  0
 23  2  2  0
 23 22  1  0
  2  3  1  0
 22  5  2  0
  3  4  2  0
  5  4  1  0
  5  6  1  0
  6  7  1  0
  6 14  2  0
  8  7  2  0
  8  9  1  0
  7 13  1  0
  9 10  2  0
 13 12  2  0
 10 12  1  0
 10 11  1  0
 15 14  1  0
 15 16  1  0
 14 21  1  0
 16 17  1  0
 21 20  1  0
 20 17  1  0
 17 18  1  0
 19 18  1  0
  1 24  1  0
  3 25  1  0
  4 26  1  0
  8 27  1  0
  9 28  1  0
 11 29  1  0
 12 30  1  0
 13 31  1  0
 15 32  1  0
 15 33  1  0
 16 34  1  0
 16 35  1  0
 17 36  1  1
 18 37  1  0
 18 38  1  0
 20 39  1  0
 20 40  1  0
 21 41  1  0
 21 42  1  0
 22 43  1  0
 23 44  1  0
M  END
