
     RDKit          3D

 42 44  0  0  0  0  0  0  0  0999 V2000
    2.4774    0.4017    0.9789 C   0  0  0  0  0  0  0  0  0  0  0  0
    0.7172   -0.9404    0.0070 C   0  0  0  0  0  0  0  0  0  0  0  0
    3.3985   -0.0221    0.0221 C   0  0  0  0  0  0  0  0  0  0  0  0
   -2.1733   -3.3642   -0.0100 C   0  0  0  0  0  0  0  0  0  0  0  0
   -0.8718   -2.8278   -0.0111 C   0  0  0  0  0  0  0  0  0  0  0  0
   -0.6571   -1.4789    0.0109 C   0  0  0  0  0  0  0  0  0  0  0  0
   -4.0693    0.9458    0.7907 C   0  0  0  0  0  0  0  0  0  0  0  0
    4.8443    0.4592   -0.0109 C   0  0  1  0  0  0  0  0  0  0  0  0
    1.6323   -1.3749   -0.9505 C   0  0  0  0  0  0  0  0  0  0  0  0
    1.1619   -0.0402    0.9705 C   0  0  0  0  0  0  0  0  0  0  0  0
    2.9415   -0.9221   -0.9418 C   0  0  0  0  0  0  0  0  0  0  0  0
   -3.2149   -2.5024    0.0181 C   0  0  0  0  0  0  0  0  0  0  0  0
   -1.7810   -0.5813    0.0166 C   0  0  0  0  0  0  0  0  0  0  0  0
   -4.2315   -0.3147   -0.0253 C   0  0  0  0  0  0  0  0  0  0  0  0
    5.1561    1.4321    1.1263 C   0  0  0  0  0  0  0  0  0  0  0  0
    5.7869   -0.7456    0.1122 C   0  0  0  0  0  0  0  0  0  0  0  0
   -1.5519    0.7132    0.0066 N   0  0  0  0  0  0  0  0  0  0  0  0
   -3.0280   -1.1545    0.0294 N   0  0  0  0  0  0  0  0  0  0  0  0
   -2.6959    1.8406    0.0929 S   0  0  2  0  0  0  0  0  0  0  0  0
    2.7726    1.0909    1.7584 H   0  0  0  0  0  0  0  0  0  0  0  0
   -2.3489   -4.4286   -0.0154 H   0  0  0  0  0  0  0  0  0  0  0  0
   -0.0230   -3.4994   -0.0077 H   0  0  0  0  0  0  0  0  0  0  0  0
   -4.9663    1.5615    0.7296 H   0  0  0  0  0  0  0  0  0  0  0  0
   -3.8479    0.7317    1.8370 H   0  0  0  0  0  0  0  0  0  0  0  0
    4.4405    2.0277   -1.4720 H   0  0  0  0  0  0  0  0  0  0  0  0
    6.1349    1.5395   -1.3804 H   0  0  0  0  0  0  0  0  0  0  0  0
    4.9662    0.5084   -2.1980 H   0  0  0  0  0  0  0  0  0  0  0  0
    1.3175   -2.0643   -1.7249 H   0  0  0  0  0  0  0  0  0  0  0  0
    0.4827    0.3195    1.7314 H   0  0  0  0  0  0  0  0  0  0  0  0
    3.6114   -1.2822   -1.7131 H   0  0  0  0  0  0  0  0  0  0  0  0
   -4.2433   -2.8310    0.0339 H   0  0  0  0  0  0  0  0  0  0  0  0
   -5.0641   -0.8934    0.3666 H   0  0  0  0  0  0  0  0  0  0  0  0
   -4.4508   -0.0795   -1.0679 H   0  0  0  0  0  0  0  0  0  0  0  0
    4.5366    2.3297    1.0807 H   0  0  0  0  0  0  0  0  0  0  0  0
    5.0162    0.9742    2.1072 H   0  0  0  0  0  0  0  0  0  0  0  0
    6.1972    1.7520    1.0617 H   0  0  0  0  0  0  0  0  0  0  0  0
    6.8268   -0.4127    0.0924 H   0  0  0  0  0  0  0  0  0  0  0  0
    5.6239   -1.2829    1.0482 H   0  0  0  0  0  0  0  0  0  0  0  0
    5.6537   -1.4526   -0.7075 H   0  0  0  0  0  0  0  0  0  0  0  0
   -2.2516    2.8753    1.0182 O   0  0  0  0  0  0  0  0  0  0  0  0
    5.1070    1.1732   -1.3444 C   0  0  0  0  0  0  0  0  0  0  0  0
   -3.0780    2.2818   -1.2483 O   0  0  0  0  0  0  0  0  0  0  0  0
  8 41  1  6
 16  8  1  0
 15  8  1  0
  8  3  1  0
  3 11  1  0
  3  1  2  0
 11  9  2  0
  1 10  1  0
  9  2  1  0
 10  2  2  0
  2  6  1  0
 42 19  2  0
 19 17  1  6
 17 13  2  0
 40 19  2  0
 19  7  1  0
  6 13  1  0
  6  5  2  0
 13 18  1  0
  5  4  1  0
  7 14  1  0
 18 14  1  0
 18 12  1  0
  4 12  2  0
  1 20  1  0
  4 21  1  0
  5 22  1  0
  7 23  1  0
  7 24  1  0
 41 25  1  0
 41 26  1  0
 41 27  1  0
  9 28  1  0
 10 29  1  0
 11 30  1  0
 12 31  1  0
 14 32  1  0
 14 33  1  0
 15 34  1  0
 15 35  1  0
 15 36  1  0
 16 37  1  0
 16 38  1  0
 16 39  1  0
M  END
