
     RDKit          3D

 38 40  0  0  0  0  0  0  0  0999 V2000
    8.7885   -0.8216    0.2312 C   0  0  0  0  0  0  0  0  0  0  0  0
    7.4182   -1.1275    0.2689 O   0  0  0  0  0  0  0  0  0  0  0  0
    6.6098   -0.0104    0.0004 C   0  0  0  0  0  0  0  0  0  0  0  0
    5.1549   -0.4342    0.0473 C   0  0  0  0  0  0  0  0  0  0  0  0
    4.2366    0.7474   -0.2189 C   0  0  0  0  0  0  0  0  0  0  0  0
    2.8514    0.3173   -0.1906 N   0  0  0  0  0  0  0  0  0  0  0  0
    1.8406    1.1809   -0.1146 C   0  0  0  0  0  0  0  0  0  0  0  0
    1.9449    2.3911   -0.0478 O   0  0  0  0  0  0  0  0  0  0  0  0
    0.4720    0.5708   -0.1005 C   0  0  0  0  0  0  0  0  0  0  0  0
   -0.6379    1.2095   -0.0109 N   0  0  0  0  0  0  0  0  0  0  0  0
   -1.5663    0.2036   -0.0367 C   0  0  0  0  0  0  0  0  0  0  0  0
   -1.0307   -0.9814   -0.1387 N   0  0  0  0  0  0  0  0  0  0  0  0
    0.3111   -0.7397   -0.1801 O   0  0  0  0  0  0  0  0  0  0  0  0
   -2.9999    0.4427    0.0441 C   0  0  0  0  0  0  0  0  0  0  0  0
   -3.4635    1.7453    0.1660 C   0  0  0  0  0  0  0  0  0  0  0  0
   -4.8302    2.0303    0.2493 C   0  0  0  0  0  0  0  0  0  0  0  0
   -5.7731    1.0211    0.2126 C   0  0  0  0  0  0  0  0  0  0  0  0
   -5.3121   -0.2857    0.0900 C   0  0  0  0  0  0  0  0  0  0  0  0
   -3.9368   -0.6093    0.0042 C   0  0  0  0  0  0  0  0  0  0  0  0
   -3.8585   -2.0294   -0.1095 C   0  0  0  0  0  0  0  0  0  0  0  0
   -5.1444   -2.4948   -0.0888 C   0  0  0  0  0  0  0  0  0  0  0  0
   -6.0120   -1.4541    0.0302 N   0  0  0  0  0  0  0  0  0  0  0  0
    9.0593   -0.0538    0.9660 H   0  0  0  0  0  0  0  0  0  0  0  0
    9.3440   -1.7298    0.4627 H   0  0  0  0  0  0  0  0  0  0  0  0
    9.1029   -0.4649   -0.7570 H   0  0  0  0  0  0  0  0  0  0  0  0
    6.7932    0.7868    0.7359 H   0  0  0  0  0  0  0  0  0  0  0  0
    6.8457    0.4114   -0.9877 H   0  0  0  0  0  0  0  0  0  0  0  0
    4.9798   -1.2138   -0.6998 H   0  0  0  0  0  0  0  0  0  0  0  0
    4.9260   -0.8585    1.0282 H   0  0  0  0  0  0  0  0  0  0  0  0
    4.3842    1.5185    0.5390 H   0  0  0  0  0  0  0  0  0  0  0  0
    4.4674    1.1972   -1.1889 H   0  0  0  0  0  0  0  0  0  0  0  0
    2.6680   -0.6695   -0.2925 H   0  0  0  0  0  0  0  0  0  0  0  0
   -2.7546    2.5612    0.1978 H   0  0  0  0  0  0  0  0  0  0  0  0
   -5.1496    3.0592    0.3453 H   0  0  0  0  0  0  0  0  0  0  0  0
   -6.8315    1.2387    0.2781 H   0  0  0  0  0  0  0  0  0  0  0  0
   -7.0143   -1.5379    0.0676 H   0  0  0  0  0  0  0  0  0  0  0  0
   -2.9732   -2.6347   -0.1973 H   0  0  0  0  0  0  0  0  0  0  0  0
   -5.5075   -3.5080   -0.1506 H   0  0  0  0  0  0  0  0  0  0  0  0
  1  2  1  0
  2  3  1  0
  3  4  1  0
  4  5  1  0
  5  6  1  0
  6  7  1  0
  7  8  2  0
  7  9  1  0
  9 10  2  0
  9 13  1  0
 10 11  1  0
 11 12  2  0
 11 14  1  0
 12 13  1  0
 14 15  2  0
 14 19  1  0
 15 16  1  0
 16 17  2  0
 17 18  1  0
 18 19  2  0
 18 22  1  0
 19 20  1  0
 20 21  2  0
 21 22  1  0
  1 23  1  0
  1 24  1  0
  1 25  1  0
  3 26  1  0
  3 27  1  0
  4 28  1  0
  4 29  1  0
  5 30  1  0
  5 31  1  0
  6 32  1  0
 15 33  1  0
 16 34  1  0
 17 35  1  0
 22 36  1  0
 20 37  1  0
 21 38  1  0
M  END
