
     RDKit          3D

 38 40  0  0  0  0  0  0  0  0999 V2000
    3.8047   -0.4628   -1.5273 C   0  0  0  0  0  0  0  0  0  0  0  0
    5.8116   -1.0730   -1.4097 N   0  0  0  0  0  0  0  0  0  0  0  0
    5.4807   -0.8394   -0.1415 C   0  0  0  0  0  0  0  0  0  0  0  0
   -0.9745   -0.1302    0.8603 C   0  0  0  0  0  0  0  0  0  0  0  0
   -3.1388   -1.0166    0.0157 C   0  0  0  0  0  0  0  0  0  0  0  0
   -4.8279   -3.1382   -0.3092 C   0  0  0  0  0  0  0  0  0  0  0  0
   -4.7678   -2.1769   -1.3069 C   0  0  0  0  0  0  0  0  0  0  0  0
   -3.9101   -1.1027   -1.1412 C   0  0  0  0  0  0  0  0  0  0  0  0
   -3.1511    4.0250   -0.8981 C   0  0  0  0  0  0  0  0  0  0  0  0
   -1.6711    2.4483    0.0777 C   0  0  0  0  0  0  0  0  0  0  0  0
   -0.4412    2.2082    0.6944 C   0  0  0  0  0  0  0  0  0  0  0  0
   -0.0966    0.9265    1.0855 C   0  0  0  0  0  0  0  0  0  0  0  0
    1.2367    0.6668    1.7191 C   0  0  0  0  0  0  0  0  0  0  0  0
    2.1288    0.2783    0.6651 O   0  0  0  0  0  0  0  0  0  0  0  0
    4.1598   -0.4318   -0.1617 C   0  0  0  0  0  0  0  0  0  0  0  0
    4.8164   -0.8530   -2.2699 N   0  0  0  0  0  0  0  0  0  0  0  0
    3.7803   -0.0655    2.1393 O   0  0  0  0  0  0  0  0  0  0  0  0
   -2.2021    0.0976    0.2504 C   0  0  0  0  0  0  0  0  0  0  0  0
   -3.2896   -2.0378    0.9548 C   0  0  0  0  0  0  0  0  0  0  0  0
   -4.1055   -3.0708    0.8032 N   0  0  0  0  0  0  0  0  0  0  0  0
   -2.5498    1.3932   -0.1406 C   0  0  0  0  0  0  0  0  0  0  0  0
    2.8565   -0.2149   -1.9789 H   0  0  0  0  0  0  0  0  0  0  0  0
    6.7069   -1.3861   -1.7516 H   0  0  0  0  0  0  0  0  0  0  0  0
    6.1766   -0.9712    0.6703 H   0  0  0  0  0  0  0  0  0  0  0  0
   -0.6866   -1.1341    1.1474 H   0  0  0  0  0  0  0  0  0  0  0  0
   -5.4840   -3.9949   -0.4126 H   0  0  0  0  0  0  0  0  0  0  0  0
   -5.3731   -2.2746   -2.1976 H   0  0  0  0  0  0  0  0  0  0  0  0
   -3.8270   -0.3491   -1.9142 H   0  0  0  0  0  0  0  0  0  0  0  0
   -4.0096    3.7793   -0.2677 H   0  0  0  0  0  0  0  0  0  0  0  0
   -3.1479    5.0961   -1.0829 H   0  0  0  0  0  0  0  0  0  0  0  0
   -3.2525    3.5030   -1.8532 H   0  0  0  0  0  0  0  0  0  0  0  0
    0.2368    3.0361    0.8669 H   0  0  0  0  0  0  0  0  0  0  0  0
    1.6155    1.5614    2.2169 H   0  0  0  0  0  0  0  0  0  0  0  0
    1.1649   -0.1313    2.4605 H   0  0  0  0  0  0  0  0  0  0  0  0
   -2.7290   -2.0033    1.8835 H   0  0  0  0  0  0  0  0  0  0  0  0
   -3.5208    1.5654   -0.5866 H   0  0  0  0  0  0  0  0  0  0  0  0
    3.3671   -0.0635    1.0029 C   0  0  0  0  0  0  0  0  0  0  0  0
   -1.9253    3.7245   -0.2597 O   0  0  0  0  0  0  0  0  0  0  0  0
 20 19  1  0
 20  6  2  0
 19  5  2  0
 38  9  1  0
 38 10  1  0
  6  7  1  0
 21 10  2  0
 21 18  1  0
 10 11  1  0
  5 18  1  0
  5  8  1  0
 18  4  2  0
  7  8  2  0
 11 12  2  0
  4 12  1  0
 12 13  1  0
 13 14  1  0
 14 37  1  0
  1 15  1  0
  1 16  2  0
 37 15  1  0
 37 17  2  0
 15  3  2  0
 16  2  1  0
  3  2  1  0
  1 22  1  0
  2 23  1  0
  3 24  1  0
  4 25  1  0
  6 26  1  0
  7 27  1  0
  8 28  1  0
  9 29  1  0
  9 30  1  0
  9 31  1  0
 11 32  1  0
 13 33  1  0
 13 34  1  0
 19 35  1  0
 21 36  1  0
M  END
