
     RDKit          3D

 50 54  0  0  0  0  0  0  0  0999 V2000
   -3.8742   -0.9331   -0.4028 O   0  0  0  0  0  0  0  0  0  0  0  0
   -5.1732   -1.1507    0.1138 C   0  0  1  0  0  0  0  0  0  0  0  0
   -6.0063    0.1261   -0.0165 C   0  0  2  0  0  0  0  0  0  0  0  0
   -5.2868    1.2836    0.6678 C   0  0  1  0  0  0  0  0  0  0  0  0
   -3.8663    1.4148    0.1301 C   0  0  2  0  0  0  0  0  0  0  0  0
   -3.1629    0.0661    0.2801 C   0  0  2  0  0  0  0  0  0  0  0  0
   -1.7850    0.1161   -0.2857 C   0  0  0  0  0  0  0  0  0  0  0  0
   -3.1072    2.3586    0.8418 O   0  0  0  0  0  0  0  0  0  0  0  0
   -6.0387    2.4563    0.4398 O   0  0  0  0  0  0  0  0  0  0  0  0
   -7.2636   -0.1093    0.5651 O   0  0  0  0  0  0  0  0  0  0  0  0
   -5.7833   -2.3042   -0.6534 C   0  0  0  0  0  0  0  0  0  0  0  0
   -5.0220   -3.4631   -0.4116 O   0  0  0  0  0  0  0  0  0  0  0  0
   -0.6580    0.0043    0.4479 N   0  0  0  0  0  0  0  0  0  0  0  0
    0.3675    0.1142   -0.4305 C   0  0  0  0  0  0  0  0  0  0  0  0
   -0.1247    0.2817   -1.6320 N   0  0  0  0  0  0  0  0  0  0  0  0
   -1.4724    0.2850   -1.5391 N   0  0  0  0  0  0  0  0  0  0  0  0
    1.7839    0.0577   -0.0896 C   0  0  0  0  0  0  0  0  0  0  0  0
    2.2080    0.0038    1.2410 C   0  0  0  0  0  0  0  0  0  0  0  0
    3.5566   -0.0438    1.5590 C   0  0  0  0  0  0  0  0  0  0  0  0
    4.4885   -0.0366    0.5310 C   0  0  0  0  0  0  0  0  0  0  0  0
    4.0696    0.0168   -0.8048 C   0  0  0  0  0  0  0  0  0  0  0  0
    2.7292    0.0642   -1.1208 C   0  0  0  0  0  0  0  0  0  0  0  0
    5.9466   -0.0769    0.5580 C   0  0  0  0  0  0  0  0  0  0  0  0
    6.4131   -0.0491   -0.7620 C   0  0  0  0  0  0  0  0  0  0  0  0
    5.2590    0.0087   -1.7235 C   0  0  0  0  0  0  0  0  0  0  0  0
    6.8337   -0.1331    1.6256 C   0  0  0  0  0  0  0  0  0  0  0  0
    8.1956   -0.1607    1.3564 C   0  0  0  0  0  0  0  0  0  0  0  0
    8.6608   -0.1325    0.0436 C   0  0  0  0  0  0  0  0  0  0  0  0
    7.7713   -0.0766   -1.0251 C   0  0  0  0  0  0  0  0  0  0  0  0
   -5.1096   -1.4205    1.1809 H   0  0  0  0  0  0  0  0  0  0  0  0
   -6.1053    0.3645   -1.0882 H   0  0  0  0  0  0  0  0  0  0  0  0
   -5.2284    1.0629    1.7444 H   0  0  0  0  0  0  0  0  0  0  0  0
   -3.9088    1.6604   -0.9404 H   0  0  0  0  0  0  0  0  0  0  0  0
   -3.0896   -0.1696    1.3540 H   0  0  0  0  0  0  0  0  0  0  0  0
   -3.3700    3.2414    0.5645 H   0  0  0  0  0  0  0  0  0  0  0  0
   -5.9655    3.0325    1.2055 H   0  0  0  0  0  0  0  0  0  0  0  0
   -7.7556    0.7191    0.5527 H   0  0  0  0  0  0  0  0  0  0  0  0
   -6.8214   -2.4260   -0.3263 H   0  0  0  0  0  0  0  0  0  0  0  0
   -5.8084   -2.0471   -1.7213 H   0  0  0  0  0  0  0  0  0  0  0  0
   -5.3997   -4.1791   -0.9297 H   0  0  0  0  0  0  0  0  0  0  0  0
   -0.6072   -0.1499    1.4432 H   0  0  0  0  0  0  0  0  0  0  0  0
    1.4887    0.0038    2.0501 H   0  0  0  0  0  0  0  0  0  0  0  0
    3.8636   -0.0838    2.5966 H   0  0  0  0  0  0  0  0  0  0  0  0
    2.4031    0.1050   -2.1526 H   0  0  0  0  0  0  0  0  0  0  0  0
    5.2452   -0.8524   -2.3977 H   0  0  0  0  0  0  0  0  0  0  0  0
    5.2937    0.8987   -2.3580 H   0  0  0  0  0  0  0  0  0  0  0  0
    6.4778   -0.1545    2.6486 H   0  0  0  0  0  0  0  0  0  0  0  0
    8.9039   -0.2043    2.1733 H   0  0  0  0  0  0  0  0  0  0  0  0
    9.7263   -0.1540   -0.1454 H   0  0  0  0  0  0  0  0  0  0  0  0
    8.1406   -0.0553   -2.0433 H   0  0  0  0  0  0  0  0  0  0  0  0
  9  4  1  0
 10  3  1  0
  4  3  1  0
  4  5  1  0
  3  2  1  0
  8  5  1  0
  5  6  1  0
 12 11  1  0
  2 11  1  0
  2  1  1  0
  6  1  1  0
  6  7  1  0
 16  7  2  0
 16 15  1  0
  7 13  1  0
 15 14  2  0
 13 14  1  0
 14 17  1  0
 17 22  1  0
 17 18  2  0
 22 21  2  0
 18 19  1  0
 21 25  1  0
 21 20  1  0
 19 20  2  0
 25 24  1  0
 20 23  1  0
 24 23  2  0
 24 29  1  0
 23 26  1  0
 29 28  2  0
 26 27  2  0
 28 27  1  0
  2 30  1  1
  3 31  1  6
  4 32  1  1
  5 33  1  6
  6 34  1  1
  8 35  1  0
  9 36  1  0
 10 37  1  0
 11 38  1  0
 11 39  1  0
 12 40  1  0
 13 41  1  0
 18 42  1  0
 19 43  1  0
 22 44  1  0
 25 45  1  0
 25 46  1  0
 26 47  1  0
 27 48  1  0
 28 49  1  0
 29 50  1  0
M  END
