
     RDKit          3D

 29 31  0  0  0  0  0  0  0  0999 V2000
   -4.7206    1.0094   -0.0664 N   0  0  0  0  0  0  0  0  0  0  0  0
    5.2789    0.3274    0.5367 O   0  0  0  0  0  0  0  0  0  0  0  0
    3.0082   -0.1338    0.1724 C   0  0  0  0  0  0  0  0  0  0  0  0
   -5.3025   -0.1350    0.4005 C   0  0  0  0  0  0  0  0  0  0  0  0
   -4.3471   -1.0862    0.6141 C   0  0  0  0  0  0  0  0  0  0  0  0
   -3.0958   -0.4956    0.2542 C   0  0  0  0  0  0  0  0  0  0  0  0
   -1.7735   -0.9476    0.2487 C   0  0  0  0  0  0  0  0  0  0  0  0
    1.6836    0.2940    0.1832 C   0  0  0  0  0  0  0  0  0  0  0  0
    3.3126   -1.4408   -0.2038 C   0  0  0  0  0  0  0  0  0  0  0  0
    2.2862   -2.2999   -0.5634 C   0  0  0  0  0  0  0  0  0  0  0  0
    0.9696   -1.8660   -0.5543 C   0  0  0  0  0  0  0  0  0  0  0  0
    0.6450   -0.5601   -0.1789 C   0  0  0  0  0  0  0  0  0  0  0  0
   -0.7579   -0.0981   -0.1650 C   0  0  0  0  0  0  0  0  0  0  0  0
   -1.0708    1.2164   -0.5761 C   0  0  0  0  0  0  0  0  0  0  0  0
   -2.3655    1.6903   -0.5840 C   0  0  0  0  0  0  0  0  0  0  0  0
   -3.3742    0.8246   -0.1654 C   0  0  0  0  0  0  0  0  0  0  0  0
    3.8262    1.9742    0.9137 O   0  0  0  0  0  0  0  0  0  0  0  0
   -5.2152    1.8553   -0.2957 H   0  0  0  0  0  0  0  0  0  0  0  0
    5.9247    0.9984    0.8031 H   0  0  0  0  0  0  0  0  0  0  0  0
   -6.3695   -0.1837    0.5463 H   0  0  0  0  0  0  0  0  0  0  0  0
   -4.5173   -2.0859    0.9804 H   0  0  0  0  0  0  0  0  0  0  0  0
   -1.5452   -1.9504    0.5897 H   0  0  0  0  0  0  0  0  0  0  0  0
    1.4588    1.3046    0.4986 H   0  0  0  0  0  0  0  0  0  0  0  0
    4.3340   -1.7939   -0.2230 H   0  0  0  0  0  0  0  0  0  0  0  0
    2.5153   -3.3136   -0.8637 H   0  0  0  0  0  0  0  0  0  0  0  0
    0.1858   -2.5478   -0.8604 H   0  0  0  0  0  0  0  0  0  0  0  0
   -0.2759    1.8680   -0.9171 H   0  0  0  0  0  0  0  0  0  0  0  0
   -2.5873    2.6975   -0.9129 H   0  0  0  0  0  0  0  0  0  0  0  0
    4.0559    0.8364    0.5788 C   0  0  0  0  0  0  0  0  0  0  0  0
  1  4  1  0
  1 16  1  0
 15 16  2  0
 15 14  1  0
 17 29  2  0
  4  5  2  0
 16  6  1  0
 14 13  2  0
  5  6  1  0
  6  7  2  0
 29  2  1  0
 29  3  1  0
  8  3  2  0
  8 12  1  0
 13  7  1  0
 13 12  1  0
  3  9  1  0
 12 11  2  0
  9 10  2  0
 11 10  1  0
  1 18  1  0
  2 19  1  0
  4 20  1  0
  5 21  1  0
  7 22  1  0
  8 23  1  0
  9 24  1  0
 10 25  1  0
 11 26  1  0
 14 27  1  0
 15 28  1  0
M  END
