
     RDKit          3D

 64 69  0  0  0  0  0  0  0  0999 V2000
   -2.8687    0.3936    0.1777 N   0  0  0  0  0  0  0  0  0  0  0  0
   -3.5907   -0.7658    0.0569 C   0  0  0  0  0  0  0  0  0  0  0  0
   -7.0940   -1.7911   -0.9080 C   0  0  0  0  0  0  0  0  0  0  0  0
   -5.7390    0.3727    0.3303 C   0  0  0  0  0  0  0  0  0  0  0  0
   -5.0429   -0.7370   -0.1205 C   0  0  0  0  0  0  0  0  0  0  0  0
   -5.7284   -1.8097   -0.7460 C   0  0  0  0  0  0  0  0  0  0  0  0
    1.8739    0.3365    1.0197 C   0  0  0  0  0  0  0  0  0  0  0  0
    4.1533   -0.4691    1.2468 C   0  0  0  0  0  0  0  0  0  0  0  0
    5.1942   -1.2036    0.4464 C   0  0  0  0  0  0  0  0  0  0  0  0
   -2.7223   -1.8213    0.1707 C   0  0  0  0  0  0  0  0  0  0  0  0
    7.1079   -2.6360   -1.0338 C   0  0  0  0  0  0  0  0  0  0  0  0
    1.5626    3.4802   -0.3245 C   0  0  0  0  0  0  0  0  0  0  0  0
    0.3229    3.3499    0.2941 C   0  0  0  0  0  0  0  0  0  0  0  0
    0.0306    4.1729    1.3800 C   0  0  0  0  0  0  0  0  0  0  0  0
    0.9530    5.1014    1.8395 C   0  0  0  0  0  0  0  0  0  0  0  0
    2.1900    5.2179    1.2182 C   0  0  0  0  0  0  0  0  0  0  0  0
    2.4919    4.4044    0.1349 C   0  0  0  0  0  0  0  0  0  0  0  0
   -0.6699    2.3161   -0.1514 C   0  0  0  0  0  0  0  0  0  0  0  0
   -0.4662    0.9852    0.5865 C   0  0  2  0  0  0  0  0  0  0  0  0
    0.7609    0.3216    0.2249 N   0  0  0  0  0  0  0  0  0  0  0  0
   -1.6215    0.0540    0.3551 C   0  0  0  0  0  0  0  0  0  0  0  0
   -1.4836   -1.2882    0.3571 N   0  0  0  0  0  0  0  0  0  0  0  0
   -2.9448   -3.5077    0.1709 Cl  0  0  0  0  0  0  0  0  0  0  0  0
    2.9484   -0.2987    0.4622 N   0  0  0  0  0  0  0  0  0  0  0  0
    1.9118    0.8538    2.1229 O   0  0  0  0  0  0  0  0  0  0  0  0
    5.6769   -0.7285   -0.7729 C   0  0  0  0  0  0  0  0  0  0  0  0
    6.6180   -1.4298   -1.5070 C   0  0  0  0  0  0  0  0  0  0  0  0
    6.6436   -3.1094    0.1812 C   0  0  0  0  0  0  0  0  0  0  0  0
    5.6970   -2.4094    0.9150 C   0  0  0  0  0  0  0  0  0  0  0  0
    7.2432   -4.6077    0.7946 Cl  0  0  0  0  0  0  0  0  0  0  0  0
    5.1999    0.5005   -1.2942 N   0  0  0  0  0  0  0  0  0  0  0  0
    4.4510    0.7287   -2.3761 C   0  0  0  0  0  0  0  0  0  0  0  0
    4.2670    2.0171   -2.4758 N   0  0  0  0  0  0  0  0  0  0  0  0
    4.9132    2.5603   -1.4411 N   0  0  0  0  0  0  0  0  0  0  0  0
    5.4728    1.6702   -0.7258 N   0  0  0  0  0  0  0  0  0  0  0  0
   -7.8086   -0.6825   -0.4478 C   0  0  0  0  0  0  0  0  0  0  0  0
   -7.1259    0.3828    0.1632 C   0  0  0  0  0  0  0  0  0  0  0  0
   -8.0674    1.2838    0.5062 N   0  0  0  0  0  0  0  0  0  0  0  0
   -9.3111    0.8835    0.1542 N   0  0  0  0  0  0  0  0  0  0  0  0
   -9.1816   -0.2879   -0.4140 C   0  0  0  0  0  0  0  0  0  0  0  0
  -10.2553   -1.0375   -0.8422 N   0  0  0  0  0  0  0  0  0  0  0  0
   -7.5947   -2.6211   -1.3902 H   0  0  0  0  0  0  0  0  0  0  0  0
   -5.2223    1.1964    0.8043 H   0  0  0  0  0  0  0  0  0  0  0  0
   -5.1718   -2.6552   -1.1231 H   0  0  0  0  0  0  0  0  0  0  0  0
    3.9644   -1.0232    2.1700 H   0  0  0  0  0  0  0  0  0  0  0  0
    4.5341    0.5109    1.5392 H   0  0  0  0  0  0  0  0  0  0  0  0
    7.8424   -3.1876   -1.6030 H   0  0  0  0  0  0  0  0  0  0  0  0
    1.8084    2.8584   -1.1777 H   0  0  0  0  0  0  0  0  0  0  0  0
   -0.9329    4.0886    1.8702 H   0  0  0  0  0  0  0  0  0  0  0  0
    0.7066    5.7346    2.6825 H   0  0  0  0  0  0  0  0  0  0  0  0
    2.9131    5.9396    1.5761 H   0  0  0  0  0  0  0  0  0  0  0  0
    3.4552    4.4789   -0.3513 H   0  0  0  0  0  0  0  0  0  0  0  0
   -1.6859    2.6631    0.0422 H   0  0  0  0  0  0  0  0  0  0  0  0
   -0.5959    2.1394   -1.2279 H   0  0  0  0  0  0  0  0  0  0  0  0
   -0.4103    1.1906    1.6590 H   0  0  0  0  0  0  0  0  0  0  0  0
    0.8867    0.1084   -0.7539 H   0  0  0  0  0  0  0  0  0  0  0  0
   -0.6233   -1.8021    0.4771 H   0  0  0  0  0  0  0  0  0  0  0  0
    2.7518   -1.0241   -0.2109 H   0  0  0  0  0  0  0  0  0  0  0  0
    6.9778   -1.0337   -2.4472 H   0  0  0  0  0  0  0  0  0  0  0  0
    5.3393   -2.8078    1.8553 H   0  0  0  0  0  0  0  0  0  0  0  0
    4.0738   -0.0398   -3.0302 H   0  0  0  0  0  0  0  0  0  0  0  0
   -7.9463    2.1565    0.9899 H   0  0  0  0  0  0  0  0  0  0  0  0
  -10.0841   -1.5465   -1.6960 H   0  0  0  0  0  0  0  0  0  0  0  0
  -11.1126   -0.5102   -0.9138 H   0  0  0  0  0  0  0  0  0  0  0  0
 33 32  2  0
 33 34  1  0
 32 31  1  0
 34 35  2  0
 31 35  1  0
 31 26  1  0
 23 10  1  0
 26 27  1  0
 26  9  2  0
 27 11  2  0
 12 17  2  0
 12 13  1  0
 22 10  1  0
 22 21  1  0
 18 13  1  0
 18 19  1  0
 10  2  2  0
 17 16  1  0
  9  8  1  0
  9 29  1  0
  8 24  1  0
 11 28  1  0
 13 14  2  0
 20 19  1  0
 20  7  1  0
 21 19  1  0
 21  1  2  0
 29 28  2  0
 28 30  1  0
 24  7  1  0
 16 15  2  0
  2  1  1  0
  2  5  1  0
  7 25  2  0
 14 15  1  0
  4  5  2  0
  4 37  1  0
  5  6  1  0
 38 37  1  0
 38 39  1  0
 37 36  2  0
  6  3  2  0
 39 40  2  0
 36  3  1  0
 36 40  1  0
 40 41  1  0
  3 42  1  0
  4 43  1  0
  6 44  1  0
  8 45  1  0
  8 46  1  0
 11 47  1  0
 12 48  1  0
 14 49  1  0
 15 50  1  0
 16 51  1  0
 17 52  1  0
 18 53  1  0
 18 54  1  0
 19 55  1  1
 20 56  1  0
 22 57  1  0
 24 58  1  0
 27 59  1  0
 29 60  1  0
 32 61  1  0
 38 62  1  0
 41 63  1  0
 41 64  1  0
M  END
