
     RDKit          3D

 74 77  0  0  0  0  0  0  0  0999 V2000
   -6.0476   -3.0043    1.4204 C   0  0  0  0  0  0  0  0  0  0  0  0
   -5.3730   -4.2129    1.4215 C   0  0  0  0  0  0  0  0  0  0  0  0
   -5.5330   -1.9417    0.6946 C   0  0  0  0  0  0  0  0  0  0  0  0
   -4.2031   -4.3423    0.6875 C   0  0  0  0  0  0  0  0  0  0  0  0
    2.3719   -2.9736   -0.5961 C   0  0  0  0  0  0  0  0  0  0  0  0
    3.4858   -2.1797   -0.3706 C   0  0  0  0  0  0  0  0  0  0  0  0
   -4.3502   -2.0620   -0.0373 C   0  0  0  0  0  0  0  0  0  0  0  0
    1.0230   -1.0183   -0.8972 C   0  0  0  0  0  0  0  0  0  0  0  0
   -3.6735   -3.2925   -0.0584 C   0  0  0  0  0  0  0  0  0  0  0  0
    1.1313   -2.4096   -0.8615 C   0  0  0  0  0  0  0  0  0  0  0  0
    3.3775   -0.7991   -0.4046 C   0  0  0  0  0  0  0  0  0  0  0  0
    2.1351   -0.2137   -0.6668 C   0  0  0  0  0  0  0  0  0  0  0  0
   -2.9414    5.2776    1.1695 C   0  0  0  0  0  0  0  0  0  0  0  0
   -2.9548    3.9864    1.9803 C   0  0  0  0  0  0  0  0  0  0  0  0
   -3.9071   -0.8741   -0.8331 C   0  0  0  0  0  0  0  0  0  0  0  0
    7.8462    2.3496    1.0305 C   0  0  0  0  0  0  0  0  0  0  0  0
   -3.9792    4.0570   -0.7744 C   0  0  0  0  0  0  0  0  0  0  0  0
   -2.8724    2.7632    1.0725 C   0  0  0  0  0  0  0  0  0  0  0  0
    3.1983    1.8578   -0.8333 C   0  0  0  0  0  0  0  0  0  0  0  0
   -3.9879    2.7535    0.0261 C   0  0  2  0  0  0  0  0  0  0  0  0
   -2.4052   -3.5664   -0.8297 C   0  0  0  0  0  0  0  0  0  0  0  0
   -0.0687   -3.2877   -1.0990 C   0  0  0  0  0  0  0  0  0  0  0  0
   -1.0069   -3.1131    1.0957 C   0  0  0  0  0  0  0  0  0  0  0  0
   -3.8789    1.5734   -0.9309 C   0  0  0  0  0  0  0  0  0  0  0  0
    5.5408    2.0734    0.0471 C   0  0  0  0  0  0  0  0  0  0  0  0
   -4.0761    0.3099   -0.2469 N   0  0  0  0  0  0  0  0  0  0  0  0
   -1.2255   -2.8862   -0.3171 N   0  0  0  0  0  0  0  0  0  0  0  0
   -0.8104    0.3550   -0.2845 O   0  0  0  0  0  0  0  0  0  0  0  0
    8.0592    3.3179    0.3443 O   0  0  0  0  0  0  0  0  0  0  0  0
   -3.4752   -0.9810   -1.9858 O   0  0  0  0  0  0  0  0  0  0  0  0
   -0.8335   -0.6624   -2.2794 O   0  0  0  0  0  0  0  0  0  0  0  0
    8.7269    1.8716    1.9039 O   0  0  0  0  0  0  0  0  0  0  0  0
    1.9866    1.1269   -0.7272 O   0  0  0  0  0  0  0  0  0  0  0  0
    4.4802   -0.0503   -0.1730 O   0  0  0  0  0  0  0  0  0  0  0  0
   -4.0583    5.2804    0.1327 C   0  0  0  0  0  0  0  0  0  0  0  0
    4.2312    1.3182    0.1344 C   0  0  2  0  0  0  0  0  0  0  0  0
   -6.9708   -2.8852    1.9714 H   0  0  0  0  0  0  0  0  0  0  0  0
   -5.7534   -5.0547    1.9850 H   0  0  0  0  0  0  0  0  0  0  0  0
   -6.0879   -1.0121    0.6794 H   0  0  0  0  0  0  0  0  0  0  0  0
   -3.6821   -5.2920    0.6899 H   0  0  0  0  0  0  0  0  0  0  0  0
    2.4695   -4.0510   -0.5465 H   0  0  0  0  0  0  0  0  0  0  0  0
    4.4477   -2.6284   -0.1556 H   0  0  0  0  0  0  0  0  0  0  0  0
   -2.2571   -4.6588   -0.8239 H   0  0  0  0  0  0  0  0  0  0  0  0
   -2.5308   -3.2762   -1.8734 H   0  0  0  0  0  0  0  0  0  0  0  0
   -0.3429   -3.2470   -2.1559 H   0  0  0  0  0  0  0  0  0  0  0  0
    0.2161   -4.3334   -0.8955 H   0  0  0  0  0  0  0  0  0  0  0  0
   -3.0329    6.1437    1.8295 H   0  0  0  0  0  0  0  0  0  0  0  0
   -1.9750    5.3722    0.6619 H   0  0  0  0  0  0  0  0  0  0  0  0
   -2.1239    3.9759    2.6899 H   0  0  0  0  0  0  0  0  0  0  0  0
   -3.8724    3.9408    2.5772 H   0  0  0  0  0  0  0  0  0  0  0  0
   -5.0269    5.2850    0.6448 H   0  0  0  0  0  0  0  0  0  0  0  0
   -4.0209    6.1925   -0.4677 H   0  0  0  0  0  0  0  0  0  0  0  0
   -1.9073    2.7558    0.5559 H   0  0  0  0  0  0  0  0  0  0  0  0
   -2.8980    1.8532    1.6776 H   0  0  0  0  0  0  0  0  0  0  0  0
   -4.3554    0.3354    0.7204 H   0  0  0  0  0  0  0  0  0  0  0  0
   -1.8133   -0.5387   -2.2568 H   0  0  0  0  0  0  0  0  0  0  0  0
    6.8482    0.5036    0.7798 H   0  0  0  0  0  0  0  0  0  0  0  0
    6.1827    1.5127    2.0364 H   0  0  0  0  0  0  0  0  0  0  0  0
    9.5316    2.4108    1.8915 H   0  0  0  0  0  0  0  0  0  0  0  0
   -3.0610    4.1040   -1.3725 H   0  0  0  0  0  0  0  0  0  0  0  0
   -4.8117    4.0623   -1.4835 H   0  0  0  0  0  0  0  0  0  0  0  0
   -4.9545    2.6919    0.5463 H   0  0  0  0  0  0  0  0  0  0  0  0
    3.5791    1.8101   -1.8599 H   0  0  0  0  0  0  0  0  0  0  0  0
    2.9606    2.8949   -0.6007 H   0  0  0  0  0  0  0  0  0  0  0  0
    3.8331    1.3880    1.1561 H   0  0  0  0  0  0  0  0  0  0  0  0
   -4.6281    1.6726   -1.7226 H   0  0  0  0  0  0  0  0  0  0  0  0
   -2.8976    1.5840   -1.4079 H   0  0  0  0  0  0  0  0  0  0  0  0
   -0.8626   -4.1755    1.3469 H   0  0  0  0  0  0  0  0  0  0  0  0
   -0.1198   -2.5712    1.4234 H   0  0  0  0  0  0  0  0  0  0  0  0
   -1.8484   -2.7411    1.6786 H   0  0  0  0  0  0  0  0  0  0  0  0
    5.3306    3.1207    0.2743 H   0  0  0  0  0  0  0  0  0  0  0  0
    5.9175    2.0399   -0.9782 H   0  0  0  0  0  0  0  0  0  0  0  0
   -0.3070   -0.3731   -1.1024 C   0  0  0  0  0  0  0  0  0  0  0  0
    6.5816    1.5368    1.0172 C   0  0  0  0  0  0  0  0  0  0  0  0
  1  2  2  0
  1  3  1  0
  2  4  1  0
  3  7  2  0
  4  9  2  0
  5  6  2  0
  5 10  1  0
  6 11  1  0
  7  9  1  0
  7 15  1  0
  8 10  2  0
  8 12  1  0
  8 73  1  0
  9 21  1  0
 10 22  1  0
 11 12  2  0
 11 34  1  0
 12 33  1  0
 13 14  1  0
 13 35  1  0
 14 18  1  0
 15 26  1  0
 15 30  2  0
 73 28  2  0
 73 31  1  0
 16 74  1  0
 16 29  2  0
 16 32  1  0
 17 20  1  0
 17 35  1  0
 18 20  1  0
 19 33  1  0
 19 36  1  0
 20 24  1  0
 21 27  1  0
 22 27  1  0
 23 27  1  0
 74 25  1  0
 24 26  1  0
 25 36  1  0
 34 36  1  0
  1 37  1  0
  2 38  1  0
  3 39  1  0
  4 40  1  0
  5 41  1  0
  6 42  1  0
 21 43  1  0
 21 44  1  0
 22 45  1  0
 22 46  1  0
 13 47  1  0
 13 48  1  0
 14 49  1  0
 14 50  1  0
 35 51  1  0
 35 52  1  0
 18 53  1  0
 18 54  1  0
 26 55  1  0
 31 56  1  0
 74 57  1  0
 74 58  1  0
 32 59  1  0
 17 60  1  0
 17 61  1  0
 20 62  1  1
 19 63  1  0
 19 64  1  0
 36 65  1  1
 24 66  1  0
 24 67  1  0
 23 68  1  0
 23 69  1  0
 23 70  1  0
 25 71  1  0
 25 72  1  0
M  END
