
     RDKit          3D

 18 18  0  0  0  0  0  0  0  0999 V2000
    1.0584   -0.5260   -0.5750 C   0  0  0  0  0  0  0  0  0  0  0  0
   -0.0039    0.1660   -0.0030 C   0  0  0  0  0  0  0  0  0  0  0  0
   -1.0675   -0.5146    0.5804 C   0  0  0  0  0  0  0  0  0  0  0  0
   -1.0616   -1.9071    0.5881 C   0  0  0  0  0  0  0  0  0  0  0  0
   -0.0064   -2.6052    0.0201 C   0  0  0  0  0  0  0  0  0  0  0  0
    1.0500   -1.9185   -0.5594 C   0  0  0  0  0  0  0  0  0  0  0  0
    2.1914    0.2134   -1.1965 C   0  0  0  0  0  0  0  0  0  0  0  0
   -2.1986    0.2377    1.1891 C   0  0  0  0  0  0  0  0  0  0  0  0
    3.6193    0.5423    0.1410 Br  0  0  0  0  0  0  0  0  0  0  0  0
   -0.0031    1.2507   -0.0123 H   0  0  0  0  0  0  0  0  0  0  0  0
   -1.8854   -2.4461    1.0400 H   0  0  0  0  0  0  0  0  0  0  0  0
   -0.0071   -3.6871    0.0289 H   0  0  0  0  0  0  0  0  0  0  0  0
    1.8726   -2.4665   -1.0025 H   0  0  0  0  0  0  0  0  0  0  0  0
    2.6608   -0.3499   -2.0004 H   0  0  0  0  0  0  0  0  0  0  0  0
    1.8970    1.1936   -1.5657 H   0  0  0  0  0  0  0  0  0  0  0  0
   -2.6670   -0.3077    2.0058 H   0  0  0  0  0  0  0  0  0  0  0  0
   -1.9039    1.2261    1.5344 H   0  0  0  0  0  0  0  0  0  0  0  0
   -3.6310    0.5379   -0.1519 Br  0  0  0  0  0  0  0  0  0  0  0  0
  5  4  2  0
  5  6  1  0
  4  3  1  0
  6  1  2  0
  3  8  1  0
  3  2  2  0
  1  2  1  0
  1  7  1  0
  7  9  1  0
  2 10  1  0
  4 11  1  0
  5 12  1  0
  6 13  1  0
  7 14  1  0
  7 15  1  0
  8 16  1  0
  8 17  1  0
  8 18  1  0
M  END
