
     RDKit          3D

 68 70  0  0  0  0  0  0  0  0999 V2000
   -7.0124   -2.8508    1.0627 C   0  0  0  0  0  0  0  0  0  0  0  0
   -6.6246   -1.5754    1.5389 O   0  0  0  0  0  0  0  0  0  0  0  0
   -5.8202   -0.8103    0.7899 C   0  0  0  0  0  0  0  0  0  0  0  0
   -5.3230   -1.2165   -0.4395 C   0  0  0  0  0  0  0  0  0  0  0  0
   -4.5039   -0.3998   -1.2098 C   0  0  0  0  0  0  0  0  0  0  0  0
   -4.0559   -0.9851   -2.5241 C   0  0  0  0  0  0  0  0  0  0  0  0
   -4.1737    0.8642   -0.6942 C   0  0  0  0  0  0  0  0  0  0  0  0
   -4.6175    1.2674    0.5864 C   0  0  0  0  0  0  0  0  0  0  0  0
   -4.2228    2.5583    1.2596 C   0  0  0  0  0  0  0  0  0  0  0  0
   -5.4750    0.4421    1.3149 C   0  0  0  0  0  0  0  0  0  0  0  0
   -6.0192    0.8752    2.6487 C   0  0  0  0  0  0  0  0  0  0  0  0
   -3.1959    2.0122   -1.6513 S   0  0  2  0  0  0  0  0  0  0  0  0
   -3.7253    3.3553   -1.4744 O   0  0  0  0  0  0  0  0  0  0  0  0
   -3.0548    1.5191   -3.0101 O   0  0  0  0  0  0  0  0  0  0  0  0
   -1.6726    2.0123   -1.0086 N   0  0  0  0  0  0  0  0  0  0  0  0
   -0.9500    0.7453   -0.9806 C   0  0  0  0  0  0  0  0  0  0  0  0
    0.3503    0.9329   -0.2076 C   0  0  1  0  0  0  0  0  0  0  0  0
    0.1025    1.3416    1.1214 O   0  0  0  0  0  0  0  0  0  0  0  0
    1.2668   -0.3022   -0.2856 C   0  0  2  0  0  0  0  0  0  0  0  0
    0.6683   -1.5432    0.3966 C   0  0  0  0  0  0  0  0  0  0  0  0
    1.4683   -2.7767    0.0903 C   0  0  0  0  0  0  0  0  0  0  0  0
    2.4766   -3.2129    0.9451 C   0  0  0  0  0  0  0  0  0  0  0  0
    3.2404   -4.3297    0.6343 C   0  0  0  0  0  0  0  0  0  0  0  0
    3.0081   -5.0286   -0.5437 C   0  0  0  0  0  0  0  0  0  0  0  0
    2.0038   -4.6043   -1.4038 C   0  0  0  0  0  0  0  0  0  0  0  0
    1.2411   -3.4880   -1.0856 C   0  0  0  0  0  0  0  0  0  0  0  0
    2.5841   -0.0707    0.2583 N   0  0  0  0  0  0  0  0  0  0  0  0
    3.4681    0.7749   -0.5083 C   0  0  0  0  0  0  0  0  0  0  0  0
    4.8998    0.5843   -0.0730 C   0  0  0  0  0  0  0  0  0  0  0  0
    5.3947   -0.6934    0.1831 C   0  0  0  0  0  0  0  0  0  0  0  0
    6.7179   -0.8714    0.5540 C   0  0  0  0  0  0  0  0  0  0  0  0
    7.5724    0.2169    0.6844 C   0  0  0  0  0  0  0  0  0  0  0  0
    7.0693    1.4820    0.4343 C   0  0  0  0  0  0  0  0  0  0  0  0
    8.1103    2.8616    0.6032 Cl  0  0  0  0  0  0  0  0  0  0  0  0
    5.7475    1.6775    0.0605 C   0  0  0  0  0  0  0  0  0  0  0  0
   -6.1538   -3.5118    0.9247 H   0  0  0  0  0  0  0  0  0  0  0  0
   -7.6634   -3.2744    1.8228 H   0  0  0  0  0  0  0  0  0  0  0  0
   -7.5648   -2.7839    0.1225 H   0  0  0  0  0  0  0  0  0  0  0  0
   -5.5714   -2.1929   -0.8322 H   0  0  0  0  0  0  0  0  0  0  0  0
   -4.4941   -0.4675   -3.3744 H   0  0  0  0  0  0  0  0  0  0  0  0
   -2.9761   -0.9638   -2.6524 H   0  0  0  0  0  0  0  0  0  0  0  0
   -4.3689   -2.0261   -2.5748 H   0  0  0  0  0  0  0  0  0  0  0  0
   -5.0012    3.3146    1.1448 H   0  0  0  0  0  0  0  0  0  0  0  0
   -4.0902    2.3908    2.3262 H   0  0  0  0  0  0  0  0  0  0  0  0
   -3.3012    3.0044    0.9072 H   0  0  0  0  0  0  0  0  0  0  0  0
   -6.3832    1.9017    2.6137 H   0  0  0  0  0  0  0  0  0  0  0  0
   -6.8458    0.2496    2.9727 H   0  0  0  0  0  0  0  0  0  0  0  0
   -5.2549    0.8326    3.4283 H   0  0  0  0  0  0  0  0  0  0  0  0
   -1.6270    2.5100   -0.1250 H   0  0  0  0  0  0  0  0  0  0  0  0
   -1.5512   -0.0522   -0.5233 H   0  0  0  0  0  0  0  0  0  0  0  0
   -0.7190    0.4434   -2.0025 H   0  0  0  0  0  0  0  0  0  0  0  0
    0.8859    1.7681   -0.6708 H   0  0  0  0  0  0  0  0  0  0  0  0
   -0.3702    0.6409    1.5849 H   0  0  0  0  0  0  0  0  0  0  0  0
    1.3902   -0.5332   -1.3504 H   0  0  0  0  0  0  0  0  0  0  0  0
    0.6353   -1.3899    1.4797 H   0  0  0  0  0  0  0  0  0  0  0  0
   -0.3635   -1.6924    0.0711 H   0  0  0  0  0  0  0  0  0  0  0  0
    2.6649   -2.6720    1.8644 H   0  0  0  0  0  0  0  0  0  0  0  0
    4.0181   -4.6562    1.3133 H   0  0  0  0  0  0  0  0  0  0  0  0
    3.6020   -5.9003   -0.7874 H   0  0  0  0  0  0  0  0  0  0  0  0
    1.8108   -5.1435   -2.3226 H   0  0  0  0  0  0  0  0  0  0  0  0
    0.4589   -3.1644   -1.7636 H   0  0  0  0  0  0  0  0  0  0  0  0
    2.5257    0.2477    1.2178 H   0  0  0  0  0  0  0  0  0  0  0  0
    3.3808    0.4824   -1.5598 H   0  0  0  0  0  0  0  0  0  0  0  0
    3.2217    1.8458   -0.4746 H   0  0  0  0  0  0  0  0  0  0  0  0
    4.7291   -1.5430    0.0996 H   0  0  0  0  0  0  0  0  0  0  0  0
    7.0967   -1.8663    0.7491 H   0  0  0  0  0  0  0  0  0  0  0  0
    8.6040    0.0782    0.9778 H   0  0  0  0  0  0  0  0  0  0  0  0
    5.3776    2.6787   -0.1227 H   0  0  0  0  0  0  0  0  0  0  0  0
  1  2  1  0
  1 36  1  0
  1 37  1  0
  1 38  1  0
  2  3  1  0
  3  4  2  0
  3 10  1  0
  4  5  1  0
  4 39  1  0
  5  6  1  0
  5  7  2  0
  6 40  1  0
  6 41  1  0
  6 42  1  0
  7  8  1  0
  7 12  1  0
  8  9  1  0
  8 10  2  0
  9 43  1  0
  9 44  1  0
  9 45  1  0
 10 11  1  0
 11 46  1  0
 11 47  1  0
 11 48  1  0
 12 13  2  0
 12 14  2  0
 12 15  1  1
 15 16  1  0
 15 49  1  0
 16 17  1  0
 16 50  1  0
 16 51  1  0
 17 18  1  0
 17 19  1  0
 17 52  1  6
 18 53  1  0
 19 20  1  0
 19 27  1  0
 19 54  1  6
 20 21  1  0
 20 55  1  0
 20 56  1  0
 21 22  2  0
 21 26  1  0
 22 23  1  0
 22 57  1  0
 23 24  2  0
 23 58  1  0
 24 25  1  0
 24 59  1  0
 25 26  2  0
 25 60  1  0
 26 61  1  0
 27 28  1  0
 27 62  1  0
 28 29  1  0
 28 63  1  0
 28 64  1  0
 29 30  2  0
 29 35  1  0
 30 31  1  0
 30 65  1  0
 31 32  2  0
 31 66  1  0
 32 33  1  0
 32 67  1  0
 33 34  1  0
 33 35  2  0
 35 68  1  0
M  END
