
     RDKit          3D

 21 21  0  0  0  0  0  0  0  0999 V2000
    0.0915   -0.0587    0.3998 C   0  0  0  0  0  0  0  0  0  0  0  0
    0.7310    1.1523    0.1425 C   0  0  0  0  0  0  0  0  0  0  0  0
    2.0710    1.1828   -0.2172 C   0  0  0  0  0  0  0  0  0  0  0  0
    2.7916   -0.0005   -0.3214 C   0  0  0  0  0  0  0  0  0  0  0  0
    2.1639   -1.2115   -0.0639 C   0  0  0  0  0  0  0  0  0  0  0  0
    0.8213   -1.2387    0.2922 C   0  0  0  0  0  0  0  0  0  0  0  0
   -1.3730   -0.0875    0.7454 C   0  0  0  0  0  0  0  0  0  0  0  0
   -2.2043    0.0977   -0.5136 C   0  0  0  0  0  0  0  0  0  0  0  0
   -3.6585    0.0597   -0.2084 N   0  0  0  0  0  0  0  0  0  0  0  0
    0.1775    2.0806    0.2284 H   0  0  0  0  0  0  0  0  0  0  0  0
    2.5535    2.1314   -0.4143 H   0  0  0  0  0  0  0  0  0  0  0  0
    3.8377    0.0220   -0.5980 H   0  0  0  0  0  0  0  0  0  0  0  0
    2.7189   -2.1376   -0.1409 H   0  0  0  0  0  0  0  0  0  0  0  0
    0.3388   -2.1878    0.4935 H   0  0  0  0  0  0  0  0  0  0  0  0
   -1.6084    0.7042    1.4612 H   0  0  0  0  0  0  0  0  0  0  0  0
   -1.6284   -1.0385    1.2177 H   0  0  0  0  0  0  0  0  0  0  0  0
   -2.0156   -0.6916   -1.2378 H   0  0  0  0  0  0  0  0  0  0  0  0
   -2.0092    1.0577   -0.9852 H   0  0  0  0  0  0  0  0  0  0  0  0
   -4.2172    0.2164   -1.0468 H   0  0  0  0  0  0  0  0  0  0  0  0
   -3.9274    0.7758    0.4659 H   0  0  0  0  0  0  0  0  0  0  0  0
   -3.9450   -0.8402    0.1752 H   0  0  0  0  0  0  0  0  0  0  0  0
  1  2  2  0
  1  6  1  0
  1  7  1  0
  2  3  1  0
  2 10  1  0
  3  4  2  0
  3 11  1  0
  4  5  1  0
  4 12  1  0
  5  6  2  0
  5 13  1  0
  6 14  1  0
  7  8  1  0
  7 15  1  0
  7 16  1  0
  8  9  1  0
  8 17  1  0
  8 18  1  0
  9 19  1  0
  9 20  1  0
  9 21  1  0
M  CHG  1   9   1
M  END
