
     RDKit          3D

 64 68  0  0  0  0  0  0  0  0999 V2000
    0.6519    1.5694   -0.1312 C   0  0  0  0  0  0  0  0  0  0  0  0
    1.4315    0.4586    0.0750 N   0  0  0  0  0  0  0  0  0  0  0  0
    0.9963    2.5860    0.6049 N   0  0  0  0  0  0  0  0  0  0  0  0
    0.3956   -1.6290    0.6641 C   0  0  0  0  0  0  0  0  0  0  0  0
    1.1391   -0.8733   -0.4428 C   0  0  2  0  0  0  0  0  0  0  0  0
    2.3419    0.8048    1.0538 C   0  0  0  0  0  0  0  0  0  0  0  0
    2.0570    2.1462    1.3555 C   0  0  0  0  0  0  0  0  0  0  0  0
   -0.9350   -1.6494    0.5091 N   0  0  0  0  0  0  0  0  0  0  0  0
   -0.4831    1.6001   -1.0660 C   0  0  0  0  0  0  0  0  0  0  0  0
    0.9886   -2.1153    1.6136 O   0  0  0  0  0  0  0  0  0  0  0  0
    2.3523   -1.6238   -0.9867 C   0  0  2  0  0  0  0  0  0  0  0  0
   -1.7508    1.9021   -0.5745 C   0  0  0  0  0  0  0  0  0  0  0  0
   -0.3208    1.3664   -2.4299 C   0  0  0  0  0  0  0  0  0  0  0  0
   -2.6608    1.7109   -2.7760 C   0  0  0  0  0  0  0  0  0  0  0  0
   -1.8759   -2.1365    1.5015 C   0  0  2  0  0  0  0  0  0  0  0  0
   -2.8445    1.9553   -1.4237 C   0  0  0  0  0  0  0  0  0  0  0  0
   -1.4059    1.4208   -3.2898 C   0  0  0  0  0  0  0  0  0  0  0  0
   -4.0208    1.7729   -3.8426 Cl  0  0  0  0  0  0  0  0  0  0  0  0
    3.3666    0.1170    1.7011 C   0  0  0  0  0  0  0  0  0  0  0  0
    2.8092    2.8383    2.3044 C   0  0  0  0  0  0  0  0  0  0  0  0
    3.1492   -0.7627   -1.9654 C   0  0  0  0  0  0  0  0  0  0  0  0
    1.8883   -2.9172   -1.6607 C   0  0  0  0  0  0  0  0  0  0  0  0
   -3.0352   -2.8554    0.8179 C   0  0  0  0  0  0  0  0  0  0  0  0
   -2.3818   -0.9952    2.3841 C   0  0  0  0  0  0  0  0  0  0  0  0
    4.1029    0.8183    2.6386 C   0  0  0  0  0  0  0  0  0  0  0  0
    3.8319    2.1612    2.9391 C   0  0  0  0  0  0  0  0  0  0  0  0
    3.0620   -3.6871   -2.2572 C   0  0  0  0  0  0  0  0  0  0  0  0
    4.3232   -1.5341   -2.5596 C   0  0  0  0  0  0  0  0  0  0  0  0
   -3.3908   -1.4987    3.4113 C   0  0  0  0  0  0  0  0  0  0  0  0
   -4.0472   -3.3550    1.8448 C   0  0  0  0  0  0  0  0  0  0  0  0
    3.8625   -2.8251   -3.2254 C   0  0  0  0  0  0  0  0  0  0  0  0
   -4.5501   -2.2232    2.7349 C   0  0  0  0  0  0  0  0  0  0  0  0
    0.4594   -0.7301   -1.2835 H   0  0  0  0  0  0  0  0  0  0  0  0
   -1.3289   -1.1966   -0.3016 H   0  0  0  0  0  0  0  0  0  0  0  0
    3.0083   -1.9074   -0.1592 H   0  0  0  0  0  0  0  0  0  0  0  0
   -1.8903    2.0911    0.4818 H   0  0  0  0  0  0  0  0  0  0  0  0
    0.6597    1.1531   -2.8375 H   0  0  0  0  0  0  0  0  0  0  0  0
   -1.3444   -2.8556    2.1297 H   0  0  0  0  0  0  0  0  0  0  0  0
   -3.8261    2.1849   -1.0331 H   0  0  0  0  0  0  0  0  0  0  0  0
   -1.2691    1.2449   -4.3478 H   0  0  0  0  0  0  0  0  0  0  0  0
    3.5871   -0.9201    1.5028 H   0  0  0  0  0  0  0  0  0  0  0  0
    2.5888    3.8729    2.5335 H   0  0  0  0  0  0  0  0  0  0  0  0
    2.4929   -0.4299   -2.7791 H   0  0  0  0  0  0  0  0  0  0  0  0
    3.5124    0.1411   -1.4712 H   0  0  0  0  0  0  0  0  0  0  0  0
    1.3599   -3.5538   -0.9462 H   0  0  0  0  0  0  0  0  0  0  0  0
    1.1678   -2.6785   -2.4522 H   0  0  0  0  0  0  0  0  0  0  0  0
   -3.5322   -2.1669    0.1240 H   0  0  0  0  0  0  0  0  0  0  0  0
   -2.6534   -3.6877    0.2221 H   0  0  0  0  0  0  0  0  0  0  0  0
   -1.5360   -0.5096    2.8766 H   0  0  0  0  0  0  0  0  0  0  0  0
   -2.8556   -0.2377    1.7484 H   0  0  0  0  0  0  0  0  0  0  0  0
    4.9066    0.3116    3.1565 H   0  0  0  0  0  0  0  0  0  0  0  0
    4.4323    2.6699    3.6818 H   0  0  0  0  0  0  0  0  0  0  0  0
    3.7138   -4.0314   -1.4472 H   0  0  0  0  0  0  0  0  0  0  0  0
    2.6957   -4.5845   -2.7610 H   0  0  0  0  0  0  0  0  0  0  0  0
    4.8506   -0.9019   -3.2775 H   0  0  0  0  0  0  0  0  0  0  0  0
    5.0425   -1.7651   -1.7664 H   0  0  0  0  0  0  0  0  0  0  0  0
   -2.8904   -2.1801    4.1077 H   0  0  0  0  0  0  0  0  0  0  0  0
   -3.7601   -0.6615    4.0076 H   0  0  0  0  0  0  0  0  0  0  0  0
   -4.8825   -3.8374    1.3331 H   0  0  0  0  0  0  0  0  0  0  0  0
   -3.5765   -4.1241    2.4664 H   0  0  0  0  0  0  0  0  0  0  0  0
    4.7215   -3.3819   -3.6071 H   0  0  0  0  0  0  0  0  0  0  0  0
    3.2391   -2.5798   -4.0921 H   0  0  0  0  0  0  0  0  0  0  0  0
   -5.2423   -2.6139    3.4843 H   0  0  0  0  0  0  0  0  0  0  0  0
   -5.1165   -1.5096    2.1271 H   0  0  0  0  0  0  0  0  0  0  0  0
  1  2  1  0
  1  3  2  0
  1  9  1  0
  2  5  1  0
  2  6  1  0
  3  7  1  0
  4  5  1  0
  4  8  1  0
  4 10  2  0
  5 11  1  0
  6  7  2  0
  6 19  1  0
  7 20  1  0
  8 15  1  0
  9 12  2  0
  9 13  1  0
 11 21  1  0
 11 22  1  0
 12 16  1  0
 13 17  2  0
 14 16  2  0
 14 17  1  0
 14 18  1  0
 15 23  1  0
 15 24  1  0
 19 25  2  0
 20 26  2  0
 21 28  1  0
 22 27  1  0
 23 30  1  0
 24 29  1  0
 25 26  1  0
 27 31  1  0
 28 31  1  0
 29 32  1  0
 30 32  1  0
  5 33  1  6
  8 34  1  0
 11 35  1  1
 12 36  1  0
 13 37  1  0
 15 38  1  1
 16 39  1  0
 17 40  1  0
 19 41  1  0
 20 42  1  0
 21 43  1  0
 21 44  1  0
 22 45  1  0
 22 46  1  0
 23 47  1  0
 23 48  1  0
 24 49  1  0
 24 50  1  0
 25 51  1  0
 26 52  1  0
 27 53  1  0
 27 54  1  0
 28 55  1  0
 28 56  1  0
 29 57  1  0
 29 58  1  0
 30 59  1  0
 30 60  1  0
 31 61  1  0
 31 62  1  0
 32 63  1  0
 32 64  1  0
M  END
