
     RDKit          3D

 29 31  0  0  0  0  0  0  0  0999 V2000
    1.2714    0.0673    0.2686 C   0  0  0  0  0  0  0  0  0  0  0  0
    0.3579   -0.9204    0.0259 C   0  0  0  0  0  0  0  0  0  0  0  0
    0.7255   -2.3505   -0.1881 C   0  0  0  0  0  0  0  0  0  0  0  0
    2.1396   -2.5997    0.3330 C   0  0  0  0  0  0  0  0  0  0  0  0
    3.1142   -1.5311   -0.1510 C   0  0  0  0  0  0  0  0  0  0  0  0
    3.5489    0.9242   -0.3272 C   0  0  0  0  0  0  0  0  0  0  0  0
    4.8360    0.8427   -0.0192 O   0  0  0  0  0  0  0  0  0  0  0  0
    3.1014    1.7339   -1.0997 O   0  0  0  0  0  0  0  0  0  0  0  0
    2.7434   -0.1341    0.3928 C   0  0  1  0  0  0  0  0  0  0  0  0
   -0.9289   -0.3032    0.0678 C   0  0  0  0  0  0  0  0  0  0  0  0
   -2.2322   -0.7814   -0.0972 C   0  0  0  0  0  0  0  0  0  0  0  0
    0.6249    1.2571    0.4747 N   0  0  0  0  0  0  0  0  0  0  0  0
   -0.7188    1.0658    0.3501 C   0  0  0  0  0  0  0  0  0  0  0  0
   -1.7757    1.9647    0.4594 C   0  0  0  0  0  0  0  0  0  0  0  0
   -3.0585    1.4790    0.2928 C   0  0  0  0  0  0  0  0  0  0  0  0
   -3.2682    0.1204    0.0199 C   0  0  0  0  0  0  0  0  0  0  0  0
   -4.9061   -0.4392   -0.1759 Cl  0  0  0  0  0  0  0  0  0  0  0  0
    0.0158   -3.0101    0.3182 H   0  0  0  0  0  0  0  0  0  0  0  0
    0.6722   -2.6075   -1.2517 H   0  0  0  0  0  0  0  0  0  0  0  0
    2.1320   -2.6141    1.4269 H   0  0  0  0  0  0  0  0  0  0  0  0
    2.4909   -3.5803    0.0075 H   0  0  0  0  0  0  0  0  0  0  0  0
    4.1285   -1.7789    0.1604 H   0  0  0  0  0  0  0  0  0  0  0  0
    3.1085   -1.5095   -1.2452 H   0  0  0  0  0  0  0  0  0  0  0  0
    5.3389    1.5121   -0.5072 H   0  0  0  0  0  0  0  0  0  0  0  0
    3.0236   -0.0941    1.4536 H   0  0  0  0  0  0  0  0  0  0  0  0
   -2.4220   -1.8256   -0.3100 H   0  0  0  0  0  0  0  0  0  0  0  0
    1.0685    2.1440    0.6452 H   0  0  0  0  0  0  0  0  0  0  0  0
   -1.6095    3.0134    0.6694 H   0  0  0  0  0  0  0  0  0  0  0  0
   -3.9030    2.1494    0.3736 H   0  0  0  0  0  0  0  0  0  0  0  0
 14 13  2  0
 14 15  1  0
 12 13  1  0
 12  1  1  0
  8  6  2  0
 13 10  1  0
 15 16  2  0
  6  7  1  0
  6  9  1  0
  9  1  1  0
  9  5  1  0
  1  2  2  0
 16 11  1  0
 16 17  1  0
 10  2  1  0
 10 11  2  0
  5  4  1  0
  2  3  1  0
  4  3  1  0
  3 18  1  0
  3 19  1  0
  4 20  1  0
  4 21  1  0
  5 22  1  0
  5 23  1  0
  7 24  1  0
  9 25  1  1
 11 26  1  0
 12 27  1  0
 14 28  1  0
 15 29  1  0
M  END
