
     RDKit          3D

 14 13  0  0  0  0  0  0  0  0999 V2000
   -0.8146   -0.0109    2.3356 C   0  0  0  0  0  0  0  0  0  0  0  0
    0.1082    0.0633    1.1514 C   0  0  0  0  0  0  0  0  0  0  0  0
    1.3110    0.1390    1.2727 O   0  0  0  0  0  0  0  0  0  0  0  0
   -0.5604    0.0462   -0.1985 C   0  0  0  0  0  0  0  0  0  0  0  0
    0.4023   -0.0147   -1.3675 C   0  0  0  0  0  0  0  0  0  0  0  0
   -0.3623   -0.0229   -2.5538 O   0  0  0  0  0  0  0  0  0  0  0  0
   -1.3681   -0.9516    2.3177 H   0  0  0  0  0  0  0  0  0  0  0  0
   -0.2691    0.0644    3.2738 H   0  0  0  0  0  0  0  0  0  0  0  0
   -1.5557    0.7888    2.2854 H   0  0  0  0  0  0  0  0  0  0  0  0
   -1.2600   -0.7958   -0.2298 H   0  0  0  0  0  0  0  0  0  0  0  0
   -1.1853    0.9447   -0.2660 H   0  0  0  0  0  0  0  0  0  0  0  0
    1.0806    0.8451   -1.3325 H   0  0  0  0  0  0  0  0  0  0  0  0
    1.0237   -0.9146   -1.2844 H   0  0  0  0  0  0  0  0  0  0  0  0
    0.2446   -0.0214   -3.2992 H   0  0  0  0  0  0  0  0  0  0  0  0
  1  2  1  0
  1  7  1  0
  1  8  1  0
  1  9  1  0
  2  3  2  0
  2  4  1  0
  4  5  1  0
  4 10  1  0
  4 11  1  0
  5  6  1  0
  5 12  1  0
  5 13  1  0
  6 14  1  0
M  END
