
     RDKit          3D

 24 23  0  0  0  0  0  0  0  0999 V2000
   -3.1497   -1.1525   -0.0650 O   0  0  0  0  0  0  0  0  0  0  0  0
   -2.8923    0.0206    0.0813 C   0  0  0  0  0  0  0  0  0  0  0  0
   -1.5829    0.6464   -0.1648 C   0  0  0  0  0  0  0  0  0  0  0  0
   -0.5385   -0.0732   -0.5768 C   0  0  0  0  0  0  0  0  0  0  0  0
    0.8156    0.4872   -0.8382 C   0  0  0  0  0  0  0  0  0  0  0  0
    1.9025   -0.0678    0.0998 C   0  0  1  0  0  0  0  0  0  0  0  0
    2.0932   -1.5695   -0.0854 C   0  0  0  0  0  0  0  0  0  0  0  0
    3.2045    0.7044   -0.1262 C   0  0  0  0  0  0  0  0  0  0  0  0
    4.3188    0.3585    0.8530 C   0  0  0  0  0  0  0  0  0  0  0  0
   -1.4952    1.7146   -0.0013 H   0  0  0  0  0  0  0  0  0  0  0  0
   -0.6718   -1.1400   -0.7299 H   0  0  0  0  0  0  0  0  0  0  0  0
    1.0978    0.2552   -1.8721 H   0  0  0  0  0  0  0  0  0  0  0  0
    0.7853    1.5763   -0.7523 H   0  0  0  0  0  0  0  0  0  0  0  0
    1.5761    0.1186    1.1303 H   0  0  0  0  0  0  0  0  0  0  0  0
    1.1779   -2.1283    0.1118 H   0  0  0  0  0  0  0  0  0  0  0  0
    2.4073   -1.7947   -1.1076 H   0  0  0  0  0  0  0  0  0  0  0  0
    2.8546   -1.9622    0.5884 H   0  0  0  0  0  0  0  0  0  0  0  0
    3.5495    0.5313   -1.1516 H   0  0  0  0  0  0  0  0  0  0  0  0
    2.9924    1.7754   -0.0542 H   0  0  0  0  0  0  0  0  0  0  0  0
    3.9843    0.4685    1.8865 H   0  0  0  0  0  0  0  0  0  0  0  0
    4.6767   -0.6635    0.7280 H   0  0  0  0  0  0  0  0  0  0  0  0
    5.1752    1.0189    0.7120 H   0  0  0  0  0  0  0  0  0  0  0  0
   -3.7906    0.9116    0.4936 O   0  0  0  0  0  0  0  0  0  0  0  0
   -4.6422    0.4749    0.6426 H   0  0  0  0  0  0  0  0  0  0  0  0
  1  2  2  0
  2  3  1  0
  3  4  2  0
  4  5  1  0
  5  6  1  0
  6  7  1  0
  6  8  1  0
  8  9  1  0
  3 10  1  0
  4 11  1  0
  5 12  1  0
  5 13  1  0
  6 14  1  1
  7 15  1  0
  7 16  1  0
  7 17  1  0
  8 18  1  0
  8 19  1  0
  9 20  1  0
  9 21  1  0
  9 22  1  0
  2 23  1  0
 23 24  1  0
M  END
