
     RDKit          3D

 43 46  0  0  0  0  0  0  0  0999 V2000
   -4.4477   -0.8228   -0.1694 C   0  0  0  0  0  0  0  0  0  0  0  0
   -3.0704   -1.0670   -0.2832 C   0  0  0  0  0  0  0  0  0  0  0  0
   -2.2348    0.0073   -0.1524 C   0  0  0  0  0  0  0  0  0  0  0  0
   -2.7107    1.3222    0.0866 C   0  0  0  0  0  0  0  0  0  0  0  0
   -4.0706    1.5555    0.1965 C   0  0  0  0  0  0  0  0  0  0  0  0
   -4.9548    0.4775    0.0698 C   0  0  0  0  0  0  0  0  0  0  0  0
   -5.3828   -1.9219   -0.2993 C   0  0  0  0  0  0  0  0  0  0  0  0
   -6.2998    0.7277    0.1888 N   0  0  0  0  0  0  0  0  0  0  0  0
   -7.1164   -0.2653    0.0639 C   0  0  0  0  0  0  0  0  0  0  0  0
   -8.4536   -0.0722    0.1134 N   0  0  0  0  0  0  0  0  0  0  0  0
   -6.7032   -1.5491   -0.1715 N   0  0  0  0  0  0  0  0  0  0  0  0
   -0.8624    0.1418   -0.2010 N   0  0  0  0  0  0  0  0  0  0  0  0
   -1.6646    2.1963    0.1752 N   0  0  0  0  0  0  0  0  0  0  0  0
   -0.5856    1.4584   -0.0017 C   0  0  0  0  0  0  0  0  0  0  0  0
    0.6644    1.9429   -0.0130 N   0  0  0  0  0  0  0  0  0  0  0  0
    1.8455    1.1078    0.0276 C   0  0  0  0  0  0  0  0  0  0  0  0
    3.0952    1.9695   -0.1200 C   0  0  0  0  0  0  0  0  0  0  0  0
   -5.0874   -3.0894   -0.5070 O   0  0  0  0  0  0  0  0  0  0  0  0
    6.6084   -0.5104    0.0124 C   0  0  0  0  0  0  0  0  0  0  0  0
    7.8138   -1.3730    0.0056 C   0  0  0  0  0  0  0  0  0  0  0  0
    8.2898   -1.8560   -0.9945 O   0  0  0  0  0  0  0  0  0  0  0  0
    5.9956   -0.2172   -1.2044 C   0  0  0  0  0  0  0  0  0  0  0  0
    4.8719    0.5892   -1.2450 C   0  0  0  0  0  0  0  0  0  0  0  0
    4.3341    1.1231   -0.0760 C   0  0  0  0  0  0  0  0  0  0  0  0
    4.9486    0.8232    1.1372 C   0  0  0  0  0  0  0  0  0  0  0  0
    6.0740    0.0173    1.1869 C   0  0  0  0  0  0  0  0  0  0  0  0
    8.3227   -1.5648    1.2150 O   0  0  0  0  0  0  0  0  0  0  0  0
   -2.7011   -2.0673   -0.4673 H   0  0  0  0  0  0  0  0  0  0  0  0
   -4.4581    2.5493    0.3806 H   0  0  0  0  0  0  0  0  0  0  0  0
   -8.7547    0.8191    0.4714 H   0  0  0  0  0  0  0  0  0  0  0  0
   -9.0551   -0.8444    0.3494 H   0  0  0  0  0  0  0  0  0  0  0  0
   -0.1984   -0.6023   -0.3431 H   0  0  0  0  0  0  0  0  0  0  0  0
    0.7526    2.8939    0.3097 H   0  0  0  0  0  0  0  0  0  0  0  0
    1.8987    0.5350    0.9607 H   0  0  0  0  0  0  0  0  0  0  0  0
    1.8120    0.3877   -0.7941 H   0  0  0  0  0  0  0  0  0  0  0  0
    3.0451    2.5179   -1.0632 H   0  0  0  0  0  0  0  0  0  0  0  0
    3.1217    2.7083    0.6850 H   0  0  0  0  0  0  0  0  0  0  0  0
    6.3999   -0.6168   -2.1247 H   0  0  0  0  0  0  0  0  0  0  0  0
    4.4106    0.8121   -2.1993 H   0  0  0  0  0  0  0  0  0  0  0  0
    4.5466    1.2299    2.0573 H   0  0  0  0  0  0  0  0  0  0  0  0
    6.5273   -0.1901    2.1463 H   0  0  0  0  0  0  0  0  0  0  0  0
    9.1058   -2.1322    1.1583 H   0  0  0  0  0  0  0  0  0  0  0  0
   -7.3931   -2.2819   -0.2751 H   0  0  0  0  0  0  0  0  0  0  0  0
 21 20  2  0
 27 20  1  0
 20 19  1  0
 19 22  2  0
 19 26  1  0
 22 23  1  0
 26 25  2  0
 23 24  2  0
 25 24  1  0
 24 17  1  0
 17 16  1  0
 16 15  1  0
 15 14  1  0
 14 13  2  0
 14 12  1  0
 13  4  1  0
 12  3  1  0
  4  3  1  0
  4  5  2  0
  3  2  2  0
  5  6  1  0
  2  1  1  0
  6  1  2  0
  6  8  1  0
  1  7  1  0
  8  9  2  0
  7 18  2  0
  7 11  1  0
  9 11  1  0
  9 10  1  0
  2 28  1  0
  5 29  1  0
 10 30  1  0
 10 31  1  0
 12 32  1  0
 15 33  1  0
 16 34  1  0
 16 35  1  0
 17 36  1  0
 17 37  1  0
 22 38  1  0
 23 39  1  0
 25 40  1  0
 26 41  1  0
 27 42  1  0
 11 43  1  0
M  END
