
     RDKit          3D

 30 30  0  0  0  0  0  0  0  0999 V2000
   -2.3471   -0.6517   -0.0140 C   0  0  0  0  0  0  0  0  0  0  0  0
   -1.0507   -1.1476   -0.0960 C   0  0  0  0  0  0  0  0  0  0  0  0
    0.0173   -0.2876   -0.2876 C   0  0  0  0  0  0  0  0  0  0  0  0
    1.3541   -0.8658   -0.3207 C   0  0  0  0  0  0  0  0  0  0  0  0
    2.5308   -0.3047    0.0004 C   0  0  0  0  0  0  0  0  0  0  0  0
    2.6444    1.0628    0.6053 C   0  0  0  0  0  0  0  0  0  0  0  0
    3.3514    2.1295   -0.1876 C   0  0  0  0  0  0  0  0  0  0  0  0
    3.7695   -1.1303   -0.1539 C   0  0  0  0  0  0  0  0  0  0  0  0
    5.0523   -0.5592    0.3783 C   0  0  0  0  0  0  0  0  0  0  0  0
   -0.2468    1.0778   -0.4711 C   0  0  0  0  0  0  0  0  0  0  0  0
   -1.5313    1.5632   -0.4227 C   0  0  0  0  0  0  0  0  0  0  0  0
   -2.6244    0.7056   -0.1725 C   0  0  0  0  0  0  0  0  0  0  0  0
   -3.4155   -1.5993    0.2291 N   0  0  0  0  0  0  0  0  0  0  0  0
   -4.4080   -1.2120    0.7961 O   0  0  0  0  0  0  0  0  0  0  0  0
   -3.2454   -2.7395   -0.1378 O   0  0  0  0  0  0  0  0  0  0  0  0
    2.1725    1.2835    1.6969 O   0  0  0  0  0  0  0  0  0  0  0  0
    3.7293   -2.2238   -0.6760 O   0  0  0  0  0  0  0  0  0  0  0  0
   -1.8703    2.8502   -0.6134 O   0  0  0  0  0  0  0  0  0  0  0  0
   -3.8610    1.1840   -0.1476 O   0  0  0  0  0  0  0  0  0  0  0  0
   -0.8748   -2.2077    0.0220 H   0  0  0  0  0  0  0  0  0  0  0  0
    1.3882   -1.9005   -0.6481 H   0  0  0  0  0  0  0  0  0  0  0  0
    3.6233    1.8038   -1.1890 H   0  0  0  0  0  0  0  0  0  0  0  0
    2.7096    3.0087   -0.2671 H   0  0  0  0  0  0  0  0  0  0  0  0
    4.2550    2.4466    0.3356 H   0  0  0  0  0  0  0  0  0  0  0  0
    4.9329   -0.1797    1.3945 H   0  0  0  0  0  0  0  0  0  0  0  0
    5.8373   -1.3114    0.3706 H   0  0  0  0  0  0  0  0  0  0  0  0
    5.3781    0.2786   -0.2417 H   0  0  0  0  0  0  0  0  0  0  0  0
    0.5521    1.7713   -0.7016 H   0  0  0  0  0  0  0  0  0  0  0  0
   -1.1001    3.3997   -0.7994 H   0  0  0  0  0  0  0  0  0  0  0  0
   -3.8586    2.1296   -0.3531 H   0  0  0  0  0  0  0  0  0  0  0  0
 17  8  2  0
 16  6  2  0
  8  9  1  0
  8  5  1  0
  6  5  1  0
  6  7  1  0
  5  4  2  0
  4  3  1  0
  3  2  1  0
  3 10  2  0
  2  1  2  0
 10 11  1  0
 14 13  1  0
  1 13  1  0
  1 12  1  0
 11 12  2  0
 11 18  1  0
 13 15  2  0
 12 19  1  0
  2 20  1  0
  4 21  1  0
  7 22  1  0
  7 23  1  0
  7 24  1  0
  9 25  1  0
  9 26  1  0
  9 27  1  0
 10 28  1  0
 18 29  1  0
 19 30  1  0
M  CHG  2  13   1  14  -1
M  END
