
     RDKit          3D

 54 56  0  0  0  0  0  0  0  0999 V2000
    4.9362    1.5961   -1.7876 C   0  0  0  0  0  0  0  0  0  0  0  0
    3.8788    1.6753   -0.7188 C   0  0  0  0  0  0  0  0  0  0  0  0
    3.5945    2.8812   -0.0767 C   0  0  0  0  0  0  0  0  0  0  0  0
    2.6016    2.9428    0.8993 C   0  0  0  0  0  0  0  0  0  0  0  0
    1.8900    1.8084    1.2259 C   0  0  0  0  0  0  0  0  0  0  0  0
    2.1576    0.5866    0.6121 C   0  0  0  0  0  0  0  0  0  0  0  0
    3.1746    0.5219   -0.3356 C   0  0  0  0  0  0  0  0  0  0  0  0
    3.5425   -0.8145   -0.9147 C   0  0  0  0  0  0  0  0  0  0  0  0
    3.0491   -1.9386   -0.0285 C   0  0  0  0  0  0  0  0  0  0  0  0
    1.6297   -1.7967    0.2087 N   0  0  0  0  0  0  0  0  0  0  0  0
    1.3213   -0.6225    1.0028 C   0  0  2  0  0  0  0  0  0  0  0  0
   -0.1436   -0.2708    0.8452 C   0  0  0  0  0  0  0  0  0  0  0  0
   -0.9554   -0.0468    1.9475 C   0  0  0  0  0  0  0  0  0  0  0  0
   -2.2847    0.3184    1.7842 C   0  0  0  0  0  0  0  0  0  0  0  0
   -2.8366    0.4612    0.5117 C   0  0  0  0  0  0  0  0  0  0  0  0
   -2.0130    0.2227   -0.5977 C   0  0  0  0  0  0  0  0  0  0  0  0
   -0.6923   -0.1372   -0.4314 C   0  0  0  0  0  0  0  0  0  0  0  0
   -4.2359    0.8482    0.3966 C   0  0  0  0  0  0  0  0  0  0  0  0
   -4.9317    1.0099   -0.7354 C   0  0  0  0  0  0  0  0  0  0  0  0
   -6.3465    1.4046   -0.6930 C   0  0  0  0  0  0  0  0  0  0  0  0
   -6.8651    1.4900   -1.9155 O   0  0  0  0  0  0  0  0  0  0  0  0
   -6.9856    1.6282    0.3105 O   0  0  0  0  0  0  0  0  0  0  0  0
    1.0269   -2.9895    0.7771 C   0  0  0  0  0  0  0  0  0  0  0  0
    0.9296   -4.1726   -0.1865 C   0  0  1  0  0  0  0  0  0  0  0  0
    0.2088   -5.3216    0.5112 C   0  0  0  0  0  0  0  0  0  0  0  0
    0.2287   -3.7844   -1.4822 C   0  0  0  0  0  0  0  0  0  0  0  0
    4.2452    4.0371   -0.3430 O   0  0  0  0  0  0  0  0  0  0  0  0
    5.9092    1.3091   -1.3817 H   0  0  0  0  0  0  0  0  0  0  0  0
    4.6768    0.8612   -2.5480 H   0  0  0  0  0  0  0  0  0  0  0  0
    5.0704    2.5370   -2.3235 H   0  0  0  0  0  0  0  0  0  0  0  0
    2.3948    3.8842    1.3933 H   0  0  0  0  0  0  0  0  0  0  0  0
    4.9722    3.8958   -0.9574 H   0  0  0  0  0  0  0  0  0  0  0  0
    1.1130    1.8773    1.9776 H   0  0  0  0  0  0  0  0  0  0  0  0
    1.5035   -0.8163    2.0768 H   0  0  0  0  0  0  0  0  0  0  0  0
    3.1219   -0.9310   -1.9190 H   0  0  0  0  0  0  0  0  0  0  0  0
    4.6267   -0.8952   -1.0212 H   0  0  0  0  0  0  0  0  0  0  0  0
    3.2360   -2.8900   -0.5257 H   0  0  0  0  0  0  0  0  0  0  0  0
    3.6284   -1.9542    0.9110 H   0  0  0  0  0  0  0  0  0  0  0  0
    1.5583   -3.3044    1.6924 H   0  0  0  0  0  0  0  0  0  0  0  0
    0.0083   -2.7396    1.0879 H   0  0  0  0  0  0  0  0  0  0  0  0
   -0.5500   -0.1602    2.9461 H   0  0  0  0  0  0  0  0  0  0  0  0
   -0.0698   -0.3238   -1.2969 H   0  0  0  0  0  0  0  0  0  0  0  0
   -2.9029    0.4892    2.6574 H   0  0  0  0  0  0  0  0  0  0  0  0
   -2.4055    0.3228   -1.6016 H   0  0  0  0  0  0  0  0  0  0  0  0
   -4.7485    1.0162    1.3392 H   0  0  0  0  0  0  0  0  0  0  0  0
   -4.4890    0.8533   -1.7111 H   0  0  0  0  0  0  0  0  0  0  0  0
   -7.7972    1.7469   -1.8599 H   0  0  0  0  0  0  0  0  0  0  0  0
    1.9375   -4.5235   -0.4340 H   0  0  0  0  0  0  0  0  0  0  0  0
   -0.8137   -5.0391    0.7736 H   0  0  0  0  0  0  0  0  0  0  0  0
    0.1544   -6.2020   -0.1308 H   0  0  0  0  0  0  0  0  0  0  0  0
    0.7189   -5.6130    1.4313 H   0  0  0  0  0  0  0  0  0  0  0  0
    0.7552   -2.9781   -1.9920 H   0  0  0  0  0  0  0  0  0  0  0  0
    0.1671   -4.6351   -2.1631 H   0  0  0  0  0  0  0  0  0  0  0  0
   -0.7897   -3.4384   -1.2873 H   0  0  0  0  0  0  0  0  0  0  0  0
  1  2  1  0
  2  3  2  0
  2  7  1  0
  3  4  1  0
  3 27  1  0
  4  5  2  0
  5  6  1  0
  6  7  2  0
  6 11  1  0
  7  8  1  0
  8  9  1  0
  9 10  1  0
 10 11  1  0
 10 23  1  0
 11 12  1  0
 12 13  2  0
 12 17  1  0
 13 14  1  0
 14 15  2  0
 15 16  1  0
 15 18  1  0
 16 17  2  0
 18 19  2  0
 19 20  1  0
 20 21  1  0
 20 22  2  0
 23 24  1  0
 24 25  1  0
 24 26  1  0
  1 28  1  0
  1 29  1  0
  1 30  1  0
  4 31  1  0
 27 32  1  0
  5 33  1  0
 11 34  1  1
  8 35  1  0
  8 36  1  0
  9 37  1  0
  9 38  1  0
 23 39  1  0
 23 40  1  0
 13 41  1  0
 17 42  1  0
 14 43  1  0
 16 44  1  0
 18 45  1  0
 19 46  1  0
 21 47  1  0
 24 48  1  6
 25 49  1  0
 25 50  1  0
 25 51  1  0
 26 52  1  0
 26 53  1  0
 26 54  1  0
M  END
