
     RDKit          3D

 44 45  0  0  0  0  0  0  0  0999 V2000
   -1.3810   -0.1458    0.0443 C   0  0  0  0  0  0  0  0  0  0  0  0
   -2.5826   -1.0721    0.0805 C   0  0  1  0  0  0  0  0  0  0  0  0
   -3.7797   -0.4461   -0.6331 C   0  0  2  0  0  0  0  0  0  0  0  0
   -3.9728    0.9814   -0.1284 C   0  0  2  0  0  0  0  0  0  0  0  0
   -2.7147    1.7696   -0.4630 C   0  0  1  0  0  0  0  0  0  0  0  0
   -2.7628    3.2018    0.0130 C   0  0  0  0  0  0  0  0  0  0  0  0
   -1.6037   -4.6783   -0.4314 C   0  0  0  0  0  0  0  0  0  0  0  0
   -2.2710   -2.3656   -0.4465 N   0  0  0  0  0  0  0  0  0  0  0  0
   -4.8820   -1.2682   -0.3902 O   0  0  0  0  0  0  0  0  0  0  0  0
   -4.2327    0.9347    1.2498 O   0  0  0  0  0  0  0  0  0  0  0  0
   -1.5491    1.1665    0.1219 O   0  0  0  0  0  0  0  0  0  0  0  0
   -1.6434    3.8840   -0.4924 O   0  0  0  0  0  0  0  0  0  0  0  0
   -2.1289   -3.4318    1.5408 O   0  0  0  0  0  0  0  0  0  0  0  0
    2.8988    0.7418    0.0857 N   0  0  0  0  0  0  0  0  0  0  0  0
    1.9998   -0.2569   -0.0886 C   0  0  0  0  0  0  0  0  0  0  0  0
    0.7660    0.2667    0.0870 O   0  0  0  0  0  0  0  0  0  0  0  0
    2.2285   -1.4064   -0.3585 O   0  0  0  0  0  0  0  0  0  0  0  0
    4.2914    0.6729   -0.0129 C   0  0  0  0  0  0  0  0  0  0  0  0
    4.9941   -0.4253   -0.5097 C   0  0  0  0  0  0  0  0  0  0  0  0
    6.3811   -0.3795   -0.5739 C   0  0  0  0  0  0  0  0  0  0  0  0
    7.0874    0.7389   -0.1581 C   0  0  0  0  0  0  0  0  0  0  0  0
    6.3841    1.8326    0.3300 C   0  0  0  0  0  0  0  0  0  0  0  0
    5.0023    1.8014    0.4035 C   0  0  0  0  0  0  0  0  0  0  0  0
   -0.2321   -0.6889    0.0423 N   0  0  0  0  0  0  0  0  0  0  0  0
   -2.8482   -1.1991    1.1345 H   0  0  0  0  0  0  0  0  0  0  0  0
   -3.5581   -0.3813   -1.7092 H   0  0  0  0  0  0  0  0  0  0  0  0
   -4.8021    1.4387   -0.6855 H   0  0  0  0  0  0  0  0  0  0  0  0
   -2.5913    1.7666   -1.5531 H   0  0  0  0  0  0  0  0  0  0  0  0
   -3.7042    3.6345   -0.3512 H   0  0  0  0  0  0  0  0  0  0  0  0
   -2.7961    3.2283    1.1091 H   0  0  0  0  0  0  0  0  0  0  0  0
   -0.5313   -4.8262   -0.2944 H   0  0  0  0  0  0  0  0  0  0  0  0
   -2.1096   -5.5522   -0.0255 H   0  0  0  0  0  0  0  0  0  0  0  0
   -1.8023   -4.6210   -1.4999 H   0  0  0  0  0  0  0  0  0  0  0  0
   -2.1053   -2.4365   -1.4382 H   0  0  0  0  0  0  0  0  0  0  0  0
   -5.5947   -1.0110   -0.9837 H   0  0  0  0  0  0  0  0  0  0  0  0
   -4.6999    1.7319    1.5152 H   0  0  0  0  0  0  0  0  0  0  0  0
   -1.6692    4.7861   -0.1611 H   0  0  0  0  0  0  0  0  0  0  0  0
    2.5266    1.6372    0.3675 H   0  0  0  0  0  0  0  0  0  0  0  0
    4.4809   -1.3094   -0.8500 H   0  0  0  0  0  0  0  0  0  0  0  0
    6.9104   -1.2404   -0.9614 H   0  0  0  0  0  0  0  0  0  0  0  0
    8.1675    0.7600   -0.2147 H   0  0  0  0  0  0  0  0  0  0  0  0
    6.9104    2.7183    0.6611 H   0  0  0  0  0  0  0  0  0  0  0  0
    4.4675    2.6606    0.7906 H   0  0  0  0  0  0  0  0  0  0  0  0
   -2.0275   -3.4453    0.3235 C   0  0  0  0  0  0  0  0  0  0  0  0
  1  2  1  0
  1 11  1  0
  1 24  2  0
  2  3  1  0
  2  8  1  0
  3  4  1  0
  3  9  1  0
  4  5  1  0
  4 10  1  0
  5  6  1  0
  5 11  1  0
  6 12  1  0
 44  7  1  0
 44  8  1  0
 44 13  2  0
 14 15  1  0
 14 18  1  0
 15 16  1  0
 15 17  2  0
 16 24  1  0
 18 19  2  0
 18 23  1  0
 19 20  1  0
 20 21  2  0
 21 22  1  0
 22 23  2  0
  2 25  1  1
  3 26  1  6
  4 27  1  6
  5 28  1  6
  6 29  1  0
  6 30  1  0
  7 31  1  0
  7 32  1  0
  7 33  1  0
  8 34  1  0
  9 35  1  0
 10 36  1  0
 12 37  1  0
 14 38  1  0
 19 39  1  0
 20 40  1  0
 21 41  1  0
 22 42  1  0
 23 43  1  0
M  END
