
     RDKit          3D

 17 17  0  0  0  0  0  0  0  0999 V2000
    0.0223    0.2583    1.3631 N   0  0  0  0  0  0  0  0  0  0  0  0
   -1.1800   -0.2478    0.7233 C   0  0  0  0  0  0  0  0  0  0  0  0
   -1.2358    0.2222   -0.7234 C   0  0  0  0  0  0  0  0  0  0  0  0
    0.0203   -0.2069   -1.4757 C   0  0  0  0  0  0  0  0  0  0  0  0
    1.2745    0.2346   -0.7275 C   0  0  0  0  0  0  0  0  0  0  0  0
    1.2271   -0.2367    0.7191 C   0  0  0  0  0  0  0  0  0  0  0  0
    0.0254   -0.0130    2.3374 H   0  0  0  0  0  0  0  0  0  0  0  0
   -2.0513    0.1164    1.2722 H   0  0  0  0  0  0  0  0  0  0  0  0
   -1.2320   -1.3502    0.7395 H   0  0  0  0  0  0  0  0  0  0  0  0
   -1.3253    1.3127   -0.7437 H   0  0  0  0  0  0  0  0  0  0  0  0
   -2.1295   -0.1792   -1.2067 H   0  0  0  0  0  0  0  0  0  0  0  0
    0.0259   -1.2985   -1.5700 H   0  0  0  0  0  0  0  0  0  0  0  0
    0.0162    0.1931   -2.4922 H   0  0  0  0  0  0  0  0  0  0  0  0
    2.1705   -0.1584   -1.2137 H   0  0  0  0  0  0  0  0  0  0  0  0
    1.3533    1.3261   -0.7475 H   0  0  0  0  0  0  0  0  0  0  0  0
    2.0968    0.1341    1.2662 H   0  0  0  0  0  0  0  0  0  0  0  0
    1.2883   -1.3387    0.7340 H   0  0  0  0  0  0  0  0  0  0  0  0
  1  2  1  0
  1  6  1  0
  1  7  1  0
  2  3  1  0
  2  8  1  0
  2  9  1  0
  3  4  1  0
  3 10  1  0
  3 11  1  0
  4  5  1  0
  4 12  1  0
  4 13  1  0
  5  6  1  0
  5 14  1  0
  5 15  1  0
  6 16  1  0
  6 17  1  0
M  END
