
     RDKit          3D

 59 62  0  0  0  0  0  0  0  0999 V2000
   -4.1738    0.5329   -1.4033 C   0  0  0  0  0  0  0  0  0  0  0  0
   -5.4167    0.4915   -0.9339 N   0  0  0  0  0  0  0  0  0  0  0  0
   -5.5814    0.7555    0.3610 C   0  0  0  0  0  0  0  0  0  0  0  0
   -4.6213    1.0591    1.2312 N   0  0  0  0  0  0  0  0  0  0  0  0
   -3.3745    1.1057    0.7554 C   0  0  0  0  0  0  0  0  0  0  0  0
   -3.0735    0.8507   -0.5715 C   0  0  0  0  0  0  0  0  0  0  0  0
   -3.9997    0.2282   -2.7013 N   0  0  0  0  0  0  0  0  0  0  0  0
   -6.8536    0.7504    0.8259 N   0  0  0  0  0  0  0  0  0  0  0  0
   -2.3076    1.4233    1.7635 C   0  0  0  0  0  0  0  0  0  0  0  0
   -1.9074    0.1898    2.5711 C   0  0  0  0  0  0  0  0  0  0  0  0
   -1.2135    1.9744   -1.8096 C   0  0  0  0  0  0  0  0  0  0  0  0
    0.0811    1.9806   -2.3075 C   0  0  0  0  0  0  0  0  0  0  0  0
    0.8891    0.8740   -2.1316 C   0  0  0  0  0  0  0  0  0  0  0  0
    0.4209   -0.2549   -1.4591 C   0  0  0  0  0  0  0  0  0  0  0  0
   -0.8722   -0.2409   -0.9522 C   0  0  0  0  0  0  0  0  0  0  0  0
   -1.6968    0.8697   -1.1143 C   0  0  0  0  0  0  0  0  0  0  0  0
    2.1509    0.8719   -2.6360 O   0  0  0  0  0  0  0  0  0  0  0  0
    3.0734    0.1752   -1.8290 C   0  0  2  0  0  0  0  0  0  0  0  0
    2.5953   -1.2471   -1.5752 C   0  0  0  0  0  0  0  0  0  0  0  0
    1.2606   -1.3763   -1.3759 N   0  0  0  0  0  0  0  0  0  0  0  0
    0.7286   -2.6835   -1.0122 C   0  0  0  0  0  0  0  0  0  0  0  0
    0.7928   -2.9398    0.4891 C   0  0  0  0  0  0  0  0  0  0  0  0
    0.1785   -4.2820    0.8344 C   0  0  0  0  0  0  0  0  0  0  0  0
    0.2787   -4.4862    2.2202 O   0  0  0  0  0  0  0  0  0  0  0  0
   -0.2683   -5.7141    2.6268 C   0  0  0  0  0  0  0  0  0  0  0  0
    3.3776   -2.1763   -1.5262 O   0  0  0  0  0  0  0  0  0  0  0  0
    4.0336    0.9373    1.7592 C   0  0  0  0  0  0  0  0  0  0  0  0
    3.7598    0.2205    0.6103 C   0  0  0  0  0  0  0  0  0  0  0  0
    3.3545    0.9103   -0.5274 C   0  0  0  0  0  0  0  0  0  0  0  0
    3.2447    2.2970   -0.4980 C   0  0  0  0  0  0  0  0  0  0  0  0
    3.5302    2.9596    0.6786 C   0  0  0  0  0  0  0  0  0  0  0  0
    3.9268    2.3111    1.8318 C   0  0  0  0  0  0  0  0  0  0  0  0
    3.4191    4.2928    0.7076 F   0  0  0  0  0  0  0  0  0  0  0  0
   -4.8077    0.1313   -3.2914 H   0  0  0  0  0  0  0  0  0  0  0  0
   -3.1147    0.3765   -3.1530 H   0  0  0  0  0  0  0  0  0  0  0  0
   -6.9871    0.7105    1.8216 H   0  0  0  0  0  0  0  0  0  0  0  0
   -7.5595    0.3063    0.2645 H   0  0  0  0  0  0  0  0  0  0  0  0
   -2.6959    2.1858    2.4412 H   0  0  0  0  0  0  0  0  0  0  0  0
   -1.4287    1.8421    1.2729 H   0  0  0  0  0  0  0  0  0  0  0  0
   -1.2050    0.4589    3.3598 H   0  0  0  0  0  0  0  0  0  0  0  0
   -2.7759   -0.2754    3.0368 H   0  0  0  0  0  0  0  0  0  0  0  0
   -1.4252   -0.5584    1.9405 H   0  0  0  0  0  0  0  0  0  0  0  0
   -1.8428    2.8447   -1.9434 H   0  0  0  0  0  0  0  0  0  0  0  0
    0.4670    2.8430   -2.8361 H   0  0  0  0  0  0  0  0  0  0  0  0
   -1.2685   -1.1005   -0.4294 H   0  0  0  0  0  0  0  0  0  0  0  0
    3.9945    0.1119   -2.4116 H   0  0  0  0  0  0  0  0  0  0  0  0
   -0.2953   -2.7509   -1.3809 H   0  0  0  0  0  0  0  0  0  0  0  0
    1.2979   -3.4409   -1.5492 H   0  0  0  0  0  0  0  0  0  0  0  0
    1.8347   -2.9170    0.8180 H   0  0  0  0  0  0  0  0  0  0  0  0
    0.2683   -2.1488    1.0323 H   0  0  0  0  0  0  0  0  0  0  0  0
   -0.8733   -4.3060    0.5124 H   0  0  0  0  0  0  0  0  0  0  0  0
    0.6936   -5.0838    0.2846 H   0  0  0  0  0  0  0  0  0  0  0  0
    0.2371   -6.5663    2.1567 H   0  0  0  0  0  0  0  0  0  0  0  0
   -0.1477   -5.7959    3.7064 H   0  0  0  0  0  0  0  0  0  0  0  0
   -1.3372   -5.7873    2.3924 H   0  0  0  0  0  0  0  0  0  0  0  0
    3.8781   -0.8545    0.6214 H   0  0  0  0  0  0  0  0  0  0  0  0
    2.9474    2.8629   -1.3701 H   0  0  0  0  0  0  0  0  0  0  0  0
    4.1450    2.8517    2.7434 H   0  0  0  0  0  0  0  0  0  0  0  0
    4.4180    0.2703    2.8533 F   0  0  0  0  0  0  0  0  0  0  0  0
  1  2  2  0
  1  6  1  0
  1  7  1  0
  2  3  1  0
  3  4  2  0
  3  8  1  0
  4  5  1  0
  5  6  2  0
  5  9  1  0
  6 16  1  0
  7 34  1  0
  7 35  1  0
  8 36  1  0
  8 37  1  0
  9 10  1  0
  9 38  1  0
  9 39  1  0
 10 40  1  0
 10 41  1  0
 10 42  1  0
 11 12  2  0
 11 16  1  0
 11 43  1  0
 12 13  1  0
 12 44  1  0
 13 14  2  0
 13 17  1  0
 14 15  1  0
 14 20  1  0
 15 16  2  0
 15 45  1  0
 17 18  1  0
 18 19  1  0
 18 29  1  0
 18 46  1  6
 19 20  1  0
 19 26  2  0
 20 21  1  0
 21 22  1  0
 21 47  1  0
 21 48  1  0
 22 23  1  0
 22 49  1  0
 22 50  1  0
 23 24  1  0
 23 51  1  0
 23 52  1  0
 24 25  1  0
 25 53  1  0
 25 54  1  0
 25 55  1  0
 27 28  2  0
 27 32  1  0
 27 59  1  0
 28 29  1  0
 28 56  1  0
 29 30  2  0
 30 31  1  0
 30 57  1  0
 31 32  2  0
 31 33  1  0
 32 58  1  0
M  END
