
     RDKit          3D

 37 38  0  0  0  0  0  0  0  0999 V2000
    3.8804   -0.5260   -1.1055 Br  0  0  0  0  0  0  0  0  0  0  0  0
    2.5116    0.4933   -0.2934 C   0  0  0  0  0  0  0  0  0  0  0  0
    1.2148    0.4073   -0.7679 C   0  0  0  0  0  0  0  0  0  0  0  0
    2.8070    1.3247    0.7785 C   0  0  0  0  0  0  0  0  0  0  0  0
    1.8018    2.0753    1.3575 C   0  0  0  0  0  0  0  0  0  0  0  0
    0.4830    2.0257    0.8861 C   0  0  0  0  0  0  0  0  0  0  0  0
   -0.5038    2.7458    1.5108 N   0  0  0  0  0  0  0  0  0  0  0  0
    0.2020    1.1588   -0.1837 C   0  0  0  0  0  0  0  0  0  0  0  0
   -1.1759    1.1138   -0.7674 C   0  0  0  0  0  0  0  0  0  0  0  0
   -1.6595    2.1378   -1.2418 O   0  0  0  0  0  0  0  0  0  0  0  0
   -1.8101   -0.0731   -0.7749 N   0  0  0  0  0  0  0  0  0  0  0  0
   -1.4786   -1.1869    0.0995 C   0  0  0  0  0  0  0  0  0  0  0  0
   -2.4806   -1.2854    1.2494 C   0  0  2  0  0  0  0  0  0  0  0  0
   -2.1568   -2.4809    2.1332 C   0  0  0  0  0  0  0  0  0  0  0  0
   -3.9044   -1.3568    0.7007 C   0  0  0  0  0  0  0  0  0  0  0  0
   -3.1358   -0.1860   -1.3618 C   0  0  0  0  0  0  0  0  0  0  0  0
   -4.2145   -0.2300   -0.2832 C   0  0  1  0  0  0  0  0  0  0  0  0
   -5.5918   -0.3948   -0.9093 C   0  0  0  0  0  0  0  0  0  0  0  0
    0.9742   -0.2470   -1.5971 H   0  0  0  0  0  0  0  0  0  0  0  0
    3.8140    1.3999    1.1668 H   0  0  0  0  0  0  0  0  0  0  0  0
    2.0412    2.7221    2.1929 H   0  0  0  0  0  0  0  0  0  0  0  0
   -0.1839    3.4933    2.1053 H   0  0  0  0  0  0  0  0  0  0  0  0
   -1.2885    3.0241    0.9440 H   0  0  0  0  0  0  0  0  0  0  0  0
   -1.4976   -2.1089   -0.4916 H   0  0  0  0  0  0  0  0  0  0  0  0
   -0.4701   -1.0789    0.4904 H   0  0  0  0  0  0  0  0  0  0  0  0
   -2.3829   -0.3692    1.8454 H   0  0  0  0  0  0  0  0  0  0  0  0
   -1.1595   -2.3996    2.5687 H   0  0  0  0  0  0  0  0  0  0  0  0
   -2.8711   -2.5657    2.9532 H   0  0  0  0  0  0  0  0  0  0  0  0
   -2.1940   -3.4117    1.5625 H   0  0  0  0  0  0  0  0  0  0  0  0
   -4.0428   -2.3207    0.1932 H   0  0  0  0  0  0  0  0  0  0  0  0
   -4.6213   -1.3384    1.5269 H   0  0  0  0  0  0  0  0  0  0  0  0
   -3.2993    0.6386   -2.0516 H   0  0  0  0  0  0  0  0  0  0  0  0
   -3.1629   -1.1122   -1.9466 H   0  0  0  0  0  0  0  0  0  0  0  0
   -4.1854    0.7241    0.2573 H   0  0  0  0  0  0  0  0  0  0  0  0
   -6.3692   -0.4131   -0.1445 H   0  0  0  0  0  0  0  0  0  0  0  0
   -5.8200    0.4212   -1.5972 H   0  0  0  0  0  0  0  0  0  0  0  0
   -5.6562   -1.3306   -1.4698 H   0  0  0  0  0  0  0  0  0  0  0  0
  1  2  1  0
  2  4  2  0
  2  3  1  0
  3  8  2  0
  3 19  1  0
  4  5  1  0
  4 20  1  0
  5  6  2  0
  5 21  1  0
  8  6  1  0
  6  7  1  0
  7 22  1  0
  7 23  1  0
  8  9  1  0
  9 11  1  0
  9 10  2  0
 12 11  1  0
 11 16  1  0
 13 12  1  0
 12 24  1  0
 12 25  1  0
 14 13  1  0
 13 15  1  0
 13 26  1  1
 14 27  1  0
 14 28  1  0
 14 29  1  0
 15 17  1  0
 15 30  1  0
 15 31  1  0
 17 16  1  0
 16 32  1  0
 16 33  1  0
 17 18  1  0
 17 34  1  1
 18 35  1  0
 18 36  1  0
 18 37  1  0
M  END
