
     RDKit          3D

 36 38  0  0  0  0  0  0  0  0999 V2000
   -0.8238   -0.9295    0.0377 C   0  0  0  0  0  0  0  0  0  0  0  0
   -1.7053   -1.4726   -0.8942 C   0  0  0  0  0  0  0  0  0  0  0  0
   -3.0506   -1.1360   -0.8795 C   0  0  0  0  0  0  0  0  0  0  0  0
    0.6091   -1.2947    0.0166 C   0  0  0  0  0  0  0  0  0  0  0  0
    0.9915   -2.6320    0.1179 C   0  0  0  0  0  0  0  0  0  0  0  0
    3.3132   -2.0227    0.0334 C   0  0  0  0  0  0  0  0  0  0  0  0
    0.6729    1.5288   -1.5255 C   0  0  0  0  0  0  0  0  0  0  0  0
    0.8301    3.2644    0.1296 C   0  0  0  0  0  0  0  0  0  0  0  0
    1.3853    1.9700    0.6782 C   0  0  0  0  0  0  0  0  0  0  0  0
    0.8000    3.0466   -1.3791 C   0  0  0  0  0  0  0  0  0  0  0  0
    1.2708    1.0340   -0.2933 N   0  0  0  0  0  0  0  0  0  0  0  0
    1.6096   -0.3251   -0.1087 C   0  0  0  0  0  0  0  0  0  0  0  0
    2.9503   -0.6908   -0.0941 C   0  0  0  0  0  0  0  0  0  0  0  0
    2.3291   -2.9969    0.1308 C   0  0  0  0  0  0  0  0  0  0  0  0
   -1.3310   -0.0515    0.9936 C   0  0  0  0  0  0  0  0  0  0  0  0
   -2.6772    0.2804    1.0054 C   0  0  0  0  0  0  0  0  0  0  0  0
   -3.5599   -0.2485    0.0656 C   0  0  0  0  0  0  0  0  0  0  0  0
   -5.0095    0.1395    0.0569 C   0  0  0  0  0  0  0  0  0  0  0  0
   -1.3349   -2.1574   -1.6478 H   0  0  0  0  0  0  0  0  0  0  0  0
   -3.7133   -1.5717   -1.6181 H   0  0  0  0  0  0  0  0  0  0  0  0
    0.2266   -3.3929    0.2110 H   0  0  0  0  0  0  0  0  0  0  0  0
    4.3596   -2.2972    0.0467 H   0  0  0  0  0  0  0  0  0  0  0  0
   -0.3712    1.2136   -1.6062 H   0  0  0  0  0  0  0  0  0  0  0  0
    1.2094    1.1408   -2.3914 H   0  0  0  0  0  0  0  0  0  0  0  0
   -0.1756    3.3997    0.5399 H   0  0  0  0  0  0  0  0  0  0  0  0
    1.4274    4.1181    0.4472 H   0  0  0  0  0  0  0  0  0  0  0  0
    1.7348    3.3862   -1.8260 H   0  0  0  0  0  0  0  0  0  0  0  0
   -0.0164    3.5702   -1.8722 H   0  0  0  0  0  0  0  0  0  0  0  0
    3.7082    0.0745   -0.2009 H   0  0  0  0  0  0  0  0  0  0  0  0
    2.6006   -4.0402    0.2226 H   0  0  0  0  0  0  0  0  0  0  0  0
   -0.6784    0.3586    1.7547 H   0  0  0  0  0  0  0  0  0  0  0  0
   -3.0487    0.9562    1.7668 H   0  0  0  0  0  0  0  0  0  0  0  0
   -5.1876    0.9681   -0.6322 H   0  0  0  0  0  0  0  0  0  0  0  0
   -5.6425   -0.6875   -0.2649 H   0  0  0  0  0  0  0  0  0  0  0  0
   -5.3449    0.4596    1.0427 H   0  0  0  0  0  0  0  0  0  0  0  0
    1.8255    1.7716    1.7964 O   0  0  0  0  0  0  0  0  0  0  0  0
 14  5  2  0
 14  6  1  0
  5  4  1  0
  6 13  2  0
 15 16  2  0
 15  1  1  0
  4  1  1  0
  4 12  2  0
 16 17  1  0
  1  2  2  0
 17 18  1  0
 17  3  2  0
  2  3  1  0
 13 12  1  0
 12 11  1  0
 36  9  2  0
 11  9  1  0
 11  7  1  0
  9  8  1  0
  7 10  1  0
  8 10  1  0
  2 19  1  0
  3 20  1  0
  5 21  1  0
  6 22  1  0
  7 23  1  0
  7 24  1  0
  8 25  1  0
  8 26  1  0
 10 27  1  0
 10 28  1  0
 13 29  1  0
 14 30  1  0
 15 31  1  0
 16 32  1  0
 18 33  1  0
 18 34  1  0
 18 35  1  0
M  END
