
     RDKit          3D

 60 63  0  0  0  0  0  0  0  0999 V2000
    7.3770    2.0685   -2.1969 C   0  0  0  0  0  0  0  0  0  0  0  0
    7.8403    1.2158   -1.0157 C   0  0  1  0  0  0  0  0  0  0  0  0
    8.1115   -0.2231   -1.4566 C   0  0  0  0  0  0  0  0  0  0  0  0
    5.5771    0.8323    0.0078 C   0  0  0  0  0  0  0  0  0  0  0  0
    4.7952    1.0623    1.3052 C   0  0  0  0  0  0  0  0  0  0  0  0
    3.4435   -1.0366    1.5811 C   0  0  0  0  0  0  0  0  0  0  0  0
    2.0222   -1.3373    1.2321 C   0  0  0  0  0  0  0  0  0  0  0  0
    1.3015   -2.5133    1.3353 C   0  0  0  0  0  0  0  0  0  0  0  0
   -0.0199   -2.5108    0.9113 C   0  0  0  0  0  0  0  0  0  0  0  0
   -0.6229   -1.3534    0.4058 C   0  0  0  0  0  0  0  0  0  0  0  0
    0.1035   -0.1685    0.3323 C   0  0  0  0  0  0  0  0  0  0  0  0
    1.4237   -0.1898    0.7406 C   0  0  0  0  0  0  0  0  0  0  0  0
   -2.0412   -1.3485   -0.0119 C   0  0  0  0  0  0  0  0  0  0  0  0
   -4.0720   -0.2991    0.0957 C   0  0  0  0  0  0  0  0  0  0  0  0
   -6.1620    1.0077    0.2501 C   0  0  1  0  0  0  0  0  0  0  0  0
   -6.8458    1.7713    1.3769 C   0  0  0  0  0  0  0  0  0  0  0  0
   -8.2591    2.1558    0.9635 C   0  0  0  0  0  0  0  0  0  0  0  0
   -7.7191    2.1835   -1.3127 C   0  0  0  0  0  0  0  0  0  0  0  0
   -6.2695    1.8064   -1.0479 C   0  0  0  0  0  0  0  0  0  0  0  0
   -2.5997   -2.3001   -0.8684 C   0  0  0  0  0  0  0  0  0  0  0  0
    9.1221    1.8090   -0.4342 C   0  0  0  0  0  0  0  0  0  0  0  0
    6.8477    1.2479    0.0674 N   0  0  0  0  0  0  0  0  0  0  0  0
    5.0411    0.3296   -0.9665 O   0  0  0  0  0  0  0  0  0  0  0  0
    3.5426    0.3789    1.2917 N   0  0  0  0  0  0  0  0  0  0  0  0
    2.4184    0.9035    0.7424 C   0  0  0  0  0  0  0  0  0  0  0  0
    2.2709    2.0479    0.3513 O   0  0  0  0  0  0  0  0  0  0  0  0
   -2.7821   -0.3554    0.4497 N   0  0  0  0  0  0  0  0  0  0  0  0
   -4.7941    0.7090    0.6109 N   0  0  0  0  0  0  0  0  0  0  0  0
   -8.2823    2.8985   -0.2347 O   0  0  0  0  0  0  0  0  0  0  0  0
   -4.6847   -1.1773   -0.7066 N   0  0  0  0  0  0  0  0  0  0  0  0
   -3.9423   -2.1575   -1.1790 C   0  0  0  0  0  0  0  0  0  0  0  0
   -1.6912   -3.5699   -1.6045 Cl  0  0  0  0  0  0  0  0  0  0  0  0
    8.1524    2.0973   -2.9639 H   0  0  0  0  0  0  0  0  0  0  0  0
    6.4713    1.6722   -2.6533 H   0  0  0  0  0  0  0  0  0  0  0  0
    7.1812    3.0939   -1.8796 H   0  0  0  0  0  0  0  0  0  0  0  0
    8.8933   -0.2384   -2.2173 H   0  0  0  0  0  0  0  0  0  0  0  0
    8.4528   -0.8261   -0.6135 H   0  0  0  0  0  0  0  0  0  0  0  0
    7.2252   -0.6917   -1.8792 H   0  0  0  0  0  0  0  0  0  0  0  0
    5.3804    0.7373    2.1680 H   0  0  0  0  0  0  0  0  0  0  0  0
    4.6239    2.1339    1.4275 H   0  0  0  0  0  0  0  0  0  0  0  0
    3.6665   -1.2437    2.6311 H   0  0  0  0  0  0  0  0  0  0  0  0
    4.1404   -1.6201    0.9722 H   0  0  0  0  0  0  0  0  0  0  0  0
    1.7451   -3.4163    1.7335 H   0  0  0  0  0  0  0  0  0  0  0  0
   -0.5975   -3.4211    0.9969 H   0  0  0  0  0  0  0  0  0  0  0  0
   -0.3505    0.7390   -0.0448 H   0  0  0  0  0  0  0  0  0  0  0  0
   -6.6828    0.0560    0.1141 H   0  0  0  0  0  0  0  0  0  0  0  0
   -6.8895    1.1603    2.2815 H   0  0  0  0  0  0  0  0  0  0  0  0
   -6.2756    2.6742    1.6205 H   0  0  0  0  0  0  0  0  0  0  0  0
   -8.8704    1.2468    0.8615 H   0  0  0  0  0  0  0  0  0  0  0  0
   -8.7246    2.7742    1.7323 H   0  0  0  0  0  0  0  0  0  0  0  0
   -7.7957    2.8213   -2.1948 H   0  0  0  0  0  0  0  0  0  0  0  0
   -8.3032    1.2728   -1.5143 H   0  0  0  0  0  0  0  0  0  0  0  0
   -5.6547    2.7089   -0.9749 H   0  0  0  0  0  0  0  0  0  0  0  0
   -5.8875    1.2214   -1.8877 H   0  0  0  0  0  0  0  0  0  0  0  0
    8.9711    2.8373   -0.1000 H   0  0  0  0  0  0  0  0  0  0  0  0
    9.4788    1.2215    0.4142 H   0  0  0  0  0  0  0  0  0  0  0  0
    9.9084    1.8156   -1.1884 H   0  0  0  0  0  0  0  0  0  0  0  0
    7.1610    1.6251    0.9486 H   0  0  0  0  0  0  0  0  0  0  0  0
   -4.2779    1.4027    1.1294 H   0  0  0  0  0  0  0  0  0  0  0  0
   -4.4247   -2.8638   -1.8464 H   0  0  0  0  0  0  0  0  0  0  0  0
 29 18  1  0
 29 17  1  0
 18 19  1  0
 19 15  1  0
 17 16  1  0
 16 15  1  0
 15 28  1  0
 28 14  1  0
 14 27  2  0
 14 30  1  0
 27 13  1  0
 30 31  2  0
 13 10  1  0
 13 20  2  0
 31 20  1  0
 10  9  2  0
 10 11  1  0
  9  8  1  0
 11 12  2  0
 20 32  1  0
  8  7  2  0
 12  7  1  0
 12 25  1  0
  7  6  1  0
 26 25  2  0
 25 24  1  0
  6 24  1  0
 24  5  1  0
  5  4  1  0
  4 22  1  0
  4 23  2  0
  2 22  1  1
  1  2  1  0
  2 21  1  0
  2  3  1  0
  1 33  1  0
  1 34  1  0
  1 35  1  0
  3 36  1  0
  3 37  1  0
  3 38  1  0
  5 39  1  0
  5 40  1  0
  6 41  1  0
  6 42  1  0
  8 43  1  0
  9 44  1  0
 11 45  1  0
 15 46  1  6
 16 47  1  0
 16 48  1  0
 17 49  1  0
 17 50  1  0
 18 51  1  0
 18 52  1  0
 19 53  1  0
 19 54  1  0
 21 55  1  0
 21 56  1  0
 21 57  1  0
 22 58  1  0
 28 59  1  0
 31 60  1  0
M  END
