
     RDKit          3D

 33 35  0  0  0  0  0  0  0  0999 V2000
   -4.2090   -1.5166    0.0910 C   0  0  0  0  0  0  0  0  0  0  0  0
   -4.1714   -0.2359   -0.7062 C   0  0  0  0  0  0  0  0  0  0  0  0
   -3.1049    0.6965   -0.2597 C   0  0  0  0  0  0  0  0  0  0  0  0
   -3.2669    1.9118    0.3000 C   0  0  0  0  0  0  0  0  0  0  0  0
   -1.1105    1.6762    0.1452 C   0  0  0  0  0  0  0  0  0  0  0  0
    0.2517    1.8934    0.2341 C   0  0  0  0  0  0  0  0  0  0  0  0
    1.0868    0.8906   -0.2571 C   0  0  0  0  0  0  0  0  0  0  0  0
    3.4640    0.1759   -0.0357 C   0  0  0  0  0  0  0  0  0  0  0  0
    4.7773    0.5367   -0.3615 C   0  0  0  0  0  0  0  0  0  0  0  0
    5.8267   -0.3395   -0.1427 C   0  0  0  0  0  0  0  0  0  0  0  0
    5.5980   -1.6026    0.3902 C   0  0  0  0  0  0  0  0  0  0  0  0
    4.2981   -1.9626    0.7178 C   0  0  0  0  0  0  0  0  0  0  0  0
    3.2393   -1.0881    0.5191 C   0  0  0  0  0  0  0  0  0  0  0  0
    0.5307   -0.2818   -0.8108 C   0  0  0  0  0  0  0  0  0  0  0  0
   -0.8350   -0.4802   -0.8579 C   0  0  0  0  0  0  0  0  0  0  0  0
   -1.6812    0.5162   -0.3741 C   0  0  0  0  0  0  0  0  0  0  0  0
    2.4584    1.1043   -0.2427 N   0  0  0  0  0  0  0  0  0  0  0  0
   -5.1410   -2.3431   -0.3685 O   0  0  0  0  0  0  0  0  0  0  0  0
   -3.4959   -1.7715    1.0266 O   0  0  0  0  0  0  0  0  0  0  0  0
   -2.0770    2.5251    0.5559 O   0  0  0  0  0  0  0  0  0  0  0  0
   -4.0427   -0.4937   -1.7624 H   0  0  0  0  0  0  0  0  0  0  0  0
   -5.1535    0.2401   -0.6373 H   0  0  0  0  0  0  0  0  0  0  0  0
   -4.1541    2.4649    0.5672 H   0  0  0  0  0  0  0  0  0  0  0  0
    0.6568    2.7995    0.6669 H   0  0  0  0  0  0  0  0  0  0  0  0
    4.9718    1.5142   -0.7876 H   0  0  0  0  0  0  0  0  0  0  0  0
    6.8323   -0.0316   -0.3994 H   0  0  0  0  0  0  0  0  0  0  0  0
    6.4184   -2.2886    0.5528 H   0  0  0  0  0  0  0  0  0  0  0  0
    4.0968   -2.9350    1.1494 H   0  0  0  0  0  0  0  0  0  0  0  0
    2.2443   -1.3907    0.8148 H   0  0  0  0  0  0  0  0  0  0  0  0
    1.1833   -1.0380   -1.2260 H   0  0  0  0  0  0  0  0  0  0  0  0
   -1.2304   -1.3917   -1.2875 H   0  0  0  0  0  0  0  0  0  0  0  0
    2.7517    2.0682   -0.2458 H   0  0  0  0  0  0  0  0  0  0  0  0
   -5.1568   -3.1536    0.1621 H   0  0  0  0  0  0  0  0  0  0  0  0
  2  1  1  0
  2  3  1  0
 19  1  2  0
  1 18  1  0
  3  4  2  0
  3 16  1  0
  4 20  1  0
 16 15  2  0
 16  5  1  0
 15 14  1  0
 20  5  1  0
  5  6  2  0
 14  7  2  0
 12 13  2  0
 12 11  1  0
  6  7  1  0
 13  8  1  0
  7 17  1  0
 11 10  2  0
  8 17  1  0
  8  9  2  0
 10  9  1  0
  2 21  1  0
  2 22  1  0
  4 23  1  0
  6 24  1  0
  9 25  1  0
 10 26  1  0
 11 27  1  0
 12 28  1  0
 13 29  1  0
 14 30  1  0
 15 31  1  0
 17 32  1  0
 18 33  1  0
M  END
