
     RDKit          3D

 42 44  0  0  0  0  0  0  0  0999 V2000
   -3.8606    0.3383   -1.0569 C   0  0  0  0  0  0  0  0  0  0  0  0
   -3.5737    0.9855    0.3011 C   0  0  1  0  0  0  0  0  0  0  0  0
   -2.4494   -1.6205   -0.4189 C   0  0  0  0  0  0  0  0  0  0  0  0
    6.0091    1.2447   -0.1507 C   0  0  0  0  0  0  0  0  0  0  0  0
   -1.4216    0.3447   -1.5832 C   0  0  0  0  0  0  0  0  0  0  0  0
   -1.1244    0.9942   -0.2294 C   0  0  2  0  0  0  0  0  0  0  0  0
    5.0661    0.0710   -0.3410 C   0  0  0  0  0  0  0  0  0  0  0  0
   -0.8897   -0.0817    0.8432 C   0  0  1  0  0  0  0  0  0  0  0  0
   -3.3383   -0.1082    1.3467 C   0  0  0  0  0  0  0  0  0  0  0  0
   -2.1414   -0.9700    0.9342 C   0  0  1  0  0  0  0  0  0  0  0  0
    3.0200   -1.7618   -0.2375 N   0  0  0  0  0  0  0  0  0  0  0  0
    2.7643   -0.5689    0.1601 C   0  0  0  0  0  0  0  0  0  0  0  0
    0.3722   -0.9117    0.6270 C   0  0  0  0  0  0  0  0  0  0  0  0
   -2.3204    1.8559    0.1880 C   0  0  0  0  0  0  0  0  0  0  0  0
   -2.6716   -0.5329   -1.4739 C   0  0  2  0  0  0  0  0  0  0  0  0
    1.5428   -0.0723    0.5440 N   0  0  0  0  0  0  0  0  0  0  0  0
    3.7673    0.3688    0.2234 N   0  0  0  0  0  0  0  0  0  0  0  0
   -4.7725   -0.2663   -1.0046 H   0  0  0  0  0  0  0  0  0  0  0  0
   -4.0392    1.1122   -1.8114 H   0  0  0  0  0  0  0  0  0  0  0  0
   -4.4259    1.6025    0.6012 H   0  0  0  0  0  0  0  0  0  0  0  0
   -1.6469   -2.2966   -0.7262 H   0  0  0  0  0  0  0  0  0  0  0  0
   -3.3475   -2.2403   -0.3276 H   0  0  0  0  0  0  0  0  0  0  0  0
    5.6456    2.1371   -0.6638 H   0  0  0  0  0  0  0  0  0  0  0  0
    6.1339    1.4883    0.9047 H   0  0  0  0  0  0  0  0  0  0  0  0
    6.9902    1.0075   -0.5608 H   0  0  0  0  0  0  0  0  0  0  0  0
   -1.5806    1.1243   -2.3354 H   0  0  0  0  0  0  0  0  0  0  0  0
   -0.5666   -0.2422   -1.9317 H   0  0  0  0  0  0  0  0  0  0  0  0
   -0.2374    1.6285   -0.3140 H   0  0  0  0  0  0  0  0  0  0  0  0
    4.9968   -0.1801   -1.4059 H   0  0  0  0  0  0  0  0  0  0  0  0
    5.4688   -0.8126    0.1556 H   0  0  0  0  0  0  0  0  0  0  0  0
   -0.7740    0.4275    1.8109 H   0  0  0  0  0  0  0  0  0  0  0  0
   -3.1622    0.3390    2.3305 H   0  0  0  0  0  0  0  0  0  0  0  0
   -4.2307   -0.7356    1.4414 H   0  0  0  0  0  0  0  0  0  0  0  0
   -1.9781   -1.7463    1.6896 H   0  0  0  0  0  0  0  0  0  0  0  0
    2.2183   -2.3701   -0.1291 H   0  0  0  0  0  0  0  0  0  0  0  0
    0.4505   -1.6480    1.4396 H   0  0  0  0  0  0  0  0  0  0  0  0
    0.2990   -1.4846   -0.2998 H   0  0  0  0  0  0  0  0  0  0  0  0
   -2.4799    2.6496   -0.5490 H   0  0  0  0  0  0  0  0  0  0  0  0
   -2.1133    2.3490    1.1433 H   0  0  0  0  0  0  0  0  0  0  0  0
   -2.8802   -0.9982   -2.4420 H   0  0  0  0  0  0  0  0  0  0  0  0
    1.5685    0.7057    1.1861 H   0  0  0  0  0  0  0  0  0  0  0  0
    3.4620    1.3216    0.0891 H   0  0  0  0  0  0  0  0  0  0  0  0
  4  7  1  0
  7 17  1  0
 11 12  2  0
 17 12  1  0
 12 16  1  0
 16 13  1  0
 13  8  1  0
  8 10  1  0
  8  6  1  0
 10  9  1  0
 10  3  1  0
  9  2  1  0
  3 15  1  0
  6 14  1  0
  6  5  1  0
 14  2  1  0
  2  1  1  0
  5 15  1  0
 15  1  1  0
  1 18  1  0
  1 19  1  0
  2 20  1  1
  3 21  1  0
  3 22  1  0
  4 23  1  0
  4 24  1  0
  4 25  1  0
  5 26  1  0
  5 27  1  0
  6 28  1  6
  7 29  1  0
  7 30  1  0
  8 31  1  1
  9 32  1  0
  9 33  1  0
 10 34  1  1
 11 35  1  0
 13 36  1  0
 13 37  1  0
 14 38  1  0
 14 39  1  0
 15 40  1  6
 16 41  1  0
 17 42  1  0
M  END
