
     RDKit          3D

 58 60  0  0  0  0  0  0  0  0999 V2000
   -6.6052    1.0648    0.8986 C   0  0  0  0  0  0  0  0  0  0  0  0
   -7.7224    0.2794    1.1266 C   0  0  0  0  0  0  0  0  0  0  0  0
   -8.2846   -0.4139    0.0632 C   0  0  0  0  0  0  0  0  0  0  0  0
   -7.7491   -0.3305   -1.2143 C   0  0  0  0  0  0  0  0  0  0  0  0
   -6.6298    0.4591   -1.4228 C   0  0  0  0  0  0  0  0  0  0  0  0
   -6.0467    1.1610   -0.3727 C   0  0  0  0  0  0  0  0  0  0  0  0
   -4.8161    1.9838   -0.5938 C   0  0  0  0  0  0  0  0  0  0  0  0
   -3.5502    1.1841   -0.3210 C   0  0  0  0  0  0  0  0  0  0  0  0
   -1.0853    1.5305   -0.3374 C   0  0  0  0  0  0  0  0  0  0  0  0
   -0.1186    2.5180   -0.5424 C   0  0  0  0  0  0  0  0  0  0  0  0
    1.2254    2.2342   -0.3973 C   0  0  0  0  0  0  0  0  0  0  0  0
    1.6556    0.9572   -0.0374 C   0  0  0  0  0  0  0  0  0  0  0  0
    0.6858   -0.0219    0.1640 C   0  0  0  0  0  0  0  0  0  0  0  0
   -0.6656    0.2463    0.0148 C   0  0  0  0  0  0  0  0  0  0  0  0
    3.0959    0.6664    0.0817 C   0  0  0  0  0  0  0  0  0  0  0  0
    3.6394   -0.0116    1.1638 C   0  0  0  0  0  0  0  0  0  0  0  0
    4.9847   -0.2900    1.2850 C   0  0  0  0  0  0  0  0  0  0  0  0
    5.8664    0.1302    0.2948 C   0  0  0  0  0  0  0  0  0  0  0  0
    5.3562    0.8150   -0.8052 C   0  0  0  0  0  0  0  0  0  0  0  0
    3.9997    1.0761   -0.8971 C   0  0  0  0  0  0  0  0  0  0  0  0
    7.3389   -0.2414    0.4489 C   0  0  1  0  0  0  0  0  0  0  0  0
    7.5947   -1.5409   -0.3486 C   0  0  1  0  0  0  0  0  0  0  0  0
    8.2855    0.9050   -0.0025 C   0  0  1  0  0  0  0  0  0  0  0  0
  -11.0944   -0.3019    0.0963 C   0  0  0  0  0  0  0  0  0  0  0  0
  -12.4131   -1.0316    0.2866 C   0  0  0  0  0  0  0  0  0  0  0  0
    2.8302   -0.4119    2.1548 F   0  0  0  0  0  0  0  0  0  0  0  0
    8.2770    1.1248   -1.3184 F   0  0  0  0  0  0  0  0  0  0  0  0
    7.9241    2.0390    0.6018 F   0  0  0  0  0  0  0  0  0  0  0  0
    9.5448    0.6544    0.3421 F   0  0  0  0  0  0  0  0  0  0  0  0
    8.8599   -1.9482   -0.2616 F   0  0  0  0  0  0  0  0  0  0  0  0
    6.8269   -2.5172    0.1290 F   0  0  0  0  0  0  0  0  0  0  0  0
    7.3046   -1.3928   -1.6398 F   0  0  0  0  0  0  0  0  0  0  0  0
   -2.4173    1.9086   -0.5085 N   0  0  0  0  0  0  0  0  0  0  0  0
    7.6825   -0.5720    1.7531 O   0  0  0  0  0  0  0  0  0  0  0  0
   -9.7659   -2.4471   -0.7003 O   0  0  0  0  0  0  0  0  0  0  0  0
   -9.7151   -1.8514    1.7390 O   0  0  0  0  0  0  0  0  0  0  0  0
   -3.5718    0.0216    0.0292 O   0  0  0  0  0  0  0  0  0  0  0  0
   -9.7161   -1.4203    0.3408 S   0  0  1  0  0  0  0  0  0  0  0  0
   -6.1614    1.6076    1.7236 H   0  0  0  0  0  0  0  0  0  0  0  0
   -8.1395    0.2090    2.1221 H   0  0  0  0  0  0  0  0  0  0  0  0
   -8.1886   -0.8740   -2.0397 H   0  0  0  0  0  0  0  0  0  0  0  0
   -6.2073    0.5262   -2.4175 H   0  0  0  0  0  0  0  0  0  0  0  0
   -4.7796    2.3629   -1.6186 H   0  0  0  0  0  0  0  0  0  0  0  0
   -4.8205    2.8620    0.0582 H   0  0  0  0  0  0  0  0  0  0  0  0
   -0.4229    3.5214   -0.8149 H   0  0  0  0  0  0  0  0  0  0  0  0
    1.9475    3.0259   -0.5520 H   0  0  0  0  0  0  0  0  0  0  0  0
    0.9772   -1.0326    0.4169 H   0  0  0  0  0  0  0  0  0  0  0  0
   -1.3760   -0.5482    0.1690 H   0  0  0  0  0  0  0  0  0  0  0  0
    5.3169   -0.8344    2.1587 H   0  0  0  0  0  0  0  0  0  0  0  0
    5.9825    1.1528   -1.6159 H   0  0  0  0  0  0  0  0  0  0  0  0
    3.6283    1.5969   -1.7702 H   0  0  0  0  0  0  0  0  0  0  0  0
  -10.9961    0.1080   -0.9098 H   0  0  0  0  0  0  0  0  0  0  0  0
  -10.9730    0.5108    0.8136 H   0  0  0  0  0  0  0  0  0  0  0  0
  -12.5015   -1.4471    1.2888 H   0  0  0  0  0  0  0  0  0  0  0  0
  -13.2284   -0.3237    0.1467 H   0  0  0  0  0  0  0  0  0  0  0  0
  -12.5394   -1.8328   -0.4392 H   0  0  0  0  0  0  0  0  0  0  0  0
   -2.5508    2.8677   -0.7937 H   0  0  0  0  0  0  0  0  0  0  0  0
    7.3674    0.1013    2.3698 H   0  0  0  0  0  0  0  0  0  0  0  0
 23 29  1  1
 21 34  1  1
 27 23  1  0
 37  8  2  0
 23 21  1  0
 23 28  1  0
 19 20  2  0
 19 18  1  0
 13 14  2  0
 13 12  1  0
 14  9  1  0
 20 15  1  0
 21 18  1  0
 21 22  1  0
  8  7  1  0
  8 33  1  0
 18 17  2  0
  1  2  2  0
  1  6  1  0
  7  6  1  0
 15 12  1  0
 15 16  2  0
 22 31  1  1
 12 11  2  0
  9 33  1  0
  9 10  2  0
 17 16  1  0
  2  3  1  0
 22 32  1  0
 22 30  1  0
  6  5  2  0
 16 26  1  0
 11 10  1  0
 24 25  1  0
 38 24  1  1
  3 38  1  0
  3  4  2  0
  5  4  1  0
 36 38  2  0
 38 35  2  0
  1 39  1  0
  2 40  1  0
  4 41  1  0
  5 42  1  0
  7 43  1  0
  7 44  1  0
 10 45  1  0
 11 46  1  0
 13 47  1  0
 14 48  1  0
 17 49  1  0
 19 50  1  0
 20 51  1  0
 24 52  1  0
 24 53  1  0
 25 54  1  0
 25 55  1  0
 25 56  1  0
 33 57  1  0
 34 58  1  0
M  END
