
     RDKit          3D

 42 45  0  0  0  0  0  0  0  0999 V2000
    4.0025    0.6628    0.1698 C   0  0  0  0  0  0  0  0  0  0  0  0
   -6.0398   -2.1291   -0.7949 C   0  0  0  0  0  0  0  0  0  0  0  0
    2.6047    0.6558    0.0682 C   0  0  0  0  0  0  0  0  0  0  0  0
    1.8607    1.9001   -0.0262 C   0  0  0  0  0  0  0  0  0  0  0  0
   -2.6557   -0.5474   -0.1895 C   0  0  0  0  0  0  0  0  0  0  0  0
    2.3713    3.2160   -0.0604 C   0  0  0  0  0  0  0  0  0  0  0  0
   -0.9497    3.9825   -0.2603 C   0  0  0  0  0  0  0  0  0  0  0  0
   -2.0111    3.1500   -0.2728 C   0  0  0  0  0  0  0  0  0  0  0  0
   -1.7692    1.7355   -0.1966 C   0  0  0  0  0  0  0  0  0  0  0  0
   -3.9898   -1.2014    0.0196 C   0  0  0  0  0  0  0  0  0  0  0  0
   -4.8038   -1.5551   -1.0486 C   0  0  0  0  0  0  0  0  0  0  0  0
    4.3349   -4.1322   -0.0366 N   0  0  0  0  0  0  0  0  0  0  0  0
    1.4413    4.1415   -0.1490 N   0  0  0  0  0  0  0  0  0  0  0  0
    4.7216   -0.5124    0.2633 C   0  0  0  0  0  0  0  0  0  0  0  0
    0.2915    3.4470   -0.1740 N   0  0  0  0  0  0  0  0  0  0  0  0
    6.0517   -2.9409    0.8003 O   0  0  0  0  0  0  0  0  0  0  0  0
    4.0805   -1.7502    0.2426 C   0  0  0  0  0  0  0  0  0  0  0  0
   -2.8121    0.8933   -0.1911 N   0  0  0  0  0  0  0  0  0  0  0  0
   -6.4164   -2.3276    0.5246 C   0  0  0  0  0  0  0  0  0  0  0  0
   -5.6494   -1.9963    1.5578 N   0  0  0  0  0  0  0  0  0  0  0  0
   -4.4698   -1.4472    1.3022 C   0  0  0  0  0  0  0  0  0  0  0  0
   -0.5530    1.2346   -0.1216 N   0  0  0  0  0  0  0  0  0  0  0  0
    0.4771    2.0867   -0.1044 C   0  0  0  0  0  0  0  0  0  0  0  0
    1.9651   -0.5902    0.0670 C   0  0  0  0  0  0  0  0  0  0  0  0
    2.6903   -1.7660    0.1496 C   0  0  0  0  0  0  0  0  0  0  0  0
    4.5448    1.5993    0.1818 H   0  0  0  0  0  0  0  0  0  0  0  0
   -1.9651   -0.8325    0.6064 H   0  0  0  0  0  0  0  0  0  0  0  0
   -2.2120   -0.8892   -1.1299 H   0  0  0  0  0  0  0  0  0  0  0  0
    3.4072    3.5201   -0.0236 H   0  0  0  0  0  0  0  0  0  0  0  0
   -1.0180    5.0591   -0.3131 H   0  0  0  0  0  0  0  0  0  0  0  0
   -3.0140    3.5457   -0.3383 H   0  0  0  0  0  0  0  0  0  0  0  0
   -4.4735   -1.3869   -2.0665 H   0  0  0  0  0  0  0  0  0  0  0  0
    3.4577   -4.1610   -0.5254 H   0  0  0  0  0  0  0  0  0  0  0  0
    4.8564   -4.9921    0.0125 H   0  0  0  0  0  0  0  0  0  0  0  0
    5.7994   -0.4663    0.3449 H   0  0  0  0  0  0  0  0  0  0  0  0
   -3.7311    1.2714   -0.3537 H   0  0  0  0  0  0  0  0  0  0  0  0
   -7.3757   -2.7759    0.7575 H   0  0  0  0  0  0  0  0  0  0  0  0
   -3.8599   -1.1889    2.1629 H   0  0  0  0  0  0  0  0  0  0  0  0
    0.8871   -0.6416    0.0062 H   0  0  0  0  0  0  0  0  0  0  0  0
    2.1393   -2.6983    0.1635 H   0  0  0  0  0  0  0  0  0  0  0  0
    4.9093   -2.9848    0.3595 C   0  0  0  0  0  0  0  0  0  0  0  0
   -6.6991   -2.4196   -1.6013 H   0  0  0  0  0  0  0  0  0  0  0  0
  5 10  1  0
  5 18  1  0
 21 10  2  0
 21 20  1  0
 16 41  2  0
 41 12  1  0
 41 17  1  0
 14 17  1  0
 14  1  2  0
 10 11  1  0
 18  9  1  0
 17 25  2  0
 20 19  2  0
  1  3  1  0
 22  9  2  0
 22 23  1  0
 25 24  1  0
  9  8  1  0
  3 24  2  0
  3  4  1  0
 23  4  2  0
 23 15  1  0
  4  6  1  0
  8  7  2  0
 11  2  2  0
 19  2  1  0
 15  7  1  0
 15 13  1  0
  6 13  2  0
  1 26  1  0
  2 42  1  0
  5 27  1  0
  5 28  1  0
  6 29  1  0
  7 30  1  0
  8 31  1  0
 11 32  1  0
 12 33  1  0
 12 34  1  0
 14 35  1  0
 18 36  1  0
 19 37  1  0
 21 38  1  0
 24 39  1  0
 25 40  1  0
M  END
