
     RDKit          3D

 72 76  0  0  0  0  0  0  0  0999 V2000
   -8.0375    2.1069   -0.5001 C   0  0  0  0  0  0  0  0  0  0  0  0
   -7.2493    1.0322   -0.8892 C   0  0  0  0  0  0  0  0  0  0  0  0
   -7.5398    3.0263    0.4143 C   0  0  0  0  0  0  0  0  0  0  0  0
   -1.8875    1.4873   -1.6826 C   0  0  0  0  0  0  0  0  0  0  0  0
   -5.9708    0.8691   -0.3729 C   0  0  0  0  0  0  0  0  0  0  0  0
   -6.2598    2.8833    0.9304 C   0  0  0  0  0  0  0  0  0  0  0  0
   -2.9806    1.8232   -0.9396 C   0  0  0  0  0  0  0  0  0  0  0  0
   -2.3093    0.3855    0.8847 C   0  0  0  0  0  0  0  0  0  0  0  0
   -1.1636    0.0414    0.1287 C   0  0  0  0  0  0  0  0  0  0  0  0
   -0.9346    0.5838   -1.1603 C   0  0  0  0  0  0  0  0  0  0  0  0
   -5.4853    1.8029    0.5334 C   0  0  0  0  0  0  0  0  0  0  0  0
   -3.1957    1.2725    0.3544 C   0  0  0  0  0  0  0  0  0  0  0  0
    1.0496   -0.5474   -1.3662 C   0  0  0  0  0  0  0  0  0  0  0  0
    3.9447    0.2186    0.5913 C   0  0  0  0  0  0  0  0  0  0  0  0
   -0.2070   -0.8425    0.5871 C   0  0  0  0  0  0  0  0  0  0  0  0
    5.6216    3.9027   -0.9550 C   0  0  0  0  0  0  0  0  0  0  0  0
    0.9769   -6.3916    0.3143 C   0  0  0  0  0  0  0  0  0  0  0  0
    6.0832    3.4274    0.4178 C   0  0  0  0  0  0  0  0  0  0  0  0
    4.1330    3.6407   -1.1538 C   0  0  0  0  0  0  0  0  0  0  0  0
   -0.0585   -5.4337   -0.2607 C   0  0  0  0  0  0  0  0  0  0  0  0
    1.5910   -5.8140    1.5821 C   0  0  0  0  0  0  0  0  0  0  0  0
    5.7543    1.9544    0.6381 C   0  0  0  0  0  0  0  0  0  0  0  0
    3.7926    2.1709   -0.9349 C   0  0  0  0  0  0  0  0  0  0  0  0
    0.5406   -4.0544   -0.5146 C   0  0  0  0  0  0  0  0  0  0  0  0
    2.1987   -4.4360    1.3378 C   0  0  0  0  0  0  0  0  0  0  0  0
    4.2592    1.6898    0.4463 C   0  0  1  0  0  0  0  0  0  0  0  0
    1.1699   -3.4627    0.7500 C   0  0  1  0  0  0  0  0  0  0  0  0
    2.5146   -1.4547    1.6554 C   0  0  0  0  0  0  0  0  0  0  0  0
    1.8377   -2.1166    0.4465 C   0  0  2  0  0  0  0  0  0  0  0  0
    0.8631   -1.1557   -0.1367 N   0  0  0  0  0  0  0  0  0  0  0  0
    0.1635    0.2797   -1.8580 N   0  0  0  0  0  0  0  0  0  0  0  0
    2.1343   -0.8400   -2.0917 N   0  0  0  0  0  0  0  0  0  0  0  0
    4.5491   -0.6466   -0.0354 O   0  0  0  0  0  0  0  0  0  0  0  0
   -4.2477    1.6738    1.1118 O   0  0  0  0  0  0  0  0  0  0  0  0
   -9.0342    2.2254   -0.9033 H   0  0  0  0  0  0  0  0  0  0  0  0
   -7.6314    0.3059   -1.5944 H   0  0  0  0  0  0  0  0  0  0  0  0
   -8.1469    3.8658    0.7268 H   0  0  0  0  0  0  0  0  0  0  0  0
   -5.3725    0.0169   -0.6713 H   0  0  0  0  0  0  0  0  0  0  0  0
   -5.8643    3.6007    1.6381 H   0  0  0  0  0  0  0  0  0  0  0  0
   -1.7259    1.9192   -2.6603 H   0  0  0  0  0  0  0  0  0  0  0  0
   -3.6907    2.5359   -1.3401 H   0  0  0  0  0  0  0  0  0  0  0  0
   -2.4630   -0.0420    1.8672 H   0  0  0  0  0  0  0  0  0  0  0  0
   -0.3049   -1.3159    1.5544 H   0  0  0  0  0  0  0  0  0  0  0  0
    2.2297   -0.3175   -2.9483 H   0  0  0  0  0  0  0  0  0  0  0  0
    3.0068   -1.1283   -1.6767 H   0  0  0  0  0  0  0  0  0  0  0  0
    3.7085    2.2550    1.2070 H   0  0  0  0  0  0  0  0  0  0  0  0
    2.4758    0.6395    1.9341 H   0  0  0  0  0  0  0  0  0  0  0  0
    6.1885    3.3769   -1.7312 H   0  0  0  0  0  0  0  0  0  0  0  0
    7.1583    3.5831    0.5329 H   0  0  0  0  0  0  0  0  0  0  0  0
    5.5982    4.0295    1.1941 H   0  0  0  0  0  0  0  0  0  0  0  0
    3.5583    4.2551   -0.4530 H   0  0  0  0  0  0  0  0  0  0  0  0
    3.8225    3.9423   -2.1567 H   0  0  0  0  0  0  0  0  0  0  0  0
    0.5230   -7.3637    0.5199 H   0  0  0  0  0  0  0  0  0  0  0  0
    1.7656   -6.5621   -0.4267 H   0  0  0  0  0  0  0  0  0  0  0  0
   -0.4708   -5.8274   -1.1921 H   0  0  0  0  0  0  0  0  0  0  0  0
   -0.8978   -5.3418    0.4369 H   0  0  0  0  0  0  0  0  0  0  0  0
    0.8196   -5.7312    2.3548 H   0  0  0  0  0  0  0  0  0  0  0  0
    2.3590   -6.4814    1.9789 H   0  0  0  0  0  0  0  0  0  0  0  0
    6.3212    1.3441   -0.0700 H   0  0  0  0  0  0  0  0  0  0  0  0
    6.0629    1.6454    1.6400 H   0  0  0  0  0  0  0  0  0  0  0  0
    2.7143    2.0218   -1.0384 H   0  0  0  0  0  0  0  0  0  0  0  0
    4.2742    1.5661   -1.7098 H   0  0  0  0  0  0  0  0  0  0  0  0
    1.3113   -4.1347   -1.2903 H   0  0  0  0  0  0  0  0  0  0  0  0
   -0.2367   -3.3965   -0.9114 H   0  0  0  0  0  0  0  0  0  0  0  0
    2.5981   -4.0556    2.2798 H   0  0  0  0  0  0  0  0  0  0  0  0
    3.0452   -4.5228    0.6467 H   0  0  0  0  0  0  0  0  0  0  0  0
    0.3853   -3.3202    1.5045 H   0  0  0  0  0  0  0  0  0  0  0  0
    2.5899   -2.3059   -0.3128 H   0  0  0  0  0  0  0  0  0  0  0  0
    1.8415   -1.4474    2.5136 H   0  0  0  0  0  0  0  0  0  0  0  0
    3.3764   -2.0602    1.9357 H   0  0  0  0  0  0  0  0  0  0  0  0
    2.9235   -0.0939    1.4091 N   0  0  0  0  0  0  0  0  0  0  0  0
    5.8368    4.9665   -1.0802 H   0  0  0  0  0  0  0  0  0  0  0  0
  1  2  2  0
  1  3  1  0
  2  5  1  0
  3  6  2  0
  4  7  2  0
  4 10  1  0
  5 11  2  0
  6 11  1  0
  7 12  1  0
  8  9  1  0
  8 12  2  0
  9 10  2  0
  9 15  1  0
 10 31  1  0
 11 34  1  0
 12 34  1  0
 13 30  1  0
 13 31  2  0
 13 32  1  0
 14 26  1  0
 14 71  1  0
 14 33  2  0
 15 30  2  0
 16 18  1  0
 16 19  1  0
 17 20  1  0
 17 21  1  0
 18 22  1  0
 19 23  1  0
 20 24  1  0
 21 25  1  0
 22 26  1  0
 23 26  1  0
 24 27  1  0
 25 27  1  0
 27 29  1  0
 28 29  1  0
 28 71  1  0
 29 30  1  0
  1 35  1  0
  2 36  1  0
  3 37  1  0
  5 38  1  0
  6 39  1  0
  4 40  1  0
  7 41  1  0
  8 42  1  0
 15 43  1  0
 32 44  1  0
 32 45  1  0
 26 46  1  1
 71 47  1  0
 16 72  1  0
 16 48  1  0
 18 49  1  0
 18 50  1  0
 19 51  1  0
 19 52  1  0
 17 53  1  0
 17 54  1  0
 20 55  1  0
 20 56  1  0
 21 57  1  0
 21 58  1  0
 22 59  1  0
 22 60  1  0
 23 61  1  0
 23 62  1  0
 24 63  1  0
 24 64  1  0
 25 65  1  0
 25 66  1  0
 27 67  1  1
 29 68  1  6
 28 69  1  0
 28 70  1  0
M  CHG  1  30   1
M  END
