
     RDKit          3D

 15 16  0  0  0  0  0  0  0  0999 V2000
    2.9834   -1.5738   -1.9504 N   0  0  0  0  0  0  0  0  0  0  0  0
    1.9477   -1.0266   -2.5667 C   0  0  0  0  0  0  0  0  0  0  0  0
    0.8201   -0.4312   -1.9511 C   0  0  0  0  0  0  0  0  0  0  0  0
    0.7976   -0.4214   -0.5581 C   0  0  0  0  0  0  0  0  0  0  0  0
   -0.0326    0.0236   -3.0023 C   0  0  0  0  0  0  0  0  0  0  0  0
    1.8718   -0.9896    0.1047 C   0  0  0  0  0  0  0  0  0  0  0  0
    2.9278   -1.5458   -0.6266 C   0  0  0  0  0  0  0  0  0  0  0  0
    1.7763   -0.9336   -3.9132 N   0  0  0  0  0  0  0  0  0  0  0  0
    0.5901   -0.3035   -4.1719 C   0  0  0  0  0  0  0  0  0  0  0  0
    3.7666   -1.9888   -0.1017 H   0  0  0  0  0  0  0  0  0  0  0  0
    2.4246   -1.2656   -4.6087 H   0  0  0  0  0  0  0  0  0  0  0  0
   -0.0283    0.0153   -0.0108 H   0  0  0  0  0  0  0  0  0  0  0  0
   -0.9802    0.5286   -2.9060 H   0  0  0  0  0  0  0  0  0  0  0  0
    1.9086   -1.0096    1.1852 H   0  0  0  0  0  0  0  0  0  0  0  0
    0.2745   -0.1341   -5.1886 H   0  0  0  0  0  0  0  0  0  0  0  0
  1  2  2  0
  2  3  1  0
  3  4  2  0
  3  5  1  0
  4  6  1  0
  1  7  1  0
  6  7  2  0
  2  8  1  0
  5  9  2  0
  8  9  1  0
  7 10  1  0
  8 11  1  0
  4 12  1  0
  5 13  1  0
  6 14  1  0
  9 15  1  0
M  END
