
     RDKit          3D

 42 45  0  0  0  0  0  0  0  0999 V2000
    0.6624    3.3688   -0.0100 N   0  0  0  0  0  0  0  0  0  0  0  0
   -2.1819    0.4646   -0.5248 N   0  0  0  0  0  0  0  0  0  0  0  0
    0.4863   -0.2734   -0.3144 C   0  0  0  0  0  0  0  0  0  0  0  0
    1.8195   -0.6115   -0.1841 C   0  0  0  0  0  0  0  0  0  0  0  0
    2.7853    0.3771    0.0071 C   0  0  0  0  0  0  0  0  0  0  0  0
   -0.6105    3.8057   -0.1191 C   0  0  0  0  0  0  0  0  0  0  0  0
   -1.6761    2.7352   -0.3054 C   0  0  0  0  0  0  0  0  0  0  0  0
   -3.9712   -0.9047    0.3356 C   0  0  0  0  0  0  0  0  0  0  0  0
   -6.0432   -2.7230   -0.0290 C   0  0  0  0  0  0  0  0  0  0  0  0
   -5.0195   -0.9653    1.2519 C   0  0  0  0  0  0  0  0  0  0  0  0
    2.1962   -2.8556    0.7858 C   0  0  0  0  0  0  0  0  0  0  0  0
    2.3918    1.7015    0.0647 C   0  0  0  0  0  0  0  0  0  0  0  0
   -3.9585   -1.7711   -0.7565 C   0  0  0  0  0  0  0  0  0  0  0  0
   -4.9917   -2.6790   -0.9343 C   0  0  0  0  0  0  0  0  0  0  0  0
   -6.0553   -1.8655    1.0643 C   0  0  0  0  0  0  0  0  0  0  0  0
    4.2349    0.0171    0.1563 C   0  0  1  0  0  0  0  0  0  0  0  0
    2.6852   -3.9691   -0.9625 C   0  0  0  0  0  0  0  0  0  0  0  0
    2.4794   -2.6915   -1.3863 C   0  0  0  0  0  0  0  0  0  0  0  0
    1.0542    2.0468   -0.0656 C   0  0  0  0  0  0  0  0  0  0  0  0
    0.0947    1.0551   -0.2534 C   0  0  0  0  0  0  0  0  0  0  0  0
   -2.8867    0.0774    0.5880 C   0  0  0  0  0  0  0  0  0  0  0  0
    4.4378   -0.7970    1.1987 F   0  0  0  0  0  0  0  0  0  0  0  0
    4.7072   -0.6085   -0.9274 F   0  0  0  0  0  0  0  0  0  0  0  0
    4.9990    1.0935    0.3484 F   0  0  0  0  0  0  0  0  0  0  0  0
   -1.2384    1.4370   -0.3822 N   0  0  0  0  0  0  0  0  0  0  0  0
    2.1691   -1.9810   -0.2528 N   0  0  0  0  0  0  0  0  0  0  0  0
    2.5060   -4.0576    0.3917 N   0  0  0  0  0  0  0  0  0  0  0  0
   -2.6130    0.5037    1.6881 O   0  0  0  0  0  0  0  0  0  0  0  0
   -0.9375    4.9675   -0.0727 O   0  0  0  0  0  0  0  0  0  0  0  0
   -2.8362    3.0405   -0.3908 O   0  0  0  0  0  0  0  0  0  0  0  0
    1.3773    4.0744    0.1207 H   0  0  0  0  0  0  0  0  0  0  0  0
   -2.5569    0.3528   -1.4567 H   0  0  0  0  0  0  0  0  0  0  0  0
   -0.2424   -1.0571   -0.4631 H   0  0  0  0  0  0  0  0  0  0  0  0
   -6.8513   -3.4280   -0.1731 H   0  0  0  0  0  0  0  0  0  0  0  0
   -5.0314   -0.3007    2.1054 H   0  0  0  0  0  0  0  0  0  0  0  0
    1.9780   -2.5468    1.7969 H   0  0  0  0  0  0  0  0  0  0  0  0
    3.1150    2.4919    0.2100 H   0  0  0  0  0  0  0  0  0  0  0  0
   -3.1376   -1.7682   -1.4621 H   0  0  0  0  0  0  0  0  0  0  0  0
   -4.9713   -3.3544   -1.7788 H   0  0  0  0  0  0  0  0  0  0  0  0
   -6.8724   -1.8997    1.7722 H   0  0  0  0  0  0  0  0  0  0  0  0
    2.9518   -4.8265   -1.5607 H   0  0  0  0  0  0  0  0  0  0  0  0
    2.5203   -2.2313   -2.3590 H   0  0  0  0  0  0  0  0  0  0  0  0
 14 13  1  0
 14  9  2  0
 13  8  2  0
 28 21  2  0
 17 18  2  0
 17 27  1  0
 18 26  1  0
  9 15  1  0
  8 21  1  0
  8 10  1  0
 21  2  1  0
 27 11  2  0
 16 22  1  1
 26  4  1  0
 26 11  1  0
 15 10  2  0
  3  4  1  0
  3 20  2  0
  2 25  1  0
  4  5  2  0
 20 25  1  0
 20 19  1  0
 25  7  1  0
  5 16  1  0
  5 12  1  0
 16 24  1  0
 16 23  1  0
  7 30  2  0
  7  6  1  0
 19 12  2  0
 19  1  1  0
  1  6  1  0
  6 29  2  0
  1 31  1  0
  2 32  1  0
  3 33  1  0
  9 34  1  0
 10 35  1  0
 11 36  1  0
 12 37  1  0
 13 38  1  0
 14 39  1  0
 15 40  1  0
 17 41  1  0
 18 42  1  0
M  END
