
     RDKit          3D

 54 56  0  0  0  0  0  0  0  0999 V2000
    4.7068   -0.1307    2.4492 O   0  0  0  0  0  0  0  0  0  0  0  0
    5.2081    0.4115    1.4815 C   0  0  0  0  0  0  0  0  0  0  0  0
    6.1821    1.3234    1.5674 N   0  0  0  0  0  0  0  0  0  0  0  0
    6.5498    1.7941    2.7879 O   0  0  0  0  0  0  0  0  0  0  0  0
    4.7413    0.0735    0.0577 C   0  0  1  0  0  0  0  0  0  0  0  0
    5.4609    0.8314   -1.0568 C   0  0  0  0  0  0  0  0  0  0  0  0
    5.2049   -1.6972   -0.1766 S   0  0  1  0  0  0  0  0  0  0  0  0
    4.0577   -2.6970    0.7460 C   0  0  0  0  0  0  0  0  0  0  0  0
    5.0313   -2.0229   -1.5931 O   0  0  0  0  0  0  0  0  0  0  0  0
    6.5402   -1.8551    0.4001 O   0  0  0  0  0  0  0  0  0  0  0  0
    3.2218    0.2896    0.0125 C   0  0  0  0  0  0  0  0  0  0  0  0
    2.5277   -0.0228   -1.3155 C   0  0  0  0  0  0  0  0  0  0  0  0
    1.1123    0.2178   -1.2168 N   0  0  0  0  0  0  0  0  0  0  0  0
    0.5108    1.3765   -1.5841 C   0  0  0  0  0  0  0  0  0  0  0  0
    1.0575    2.3485   -2.0781 O   0  0  0  0  0  0  0  0  0  0  0  0
   -0.9211    1.2049   -1.2663 C   0  0  0  0  0  0  0  0  0  0  0  0
   -1.9802    2.0757   -1.4589 C   0  0  0  0  0  0  0  0  0  0  0  0
   -3.2432    1.6640   -1.0667 C   0  0  0  0  0  0  0  0  0  0  0  0
    0.2083   -0.7508   -0.6314 C   0  0  0  0  0  0  0  0  0  0  0  0
   -1.1087   -0.0448   -0.7024 C   0  0  0  0  0  0  0  0  0  0  0  0
   -2.3651   -0.4602   -0.3064 C   0  0  0  0  0  0  0  0  0  0  0  0
   -3.4487    0.4022   -0.4898 C   0  0  0  0  0  0  0  0  0  0  0  0
   -4.7991   -0.0513   -0.1044 C   0  0  0  0  0  0  0  0  0  0  0  0
   -5.6632    0.7150    0.6610 C   0  0  0  0  0  0  0  0  0  0  0  0
   -5.2617    1.9241    1.0827 F   0  0  0  0  0  0  0  0  0  0  0  0
   -5.2708   -1.3142   -0.4780 C   0  0  0  0  0  0  0  0  0  0  0  0
   -6.5226   -1.7683   -0.1195 C   0  0  0  0  0  0  0  0  0  0  0  0
   -7.3646   -0.9592    0.6489 C   0  0  0  0  0  0  0  0  0  0  0  0
   -6.9247    0.3001    1.0472 C   0  0  0  0  0  0  0  0  0  0  0  0
   -8.5667   -1.4645    0.9579 O   0  0  0  0  0  0  0  0  0  0  0  0
   -9.4519   -0.6849    1.7404 C   0  0  0  0  0  0  0  0  0  0  0  0
    6.5220    1.8649    0.7877 H   0  0  0  0  0  0  0  0  0  0  0  0
    7.3181    1.2739    3.0594 H   0  0  0  0  0  0  0  0  0  0  0  0
    6.5425    0.7014   -1.0245 H   0  0  0  0  0  0  0  0  0  0  0  0
    5.1289    0.5052   -2.0383 H   0  0  0  0  0  0  0  0  0  0  0  0
    5.2336    1.8954   -0.9838 H   0  0  0  0  0  0  0  0  0  0  0  0
    4.3805   -3.7265    0.5925 H   0  0  0  0  0  0  0  0  0  0  0  0
    4.0971   -2.4393    1.7989 H   0  0  0  0  0  0  0  0  0  0  0  0
    3.0500   -2.5754    0.3559 H   0  0  0  0  0  0  0  0  0  0  0  0
    2.7464   -0.2701    0.8197 H   0  0  0  0  0  0  0  0  0  0  0  0
    3.0552    1.3464    0.2409 H   0  0  0  0  0  0  0  0  0  0  0  0
    2.9247    0.5970   -2.1183 H   0  0  0  0  0  0  0  0  0  0  0  0
    2.6755   -1.0597   -1.6188 H   0  0  0  0  0  0  0  0  0  0  0  0
   -1.8320    3.0479   -1.9113 H   0  0  0  0  0  0  0  0  0  0  0  0
   -4.0860    2.3198   -1.2384 H   0  0  0  0  0  0  0  0  0  0  0  0
    0.2070   -1.6828   -1.2042 H   0  0  0  0  0  0  0  0  0  0  0  0
    0.4894   -0.9947    0.3982 H   0  0  0  0  0  0  0  0  0  0  0  0
   -2.5124   -1.4324    0.1485 H   0  0  0  0  0  0  0  0  0  0  0  0
   -4.6378   -1.9494   -1.0846 H   0  0  0  0  0  0  0  0  0  0  0  0
   -6.8598   -2.7466   -0.4363 H   0  0  0  0  0  0  0  0  0  0  0  0
   -7.5255    0.9623    1.6557 H   0  0  0  0  0  0  0  0  0  0  0  0
   -9.0343   -0.4618    2.7250 H   0  0  0  0  0  0  0  0  0  0  0  0
   -9.7138    0.2526    1.2443 H   0  0  0  0  0  0  0  0  0  0  0  0
  -10.3536   -1.2780    1.8684 H   0  0  0  0  0  0  0  0  0  0  0  0
 30 31  1  0
 30 28  1  0
 27 28  2  0
 27 26  1  0
 28 29  1  0
 26 23  2  0
 29 24  2  0
 23 24  1  0
 23 22  1  0
 24 25  1  0
 18 22  2  0
 18 17  1  0
 22 21  1  0
 17 16  2  0
 21 20  2  0
 16 20  1  0
 16 14  1  0
 20 19  1  0
 15 14  2  0
 14 13  1  0
 19 13  1  0
 13 12  1  0
  7  8  1  1
 12 11  1  0
 11  5  1  0
  7  9  2  0
  7  5  1  0
  7 10  2  0
  6  5  1  0
  5  2  1  1
  2  1  2  0
  2  3  1  0
  3  4  1  0
  3 32  1  0
  4 33  1  0
  6 34  1  0
  6 35  1  0
  6 36  1  0
  8 37  1  0
  8 38  1  0
  8 39  1  0
 11 40  1  0
 11 41  1  0
 12 42  1  0
 12 43  1  0
 17 44  1  0
 18 45  1  0
 19 46  1  0
 19 47  1  0
 21 48  1  0
 26 49  1  0
 27 50  1  0
 29 51  1  0
 31 52  1  0
 31 53  1  0
 31 54  1  0
M  END
