
     RDKit          3D

 19 19  0  0  0  0  0  0  0  0999 V2000
   -2.5984   -0.3242   -0.2487 C   0  0  0  0  0  0  0  0  0  0  0  0
   -1.6073    0.4568    0.1887 C   0  0  0  0  0  0  0  0  0  0  0  0
   -0.1756    0.1833    0.1130 C   0  0  0  0  0  0  0  0  0  0  0  0
    0.7221    1.2500    0.1339 C   0  0  0  0  0  0  0  0  0  0  0  0
    0.2605    2.4942    0.1918 F   0  0  0  0  0  0  0  0  0  0  0  0
    0.3804   -1.0926    0.0517 C   0  0  0  0  0  0  0  0  0  0  0  0
   -0.3978   -2.1680    0.0669 F   0  0  0  0  0  0  0  0  0  0  0  0
    2.0888    1.0688    0.0791 C   0  0  0  0  0  0  0  0  0  0  0  0
    2.9094    2.1114    0.0873 F   0  0  0  0  0  0  0  0  0  0  0  0
    1.7451   -1.2964    0.0022 C   0  0  0  0  0  0  0  0  0  0  0  0
    2.2372   -2.5278   -0.0459 F   0  0  0  0  0  0  0  0  0  0  0  0
    2.6029   -0.2124    0.0110 C   0  0  0  0  0  0  0  0  0  0  0  0
    3.9108   -0.4004   -0.0453 F   0  0  0  0  0  0  0  0  0  0  0  0
   -3.9981    0.1229   -0.0904 C   0  0  0  0  0  0  0  0  0  0  0  0
   -4.8433   -0.7538   -0.6166 O   0  0  0  0  0  0  0  0  0  0  0  0
   -4.3453    1.1486    0.4449 O   0  0  0  0  0  0  0  0  0  0  0  0
   -2.4359   -1.2685   -0.7473 H   0  0  0  0  0  0  0  0  0  0  0  0
   -1.8776    1.4051    0.6384 H   0  0  0  0  0  0  0  0  0  0  0  0
   -5.7555   -0.4455   -0.5072 H   0  0  0  0  0  0  0  0  0  0  0  0
 16 14  2  0
 14 15  1  0
 14  1  1  0
  1  2  2  0
  7  6  1  0
  2  3  1  0
  6  3  2  0
  6 10  1  0
 11 10  1  0
  3  4  1  0
 10 12  2  0
  4  5  1  0
  4  8  2  0
 12  8  1  0
 12 13  1  0
  8  9  1  0
  1 17  1  0
  2 18  1  0
 15 19  1  0
M  END
