
     RDKit          3D

 31 32  0  0  0  0  0  0  0  0999 V2000
   -4.4245    2.5538   -0.9264 Cl  0  0  0  0  0  0  0  0  0  0  0  0
   -3.6950    1.0655   -0.4302 C   0  0  0  0  0  0  0  0  0  0  0  0
   -2.3174    0.9460   -0.5217 C   0  0  0  0  0  0  0  0  0  0  0  0
   -4.5111    0.0519    0.0397 C   0  0  0  0  0  0  0  0  0  0  0  0
   -3.8922   -1.1256    0.4296 C   0  0  0  0  0  0  0  0  0  0  0  0
   -4.8647   -2.4244    1.0251 Cl  0  0  0  0  0  0  0  0  0  0  0  0
   -2.5241   -1.2937    0.3573 C   0  0  0  0  0  0  0  0  0  0  0  0
   -1.7265   -0.2522   -0.1224 C   0  0  0  0  0  0  0  0  0  0  0  0
   -0.3552   -0.4976   -0.1704 N   0  0  0  0  0  0  0  0  0  0  0  0
    0.6478    0.3229   -0.5747 C   0  0  0  0  0  0  0  0  0  0  0  0
    0.5013    1.4713   -0.9419 O   0  0  0  0  0  0  0  0  0  0  0  0
    1.9958   -0.3345   -0.5626 C   0  0  0  0  0  0  0  0  0  0  0  0
    3.0489    0.2267    0.1711 C   0  0  0  0  0  0  0  0  0  0  0  0
    2.8132    1.3954    1.0856 C   0  0  0  0  0  0  0  0  0  0  0  0
    2.1772   -1.4600   -1.3578 C   0  0  0  0  0  0  0  0  0  0  0  0
    3.4185   -2.0680   -1.4502 C   0  0  0  0  0  0  0  0  0  0  0  0
    4.4793   -1.5471   -0.7370 C   0  0  0  0  0  0  0  0  0  0  0  0
    4.2816   -0.4132    0.0387 C   0  0  0  0  0  0  0  0  0  0  0  0
    5.4609    0.1040    0.7210 N   0  0  0  0  0  0  0  0  0  0  0  0
    6.2168   -0.6971    1.2168 O   0  0  0  0  0  0  0  0  0  0  0  0
    5.6335    1.2992    0.7281 O   0  0  0  0  0  0  0  0  0  0  0  0
   -1.7308    1.7692   -0.8927 H   0  0  0  0  0  0  0  0  0  0  0  0
   -5.5831    0.1723    0.1014 H   0  0  0  0  0  0  0  0  0  0  0  0
   -2.0729   -2.2256    0.6726 H   0  0  0  0  0  0  0  0  0  0  0  0
   -0.0727   -1.4038    0.1735 H   0  0  0  0  0  0  0  0  0  0  0  0
    3.0142    2.3411    0.5835 H   0  0  0  0  0  0  0  0  0  0  0  0
    1.7818    1.4152    1.4286 H   0  0  0  0  0  0  0  0  0  0  0  0
    3.4378    1.3525    1.9746 H   0  0  0  0  0  0  0  0  0  0  0  0
    1.3451   -1.8613   -1.9224 H   0  0  0  0  0  0  0  0  0  0  0  0
    3.5569   -2.9393   -2.0741 H   0  0  0  0  0  0  0  0  0  0  0  0
    5.4557   -2.0067   -0.8003 H   0  0  0  0  0  0  0  0  0  0  0  0
 21 19  1  0
 14 13  1  0
 20 19  2  0
 19 18  1  0
 13 18  2  0
 13 12  1  0
 18 17  1  0
 12 10  1  0
 12 15  2  0
 17 16  2  0
 10 11  2  0
 10  9  1  0
  9  8  1  0
 15 16  1  0
  8  3  1  0
  8  7  2  0
  3  2  2  0
  7  5  1  0
  2  1  1  0
  2  4  1  0
  5  4  2  0
  5  6  1  0
  3 22  1  0
  4 23  1  0
  7 24  1  0
  9 25  1  0
 14 26  1  0
 14 27  1  0
 14 28  1  0
 15 29  1  0
 16 30  1  0
 17 31  1  0
M  CHG  2  19   1  21  -1
M  END
