
     RDKit          3D

 79 84  0  0  0  0  0  0  0  0999 V2000
   -0.6145   -1.2223   -2.0736 C   0  0  0  0  0  0  0  0  0  0  0  0
    0.1127   -0.1421   -1.6078 C   0  0  0  0  0  0  0  0  0  0  0  0
   -6.6217    0.0012    0.3082 C   0  0  0  0  0  0  0  0  0  0  0  0
   -6.9879   -2.2896   -0.2731 C   0  0  0  0  0  0  0  0  0  0  0  0
    4.4893   -1.1996    0.8396 C   0  0  0  0  0  0  0  0  0  0  0  0
    6.4673    0.1094    1.1228 C   0  0  0  0  0  0  0  0  0  0  0  0
   -7.9764    0.1457    0.5781 C   0  0  0  0  0  0  0  0  0  0  0  0
   -8.3368   -2.1331   -0.0186 C   0  0  0  0  0  0  0  0  0  0  0  0
   -1.9755   -1.2926   -1.8310 C   0  0  0  0  0  0  0  0  0  0  0  0
    3.7273   -0.0520    0.6897 C   0  0  0  0  0  0  0  0  0  0  0  0
    5.7177    1.2623    1.0010 C   0  0  0  0  0  0  0  0  0  0  0  0
    1.4867    6.1464    0.0557 C   0  0  0  0  0  0  0  0  0  0  0  0
   -0.5089    0.8829   -0.8956 C   0  0  0  0  0  0  0  0  0  0  0  0
    5.8638   -1.1431    1.0336 C   0  0  0  0  0  0  0  0  0  0  0  0
   -6.1109   -1.2157   -0.1278 C   0  0  0  0  0  0  0  0  0  0  0  0
   -8.8653   -0.9131    0.4155 C   0  0  0  0  0  0  0  0  0  0  0  0
   -1.8761    0.8029   -0.5924 C   0  0  0  0  0  0  0  0  0  0  0  0
    1.9559    4.0241    0.1451 C   0  0  0  0  0  0  0  0  0  0  0  0
    4.3388    1.2021    0.7687 C   0  0  0  0  0  0  0  0  0  0  0  0
   -2.5961   -0.2939   -1.0892 C   0  0  0  0  0  0  0  0  0  0  0  0
    0.6556    4.2377   -0.3088 C   0  0  0  0  0  0  0  0  0  0  0  0
    2.4126    2.7021    0.2448 C   0  0  0  0  0  0  0  0  0  0  0  0
    0.3287    2.0435   -0.5020 C   0  0  0  0  0  0  0  0  0  0  0  0
    8.1242   -1.9073   -0.6578 C   0  0  0  0  0  0  0  0  0  0  0  0
    8.6239   -3.7336    0.8430 C   0  0  0  0  0  0  0  0  0  0  0  0
    8.1318   -2.9150   -1.7982 C   0  0  0  0  0  0  0  0  0  0  0  0
    8.6072   -4.6761   -0.3479 C   0  0  0  0  0  0  0  0  0  0  0  0
   -2.5835    1.8082    0.2729 C   0  0  0  0  0  0  0  0  0  0  0  0
  -11.1291   -1.0955   -0.6034 C   0  0  0  0  0  0  0  0  0  0  0  0
  -10.7570   -1.8035    1.7750 C   0  0  0  0  0  0  0  0  0  0  0  0
  -10.7520    0.6042    1.1674 C   0  0  0  0  0  0  0  0  0  0  0  0
  -10.3588   -0.7934    0.6899 C   0  0  1  0  0  0  0  0  0  0  0  0
    2.4653    5.2731    0.3707 N   0  0  0  0  0  0  0  0  0  0  0  0
   -0.1777    3.2505   -0.6480 N   0  0  0  0  0  0  0  0  0  0  0  0
    1.5648    1.7420   -0.0782 N   0  0  0  0  0  0  0  0  0  0  0  0
    0.3859    5.5728   -0.3582 N   0  0  0  0  0  0  0  0  0  0  0  0
    7.7752   -2.5822    0.5830 N   0  0  0  0  0  0  0  0  0  0  0  0
   -3.9830   -0.3518   -0.8439 N   0  0  0  0  0  0  0  0  0  0  0  0
    6.2063   -3.2187    2.0847 O   0  0  0  0  0  0  0  0  0  0  0  0
   -4.1443   -2.5306   -0.2349 O   0  0  0  0  0  0  0  0  0  0  0  0
    8.9814   -4.0071   -1.5331 O   0  0  0  0  0  0  0  0  0  0  0  0
   -0.1261   -2.0013   -2.6436 H   0  0  0  0  0  0  0  0  0  0  0  0
    1.1726   -0.0765   -1.8138 H   0  0  0  0  0  0  0  0  0  0  0  0
   -5.9735    0.8525    0.4785 H   0  0  0  0  0  0  0  0  0  0  0  0
   -6.6148   -3.2510   -0.6004 H   0  0  0  0  0  0  0  0  0  0  0  0
    3.9900   -2.1588    0.7871 H   0  0  0  0  0  0  0  0  0  0  0  0
    7.5325    0.1962    1.2985 H   0  0  0  0  0  0  0  0  0  0  0  0
   -8.3239    1.1082    0.9258 H   0  0  0  0  0  0  0  0  0  0  0  0
   -8.9896   -2.9856   -0.1589 H   0  0  0  0  0  0  0  0  0  0  0  0
   -2.5525   -2.1149   -2.2277 H   0  0  0  0  0  0  0  0  0  0  0  0
    2.6673   -0.1353    0.5195 H   0  0  0  0  0  0  0  0  0  0  0  0
    6.2087    2.2247    1.0845 H   0  0  0  0  0  0  0  0  0  0  0  0
    1.6375    7.2108    0.1502 H   0  0  0  0  0  0  0  0  0  0  0  0
    9.1091   -1.4430   -0.5528 H   0  0  0  0  0  0  0  0  0  0  0  0
    7.4091   -1.1219   -0.8885 H   0  0  0  0  0  0  0  0  0  0  0  0
    8.2888   -4.2493    1.7389 H   0  0  0  0  0  0  0  0  0  0  0  0
    9.6427   -3.3760    1.0213 H   0  0  0  0  0  0  0  0  0  0  0  0
    7.1033   -3.2599   -1.9769 H   0  0  0  0  0  0  0  0  0  0  0  0
    8.4888   -2.4348   -2.7102 H   0  0  0  0  0  0  0  0  0  0  0  0
    9.3192   -5.4875   -0.1918 H   0  0  0  0  0  0  0  0  0  0  0  0
    7.6056   -5.1166   -0.4512 H   0  0  0  0  0  0  0  0  0  0  0  0
   -3.1227    2.5504   -0.3198 H   0  0  0  0  0  0  0  0  0  0  0  0
   -3.3090    1.3139    0.9196 H   0  0  0  0  0  0  0  0  0  0  0  0
   -1.8954    2.3546    0.9097 H   0  0  0  0  0  0  0  0  0  0  0  0
  -12.2043   -1.0199   -0.4282 H   0  0  0  0  0  0  0  0  0  0  0  0
  -10.8691   -0.3847   -1.3900 H   0  0  0  0  0  0  0  0  0  0  0  0
  -10.9261   -2.0992   -0.9795 H   0  0  0  0  0  0  0  0  0  0  0  0
  -11.8312   -1.7484    1.9628 H   0  0  0  0  0  0  0  0  0  0  0  0
  -10.5244   -2.8304    1.4902 H   0  0  0  0  0  0  0  0  0  0  0  0
  -10.2425   -1.5919    2.7141 H   0  0  0  0  0  0  0  0  0  0  0  0
  -10.2462    0.8798    2.0942 H   0  0  0  0  0  0  0  0  0  0  0  0
  -10.5333    1.3691    0.4198 H   0  0  0  0  0  0  0  0  0  0  0  0
  -11.8252    0.6348    1.3608 H   0  0  0  0  0  0  0  0  0  0  0  0
    3.3778    5.5265    0.7164 H   0  0  0  0  0  0  0  0  0  0  0  0
    4.2623    3.2220    0.8329 H   0  0  0  0  0  0  0  0  0  0  0  0
   -4.5048    0.4975   -0.9945 H   0  0  0  0  0  0  0  0  0  0  0  0
    3.6774    2.4209    0.6523 N   0  0  0  0  0  0  0  0  0  0  0  0
    6.6223   -2.4073    1.2667 C   0  0  0  0  0  0  0  0  0  0  0  0
   -4.6616   -1.4392   -0.3994 C   0  0  0  0  0  0  0  0  0  0  0  0
 12 36  2  0
 12 33  1  0
 36 21  1  0
 33 18  1  0
 18 21  2  0
 18 22  1  0
 21 34  1  0
 34 23  2  0
 32 31  1  1
 22 77  1  0
 22 35  2  0
 77 19  1  0
 30 32  1  0
 28 17  1  0
 10 19  1  0
 10  5  2  0
 23 35  1  0
 23 13  1  0
 32 16  1  0
 32 29  1  0
 19 11  2  0
  8 16  2  0
  8  4  1  0
 16  7  1  0
  4 15  2  0
  5 14  1  0
  7  3  2  0
 17 13  2  0
 17 20  1  0
 13  2  1  0
 27 25  1  0
 27 41  1  0
 15  3  1  0
 15 79  1  0
 11  6  1  0
 40 79  2  0
 79 38  1  0
 25 37  1  0
 38 20  1  0
 14  6  2  0
 14 78  1  0
 20  9  2  0
 41 26  1  0
  2  1  2  0
 37 78  1  0
 37 24  1  0
 78 39  2  0
 26 24  1  0
  9  1  1  0
  1 42  1  0
  2 43  1  0
  3 44  1  0
  4 45  1  0
  5 46  1  0
  6 47  1  0
  7 48  1  0
  8 49  1  0
  9 50  1  0
 10 51  1  0
 11 52  1  0
 12 53  1  0
 24 54  1  0
 24 55  1  0
 25 56  1  0
 25 57  1  0
 26 58  1  0
 26 59  1  0
 27 60  1  0
 27 61  1  0
 28 62  1  0
 28 63  1  0
 28 64  1  0
 29 65  1  0
 29 66  1  0
 29 67  1  0
 30 68  1  0
 30 69  1  0
 30 70  1  0
 31 71  1  0
 31 72  1  0
 31 73  1  0
 33 74  1  0
 77 75  1  0
 38 76  1  0
M  END
