
     RDKit          3D

 46 48  0  0  0  0  0  0  0  0999 V2000
    1.5554   -0.3794    0.1590 N   0  0  0  0  0  0  0  0  0  0  0  0
    0.2075   -4.2288   -0.8295 N   0  0  0  0  0  0  0  0  0  0  0  0
    5.6646    0.7140   -0.9040 N   0  0  0  0  0  0  0  0  0  0  0  0
    5.7024    0.7329    1.4733 N   0  0  0  0  0  0  0  0  0  0  0  0
   -2.9206    1.2985    0.0129 N   0  0  0  0  0  0  0  0  0  0  0  0
    7.6370    0.5560    0.2544 N   0  0  0  0  0  0  0  0  0  0  0  0
   -3.8887   -1.5082    0.1492 N   0  0  0  0  0  0  0  0  0  0  0  0
   -1.6026   -2.1600   -0.1553 C   0  0  0  0  0  0  0  0  0  0  0  0
   -0.2379   -1.9657   -0.1306 C   0  0  0  0  0  0  0  0  0  0  0  0
    0.2447   -0.6356    0.0688 C   0  0  0  0  0  0  0  0  0  0  0  0
   -0.6902    0.4144    0.1033 C   0  0  0  0  0  0  0  0  0  0  0  0
   -2.0632    0.2228    0.0326 C   0  0  0  0  0  0  0  0  0  0  0  0
   -2.5206   -1.1235   -0.0407 C   0  0  0  0  0  0  0  0  0  0  0  0
    2.1269    0.9393    0.3333 C   0  0  0  0  0  0  0  0  0  0  0  0
    3.6199    0.8588    0.3169 C   0  0  0  0  0  0  0  0  0  0  0  0
    4.3491    0.8025   -0.8649 C   0  0  0  0  0  0  0  0  0  0  0  0
    6.2975    0.6788    0.2761 C   0  0  0  0  0  0  0  0  0  0  0  0
    4.3847    0.8192    1.4742 C   0  0  0  0  0  0  0  0  0  0  0  0
   -3.8318    1.4327   -1.1199 C   0  0  0  0  0  0  0  0  0  0  0  0
   -4.9738    2.3588   -0.7582 C   0  0  0  0  0  0  0  0  0  0  0  0
   -2.4371    2.5967    0.4463 C   0  0  0  0  0  0  0  0  0  0  0  0
   -3.6265    3.4901    0.7568 C   0  0  0  0  0  0  0  0  0  0  0  0
    1.8551   -3.0590    0.1462 O   0  0  0  0  0  0  0  0  0  0  0  0
   -4.4964    3.6194   -0.3429 O   0  0  0  0  0  0  0  0  0  0  0  0
   -4.2334   -2.6136   -0.2263 O   0  0  0  0  0  0  0  0  0  0  0  0
   -4.6483   -0.7450    0.7084 O   0  0  0  0  0  0  0  0  0  0  0  0
    2.1651   -1.1846    0.2057 H   0  0  0  0  0  0  0  0  0  0  0  0
   -0.6522   -4.2446   -1.3494 H   0  0  0  0  0  0  0  0  0  0  0  0
    0.8196   -5.0198   -0.9491 H   0  0  0  0  0  0  0  0  0  0  0  0
    8.1230    0.7031   -0.6131 H   0  0  0  0  0  0  0  0  0  0  0  0
    8.1530    0.7208    1.1011 H   0  0  0  0  0  0  0  0  0  0  0  0
   -1.9898   -3.1675   -0.2067 H   0  0  0  0  0  0  0  0  0  0  0  0
   -0.3180    1.4266    0.1409 H   0  0  0  0  0  0  0  0  0  0  0  0
    1.7870    1.6008   -0.4693 H   0  0  0  0  0  0  0  0  0  0  0  0
    1.7888    1.3869    1.2746 H   0  0  0  0  0  0  0  0  0  0  0  0
    3.8392    0.8381   -1.8240 H   0  0  0  0  0  0  0  0  0  0  0  0
    3.9047    0.8674    2.4479 H   0  0  0  0  0  0  0  0  0  0  0  0
   -3.2841    1.8434   -1.9798 H   0  0  0  0  0  0  0  0  0  0  0  0
   -4.2329    0.4737   -1.4367 H   0  0  0  0  0  0  0  0  0  0  0  0
   -5.6068    2.5201   -1.6319 H   0  0  0  0  0  0  0  0  0  0  0  0
   -5.5847    1.8956    0.0275 H   0  0  0  0  0  0  0  0  0  0  0  0
   -1.8505    2.4879    1.3597 H   0  0  0  0  0  0  0  0  0  0  0  0
   -1.7961    3.0736   -0.3099 H   0  0  0  0  0  0  0  0  0  0  0  0
   -4.1604    3.0834    1.6267 H   0  0  0  0  0  0  0  0  0  0  0  0
   -3.2723    4.4888    1.0156 H   0  0  0  0  0  0  0  0  0  0  0  0
    0.6928   -3.1154   -0.2580 C   0  0  0  0  0  0  0  0  0  0  0  0
  1 10  1  0
  1 14  1  0
  1 27  1  0
  2 46  1  0
  2 28  1  0
  2 29  1  0
  3 16  2  0
  3 17  1  0
  4 17  2  0
  4 18  1  0
  5 12  1  0
  5 19  1  0
  5 21  1  0
  6 17  1  0
  6 30  1  0
  6 31  1  0
  7 13  1  0
  7 25  2  0
  7 26  1  0
  8  9  2  0
  8 13  1  0
  8 32  1  0
  9 10  1  0
  9 46  1  0
 10 11  2  0
 11 12  1  0
 11 33  1  0
 12 13  2  0
 46 23  2  0
 14 15  1  0
 14 34  1  0
 14 35  1  0
 15 16  1  0
 15 18  2  0
 16 36  1  0
 18 37  1  0
 19 20  1  0
 19 38  1  0
 19 39  1  0
 20 24  1  0
 20 40  1  0
 20 41  1  0
 21 22  1  0
 21 42  1  0
 21 43  1  0
 22 24  1  0
 22 44  1  0
 22 45  1  0
M  CHG  2   7   1  26  -1
M  END
