
     RDKit          3D

 36 39  0  0  0  0  0  0  0  0999 V2000
    4.8856    1.6099    0.2027 C   0  0  1  0  0  0  0  0  0  0  0  0
    3.2117   -0.0251    0.2581 N   0  0  0  0  0  0  0  0  0  0  0  0
    6.2633    1.6976   -0.0779 O   0  0  0  0  0  0  0  0  0  0  0  0
   -3.0491   -2.1107   -0.3003 S   0  0  0  0  0  0  0  0  0  0  0  0
   -2.8017    4.0423    0.5235 Cl  0  0  0  0  0  0  0  0  0  0  0  0
    3.9562    1.7794   -1.0217 C   0  0  0  0  0  0  0  0  0  0  0  0
    0.4840   -0.5221    0.2967 N   0  0  0  0  0  0  0  0  0  0  0  0
   -0.7834   -4.3467   -0.3650 O   0  0  0  0  0  0  0  0  0  0  0  0
    3.1872    0.4628   -1.1118 C   0  0  0  0  0  0  0  0  0  0  0  0
    0.8590   -2.8016    0.0002 N   0  0  0  0  0  0  0  0  0  0  0  0
    2.7687   -1.3747    0.4280 C   0  0  0  0  0  0  0  0  0  0  0  0
    1.2863   -1.5313    0.2274 C   0  0  0  0  0  0  0  0  0  0  0  0
   -0.8328   -0.7947    0.1194 C   0  0  0  0  0  0  0  0  0  0  0  0
   -1.8770    0.1937    0.1348 C   0  0  0  0  0  0  0  0  0  0  0  0
   -1.7576    1.5704    0.3258 C   0  0  0  0  0  0  0  0  0  0  0  0
   -2.9061    2.3287    0.2939 C   0  0  0  0  0  0  0  0  0  0  0  0
   -4.1649    1.7553    0.0789 C   0  0  0  0  0  0  0  0  0  0  0  0
   -4.2863    0.3939   -0.1107 C   0  0  0  0  0  0  0  0  0  0  0  0
   -3.1344   -0.3871   -0.0822 C   0  0  0  0  0  0  0  0  0  0  0  0
   -1.3332   -2.0543   -0.1038 C   0  0  0  0  0  0  0  0  0  0  0  0
   -0.4616   -3.1876   -0.1735 C   0  0  0  0  0  0  0  0  0  0  0  0
    4.5711    0.2022    0.7070 C   0  0  0  0  0  0  0  0  0  0  0  0
    4.6080    2.3421    0.9696 H   0  0  0  0  0  0  0  0  0  0  0  0
    6.4692    2.6138   -0.2855 H   0  0  0  0  0  0  0  0  0  0  0  0
    3.2733    2.6166   -0.8741 H   0  0  0  0  0  0  0  0  0  0  0  0
    4.5263    1.9765   -1.9300 H   0  0  0  0  0  0  0  0  0  0  0  0
    3.6966   -0.2378   -1.7945 H   0  0  0  0  0  0  0  0  0  0  0  0
    2.1646    0.5884   -1.4676 H   0  0  0  0  0  0  0  0  0  0  0  0
    1.5523   -3.5391   -0.0507 H   0  0  0  0  0  0  0  0  0  0  0  0
    3.2924   -2.0847   -0.2359 H   0  0  0  0  0  0  0  0  0  0  0  0
    2.9886   -1.7019    1.4504 H   0  0  0  0  0  0  0  0  0  0  0  0
   -0.7862    2.0166    0.4929 H   0  0  0  0  0  0  0  0  0  0  0  0
   -5.0470    2.3804    0.0600 H   0  0  0  0  0  0  0  0  0  0  0  0
   -5.2598   -0.0458   -0.2801 H   0  0  0  0  0  0  0  0  0  0  0  0
    5.2846   -0.5049    0.2491 H   0  0  0  0  0  0  0  0  0  0  0  0
    4.6515    0.1025    1.7917 H   0  0  0  0  0  0  0  0  0  0  0  0
 22  1  1  0
  3  1  1  0
  1  6  1  0
  1 23  1  1
 11  2  1  0
 22  2  1  0
  2  9  1  0
  3 24  1  0
  4 19  1  0
  4 20  1  0
 16  5  1  0
  9  6  1  0
  6 25  1  0
  6 26  1  0
 13  7  1  0
 12  7  2  0
  8 21  2  0
  9 27  1  0
  9 28  1  0
 21 10  1  0
 10 12  1  0
 10 29  1  0
 12 11  1  0
 11 30  1  0
 11 31  1  0
 20 13  2  0
 14 13  1  0
 19 14  2  0
 14 15  1  0
 16 15  2  0
 15 32  1  0
 17 16  1  0
 18 17  2  0
 17 33  1  0
 18 19  1  0
 18 34  1  0
 21 20  1  0
 22 35  1  0
 22 36  1  0
M  END
