
     RDKit          3D

 60 65  0  0  0  0  0  0  0  0999 V2000
    3.8332   -1.5334   -0.6385 N   0  0  0  0  0  0  0  0  0  0  0  0
    3.4143   -0.2950   -0.2204 C   0  0  0  0  0  0  0  0  0  0  0  0
    2.1895   -0.3163    0.2420 N   0  0  0  0  0  0  0  0  0  0  0  0
    1.7762   -1.6175    0.1326 C   0  0  0  0  0  0  0  0  0  0  0  0
    0.5819   -2.3075    0.4569 C   0  0  0  0  0  0  0  0  0  0  0  0
    0.5494   -3.6198    0.1806 N   0  0  0  0  0  0  0  0  0  0  0  0
    1.6016   -4.2220   -0.3556 C   0  0  0  0  0  0  0  0  0  0  0  0
    2.7623   -3.6892   -0.6916 N   0  0  0  0  0  0  0  0  0  0  0  0
    2.7930   -2.3863   -0.4262 C   0  0  0  0  0  0  0  0  0  0  0  0
    5.1278   -1.9211   -1.1518 C   0  0  0  0  0  0  0  0  0  0  0  0
    4.2415    0.8892   -0.2830 C   0  0  0  0  0  0  0  0  0  0  0  0
   -0.5003   -1.7572    1.0385 N   0  0  0  0  0  0  0  0  0  0  0  0
   -0.6629   -0.3342    1.2763 C   0  0  0  0  0  0  0  0  0  0  0  0
   -1.7123    0.2525    0.3369 C   0  0  0  0  0  0  0  0  0  0  0  0
   -3.0249   -0.5123    0.4876 C   0  0  2  0  0  0  0  0  0  0  0  0
   -2.8207   -2.0141    0.3031 C   0  0  0  0  0  0  0  0  0  0  0  0
   -1.7266   -2.5080    1.2439 C   0  0  0  0  0  0  0  0  0  0  0  0
   -4.0843    0.0145   -0.3593 N   0  0  0  0  0  0  0  0  0  0  0  0
   -4.0677    0.0336   -1.7395 C   0  0  0  0  0  0  0  0  0  0  0  0
   -5.2583    0.6043   -2.1257 N   0  0  0  0  0  0  0  0  0  0  0  0
   -6.0138    0.9344   -1.0317 C   0  0  0  0  0  0  0  0  0  0  0  0
   -7.1975    1.4905   -1.0184 N   0  0  0  0  0  0  0  0  0  0  0  0
   -7.7129    1.7051    0.1990 C   0  0  0  0  0  0  0  0  0  0  0  0
   -7.0656    1.3737    1.3779 C   0  0  0  0  0  0  0  0  0  0  0  0
   -5.8001    0.7814    1.3438 C   0  0  0  0  0  0  0  0  0  0  0  0
   -5.2670    0.5594    0.0954 C   0  0  0  0  0  0  0  0  0  0  0  0
   -3.1842   -0.3692   -2.4712 O   0  0  0  0  0  0  0  0  0  0  0  0
    4.1607    1.9952    0.5563 C   0  0  0  0  0  0  0  0  0  0  0  0
    5.0738    2.8690    0.0986 N   0  0  0  0  0  0  0  0  0  0  0  0
    5.7465    2.4167   -0.9611 N   0  0  0  0  0  0  0  0  0  0  0  0
    5.2551    1.2236   -1.2056 C   0  0  0  0  0  0  0  0  0  0  0  0
    3.2997    2.2679    1.7360 C   0  0  0  0  0  0  0  0  0  0  0  0
    5.4371    4.1487    0.6764 C   0  0  0  0  0  0  0  0  0  0  0  0
    6.5981    4.0350    1.6496 C   0  0  0  0  0  0  0  0  0  0  0  0
    1.4881   -5.2852   -0.5404 H   0  0  0  0  0  0  0  0  0  0  0  0
    5.2327   -1.6620   -2.2039 H   0  0  0  0  0  0  0  0  0  0  0  0
    5.9193   -1.4401   -0.5820 H   0  0  0  0  0  0  0  0  0  0  0  0
    5.2299   -2.9978   -1.0489 H   0  0  0  0  0  0  0  0  0  0  0  0
   -0.9815   -0.1995    2.3156 H   0  0  0  0  0  0  0  0  0  0  0  0
    0.2820    0.1849    1.1559 H   0  0  0  0  0  0  0  0  0  0  0  0
   -1.8650    1.3055    0.5827 H   0  0  0  0  0  0  0  0  0  0  0  0
   -1.3507    0.1997   -0.6912 H   0  0  0  0  0  0  0  0  0  0  0  0
   -3.3723   -0.3545    1.5129 H   0  0  0  0  0  0  0  0  0  0  0  0
   -3.7502   -2.5454    0.5184 H   0  0  0  0  0  0  0  0  0  0  0  0
   -2.5398   -2.2370   -0.7275 H   0  0  0  0  0  0  0  0  0  0  0  0
   -1.5383   -3.5653    1.0893 H   0  0  0  0  0  0  0  0  0  0  0  0
   -2.0385   -2.3745    2.2852 H   0  0  0  0  0  0  0  0  0  0  0  0
   -5.5260    0.7330   -3.0893 H   0  0  0  0  0  0  0  0  0  0  0  0
   -8.6922    2.1666    0.2279 H   0  0  0  0  0  0  0  0  0  0  0  0
   -7.5440    1.5751    2.3258 H   0  0  0  0  0  0  0  0  0  0  0  0
   -5.2843    0.5198    2.2577 H   0  0  0  0  0  0  0  0  0  0  0  0
    5.6184    0.6536   -2.0467 H   0  0  0  0  0  0  0  0  0  0  0  0
    3.8706    2.6854    2.5652 H   0  0  0  0  0  0  0  0  0  0  0  0
    2.5061    2.9765    1.4918 H   0  0  0  0  0  0  0  0  0  0  0  0
    2.8249    1.3518    2.0747 H   0  0  0  0  0  0  0  0  0  0  0  0
    5.6874    4.8135   -0.1488 H   0  0  0  0  0  0  0  0  0  0  0  0
    4.5572    4.5626    1.1664 H   0  0  0  0  0  0  0  0  0  0  0  0
    7.4806    3.6266    1.1584 H   0  0  0  0  0  0  0  0  0  0  0  0
    6.8514    5.0210    2.0373 H   0  0  0  0  0  0  0  0  0  0  0  0
    6.3486    3.3943    2.4955 H   0  0  0  0  0  0  0  0  0  0  0  0
 34 33  1  0
 33 29  1  0
 30 29  1  0
 30 31  2  0
 29 28  1  0
 31 11  1  0
 28 11  2  0
 28 32  1  0
 11  2  1  0
  2  1  1  0
  2  3  2  0
 10  1  1  0
  1  9  1  0
  3  4  1  0
  4  9  2  0
  4  5  1  0
  9  8  1  0
 13 14  1  0
 13 12  1  0
 14 15  1  0
  8  7  2  0
  5 12  1  0
  5  6  2  0
 12 17  1  0
 27 19  2  0
 15 18  1  0
 15 16  1  0
 19 18  1  0
 19 20  1  0
 18 26  1  0
  7  6  1  0
 20 21  1  0
 26 25  2  0
 26 21  1  0
 25 24  1  0
 21 22  2  0
 17 16  1  0
 22 23  1  0
 24 23  2  0
  7 35  1  0
 10 36  1  0
 10 37  1  0
 10 38  1  0
 13 39  1  0
 13 40  1  0
 14 41  1  0
 14 42  1  0
 15 43  1  1
 16 44  1  0
 16 45  1  0
 17 46  1  0
 17 47  1  0
 20 48  1  0
 23 49  1  0
 24 50  1  0
 25 51  1  0
 31 52  1  0
 32 53  1  0
 32 54  1  0
 32 55  1  0
 33 56  1  0
 33 57  1  0
 34 58  1  0
 34 59  1  0
 34 60  1  0
M  END
