
     RDKit          3D

 55 57  0  0  0  0  0  0  0  0999 V2000
    3.3257   -0.6476   -1.4449 C   0  0  0  0  0  0  0  0  0  0  0  0
    4.6267   -0.4049   -1.3269 N   0  0  0  0  0  0  0  0  0  0  0  0
    5.1854   -0.6711   -0.1474 C   0  0  0  0  0  0  0  0  0  0  0  0
    4.5669   -1.1638    0.9239 N   0  0  0  0  0  0  0  0  0  0  0  0
    3.2606   -1.4092    0.8005 C   0  0  0  0  0  0  0  0  0  0  0  0
    2.5662   -1.1711   -0.3735 C   0  0  0  0  0  0  0  0  0  0  0  0
    2.7498   -0.3479   -2.6250 N   0  0  0  0  0  0  0  0  0  0  0  0
    6.5018   -0.3834   -0.0197 N   0  0  0  0  0  0  0  0  0  0  0  0
    2.5691   -1.9091    2.0357 C   0  0  0  0  0  0  0  0  0  0  0  0
    2.2101   -0.7525    2.9683 C   0  0  0  0  0  0  0  0  0  0  0  0
    0.6480   -2.6979   -0.8724 C   0  0  0  0  0  0  0  0  0  0  0  0
   -0.7128   -2.9275   -0.9725 C   0  0  0  0  0  0  0  0  0  0  0  0
   -1.6206   -1.8935   -0.7813 C   0  0  0  0  0  0  0  0  0  0  0  0
   -1.1668   -0.6048   -0.4827 C   0  0  0  0  0  0  0  0  0  0  0  0
    0.2042   -0.4026   -0.3350 C   0  0  0  0  0  0  0  0  0  0  0  0
    1.1182   -1.4325   -0.5296 C   0  0  0  0  0  0  0  0  0  0  0  0
   -3.3400   -2.1886   -0.9095 S   0  0  0  0  0  0  0  0  0  0  0  0
   -3.8697   -1.0468    0.4127 C   0  0  1  0  0  0  0  0  0  0  0  0
   -3.3772    0.3407    0.0199 C   0  0  0  0  0  0  0  0  0  0  0  0
   -2.0675    0.4687   -0.3655 N   0  0  0  0  0  0  0  0  0  0  0  0
   -1.5984    1.8173   -0.6776 C   0  0  0  0  0  0  0  0  0  0  0  0
   -1.2038    2.6121    0.5673 C   0  0  0  0  0  0  0  0  0  0  0  0
   -0.6270    3.8867    0.2183 N   0  0  0  0  0  0  0  0  0  0  0  0
   -1.3566    4.9961   -0.0021 C   0  0  0  0  0  0  0  0  0  0  0  0
   -0.5684    6.2285   -0.3692 C   0  0  0  0  0  0  0  0  0  0  0  0
   -5.3915   -1.0930    0.4326 C   0  0  0  0  0  0  0  0  0  0  0  0
   -3.3079   -1.4524    1.7731 C   0  0  0  0  0  0  0  0  0  0  0  0
   -4.1113    1.3072    0.0733 O   0  0  0  0  0  0  0  0  0  0  0  0
   -2.5753    5.0165    0.0999 O   0  0  0  0  0  0  0  0  0  0  0  0
    3.3455   -0.1391   -3.4082 H   0  0  0  0  0  0  0  0  0  0  0  0
    1.8270   -0.6837   -2.8386 H   0  0  0  0  0  0  0  0  0  0  0  0
    6.9975   -0.7810    0.7594 H   0  0  0  0  0  0  0  0  0  0  0  0
    7.0367   -0.2296   -0.8569 H   0  0  0  0  0  0  0  0  0  0  0  0
    3.2361   -2.6010    2.5532 H   0  0  0  0  0  0  0  0  0  0  0  0
    1.6659   -2.4605    1.7736 H   0  0  0  0  0  0  0  0  0  0  0  0
    1.5215   -0.0565    2.4870 H   0  0  0  0  0  0  0  0  0  0  0  0
    1.7293   -1.1222    3.8739 H   0  0  0  0  0  0  0  0  0  0  0  0
    3.1001   -0.1961    3.2628 H   0  0  0  0  0  0  0  0  0  0  0  0
   -1.0798   -3.9205   -1.1988 H   0  0  0  0  0  0  0  0  0  0  0  0
    0.5892    0.5691   -0.0558 H   0  0  0  0  0  0  0  0  0  0  0  0
   -0.7531    1.7341   -1.3597 H   0  0  0  0  0  0  0  0  0  0  0  0
   -2.3855    2.3469   -1.2122 H   0  0  0  0  0  0  0  0  0  0  0  0
   -2.0755    2.7704    1.2007 H   0  0  0  0  0  0  0  0  0  0  0  0
   -0.4712    2.0647    1.1625 H   0  0  0  0  0  0  0  0  0  0  0  0
    0.3690    3.9270    0.0807 H   0  0  0  0  0  0  0  0  0  0  0  0
    0.5026    6.0564   -0.4567 H   0  0  0  0  0  0  0  0  0  0  0  0
   -0.9349    6.6247   -1.3159 H   0  0  0  0  0  0  0  0  0  0  0  0
   -0.7312    6.9960    0.3876 H   0  0  0  0  0  0  0  0  0  0  0  0
   -5.7252   -2.1053    0.6629 H   0  0  0  0  0  0  0  0  0  0  0  0
   -5.7809   -0.4322    1.2054 H   0  0  0  0  0  0  0  0  0  0  0  0
   -5.8265   -0.7994   -0.5221 H   0  0  0  0  0  0  0  0  0  0  0  0
   -2.2192   -1.4670    1.8012 H   0  0  0  0  0  0  0  0  0  0  0  0
   -3.6555   -0.7528    2.5356 H   0  0  0  0  0  0  0  0  0  0  0  0
   -3.6657   -2.4471    2.0372 H   0  0  0  0  0  0  0  0  0  0  0  0
    1.3463   -3.5094   -1.0310 H   0  0  0  0  0  0  0  0  0  0  0  0
  1  2  2  0
  1  6  1  0
  1  7  1  0
  2  3  1  0
  3  4  2  0
  3  8  1  0
  4  5  1  0
  5  6  2  0
  5  9  1  0
  6 16  1  0
  7 30  1  0
  7 31  1  0
  8 32  1  0
  8 33  1  0
  9 10  1  0
  9 34  1  0
  9 35  1  0
 10 36  1  0
 10 37  1  0
 10 38  1  0
 11 12  2  0
 11 16  1  0
 11 55  1  0
 12 13  1  0
 12 39  1  0
 13 14  2  0
 13 17  1  0
 14 15  1  0
 14 20  1  0
 15 16  2  0
 15 40  1  0
 17 18  1  0
 18 19  1  0
 18 26  1  1
 18 27  1  0
 19 20  1  0
 19 28  2  0
 20 21  1  0
 21 22  1  0
 21 41  1  0
 21 42  1  0
 22 23  1  0
 22 43  1  0
 22 44  1  0
 23 24  1  0
 23 45  1  0
 24 25  1  0
 24 29  2  0
 25 46  1  0
 25 47  1  0
 25 48  1  0
 26 49  1  0
 26 50  1  0
 26 51  1  0
 27 52  1  0
 27 53  1  0
 27 54  1  0
M  END
