
     RDKit          3D

 46 47  0  0  0  0  0  0  0  0999 V2000
   -1.4643    1.3016   -0.4321 C   0  0  0  0  0  0  0  0  0  0  0  0
   -1.4890   -0.1790   -0.0632 C   0  0  1  0  0  0  0  0  0  0  0  0
   -1.6233   -0.3276    1.4557 C   0  0  0  0  0  0  0  0  0  0  0  0
   -2.6620   -0.8843   -0.7838 C   0  0  0  0  0  0  0  0  0  0  0  0
   -4.0434   -0.4084   -0.4340 C   0  0  0  0  0  0  0  0  0  0  0  0
   -4.6641    0.6077   -1.1561 C   0  0  0  0  0  0  0  0  0  0  0  0
   -5.9400    1.0545   -0.8420 C   0  0  0  0  0  0  0  0  0  0  0  0
   -6.6362    0.4787    0.2165 C   0  0  0  0  0  0  0  0  0  0  0  0
   -6.0389   -0.5463    0.9461 C   0  0  0  0  0  0  0  0  0  0  0  0
   -4.7641   -0.9770    0.6159 C   0  0  0  0  0  0  0  0  0  0  0  0
    0.9897   -0.4264   -0.0512 C   0  0  0  0  0  0  0  0  0  0  0  0
    2.1319   -1.1411   -0.7710 C   0  0  1  0  0  0  0  0  0  0  0  0
    3.4664   -0.6464   -0.2619 C   0  0  0  0  0  0  0  0  0  0  0  0
    3.9667   -1.0510    0.9691 C   0  0  0  0  0  0  0  0  0  0  0  0
    5.1792   -0.5602    1.4367 C   0  0  0  0  0  0  0  0  0  0  0  0
    5.9144    0.3430    0.6856 C   0  0  0  0  0  0  0  0  0  0  0  0
    5.4170    0.7560   -0.5564 C   0  0  0  0  0  0  0  0  0  0  0  0
    4.2072    0.2601   -1.0158 C   0  0  0  0  0  0  0  0  0  0  0  0
   -0.2883   -0.8357   -0.5933 N   0  0  0  0  0  0  0  0  0  0  0  0
   -7.8807    0.8647    0.5697 O   0  0  0  0  0  0  0  0  0  0  0  0
    2.0074   -2.5471   -0.6928 O   0  0  0  0  0  0  0  0  0  0  0  0
    7.0912    0.7971    1.1684 O   0  0  0  0  0  0  0  0  0  0  0  0
    6.1830    1.6344   -1.2438 O   0  0  0  0  0  0  0  0  0  0  0  0
   -1.3308    1.4328   -1.5072 H   0  0  0  0  0  0  0  0  0  0  0  0
   -2.3965    1.7864   -0.1421 H   0  0  0  0  0  0  0  0  0  0  0  0
   -0.6591    1.8329    0.0774 H   0  0  0  0  0  0  0  0  0  0  0  0
   -2.5307    0.1510    1.8257 H   0  0  0  0  0  0  0  0  0  0  0  0
   -1.6566   -1.3800    1.7488 H   0  0  0  0  0  0  0  0  0  0  0  0
   -0.7813    0.1334    1.9746 H   0  0  0  0  0  0  0  0  0  0  0  0
   -2.4998   -0.7752   -1.8595 H   0  0  0  0  0  0  0  0  0  0  0  0
   -2.5898   -1.9559   -0.5671 H   0  0  0  0  0  0  0  0  0  0  0  0
   -4.1438    1.0635   -1.9905 H   0  0  0  0  0  0  0  0  0  0  0  0
   -6.3926    1.8466   -1.4286 H   0  0  0  0  0  0  0  0  0  0  0  0
   -6.5782   -1.0077    1.7643 H   0  0  0  0  0  0  0  0  0  0  0  0
   -4.3222   -1.7821    1.1916 H   0  0  0  0  0  0  0  0  0  0  0  0
    1.0963   -0.5975    1.0330 H   0  0  0  0  0  0  0  0  0  0  0  0
    1.1251    0.6467   -0.2028 H   0  0  0  0  0  0  0  0  0  0  0  0
    2.0537   -0.9044   -1.8361 H   0  0  0  0  0  0  0  0  0  0  0  0
    3.4237   -1.7510    1.5931 H   0  0  0  0  0  0  0  0  0  0  0  0
    5.5635   -0.8801    2.3975 H   0  0  0  0  0  0  0  0  0  0  0  0
    3.8360    0.5830   -1.9836 H   0  0  0  0  0  0  0  0  0  0  0  0
   -0.3866   -1.8360   -0.4587 H   0  0  0  0  0  0  0  0  0  0  0  0
   -8.1892    1.5694   -0.0102 H   0  0  0  0  0  0  0  0  0  0  0  0
    1.9854   -2.8111    0.2332 H   0  0  0  0  0  0  0  0  0  0  0  0
    7.4841    1.4342    0.5607 H   0  0  0  0  0  0  0  0  0  0  0  0
    5.7697    1.8698   -2.0814 H   0  0  0  0  0  0  0  0  0  0  0  0
 20  8  1  0
  8  7  1  0
  8  9  2  0
  7  6  2  0
  9 10  1  0
  6  5  1  0
 10  5  2  0
  5  4  1  0
  3  2  1  0
  4  2  1  0
  1  2  1  0
  2 19  1  6
 19 11  1  0
 11 12  1  0
 23 17  1  0
 18 17  2  0
 18 13  1  0
 12 13  1  0
 12 21  1  0
 17 16  1  0
 13 14  2  0
 16 22  1  0
 16 15  2  0
 14 15  1  0
  1 24  1  0
  1 25  1  0
  1 26  1  0
  3 27  1  0
  3 28  1  0
  3 29  1  0
  4 30  1  0
  4 31  1  0
  6 32  1  0
  7 33  1  0
  9 34  1  0
 10 35  1  0
 11 36  1  0
 11 37  1  0
 12 38  1  6
 14 39  1  0
 15 40  1  0
 18 41  1  0
 19 42  1  0
 20 43  1  0
 21 44  1  0
 22 45  1  0
 23 46  1  0
M  END
