
     RDKit          3D

 23 22  0  0  0  0  0  0  0  0999 V2000
    2.9438   -0.5469   -0.2323 C   0  0  0  0  0  0  0  0  0  0  0  0
    1.5885   -1.0384    0.1927 C   0  0  0  0  0  0  0  0  0  0  0  0
    0.4631   -0.1132   -0.2456 C   0  0  1  0  0  0  0  0  0  0  0  0
   -0.8851   -0.6830    0.2213 C   0  0  0  0  0  0  0  0  0  0  0  0
   -2.0830    0.0787   -0.3237 C   0  0  0  0  0  0  0  0  0  0  0  0
   -3.3948   -0.5791    0.0061 C   0  0  0  0  0  0  0  0  0  0  0  0
    0.6629    1.2684    0.3347 C   0  0  0  0  0  0  0  0  0  0  0  0
    3.1432    0.4961   -0.8054 O   0  0  0  0  0  0  0  0  0  0  0  0
    3.9073   -1.3960    0.0968 O   0  0  0  0  0  0  0  0  0  0  0  0
   -3.5251   -1.5889    0.6518 O   0  0  0  0  0  0  0  0  0  0  0  0
   -4.4217    0.0921   -0.5055 O   0  0  0  0  0  0  0  0  0  0  0  0
    0.3283    2.2363   -0.5076 O   0  0  0  0  0  0  0  0  0  0  0  0
    1.0335    1.4738    1.4645 O   0  0  0  0  0  0  0  0  0  0  0  0
    1.4299   -2.0342   -0.2294 H   0  0  0  0  0  0  0  0  0  0  0  0
    1.5865   -1.1711    1.2780 H   0  0  0  0  0  0  0  0  0  0  0  0
    0.4528   -0.0476   -1.3362 H   0  0  0  0  0  0  0  0  0  0  0  0
   -0.9359   -1.7212   -0.1125 H   0  0  0  0  0  0  0  0  0  0  0  0
   -0.9126   -0.7075    1.3130 H   0  0  0  0  0  0  0  0  0  0  0  0
   -2.1234    1.1030    0.0571 H   0  0  0  0  0  0  0  0  0  0  0  0
   -2.0139    0.1731   -1.4116 H   0  0  0  0  0  0  0  0  0  0  0  0
    4.7677   -1.0518   -0.1868 H   0  0  0  0  0  0  0  0  0  0  0  0
   -5.2524   -0.3531   -0.2811 H   0  0  0  0  0  0  0  0  0  0  0  0
    0.4172    3.0981   -0.0725 H   0  0  0  0  0  0  0  0  0  0  0  0
  1  2  1  0
  1  8  2  0
  1  9  1  0
  2  3  1  0
  3  4  1  0
  3  7  1  0
  4  5  1  0
  5  6  1  0
  6 10  2  0
  6 11  1  0
  7 12  1  0
  7 13  2  0
  2 14  1  0
  2 15  1  0
  3 16  1  6
  4 17  1  0
  4 18  1  0
  5 19  1  0
  5 20  1  0
  9 21  1  0
 11 22  1  0
 12 23  1  0
M  END
