
     RDKit          3D

 30 30  0  0  0  0  0  0  0  0999 V2000
   -0.9348   -1.3845    0.7538 C   0  0  0  0  0  0  0  0  0  0  0  0
   -0.2595    0.9968    0.5936 C   0  0  0  0  0  0  0  0  0  0  0  0
   -1.2395    0.0318    0.3610 C   0  0  0  0  0  0  0  0  0  0  0  0
   -1.7702    2.6888   -0.2586 C   0  0  0  0  0  0  0  0  0  0  0  0
   -2.4797    0.3943   -0.1775 C   0  0  0  0  0  0  0  0  0  0  0  0
    4.3638    0.1411   -1.7192 O   0  0  0  0  0  0  0  0  0  0  0  0
    5.7682   -0.1485   -0.0125 O   0  0  0  0  0  0  0  0  0  0  0  0
    4.5630    0.0652   -0.5324 C   0  0  0  0  0  0  0  0  0  0  0  0
    3.5100    0.1879    0.5335 C   0  0  0  0  0  0  0  0  0  0  0  0
    2.1331    0.5296   -0.0098 C   0  0  0  0  0  0  0  0  0  0  0  0
   -0.5467    2.3228    0.2735 C   0  0  0  0  0  0  0  0  0  0  0  0
   -2.7389    1.7260   -0.4855 C   0  0  0  0  0  0  0  0  0  0  0  0
   -0.3590   -2.0521   -0.2314 O   0  0  0  0  0  0  0  0  0  0  0  0
   -1.1056   -1.8153    1.8644 O   0  0  0  0  0  0  0  0  0  0  0  0
   -3.4988   -0.6579   -0.4147 C   0  0  0  0  0  0  0  0  0  0  0  0
   -3.3114   -1.8281   -0.1811 O   0  0  0  0  0  0  0  0  0  0  0  0
   -4.6313   -0.1869   -0.9087 O   0  0  0  0  0  0  0  0  0  0  0  0
   -1.9726    3.7245   -0.4950 H   0  0  0  0  0  0  0  0  0  0  0  0
    6.4233   -0.2361   -0.7209 H   0  0  0  0  0  0  0  0  0  0  0  0
    3.4816   -0.7572    1.0864 H   0  0  0  0  0  0  0  0  0  0  0  0
    3.8370    0.9390    1.2588 H   0  0  0  0  0  0  0  0  0  0  0  0
    2.1736    1.4672   -0.5693 H   0  0  0  0  0  0  0  0  0  0  0  0
    1.8054   -0.2391   -0.7116 H   0  0  0  0  0  0  0  0  0  0  0  0
    1.4265    1.4560    1.8011 H   0  0  0  0  0  0  0  0  0  0  0  0
    1.0991   -0.2505    1.7193 H   0  0  0  0  0  0  0  0  0  0  0  0
    0.2079    3.0801    0.4504 H   0  0  0  0  0  0  0  0  0  0  0  0
   -3.6922    2.0204   -0.8999 H   0  0  0  0  0  0  0  0  0  0  0  0
   -0.1348   -2.9509    0.0577 H   0  0  0  0  0  0  0  0  0  0  0  0
   -5.2593   -0.9111   -1.0506 H   0  0  0  0  0  0  0  0  0  0  0  0
    1.1104    0.6621    1.1201 C   0  0  0  0  0  0  0  0  0  0  0  0
  6  8  2  0
  8  7  1  0
  8  9  1  0
  4 11  1  0
  4 12  2  0
 11  2  2  0
 10  9  1  0
 10 30  1  0
 12  5  1  0
  2 30  1  0
  2  3  1  0
 16 15  2  0
  5  3  2  0
  5 15  1  0
  3  1  1  0
 15 17  1  0
 14  1  2  0
  1 13  1  0
  4 18  1  0
  7 19  1  0
  9 20  1  0
  9 21  1  0
 10 22  1  0
 10 23  1  0
 30 24  1  0
 30 25  1  0
 11 26  1  0
 12 27  1  0
 13 28  1  0
 17 29  1  0
M  END
