
     RDKit          3D

 52 54  0  0  0  0  0  0  0  0999 V2000
    7.6122    0.1078   -2.0189 C   0  0  0  0  0  0  0  0  0  0  0  0
    6.9622    0.4980   -0.8257 O   0  0  0  0  0  0  0  0  0  0  0  0
    5.6511    0.2344   -0.7018 C   0  0  0  0  0  0  0  0  0  0  0  0
    4.8712   -0.4059   -1.6514 C   0  0  0  0  0  0  0  0  0  0  0  0
    3.5184   -0.6315   -1.4245 C   0  0  0  0  0  0  0  0  0  0  0  0
    2.9221   -0.2214   -0.2413 C   0  0  0  0  0  0  0  0  0  0  0  0
    3.7066    0.4286    0.7229 C   0  0  0  0  0  0  0  0  0  0  0  0
    5.0525    0.6577    0.5039 C   0  0  0  0  0  0  0  0  0  0  0  0
    5.8757    1.2714    1.3723 O   0  0  0  0  0  0  0  0  0  0  0  0
    5.3411    1.7163    2.6024 C   0  0  0  0  0  0  0  0  0  0  0  0
    1.5091   -0.4729   -0.0114 C   0  0  0  0  0  0  0  0  0  0  0  0
    0.5503   -1.1125   -0.7318 C   0  0  0  0  0  0  0  0  0  0  0  0
   -0.6464   -1.0506    0.0426 C   0  0  0  0  0  0  0  0  0  0  0  0
   -0.3266   -0.3606    1.1688 C   0  0  0  0  0  0  0  0  0  0  0  0
    0.9663   -0.0115    1.1417 O   0  0  0  0  0  0  0  0  0  0  0  0
   -1.9579   -1.5854   -0.3752 C   0  0  0  0  0  0  0  0  0  0  0  0
   -2.1888   -1.8169   -1.5529 O   0  0  0  0  0  0  0  0  0  0  0  0
   -2.8423   -1.7969    0.6181 N   0  0  0  0  0  0  0  0  0  0  0  0
   -4.2333   -2.1306    0.4038 C   0  0  2  0  0  0  0  0  0  0  0  0
   -5.1313   -0.8982    0.6204 C   0  0  0  0  0  0  0  0  0  0  0  0
   -4.6925    0.2513   -0.2365 C   0  0  0  0  0  0  0  0  0  0  0  0
   -5.1135    0.3641   -1.5597 C   0  0  0  0  0  0  0  0  0  0  0  0
   -4.6554    1.3878   -2.3769 C   0  0  0  0  0  0  0  0  0  0  0  0
   -3.7518    2.3177   -1.8911 C   0  0  0  0  0  0  0  0  0  0  0  0
   -3.3240    2.2115   -0.5690 C   0  0  0  0  0  0  0  0  0  0  0  0
   -3.7956    1.1904    0.2546 C   0  0  0  0  0  0  0  0  0  0  0  0
   -2.3860    3.1529   -0.0477 C   0  0  0  0  0  0  0  0  0  0  0  0
   -1.6258    3.9084    0.3759 N   0  0  0  0  0  0  0  0  0  0  0  0
   -4.6398   -3.2985    1.2856 C   0  0  0  0  0  0  0  0  0  0  0  0
   -4.4531   -2.9337    2.6335 O   0  0  0  0  0  0  0  0  0  0  0  0
   -4.3363   -2.4587   -0.6313 H   0  0  0  0  0  0  0  0  0  0  0  0
    8.6523    0.4065   -1.9152 H   0  0  0  0  0  0  0  0  0  0  0  0
    7.5701   -0.9735   -2.1720 H   0  0  0  0  0  0  0  0  0  0  0  0
    7.1884    0.6050   -2.8954 H   0  0  0  0  0  0  0  0  0  0  0  0
    5.3018   -0.7438   -2.5839 H   0  0  0  0  0  0  0  0  0  0  0  0
    2.9411   -1.1326   -2.1901 H   0  0  0  0  0  0  0  0  0  0  0  0
    3.2528    0.7547    1.6484 H   0  0  0  0  0  0  0  0  0  0  0  0
    6.1604    2.1803    3.1453 H   0  0  0  0  0  0  0  0  0  0  0  0
    4.5481    2.4551    2.4598 H   0  0  0  0  0  0  0  0  0  0  0  0
    4.9478    0.8892    3.1992 H   0  0  0  0  0  0  0  0  0  0  0  0
    0.6707   -1.5911   -1.6900 H   0  0  0  0  0  0  0  0  0  0  0  0
   -0.8940   -0.0367    2.0273 H   0  0  0  0  0  0  0  0  0  0  0  0
   -2.5526   -1.6437    1.5715 H   0  0  0  0  0  0  0  0  0  0  0  0
   -6.1607   -1.1772    0.3831 H   0  0  0  0  0  0  0  0  0  0  0  0
   -5.1106   -0.6086    1.6729 H   0  0  0  0  0  0  0  0  0  0  0  0
   -5.8117   -0.3616   -1.9595 H   0  0  0  0  0  0  0  0  0  0  0  0
   -5.0005    1.4597   -3.3993 H   0  0  0  0  0  0  0  0  0  0  0  0
   -3.3825    3.1138   -2.5231 H   0  0  0  0  0  0  0  0  0  0  0  0
   -3.4605    1.1331    1.2824 H   0  0  0  0  0  0  0  0  0  0  0  0
   -5.6857   -3.5504    1.0704 H   0  0  0  0  0  0  0  0  0  0  0  0
   -4.0315   -4.1695    1.0131 H   0  0  0  0  0  0  0  0  0  0  0  0
   -4.6648   -3.6897    3.1880 H   0  0  0  0  0  0  0  0  0  0  0  0
  1  2  1  0
  1 32  1  0
  1 33  1  0
  1 34  1  0
  2  3  1  0
  4  3  2  0
  3  8  1  0
  4  5  1  0
  4 35  1  0
  5  6  2  0
  5 36  1  0
  6 11  1  0
  6  7  1  0
  8  7  2  0
  7 37  1  0
  8  9  1  0
 10  9  1  0
 10 38  1  0
 10 39  1  0
 10 40  1  0
 12 11  2  0
 11 15  1  0
 12 13  1  0
 12 41  1  0
 16 13  1  0
 13 14  2  0
 15 14  1  0
 14 42  1  0
 17 16  2  0
 16 18  1  0
 19 18  1  0
 18 43  1  0
 19 31  1  6
 20 19  1  0
 19 29  1  0
 21 20  1  0
 20 44  1  0
 20 45  1  0
 26 21  1  0
 21 22  2  0
 23 22  1  0
 22 46  1  0
 24 23  2  0
 23 47  1  0
 25 24  1  0
 24 48  1  0
 27 25  1  0
 25 26  2  0
 26 49  1  0
 28 27  3  0
 30 29  1  0
 29 50  1  0
 29 51  1  0
 30 52  1  0
M  END
