
     RDKit          3D

 25 26  0  0  0  0  0  0  0  0999 V2000
   -3.2735    1.3741   -0.1167 C   0  0  0  0  0  0  0  0  0  0  0  0
    1.9054    1.2557    0.0340 C   0  0  0  0  0  0  0  0  0  0  0  0
    1.4391   -0.0549    0.0318 C   0  0  0  0  0  0  0  0  0  0  0  0
    2.5431   -1.4578    0.0805 S   0  0  1  0  0  0  0  0  0  0  0  0
    3.4494   -1.2818    1.1986 O   0  0  0  0  0  0  0  0  0  0  0  0
    1.7107   -2.6447    0.0051 O   0  0  0  0  0  0  0  0  0  0  0  0
    3.4444   -1.4359   -1.2836 N   0  0  0  0  0  0  0  0  0  0  0  0
    0.0748   -0.3034    0.0169 C   0  0  0  0  0  0  0  0  0  0  0  0
    1.0020    2.3063    0.0080 C   0  0  0  0  0  0  0  0  0  0  0  0
   -0.3563    2.0498   -0.0062 C   0  0  0  0  0  0  0  0  0  0  0  0
   -0.8436    0.7437   -0.0007 C   0  0  0  0  0  0  0  0  0  0  0  0
   -2.2809    0.4532   -0.0071 C   0  0  0  0  0  0  0  0  0  0  0  0
   -2.6926   -0.8501    0.1070 N   0  0  0  0  0  0  0  0  0  0  0  0
   -3.9854   -0.9396    0.0943 C   0  0  0  0  0  0  0  0  0  0  0  0
   -4.6780   -2.0870    0.2508 N   0  0  0  0  0  0  0  0  0  0  0  0
   -4.8083    0.5913   -0.0674 S   0  0  0  0  0  0  0  0  0  0  0  0
   -3.2063    2.4444   -0.2250 H   0  0  0  0  0  0  0  0  0  0  0  0
    4.1423   -0.7037   -1.3345 H   0  0  0  0  0  0  0  0  0  0  0  0
    2.9110   -1.5216   -2.1411 H   0  0  0  0  0  0  0  0  0  0  0  0
   -0.2878   -1.3212    0.0201 H   0  0  0  0  0  0  0  0  0  0  0  0
    1.3609    3.3264    0.0038 H   0  0  0  0  0  0  0  0  0  0  0  0
   -1.0365    2.8910   -0.0170 H   0  0  0  0  0  0  0  0  0  0  0  0
   -4.1636   -2.9430    0.1160 H   0  0  0  0  0  0  0  0  0  0  0  0
   -5.6382   -2.1237   -0.0473 H   0  0  0  0  0  0  0  0  0  0  0  0
    3.5907    1.6239    0.0479 Cl  0  0  0  0  0  0  0  0  0  0  0  0
 16 14  1  0
 16  1  1  0
 15 14  1  0
 14 13  2  0
  1 12  2  0
 13 12  1  0
 12 11  1  0
 11  8  2  0
 11 10  1  0
  8  3  1  0
 10  9  2  0
  6  4  2  0
  4  7  1  6
  3  4  1  0
  3  2  2  0
  9  2  1  0
  4  5  2  0
  2 25  1  0
  1 17  1  0
  7 18  1  0
  7 19  1  0
  8 20  1  0
  9 21  1  0
 10 22  1  0
 15 23  1  0
 15 24  1  0
M  END
