
     RDKit          3D

 33 34  0  0  0  0  0  0  0  0999 V2000
    0.5145   -2.6200    1.8468 Cl  0  0  0  0  0  0  0  0  0  0  0  0
    0.9670   -1.3854    0.7310 C   0  0  0  0  0  0  0  0  0  0  0  0
    2.2041   -0.8065    0.9522 C   0  0  0  0  0  0  0  0  0  0  0  0
    2.5828    0.2734    0.1748 C   0  0  0  0  0  0  0  0  0  0  0  0
    4.2614    1.0601    0.4460 Br  0  0  0  0  0  0  0  0  0  0  0  0
    1.7290    0.8015   -0.7744 C   0  0  0  0  0  0  0  0  0  0  0  0
    0.4925    0.2070   -0.9880 C   0  0  0  0  0  0  0  0  0  0  0  0
   -0.5114    1.0189   -2.1245 Cl  0  0  0  0  0  0  0  0  0  0  0  0
    0.1029   -0.9327   -0.2740 C   0  0  0  0  0  0  0  0  0  0  0  0
   -1.4450   -1.8050   -0.5862 S   0  0  1  0  0  0  0  0  0  0  0  0
   -1.9330   -1.3865   -1.8788 O   0  0  0  0  0  0  0  0  0  0  0  0
   -1.2376   -3.2159   -0.3429 O   0  0  0  0  0  0  0  0  0  0  0  0
   -2.4832   -1.2442    0.5633 N   0  0  0  0  0  0  0  0  0  0  0  0
   -2.7756    0.1323    0.5572 C   0  0  0  0  0  0  0  0  0  0  0  0
   -2.1272    1.1421    1.2490 C   0  0  0  0  0  0  0  0  0  0  0  0
   -0.9940    1.0894    2.2070 C   0  0  0  0  0  0  0  0  0  0  0  0
   -2.7682    2.2700    0.9050 N   0  0  0  0  0  0  0  0  0  0  0  0
   -2.4598    3.6192    1.3114 C   0  0  0  0  0  0  0  0  0  0  0  0
   -3.7661    2.0603    0.0387 N   0  0  0  0  0  0  0  0  0  0  0  0
   -3.7935    0.7628   -0.1835 C   0  0  0  0  0  0  0  0  0  0  0  0
   -4.7788    0.1356   -1.1041 C   0  0  0  0  0  0  0  0  0  0  0  0
    2.8452   -1.1945    1.7309 H   0  0  0  0  0  0  0  0  0  0  0  0
    2.0043    1.6743   -1.3495 H   0  0  0  0  0  0  0  0  0  0  0  0
   -2.4146   -1.7229    1.4549 H   0  0  0  0  0  0  0  0  0  0  0  0
   -0.0935    1.5519    1.7985 H   0  0  0  0  0  0  0  0  0  0  0  0
   -1.2326    1.6006    3.1402 H   0  0  0  0  0  0  0  0  0  0  0  0
   -0.7559    0.0585    2.4586 H   0  0  0  0  0  0  0  0  0  0  0  0
   -1.9305    4.1508    0.5213 H   0  0  0  0  0  0  0  0  0  0  0  0
   -3.3805    4.1488    1.5432 H   0  0  0  0  0  0  0  0  0  0  0  0
   -1.8356    3.6030    2.2003 H   0  0  0  0  0  0  0  0  0  0  0  0
   -5.1023   -0.8334   -0.7256 H   0  0  0  0  0  0  0  0  0  0  0  0
   -5.6555    0.7693   -1.2254 H   0  0  0  0  0  0  0  0  0  0  0  0
   -4.3449   -0.0318   -2.0899 H   0  0  0  0  0  0  0  0  0  0  0  0
  1  2  1  0
  2  3  2  0
  2  9  1  0
  3  4  1  0
  4  5  1  0
  4  6  2  0
  6  7  1  0
  7  8  1  0
  7  9  2  0
  9 10  1  0
 10 11  2  0
 10 12  2  0
 10 13  1  1
 13 14  1  0
 14 15  2  0
 14 20  1  0
 15 16  1  0
 15 17  1  0
 17 18  1  0
 17 19  1  0
 19 20  2  0
 20 21  1  0
  3 22  1  0
  6 23  1  0
 13 24  1  0
 16 25  1  0
 16 26  1  0
 16 27  1  0
 18 28  1  0
 18 29  1  0
 18 30  1  0
 21 31  1  0
 21 32  1  0
 21 33  1  0
M  END
