
     RDKit          3D

 84 89  0  0  0  0  0  0  0  0999 V2000
    8.0929    5.6135   -0.5017 F   0  0  0  0  0  0  0  0  0  0  0  0
    6.9098    4.9830   -0.4847 C   0  0  1  0  0  0  0  0  0  0  0  0
    6.0657    5.7560    0.2178 F   0  0  0  0  0  0  0  0  0  0  0  0
    6.4560    4.9649   -1.7433 F   0  0  0  0  0  0  0  0  0  0  0  0
    7.0368    3.6007    0.1057 C   0  0  0  0  0  0  0  0  0  0  0  0
    5.7513    2.9422    0.1116 N   0  0  0  0  0  0  0  0  0  0  0  0
    5.8700    1.5097    0.3273 C   0  0  0  0  0  0  0  0  0  0  0  0
    4.5705    0.8572    0.2186 C   0  0  0  0  0  0  0  0  0  0  0  0
    3.5075    0.2968    0.1383 C   0  0  0  0  0  0  0  0  0  0  0  0
    2.2411   -0.3451    0.0424 C   0  0  0  0  0  0  0  0  0  0  0  0
    1.1259    0.4441   -0.0551 N   0  0  0  0  0  0  0  0  0  0  0  0
    0.0433   -0.2621   -0.1428 C   0  0  0  0  0  0  0  0  0  0  0  0
    0.3326   -1.9677   -0.0993 S   0  0  0  0  0  0  0  0  0  0  0  0
    2.0250   -1.7013    0.0305 C   0  0  0  0  0  0  0  0  0  0  0  0
    2.9923   -2.8797    0.1055 C   0  0  1  0  0  0  0  0  0  0  0  0
    3.9876   -2.7843   -1.0711 C   0  0  0  0  0  0  0  0  0  0  0  0
    5.0764   -3.8471   -0.9912 C   0  0  0  0  0  0  0  0  0  0  0  0
    5.8387   -3.7575    0.3255 C   0  0  0  0  0  0  0  0  0  0  0  0
    4.8878   -3.8309    1.5144 C   0  0  0  0  0  0  0  0  0  0  0  0
    3.7949   -2.7733    1.4182 C   0  0  0  0  0  0  0  0  0  0  0  0
    2.3125   -4.1512    0.0505 N   0  0  0  0  0  0  0  0  0  0  0  0
    1.7559   -4.6513   -1.2011 C   0  0  0  0  0  0  0  0  0  0  0  0
    0.6064   -5.5597   -0.7700 C   0  0  0  0  0  0  0  0  0  0  0  0
    1.0059   -5.9841    0.6395 C   0  0  0  0  0  0  0  0  0  0  0  0
    1.6327   -4.7166    1.2026 C   0  0  0  0  0  0  0  0  0  0  0  0
   -1.3006    0.3006   -0.2588 C   0  0  0  0  0  0  0  0  0  0  0  0
   -1.4843    1.6617   -0.0507 C   0  0  0  0  0  0  0  0  0  0  0  0
   -2.7619    2.2047   -0.1691 C   0  0  0  0  0  0  0  0  0  0  0  0
   -3.8464    1.3614   -0.5072 C   0  0  0  0  0  0  0  0  0  0  0  0
   -3.6739   -0.0068   -0.7147 C   0  0  0  0  0  0  0  0  0  0  0  0
   -2.4014   -0.5192   -0.5880 C   0  0  0  0  0  0  0  0  0  0  0  0
   -3.2967    3.5217   -0.0278 C   0  0  0  0  0  0  0  0  0  0  0  0
   -4.6325    3.4240   -0.2828 C   0  0  0  0  0  0  0  0  0  0  0  0
   -4.9699    2.1299   -0.5800 N   0  0  0  0  0  0  0  0  0  0  0  0
   -6.3115    1.6491   -0.8377 C   0  0  0  0  0  0  0  0  0  0  0  0
   -6.9695    1.0506    0.4005 C   0  0  0  0  0  0  0  0  0  0  0  0
   -8.3499    0.4578    0.1258 C   0  0  2  0  0  0  0  0  0  0  0  0
   -9.3471    1.4879   -0.4075 C   0  0  0  0  0  0  0  0  0  0  0  0
  -10.7373    0.8771   -0.5762 C   0  0  0  0  0  0  0  0  0  0  0  0
  -11.2590    0.2378    0.6207 N   0  0  0  0  0  0  0  0  0  0  0  0
  -10.3224   -0.7406    1.1516 C   0  0  0  0  0  0  0  0  0  0  0  0
   -8.9189   -0.1883    1.3889 C   0  0  0  0  0  0  0  0  0  0  0  0
    7.7275    3.0362   -0.5251 H   0  0  0  0  0  0  0  0  0  0  0  0
    7.5084    3.6893    1.0937 H   0  0  0  0  0  0  0  0  0  0  0  0
    5.1680    3.3338    0.8408 H   0  0  0  0  0  0  0  0  0  0  0  0
    6.5350    1.0954   -0.4360 H   0  0  0  0  0  0  0  0  0  0  0  0
    6.3183    1.2488    1.2969 H   0  0  0  0  0  0  0  0  0  0  0  0
    3.4524   -2.8449   -2.0212 H   0  0  0  0  0  0  0  0  0  0  0  0
    4.4532   -1.7957   -1.0526 H   0  0  0  0  0  0  0  0  0  0  0  0
    4.6365   -4.8427   -1.0910 H   0  0  0  0  0  0  0  0  0  0  0  0
    5.7607   -3.7220   -1.8339 H   0  0  0  0  0  0  0  0  0  0  0  0
    6.5815   -4.5566    0.3880 H   0  0  0  0  0  0  0  0  0  0  0  0
    6.3961   -2.8144    0.3588 H   0  0  0  0  0  0  0  0  0  0  0  0
    4.4411   -4.8279    1.5571 H   0  0  0  0  0  0  0  0  0  0  0  0
    5.4374   -3.6951    2.4490 H   0  0  0  0  0  0  0  0  0  0  0  0
    4.2552   -1.7833    1.4578 H   0  0  0  0  0  0  0  0  0  0  0  0
    3.1221   -2.8242    2.2774 H   0  0  0  0  0  0  0  0  0  0  0  0
    1.4002   -3.8534   -1.8619 H   0  0  0  0  0  0  0  0  0  0  0  0
    2.5037   -5.2167   -1.7713 H   0  0  0  0  0  0  0  0  0  0  0  0
   -0.3292   -4.9954   -0.7376 H   0  0  0  0  0  0  0  0  0  0  0  0
    0.4618   -6.3976   -1.4519 H   0  0  0  0  0  0  0  0  0  0  0  0
    0.1673   -6.3386    1.2388 H   0  0  0  0  0  0  0  0  0  0  0  0
    1.7510   -6.7824    0.6002 H   0  0  0  0  0  0  0  0  0  0  0  0
    2.3301   -4.9385    2.0142 H   0  0  0  0  0  0  0  0  0  0  0  0
    0.8558   -4.0631    1.6271 H   0  0  0  0  0  0  0  0  0  0  0  0
   -0.6403    2.2899    0.2045 H   0  0  0  0  0  0  0  0  0  0  0  0
   -4.5025   -0.6548   -0.9704 H   0  0  0  0  0  0  0  0  0  0  0  0
   -2.2580   -1.5794   -0.7590 H   0  0  0  0  0  0  0  0  0  0  0  0
   -2.7601    4.4223    0.2235 H   0  0  0  0  0  0  0  0  0  0  0  0
   -5.3902    4.1921   -0.2822 H   0  0  0  0  0  0  0  0  0  0  0  0
   -6.8892    2.4920   -1.2156 H   0  0  0  0  0  0  0  0  0  0  0  0
   -6.2686    0.9135   -1.6445 H   0  0  0  0  0  0  0  0  0  0  0  0
   -6.3238    0.2667    0.8095 H   0  0  0  0  0  0  0  0  0  0  0  0
   -7.0499    1.8242    1.1711 H   0  0  0  0  0  0  0  0  0  0  0  0
   -8.2372   -0.3285   -0.6346 H   0  0  0  0  0  0  0  0  0  0  0  0
   -9.3996    2.3331    0.2903 H   0  0  0  0  0  0  0  0  0  0  0  0
   -9.0201    1.8942   -1.3686 H   0  0  0  0  0  0  0  0  0  0  0  0
  -11.4458    1.6409   -0.9044 H   0  0  0  0  0  0  0  0  0  0  0  0
  -10.7001    0.1239   -1.3713 H   0  0  0  0  0  0  0  0  0  0  0  0
  -11.4235    0.9483    1.3255 H   0  0  0  0  0  0  0  0  0  0  0  0
  -10.7306   -1.1488    2.0787 H   0  0  0  0  0  0  0  0  0  0  0  0
  -10.2667   -1.5745    0.4425 H   0  0  0  0  0  0  0  0  0  0  0  0
   -8.2589   -0.9889    1.7371 H   0  0  0  0  0  0  0  0  0  0  0  0
   -8.9577    0.5593    2.1905 H   0  0  0  0  0  0  0  0  0  0  0  0
 38 39  1  0
 38 37  1  0
 39 40  1  0
 37 42  1  0
 37 36  1  0
 40 41  1  0
 42 41  1  0
 36 35  1  0
 35 34  1  0
  2  4  1  6
 30 29  2  0
 30 31  1  0
 34 29  1  0
 34 33  1  0
  5  2  1  0
  5  6  1  0
 29 28  1  0
  2  3  1  0
  2  1  1  0
 31 26  2  0
 33 32  2  0
  6  7  1  0
 28 32  1  0
 28 27  2  0
 26 27  1  0
 26 12  1  0
  7  8  1  0
 11 12  2  0
 11 10  1  0
  8  9  3  0
 12 13  1  0
  9 10  1  0
 10 14  2  0
 14 13  1  0
 15 14  1  6
 20 15  1  0
 20 19  1  0
 15 16  1  0
 15 21  1  0
 25 21  1  0
 25 24  1  0
 19 18  1  0
 16 17  1  0
 21 22  1  0
 18 17  1  0
 24 23  1  0
 23 22  1  0
  5 43  1  0
  5 44  1  0
  6 45  1  0
  7 46  1  0
  7 47  1  0
 16 48  1  0
 16 49  1  0
 17 50  1  0
 17 51  1  0
 18 52  1  0
 18 53  1  0
 19 54  1  0
 19 55  1  0
 20 56  1  0
 20 57  1  0
 22 58  1  0
 22 59  1  0
 23 60  1  0
 23 61  1  0
 24 62  1  0
 24 63  1  0
 25 64  1  0
 25 65  1  0
 27 66  1  0
 30 67  1  0
 31 68  1  0
 32 69  1  0
 33 70  1  0
 35 71  1  0
 35 72  1  0
 36 73  1  0
 36 74  1  0
 37 75  1  6
 38 76  1  0
 38 77  1  0
 39 78  1  0
 39 79  1  0
 40 80  1  0
 41 81  1  0
 41 82  1  0
 42 83  1  0
 42 84  1  0
M  END
