
     RDKit          3D

 32 32  0  0  0  0  0  0  0  0999 V2000
    0.1707    3.2833    0.0552 O   0  0  0  0  0  0  0  0  0  0  0  0
   -0.8381    2.4732    0.6189 C   0  0  0  0  0  0  0  0  0  0  0  0
   -0.9483    1.2107   -0.2195 C   0  0  2  0  0  0  0  0  0  0  0  0
   -2.0390    0.2854    0.3027 C   0  0  1  0  0  0  0  0  0  0  0  0
   -3.2716    0.9253    0.0880 O   0  0  0  0  0  0  0  0  0  0  0  0
   -1.9592   -1.0365   -0.4479 C   0  0  2  0  0  0  0  0  0  0  0  0
   -3.0502   -1.8268   -0.0458 O   0  0  0  0  0  0  0  0  0  0  0  0
   -0.6241   -1.7165   -0.1860 C   0  0  2  0  0  0  0  0  0  0  0  0
   -0.5856   -2.1345    1.1600 O   0  0  0  0  0  0  0  0  0  0  0  0
    0.3379    0.5367   -0.2160 N   0  0  0  0  0  0  0  0  0  0  0  0
    0.5447   -0.7855   -0.4506 C   0  0  0  0  0  0  0  0  0  0  0  0
    1.6533   -1.3456   -0.7545 N   0  0  0  0  0  0  0  0  0  0  0  0
    2.8466   -0.5446   -0.8869 C   0  0  0  0  0  0  0  0  0  0  0  0
    3.5291   -0.3005    0.4590 C   0  0  0  0  0  0  0  0  0  0  0  0
    4.7519    0.4651    0.2711 N   0  0  0  0  0  0  0  0  0  0  0  0
    0.3849    3.9807    0.6808 H   0  0  0  0  0  0  0  0  0  0  0  0
   -0.5979    2.1895    1.6512 H   0  0  0  0  0  0  0  0  0  0  0  0
   -1.8051    2.9869    0.6310 H   0  0  0  0  0  0  0  0  0  0  0  0
   -1.2229    1.4949   -1.2463 H   0  0  0  0  0  0  0  0  0  0  0  0
   -1.8716    0.1028    1.3749 H   0  0  0  0  0  0  0  0  0  0  0  0
    1.1142    1.1589   -0.3850 H   0  0  0  0  0  0  0  0  0  0  0  0
   -3.9681    0.2903    0.2887 H   0  0  0  0  0  0  0  0  0  0  0  0
   -2.0103   -0.8165   -1.5249 H   0  0  0  0  0  0  0  0  0  0  0  0
   -3.2288   -2.4822   -0.7268 H   0  0  0  0  0  0  0  0  0  0  0  0
   -0.5169   -2.5703   -0.8663 H   0  0  0  0  0  0  0  0  0  0  0  0
    0.2508   -2.5924    1.2947 H   0  0  0  0  0  0  0  0  0  0  0  0
    3.5470   -1.0846   -1.5316 H   0  0  0  0  0  0  0  0  0  0  0  0
    2.6790    0.4248   -1.3795 H   0  0  0  0  0  0  0  0  0  0  0  0
    2.8626    0.2734    1.1088 H   0  0  0  0  0  0  0  0  0  0  0  0
    3.6803   -1.2712    0.9503 H   0  0  0  0  0  0  0  0  0  0  0  0
    5.1635    0.6689    1.1726 H   0  0  0  0  0  0  0  0  0  0  0  0
    5.4331   -0.1054   -0.2148 H   0  0  0  0  0  0  0  0  0  0  0  0
  1  2  1  0
  2  3  1  0
  3  4  1  0
  3 10  1  0
  4  5  1  0
  4  6  1  0
  6  7  1  0
  6  8  1  0
  8  9  1  0
  8 11  1  0
 10 11  1  0
 11 12  2  0
 12 13  1  0
 13 14  1  0
 14 15  1  0
  1 16  1  0
  2 17  1  0
  2 18  1  0
  3 19  1  6
  4 20  1  1
 10 21  1  0
  5 22  1  0
  6 23  1  6
  7 24  1  0
  8 25  1  6
  9 26  1  0
 13 27  1  0
 13 28  1  0
 14 29  1  0
 14 30  1  0
 15 31  1  0
 15 32  1  0
M  END
