
     RDKit          3D

 60 63  0  0  0  0  0  0  0  0999 V2000
    8.1337   -0.0661    0.0575 O   0  0  0  0  0  0  0  0  0  0  0  0
    7.7458    1.0849    0.1374 C   0  0  0  0  0  0  0  0  0  0  0  0
    8.5527    2.1534    0.1449 N   0  0  0  0  0  0  0  0  0  0  0  0
    6.2723    1.4411    0.2649 C   0  0  0  0  0  0  0  0  0  0  0  0
    5.5287    0.2772    0.0329 O   0  0  0  0  0  0  0  0  0  0  0  0
    4.1871    0.3333    0.1862 C   0  0  0  0  0  0  0  0  0  0  0  0
    3.4698    1.4855    0.5182 C   0  0  0  0  0  0  0  0  0  0  0  0
    3.4930   -0.8497    0.0033 C   0  0  0  0  0  0  0  0  0  0  0  0
    2.1100   -0.8745    0.1407 C   0  0  0  0  0  0  0  0  0  0  0  0
    1.2882   -2.4108   -0.0705 S   0  0  2  0  0  0  0  0  0  0  0  0
    1.9524   -3.4489    0.6964 O   0  0  0  0  0  0  0  0  0  0  0  0
    1.0692   -2.6359   -1.4880 O   0  0  0  0  0  0  0  0  0  0  0  0
   -0.1749   -2.1325    0.6626 N   0  0  0  0  0  0  0  0  0  0  0  0
    1.3680    0.2690    0.4648 C   0  0  0  0  0  0  0  0  0  0  0  0
    2.0960    1.4488    0.6524 C   0  0  0  0  0  0  0  0  0  0  0  0
    0.0089    0.2638    0.6299 N   0  0  0  0  0  0  0  0  0  0  0  0
   -0.8331   -0.8676    0.3828 C   0  0  1  0  0  0  0  0  0  0  0  0
   -1.4336   -0.8690   -1.0620 C   0  0  2  0  0  0  0  0  0  0  0  0
   -2.0896    0.4740   -1.2852 C   0  0  0  0  0  0  0  0  0  0  0  0
   -1.4829    1.3766   -1.8223 O   0  0  0  0  0  0  0  0  0  0  0  0
   -2.4007   -2.0205   -1.1587 C   0  0  0  0  0  0  0  0  0  0  0  0
   -2.1239   -3.0719   -1.6864 O   0  0  0  0  0  0  0  0  0  0  0  0
   -3.6810   -1.7634   -0.4876 C   0  0  0  0  0  0  0  0  0  0  0  0
   -4.4651   -2.8276   -0.0479 C   0  0  0  0  0  0  0  0  0  0  0  0
   -5.6564   -2.6031    0.6131 C   0  0  0  0  0  0  0  0  0  0  0  0
   -4.1016   -0.4382   -0.2883 C   0  0  0  0  0  0  0  0  0  0  0  0
   -5.3069   -0.2214    0.3821 C   0  0  0  0  0  0  0  0  0  0  0  0
   -6.0646   -1.2922    0.8268 C   0  0  0  0  0  0  0  0  0  0  0  0
   -3.3588    0.6324   -0.8006 N   0  0  0  0  0  0  0  0  0  0  0  0
   -3.9552    1.9650   -0.9002 C   0  0  0  0  0  0  0  0  0  0  0  0
   -3.6687    2.8223    0.3251 C   0  0  0  0  0  0  0  0  0  0  0  0
   -4.3321    4.1994    0.2675 C   0  0  1  0  0  0  0  0  0  0  0  0
   -4.1451    4.9223    1.5974 C   0  0  0  0  0  0  0  0  0  0  0  0
   -3.7948    5.0502   -0.8805 C   0  0  0  0  0  0  0  0  0  0  0  0
    9.5524    2.0376    0.1161 H   0  0  0  0  0  0  0  0  0  0  0  0
    8.1985    3.0933    0.2018 H   0  0  0  0  0  0  0  0  0  0  0  0
    6.0969    1.8408    1.2719 H   0  0  0  0  0  0  0  0  0  0  0  0
    6.0192    2.2345   -0.4486 H   0  0  0  0  0  0  0  0  0  0  0  0
    3.9684    2.4322    0.6762 H   0  0  0  0  0  0  0  0  0  0  0  0
    4.0367   -1.7550   -0.2385 H   0  0  0  0  0  0  0  0  0  0  0  0
   -0.1142   -2.3173    1.6600 H   0  0  0  0  0  0  0  0  0  0  0  0
    1.5691    2.3585    0.9113 H   0  0  0  0  0  0  0  0  0  0  0  0
   -0.3950    1.0356    1.1334 H   0  0  0  0  0  0  0  0  0  0  0  0
   -1.6602   -0.8158    1.0921 H   0  0  0  0  0  0  0  0  0  0  0  0
   -0.6403   -0.9704   -1.8005 H   0  0  0  0  0  0  0  0  0  0  0  0
   -4.1168   -3.8377   -0.2195 H   0  0  0  0  0  0  0  0  0  0  0  0
   -6.2566   -3.4315    0.9629 H   0  0  0  0  0  0  0  0  0  0  0  0
   -5.6708    0.7768    0.5741 H   0  0  0  0  0  0  0  0  0  0  0  0
   -6.9896   -1.0912    1.3508 H   0  0  0  0  0  0  0  0  0  0  0  0
   -3.5606    2.4316   -1.7989 H   0  0  0  0  0  0  0  0  0  0  0  0
   -5.0273    1.8530   -1.0609 H   0  0  0  0  0  0  0  0  0  0  0  0
   -4.0111    2.3012    1.2241 H   0  0  0  0  0  0  0  0  0  0  0  0
   -2.5864    2.9494    0.4340 H   0  0  0  0  0  0  0  0  0  0  0  0
   -5.4072    4.0500    0.1100 H   0  0  0  0  0  0  0  0  0  0  0  0
   -3.0855    5.0936    1.8019 H   0  0  0  0  0  0  0  0  0  0  0  0
   -4.6425    5.8935    1.5910 H   0  0  0  0  0  0  0  0  0  0  0  0
   -4.5546    4.3444    2.4277 H   0  0  0  0  0  0  0  0  0  0  0  0
   -2.7119    5.1731   -0.7969 H   0  0  0  0  0  0  0  0  0  0  0  0
   -4.0057    4.6176   -1.8591 H   0  0  0  0  0  0  0  0  0  0  0  0
   -4.2416    6.0455   -0.8672 H   0  0  0  0  0  0  0  0  0  0  0  0
  2  1  2  0
  4  2  1  0
  2  3  1  0
  3 35  1  0
  3 36  1  0
  5  4  1  0
  4 37  1  0
  4 38  1  0
  6  5  1  0
  8  6  2  0
  7  6  1  0
 15  7  2  0
  7 39  1  0
  9  8  1  0
  8 40  1  0
 10  9  1  0
 14  9  2  0
 10 13  1  1
 10 11  2  0
 10 12  2  0
 17 13  1  0
 13 41  1  0
 16 14  1  0
 14 15  1  0
 15 42  1  0
 17 16  1  0
 16 43  1  0
 18 17  1  0
 17 44  1  1
 21 18  1  0
 19 18  1  0
 18 45  1  6
 29 19  1  0
 19 20  2  0
 23 21  1  0
 21 22  2  0
 24 23  1  0
 26 23  2  0
 25 24  2  0
 24 46  1  0
 28 25  1  0
 25 47  1  0
 27 26  1  0
 26 29  1  0
 28 27  2  0
 27 48  1  0
 28 49  1  0
 30 29  1  0
 31 30  1  0
 30 50  1  0
 30 51  1  0
 31 32  1  0
 31 52  1  0
 31 53  1  0
 34 32  1  0
 32 33  1  0
 32 54  1  6
 33 55  1  0
 33 56  1  0
 33 57  1  0
 34 58  1  0
 34 59  1  0
 34 60  1  0
M  END
