
     RDKit          3D

 57 61  0  0  0  0  0  0  0  0999 V2000
   -8.5801    2.0342   -0.0947 C   0  0  0  0  0  0  0  0  0  0  0  0
   -7.9552    1.1764   -0.8596 N   0  0  0  0  0  0  0  0  0  0  0  0
   -6.6844    2.3052    1.3588 C   0  0  0  0  0  0  0  0  0  0  0  0
   -5.9864    1.3798    0.5472 C   0  0  0  0  0  0  0  0  0  0  0  0
   -4.6587    0.9908    0.8003 C   0  0  0  0  0  0  0  0  0  0  0  0
   -4.0270    0.0779   -0.0101 C   0  0  0  0  0  0  0  0  0  0  0  0
   -0.9493   -2.0853    0.0409 C   0  0  0  0  0  0  0  0  0  0  0  0
    0.2091   -1.3265   -0.0445 C   0  0  0  0  0  0  0  0  0  0  0  0
    3.8788   -1.3183    0.2048 C   0  0  0  0  0  0  0  0  0  0  0  0
    4.8047   -0.2011   -0.1369 C   0  0  0  0  0  0  0  0  0  0  0  0
    4.5047    0.7759   -1.0854 C   0  0  0  0  0  0  0  0  0  0  0  0
    5.4217    1.7696   -1.3778 C   0  0  0  0  0  0  0  0  0  0  0  0
    6.6534    1.8053   -0.7367 C   0  0  0  0  0  0  0  0  0  0  0  0
    8.6128    2.9328   -0.1537 C   0  0  0  0  0  0  0  0  0  0  0  0
    9.1680    1.5746    0.1972 C   0  0  0  0  0  0  0  0  0  0  0  0
    6.0517   -0.1833    0.4819 C   0  0  0  0  0  0  0  0  0  0  0  0
    1.4640   -1.9138    0.1180 C   0  0  0  0  0  0  0  0  0  0  0  0
    6.9716    0.8105    0.1980 C   0  0  0  0  0  0  0  0  0  0  0  0
    1.5462   -3.2838    0.3579 C   0  0  0  0  0  0  0  0  0  0  0  0
   -0.8844   -3.4649    0.2770 C   0  0  0  0  0  0  0  0  0  0  0  0
   -2.1231   -4.3063    0.3672 C   0  0  0  0  0  0  0  0  0  0  0  0
   -4.7164   -0.4503   -1.1270 C   0  0  0  0  0  0  0  0  0  0  0  0
   -6.0049   -0.0796   -1.3965 C   0  0  0  0  0  0  0  0  0  0  0  0
   -6.6771    0.8398   -0.5626 C   0  0  0  0  0  0  0  0  0  0  0  0
    4.2960   -2.3737    0.6524 O   0  0  0  0  0  0  0  0  0  0  0  0
    8.1683    0.7868    0.8279 O   0  0  0  0  0  0  0  0  0  0  0  0
    7.5097    2.7986   -1.0420 O   0  0  0  0  0  0  0  0  0  0  0  0
    2.5637   -1.0595   -0.0114 N   0  0  0  0  0  0  0  0  0  0  0  0
    0.3763   -4.0262    0.4231 C   0  0  0  0  0  0  0  0  0  0  0  0
   -2.2135   -1.5024   -0.1457 N   0  0  0  0  0  0  0  0  0  0  0  0
   -2.6195   -0.2936    0.3232 C   0  0  0  0  0  0  0  0  0  0  0  0
   -1.9086    0.4394    0.9875 O   0  0  0  0  0  0  0  0  0  0  0  0
   -7.9672    2.6298    1.0414 C   0  0  0  0  0  0  0  0  0  0  0  0
   -9.9894    2.3991   -0.4394 C   0  0  0  0  0  0  0  0  0  0  0  0
   -6.1930    2.7431    2.2188 H   0  0  0  0  0  0  0  0  0  0  0  0
   -4.1404    1.4133    1.6523 H   0  0  0  0  0  0  0  0  0  0  0  0
    0.1456   -0.2682   -0.2570 H   0  0  0  0  0  0  0  0  0  0  0  0
    3.5696    0.7694   -1.6302 H   0  0  0  0  0  0  0  0  0  0  0  0
    5.1909    2.5286   -2.1144 H   0  0  0  0  0  0  0  0  0  0  0  0
    8.2988    3.4643    0.7501 H   0  0  0  0  0  0  0  0  0  0  0  0
    9.3642    3.5331   -0.6641 H   0  0  0  0  0  0  0  0  0  0  0  0
    9.5342    1.0660   -0.7007 H   0  0  0  0  0  0  0  0  0  0  0  0
    9.9933    1.6715    0.9002 H   0  0  0  0  0  0  0  0  0  0  0  0
    6.3161   -0.9487    1.2006 H   0  0  0  0  0  0  0  0  0  0  0  0
    2.4932   -3.7788    0.4911 H   0  0  0  0  0  0  0  0  0  0  0  0
   -2.6478   -4.3704   -0.5900 H   0  0  0  0  0  0  0  0  0  0  0  0
   -1.8753   -5.3245    0.6615 H   0  0  0  0  0  0  0  0  0  0  0  0
   -2.8307   -3.9127    1.0992 H   0  0  0  0  0  0  0  0  0  0  0  0
   -4.2256   -1.1340   -1.8081 H   0  0  0  0  0  0  0  0  0  0  0  0
   -6.5258   -0.4781   -2.2572 H   0  0  0  0  0  0  0  0  0  0  0  0
    2.3253   -0.1090   -0.2474 H   0  0  0  0  0  0  0  0  0  0  0  0
    0.4539   -5.0915    0.6038 H   0  0  0  0  0  0  0  0  0  0  0  0
   -2.9177   -2.1040   -0.5426 H   0  0  0  0  0  0  0  0  0  0  0  0
   -8.5288    3.3340    1.6409 H   0  0  0  0  0  0  0  0  0  0  0  0
  -10.6570    2.2095    0.4025 H   0  0  0  0  0  0  0  0  0  0  0  0
  -10.0653    3.4633   -0.6702 H   0  0  0  0  0  0  0  0  0  0  0  0
  -10.3403    1.8317   -1.2982 H   0  0  0  0  0  0  0  0  0  0  0  0
 34  1  1  0
 33  1  2  0
 33  3  1  0
  1  2  1  0
  3  4  2  0
  2 24  2  0
  4 24  1  0
  4  5  1  0
 24 23  1  0
  5  6  2  0
 23 22  2  0
 21 20  1  0
  6 22  1  0
  6 31  1  0
 30  7  1  0
 30 31  1  0
 20  7  1  0
 20 29  2  0
  7  8  2  0
 31 32  2  0
 29 19  1  0
  8 17  1  0
 19 17  2  0
 17 28  1  0
 28  9  1  0
  9 25  2  0
  9 10  1  0
 11 10  2  0
 11 12  1  0
 10 16  1  0
 12 13  2  0
 16 18  2  0
 13 18  1  0
 13 27  1  0
 18 26  1  0
 27 14  1  0
 14 15  1  0
 26 15  1  0
  3 35  1  0
  5 36  1  0
  8 37  1  0
 11 38  1  0
 12 39  1  0
 14 40  1  0
 14 41  1  0
 15 42  1  0
 15 43  1  0
 16 44  1  0
 19 45  1  0
 21 46  1  0
 21 47  1  0
 21 48  1  0
 22 49  1  0
 23 50  1  0
 28 51  1  0
 29 52  1  0
 30 53  1  0
 33 54  1  0
 34 55  1  0
 34 56  1  0
 34 57  1  0
M  END
