
     RDKit          3D

 95 97  0  0  0  0  0  0  0  0999 V2000
    2.3129   -0.0156   12.9202 C   0  0  0  0  0  0  0  0  0  0  0  0
    0.3813    0.6647   14.3390 N   0  0  0  0  0  0  0  0  0  0  0  0
    0.8694    0.1475   13.2360 C   0  0  0  0  0  0  0  0  0  0  0  0
   -0.1224   -0.2367   12.3961 N   0  0  0  0  0  0  0  0  0  0  0  0
   -1.3111    0.0691   13.0019 C   0  0  0  0  0  0  0  0  0  0  0  0
   -0.9780    0.6212   14.2025 C   0  0  0  0  0  0  0  0  0  0  0  0
    0.0320   -0.7788   11.0609 C   0  0  0  0  0  0  0  0  0  0  0  0
    0.0470    0.3014    9.9888 C   0  0  0  0  0  0  0  0  0  0  0  0
    0.2181   -0.2875    8.5948 C   0  0  0  0  0  0  0  0  0  0  0  0
    0.2275    0.7933    7.5138 C   0  0  0  0  0  0  0  0  0  0  0  0
    0.4227    0.2310    6.1338 C   0  0  0  0  0  0  0  0  0  0  0  0
   -0.6634   -0.1698    5.3602 C   0  0  0  0  0  0  0  0  0  0  0  0
   -0.4805   -0.7059    4.0928 C   0  0  0  0  0  0  0  0  0  0  0  0
    0.7955   -0.8591    3.5606 C   0  0  0  0  0  0  0  0  0  0  0  0
    1.8827   -0.4694    4.3356 C   0  0  0  0  0  0  0  0  0  0  0  0
    1.6995    0.0651    5.6024 C   0  0  0  0  0  0  0  0  0  0  0  0
    0.9928   -1.3873    2.1723 C   0  0  0  0  0  0  0  0  0  0  0  0
    1.0431   -0.2732    1.1371 C   0  0  0  0  0  0  0  0  0  0  0  0
    1.2686    0.8896    1.4330 O   0  0  0  0  0  0  0  0  0  0  0  0
    0.8466   -0.6815   -0.1272 N   0  0  0  0  0  0  0  0  0  0  0  0
    0.9193    0.2087   -1.2553 C   0  0  2  0  0  0  0  0  0  0  0  0
    0.1232   -0.4006   -2.4093 C   0  0  0  0  0  0  0  0  0  0  0  0
   -0.2076   -1.5757   -2.4174 O   0  0  0  0  0  0  0  0  0  0  0  0
    2.3544    0.4736   -1.7054 C   0  0  0  0  0  0  0  0  0  0  0  0
    2.8843   -0.7275   -2.2046 O   0  0  0  0  0  0  0  0  0  0  0  0
   -0.1470    0.4672   -3.3928 N   0  0  0  0  0  0  0  0  0  0  0  0
   -0.7686    0.1198   -4.6463 C   0  0  2  0  0  0  0  0  0  0  0  0
    0.0937    0.6645   -5.7834 C   0  0  0  0  0  0  0  0  0  0  0  0
    0.7363    1.6976   -5.6530 O   0  0  0  0  0  0  0  0  0  0  0  0
   -2.1880    0.6864   -4.7691 C   0  0  0  0  0  0  0  0  0  0  0  0
   -3.1290    0.1921   -3.6793 C   0  0  0  0  0  0  0  0  0  0  0  0
   -4.5568    0.6824   -3.8820 C   0  0  0  0  0  0  0  0  0  0  0  0
   -5.4958    0.2207   -2.7783 C   0  0  0  0  0  0  0  0  0  0  0  0
   -6.8539    0.6881   -3.0180 N   0  0  0  0  0  0  0  0  0  0  0  0
    0.0417   -0.0351   -6.9203 N   0  0  0  0  0  0  0  0  0  0  0  0
    0.7312    0.3672   -8.1307 C   0  0  0  0  0  0  0  0  0  0  0  0
    0.2283   -0.4353   -9.3210 C   0  0  0  0  0  0  0  0  0  0  0  0
    0.9936   -0.1510  -10.6115 C   0  0  1  0  0  0  0  0  0  0  0  0
    0.5777   -1.1316  -11.7089 C   0  0  0  0  0  0  0  0  0  0  0  0
    1.3242   -0.8800  -13.0147 C   0  0  0  0  0  0  0  0  0  0  0  0
    1.1390    0.5573  -13.4892 C   0  0  0  0  0  0  0  0  0  0  0  0
    1.5554    1.5458  -12.4058 C   0  0  0  0  0  0  0  0  0  0  0  0
    0.8128    1.2883  -11.0984 C   0  0  0  0  0  0  0  0  0  0  0  0
    2.9063    0.3232   13.7662 H   0  0  0  0  0  0  0  0  0  0  0  0
    2.5714   -1.0570   12.7220 H   0  0  0  0  0  0  0  0  0  0  0  0
    2.6105    0.5668   12.0461 H   0  0  0  0  0  0  0  0  0  0  0  0
   -2.2612   -0.1374   12.5376 H   0  0  0  0  0  0  0  0  0  0  0  0
   -1.6418    0.9819   14.9734 H   0  0  0  0  0  0  0  0  0  0  0  0
    0.9545   -1.3602   11.0303 H   0  0  0  0  0  0  0  0  0  0  0  0
   -0.7859   -1.4786   10.8857 H   0  0  0  0  0  0  0  0  0  0  0  0
   -0.8847    0.8733   10.0381 H   0  0  0  0  0  0  0  0  0  0  0  0
    0.8593    1.0067   10.1899 H   0  0  0  0  0  0  0  0  0  0  0  0
    1.1509   -0.8587    8.5472 H   0  0  0  0  0  0  0  0  0  0  0  0
   -0.5896   -0.9980    8.3924 H   0  0  0  0  0  0  0  0  0  0  0  0
   -0.7130    1.3498    7.5561 H   0  0  0  0  0  0  0  0  0  0  0  0
    1.0233    1.5108    7.7315 H   0  0  0  0  0  0  0  0  0  0  0  0
   -1.6685   -0.0528    5.7491 H   0  0  0  0  0  0  0  0  0  0  0  0
   -1.3455   -1.0015    3.5100 H   0  0  0  0  0  0  0  0  0  0  0  0
    2.8873   -0.5840    3.9460 H   0  0  0  0  0  0  0  0  0  0  0  0
    2.5646    0.3665    6.1822 H   0  0  0  0  0  0  0  0  0  0  0  0
    1.9378   -1.9356    2.1043 H   0  0  0  0  0  0  0  0  0  0  0  0
    0.2090   -2.1024    1.9117 H   0  0  0  0  0  0  0  0  0  0  0  0
    0.6583   -1.6541   -0.3163 H   0  0  0  0  0  0  0  0  0  0  0  0
    0.4744    1.1704   -0.9849 H   0  0  0  0  0  0  0  0  0  0  0  0
    2.3503    1.2694   -2.4608 H   0  0  0  0  0  0  0  0  0  0  0  0
    2.9228    0.8544   -0.8495 H   0  0  0  0  0  0  0  0  0  0  0  0
    3.7861   -0.5632   -2.4941 H   0  0  0  0  0  0  0  0  0  0  0  0
    0.1495    1.4263   -3.2912 H   0  0  0  0  0  0  0  0  0  0  0  0
   -0.8184   -0.9693   -4.7025 H   0  0  0  0  0  0  0  0  0  0  0  0
   -2.1437    1.7801   -4.7542 H   0  0  0  0  0  0  0  0  0  0  0  0
   -2.5810    0.4042   -5.7500 H   0  0  0  0  0  0  0  0  0  0  0  0
   -3.1170   -0.9022   -3.6549 H   0  0  0  0  0  0  0  0  0  0  0  0
   -2.7662    0.5267   -2.7034 H   0  0  0  0  0  0  0  0  0  0  0  0
   -4.5638    1.7775   -3.9277 H   0  0  0  0  0  0  0  0  0  0  0  0
   -4.9389    0.3310   -4.8456 H   0  0  0  0  0  0  0  0  0  0  0  0
   -5.5091   -0.8728   -2.7571 H   0  0  0  0  0  0  0  0  0  0  0  0
   -5.0876    0.5399   -1.8080 H   0  0  0  0  0  0  0  0  0  0  0  0
   -7.4621    0.3463   -2.2847 H   0  0  0  0  0  0  0  0  0  0  0  0
   -6.8768    1.6976   -2.9362 H   0  0  0  0  0  0  0  0  0  0  0  0
   -0.4562   -0.9114   -6.9285 H   0  0  0  0  0  0  0  0  0  0  0  0
    0.5688    1.4346   -8.2856 H   0  0  0  0  0  0  0  0  0  0  0  0
    1.8107    0.2221   -8.0173 H   0  0  0  0  0  0  0  0  0  0  0  0
    0.3167   -1.5027   -9.0893 H   0  0  0  0  0  0  0  0  0  0  0  0
   -0.8377   -0.2352   -9.4744 H   0  0  0  0  0  0  0  0  0  0  0  0
    2.0633   -0.3104  -10.4147 H   0  0  0  0  0  0  0  0  0  0  0  0
    0.7490   -2.1577  -11.3704 H   0  0  0  0  0  0  0  0  0  0  0  0
   -0.5011   -1.0370  -11.8830 H   0  0  0  0  0  0  0  0  0  0  0  0
    2.3918   -1.0738  -12.8621 H   0  0  0  0  0  0  0  0  0  0  0  0
    0.9871   -1.5815  -13.7821 H   0  0  0  0  0  0  0  0  0  0  0  0
    1.7110    0.7342  -14.4036 H   0  0  0  0  0  0  0  0  0  0  0  0
    0.0856    0.7215  -13.7428 H   0  0  0  0  0  0  0  0  0  0  0  0
    2.6334    1.4570  -12.2308 H   0  0  0  0  0  0  0  0  0  0  0  0
    1.3792    2.5717  -12.7390 H   0  0  0  0  0  0  0  0  0  0  0  0
   -0.2582    1.4769  -11.2447 H   0  0  0  0  0  0  0  0  0  0  0  0
    1.1516    1.9984  -10.3396 H   0  0  0  0  0  0  0  0  0  0  0  0
  1  3  1  0
  1 44  1  0
  1 45  1  0
  1 46  1  0
  2  3  2  0
  2  6  1  0
  3  4  1  0
  4  5  1  0
  4  7  1  0
  5  6  2  0
  5 47  1  0
  6 48  1  0
  7  8  1  0
  7 49  1  0
  7 50  1  0
  8  9  1  0
  8 51  1  0
  8 52  1  0
  9 10  1  0
  9 53  1  0
  9 54  1  0
 10 11  1  0
 10 55  1  0
 10 56  1  0
 11 12  2  0
 11 16  1  0
 12 13  1  0
 12 57  1  0
 13 14  2  0
 13 58  1  0
 14 15  1  0
 14 17  1  0
 15 16  2  0
 15 59  1  0
 16 60  1  0
 17 18  1  0
 17 61  1  0
 17 62  1  0
 18 19  2  0
 18 20  1  0
 20 21  1  0
 20 63  1  0
 21 22  1  0
 21 24  1  0
 21 64  1  1
 22 23  2  0
 22 26  1  0
 24 25  1  0
 24 65  1  0
 24 66  1  0
 25 67  1  0
 26 27  1  0
 26 68  1  0
 27 28  1  0
 27 30  1  0
 27 69  1  6
 28 29  2  0
 28 35  1  0
 30 31  1  0
 30 70  1  0
 30 71  1  0
 31 32  1  0
 31 72  1  0
 31 73  1  0
 32 33  1  0
 32 74  1  0
 32 75  1  0
 33 34  1  0
 33 76  1  0
 33 77  1  0
 34 78  1  0
 34 79  1  0
 35 36  1  0
 35 80  1  0
 36 37  1  0
 36 81  1  0
 36 82  1  0
 37 38  1  0
 37 83  1  0
 37 84  1  0
 38 39  1  0
 38 43  1  0
 38 85  1  1
 39 40  1  0
 39 86  1  0
 39 87  1  0
 40 41  1  0
 40 88  1  0
 40 89  1  0
 41 42  1  0
 41 90  1  0
 41 91  1  0
 42 43  1  0
 42 92  1  0
 42 93  1  0
 43 94  1  0
 43 95  1  0
M  END
