
     RDKit          3D

 26 28  0  0  0  0  0  0  0  0999 V2000
    1.3575    0.3771   -0.5503 C   0  0  1  0  0  0  0  0  0  0  0  0
    1.8549    0.9633    0.7636 C   0  0  0  0  0  0  0  0  0  0  0  0
    3.7641    0.4243   -0.4195 C   0  0  0  0  0  0  0  0  0  0  0  0
    2.6244   -0.1611   -1.2150 C   0  0  0  0  0  0  0  0  0  0  0  0
    0.2261   -0.5760   -0.3634 C   0  0  0  0  0  0  0  0  0  0  0  0
    0.2589   -1.9443   -0.3795 C   0  0  0  0  0  0  0  0  0  0  0  0
   -0.9881   -2.4442   -0.1595 N   0  0  0  0  0  0  0  0  0  0  0  0
   -1.8681   -1.4136    0.0033 C   0  0  0  0  0  0  0  0  0  0  0  0
   -1.1347   -0.2137   -0.1165 C   0  0  0  0  0  0  0  0  0  0  0  0
   -1.7949    1.0153    0.0087 C   0  0  0  0  0  0  0  0  0  0  0  0
   -3.1474    0.9811    0.2368 C   0  0  0  0  0  0  0  0  0  0  0  0
   -3.8809   -0.2027    0.3566 C   0  0  0  0  0  0  0  0  0  0  0  0
   -3.2405   -1.4204    0.2411 C   0  0  0  0  0  0  0  0  0  0  0  0
    3.2258    1.0040    0.7045 N   0  0  0  0  0  0  0  0  0  0  0  0
    4.9412    0.3852   -0.6784 O   0  0  0  0  0  0  0  0  0  0  0  0
    1.1882    1.3499    1.6892 O   0  0  0  0  0  0  0  0  0  0  0  0
   -3.8169    2.1464    0.3602 F   0  0  0  0  0  0  0  0  0  0  0  0
    0.9995    1.2389   -1.1282 H   0  0  0  0  0  0  0  0  0  0  0  0
    2.7069   -1.2483   -1.1544 H   0  0  0  0  0  0  0  0  0  0  0  0
    2.7087    0.1080   -2.2665 H   0  0  0  0  0  0  0  0  0  0  0  0
    1.0877   -2.6163   -0.5363 H   0  0  0  0  0  0  0  0  0  0  0  0
   -1.2178   -3.4235   -0.1406 H   0  0  0  0  0  0  0  0  0  0  0  0
   -1.2681    1.9579   -0.0696 H   0  0  0  0  0  0  0  0  0  0  0  0
   -4.9464   -0.1578    0.5393 H   0  0  0  0  0  0  0  0  0  0  0  0
   -3.7951   -2.3448    0.3343 H   0  0  0  0  0  0  0  0  0  0  0  0
    3.7941    1.4119    1.4363 H   0  0  0  0  0  0  0  0  0  0  0  0
 12 13  1  0
 12 11  2  0
 13  8  2  0
 17 11  1  0
 11 10  1  0
  8  7  1  0
  8  9  1  0
 10  9  2  0
  7  6  1  0
  9  5  1  0
  6  5  2  0
  5  1  1  0
 16  2  2  0
  1  2  1  0
  1  4  1  0
  2 14  1  0
  4  3  1  0
 14  3  1  0
  3 15  2  0
  1 18  1  6
  4 19  1  0
  4 20  1  0
  6 21  1  0
  7 22  1  0
 10 23  1  0
 12 24  1  0
 13 25  1  0
 14 26  1  0
M  END
