
     RDKit          3D

 59 61  0  0  0  0  0  0  0  0999 V2000
   -0.8973    0.7852    0.5494 C   0  0  1  0  0  0  0  0  0  0  0  0
    1.4264    1.2990   -0.0493 C   0  0  0  0  0  0  0  0  0  0  0  0
    8.4663    0.5513   -2.0293 C   0  0  0  0  0  0  0  0  0  0  0  0
    7.5788   -0.1104   -1.1512 O   0  0  0  0  0  0  0  0  0  0  0  0
    6.4079    0.4863   -0.8519 C   0  0  0  0  0  0  0  0  0  0  0  0
    5.5797   -0.1923    0.0475 C   0  0  0  0  0  0  0  0  0  0  0  0
    4.3645    0.3475    0.4167 C   0  0  0  0  0  0  0  0  0  0  0  0
    5.9873    1.7061   -1.3704 C   0  0  0  0  0  0  0  0  0  0  0  0
    4.7561    2.2316   -0.9854 C   0  0  0  0  0  0  0  0  0  0  0  0
    3.9286    1.5732   -0.0908 C   0  0  0  0  0  0  0  0  0  0  0  0
    2.6182    2.1555    0.3453 C   0  0  0  0  0  0  0  0  0  0  0  0
    1.4697    0.4879   -0.9573 O   0  0  0  0  0  0  0  0  0  0  0  0
    0.3174    1.5381    0.6802 N   0  0  0  0  0  0  0  0  0  0  0  0
   -1.0631   -0.2056    1.7224 C   0  0  0  0  0  0  0  0  0  0  0  0
    0.1119   -1.1305    1.8424 C   0  0  0  0  0  0  0  0  0  0  0  0
    0.2890   -2.2670    1.0550 C   0  0  0  0  0  0  0  0  0  0  0  0
   -1.0200   -2.7596   -0.2249 Br  0  0  0  0  0  0  0  0  0  0  0  0
    1.4064   -3.0811    1.1752 C   0  0  0  0  0  0  0  0  0  0  0  0
    2.3877   -2.7614    2.1013 C   0  0  0  0  0  0  0  0  0  0  0  0
    2.2420   -1.6371    2.8999 C   0  0  0  0  0  0  0  0  0  0  0  0
    1.1178   -0.8382    2.7630 C   0  0  0  0  0  0  0  0  0  0  0  0
   -2.0973    1.7269    0.5299 C   0  0  0  0  0  0  0  0  0  0  0  0
   -2.0860    2.7857    1.1387 O   0  0  0  0  0  0  0  0  0  0  0  0
   -3.1567    1.2595   -0.1431 N   0  0  0  0  0  0  0  0  0  0  0  0
   -4.4269    1.9665   -0.2332 C   0  0  1  0  0  0  0  0  0  0  0  0
   -4.4438    2.9373   -1.4110 C   0  0  0  0  0  0  0  0  0  0  0  0
   -5.5565    0.9649   -0.2930 C   0  0  0  0  0  0  0  0  0  0  0  0
   -5.6790    0.0863   -1.3682 C   0  0  0  0  0  0  0  0  0  0  0  0
   -6.7165   -0.8340   -1.4150 C   0  0  0  0  0  0  0  0  0  0  0  0
   -7.6523   -0.8838   -0.3892 C   0  0  0  0  0  0  0  0  0  0  0  0
   -7.5404   -0.0107    0.6835 C   0  0  0  0  0  0  0  0  0  0  0  0
   -6.4960    0.9043    0.7308 C   0  0  0  0  0  0  0  0  0  0  0  0
   -0.8443    0.2342   -0.3900 H   0  0  0  0  0  0  0  0  0  0  0  0
    9.3455   -0.0822   -2.1172 H   0  0  0  0  0  0  0  0  0  0  0  0
    8.0334    0.6885   -3.0237 H   0  0  0  0  0  0  0  0  0  0  0  0
    8.7727    1.5264   -1.6418 H   0  0  0  0  0  0  0  0  0  0  0  0
    3.7396   -0.1974    1.1148 H   0  0  0  0  0  0  0  0  0  0  0  0
    6.5954    2.2642   -2.0690 H   0  0  0  0  0  0  0  0  0  0  0  0
    4.4497    3.1848   -1.3999 H   0  0  0  0  0  0  0  0  0  0  0  0
    2.4758    3.1454   -0.0990 H   0  0  0  0  0  0  0  0  0  0  0  0
    2.6109    2.3126    1.4276 H   0  0  0  0  0  0  0  0  0  0  0  0
    0.3599    2.2185    1.4230 H   0  0  0  0  0  0  0  0  0  0  0  0
   -1.1566    0.3679    2.6474 H   0  0  0  0  0  0  0  0  0  0  0  0
   -1.9974   -0.7582    1.6085 H   0  0  0  0  0  0  0  0  0  0  0  0
    1.5173   -3.9604    0.5549 H   0  0  0  0  0  0  0  0  0  0  0  0
    3.2585   -3.3964    2.1950 H   0  0  0  0  0  0  0  0  0  0  0  0
    3.0012   -1.3809    3.6269 H   0  0  0  0  0  0  0  0  0  0  0  0
    1.0083    0.0360    3.3933 H   0  0  0  0  0  0  0  0  0  0  0  0
   -3.0480    0.4186   -0.6890 H   0  0  0  0  0  0  0  0  0  0  0  0
   -4.5310    2.5443    0.6864 H   0  0  0  0  0  0  0  0  0  0  0  0
   -5.3853    3.4861   -1.4355 H   0  0  0  0  0  0  0  0  0  0  0  0
   -3.6319    3.6582   -1.3187 H   0  0  0  0  0  0  0  0  0  0  0  0
   -4.3313    2.4156   -2.3617 H   0  0  0  0  0  0  0  0  0  0  0  0
   -4.9656    0.1121   -2.1845 H   0  0  0  0  0  0  0  0  0  0  0  0
   -6.7963   -1.5105   -2.2560 H   0  0  0  0  0  0  0  0  0  0  0  0
   -8.4643   -1.5981   -0.4278 H   0  0  0  0  0  0  0  0  0  0  0  0
   -8.2637   -0.0423    1.4879 H   0  0  0  0  0  0  0  0  0  0  0  0
   -6.4139    1.5807    1.5732 H   0  0  0  0  0  0  0  0  0  0  0  0
    5.9003   -1.1438    0.4542 H   0  0  0  0  0  0  0  0  0  0  0  0
 29 28  2  0
 29 30  1  0
 28 27  1  0
 30 31  2  0
 27 25  1  0
 27 32  2  0
 26 25  1  0
 31 32  1  0
 25 24  1  0
 23 22  2  0
 24 22  1  0
 22  1  1  0
 17 16  1  0
 12  2  2  0
  1 14  1  0
  1 13  1  0
 14 15  1  0
  2 13  1  0
  2 11  1  0
  9  8  1  0
  9 10  2  0
  8  5  2  0
 16 15  2  0
 16 18  1  0
 15 21  1  0
 11 10  1  0
 10  7  1  0
  5  4  1  0
  5  6  1  0
  4  3  1  0
 18 19  2  0
 21 20  2  0
  7  6  2  0
 19 20  1  0
  1 33  1  6
  3 34  1  0
  3 35  1  0
  3 36  1  0
  6 59  1  0
  7 37  1  0
  8 38  1  0
  9 39  1  0
 11 40  1  0
 11 41  1  0
 13 42  1  0
 14 43  1  0
 14 44  1  0
 18 45  1  0
 19 46  1  0
 20 47  1  0
 21 48  1  0
 24 49  1  0
 25 50  1  1
 26 51  1  0
 26 52  1  0
 26 53  1  0
 28 54  1  0
 29 55  1  0
 30 56  1  0
 31 57  1  0
 32 58  1  0
M  END
