
     RDKit          3D

 29 30  0  0  0  0  0  0  0  0999 V2000
   -3.7465   -0.9302   -1.0994 O   0  0  0  0  0  0  0  0  0  0  0  0
   -1.3893   -2.0792   -0.1594 O   0  0  0  0  0  0  0  0  0  0  0  0
    4.4488    0.1917    0.1778 O   0  0  0  0  0  0  0  0  0  0  0  0
   -1.9707    0.1168   -0.0478 N   0  0  0  0  0  0  0  0  0  0  0  0
   -3.2866   -0.0000   -0.4861 C   0  0  0  0  0  0  0  0  0  0  0  0
   -4.0043    1.2702   -0.0948 C   0  0  0  0  0  0  0  0  0  0  0  0
   -3.1279    1.8613    0.9976 C   0  0  0  0  0  0  0  0  0  0  0  0
   -1.7285    1.4214    0.5831 C   0  0  0  0  0  0  0  0  0  0  0  0
    0.3843   -0.5433   -0.0020 C   0  0  0  0  0  0  0  0  0  0  0  0
    1.2546   -1.3666    0.7173 C   0  0  0  0  0  0  0  0  0  0  0  0
    2.6034   -1.0913    0.7717 C   0  0  0  0  0  0  0  0  0  0  0  0
    3.1274    0.0030    0.0742 C   0  0  0  0  0  0  0  0  0  0  0  0
    2.2726    0.8125   -0.6732 C   0  0  0  0  0  0  0  0  0  0  0  0
    0.9136    0.5376   -0.6977 C   0  0  0  0  0  0  0  0  0  0  0  0
    5.0387    1.2856   -0.5014 C   0  0  0  0  0  0  0  0  0  0  0  0
   -5.0298    1.0590    0.2038 H   0  0  0  0  0  0  0  0  0  0  0  0
   -4.0422    1.9218   -0.9736 H   0  0  0  0  0  0  0  0  0  0  0  0
   -3.3847    1.4281    1.9651 H   0  0  0  0  0  0  0  0  0  0  0  0
   -3.2035    2.9435    1.0776 H   0  0  0  0  0  0  0  0  0  0  0  0
   -1.0453    1.3240    1.4235 H   0  0  0  0  0  0  0  0  0  0  0  0
   -1.2986    2.1249   -0.1313 H   0  0  0  0  0  0  0  0  0  0  0  0
    0.8690   -2.2235    1.2543 H   0  0  0  0  0  0  0  0  0  0  0  0
    3.2669   -1.7212    1.3503 H   0  0  0  0  0  0  0  0  0  0  0  0
    2.6424    1.6561   -1.2392 H   0  0  0  0  0  0  0  0  0  0  0  0
    0.2737    1.1711   -1.2977 H   0  0  0  0  0  0  0  0  0  0  0  0
    6.1004    1.2526   -0.2722 H   0  0  0  0  0  0  0  0  0  0  0  0
    4.9090    1.2092   -1.5834 H   0  0  0  0  0  0  0  0  0  0  0  0
    4.6326    2.2411   -0.1618 H   0  0  0  0  0  0  0  0  0  0  0  0
   -1.0475   -0.9201   -0.0832 C   0  0  0  0  0  0  0  0  0  0  0  0
  1  5  2  0
  2 29  2  0
  3 12  1  0
  3 15  1  0
  4  5  1  0
  4  8  1  0
  4 29  1  0
  5  6  1  0
  6  7  1  0
  6 16  1  0
  6 17  1  0
  7  8  1  0
  7 18  1  0
  7 19  1  0
  8 20  1  0
  8 21  1  0
 29  9  1  0
  9 10  2  0
  9 14  1  0
 10 11  1  0
 10 22  1  0
 11 12  2  0
 11 23  1  0
 12 13  1  0
 13 14  2  0
 13 24  1  0
 14 25  1  0
 15 26  1  0
 15 27  1  0
 15 28  1  0
M  END
