
     RDKit          3D

 48 50  0  0  0  0  0  0  0  0999 V2000
   -6.3521   -1.8201   -1.1975 C   0  0  0  0  0  0  0  0  0  0  0  0
   -7.2375   -1.0934   -0.4254 C   0  0  0  0  0  0  0  0  0  0  0  0
   -6.8646    0.0716    0.2273 C   0  0  0  0  0  0  0  0  0  0  0  0
   -5.5571    0.5063    0.0755 C   0  0  0  0  0  0  0  0  0  0  0  0
   -4.6418   -0.2014   -0.6871 C   0  0  0  0  0  0  0  0  0  0  0  0
   -2.4335    0.3026    0.1953 C   0  0  0  0  0  0  0  0  0  0  0  0
   -0.0850    0.9669    0.6337 C   0  0  0  0  0  0  0  0  0  0  0  0
    0.0900    0.3639    1.8846 C   0  0  0  0  0  0  0  0  0  0  0  0
    1.2515    0.5830    2.6060 C   0  0  0  0  0  0  0  0  0  0  0  0
    2.2727    1.3841    2.1169 C   0  0  0  0  0  0  0  0  0  0  0  0
    2.0893    1.9663    0.8739 C   0  0  0  0  0  0  0  0  0  0  0  0
    4.3551    0.6647   -0.8662 C   0  0  0  0  0  0  0  0  0  0  0  0
    5.0278    0.2113    0.2680 C   0  0  0  0  0  0  0  0  0  0  0  0
    5.3339   -1.1309    0.3898 C   0  0  0  0  0  0  0  0  0  0  0  0
    5.0035   -2.0405   -0.6116 C   0  0  0  0  0  0  0  0  0  0  0  0
    5.3617   -3.4635   -0.4231 C   0  0  0  0  0  0  0  0  0  0  0  0
    4.3493   -1.5758   -1.7520 C   0  0  0  0  0  0  0  0  0  0  0  0
    4.0203   -0.2397   -1.8734 C   0  0  0  0  0  0  0  0  0  0  0  0
    0.9341    1.7762    0.1325 C   0  0  0  0  0  0  0  0  0  0  0  0
   -8.8691   -1.6645   -0.2714 Cl  0  0  0  0  0  0  0  0  0  0  0  0
   -5.0276   -1.3880   -1.3351 C   0  0  0  0  0  0  0  0  0  0  0  0
    4.0176    2.0121   -1.0447 N   0  0  0  0  0  0  0  0  0  0  0  0
   -4.1448   -2.0743   -2.1266 N   0  0  0  0  0  0  0  0  0  0  0  0
   -2.7162   -0.0544    1.3241 O   0  0  0  0  0  0  0  0  0  0  0  0
   -3.3170    0.2575   -0.8419 N   0  0  0  0  0  0  0  0  0  0  0  0
    3.3722    2.9582    0.1668 S   0  0  1  0  0  0  0  0  0  0  0  0
    2.7908    4.0928   -0.5261 O   0  0  0  0  0  0  0  0  0  0  0  0
    4.3901    3.1742    1.1771 O   0  0  0  0  0  0  0  0  0  0  0  0
   -1.2033    0.7913   -0.1715 N   0  0  0  0  0  0  0  0  0  0  0  0
    5.9110   -3.8950    0.5632 O   0  0  0  0  0  0  0  0  0  0  0  0
    5.0161   -4.2263   -1.4517 O   0  0  0  0  0  0  0  0  0  0  0  0
   -6.6710   -2.7320   -1.6859 H   0  0  0  0  0  0  0  0  0  0  0  0
   -7.5679    0.6288    0.8291 H   0  0  0  0  0  0  0  0  0  0  0  0
   -5.2438    1.4250    0.5542 H   0  0  0  0  0  0  0  0  0  0  0  0
   -0.6707   -0.2770    2.2974 H   0  0  0  0  0  0  0  0  0  0  0  0
    1.3655    0.1090    3.5714 H   0  0  0  0  0  0  0  0  0  0  0  0
    3.1723    1.5405    2.6937 H   0  0  0  0  0  0  0  0  0  0  0  0
    5.3314    0.8928    1.0489 H   0  0  0  0  0  0  0  0  0  0  0  0
    5.8516   -1.4691    1.2772 H   0  0  0  0  0  0  0  0  0  0  0  0
    4.0765   -2.2498   -2.5518 H   0  0  0  0  0  0  0  0  0  0  0  0
    3.4952    0.1053   -2.7554 H   0  0  0  0  0  0  0  0  0  0  0  0
    0.8103    2.2539   -0.8324 H   0  0  0  0  0  0  0  0  0  0  0  0
    3.6179    2.2383   -1.9484 H   0  0  0  0  0  0  0  0  0  0  0  0
   -3.1672   -1.9664   -1.9077 H   0  0  0  0  0  0  0  0  0  0  0  0
   -4.3892   -3.0277   -2.3396 H   0  0  0  0  0  0  0  0  0  0  0  0
   -3.0166    0.5233   -1.7681 H   0  0  0  0  0  0  0  0  0  0  0  0
   -1.1133    1.1520   -1.1097 H   0  0  0  0  0  0  0  0  0  0  0  0
    5.2652   -5.1462   -1.2788 H   0  0  0  0  0  0  0  0  0  0  0  0
 13 14  2  0
 13 12  1  0
 14 15  1  0
 22 12  1  0
 26 22  1  6
 12 18  2  0
 30 16  2  0
 28 26  2  0
 15 16  1  0
 15 17  2  0
 26 27  2  0
 26 11  1  0
 16 31  1  0
 18 17  1  0
 10 11  2  0
 10  9  1  0
 11 19  1  0
  9  8  2  0
 19  7  2  0
  8  7  1  0
  7 29  1  0
 24  6  2  0
 29  6  1  0
  6 25  1  0
 25  5  1  0
  4  5  2  0
  4  3  1  0
  5 21  1  0
  3  2  2  0
 21 23  1  0
 21  1  2  0
  2  1  1  0
  2 20  1  0
  1 32  1  0
  3 33  1  0
  4 34  1  0
  8 35  1  0
  9 36  1  0
 10 37  1  0
 13 38  1  0
 14 39  1  0
 17 40  1  0
 18 41  1  0
 19 42  1  0
 22 43  1  0
 23 44  1  0
 23 45  1  0
 25 46  1  0
 29 47  1  0
 31 48  1  0
M  END
