
     RDKit          3D

 80 82  0  0  0  0  0  0  0  0999 V2000
    6.2127    1.2385   -0.4254 C   0  0  0  0  0  0  0  0  0  0  0  0
    5.1764    1.3785   -1.3501 C   0  0  0  0  0  0  0  0  0  0  0  0
    5.1743    2.3794   -2.3224 C   0  0  0  0  0  0  0  0  0  0  0  0
    6.2430    3.2714   -2.3442 C   0  0  0  0  0  0  0  0  0  0  0  0
    7.2773    3.1654   -1.4266 C   0  0  0  0  0  0  0  0  0  0  0  0
    7.2632    2.1511   -0.4808 C   0  0  0  0  0  0  0  0  0  0  0  0
    4.0725    2.4607   -3.3385 C   0  0  0  0  0  0  0  0  0  0  0  0
    6.2093    0.1179    0.5740 C   0  0  0  0  0  0  0  0  0  0  0  0
   -5.9121    0.2508    0.6234 C   0  0  0  0  0  0  0  0  0  0  0  0
   -7.3048    0.1996    0.5599 C   0  0  0  0  0  0  0  0  0  0  0  0
   -8.0912    0.9395    1.4197 C   0  0  0  0  0  0  0  0  0  0  0  0
   -7.5082    1.7505    2.4058 C   0  0  0  0  0  0  0  0  0  0  0  0
   -6.1086    1.7823    2.4879 C   0  0  0  0  0  0  0  0  0  0  0  0
   -8.2816    2.4453    3.2950 N   0  0  0  0  0  0  0  0  0  0  0  0
   -5.3324    1.0495    1.6109 C   0  0  0  0  0  0  0  0  0  0  0  0
    4.1453    0.4756   -1.3290 O   0  0  0  0  0  0  0  0  0  0  0  0
    3.0814    0.8445   -0.4878 C   0  0  0  0  0  0  0  0  0  0  0  0
    2.0994   -0.3120   -0.4154 C   0  0  0  0  0  0  0  0  0  0  0  0
    2.2100   -1.3056   -1.1068 O   0  0  0  0  0  0  0  0  0  0  0  0
    1.1066   -0.1014    0.4708 N   0  0  0  0  0  0  0  0  0  0  0  0
   -1.2807   -0.7055    0.5674 C   0  0  1  0  0  0  0  0  0  0  0  0
   -1.6674    0.4320    1.3160 O   0  0  0  0  0  0  0  0  0  0  0  0
   -1.4965   -0.5165   -0.9361 C   0  0  0  0  0  0  0  0  0  0  0  0
   -2.9147   -0.8244   -1.4160 C   0  0  2  0  0  0  0  0  0  0  0  0
   -3.1050   -0.4932   -2.8995 C   0  0  0  0  0  0  0  0  0  0  0  0
   -2.1720   -1.2163   -3.8732 C   0  0  1  0  0  0  0  0  0  0  0  0
   -2.2764   -2.7341   -3.7556 C   0  0  0  0  0  0  0  0  0  0  0  0
   -2.4766   -0.7691   -5.2999 C   0  0  0  0  0  0  0  0  0  0  0  0
   -3.8840   -0.1103   -0.6066 N   0  0  0  0  0  0  0  0  0  0  0  0
   -5.1129   -0.5745   -0.3204 C   0  0  0  0  0  0  0  0  0  0  0  0
   -5.5590   -1.6136   -0.7987 O   0  0  0  0  0  0  0  0  0  0  0  0
    0.1611   -1.1170    0.8857 C   0  0  2  0  0  0  0  0  0  0  0  0
    0.3560   -1.4455    2.3718 C   0  0  0  0  0  0  0  0  0  0  0  0
    1.7668   -1.8701    2.6642 C   0  0  0  0  0  0  0  0  0  0  0  0
    2.6874   -0.9763    3.2050 C   0  0  0  0  0  0  0  0  0  0  0  0
    4.0058   -1.3544    3.4253 C   0  0  0  0  0  0  0  0  0  0  0  0
    4.4242   -2.6384    3.1048 C   0  0  0  0  0  0  0  0  0  0  0  0
    3.5138   -3.5410    2.5689 C   0  0  0  0  0  0  0  0  0  0  0  0
    2.1981   -3.1576    2.3514 C   0  0  0  0  0  0  0  0  0  0  0  0
    6.2630    4.0562   -3.0906 H   0  0  0  0  0  0  0  0  0  0  0  0
    8.1018    3.8657   -1.4565 H   0  0  0  0  0  0  0  0  0  0  0  0
    8.0793    2.0611    0.2259 H   0  0  0  0  0  0  0  0  0  0  0  0
    4.0202    1.5533   -3.9417 H   0  0  0  0  0  0  0  0  0  0  0  0
    3.0914    2.5960   -2.8811 H   0  0  0  0  0  0  0  0  0  0  0  0
    4.2326    3.2990   -4.0146 H   0  0  0  0  0  0  0  0  0  0  0  0
    6.1608   -0.8561    0.0857 H   0  0  0  0  0  0  0  0  0  0  0  0
    7.1143    0.1416    1.1791 H   0  0  0  0  0  0  0  0  0  0  0  0
    5.3607    0.1671    1.2577 H   0  0  0  0  0  0  0  0  0  0  0  0
   -7.7850   -0.4201   -0.1868 H   0  0  0  0  0  0  0  0  0  0  0  0
   -9.1704    0.8938    1.3340 H   0  0  0  0  0  0  0  0  0  0  0  0
   -5.6304    2.3792    3.2552 H   0  0  0  0  0  0  0  0  0  0  0  0
   -9.2363    2.6217    3.0289 H   0  0  0  0  0  0  0  0  0  0  0  0
   -7.8528    3.2294    3.7586 H   0  0  0  0  0  0  0  0  0  0  0  0
   -4.2555    1.0818    1.7311 H   0  0  0  0  0  0  0  0  0  0  0  0
    2.5598    1.7357   -0.8607 H   0  0  0  0  0  0  0  0  0  0  0  0
    3.4297    1.0863    0.5234 H   0  0  0  0  0  0  0  0  0  0  0  0
    1.1733    0.7231    1.0494 H   0  0  0  0  0  0  0  0  0  0  0  0
   -1.9226   -1.5206    0.9196 H   0  0  0  0  0  0  0  0  0  0  0  0
   -1.2559    1.2118    0.9283 H   0  0  0  0  0  0  0  0  0  0  0  0
   -0.8119   -1.1712   -1.4792 H   0  0  0  0  0  0  0  0  0  0  0  0
   -1.2141    0.5030   -1.2264 H   0  0  0  0  0  0  0  0  0  0  0  0
   -3.1023   -1.8899   -1.2614 H   0  0  0  0  0  0  0  0  0  0  0  0
   -2.9868    0.5887   -3.0271 H   0  0  0  0  0  0  0  0  0  0  0  0
   -4.1399   -0.7276   -3.1701 H   0  0  0  0  0  0  0  0  0  0  0  0
   -1.1387   -0.9270   -3.6522 H   0  0  0  0  0  0  0  0  0  0  0  0
   -3.3017   -3.0697   -3.9320 H   0  0  0  0  0  0  0  0  0  0  0  0
   -1.6371   -3.2247   -4.4918 H   0  0  0  0  0  0  0  0  0  0  0  0
   -1.9737   -3.0998   -2.7730 H   0  0  0  0  0  0  0  0  0  0  0  0
   -3.4978   -1.0358   -5.5832 H   0  0  0  0  0  0  0  0  0  0  0  0
   -2.3747    0.3122   -5.4088 H   0  0  0  0  0  0  0  0  0  0  0  0
   -1.8004   -1.2396   -6.0156 H   0  0  0  0  0  0  0  0  0  0  0  0
   -3.6305    0.8090   -0.2848 H   0  0  0  0  0  0  0  0  0  0  0  0
    0.3797   -2.0144    0.3045 H   0  0  0  0  0  0  0  0  0  0  0  0
    0.0888   -0.5763    2.9773 H   0  0  0  0  0  0  0  0  0  0  0  0
   -0.3449   -2.2411    2.6381 H   0  0  0  0  0  0  0  0  0  0  0  0
    2.3702    0.0277    3.4640 H   0  0  0  0  0  0  0  0  0  0  0  0
    4.7053   -0.6451    3.8492 H   0  0  0  0  0  0  0  0  0  0  0  0
    5.4508   -2.9351    3.2763 H   0  0  0  0  0  0  0  0  0  0  0  0
    3.8283   -4.5468    2.3206 H   0  0  0  0  0  0  0  0  0  0  0  0
    1.4948   -3.8694    1.9330 H   0  0  0  0  0  0  0  0  0  0  0  0
  1  2  2  0
  1  6  1  0
  1  8  1  0
  2  3  1  0
  2 16  1  0
  3  4  2  0
  3  7  1  0
  4  5  1  0
  4 40  1  0
  5  6  2  0
  5 41  1  0
  6 42  1  0
  7 43  1  0
  7 44  1  0
  7 45  1  0
  8 46  1  0
  8 47  1  0
  8 48  1  0
  9 10  2  0
  9 15  1  0
  9 30  1  0
 10 11  1  0
 10 49  1  0
 11 12  2  0
 11 50  1  0
 12 13  1  0
 12 14  1  0
 13 15  2  0
 13 51  1  0
 14 52  1  0
 14 53  1  0
 15 54  1  0
 16 17  1  0
 17 18  1  0
 17 55  1  0
 17 56  1  0
 18 19  2  0
 18 20  1  0
 20 32  1  0
 20 57  1  0
 21 22  1  0
 21 23  1  0
 21 32  1  0
 21 58  1  1
 22 59  1  0
 23 24  1  0
 23 60  1  0
 23 61  1  0
 24 25  1  0
 24 29  1  0
 24 62  1  6
 25 26  1  0
 25 63  1  0
 25 64  1  0
 26 27  1  0
 26 28  1  0
 26 65  1  1
 27 66  1  0
 27 67  1  0
 27 68  1  0
 28 69  1  0
 28 70  1  0
 28 71  1  0
 29 30  1  0
 29 72  1  0
 30 31  2  0
 32 33  1  0
 32 73  1  6
 33 34  1  0
 33 74  1  0
 33 75  1  0
 34 35  2  0
 34 39  1  0
 35 36  1  0
 35 76  1  0
 36 37  2  0
 36 77  1  0
 37 38  1  0
 37 78  1  0
 38 39  2  0
 38 79  1  0
 39 80  1  0
M  END
