
     RDKit          3D

 27 28  0  0  0  0  0  0  0  0999 V2000
    1.8521   -0.9213    0.2398 C   0  0  0  0  0  0  0  0  0  0  0  0
    2.6111    2.7558   -1.1889 N   0  0  0  0  0  0  0  0  0  0  0  0
    2.3591    1.5248   -0.7105 C   0  0  0  0  0  0  0  0  0  0  0  0
    1.0950    1.0941   -0.7951 N   0  0  0  0  0  0  0  0  0  0  0  0
    0.8741   -0.1242   -0.3131 C   0  0  0  0  0  0  0  0  0  0  0  0
   -0.5125   -0.6433   -0.4251 C   0  0  0  0  0  0  0  0  0  0  0  0
   -0.7471   -1.7846   -1.1844 C   0  0  0  0  0  0  0  0  0  0  0  0
   -2.0283   -2.2915   -1.3334 C   0  0  0  0  0  0  0  0  0  0  0  0
   -3.0974   -1.6652   -0.7164 C   0  0  0  0  0  0  0  0  0  0  0  0
   -2.8750   -0.5348    0.0552 C   0  0  0  0  0  0  0  0  0  0  0  0
   -4.2131    0.2212    0.8354 Cl  0  0  0  0  0  0  0  0  0  0  0  0
   -1.5898   -0.0212    0.2039 C   0  0  0  0  0  0  0  0  0  0  0  0
   -1.3337    1.3501    1.2118 Cl  0  0  0  0  0  0  0  0  0  0  0  0
    3.1506   -0.3701    0.2718 C   0  0  0  0  0  0  0  0  0  0  0  0
    4.1934   -1.0383    0.7836 N   0  0  0  0  0  0  0  0  0  0  0  0
    4.1270   -2.3791    1.3047 C   0  0  0  0  0  0  0  0  0  0  0  0
    3.3908    0.8517   -0.2047 N   0  0  0  0  0  0  0  0  0  0  0  0
    1.6252   -1.9030    0.6271 H   0  0  0  0  0  0  0  0  0  0  0  0
    1.8687    3.3163   -1.5657 H   0  0  0  0  0  0  0  0  0  0  0  0
    3.5409    3.1325   -1.1653 H   0  0  0  0  0  0  0  0  0  0  0  0
    0.0871   -2.2696   -1.6737 H   0  0  0  0  0  0  0  0  0  0  0  0
   -2.1970   -3.1754   -1.9327 H   0  0  0  0  0  0  0  0  0  0  0  0
   -4.1013   -2.0511   -0.8265 H   0  0  0  0  0  0  0  0  0  0  0  0
    5.0906   -0.5863    0.7262 H   0  0  0  0  0  0  0  0  0  0  0  0
    3.8185   -3.1029    0.5467 H   0  0  0  0  0  0  0  0  0  0  0  0
    5.1164   -2.6605    1.6533 H   0  0  0  0  0  0  0  0  0  0  0  0
    3.4394   -2.4549    2.1492 H   0  0  0  0  0  0  0  0  0  0  0  0
  1  5  2  0
  1 14  1  0
  2  3  1  0
  3  4  2  0
  3 17  1  0
  4  5  1  0
  5  6  1  0
  6  7  2  0
  6 12  1  0
  7  8  1  0
  8  9  2  0
  9 10  1  0
 10 12  2  0
 12 13  1  0
 14 15  1  0
 14 17  2  0
 15 16  1  0
 10 11  1  0
  1 18  1  0
  2 19  1  0
  2 20  1  0
  7 21  1  0
  8 22  1  0
  9 23  1  0
 15 24  1  0
 16 25  1  0
 16 26  1  0
 16 27  1  0
M  END
