
     RDKit          3D

 26 27  0  0  0  0  0  0  0  0999 V2000
    3.0021    2.1184    0.6762 O   0  0  0  0  0  0  0  0  0  0  0  0
    4.4239    0.7801   -0.4000 O   0  0  0  0  0  0  0  0  0  0  0  0
   -4.2876    1.0460   -0.9394 C   0  0  0  0  0  0  0  0  0  0  0  0
   -3.0906    0.8223   -1.6021 C   0  0  0  0  0  0  0  0  0  0  0  0
   -4.4040    0.6717    0.3945 C   0  0  0  0  0  0  0  0  0  0  0  0
    1.6667   -2.2926   -0.5979 C   0  0  0  0  0  0  0  0  0  0  0  0
   -2.0120    0.2330   -0.9519 C   0  0  0  0  0  0  0  0  0  0  0  0
   -3.3392    0.0852    1.0588 C   0  0  0  0  0  0  0  0  0  0  0  0
    0.3995   -2.1063   -0.0650 C   0  0  0  0  0  0  0  0  0  0  0  0
    2.6096   -1.2776   -0.5424 C   0  0  0  0  0  0  0  0  0  0  0  0
    1.0150    0.1295    0.5958 C   0  0  0  0  0  0  0  0  0  0  0  0
    3.2538    1.0601    0.1524 C   0  0  0  0  0  0  0  0  0  0  0  0
   -2.1424   -0.1332    0.3822 C   0  0  0  0  0  0  0  0  0  0  0  0
    0.0858   -0.8938    0.5313 C   0  0  0  0  0  0  0  0  0  0  0  0
    2.2848   -0.0623    0.0578 C   0  0  0  0  0  0  0  0  0  0  0  0
   -2.9823    1.1059   -2.6409 H   0  0  0  0  0  0  0  0  0  0  0  0
   -5.3323    0.8371    0.9260 H   0  0  0  0  0  0  0  0  0  0  0  0
    1.9202   -3.2367   -1.0604 H   0  0  0  0  0  0  0  0  0  0  0  0
   -1.0899    0.0687   -1.4937 H   0  0  0  0  0  0  0  0  0  0  0  0
   -3.4311   -0.2060    2.0976 H   0  0  0  0  0  0  0  0  0  0  0  0
   -0.3385   -2.8972   -0.1060 H   0  0  0  0  0  0  0  0  0  0  0  0
    3.5907   -1.4452   -0.9635 H   0  0  0  0  0  0  0  0  0  0  0  0
    0.7508    1.0683    1.0657 H   0  0  0  0  0  0  0  0  0  0  0  0
    5.0218    1.5381   -0.3168 H   0  0  0  0  0  0  0  0  0  0  0  0
   -1.1472   -0.7256    1.1041 O   0  0  0  0  0  0  0  0  0  0  0  0
   -5.1209    1.5048   -1.4538 H   0  0  0  0  0  0  0  0  0  0  0  0
  1 12  2  0
  2 12  1  0
  3  4  2  0
  3  5  1  0
  4  7  1  0
  5  8  2  0
  6  9  2  0
  6 10  1  0
  7 13  2  0
  8 13  1  0
  9 14  1  0
 10 15  2  0
 11 14  2  0
 11 15  1  0
 25 13  1  0
 25 14  1  0
 12 15  1  0
  3 26  1  0
  4 16  1  0
  5 17  1  0
  6 18  1  0
  7 19  1  0
  8 20  1  0
  9 21  1  0
 10 22  1  0
 11 23  1  0
  2 24  1  0
M  END
