
     RDKit          3D

 18 18  0  0  0  0  0  0  0  0999 V2000
    0.0398   -0.3573   -0.3098 N   0  0  0  0  0  0  0  0  0  0  0  0
    0.3690   -0.1733    1.0342 C   0  0  0  0  0  0  0  0  0  0  0  0
    1.5961    0.2740    1.5472 C   0  0  0  0  0  0  0  0  0  0  0  0
   -0.4285   -0.4631    2.1295 C   0  0  0  0  0  0  0  0  0  0  0  0
    1.5070    0.2420    2.9339 C   0  0  0  0  0  0  0  0  0  0  0  0
    0.2640   -0.2143    3.2688 N   0  0  0  0  0  0  0  0  0  0  0  0
   -0.2944   -0.4076    4.5916 C   0  0  0  0  0  0  0  0  0  0  0  0
    2.5160    0.6073    3.9095 C   0  0  0  0  0  0  0  0  0  0  0  0
    2.3943    0.5396    5.1144 O   0  0  0  0  0  0  0  0  0  0  0  0
    3.6323    1.0404    3.3229 O   0  0  0  0  0  0  0  0  0  0  0  0
   -0.9568   -0.3509   -0.4694 H   0  0  0  0  0  0  0  0  0  0  0  0
    0.4636    0.3356   -0.9089 H   0  0  0  0  0  0  0  0  0  0  0  0
    2.4551    0.5877    0.9742 H   0  0  0  0  0  0  0  0  0  0  0  0
   -1.4424   -0.8303    2.1656 H   0  0  0  0  0  0  0  0  0  0  0  0
    0.2648   -1.1527    5.1522 H   0  0  0  0  0  0  0  0  0  0  0  0
   -0.3079    0.5220    5.1551 H   0  0  0  0  0  0  0  0  0  0  0  0
   -1.3169   -0.7558    4.4755 H   0  0  0  0  0  0  0  0  0  0  0  0
    4.2837    1.2672    4.0019 H   0  0  0  0  0  0  0  0  0  0  0  0
  1  2  1  0
  1 11  1  0
  1 12  1  0
  2  3  1  0
  2  4  2  0
  3  5  2  0
  3 13  1  0
  4  6  1  0
  4 14  1  0
  5  6  1  0
  5  8  1  0
  6  7  1  0
  7 15  1  0
  7 16  1  0
  7 17  1  0
  8  9  2  0
  8 10  1  0
 10 18  1  0
M  END
