
     RDKit          3D

 29 30  0  0  0  0  0  0  0  0999 V2000
    3.8669    2.0904   -0.1267 B   0  0  0  0  0  0  0  0  0  0  0  0
    4.5244    1.8208   -1.2800 O   0  0  0  0  0  0  0  0  0  0  0  0
    4.0178    3.2988    0.4780 O   0  0  0  0  0  0  0  0  0  0  0  0
    2.9209    0.9741    0.4936 C   0  0  0  0  0  0  0  0  0  0  0  0
    2.9289   -0.2535   -0.2909 N   0  0  0  0  0  0  0  0  0  0  0  0
    2.0344   -1.5318    0.2083 S   0  0  1  0  0  0  0  0  0  0  0  0
    2.2243   -2.5825   -0.7776 O   0  0  0  0  0  0  0  0  0  0  0  0
    2.3565   -1.7703    1.6047 O   0  0  0  0  0  0  0  0  0  0  0  0
    0.3339   -1.0190    0.1363 C   0  0  0  0  0  0  0  0  0  0  0  0
   -0.2746   -0.4788    1.2614 C   0  0  0  0  0  0  0  0  0  0  0  0
   -1.5853   -0.0418    1.1788 C   0  0  0  0  0  0  0  0  0  0  0  0
   -2.2869   -0.1507   -0.0196 C   0  0  0  0  0  0  0  0  0  0  0  0
   -3.6661    0.3158   -0.0762 C   0  0  0  0  0  0  0  0  0  0  0  0
   -4.5380    0.1176   -1.0688 N   0  0  0  0  0  0  0  0  0  0  0  0
   -5.6850    0.6903   -0.7567 N   0  0  0  0  0  0  0  0  0  0  0  0
   -5.5216    1.2235    0.3900 N   0  0  0  0  0  0  0  0  0  0  0  0
   -4.2901    1.0156    0.8446 N   0  0  0  0  0  0  0  0  0  0  0  0
   -1.6635   -0.6984   -1.1393 C   0  0  0  0  0  0  0  0  0  0  0  0
   -0.3528   -1.1326   -1.0651 C   0  0  0  0  0  0  0  0  0  0  0  0
    5.0737    2.5439   -1.6016 H   0  0  0  0  0  0  0  0  0  0  0  0
    3.5057    3.4032    1.2851 H   0  0  0  0  0  0  0  0  0  0  0  0
    3.2736    0.7505    1.5032 H   0  0  0  0  0  0  0  0  0  0  0  0
    0.2533   -0.4043    2.2020 H   0  0  0  0  0  0  0  0  0  0  0  0
   -2.0637    0.3760    2.0535 H   0  0  0  0  0  0  0  0  0  0  0  0
   -4.4427   -0.3871   -1.9392 H   0  0  0  0  0  0  0  0  0  0  0  0
   -2.1840   -0.7902   -2.0831 H   0  0  0  0  0  0  0  0  0  0  0  0
    0.1169   -1.5575   -1.9413 H   0  0  0  0  0  0  0  0  0  0  0  0
    1.9093    1.3889    0.6094 H   0  0  0  0  0  0  0  0  0  0  0  0
    2.8828   -0.1274   -1.2957 H   0  0  0  0  0  0  0  0  0  0  0  0
  1  3  1  0
  1  2  1  0
  2 20  1  0
  3 21  1  0
  4  5  1  0
  4  1  1  0
  4 22  1  0
  6  7  2  0
  6  5  1  6
  8  6  2  0
  9 19  2  0
  9  6  1  0
 10  9  1  0
 10 23  1  0
 11 12  1  0
 11 10  2  0
 11 24  1  0
 12 18  2  0
 13 17  2  0
 13 12  1  0
 14 13  1  0
 14 25  1  0
 15 14  1  0
 15 16  2  0
 16 17  1  0
 18 19  1  0
 18 26  1  0
 19 27  1  0
  4 28  1  0
  5 29  1  0
M  END
