
     RDKit          3D

 29 31  0  0  0  0  0  0  0  0999 V2000
   -2.2208   -3.3237    0.4835 O   0  0  0  0  0  0  0  0  0  0  0  0
   -1.6068   -2.2832    0.5390 C   0  0  0  0  0  0  0  0  0  0  0  0
   -0.2922   -2.0743    1.0829 C   0  0  0  0  0  0  0  0  0  0  0  0
    0.3113   -0.8597    1.0969 C   0  0  0  0  0  0  0  0  0  0  0  0
    1.6765   -0.6216    1.6656 C   0  0  0  0  0  0  0  0  0  0  0  0
    2.5933    0.0349    0.6633 C   0  0  0  0  0  0  0  0  0  0  0  0
    3.0821   -0.6961   -0.4177 C   0  0  0  0  0  0  0  0  0  0  0  0
    3.9052   -0.0957   -1.3579 C   0  0  0  0  0  0  0  0  0  0  0  0
    4.2464    1.2463   -1.2313 C   0  0  0  0  0  0  0  0  0  0  0  0
    3.7628    1.9807   -0.1587 C   0  0  0  0  0  0  0  0  0  0  0  0
    2.9395    1.3763    0.7847 C   0  0  0  0  0  0  0  0  0  0  0  0
   -0.3232    0.2269    0.5774 N   0  0  0  0  0  0  0  0  0  0  0  0
   -1.5536    0.1119    0.0456 C   0  0  0  0  0  0  0  0  0  0  0  0
   -2.4290    1.0065   -0.5488 C   0  0  0  0  0  0  0  0  0  0  0  0
   -3.5514    0.2076   -0.8822 C   0  0  0  0  0  0  0  0  0  0  0  0
   -3.3908   -1.0390   -0.5344 N   0  0  0  0  0  0  0  0  0  0  0  0
   -2.1689   -1.0930    0.0318 N   0  0  0  0  0  0  0  0  0  0  0  0
   -2.2281    2.3797   -0.7639 C   0  0  0  0  0  0  0  0  0  0  0  0
   -2.0606    3.5077   -0.9405 N   0  0  0  0  0  0  0  0  0  0  0  0
    0.2206   -2.9311    1.4936 H   0  0  0  0  0  0  0  0  0  0  0  0
    1.5788    0.0075    2.5550 H   0  0  0  0  0  0  0  0  0  0  0  0
    2.0825   -1.5783    1.9931 H   0  0  0  0  0  0  0  0  0  0  0  0
    2.8183   -1.7420   -0.5226 H   0  0  0  0  0  0  0  0  0  0  0  0
    4.2834   -0.6752   -2.1900 H   0  0  0  0  0  0  0  0  0  0  0  0
    4.8882    1.7152   -1.9655 H   0  0  0  0  0  0  0  0  0  0  0  0
    4.0274    3.0244   -0.0506 H   0  0  0  0  0  0  0  0  0  0  0  0
    2.5689    1.9537    1.6240 H   0  0  0  0  0  0  0  0  0  0  0  0
    0.1327    1.1301    0.5767 H   0  0  0  0  0  0  0  0  0  0  0  0
   -4.4574    0.5376   -1.3669 H   0  0  0  0  0  0  0  0  0  0  0  0
 19 18  3  0
 18 14  1  0
  8  7  2  0
  8  9  1  0
  7  6  1  0
 14 15  1  0
 14 13  2  0
  9 10  2  0
 12 13  1  0
 12  4  1  0
 15 16  2  0
 13 17  1  0
  6  5  1  0
  6 11  2  0
  5  4  1  0
 10 11  1  0
  4  3  2  0
 16 17  1  0
 17  2  1  0
  3  2  1  0
  2  1  2  0
  3 20  1  0
  5 21  1  0
  5 22  1  0
  7 23  1  0
  8 24  1  0
  9 25  1  0
 10 26  1  0
 11 27  1  0
 12 28  1  0
 15 29  1  0
M  END
