
     RDKit          3D

 17 16  0  0  0  0  0  0  0  0999 V2000
    2.1185   -0.6028    0.8458 N   0  0  0  0  0  0  0  0  0  0  0  0
    1.2295    0.2062    1.6442 C   0  0  1  0  0  0  0  0  0  0  0  0
    0.3046    1.0674    0.7872 C   0  0  0  0  0  0  0  0  0  0  0  0
    0.3771   -0.5929    2.6227 C   0  0  0  0  0  0  0  0  0  0  0  0
   -0.0110   -1.7602    2.5249 O   0  0  0  0  0  0  0  0  0  0  0  0
    1.1044    2.0240   -0.4393 S   0  0  0  0  0  0  0  0  0  0  0  0
    2.4852    2.2390   -0.0094 O   0  0  0  0  0  0  0  0  0  0  0  0
    1.4079    0.7532   -1.6141 O   0  0  0  0  0  0  0  0  0  0  0  0
    2.5704    0.8151   -2.1241 O   0  0  0  0  0  0  0  0  0  0  0  0
    0.0101    0.0910    3.7394 O   0  0  0  0  0  0  0  0  0  0  0  0
    1.6116   -1.1862    0.2079 H   0  0  0  0  0  0  0  0  0  0  0  0
    2.7003   -1.1709    1.4295 H   0  0  0  0  0  0  0  0  0  0  0  0
    1.8770    0.8985    2.2721 H   0  0  0  0  0  0  0  0  0  0  0  0
   -0.4649    0.4272    0.2848 H   0  0  0  0  0  0  0  0  0  0  0  0
   -0.2445    1.7684    1.4700 H   0  0  0  0  0  0  0  0  0  0  0  0
    3.2370    0.5804   -1.4322 H   0  0  0  0  0  0  0  0  0  0  0  0
   -0.5282   -0.4813    4.3116 H   0  0  0  0  0  0  0  0  0  0  0  0
  1  2  1  0
  1 11  1  0
  1 12  1  0
  2  3  1  0
  2  4  1  0
  2 13  1  1
  3  6  1  0
  3 14  1  0
  3 15  1  0
  4  5  2  0
  4 10  1  0
  6  7  2  0
  6  8  1  6
  8  9  1  0
  9 16  1  0
 10 17  1  0
M  END
