
     RDKit          3D

 40 42  0  0  0  0  0  0  0  0999 V2000
   -4.1363    1.6917    0.0479 C   0  0  0  0  0  0  0  0  0  0  0  0
   -3.9645    0.9564    1.2757 C   0  0  0  0  0  0  0  0  0  0  0  0
   -2.8956    0.1580    1.4232 C   0  0  0  0  0  0  0  0  0  0  0  0
   -1.9418   -0.0146    0.4606 N   0  0  0  0  0  0  0  0  0  0  0  0
   -3.1198    1.4723   -0.8699 N   0  0  0  0  0  0  0  0  0  0  0  0
    4.4682    0.6442    1.0562 C   0  0  0  0  0  0  0  0  0  0  0  0
    2.7066   -0.8324    0.3165 C   0  0  0  0  0  0  0  0  0  0  0  0
    1.2972   -0.9379   -0.2215 C   0  0  2  0  0  0  0  0  0  0  0  0
    0.3981   -0.2398    0.6383 O   0  0  0  0  0  0  0  0  0  0  0  0
    0.7662   -2.3668   -0.2548 C   0  0  2  0  0  0  0  0  0  0  0  0
    1.2256   -3.0272   -1.4006 O   0  0  0  0  0  0  0  0  0  0  0  0
   -0.7423   -2.1331   -0.1979 C   0  0  1  0  0  0  0  0  0  0  0  0
   -1.5047   -3.1682    0.3590 O   0  0  0  0  0  0  0  0  0  0  0  0
   -0.8191   -0.9126    0.7217 C   0  0  2  0  0  0  0  0  0  0  0  0
   -5.0547    2.4458   -0.2143 O   0  0  0  0  0  0  0  0  0  0  0  0
   -2.0250    0.6577   -0.7445 C   0  0  0  0  0  0  0  0  0  0  0  0
   -1.2041    0.5426   -1.6288 O   0  0  0  0  0  0  0  0  0  0  0  0
    3.4193    1.1404   -0.9336 C   0  0  0  0  0  0  0  0  0  0  0  0
    4.3006    2.3606   -0.6306 C   0  0  0  0  0  0  0  0  0  0  0  0
    4.8890    2.0803    0.7670 C   0  0  0  0  0  0  0  0  0  0  0  0
    3.1973    0.5231    0.3648 N   0  0  0  0  0  0  0  0  0  0  0  0
   -4.6889    1.0574    2.0685 H   0  0  0  0  0  0  0  0  0  0  0  0
   -2.7372   -0.3994    2.3358 H   0  0  0  0  0  0  0  0  0  0  0  0
   -3.1860    1.9675   -1.7515 H   0  0  0  0  0  0  0  0  0  0  0  0
    4.3555    0.4306    2.1214 H   0  0  0  0  0  0  0  0  0  0  0  0
    2.7236   -1.2453    1.3299 H   0  0  0  0  0  0  0  0  0  0  0  0
    3.3528   -1.4808   -0.3023 H   0  0  0  0  0  0  0  0  0  0  0  0
    1.2395   -0.5166   -1.2326 H   0  0  0  0  0  0  0  0  0  0  0  0
    1.0770   -2.8891    0.6630 H   0  0  0  0  0  0  0  0  0  0  0  0
    1.0731   -3.9711   -1.2976 H   0  0  0  0  0  0  0  0  0  0  0  0
   -1.0858   -1.8846   -1.2077 H   0  0  0  0  0  0  0  0  0  0  0  0
   -1.7206   -3.7990   -0.3336 H   0  0  0  0  0  0  0  0  0  0  0  0
   -0.9788   -1.2617    1.7476 H   0  0  0  0  0  0  0  0  0  0  0  0
    2.4780    1.4158   -1.4131 H   0  0  0  0  0  0  0  0  0  0  0  0
    3.9440    0.4519   -1.6176 H   0  0  0  0  0  0  0  0  0  0  0  0
    5.0764    2.4721   -1.3877 H   0  0  0  0  0  0  0  0  0  0  0  0
    3.7176    3.2816   -0.6326 H   0  0  0  0  0  0  0  0  0  0  0  0
    4.4594    2.7562    1.5074 H   0  0  0  0  0  0  0  0  0  0  0  0
    5.9711    2.2028    0.8046 H   0  0  0  0  0  0  0  0  0  0  0  0
    5.2185   -0.0602    0.6567 H   0  0  0  0  0  0  0  0  0  0  0  0
  1  2  1  0
  1  5  1  0
  1 15  2  0
  2  3  2  0
  3  4  1  0
  4 14  1  0
  4 16  1  0
  5 16  1  0
  6 20  1  0
  6 21  1  0
  7  8  1  0
  7 21  1  0
  8  9  1  0
  8 10  1  0
  9 14  1  0
 10 11  1  0
 10 12  1  0
 12 13  1  0
 12 14  1  0
 16 17  2  0
 18 19  1  0
 18 21  1  0
 19 20  1  0
  2 22  1  0
  3 23  1  0
  5 24  1  0
  6 40  1  0
  6 25  1  0
  7 26  1  0
  7 27  1  0
  8 28  1  6
 10 29  1  1
 11 30  1  0
 12 31  1  6
 13 32  1  0
 14 33  1  1
 18 34  1  0
 18 35  1  0
 19 36  1  0
 19 37  1  0
 20 38  1  0
 20 39  1  0
M  END
