
     RDKit          3D

 27 27  0  0  0  0  0  0  0  0999 V2000
   -1.9435    0.0940   -0.3492 N   0  0  0  0  0  0  0  0  0  0  0  0
    0.1142   -1.1711   -0.0155 C   0  0  0  0  0  0  0  0  0  0  0  0
    0.1472    1.2740    0.0859 C   0  0  0  0  0  0  0  0  0  0  0  0
   -1.1941    1.3012   -0.6288 C   0  0  0  0  0  0  0  0  0  0  0  0
    2.7129   -0.0824    1.7527 C   0  0  0  0  0  0  0  0  0  0  0  0
   -3.7703   -1.1916    0.6531 C   0  0  0  0  0  0  0  0  0  0  0  0
   -3.1046    0.1296    0.3482 C   0  0  0  0  0  0  0  0  0  0  0  0
   -1.2259   -1.1032   -0.7314 C   0  0  0  0  0  0  0  0  0  0  0  0
    0.8639    0.0542   -0.2896 N   0  0  0  0  0  0  0  0  0  0  0  0
    2.4956    0.0185   -0.0105 S   0  0  1  0  0  0  0  0  0  0  0  0
    3.0323    1.2927   -0.4631 O   0  0  0  0  0  0  0  0  0  0  0  0
    3.0048   -1.2104   -0.5995 O   0  0  0  0  0  0  0  0  0  0  0  0
   -3.6081    1.1850    0.7083 O   0  0  0  0  0  0  0  0  0  0  0  0
   -0.0567   -1.3054    1.0600 H   0  0  0  0  0  0  0  0  0  0  0  0
    0.6655   -2.0323   -0.3865 H   0  0  0  0  0  0  0  0  0  0  0  0
    0.7225    2.1460   -0.2165 H   0  0  0  0  0  0  0  0  0  0  0  0
   -0.0156    1.3250    1.1695 H   0  0  0  0  0  0  0  0  0  0  0  0
   -1.0320    1.3826   -1.7074 H   0  0  0  0  0  0  0  0  0  0  0  0
   -1.7565    2.1719   -0.3050 H   0  0  0  0  0  0  0  0  0  0  0  0
    2.2418   -0.9881    2.1284 H   0  0  0  0  0  0  0  0  0  0  0  0
    3.7825   -0.1157    1.9546 H   0  0  0  0  0  0  0  0  0  0  0  0
    2.2784    0.7947    2.2277 H   0  0  0  0  0  0  0  0  0  0  0  0
   -3.1369   -1.8363    1.2630 H   0  0  0  0  0  0  0  0  0  0  0  0
   -4.6905   -1.0029    1.1995 H   0  0  0  0  0  0  0  0  0  0  0  0
   -4.0176   -1.7392   -0.2572 H   0  0  0  0  0  0  0  0  0  0  0  0
   -1.7930   -1.9989   -0.4973 H   0  0  0  0  0  0  0  0  0  0  0  0
   -1.0605   -1.0930   -1.8124 H   0  0  0  0  0  0  0  0  0  0  0  0
 11 10  2  0
 12 10  2  0
 10  9  1  0
 10  5  1  1
  9  3  1  0
  9  2  1  0
  3  4  1  0
  4  1  1  0
  8  2  1  0
  8  1  1  0
  1  7  1  0
  7 13  2  0
  7  6  1  0
  2 14  1  0
  2 15  1  0
  3 16  1  0
  3 17  1  0
  4 18  1  0
  4 19  1  0
  5 20  1  0
  5 21  1  0
  5 22  1  0
  6 23  1  0
  6 24  1  0
  6 25  1  0
  8 26  1  0
  8 27  1  0
M  END
