
     RDKit          3D

 23 22  0  0  0  0  0  0  0  0999 V2000
    4.5459   -1.1619    0.0237 C   0  0  0  0  0  0  0  0  0  0  0  0
    3.4385   -0.1175    0.0250 C   0  0  0  0  0  0  0  0  0  0  0  0
    2.0684   -0.7853    0.0247 C   0  0  0  0  0  0  0  0  0  0  0  0
   -0.7431   -0.5209    0.0295 C   0  0  0  0  0  0  0  0  0  0  0  0
   -1.9393    0.4141    0.0298 C   0  0  0  0  0  0  0  0  0  0  0  0
   -3.2365   -0.3506    0.0254 C   0  0  0  0  0  0  0  0  0  0  0  0
    0.8383    1.2071    1.2692 O   0  0  0  0  0  0  0  0  0  0  0  0
    0.8319    1.1938   -1.2353 O   0  0  0  0  0  0  0  0  0  0  0  0
   -3.3283   -1.5512    0.0038 O   0  0  0  0  0  0  0  0  0  0  0  0
   -4.2780    0.4688    0.0468 O   0  0  0  0  0  0  0  0  0  0  0  0
    0.7679    0.4427    0.0211 S   0  0  1  0  0  0  0  0  0  0  0  0
    5.5241   -0.6822    0.0265 H   0  0  0  0  0  0  0  0  0  0  0  0
    4.4860   -1.8030    0.9038 H   0  0  0  0  0  0  0  0  0  0  0  0
    4.4885   -1.7981   -0.8601 H   0  0  0  0  0  0  0  0  0  0  0  0
    3.5343    0.5225    0.9034 H   0  0  0  0  0  0  0  0  0  0  0  0
    3.5345    0.5247   -0.8519 H   0  0  0  0  0  0  0  0  0  0  0  0
    1.9239   -1.4086   -0.8600 H   0  0  0  0  0  0  0  0  0  0  0  0
    1.9223   -1.4050    0.9117 H   0  0  0  0  0  0  0  0  0  0  0  0
   -0.7158   -1.1517    0.9187 H   0  0  0  0  0  0  0  0  0  0  0  0
   -0.7206   -1.1584   -0.8550 H   0  0  0  0  0  0  0  0  0  0  0  0
   -1.9256    1.0669    0.9061 H   0  0  0  0  0  0  0  0  0  0  0  0
   -1.9237    1.0690   -0.8454 H   0  0  0  0  0  0  0  0  0  0  0  0
   -5.1032   -0.0395    0.0429 H   0  0  0  0  0  0  0  0  0  0  0  0
  1  2  1  0
  2  3  1  0
 11  3  1  6
  4  5  1  0
  4 11  1  0
  5  6  1  0
  6  9  2  0
  6 10  1  0
  7 11  2  0
  8 11  2  0
  1 12  1  0
  1 13  1  0
  1 14  1  0
  2 15  1  0
  2 16  1  0
  3 17  1  0
  3 18  1  0
  4 19  1  0
  4 20  1  0
  5 21  1  0
  5 22  1  0
 10 23  1  0
M  END
