
     RDKit          3D

 27 26  0  0  0  0  0  0  0  0999 V2000
    1.2127    2.4401   -5.1195 O   0  0  0  0  0  0  0  0  0  0  0  0
    1.8019    2.6035   -3.9268 C   0  0  0  0  0  0  0  0  0  0  0  0
    2.5903    1.5632   -3.6192 N   0  0  0  0  0  0  0  0  0  0  0  0
    3.2745    1.4595   -2.3473 C   0  0  0  0  0  0  0  0  0  0  0  0
    2.3753    1.0313   -1.1927 C   0  0  0  0  0  0  0  0  0  0  0  0
    1.7534   -0.3463   -1.3795 C   0  0  0  0  0  0  0  0  0  0  0  0
    0.8516   -0.7485   -0.2190 C   0  0  0  0  0  0  0  0  0  0  0  0
    0.2260   -2.1255   -0.3982 C   0  0  0  0  0  0  0  0  0  0  0  0
   -0.6931   -2.5099    0.7506 C   0  0  0  0  0  0  0  0  0  0  0  0
   -1.2535   -3.8401    0.5518 N   0  0  0  0  0  0  0  0  0  0  0  0
    1.6369    3.5895   -3.2329 O   0  0  0  0  0  0  0  0  0  0  0  0
    0.6610    3.2112   -5.3029 H   0  0  0  0  0  0  0  0  0  0  0  0
    2.6152    0.7751   -4.2447 H   0  0  0  0  0  0  0  0  0  0  0  0
    3.7469    2.4157   -2.1178 H   0  0  0  0  0  0  0  0  0  0  0  0
    4.0789    0.7351   -2.4791 H   0  0  0  0  0  0  0  0  0  0  0  0
    1.5901    1.7793   -1.0509 H   0  0  0  0  0  0  0  0  0  0  0  0
    2.9774    1.0403   -0.2789 H   0  0  0  0  0  0  0  0  0  0  0  0
    2.5473   -1.0919   -1.4987 H   0  0  0  0  0  0  0  0  0  0  0  0
    1.1709   -0.3655   -2.3063 H   0  0  0  0  0  0  0  0  0  0  0  0
    1.4274   -0.7292    0.7129 H   0  0  0  0  0  0  0  0  0  0  0  0
    0.0609    0.0008   -0.1039 H   0  0  0  0  0  0  0  0  0  0  0  0
    1.0116   -2.8814   -0.4951 H   0  0  0  0  0  0  0  0  0  0  0  0
   -0.3416   -2.1456   -1.3360 H   0  0  0  0  0  0  0  0  0  0  0  0
   -1.4568   -1.7271    0.8698 H   0  0  0  0  0  0  0  0  0  0  0  0
   -0.1175   -2.5178    1.6807 H   0  0  0  0  0  0  0  0  0  0  0  0
   -1.8558   -3.8269   -0.2626 H   0  0  0  0  0  0  0  0  0  0  0  0
   -1.8599   -4.0680    1.3297 H   0  0  0  0  0  0  0  0  0  0  0  0
  1  2  1  0
  1 12  1  0
  2  3  1  0
  2 11  2  0
  3  4  1  0
  3 13  1  0
  4  5  1  0
  4 14  1  0
  4 15  1  0
  5  6  1  0
  5 16  1  0
  5 17  1  0
  6  7  1  0
  6 18  1  0
  6 19  1  0
  7  8  1  0
  7 20  1  0
  7 21  1  0
  8  9  1  0
  8 22  1  0
  8 23  1  0
  9 10  1  0
  9 24  1  0
  9 25  1  0
 10 26  1  0
 10 27  1  0
M  END
