
     RDKit          3D

 67 72  0  0  0  0  0  0  0  0999 V2000
   -8.4368   -1.1622    2.6150 C   0  0  0  0  0  0  0  0  0  0  0  0
   -7.5246   -1.6954    1.6309 N   0  0  0  0  0  0  0  0  0  0  0  0
   -6.4962   -0.9843    1.1695 C   0  0  0  0  0  0  0  0  0  0  0  0
   -6.2287    0.2338    1.5225 N   0  0  0  0  0  0  0  0  0  0  0  0
   -5.3963   -1.7002   -0.0149 S   0  0  0  0  0  0  0  0  0  0  0  0
   -4.5104   -0.2015   -0.0257 C   0  0  0  0  0  0  0  0  0  0  0  0
   -3.3861    0.1287   -0.7614 C   0  0  0  0  0  0  0  0  0  0  0  0
   -5.1190    0.7003    0.8645 C   0  0  0  0  0  0  0  0  0  0  0  0
   -4.5622    1.9693    1.0067 C   0  0  0  0  0  0  0  0  0  0  0  0
   -3.4391    2.3060    0.2687 C   0  0  0  0  0  0  0  0  0  0  0  0
   -2.8447    1.4039   -0.6206 C   0  0  0  0  0  0  0  0  0  0  0  0
   -1.6485    1.7943   -1.4110 C   0  0  0  0  0  0  0  0  0  0  0  0
   -0.3663    1.5529   -0.8741 C   0  0  0  0  0  0  0  0  0  0  0  0
   -0.2640    0.9794    0.3609 N   0  0  0  0  0  0  0  0  0  0  0  0
   -1.8033    2.3881   -2.6612 C   0  0  0  0  0  0  0  0  0  0  0  0
   -3.1726    2.6114   -3.2344 C   0  0  0  0  0  0  0  0  0  0  0  0
   -0.6731    2.7725   -3.3848 C   0  0  0  0  0  0  0  0  0  0  0  0
    0.5841    2.5463   -2.8644 C   0  0  0  0  0  0  0  0  0  0  0  0
    0.7664    1.9162   -1.6347 C   0  0  0  0  0  0  0  0  0  0  0  0
    2.1635    1.6969   -1.1933 C   0  0  0  0  0  0  0  0  0  0  0  0
    3.0237    2.5340   -1.4146 O   0  0  0  0  0  0  0  0  0  0  0  0
    2.5010    0.4356   -0.5341 C   0  0  0  0  0  0  0  0  0  0  0  0
    1.9187   -0.8574   -0.8288 C   0  0  0  0  0  0  0  0  0  0  0  0
    1.0445   -1.1976   -1.6035 O   0  0  0  0  0  0  0  0  0  0  0  0
    2.6629   -1.7513   -0.0632 N   0  0  0  0  0  0  0  0  0  0  0  0
    2.7802   -3.1279   -0.3502 C   0  0  0  0  0  0  0  0  0  0  0  0
    1.6585   -3.9375   -0.2263 C   0  0  0  0  0  0  0  0  0  0  0  0
    1.7539   -5.2873   -0.5327 C   0  0  0  0  0  0  0  0  0  0  0  0
    2.9654   -5.8312   -0.9380 C   0  0  0  0  0  0  0  0  0  0  0  0
    4.0848   -5.0166   -1.0496 C   0  0  0  0  0  0  0  0  0  0  0  0
    3.9944   -3.6613   -0.7700 C   0  0  0  0  0  0  0  0  0  0  0  0
    3.6878   -1.0923    0.5791 N   0  0  0  0  0  0  0  0  0  0  0  0
    4.1374   -1.6433    1.8482 C   0  0  0  0  0  0  0  0  0  0  0  0
    3.5590    0.2232    0.3206 C   0  0  0  0  0  0  0  0  0  0  0  0
    4.4414    1.2042    0.9579 C   0  0  0  0  0  0  0  0  0  0  0  0
    3.9000    2.2667    1.6764 C   0  0  0  0  0  0  0  0  0  0  0  0
    4.7359    3.1944    2.2773 C   0  0  0  0  0  0  0  0  0  0  0  0
    6.1149    3.0706    2.1595 C   0  0  0  0  0  0  0  0  0  0  0  0
    6.6572    2.0121    1.4428 C   0  0  0  0  0  0  0  0  0  0  0  0
    5.8244    1.0777    0.8456 C   0  0  0  0  0  0  0  0  0  0  0  0
   -7.9368   -0.9630    3.5641 H   0  0  0  0  0  0  0  0  0  0  0  0
   -8.8945   -0.2355    2.2683 H   0  0  0  0  0  0  0  0  0  0  0  0
   -9.2213   -1.8940    2.7826 H   0  0  0  0  0  0  0  0  0  0  0  0
   -7.6444   -2.6472    1.3308 H   0  0  0  0  0  0  0  0  0  0  0  0
   -2.9325   -0.5818   -1.4409 H   0  0  0  0  0  0  0  0  0  0  0  0
   -5.0103    2.6811    1.6877 H   0  0  0  0  0  0  0  0  0  0  0  0
   -3.0126    3.2955    0.3780 H   0  0  0  0  0  0  0  0  0  0  0  0
   -1.0872    0.9785    0.9394 H   0  0  0  0  0  0  0  0  0  0  0  0
    0.5894    1.0851    0.8798 H   0  0  0  0  0  0  0  0  0  0  0  0
   -3.8220    3.1450   -2.5393 H   0  0  0  0  0  0  0  0  0  0  0  0
   -3.1211    3.1850   -4.1588 H   0  0  0  0  0  0  0  0  0  0  0  0
   -3.6647    1.6629   -3.4583 H   0  0  0  0  0  0  0  0  0  0  0  0
   -0.7845    3.2424   -4.3537 H   0  0  0  0  0  0  0  0  0  0  0  0
    1.4570    2.8381   -3.4347 H   0  0  0  0  0  0  0  0  0  0  0  0
    0.7223   -3.5196    0.1170 H   0  0  0  0  0  0  0  0  0  0  0  0
    0.8798   -5.9183   -0.4414 H   0  0  0  0  0  0  0  0  0  0  0  0
    3.0380   -6.8868   -1.1637 H   0  0  0  0  0  0  0  0  0  0  0  0
    5.0312   -5.4325   -1.3684 H   0  0  0  0  0  0  0  0  0  0  0  0
    4.8615   -3.0220   -0.8802 H   0  0  0  0  0  0  0  0  0  0  0  0
    4.5323   -2.6449    1.7034 H   0  0  0  0  0  0  0  0  0  0  0  0
    4.9340   -1.0185    2.2369 H   0  0  0  0  0  0  0  0  0  0  0  0
    3.3172   -1.6736    2.5661 H   0  0  0  0  0  0  0  0  0  0  0  0
    2.8262    2.3624    1.7779 H   0  0  0  0  0  0  0  0  0  0  0  0
    4.3092    4.0152    2.8382 H   0  0  0  0  0  0  0  0  0  0  0  0
    6.7651    3.7986    2.6265 H   0  0  0  0  0  0  0  0  0  0  0  0
    7.7301    1.9132    1.3449 H   0  0  0  0  0  0  0  0  0  0  0  0
    6.2497    0.2577    0.2803 H   0  0  0  0  0  0  0  0  0  0  0  0
  1  2  1  0
  2  3  1  0
  3  4  2  0
  3  5  1  0
  4  8  1  0
  5  6  1  0
  8  9  2  0
  8  6  1  0
  9 10  1  0
  6  7  2  0
 10 11  2  0
  7 11  1  0
 11 12  1  0
 16 15  1  0
 12 15  1  0
 12 13  2  0
 15 17  2  0
 14 13  1  0
 13 19  1  0
 17 18  1  0
 19 18  2  0
 19 20  1  0
 21 20  2  0
 20 22  1  0
 24 23  2  0
 22 23  1  0
 22 34  2  0
 40 39  2  0
 40 35  1  0
 39 38  1  0
 23 25  1  0
 34 35  1  0
 34 32  1  0
 35 36  2  0
 38 37  2  0
 25 32  1  0
 25 26  1  0
 36 37  1  0
 32 33  1  0
 26 31  1  0
 26 27  2  0
 31 30  2  0
 27 28  1  0
 30 29  1  0
 28 29  2  0
  1 41  1  0
  1 42  1  0
  1 43  1  0
  2 44  1  0
  7 45  1  0
  9 46  1  0
 10 47  1  0
 14 48  1  0
 14 49  1  0
 16 50  1  0
 16 51  1  0
 16 52  1  0
 17 53  1  0
 18 54  1  0
 27 55  1  0
 28 56  1  0
 29 57  1  0
 30 58  1  0
 31 59  1  0
 33 60  1  0
 33 61  1  0
 33 62  1  0
 36 63  1  0
 37 64  1  0
 38 65  1  0
 39 66  1  0
 40 67  1  0
M  END
