
     RDKit          3D

 49 52  0  0  0  0  0  0  0  0999 V2000
   -4.2975    0.4443   -0.3938 C   0  0  0  0  0  0  0  0  0  0  0  0
   -4.5522   -3.1625    0.4889 C   0  0  0  0  0  0  0  0  0  0  0  0
   -5.4768   -1.8670    2.2907 C   0  0  0  0  0  0  0  0  0  0  0  0
   -2.0511   -2.1257   -1.4303 C   0  0  0  0  0  0  0  0  0  0  0  0
    5.9696    1.1055    0.4716 N   0  0  0  0  0  0  0  0  0  0  0  0
   -4.5693   -0.7603    0.3012 C   0  0  0  0  0  0  0  0  0  0  0  0
    0.2922   -1.5971   -1.0444 C   0  0  0  0  0  0  0  0  0  0  0  0
   -5.1696   -3.0842    1.7517 C   0  0  0  0  0  0  0  0  0  0  0  0
    7.7279   -0.4495    0.1558 N   0  0  0  0  0  0  0  0  0  0  0  0
   -5.1823   -0.6814    1.5808 C   0  0  0  0  0  0  0  0  0  0  0  0
    0.1743   -2.7814   -1.5346 N   0  0  0  0  0  0  0  0  0  0  0  0
   -1.1440   -3.0806   -1.7475 C   0  0  0  0  0  0  0  0  0  0  0  0
   -4.2474   -2.0390   -0.2361 C   0  0  0  0  0  0  0  0  0  0  0  0
   -4.6050    1.6492    0.1735 C   0  0  0  0  0  0  0  0  0  0  0  0
   -5.2020    1.7401    1.4454 C   0  0  0  0  0  0  0  0  0  0  0  0
   -5.4863    0.5883    2.1232 C   0  0  0  0  0  0  0  0  0  0  0  0
   -1.2063   -0.7505   -0.7978 S   0  0  0  0  0  0  0  0  0  0  0  0
    1.4679   -0.9609   -0.7075 N   0  0  0  0  0  0  0  0  0  0  0  0
    2.7072   -1.5321   -0.6216 C   0  0  0  0  0  0  0  0  0  0  0  0
    2.9427   -2.6963   -0.8452 O   0  0  0  0  0  0  0  0  0  0  0  0
    3.7717   -0.5422   -0.2049 C   0  0  0  0  0  0  0  0  0  0  0  0
    5.3639   -1.3916   -0.2584 S   0  0  0  0  0  0  0  0  0  0  0  0
    6.4547   -0.0839    0.1749 C   0  0  0  0  0  0  0  0  0  0  0  0
    8.6216    0.4873    0.4611 C   0  0  0  0  0  0  0  0  0  0  0  0
   10.0615    0.0933    0.4360 C   0  0  0  0  0  0  0  0  0  0  0  0
    8.2163    1.7783    0.7829 C   0  0  0  0  0  0  0  0  0  0  0  0
    6.8575    2.0533    0.7816 C   0  0  0  0  0  0  0  0  0  0  0  0
    6.3195    3.3999    1.1356 C   0  0  0  0  0  0  0  0  0  0  0  0
   -3.8593    0.4127   -1.3825 H   0  0  0  0  0  0  0  0  0  0  0  0
   -4.3086   -4.1369    0.0828 H   0  0  0  0  0  0  0  0  0  0  0  0
   -5.9486   -1.7963    3.2631 H   0  0  0  0  0  0  0  0  0  0  0  0
   -3.8923   -1.4482   -2.2858 H   0  0  0  0  0  0  0  0  0  0  0  0
   -3.7824   -3.1599   -1.9869 H   0  0  0  0  0  0  0  0  0  0  0  0
   -5.3943   -3.9949    2.2909 H   0  0  0  0  0  0  0  0  0  0  0  0
   -1.4100   -4.0455   -2.1576 H   0  0  0  0  0  0  0  0  0  0  0  0
   -5.4366    2.7022    1.8798 H   0  0  0  0  0  0  0  0  0  0  0  0
   -5.9542    0.6439    3.0984 H   0  0  0  0  0  0  0  0  0  0  0  0
    1.4015    0.0198   -0.4764 H   0  0  0  0  0  0  0  0  0  0  0  0
    3.7762    0.3195   -0.8746 H   0  0  0  0  0  0  0  0  0  0  0  0
    3.5636   -0.1725    0.8012 H   0  0  0  0  0  0  0  0  0  0  0  0
   10.3385   -0.2620   -0.5571 H   0  0  0  0  0  0  0  0  0  0  0  0
   10.7114    0.9252    0.6986 H   0  0  0  0  0  0  0  0  0  0  0  0
   10.2448   -0.7243    1.1339 H   0  0  0  0  0  0  0  0  0  0  0  0
    8.9397    2.5443    1.0249 H   0  0  0  0  0  0  0  0  0  0  0  0
    5.7892    3.3522    2.0884 H   0  0  0  0  0  0  0  0  0  0  0  0
    7.1121    4.1394    1.2249 H   0  0  0  0  0  0  0  0  0  0  0  0
    5.6047    3.7377    0.3856 H   0  0  0  0  0  0  0  0  0  0  0  0
   -3.5394   -2.1853   -1.5610 C   0  0  0  0  0  0  0  0  0  0  0  0
   -4.2319    3.2445   -0.7643 Br  0  0  0  0  0  0  0  0  0  0  0  0
 49 14  1  0
 22 23  1  0
 22 21  1  0
  9 23  1  0
  9 24  2  0
 25 24  1  0
 23  5  2  0
 21 19  1  0
 24 26  1  0
 14 15  1  0
 14  1  2  0
 15 16  2  0
 20 19  2  0
 19 18  1  0
  1  6  1  0
  5 27  1  0
 26 27  2  0
 18  7  1  0
 16 10  1  0
 17  7  1  0
 17  4  1  0
 27 28  1  0
  7 11  2  0
  6 10  2  0
  6 13  1  0
 10  3  1  0
 11 12  1  0
  4 48  1  0
  4 12  2  0
 48 13  1  0
 13  2  2  0
  3  8  2  0
  2  8  1  0
  1 29  1  0
  2 30  1  0
  3 31  1  0
 48 32  1  0
 48 33  1  0
  8 34  1  0
 12 35  1  0
 15 36  1  0
 16 37  1  0
 18 38  1  0
 21 39  1  0
 21 40  1  0
 25 41  1  0
 25 42  1  0
 25 43  1  0
 26 44  1  0
 28 45  1  0
 28 46  1  0
 28 47  1  0
M  END
