
     RDKit          3D

 46 48  0  0  0  0  0  0  0  0999 V2000
    3.7693   -1.3929    1.8388 N   0  0  0  0  0  0  0  0  0  0  0  0
   -2.7060   -1.5755   -0.4812 O   0  0  0  0  0  0  0  0  0  0  0  0
   -7.6570    2.9379    0.0366 Cl  0  0  0  0  0  0  0  0  0  0  0  0
   10.1361    1.1945    0.0138 C   0  0  0  0  0  0  0  0  0  0  0  0
    9.5790    0.6957   -1.1569 C   0  0  0  0  0  0  0  0  0  0  0  0
    9.3118    1.7293    0.9955 C   0  0  0  0  0  0  0  0  0  0  0  0
    8.2035    0.7309   -1.3409 C   0  0  0  0  0  0  0  0  0  0  0  0
    7.9366    1.7629    0.8063 C   0  0  0  0  0  0  0  0  0  0  0  0
   -6.8252   -0.9496    0.1147 C   0  0  0  0  0  0  0  0  0  0  0  0
   -5.4565   -0.9718    0.3300 C   0  0  0  0  0  0  0  0  0  0  0  0
    1.5476   -2.5915   -0.6783 C   0  0  0  0  0  0  0  0  0  0  0  0
   -5.4318    1.4354    0.3439 C   0  0  0  0  0  0  0  0  0  0  0  0
    5.8804    1.2626   -0.5509 C   0  0  0  0  0  0  0  0  0  0  0  0
    3.9811   -0.0543   -0.1923 C   0  0  0  0  0  0  0  0  0  0  0  0
    1.1231   -0.6973    0.5515 N   0  0  0  0  0  0  0  0  0  0  0  0
   -3.3724    0.2767    0.6836 N   0  0  0  0  0  0  0  0  0  0  0  0
    5.3731    0.0484   -0.0449 O   0  0  0  0  0  0  0  0  0  0  0  0
   -0.1704   -2.4604   -0.7906 S   0  0  0  0  0  0  0  0  0  0  0  0
   -2.4509   -0.5988    0.1995 C   0  0  0  0  0  0  0  0  0  0  0  0
    7.3690    1.2668   -0.3639 C   0  0  0  0  0  0  0  0  0  0  0  0
   -7.4913    0.2545    0.0263 C   0  0  0  0  0  0  0  0  0  0  0  0
   -4.7491    0.2247    0.4364 C   0  0  0  0  0  0  0  0  0  0  0  0
   -6.8016    1.4479    0.1477 C   0  0  0  0  0  0  0  0  0  0  0  0
    2.0539   -1.5793    0.0642 C   0  0  0  0  0  0  0  0  0  0  0  0
   -0.0705   -1.0324    0.1842 C   0  0  0  0  0  0  0  0  0  0  0  0
    3.5036   -1.3697    0.4094 C   0  0  2  0  0  0  0  0  0  0  0  0
    3.1776   -0.7109    2.3001 H   0  0  0  0  0  0  0  0  0  0  0  0
    3.5032   -2.2933    2.2183 H   0  0  0  0  0  0  0  0  0  0  0  0
   11.2085    1.1707    0.1588 H   0  0  0  0  0  0  0  0  0  0  0  0
   10.2154    0.2813   -1.9283 H   0  0  0  0  0  0  0  0  0  0  0  0
    9.7401    2.1231    1.9082 H   0  0  0  0  0  0  0  0  0  0  0  0
    7.7745    0.3433   -2.2574 H   0  0  0  0  0  0  0  0  0  0  0  0
    7.3005    2.1865    1.5748 H   0  0  0  0  0  0  0  0  0  0  0  0
   -7.3785   -1.8756    0.0297 H   0  0  0  0  0  0  0  0  0  0  0  0
   -4.9597   -1.9239    0.4264 H   0  0  0  0  0  0  0  0  0  0  0  0
    2.0790   -3.3987   -1.1577 H   0  0  0  0  0  0  0  0  0  0  0  0
   -4.8956    2.3724    0.4230 H   0  0  0  0  0  0  0  0  0  0  0  0
    5.6336    1.3733   -1.6160 H   0  0  0  0  0  0  0  0  0  0  0  0
    5.4277    2.1166   -0.0289 H   0  0  0  0  0  0  0  0  0  0  0  0
    3.4684    0.7842    0.3031 H   0  0  0  0  0  0  0  0  0  0  0  0
    3.6983   -0.0168   -1.2540 H   0  0  0  0  0  0  0  0  0  0  0  0
   -3.0366    1.1225    1.1200 H   0  0  0  0  0  0  0  0  0  0  0  0
   -0.9585    0.5180    1.1243 H   0  0  0  0  0  0  0  0  0  0  0  0
    4.0730   -2.1812   -0.0538 H   0  0  0  0  0  0  0  0  0  0  0  0
   -1.1629   -0.2921    0.5558 N   0  0  0  0  0  0  0  0  0  0  0  0
   -8.8120    0.2775   -0.1691 F   0  0  0  0  0  0  0  0  0  0  0  0
  1 26  1  0
  1 27  1  0
  1 28  1  0
 19  2  2  0
 46 21  1  0
 23  3  1  0
  5  4  2  0
  4  6  1  0
  4 29  1  0
  7  5  1  0
  5 30  1  0
  8  6  2  0
  6 31  1  0
  7 20  2  0
  7 32  1  0
 20  8  1  0
  8 33  1  0
  9 10  2  0
  9 21  1  0
  9 34  1  0
 10 22  1  0
 10 35  1  0
 24 11  2  0
 11 18  1  0
 11 36  1  0
 22 12  2  0
 23 12  1  0
 12 37  1  0
 17 13  1  0
 13 20  1  0
 13 38  1  0
 13 39  1  0
 26 14  1  0
 14 17  1  0
 14 40  1  0
 14 41  1  0
 15 25  2  0
 15 24  1  0
 16 22  1  0
 16 19  1  0
 16 42  1  0
 45 19  1  0
 45 25  1  0
 45 43  1  0
 25 18  1  0
 21 23  2  0
 26 24  1  0
 26 44  1  6
M  END
