
     RDKit          3D

 72 72  0  0  0  0  0  0  0  0999 V2000
    2.8829   -1.4603    1.7596 O   0  0  0  0  0  0  0  0  0  0  0  0
    2.8674   -1.0290    0.6142 C   0  0  0  0  0  0  0  0  0  0  0  0
    3.9075   -1.1430   -0.2325 N   0  0  0  0  0  0  0  0  0  0  0  0
    5.1564   -1.8055    0.0811 C   0  0  1  0  0  0  0  0  0  0  0  0
    5.2494   -3.1547   -0.6162 C   0  0  0  0  0  0  0  0  0  0  0  0
    5.2257   -2.9551   -2.0109 O   0  0  0  0  0  0  0  0  0  0  0  0
    6.3449   -0.9068   -0.2583 C   0  0  0  0  0  0  0  0  0  0  0  0
    6.3687    0.4067    0.5242 C   0  0  2  0  0  0  0  0  0  0  0  0
    7.5499    1.2484    0.0857 C   0  0  0  0  0  0  0  0  0  0  0  0
    7.4349    2.0592   -1.0405 C   0  0  0  0  0  0  0  0  0  0  0  0
    8.5107    2.8113   -1.4906 C   0  0  0  0  0  0  0  0  0  0  0  0
    9.7238    2.7626   -0.8155 C   0  0  0  0  0  0  0  0  0  0  0  0
    9.8481    1.9570    0.3083 C   0  0  0  0  0  0  0  0  0  0  0  0
    8.7684    1.2071    0.7565 C   0  0  0  0  0  0  0  0  0  0  0  0
    6.3339    0.1959    1.9159 O   0  0  0  0  0  0  0  0  0  0  0  0
    1.6677   -0.2975    0.0484 C   0  0  0  0  0  0  0  0  0  0  0  0
    0.3408   -0.8155    0.5867 C   0  0  0  0  0  0  0  0  0  0  0  0
   -0.8521   -0.0767   -0.0051 C   0  0  0  0  0  0  0  0  0  0  0  0
   -2.1858   -0.5710    0.5413 C   0  0  0  0  0  0  0  0  0  0  0  0
   -3.3841    0.1447   -0.0692 C   0  0  0  0  0  0  0  0  0  0  0  0
   -4.7212   -0.3519    0.4642 C   0  0  0  0  0  0  0  0  0  0  0  0
   -5.9151    0.3573   -0.1609 C   0  0  0  0  0  0  0  0  0  0  0  0
   -7.2578   -0.1364    0.3628 C   0  0  0  0  0  0  0  0  0  0  0  0
   -8.4451    0.5723   -0.2762 C   0  0  0  0  0  0  0  0  0  0  0  0
   -9.7932    0.0875    0.2424 C   0  0  0  0  0  0  0  0  0  0  0  0
  -10.9758    0.7934   -0.4084 C   0  0  0  0  0  0  0  0  0  0  0  0
  -12.3265    0.3065    0.1006 C   0  0  0  0  0  0  0  0  0  0  0  0
  -13.5066    1.0095   -0.5589 C   0  0  0  0  0  0  0  0  0  0  0  0
  -14.8526    0.5086   -0.0541 C   0  0  0  0  0  0  0  0  0  0  0  0
    3.7825   -0.8240   -1.1803 H   0  0  0  0  0  0  0  0  0  0  0  0
    5.1548   -2.0066    1.1524 H   0  0  0  0  0  0  0  0  0  0  0  0
    6.1721   -3.6514   -0.2900 H   0  0  0  0  0  0  0  0  0  0  0  0
    4.4108   -3.7791   -0.2837 H   0  0  0  0  0  0  0  0  0  0  0  0
    5.2213   -3.8156   -2.4395 H   0  0  0  0  0  0  0  0  0  0  0  0
    7.2698   -1.4596   -0.0576 H   0  0  0  0  0  0  0  0  0  0  0  0
    6.3539   -0.6809   -1.3276 H   0  0  0  0  0  0  0  0  0  0  0  0
    5.4565    0.9637    0.2886 H   0  0  0  0  0  0  0  0  0  0  0  0
    6.4887    2.1083   -1.5687 H   0  0  0  0  0  0  0  0  0  0  0  0
    8.4001    3.4412   -2.3642 H   0  0  0  0  0  0  0  0  0  0  0  0
   10.5634    3.3534   -1.1581 H   0  0  0  0  0  0  0  0  0  0  0  0
   10.7893    1.9127    0.8417 H   0  0  0  0  0  0  0  0  0  0  0  0
    8.8893    0.5929    1.6405 H   0  0  0  0  0  0  0  0  0  0  0  0
    6.9727   -0.4864    2.1478 H   0  0  0  0  0  0  0  0  0  0  0  0
    1.7776    0.7625    0.3037 H   0  0  0  0  0  0  0  0  0  0  0  0
    1.6733   -0.3453   -1.0439 H   0  0  0  0  0  0  0  0  0  0  0  0
    0.2477   -1.8845    0.3704 H   0  0  0  0  0  0  0  0  0  0  0  0
    0.3244   -0.7199    1.6749 H   0  0  0  0  0  0  0  0  0  0  0  0
   -0.7549    0.9965    0.1930 H   0  0  0  0  0  0  0  0  0  0  0  0
   -0.8489   -0.1850   -1.0955 H   0  0  0  0  0  0  0  0  0  0  0  0
   -2.2750   -1.6476    0.3594 H   0  0  0  0  0  0  0  0  0  0  0  0
   -2.2028   -0.4452    1.6296 H   0  0  0  0  0  0  0  0  0  0  0  0
   -3.2961    1.2210    0.1154 H   0  0  0  0  0  0  0  0  0  0  0  0
   -3.3605    0.0228   -1.1579 H   0  0  0  0  0  0  0  0  0  0  0  0
   -4.8053   -1.4300    0.2874 H   0  0  0  0  0  0  0  0  0  0  0  0
   -4.7508   -0.2226    1.5519 H   0  0  0  0  0  0  0  0  0  0  0  0
   -5.8288    1.4347    0.0167 H   0  0  0  0  0  0  0  0  0  0  0  0
   -5.8805    0.2295   -1.2488 H   0  0  0  0  0  0  0  0  0  0  0  0
   -7.3413   -1.2149    0.1876 H   0  0  0  0  0  0  0  0  0  0  0  0
   -7.2970   -0.0037    1.4498 H   0  0  0  0  0  0  0  0  0  0  0  0
   -8.3581    1.6513   -0.1070 H   0  0  0  0  0  0  0  0  0  0  0  0
   -8.4052    0.4352   -1.3628 H   0  0  0  0  0  0  0  0  0  0  0  0
   -9.8789   -0.9923    0.0764 H   0  0  0  0  0  0  0  0  0  0  0  0
   -9.8380    0.2296    1.3280 H   0  0  0  0  0  0  0  0  0  0  0  0
  -10.8908    1.8725   -0.2383 H   0  0  0  0  0  0  0  0  0  0  0  0
  -10.9256    0.6550   -1.4943 H   0  0  0  0  0  0  0  0  0  0  0  0
  -12.4087   -0.7738   -0.0639 H   0  0  0  0  0  0  0  0  0  0  0  0
  -12.3797    0.4517    1.1855 H   0  0  0  0  0  0  0  0  0  0  0  0
  -13.4284    2.0874   -0.3859 H   0  0  0  0  0  0  0  0  0  0  0  0
  -13.4484    0.8715   -1.6432 H   0  0  0  0  0  0  0  0  0  0  0  0
  -14.9556    0.6704    1.0206 H   0  0  0  0  0  0  0  0  0  0  0  0
  -15.6821    1.0188   -0.5453 H   0  0  0  0  0  0  0  0  0  0  0  0
  -14.9680   -0.5617   -0.2355 H   0  0  0  0  0  0  0  0  0  0  0  0
  1  2  2  0
  2  3  1  0
  2 16  1  0
  3  4  1  0
  4  5  1  0
  4  7  1  0
  5  6  1  0
  7  8  1  0
  8  9  1  0
  8 15  1  0
  9 10  2  0
  9 14  1  0
 10 11  1  0
 11 12  2  0
 12 13  1  0
 13 14  2  0
 16 17  1  0
 17 18  1  0
 18 19  1  0
 19 20  1  0
 20 21  1  0
 21 22  1  0
 22 23  1  0
 23 24  1  0
 24 25  1  0
 25 26  1  0
 26 27  1  0
 27 28  1  0
 28 29  1  0
  3 30  1  0
  4 31  1  1
  5 32  1  0
  5 33  1  0
  6 34  1  0
  7 35  1  0
  7 36  1  0
  8 37  1  6
 10 38  1  0
 11 39  1  0
 12 40  1  0
 13 41  1  0
 14 42  1  0
 15 43  1  0
 16 44  1  0
 16 45  1  0
 17 46  1  0
 17 47  1  0
 18 48  1  0
 18 49  1  0
 19 50  1  0
 19 51  1  0
 20 52  1  0
 20 53  1  0
 21 54  1  0
 21 55  1  0
 22 56  1  0
 22 57  1  0
 23 58  1  0
 23 59  1  0
 24 60  1  0
 24 61  1  0
 25 62  1  0
 25 63  1  0
 26 64  1  0
 26 65  1  0
 27 66  1  0
 27 67  1  0
 28 68  1  0
 28 69  1  0
 29 70  1  0
 29 71  1  0
 29 72  1  0
M  END
