
     RDKit          3D

 39 39  0  0  0  0  0  0  0  0999 V2000
   -0.4065   -0.6144   -0.3163 C   0  0  0  0  0  0  0  0  0  0  0  0
    0.2236    0.6218   -0.7797 C   0  0  0  0  0  0  0  0  0  0  0  0
   -5.1402    1.2342    0.0364 P   0  0  1  0  0  0  0  0  0  0  0  0
   -5.4626    0.9714   -1.5050 O   0  0  0  0  0  0  0  0  0  0  0  0
   -4.9254    2.6754    0.2579 O   0  0  0  0  0  0  0  0  0  0  0  0
   -6.2429    0.4915    0.9102 O   0  0  0  0  0  0  0  0  0  0  0  0
   -3.9239    0.2685    0.4219 O   0  0  0  0  0  0  0  0  0  0  0  0
   -2.6193    0.5613   -0.0586 C   0  0  0  0  0  0  0  0  0  0  0  0
   -1.7583   -0.6656    0.0598 C   0  0  0  0  0  0  0  0  0  0  0  0
   -1.4989   -2.9656    0.6515 N   0  0  0  0  0  0  0  0  0  0  0  0
   -2.2474   -1.8687    0.5299 C   0  0  0  0  0  0  0  0  0  0  0  0
   -0.2271   -2.9483    0.3057 C   0  0  0  0  0  0  0  0  0  0  0  0
    0.5859   -4.1944    0.4611 C   0  0  0  0  0  0  0  0  0  0  0  0
    0.3622   -1.7784   -0.2023 C   0  0  0  0  0  0  0  0  0  0  0  0
    1.6518   -1.8132   -0.5560 O   0  0  0  0  0  0  0  0  0  0  0  0
    5.5139   -1.0177   -0.2016 O   0  0  0  0  0  0  0  0  0  0  0  0
    4.7433    0.1433    0.5720 P   0  0  1  0  0  0  0  0  0  0  0  0
    3.5046   -0.5168    1.3339 O   0  0  0  0  0  0  0  0  0  0  0  0
    5.5161    0.9796    1.5087 O   0  0  0  0  0  0  0  0  0  0  0  0
    4.1705    0.8716   -0.7292 O   0  0  0  0  0  0  0  0  0  0  0  0
    3.3039    2.0060   -0.6196 C   0  0  0  0  0  0  0  0  0  0  0  0
    2.1178    1.8095   -1.5456 C   0  0  0  0  0  0  0  0  0  0  0  0
    1.4248    0.6014   -1.1896 N   0  0  0  0  0  0  0  0  0  0  0  0
   -0.3447    1.5525   -0.7385 H   0  0  0  0  0  0  0  0  0  0  0  0
   -5.6746    0.0592   -1.7449 H   0  0  0  0  0  0  0  0  0  0  0  0
   -7.0932    0.9503    0.9474 H   0  0  0  0  0  0  0  0  0  0  0  0
   -2.6528    0.8834   -1.1045 H   0  0  0  0  0  0  0  0  0  0  0  0
   -2.1953    1.3839    0.5240 H   0  0  0  0  0  0  0  0  0  0  0  0
   -3.2822   -1.9712    0.8275 H   0  0  0  0  0  0  0  0  0  0  0  0
    0.9900   -4.5309   -0.4951 H   0  0  0  0  0  0  0  0  0  0  0  0
    1.4354   -4.0374    1.1284 H   0  0  0  0  0  0  0  0  0  0  0  0
   -0.0299   -4.9904    0.8737 H   0  0  0  0  0  0  0  0  0  0  0  0
    1.8417   -0.9195   -0.9970 H   0  0  0  0  0  0  0  0  0  0  0  0
    6.0916   -1.5508    0.3611 H   0  0  0  0  0  0  0  0  0  0  0  0
    2.9481   -1.1267    0.8185 H   0  0  0  0  0  0  0  0  0  0  0  0
    2.9532    2.1521    0.4050 H   0  0  0  0  0  0  0  0  0  0  0  0
    3.8555    2.8985   -0.9155 H   0  0  0  0  0  0  0  0  0  0  0  0
    1.4778    2.6958   -1.4815 H   0  0  0  0  0  0  0  0  0  0  0  0
    2.4695    1.7205   -2.5758 H   0  0  0  0  0  0  0  0  0  0  0  0
  9  1  2  0
  2  1  1  0
  1 14  1  0
 23  2  2  0
  2 24  1  0
  5  3  2  0
  3  4  1  6
  3  6  1  0
  3  7  1  0
  4 25  1  0
  6 26  1  0
  7  8  1  0
  8  9  1  0
  8 27  1  0
  8 28  1  0
  9 11  1  0
 11 10  2  0
 10 12  1  0
 11 29  1  0
 14 12  2  0
 12 13  1  0
 13 30  1  0
 13 31  1  0
 13 32  1  0
 14 15  1  0
 15 33  1  0
 17 16  1  6
 16 34  1  0
 20 17  1  0
 19 17  2  0
 17 18  1  0
 18 35  1  0
 20 21  1  0
 21 22  1  0
 21 36  1  0
 21 37  1  0
 22 23  1  0
 22 38  1  0
 22 39  1  0
M  END
