
     RDKit          3D

 96 95  0  0  0  0  0  0  0  0999 V2000
    2.8638   -3.5239    1.8619 O   0  0  0  0  0  0  0  0  0  0  0  0
    2.5529   -3.0787    0.7848 C   0  0  0  0  0  0  0  0  0  0  0  0
    3.3847   -2.1226   -0.0268 C   0  0  0  0  0  0  0  0  0  0  0  0
    4.6807   -1.7291    0.6640 C   0  0  0  0  0  0  0  0  0  0  0  0
    5.5590   -0.8267   -0.1926 C   0  0  0  0  0  0  0  0  0  0  0  0
    6.8553   -0.4560    0.5172 C   0  0  0  0  0  0  0  0  0  0  0  0
    7.7881    0.4194   -0.3091 C   0  0  0  0  0  0  0  0  0  0  0  0
    9.0758    0.7613    0.4306 C   0  0  0  0  0  0  0  0  0  0  0  0
   10.0390    1.6244   -0.3738 C   0  0  0  0  0  0  0  0  0  0  0  0
   11.3203    1.9454    0.3861 C   0  0  0  0  0  0  0  0  0  0  0  0
   12.3005    2.8033   -0.4034 C   0  0  0  0  0  0  0  0  0  0  0  0
   13.5790    3.1109    0.3670 C   0  0  0  0  0  0  0  0  0  0  0  0
   14.5671    3.9657   -0.4158 C   0  0  0  0  0  0  0  0  0  0  0  0
   15.8485    4.2637    0.3537 C   0  0  0  0  0  0  0  0  0  0  0  0
   16.8285    5.1167   -0.4396 C   0  0  0  0  0  0  0  0  0  0  0  0
    1.4193   -3.3973    0.1689 O   0  0  0  0  0  0  0  0  0  0  0  0
    0.5758   -4.3435    0.8198 C   0  0  0  0  0  0  0  0  0  0  0  0
   -0.6365   -4.6517   -0.0268 C   0  0  2  0  0  0  0  0  0  0  0  0
   -0.3634   -5.2692   -1.3869 C   0  0  0  0  0  0  0  0  0  0  0  0
    0.2308   -4.3377   -2.2520 O   0  0  0  0  0  0  0  0  0  0  0  0
   -1.4022   -3.4473   -0.1526 O   0  0  0  0  0  0  0  0  0  0  0  0
   -2.7300   -3.5375   -0.1989 C   0  0  0  0  0  0  0  0  0  0  0  0
   -3.3275   -4.5828   -0.1389 O   0  0  0  0  0  0  0  0  0  0  0  0
   -3.3763   -2.1867   -0.3436 C   0  0  0  0  0  0  0  0  0  0  0  0
   -4.8751   -2.2126   -0.0889 C   0  0  0  0  0  0  0  0  0  0  0  0
   -5.5233   -0.8462   -0.2722 C   0  0  0  0  0  0  0  0  0  0  0  0
   -7.0190   -0.8750    0.0132 C   0  0  0  0  0  0  0  0  0  0  0  0
   -7.7091    0.4667   -0.1969 C   0  0  0  0  0  0  0  0  0  0  0  0
   -9.2006    0.4187    0.1089 C   0  0  0  0  0  0  0  0  0  0  0  0
   -9.9146    1.7442   -0.1235 C   0  0  0  0  0  0  0  0  0  0  0  0
  -11.4036    1.6829    0.1926 C   0  0  0  0  0  0  0  0  0  0  0  0
  -12.1321    2.9973   -0.0561 C   0  0  0  0  0  0  0  0  0  0  0  0
  -13.6204    2.9274    0.2617 C   0  0  0  0  0  0  0  0  0  0  0  0
  -14.3569    4.2349    0.0008 C   0  0  0  0  0  0  0  0  0  0  0  0
  -15.8455    4.1616    0.3179 C   0  0  0  0  0  0  0  0  0  0  0  0
  -16.5749    5.4698    0.0459 C   0  0  0  0  0  0  0  0  0  0  0  0
    3.5907   -2.5922   -0.9943 H   0  0  0  0  0  0  0  0  0  0  0  0
    2.7811   -1.2386   -0.2547 H   0  0  0  0  0  0  0  0  0  0  0  0
    4.4558   -1.2242    1.6074 H   0  0  0  0  0  0  0  0  0  0  0  0
    5.2439   -2.6289    0.9253 H   0  0  0  0  0  0  0  0  0  0  0  0
    5.7907   -1.3301   -1.1375 H   0  0  0  0  0  0  0  0  0  0  0  0
    5.0123    0.0844   -0.4592 H   0  0  0  0  0  0  0  0  0  0  0  0
    6.6174    0.0553    1.4565 H   0  0  0  0  0  0  0  0  0  0  0  0
    7.3821   -1.3741    0.8012 H   0  0  0  0  0  0  0  0  0  0  0  0
    8.0314   -0.0910   -1.2475 H   0  0  0  0  0  0  0  0  0  0  0  0
    7.2720    1.3436   -0.5920 H   0  0  0  0  0  0  0  0  0  0  0  0
    8.8283    1.2730    1.3674 H   0  0  0  0  0  0  0  0  0  0  0  0
    9.5804   -0.1672    0.7210 H   0  0  0  0  0  0  0  0  0  0  0  0
   10.2897    1.1141   -1.3104 H   0  0  0  0  0  0  0  0  0  0  0  0
    9.5419    2.5575   -0.6618 H   0  0  0  0  0  0  0  0  0  0  0  0
   11.0670    2.4546    1.3227 H   0  0  0  0  0  0  0  0  0  0  0  0
   11.8113    1.0097    0.6765 H   0  0  0  0  0  0  0  0  0  0  0  0
   12.5545    2.2956   -1.3405 H   0  0  0  0  0  0  0  0  0  0  0  0
   11.8141    3.7422   -0.6912 H   0  0  0  0  0  0  0  0  0  0  0  0
   13.3240    3.6182    1.3041 H   0  0  0  0  0  0  0  0  0  0  0  0
   14.0623    2.1707    0.6559 H   0  0  0  0  0  0  0  0  0  0  0  0
   14.8190    3.4611   -1.3554 H   0  0  0  0  0  0  0  0  0  0  0  0
   14.0873    4.9092   -0.7002 H   0  0  0  0  0  0  0  0  0  0  0  0
   15.5973    4.7688    1.2917 H   0  0  0  0  0  0  0  0  0  0  0  0
   16.3266    3.3210    0.6375 H   0  0  0  0  0  0  0  0  0  0  0  0
   16.3888    6.0814   -0.6997 H   0  0  0  0  0  0  0  0  0  0  0  0
   17.7426    5.3102    0.1229 H   0  0  0  0  0  0  0  0  0  0  0  0
   17.1119    4.6243   -1.3717 H   0  0  0  0  0  0  0  0  0  0  0  0
    1.1129   -5.2788    0.9954 H   0  0  0  0  0  0  0  0  0  0  0  0
    0.2530   -3.9599    1.7909 H   0  0  0  0  0  0  0  0  0  0  0  0
   -1.1987   -5.3961    0.5450 H   0  0  0  0  0  0  0  0  0  0  0  0
    0.2700   -6.1513   -1.2189 H   0  0  0  0  0  0  0  0  0  0  0  0
   -1.3124   -5.6420   -1.7888 H   0  0  0  0  0  0  0  0  0  0  0  0
    0.2277   -4.7183   -3.1347 H   0  0  0  0  0  0  0  0  0  0  0  0
   -2.8790   -1.4785    0.3244 H   0  0  0  0  0  0  0  0  0  0  0  0
   -3.1687   -1.8290   -1.3583 H   0  0  0  0  0  0  0  0  0  0  0  0
   -5.3520   -2.9289   -0.7625 H   0  0  0  0  0  0  0  0  0  0  0  0
   -5.0669   -2.5705    0.9269 H   0  0  0  0  0  0  0  0  0  0  0  0
   -5.0404   -0.1148    0.3848 H   0  0  0  0  0  0  0  0  0  0  0  0
   -5.3527   -0.4945   -1.2956 H   0  0  0  0  0  0  0  0  0  0  0  0
   -7.4939   -1.6285   -0.6250 H   0  0  0  0  0  0  0  0  0  0  0  0
   -7.1817   -1.2090    1.0439 H   0  0  0  0  0  0  0  0  0  0  0  0
   -7.2326    1.2268    0.4320 H   0  0  0  0  0  0  0  0  0  0  0  0
   -7.5601    0.7941   -1.2319 H   0  0  0  0  0  0  0  0  0  0  0  0
   -9.6708   -0.3573   -0.5056 H   0  0  0  0  0  0  0  0  0  0  0  0
   -9.3454    0.1060    1.1491 H   0  0  0  0  0  0  0  0  0  0  0  0
   -9.4450    2.5242    0.4862 H   0  0  0  0  0  0  0  0  0  0  0  0
   -9.7772    2.0526   -1.1658 H   0  0  0  0  0  0  0  0  0  0  0  0
  -11.8686    0.8925   -0.4073 H   0  0  0  0  0  0  0  0  0  0  0  0
  -11.5388    1.3849    1.2384 H   0  0  0  0  0  0  0  0  0  0  0  0
  -11.6694    3.7900    0.5424 H   0  0  0  0  0  0  0  0  0  0  0  0
  -11.9988    3.2937   -1.1025 H   0  0  0  0  0  0  0  0  0  0  0  0
  -14.0800    2.1280   -0.3304 H   0  0  0  0  0  0  0  0  0  0  0  0
  -13.7532    2.6385    1.3104 H   0  0  0  0  0  0  0  0  0  0  0  0
  -13.8991    5.0357    0.5925 H   0  0  0  0  0  0  0  0  0  0  0  0
  -14.2249    4.5234   -1.0481 H   0  0  0  0  0  0  0  0  0  0  0  0
  -16.2999    3.3579   -0.2699 H   0  0  0  0  0  0  0  0  0  0  0  0
  -15.9773    3.8792    1.3670 H   0  0  0  0  0  0  0  0  0  0  0  0
  -16.1543    6.2857    0.6369 H   0  0  0  0  0  0  0  0  0  0  0  0
  -16.4971    5.7535   -1.0056 H   0  0  0  0  0  0  0  0  0  0  0  0
  -17.6354    5.3975    0.2903 H   0  0  0  0  0  0  0  0  0  0  0  0
 36 35  1  0
 35 34  1  0
 14 15  1  0
 14 13  1  0
 34 33  1  0
 33 32  1  0
 13 12  1  0
 32 31  1  0
 12 11  1  0
 10 11  1  0
 10  9  1  0
 31 30  1  0
  8  9  1  0
  8  7  1  0
 30 29  1  0
 29 28  1  0
  7  6  1  0
 28 27  1  0
 27 26  1  0
  6  5  1  0
  5  4  1  0
 26 25  1  0
 25 24  1  0
  4  3  1  0
  3  2  1  0
 24 22  1  0
 22 23  2  0
 22 21  1  0
  2 16  1  0
  2  1  2  0
 16 17  1  0
 21 18  1  0
 17 18  1  0
 18 19  1  0
 20 19  1  0
  3 37  1  0
  3 38  1  0
  4 39  1  0
  4 40  1  0
  5 41  1  0
  5 42  1  0
  6 43  1  0
  6 44  1  0
  7 45  1  0
  7 46  1  0
  8 47  1  0
  8 48  1  0
  9 49  1  0
  9 50  1  0
 10 51  1  0
 10 52  1  0
 11 53  1  0
 11 54  1  0
 12 55  1  0
 12 56  1  0
 13 57  1  0
 13 58  1  0
 14 59  1  0
 14 60  1  0
 15 61  1  0
 15 62  1  0
 15 63  1  0
 17 64  1  0
 17 65  1  0
 18 66  1  1
 19 67  1  0
 19 68  1  0
 20 69  1  0
 24 70  1  0
 24 71  1  0
 25 72  1  0
 25 73  1  0
 26 74  1  0
 26 75  1  0
 27 76  1  0
 27 77  1  0
 28 78  1  0
 28 79  1  0
 29 80  1  0
 29 81  1  0
 30 82  1  0
 30 83  1  0
 31 84  1  0
 31 85  1  0
 32 86  1  0
 32 87  1  0
 33 88  1  0
 33 89  1  0
 34 90  1  0
 34 91  1  0
 35 92  1  0
 35 93  1  0
 36 94  1  0
 36 95  1  0
 36 96  1  0
M  END
