
     RDKit          3D

 48 49  0  0  0  0  0  0  0  0999 V2000
    2.7232    3.0464    1.1422 O   0  0  0  0  0  0  0  0  0  0  0  0
    1.7520    2.0412    0.9835 C   0  0  0  0  0  0  0  0  0  0  0  0
    2.2909    0.9974    0.0281 C   0  0  1  0  0  0  0  0  0  0  0  0
    3.4576    0.4543    0.6052 O   0  0  0  0  0  0  0  0  0  0  0  0
    4.1411   -0.4244   -0.2510 C   0  0  1  0  0  0  0  0  0  0  0  0
    5.2984   -0.8346    0.3710 O   0  0  0  0  0  0  0  0  0  0  0  0
    6.3282    0.1360    0.3963 C   0  0  0  0  0  0  0  0  0  0  0  0
    1.2875   -0.1350   -0.2429 C   0  0  1  0  0  0  0  0  0  0  0  0
    0.1566    0.3759   -0.9253 O   0  0  0  0  0  0  0  0  0  0  0  0
    1.9408   -1.1915   -1.1250 C   0  0  1  0  0  0  0  0  0  0  0  0
    3.2682   -1.6435   -0.5217 C   0  0  1  0  0  0  0  0  0  0  0  0
    3.8646   -2.5206   -1.4447 O   0  0  0  0  0  0  0  0  0  0  0  0
    1.0521   -2.2636   -1.2790 O   0  0  0  0  0  0  0  0  0  0  0  0
   -4.2200    2.2700   -0.8857 O   0  0  0  0  0  0  0  0  0  0  0  0
   -3.2554   -2.2785    0.6745 C   0  0  0  0  0  0  0  0  0  0  0  0
   -2.2691   -3.0293    1.3345 O   0  0  0  0  0  0  0  0  0  0  0  0
   -2.7981   -0.8355    0.5989 C   0  0  1  0  0  0  0  0  0  0  0  0
   -1.6173   -0.8040   -0.1716 O   0  0  0  0  0  0  0  0  0  0  0  0
   -3.8481    0.0803   -0.0444 C   0  0  2  0  0  0  0  0  0  0  0  0
   -3.2826    1.4878   -0.1928 C   0  0  1  0  0  0  0  0  0  0  0  0
   -1.9448    1.4431   -0.9257 C   0  0  2  0  0  0  0  0  0  0  0  0
   -1.0212    0.4621   -0.2108 C   0  0  2  0  0  0  0  0  0  0  0  0
   -1.4245    2.7486   -0.9259 O   0  0  0  0  0  0  0  0  0  0  0  0
   -5.3463    0.0896    1.0030 S   0  0  0  0  0  0  0  0  0  0  0  0
    2.3392    3.7455    1.6785 H   0  0  0  0  0  0  0  0  0  0  0  0
    1.4997    1.5575    1.9379 H   0  0  0  0  0  0  0  0  0  0  0  0
    0.8223    2.4495    0.5735 H   0  0  0  0  0  0  0  0  0  0  0  0
    2.5322    1.4822   -0.9327 H   0  0  0  0  0  0  0  0  0  0  0  0
    0.9941   -0.5942    0.7109 H   0  0  0  0  0  0  0  0  0  0  0  0
    4.3670    0.0887   -1.2063 H   0  0  0  0  0  0  0  0  0  0  0  0
    3.0691   -2.1438    0.4383 H   0  0  0  0  0  0  0  0  0  0  0  0
    6.5857    0.4707   -0.6135 H   0  0  0  0  0  0  0  0  0  0  0  0
    6.0581    1.0100    0.9931 H   0  0  0  0  0  0  0  0  0  0  0  0
    7.2044   -0.3313    0.8412 H   0  0  0  0  0  0  0  0  0  0  0  0
    2.1617   -0.7184   -2.0976 H   0  0  0  0  0  0  0  0  0  0  0  0
   -0.8408    0.8172    0.8217 H   0  0  0  0  0  0  0  0  0  0  0  0
    1.4815   -2.9226   -1.8349 H   0  0  0  0  0  0  0  0  0  0  0  0
    4.5884   -2.9811   -1.0090 H   0  0  0  0  0  0  0  0  0  0  0  0
   -3.9278    3.1868   -0.8633 H   0  0  0  0  0  0  0  0  0  0  0  0
   -3.4439   -2.6440   -0.3445 H   0  0  0  0  0  0  0  0  0  0  0  0
   -4.2124   -2.3160    1.2081 H   0  0  0  0  0  0  0  0  0  0  0  0
   -2.5936   -3.9298    1.4220 H   0  0  0  0  0  0  0  0  0  0  0  0
   -2.5957   -0.4715    1.6199 H   0  0  0  0  0  0  0  0  0  0  0  0
   -4.1069   -0.3151   -1.0318 H   0  0  0  0  0  0  0  0  0  0  0  0
   -5.9829    1.0744    0.3621 H   0  0  0  0  0  0  0  0  0  0  0  0
   -2.1139    1.0740   -1.9485 H   0  0  0  0  0  0  0  0  0  0  0  0
   -0.6933    2.7905   -1.5502 H   0  0  0  0  0  0  0  0  0  0  0  0
   -3.1052    1.8892    0.8176 H   0  0  0  0  0  0  0  0  0  0  0  0
  1  2  1  0
  2  3  1  0
  3  4  1  0
  3  8  1  0
  4  5  1  0
  5  6  1  0
  5 11  1  0
  6  7  1  0
  8  9  1  0
  8 10  1  0
  9 22  1  0
 10 11  1  0
 10 13  1  0
 11 12  1  0
 14 20  1  0
 15 16  1  0
 15 17  1  0
 17 18  1  0
 17 19  1  0
 18 22  1  0
 19 20  1  0
 19 24  1  0
 20 21  1  0
 21 22  1  0
 21 23  1  0
  1 25  1  0
  2 26  1  0
  2 27  1  0
  3 28  1  6
  8 29  1  1
  5 30  1  6
 11 31  1  1
  7 32  1  0
  7 33  1  0
  7 34  1  0
 10 35  1  6
 22 36  1  1
 13 37  1  0
 12 38  1  0
 14 39  1  0
 20 48  1  1
 15 40  1  0
 15 41  1  0
 16 42  1  0
 17 43  1  1
 19 44  1  6
 24 45  1  0
 21 46  1  6
 23 47  1  0
M  END
