
     RDKit          3D

 43 45  0  0  0  0  0  0  0  0999 V2000
   -3.0697    2.8380   -2.7759 C   0  0  0  0  0  0  0  0  0  0  0  0
   -3.3798    1.6431   -2.0833 O   0  0  0  0  0  0  0  0  0  0  0  0
   -2.4545    1.1163   -1.2689 C   0  0  0  0  0  0  0  0  0  0  0  0
   -1.1863    1.6497   -1.0614 C   0  0  0  0  0  0  0  0  0  0  0  0
   -0.2853    1.0284   -0.2045 C   0  0  0  0  0  0  0  0  0  0  0  0
    1.1054    1.6143   -0.0278 C   0  0  1  0  0  0  0  0  0  0  0  0
    1.4536    1.8393    1.4210 C   0  0  0  0  0  0  0  0  0  0  0  0
    0.7775    2.8506    2.1203 C   0  0  0  0  0  0  0  0  0  0  0  0
    0.2134    3.6908    2.6841 N   0  0  0  0  0  0  0  0  0  0  0  0
    2.3354    1.0424    2.0957 C   0  0  0  0  0  0  0  0  0  0  0  0
    2.5805    1.0678    3.4129 N   0  0  0  0  0  0  0  0  0  0  0  0
    3.0321    0.0880    1.4800 O   0  0  0  0  0  0  0  0  0  0  0  0
    3.0250   -0.0016    0.1052 C   0  0  0  0  0  0  0  0  0  0  0  0
    3.9845   -0.8672   -0.4224 C   0  0  0  0  0  0  0  0  0  0  0  0
    4.9037   -1.4931    0.4015 N   0  0  0  0  0  0  0  0  0  0  0  0
    4.0315   -1.0102   -1.8211 C   0  0  0  0  0  0  0  0  0  0  0  0
    5.0035   -1.8389   -2.3860 N   0  0  0  0  0  0  0  0  0  0  0  0
    3.1550   -0.2688   -2.6101 C   0  0  0  0  0  0  0  0  0  0  0  0
    2.2305    0.5953   -2.0483 C   0  0  0  0  0  0  0  0  0  0  0  0
    2.1422    0.7291   -0.6700 C   0  0  0  0  0  0  0  0  0  0  0  0
   -0.6485   -0.1342    0.4575 C   0  0  0  0  0  0  0  0  0  0  0  0
   -1.9158   -0.6583    0.2516 C   0  0  0  0  0  0  0  0  0  0  0  0
   -2.4144   -2.2492    1.1312 Br  0  0  0  0  0  0  0  0  0  0  0  0
   -2.8317   -0.0617   -0.6047 C   0  0  0  0  0  0  0  0  0  0  0  0
   -4.0501   -0.6055   -0.8255 O   0  0  0  0  0  0  0  0  0  0  0  0
   -5.1055   -0.0482   -0.0464 C   0  0  0  0  0  0  0  0  0  0  0  0
   -2.8564    3.6616   -2.0900 H   0  0  0  0  0  0  0  0  0  0  0  0
   -2.2189    2.7087   -3.4494 H   0  0  0  0  0  0  0  0  0  0  0  0
   -3.9489    3.0878   -3.3640 H   0  0  0  0  0  0  0  0  0  0  0  0
    1.1162    2.5785   -0.5452 H   0  0  0  0  0  0  0  0  0  0  0  0
    2.1870    1.8023    3.9771 H   0  0  0  0  0  0  0  0  0  0  0  0
    3.4348    0.6625    3.7600 H   0  0  0  0  0  0  0  0  0  0  0  0
    4.5838   -1.7195    1.3293 H   0  0  0  0  0  0  0  0  0  0  0  0
    5.4004   -2.2695   -0.0016 H   0  0  0  0  0  0  0  0  0  0  0  0
    5.0185   -2.7755   -2.0039 H   0  0  0  0  0  0  0  0  0  0  0  0
    4.9122   -1.9113   -3.3886 H   0  0  0  0  0  0  0  0  0  0  0  0
    3.1990   -0.3808   -3.6871 H   0  0  0  0  0  0  0  0  0  0  0  0
    1.5544    1.1500   -2.6866 H   0  0  0  0  0  0  0  0  0  0  0  0
    0.0433   -0.6273    1.1284 H   0  0  0  0  0  0  0  0  0  0  0  0
   -4.9482   -0.2201    1.0209 H   0  0  0  0  0  0  0  0  0  0  0  0
   -5.2157    1.0236   -0.2198 H   0  0  0  0  0  0  0  0  0  0  0  0
   -6.0216   -0.5495   -0.3508 H   0  0  0  0  0  0  0  0  0  0  0  0
   -0.8833    2.5598   -1.5629 H   0  0  0  0  0  0  0  0  0  0  0  0
 23 22  1  0
 26 25  1  0
 25 24  1  0
 22 24  1  0
 22 21  2  0
 24  3  2  0
 21  5  1  0
  3  2  1  0
  3  4  1  0
  2  1  1  0
  9  8  3  0
  5  4  2  0
  5  6  1  0
  8  7  1  0
  6  7  1  0
  6 20  1  0
  7 10  2  0
 19 20  1  0
 19 18  2  0
 20 13  2  0
 10 11  1  0
 10 12  1  0
 18 16  1  0
 13 12  1  0
 13 14  1  0
 16 14  2  0
 16 17  1  0
 14 15  1  0
  1 27  1  0
  1 28  1  0
  1 29  1  0
  6 30  1  6
 11 31  1  0
 11 32  1  0
 15 33  1  0
 15 34  1  0
 17 35  1  0
 17 36  1  0
 18 37  1  0
 19 38  1  0
 21 39  1  0
 26 40  1  0
 26 41  1  0
 26 42  1  0
  4 43  1  0
M  END
