
     RDKit          3D

 67 66  0  0  0  0  0  0  0  0999 V2000
   12.8226    3.0321   -0.1615 C   0  0  0  0  0  0  0  0  0  0  0  0
   11.3347    2.9931   -0.4826 C   0  0  0  0  0  0  0  0  0  0  0  0
   10.6806    1.6716   -0.0983 C   0  0  0  0  0  0  0  0  0  0  0  0
    9.1916    1.6173   -0.4182 C   0  0  0  0  0  0  0  0  0  0  0  0
    8.5461    0.2912   -0.0358 C   0  0  0  0  0  0  0  0  0  0  0  0
    7.0651    0.2132   -0.3864 C   0  0  0  0  0  0  0  0  0  0  0  0
    6.4378   -1.1231   -0.0113 C   0  0  0  0  0  0  0  0  0  0  0  0
    4.9695   -1.2384   -0.4210 C   0  0  0  0  0  0  0  0  0  0  0  0
    4.4109   -2.5967   -0.1301 C   0  0  0  0  0  0  0  0  0  0  0  0
    3.2850   -2.9034    0.5126 C   0  0  0  0  0  0  0  0  0  0  0  0
    2.2554   -1.9690    1.0668 C   0  0  0  0  0  0  0  0  0  0  0  0
    0.9355   -2.0757    0.3000 C   0  0  0  0  0  0  0  0  0  0  0  0
   -0.1828   -1.2293    0.8951 C   0  0  0  0  0  0  0  0  0  0  0  0
   -1.4868   -1.3512    0.1165 C   0  0  0  0  0  0  0  0  0  0  0  0
   -2.6359   -0.5484    0.7139 C   0  0  0  0  0  0  0  0  0  0  0  0
   -3.9332   -0.6992   -0.0711 C   0  0  0  0  0  0  0  0  0  0  0  0
   -5.1050    0.0656    0.5311 C   0  0  0  0  0  0  0  0  0  0  0  0
   -6.3967   -0.1052   -0.2588 C   0  0  0  0  0  0  0  0  0  0  0  0
   -7.5807    0.6348    0.3501 C   0  0  0  0  0  0  0  0  0  0  0  0
   -8.8683    0.4500   -0.4438 C   0  0  0  0  0  0  0  0  0  0  0  0
  -10.0372    1.1848    0.1902 C   0  0  0  0  0  0  0  0  0  0  0  0
  -11.3519    1.0170   -0.5451 C   0  0  0  0  0  0  0  0  0  0  0  0
  -11.4661    0.3444   -1.5600 O   0  0  0  0  0  0  0  0  0  0  0  0
  -12.3881    1.6700    0.0080 N   0  0  0  0  0  0  0  0  0  0  0  0
   13.2691    3.9879   -0.4386 H   0  0  0  0  0  0  0  0  0  0  0  0
   12.9993    2.8818    0.9051 H   0  0  0  0  0  0  0  0  0  0  0  0
   13.3612    2.2477   -0.6967 H   0  0  0  0  0  0  0  0  0  0  0  0
   10.8259    3.8125    0.0346 H   0  0  0  0  0  0  0  0  0  0  0  0
   11.1863    3.1724   -1.5522 H   0  0  0  0  0  0  0  0  0  0  0  0
   11.1912    0.8516   -0.6159 H   0  0  0  0  0  0  0  0  0  0  0  0
   10.8288    1.4914    0.9724 H   0  0  0  0  0  0  0  0  0  0  0  0
    8.6782    2.4355    0.0991 H   0  0  0  0  0  0  0  0  0  0  0  0
    9.0455    1.7973   -1.4890 H   0  0  0  0  0  0  0  0  0  0  0  0
    9.0762   -0.5261   -0.5373 H   0  0  0  0  0  0  0  0  0  0  0  0
    8.6753    0.1206    1.0387 H   0  0  0  0  0  0  0  0  0  0  0  0
    6.5273    1.0257    0.1143 H   0  0  0  0  0  0  0  0  0  0  0  0
    6.9393    0.3830   -1.4615 H   0  0  0  0  0  0  0  0  0  0  0  0
    7.0042   -1.9322   -0.4854 H   0  0  0  0  0  0  0  0  0  0  0  0
    6.5279   -1.2816    1.0683 H   0  0  0  0  0  0  0  0  0  0  0  0
    4.3871   -0.4557    0.0698 H   0  0  0  0  0  0  0  0  0  0  0  0
    4.8941   -1.0442   -1.4976 H   0  0  0  0  0  0  0  0  0  0  0  0
    5.0154   -3.4245   -0.4944 H   0  0  0  0  0  0  0  0  0  0  0  0
    3.0462   -3.9583    0.6236 H   0  0  0  0  0  0  0  0  0  0  0  0
    2.0717   -2.2199    2.1174 H   0  0  0  0  0  0  0  0  0  0  0  0
    2.6041   -0.9337    1.0519 H   0  0  0  0  0  0  0  0  0  0  0  0
    1.1028   -1.7835   -0.7416 H   0  0  0  0  0  0  0  0  0  0  0  0
    0.6182   -3.1238    0.2743 H   0  0  0  0  0  0  0  0  0  0  0  0
   -0.3499   -1.5290    1.9356 H   0  0  0  0  0  0  0  0  0  0  0  0
    0.1290   -0.1796    0.9268 H   0  0  0  0  0  0  0  0  0  0  0  0
   -1.3217   -1.0326   -0.9188 H   0  0  0  0  0  0  0  0  0  0  0  0
   -1.7758   -2.4068    0.0645 H   0  0  0  0  0  0  0  0  0  0  0  0
   -2.7990   -0.8654    1.7501 H   0  0  0  0  0  0  0  0  0  0  0  0
   -2.3577    0.5101    0.7604 H   0  0  0  0  0  0  0  0  0  0  0  0
   -3.7734   -0.3658   -1.1026 H   0  0  0  0  0  0  0  0  0  0  0  0
   -4.1921   -1.7620   -0.1349 H   0  0  0  0  0  0  0  0  0  0  0  0
   -5.2633   -0.2673    1.5630 H   0  0  0  0  0  0  0  0  0  0  0  0
   -4.8538    1.1303    0.5915 H   0  0  0  0  0  0  0  0  0  0  0  0
   -6.2418    0.2404   -1.2869 H   0  0  0  0  0  0  0  0  0  0  0  0
   -6.6363   -1.1719   -0.3313 H   0  0  0  0  0  0  0  0  0  0  0  0
   -7.7331    0.2903    1.3790 H   0  0  0  0  0  0  0  0  0  0  0  0
   -7.3458    1.7025    0.4203 H   0  0  0  0  0  0  0  0  0  0  0  0
   -8.7166    0.8023   -1.4678 H   0  0  0  0  0  0  0  0  0  0  0  0
   -9.0980   -0.6164   -0.5161 H   0  0  0  0  0  0  0  0  0  0  0  0
  -10.1781    0.8450    1.2217 H   0  0  0  0  0  0  0  0  0  0  0  0
   -9.8171    2.2547    0.2648 H   0  0  0  0  0  0  0  0  0  0  0  0
  -12.2895    2.2029    0.8545 H   0  0  0  0  0  0  0  0  0  0  0  0
  -13.3083    1.6025   -0.3941 H   0  0  0  0  0  0  0  0  0  0  0  0
  1  2  1  0
  1 25  1  0
  1 26  1  0
  1 27  1  0
  3  2  1  0
  2 28  1  0
  2 29  1  0
  3  4  1  0
  3 30  1  0
  3 31  1  0
  5  4  1  0
  4 32  1  0
  4 33  1  0
  6  5  1  0
  5 34  1  0
  5 35  1  0
  6  7  1  0
  6 36  1  0
  6 37  1  0
  8  7  1  0
  7 38  1  0
  7 39  1  0
  9  8  1  0
  8 40  1  0
  8 41  1  0
 10  9  2  0
  9 42  1  0
 10 11  1  0
 10 43  1  0
 12 11  1  0
 11 44  1  0
 11 45  1  0
 12 13  1  0
 12 46  1  0
 12 47  1  0
 14 13  1  0
 13 48  1  0
 13 49  1  0
 14 15  1  0
 14 50  1  0
 14 51  1  0
 16 15  1  0
 15 52  1  0
 15 53  1  0
 16 17  1  0
 16 54  1  0
 16 55  1  0
 18 17  1  0
 17 56  1  0
 17 57  1  0
 18 19  1  0
 18 58  1  0
 18 59  1  0
 20 19  1  0
 19 60  1  0
 19 61  1  0
 21 20  1  0
 20 62  1  0
 20 63  1  0
 21 22  1  0
 21 64  1  0
 21 65  1  0
 24 22  1  0
 22 23  2  0
 24 66  1  0
 24 67  1  0
M  END
