
     RDKit          3D

 34 33  0  0  0  0  0  0  0  0999 V2000
    0.9852   -0.9243    0.6866 C   0  0  0  0  0  0  0  0  0  0  0  0
   -2.7430   -1.1202   -1.0925 O   0  0  0  0  0  0  0  0  0  0  0  0
   -2.6784   -0.3083    0.0623 C   0  0  1  0  0  0  0  0  0  0  0  0
   -3.8536   -0.5621    0.9972 C   0  0  0  0  0  0  0  0  0  0  0  0
   -1.3621   -0.4839    0.8169 C   0  0  0  0  0  0  0  0  0  0  0  0
   -0.1789   -0.4060   -0.0121 N   0  0  0  0  0  0  0  0  0  0  0  0
   -0.0447    0.8246   -0.7652 C   0  0  0  0  0  0  0  0  0  0  0  0
    0.0577    2.1440    0.0064 C   0  0  1  0  0  0  0  0  0  0  0  0
    1.1825    2.1784    0.8636 O   0  0  0  0  0  0  0  0  0  0  0  0
    0.0713    3.3127   -0.9718 C   0  0  0  0  0  0  0  0  0  0  0  0
    2.2525   -1.0374   -0.1619 C   0  0  1  0  0  0  0  0  0  0  0  0
    2.9860    0.1880   -0.2208 O   0  0  0  0  0  0  0  0  0  0  0  0
    3.1441   -2.1587    0.3479 C   0  0  0  0  0  0  0  0  0  0  0  0
    1.2332   -0.3766    1.6103 H   0  0  0  0  0  0  0  0  0  0  0  0
    0.7162   -1.9347    1.0101 H   0  0  0  0  0  0  0  0  0  0  0  0
   -2.7575    0.7205   -0.3033 H   0  0  0  0  0  0  0  0  0  0  0  0
   -3.8243   -1.5753    1.4055 H   0  0  0  0  0  0  0  0  0  0  0  0
   -3.8466    0.1350    1.8362 H   0  0  0  0  0  0  0  0  0  0  0  0
   -4.8004   -0.4374    0.4709 H   0  0  0  0  0  0  0  0  0  0  0  0
   -1.3541    0.2305    1.6569 H   0  0  0  0  0  0  0  0  0  0  0  0
   -1.3698   -1.4780    1.2814 H   0  0  0  0  0  0  0  0  0  0  0  0
    0.8211    0.7415   -1.4287 H   0  0  0  0  0  0  0  0  0  0  0  0
   -0.9006    0.9001   -1.4416 H   0  0  0  0  0  0  0  0  0  0  0  0
   -0.8220    2.2499    0.6528 H   0  0  0  0  0  0  0  0  0  0  0  0
    1.8931    1.6774    0.4363 H   0  0  0  0  0  0  0  0  0  0  0  0
   -0.8476    3.3425   -1.5598 H   0  0  0  0  0  0  0  0  0  0  0  0
    0.1579    4.2635   -0.4446 H   0  0  0  0  0  0  0  0  0  0  0  0
    0.9110    3.2316   -1.6661 H   0  0  0  0  0  0  0  0  0  0  0  0
    1.9584   -1.2611   -1.1917 H   0  0  0  0  0  0  0  0  0  0  0  0
    3.5827    0.2133    0.5360 H   0  0  0  0  0  0  0  0  0  0  0  0
    2.6352   -3.1198    0.2807 H   0  0  0  0  0  0  0  0  0  0  0  0
    4.0635   -2.2232   -0.2346 H   0  0  0  0  0  0  0  0  0  0  0  0
    3.4131   -1.9998    1.3959 H   0  0  0  0  0  0  0  0  0  0  0  0
   -2.4398   -2.0032   -0.8576 H   0  0  0  0  0  0  0  0  0  0  0  0
 13 11  1  0
  4  3  1  0
 12 11  1  0
 11  1  1  0
  3  2  1  0
  3  5  1  0
  1  6  1  0
  5  6  1  0
  6  7  1  0
  7  8  1  0
  8  9  1  0
  8 10  1  0
  1 14  1  0
  1 15  1  0
  2 34  1  0
  3 16  1  6
  4 17  1  0
  4 18  1  0
  4 19  1  0
  5 20  1  0
  5 21  1  0
  7 22  1  0
  7 23  1  0
  8 24  1  1
  9 25  1  0
 10 26  1  0
 10 27  1  0
 10 28  1  0
 11 29  1  6
 12 30  1  0
 13 31  1  0
 13 32  1  0
 13 33  1  0
M  END
