
     RDKit          3D

 43 44  0  0  0  0  0  0  0  0999 V2000
   -5.6534    0.1822   -0.8042 C   0  0  0  0  0  0  0  0  0  0  0  0
   -4.3834    0.8586   -0.4255 C   0  0  0  0  0  0  0  0  0  0  0  0
   -2.2198    1.1551   -0.1123 C   0  0  0  0  0  0  0  0  0  0  0  0
    1.8391   -0.1760   -0.2939 C   0  0  0  0  0  0  0  0  0  0  0  0
   -2.6592    2.3589    0.3587 C   0  0  0  0  0  0  0  0  0  0  0  0
   -0.8248    0.7070   -0.1764 C   0  0  0  0  0  0  0  0  0  0  0  0
    0.2327    1.6021   -0.0117 C   0  0  0  0  0  0  0  0  0  0  0  0
    1.5452    1.1683   -0.0724 C   0  0  0  0  0  0  0  0  0  0  0  0
    0.7855   -1.0742   -0.4413 C   0  0  0  0  0  0  0  0  0  0  0  0
   -0.5267   -0.6387   -0.3980 C   0  0  0  0  0  0  0  0  0  0  0  0
   -3.2156    0.3224   -0.5475 N   0  0  0  0  0  0  0  0  0  0  0  0
    4.1837    0.1530   -0.7517 N   0  0  0  0  0  0  0  0  0  0  0  0
   -6.3393   -0.4451    0.3908 C   0  0  0  0  0  0  0  0  0  0  0  0
   -9.2029   -2.6601    0.3206 C   0  0  0  0  0  0  0  0  0  0  0  0
   -7.3665   -1.1798    0.0083 O   0  0  0  0  0  0  0  0  0  0  0  0
   -5.9960   -0.2883    1.5335 O   0  0  0  0  0  0  0  0  0  0  0  0
   -4.3595    2.4474    0.2447 S   0  0  0  0  0  0  0  0  0  0  0  0
    3.4827   -1.8641   -0.0349 O   0  0  0  0  0  0  0  0  0  0  0  0
    5.5816   -0.2005   -0.8051 C   0  0  0  0  0  0  0  0  0  0  0  0
    6.2459   -0.0421    0.5643 C   0  0  0  0  0  0  0  0  0  0  0  0
    7.7095   -0.3808    0.5536 C   0  0  1  0  0  0  0  0  0  0  0  0
    8.2608   -0.2543    1.7695 F   0  0  0  0  0  0  0  0  0  0  0  0
    7.9396   -1.6432    0.1561 F   0  0  0  0  0  0  0  0  0  0  0  0
    8.4132    0.4106   -0.2728 F   0  0  0  0  0  0  0  0  0  0  0  0
   -6.3496    0.8796   -1.2781 H   0  0  0  0  0  0  0  0  0  0  0  0
   -5.4379   -0.5902   -1.5446 H   0  0  0  0  0  0  0  0  0  0  0  0
   -2.0863    3.1764    0.7670 H   0  0  0  0  0  0  0  0  0  0  0  0
    0.0404    2.6534    0.1588 H   0  0  0  0  0  0  0  0  0  0  0  0
    2.3321    1.8964    0.0782 H   0  0  0  0  0  0  0  0  0  0  0  0
    0.9906   -2.1245   -0.5999 H   0  0  0  0  0  0  0  0  0  0  0  0
   -1.3291   -1.3519   -0.5276 H   0  0  0  0  0  0  0  0  0  0  0  0
    3.9250    1.0729   -1.0662 H   0  0  0  0  0  0  0  0  0  0  0  0
   -9.8730   -2.0258   -0.2592 H   0  0  0  0  0  0  0  0  0  0  0  0
   -8.7667   -3.4070   -0.3427 H   0  0  0  0  0  0  0  0  0  0  0  0
   -9.8011   -3.1838    1.0654 H   0  0  0  0  0  0  0  0  0  0  0  0
   -8.5842   -1.1122    1.6892 H   0  0  0  0  0  0  0  0  0  0  0  0
   -7.4837   -2.4926    1.6128 H   0  0  0  0  0  0  0  0  0  0  0  0
    5.6810   -1.2239   -1.1665 H   0  0  0  0  0  0  0  0  0  0  0  0
    6.0528    0.4513   -1.5387 H   0  0  0  0  0  0  0  0  0  0  0  0
    6.1341    0.9867    0.9117 H   0  0  0  0  0  0  0  0  0  0  0  0
    5.7541   -0.6877    1.2938 H   0  0  0  0  0  0  0  0  0  0  0  0
    3.2345   -0.7057   -0.3417 C   0  0  0  0  0  0  0  0  0  0  0  0
   -8.1388   -1.8514    1.0208 C   0  0  0  0  0  0  0  0  0  0  0  0
 21 23  1  6
 22 21  1  0
 18 42  2  0
 21 24  1  0
 21 20  1  0
  8  7  1  0
  8  4  2  0
 20 19  1  0
 42  4  1  0
 42 12  1  0
 19 12  1  0
  7  6  2  0
  4  9  1  0
 16 13  2  0
  1 13  1  0
  1  2  1  0
 11  2  2  0
 11  3  1  0
  6  3  1  0
  6 10  1  0
 13 15  1  0
  9 10  2  0
  2 17  1  0
  3  5  2  0
 15 43  1  0
 43 14  1  0
  5 17  1  0
  1 25  1  0
  1 26  1  0
  5 27  1  0
  7 28  1  0
  8 29  1  0
  9 30  1  0
 10 31  1  0
 12 32  1  0
 14 33  1  0
 14 34  1  0
 14 35  1  0
 43 36  1  0
 43 37  1  0
 19 38  1  0
 19 39  1  0
 20 40  1  0
 20 41  1  0
M  END
