
     RDKit          3D

 21 22  0  0  0  0  0  0  0  0999 V2000
   -2.7262   -1.1863   -0.4180 C   0  0  0  0  0  0  0  0  0  0  0  0
   -3.9954   -0.6378   -0.5094 C   0  0  0  0  0  0  0  0  0  0  0  0
   -4.2409    0.5764    0.1117 C   0  0  0  0  0  0  0  0  0  0  0  0
   -3.1997    1.1820    0.8029 C   0  0  0  0  0  0  0  0  0  0  0  0
   -1.9798    0.6725    0.8851 N   0  0  0  0  0  0  0  0  0  0  0  0
   -1.7413   -0.4843    0.2730 C   0  0  0  0  0  0  0  0  0  0  0  0
   -0.3956   -1.0712    0.3926 C   0  0  0  0  0  0  0  0  0  0  0  0
    0.7686   -0.4621    0.1571 C   0  0  0  0  0  0  0  0  0  0  0  0
    2.3217   -1.2321    0.4594 S   0  0  0  0  0  0  0  0  0  0  0  0
    0.9757    0.8822   -0.4570 C   0  0  0  0  0  0  0  0  0  0  0  0
    0.1174    1.6187   -0.8770 O   0  0  0  0  0  0  0  0  0  0  0  0
    2.3151    1.1428   -0.5235 N   0  0  0  0  0  0  0  0  0  0  0  0
    3.2154    0.1863   -0.1141 C   0  0  0  0  0  0  0  0  0  0  0  0
    4.4608    0.3512   -0.1674 N   0  0  0  0  0  0  0  0  0  0  0  0
   -2.4965   -2.1383   -0.8780 H   0  0  0  0  0  0  0  0  0  0  0  0
   -4.7773   -1.1527   -1.0513 H   0  0  0  0  0  0  0  0  0  0  0  0
   -5.2163    1.0414    0.0773 H   0  0  0  0  0  0  0  0  0  0  0  0
   -3.3639    2.1219    1.3182 H   0  0  0  0  0  0  0  0  0  0  0  0
   -0.3699   -2.1081    0.7140 H   0  0  0  0  0  0  0  0  0  0  0  0
    4.9807   -0.4513    0.1658 H   0  0  0  0  0  0  0  0  0  0  0  0
    2.6574    2.0069   -0.9233 H   0  0  0  0  0  0  0  0  0  0  0  0
  1  2  2  0
  1  6  1  0
  1 15  1  0
  2  3  1  0
  2 16  1  0
  3  4  2  0
  3 17  1  0
  4 18  1  0
  4  5  1  0
  5  6  2  0
  6  7  1  0
  7 19  1  0
  7  8  2  0
  8  9  1  0
  8 10  1  0
  9 13  1  0
 10 11  2  0
 10 12  1  0
 12 21  1  0
 12 13  1  0
 13 14  2  0
 14 20  1  0
M  END
