
     RDKit          3D

 25 25  0  0  0  0  0  0  0  0999 V2000
    2.3334   -2.4287    0.5807 N   0  0  0  0  0  0  0  0  0  0  0  0
    2.1953   -1.3174    0.3007 C   0  0  0  0  0  0  0  0  0  0  0  0
    2.1077    0.0651   -0.0212 C   0  0  0  0  0  0  0  0  0  0  0  0
    3.4554    0.7629   -0.1061 C   0  0  1  0  0  0  0  0  0  0  0  0
    4.1530    0.6818    1.1059 O   0  0  0  0  0  0  0  0  0  0  0  0
    4.2313    0.1474   -1.1513 N   0  0  0  0  0  0  0  0  0  0  0  0
    0.9555    0.7332   -0.2018 C   0  0  0  0  0  0  0  0  0  0  0  0
   -0.4303    0.2935   -0.1767 C   0  0  0  0  0  0  0  0  0  0  0  0
   -1.4082    1.2980   -0.1396 C   0  0  0  0  0  0  0  0  0  0  0  0
   -2.7557    0.9979   -0.1067 C   0  0  0  0  0  0  0  0  0  0  0  0
   -3.6515    2.0039   -0.0648 O   0  0  0  0  0  0  0  0  0  0  0  0
   -0.8485   -1.0375   -0.2061 C   0  0  0  0  0  0  0  0  0  0  0  0
   -2.1980   -1.3476   -0.1804 C   0  0  0  0  0  0  0  0  0  0  0  0
   -3.1570   -0.3463   -0.1244 C   0  0  0  0  0  0  0  0  0  0  0  0
   -4.4830   -0.5710   -0.0953 O   0  0  0  0  0  0  0  0  0  0  0  0
    3.2569    1.8312   -0.2599 H   0  0  0  0  0  0  0  0  0  0  0  0
    4.5923   -0.1774    1.1350 H   0  0  0  0  0  0  0  0  0  0  0  0
    3.6973    0.0905   -2.0092 H   0  0  0  0  0  0  0  0  0  0  0  0
    5.0517    0.7064   -1.3531 H   0  0  0  0  0  0  0  0  0  0  0  0
    1.0772    1.7960   -0.3902 H   0  0  0  0  0  0  0  0  0  0  0  0
   -1.1102    2.3402   -0.1306 H   0  0  0  0  0  0  0  0  0  0  0  0
   -4.5521    1.6587   -0.0622 H   0  0  0  0  0  0  0  0  0  0  0  0
   -0.1421   -1.8508   -0.2697 H   0  0  0  0  0  0  0  0  0  0  0  0
   -2.5094   -2.3852   -0.2111 H   0  0  0  0  0  0  0  0  0  0  0  0
   -4.6775   -1.5150   -0.1252 H   0  0  0  0  0  0  0  0  0  0  0  0
 15 14  1  0
 13 14  2  0
 13 12  1  0
 14 10  1  0
 12  8  2  0
 10 11  1  0
 10  9  2  0
  8  9  1  0
  8  7  1  0
  7  3  2  0
  3  2  1  0
  3  4  1  0
  5  4  1  0
  2  1  3  0
  4  6  1  0
  4 16  1  6
  5 17  1  0
  6 18  1  0
  6 19  1  0
  7 20  1  0
  9 21  1  0
 11 22  1  0
 12 23  1  0
 13 24  1  0
 15 25  1  0
M  END
