
     RDKit          3D

 45 48  0  0  0  0  0  0  0  0999 V2000
   -8.1995   -0.1625    0.0596 O   0  0  0  0  0  0  0  0  0  0  0  0
   -6.8871    0.1219    0.0507 C   0  0  0  0  0  0  0  0  0  0  0  0
   -5.9196   -0.9018    0.0574 C   0  0  0  0  0  0  0  0  0  0  0  0
   -6.4248   -2.1510    0.0739 O   0  0  0  0  0  0  0  0  0  0  0  0
   -5.5292   -3.2464    0.0714 C   0  0  0  0  0  0  0  0  0  0  0  0
   -4.5767   -0.5804    0.0470 C   0  0  0  0  0  0  0  0  0  0  0  0
   -4.1714    0.7635    0.0301 C   0  0  0  0  0  0  0  0  0  0  0  0
   -5.1318    1.7715    0.0240 C   0  0  0  0  0  0  0  0  0  0  0  0
   -6.4801    1.4459    0.0345 C   0  0  0  0  0  0  0  0  0  0  0  0
   -2.7849    1.0698    0.0182 C   0  0  0  0  0  0  0  0  0  0  0  0
   -1.5998    1.3040    0.0164 C   0  0  0  0  0  0  0  0  0  0  0  0
   -0.2106    1.5347    0.0068 C   0  0  0  0  0  0  0  0  0  0  0  0
    0.8634    0.6732   -0.0030 C   0  0  0  0  0  0  0  0  0  0  0  0
    1.2714   -0.7620   -0.0077 C   0  0  0  0  0  0  0  0  0  0  0  0
    2.7842   -0.6271   -0.0192 C   0  0  0  0  0  0  0  0  0  0  0  0
    3.1921    0.7060   -0.0216 C   0  0  0  0  0  0  0  0  0  0  0  0
    1.9835    1.5129   -0.0110 C   0  0  0  0  0  0  0  0  0  0  0  0
    1.6660    2.7930   -0.0064 N   0  0  0  0  0  0  0  0  0  0  0  0
    0.3352    2.7852    0.0041 N   0  0  0  0  0  0  0  0  0  0  0  0
    4.5417    1.0477   -0.0325 C   0  0  0  0  0  0  0  0  0  0  0  0
    5.4880    0.0361   -0.0403 C   0  0  0  0  0  0  0  0  0  0  0  0
    6.8202    0.2316   -0.0510 O   0  0  0  0  0  0  0  0  0  0  0  0
    7.2952    1.5619   -0.0540 C   0  0  0  0  0  0  0  0  0  0  0  0
    5.0797   -1.3192   -0.0369 C   0  0  0  0  0  0  0  0  0  0  0  0
    3.7298   -1.6437   -0.0268 C   0  0  0  0  0  0  0  0  0  0  0  0
    6.0818   -2.2172   -0.0440 O   0  0  0  0  0  0  0  0  0  0  0  0
    5.7482   -3.5894   -0.0405 C   0  0  0  0  0  0  0  0  0  0  0  0
   -8.3358   -1.1184    0.0645 H   0  0  0  0  0  0  0  0  0  0  0  0
   -4.9019   -3.2527   -0.8231 H   0  0  0  0  0  0  0  0  0  0  0  0
   -4.8899   -3.2474    0.9574 H   0  0  0  0  0  0  0  0  0  0  0  0
   -6.1402   -4.1449    0.0782 H   0  0  0  0  0  0  0  0  0  0  0  0
   -3.8205   -1.3532    0.0517 H   0  0  0  0  0  0  0  0  0  0  0  0
   -4.8301    2.8099    0.0100 H   0  0  0  0  0  0  0  0  0  0  0  0
   -7.2294    2.2271    0.0294 H   0  0  0  0  0  0  0  0  0  0  0  0
    0.9194   -1.3081    0.8716 H   0  0  0  0  0  0  0  0  0  0  0  0
    0.9064   -1.3059   -0.8831 H   0  0  0  0  0  0  0  0  0  0  0  0
   -0.1721    3.6565    0.0128 H   0  0  0  0  0  0  0  0  0  0  0  0
    4.8342    2.0893   -0.0352 H   0  0  0  0  0  0  0  0  0  0  0  0
    6.9647    2.1107   -0.9399 H   0  0  0  0  0  0  0  0  0  0  0  0
    6.9778    2.1103    0.8371 H   0  0  0  0  0  0  0  0  0  0  0  0
    8.3809    1.5040   -0.0620 H   0  0  0  0  0  0  0  0  0  0  0  0
    3.4072   -2.6772   -0.0243 H   0  0  0  0  0  0  0  0  0  0  0  0
    5.1830   -3.8713    0.8522 H   0  0  0  0  0  0  0  0  0  0  0  0
    5.1721   -3.8735   -0.9255 H   0  0  0  0  0  0  0  0  0  0  0  0
    6.6883   -4.1360   -0.0456 H   0  0  0  0  0  0  0  0  0  0  0  0
 23 22  1  0
 22 21  1  0
 18 19  1  0
 18 17  2  0
 20 21  1  0
 20 16  2  0
 21 24  2  0
 19 12  1  0
 17 16  1  0
 17 13  1  0
 16 15  1  0
 12 13  2  0
 12 11  1  0
 24 26  1  0
 24 25  1  0
 13 14  1  0
 15 25  2  0
 15 14  1  0
 26 27  1  0
 11 10  3  0
 10  7  1  0
  7  8  2  0
  7  6  1  0
  8  9  1  0
  6  3  2  0
  9  2  2  0
  3  2  1  0
  3  4  1  0
  2  1  1  0
  5  4  1  0
  1 28  1  0
  5 29  1  0
  5 30  1  0
  5 31  1  0
  6 32  1  0
  8 33  1  0
  9 34  1  0
 14 35  1  0
 14 36  1  0
 19 37  1  0
 20 38  1  0
 23 39  1  0
 23 40  1  0
 23 41  1  0
 25 42  1  0
 27 43  1  0
 27 44  1  0
 27 45  1  0
M  END
