
     RDKit          3D

 37 40  0  0  0  0  0  0  0  0999 V2000
    1.4058   -0.1632   -1.5277 C   0  0  0  0  0  0  0  0  0  0  0  0
    1.4328   -0.4930   -3.0159 C   0  0  2  0  0  0  0  0  0  0  0  0
    2.7059   -0.2709   -3.5778 O   0  0  0  0  0  0  0  0  0  0  0  0
    0.4150    0.3404   -3.7679 C   0  0  2  0  0  0  0  0  0  0  0  0
    0.6867    1.6986   -3.5255 O   0  0  0  0  0  0  0  0  0  0  0  0
   -0.9820   -0.0282   -3.2749 C   0  0  1  0  0  0  0  0  0  0  0  0
   -1.2873   -1.3154   -3.7781 O   0  0  0  0  0  0  0  0  0  0  0  0
   -1.0808    0.0102   -1.7678 C   0  0  0  0  0  0  0  0  0  0  0  0
   -2.3885    0.1059   -1.2079 C   0  0  0  0  0  0  0  0  0  0  0  0
    0.0170   -0.0766   -0.9565 C   0  0  0  0  0  0  0  0  0  0  0  0
   -2.5873    0.1234    0.1326 C   0  0  0  0  0  0  0  0  0  0  0  0
    0.9220   -0.0886    1.3538 C   0  0  0  0  0  0  0  0  0  0  0  0
   -0.1561   -0.0425    0.4721 C   0  0  0  0  0  0  0  0  0  0  0  0
    1.8496   -0.0938    3.6359 C   0  0  0  0  0  0  0  0  0  0  0  0
    1.6521   -0.0524    4.9822 C   0  0  0  0  0  0  0  0  0  0  0  0
    0.3384    0.0372    5.5169 C   0  0  0  0  0  0  0  0  0  0  0  0
    0.7455   -0.0477    2.7369 C   0  0  0  0  0  0  0  0  0  0  0  0
   -0.5745    0.0433    3.2758 C   0  0  0  0  0  0  0  0  0  0  0  0
   -1.4762    0.0543    1.0199 C   0  0  0  0  0  0  0  0  0  0  0  0
   -0.7416    0.0835    4.6898 C   0  0  0  0  0  0  0  0  0  0  0  0
   -1.6551    0.0925    2.3991 C   0  0  0  0  0  0  0  0  0  0  0  0
    1.9797   -0.9282   -0.9969 H   0  0  0  0  0  0  0  0  0  0  0  0
    1.9267    0.7834   -1.3520 H   0  0  0  0  0  0  0  0  0  0  0  0
    1.1375   -1.5428   -3.1404 H   0  0  0  0  0  0  0  0  0  0  0  0
    3.3247   -0.8840   -3.1692 H   0  0  0  0  0  0  0  0  0  0  0  0
    0.4755    0.1075   -4.8406 H   0  0  0  0  0  0  0  0  0  0  0  0
    0.1028    2.2305   -4.0752 H   0  0  0  0  0  0  0  0  0  0  0  0
   -1.6913    0.7085   -3.6821 H   0  0  0  0  0  0  0  0  0  0  0  0
   -2.2033   -1.5208   -3.5659 H   0  0  0  0  0  0  0  0  0  0  0  0
   -3.2381    0.1835   -1.8774 H   0  0  0  0  0  0  0  0  0  0  0  0
   -3.5866    0.2021    0.5433 H   0  0  0  0  0  0  0  0  0  0  0  0
    1.9341   -0.1553    0.9753 H   0  0  0  0  0  0  0  0  0  0  0  0
    2.8520   -0.1639    3.2305 H   0  0  0  0  0  0  0  0  0  0  0  0
    2.4971   -0.0884    5.6572 H   0  0  0  0  0  0  0  0  0  0  0  0
    0.2037    0.0678    6.5902 H   0  0  0  0  0  0  0  0  0  0  0  0
   -1.7437    0.1522    5.0957 H   0  0  0  0  0  0  0  0  0  0  0  0
   -2.6610    0.1664    2.7977 H   0  0  0  0  0  0  0  0  0  0  0  0
  1  2  1  0
  1 10  1  0
  1 22  1  0
  1 23  1  0
  2  3  1  0
  2  4  1  0
  2 24  1  1
  3 25  1  0
  4  5  1  0
  4  6  1  0
  4 26  1  6
  5 27  1  0
  6  7  1  0
  6  8  1  0
  6 28  1  6
  7 29  1  0
  8  9  1  0
  8 10  2  0
  9 11  2  0
  9 30  1  0
 10 13  1  0
 11 19  1  0
 11 31  1  0
 12 13  2  0
 12 17  1  0
 12 32  1  0
 13 19  1  0
 14 15  1  0
 14 17  2  0
 14 33  1  0
 15 16  2  0
 15 34  1  0
 16 20  1  0
 16 35  1  0
 17 18  1  0
 18 20  2  0
 18 21  1  0
 19 21  2  0
 20 36  1  0
 21 37  1  0
M  END
