
     RDKit          3D

 36 39  0  0  0  0  0  0  0  0999 V2000
    2.9635   -0.1610    0.2461 C   0  0  0  0  0  0  0  0  0  0  0  0
    4.3841   -3.3099   -1.0813 C   0  0  0  0  0  0  0  0  0  0  0  0
   -1.7877   -1.7022    0.5387 C   0  0  0  0  0  0  0  0  0  0  0  0
   -2.9576   -2.4312    0.4590 C   0  0  0  0  0  0  0  0  0  0  0  0
   -4.1401   -1.7861    0.1178 C   0  0  0  0  0  0  0  0  0  0  0  0
   -4.1588   -0.4255   -0.1401 C   0  0  0  0  0  0  0  0  0  0  0  0
   -1.1613    4.5826   -0.3595 O   0  0  0  0  0  0  0  0  0  0  0  0
   -0.0884    4.4373   -2.3141 O   0  0  0  0  0  0  0  0  0  0  0  0
   -0.3168    2.4560   -1.0865 C   0  0  0  0  0  0  0  0  0  0  0  0
   -0.5400    1.9358    0.3267 C   0  0  2  0  0  0  0  0  0  0  0  0
    0.6701    2.6178    1.5108 S   0  0  0  0  0  0  0  0  0  0  0  0
    1.9811    1.6286    0.9768 C   0  0  0  0  0  0  0  0  0  0  0  0
    3.2608    1.8317    1.0395 N   0  0  0  0  0  0  0  0  0  0  0  0
    3.8769    0.7107    0.5793 N   0  0  0  0  0  0  0  0  0  0  0  0
    3.2053   -1.4725   -0.3016 C   0  0  0  0  0  0  0  0  0  0  0  0
    4.4457   -2.0041   -0.5427 C   0  0  0  0  0  0  0  0  0  0  0  0
    3.1024   -3.7455   -1.2433 C   0  0  0  0  0  0  0  0  0  0  0  0
    1.9560   -2.5827   -0.7396 S   0  0  0  0  0  0  0  0  0  0  0  0
    1.7338    0.3866    0.4760 N   0  0  0  0  0  0  0  0  0  0  0  0
    0.5603   -0.2654    0.3679 N   0  0  0  0  0  0  0  0  0  0  0  0
   -0.5160    0.4249    0.3502 C   0  0  0  0  0  0  0  0  0  0  0  0
   -1.7790   -0.3267    0.2847 C   0  0  0  0  0  0  0  0  0  0  0  0
   -2.9800    0.2971   -0.0515 C   0  0  0  0  0  0  0  0  0  0  0  0
    5.2534   -3.8976   -1.3371 H   0  0  0  0  0  0  0  0  0  0  0  0
   -0.8717   -2.2071    0.8119 H   0  0  0  0  0  0  0  0  0  0  0  0
   -2.9506   -3.4925    0.6653 H   0  0  0  0  0  0  0  0  0  0  0  0
   -5.0798    0.0732   -0.4074 H   0  0  0  0  0  0  0  0  0  0  0  0
   -0.2901    5.3833   -2.3801 H   0  0  0  0  0  0  0  0  0  0  0  0
   -1.0060    1.9590   -1.7792 H   0  0  0  0  0  0  0  0  0  0  0  0
    0.6841    2.2192   -1.4534 H   0  0  0  0  0  0  0  0  0  0  0  0
   -1.4929    2.2926    0.7148 H   0  0  0  0  0  0  0  0  0  0  0  0
    5.3643   -1.4723   -0.3405 H   0  0  0  0  0  0  0  0  0  0  0  0
    2.7681   -4.6959   -1.6304 H   0  0  0  0  0  0  0  0  0  0  0  0
   -3.0287    1.3563   -0.2642 H   0  0  0  0  0  0  0  0  0  0  0  0
   -5.6040   -2.6912    0.0190 Cl  0  0  0  0  0  0  0  0  0  0  0  0
   -0.5694    3.9394   -1.1872 C   0  0  0  0  0  0  0  0  0  0  0  0
 35  5  1  0
  5  4  1  0
  5  6  2  0
  4  3  2  0
 17  2  2  0
 17 18  1  0
  6 23  1  0
  3 22  1  0
  2 16  1  0
 18 15  1  0
 23 22  2  0
 22 21  1  0
 16 15  2  0
 15  1  1  0
 20 21  2  0
 20 19  1  0
 21 10  1  0
  1 19  1  0
  1 14  2  0
 19 12  1  0
 10  9  1  0
 10 11  1  0
  9 36  1  0
 14 13  1  0
 12 11  1  0
 12 13  2  0
 36  7  2  0
 36  8  1  0
  2 24  1  0
  3 25  1  0
  4 26  1  0
  6 27  1  0
  8 28  1  0
  9 29  1  0
  9 30  1  0
 10 31  1  1
 16 32  1  0
 17 33  1  0
 23 34  1  0
M  END
