
     RDKit          3D

 31 32  0  0  0  0  0  0  0  0999 V2000
   -4.9651   -0.8762   -0.2789 N   0  0  0  0  0  0  0  0  0  0  0  0
   -3.7329   -1.1952    0.1704 C   0  0  0  0  0  0  0  0  0  0  0  0
   -3.4422   -2.2830    0.6315 O   0  0  0  0  0  0  0  0  0  0  0  0
   -2.7432   -0.0800    0.0725 C   0  0  0  0  0  0  0  0  0  0  0  0
    5.8351   -0.8810   -0.2598 C   0  0  0  0  0  0  0  0  0  0  0  0
    5.1830    0.3421   -0.3337 C   0  0  0  0  0  0  0  0  0  0  0  0
    3.8099    0.4103   -0.1486 C   0  0  0  0  0  0  0  0  0  0  0  0
   -1.4039   -0.4253   -0.0595 C   0  0  0  0  0  0  0  0  0  0  0  0
   -3.1123    1.2611    0.1226 C   0  0  0  0  0  0  0  0  0  0  0  0
   -2.1468    2.2476    0.0215 C   0  0  0  0  0  0  0  0  0  0  0  0
   -0.8160    1.8934   -0.1140 C   0  0  0  0  0  0  0  0  0  0  0  0
   -0.4220    0.5534   -0.1565 C   0  0  0  0  0  0  0  0  0  0  0  0
    1.6073   -0.7257    0.3575 C   0  0  0  0  0  0  0  0  0  0  0  0
    3.0797   -0.7468    0.1180 C   0  0  0  0  0  0  0  0  0  0  0  0
    3.7433   -1.9686    0.2137 C   0  0  0  0  0  0  0  0  0  0  0  0
    5.1128   -2.0360    0.0143 C   0  0  0  0  0  0  0  0  0  0  0  0
    0.9301    0.2399   -0.3210 N   0  0  0  0  0  0  0  0  0  0  0  0
   -5.9021   -1.8598   -0.3743 O   0  0  0  0  0  0  0  0  0  0  0  0
    1.0663   -1.5231    1.1003 O   0  0  0  0  0  0  0  0  0  0  0  0
    0.3783    3.1378   -0.2215 Cl  0  0  0  0  0  0  0  0  0  0  0  0
   -5.1140   -0.1050   -0.9147 H   0  0  0  0  0  0  0  0  0  0  0  0
    5.7426    1.2468   -0.5301 H   0  0  0  0  0  0  0  0  0  0  0  0
    3.3291    1.3808   -0.1806 H   0  0  0  0  0  0  0  0  0  0  0  0
   -1.1256   -1.4669   -0.1157 H   0  0  0  0  0  0  0  0  0  0  0  0
   -4.1434    1.5568    0.2624 H   0  0  0  0  0  0  0  0  0  0  0  0
   -2.4263    3.2910    0.0675 H   0  0  0  0  0  0  0  0  0  0  0  0
    3.1862   -2.8696    0.4343 H   0  0  0  0  0  0  0  0  0  0  0  0
    5.6183   -2.9907    0.0756 H   0  0  0  0  0  0  0  0  0  0  0  0
    1.4541    0.8313   -0.9476 H   0  0  0  0  0  0  0  0  0  0  0  0
   -6.4940   -1.7382    0.3791 H   0  0  0  0  0  0  0  0  0  0  0  0
    6.9057   -0.9337   -0.4075 H   0  0  0  0  0  0  0  0  0  0  0  0
 10  9  1  0
 10 11  2  0
  9  4  2  0
 20 11  1  0
 11 12  1  0
  1 18  1  0
  1  2  1  0
  4  2  1  0
  4  8  1  0
  2  3  2  0
 12  8  2  0
 12 17  1  0
 17 13  1  0
 13 19  2  0
 13 14  1  0
 14 15  2  0
 14  7  1  0
 15 16  1  0
  7  6  2  0
 16  5  2  0
  6  5  1  0
  1 21  1  0
  5 31  1  0
  6 22  1  0
  7 23  1  0
  8 24  1  0
  9 25  1  0
 10 26  1  0
 15 27  1  0
 16 28  1  0
 17 29  1  0
 18 30  1  0
M  END
