
     RDKit          3D

 48 51  0  0  0  0  0  0  0  0999 V2000
    1.1015    3.7286   -1.4387 C   0  0  0  0  0  0  0  0  0  0  0  0
    0.6232    2.2933   -1.2685 C   0  0  0  0  0  0  0  0  0  0  0  0
    0.3393    1.9036    0.1907 C   0  0  2  0  0  0  0  0  0  0  0  0
    1.6039    1.8351    1.0402 C   0  0  0  0  0  0  0  0  0  0  0  0
   -0.3698    0.5715    0.2552 C   0  0  0  0  0  0  0  0  0  0  0  0
    0.3473   -0.5736    0.2840 C   0  0  0  0  0  0  0  0  0  0  0  0
    1.8124   -0.5307    0.3000 C   0  0  0  0  0  0  0  0  0  0  0  0
    2.6090   -1.6314   -0.0149 C   0  0  0  0  0  0  0  0  0  0  0  0
    3.9940   -1.5587    0.0005 C   0  0  0  0  0  0  0  0  0  0  0  0
    4.6186   -0.3658    0.3464 C   0  0  0  0  0  0  0  0  0  0  0  0
    5.9593   -0.2247    0.3828 O   0  0  0  0  0  0  0  0  0  0  0  0
    3.8393    0.7433    0.6739 C   0  0  0  0  0  0  0  0  0  0  0  0
    2.4583    0.6671    0.6513 C   0  0  0  0  0  0  0  0  0  0  0  0
   -1.8339    0.5288    0.1973 C   0  0  0  0  0  0  0  0  0  0  0  0
   -2.4979   -0.6621    0.5377 C   0  0  0  0  0  0  0  0  0  0  0  0
   -1.6645   -1.8218    0.9924 C   0  0  0  0  0  0  0  0  0  0  0  0
   -0.3588   -1.9072    0.2099 C   0  0  1  0  0  0  0  0  0  0  0  0
   -0.5664   -2.3252   -1.2540 C   0  0  0  0  0  0  0  0  0  0  0  0
   -1.0549   -3.7573   -1.4218 C   0  0  0  0  0  0  0  0  0  0  0  0
   -3.8783   -0.7383    0.4909 C   0  0  0  0  0  0  0  0  0  0  0  0
   -4.6386    0.3649    0.1045 C   0  0  0  0  0  0  0  0  0  0  0  0
   -5.9798    0.2247    0.0743 O   0  0  0  0  0  0  0  0  0  0  0  0
   -3.9962    1.5517   -0.2301 C   0  0  0  0  0  0  0  0  0  0  0  0
   -2.6121    1.6241   -0.1771 C   0  0  0  0  0  0  0  0  0  0  0  0
    2.0626    3.9074   -0.9549 H   0  0  0  0  0  0  0  0  0  0  0  0
    1.2220    3.9737   -2.4945 H   0  0  0  0  0  0  0  0  0  0  0  0
    0.3839    4.4353   -1.0164 H   0  0  0  0  0  0  0  0  0  0  0  0
   -0.2858    2.1525   -1.8591 H   0  0  0  0  0  0  0  0  0  0  0  0
    1.3602    1.6037   -1.6903 H   0  0  0  0  0  0  0  0  0  0  0  0
   -0.3025    2.6737    0.6297 H   0  0  0  0  0  0  0  0  0  0  0  0
    2.1734    2.7643    0.9805 H   0  0  0  0  0  0  0  0  0  0  0  0
    1.3113    1.7227    2.0911 H   0  0  0  0  0  0  0  0  0  0  0  0
    2.1565   -2.5751   -0.2912 H   0  0  0  0  0  0  0  0  0  0  0  0
    4.5814   -2.4326   -0.2584 H   0  0  0  0  0  0  0  0  0  0  0  0
    6.3891   -1.0449    0.1171 H   0  0  0  0  0  0  0  0  0  0  0  0
    4.3242    1.6732    0.9499 H   0  0  0  0  0  0  0  0  0  0  0  0
   -1.4243   -1.6862    2.0539 H   0  0  0  0  0  0  0  0  0  0  0  0
   -2.2314   -2.7521    0.9264 H   0  0  0  0  0  0  0  0  0  0  0  0
    0.2592   -2.6681    0.6968 H   0  0  0  0  0  0  0  0  0  0  0  0
   -1.2687   -1.6350   -1.7301 H   0  0  0  0  0  0  0  0  0  0  0  0
    0.3762   -2.2082   -1.7950 H   0  0  0  0  0  0  0  0  0  0  0  0
   -2.0479   -3.9102   -0.9974 H   0  0  0  0  0  0  0  0  0  0  0  0
   -1.1129   -4.0244   -2.4776 H   0  0  0  0  0  0  0  0  0  0  0  0
   -0.3776   -4.4654   -0.9397 H   0  0  0  0  0  0  0  0  0  0  0  0
   -4.3775   -1.6629    0.7595 H   0  0  0  0  0  0  0  0  0  0  0  0
   -6.3946    1.0451   -0.2143 H   0  0  0  0  0  0  0  0  0  0  0  0
   -4.5687    2.4210   -0.5334 H   0  0  0  0  0  0  0  0  0  0  0  0
   -2.1456    2.5626   -0.4470 H   0  0  0  0  0  0  0  0  0  0  0  0
  1  2  1  0
  1 25  1  0
  1 26  1  0
  1 27  1  0
  2  3  1  0
  2 28  1  0
  2 29  1  0
  3  4  1  0
  3  5  1  0
  3 30  1  1
  4 13  1  0
  4 31  1  0
  4 32  1  0
  5  6  2  0
  5 14  1  0
  6  7  1  0
  6 17  1  0
  7  8  2  0
  7 13  1  0
  8  9  1  0
  8 33  1  0
  9 10  2  0
  9 34  1  0
 10 11  1  0
 10 12  1  0
 11 35  1  0
 12 13  2  0
 12 36  1  0
 14 15  2  0
 14 24  1  0
 15 16  1  0
 15 20  1  0
 16 17  1  0
 16 37  1  0
 16 38  1  0
 17 18  1  0
 17 39  1  1
 18 19  1  0
 18 40  1  0
 18 41  1  0
 19 42  1  0
 19 43  1  0
 19 44  1  0
 20 21  2  0
 20 45  1  0
 21 22  1  0
 21 23  1  0
 22 46  1  0
 23 24  2  0
 23 47  1  0
 24 48  1  0
M  END
