
     RDKit          3D

 31 33  0  0  0  0  0  0  0  0999 V2000
    2.1111   -2.5973    0.5428 O   0  0  0  0  0  0  0  0  0  0  0  0
    2.0554   -1.4060    0.2824 C   0  0  0  0  0  0  0  0  0  0  0  0
    3.2369   -0.6882    0.0800 N   0  0  0  0  0  0  0  0  0  0  0  0
    3.2796    0.6159   -0.2855 C   0  0  0  0  0  0  0  0  0  0  0  0
    4.4726    1.1590   -0.5010 N   0  0  0  0  0  0  0  0  0  0  0  0
    2.2002    1.3543   -0.4274 N   0  0  0  0  0  0  0  0  0  0  0  0
    1.0267    0.7581   -0.1816 C   0  0  0  0  0  0  0  0  0  0  0  0
    0.8819   -0.5997    0.1594 C   0  0  0  0  0  0  0  0  0  0  0  0
   -0.3428   -1.1943    0.1684 N   0  0  0  0  0  0  0  0  0  0  0  0
   -0.0887    1.4744   -0.3362 N   0  0  0  0  0  0  0  0  0  0  0  0
   -1.3417    1.0449    0.2725 C   0  0  2  0  0  0  0  0  0  0  0  0
   -2.5005    1.7229   -0.4568 C   0  0  0  0  0  0  0  0  0  0  0  0
   -1.3430    1.3928    1.7661 C   0  0  0  0  0  0  0  0  0  0  0  0
   -1.3986   -0.4686    0.1301 C   0  0  0  0  0  0  0  0  0  0  0  0
   -2.7045   -1.1733    0.0231 C   0  0  0  0  0  0  0  0  0  0  0  0
   -2.7947   -2.3622    0.2532 O   0  0  0  0  0  0  0  0  0  0  0  0
   -3.8863   -0.3670   -0.4521 C   0  0  0  0  0  0  0  0  0  0  0  0
   -3.8388    1.1095   -0.0777 C   0  0  0  0  0  0  0  0  0  0  0  0
    5.3296    0.6445   -0.3932 H   0  0  0  0  0  0  0  0  0  0  0  0
    4.5313    2.1287   -0.7600 H   0  0  0  0  0  0  0  0  0  0  0  0
    0.0132    2.4478   -0.5859 H   0  0  0  0  0  0  0  0  0  0  0  0
   -2.4919    2.7926   -0.2312 H   0  0  0  0  0  0  0  0  0  0  0  0
   -2.3497    1.6212   -1.5358 H   0  0  0  0  0  0  0  0  0  0  0  0
   -1.2691    2.4732    1.9050 H   0  0  0  0  0  0  0  0  0  0  0  0
   -2.2550    1.0502    2.2557 H   0  0  0  0  0  0  0  0  0  0  0  0
   -0.4990    0.9252    2.2759 H   0  0  0  0  0  0  0  0  0  0  0  0
   -4.0331    1.2358    0.9896 H   0  0  0  0  0  0  0  0  0  0  0  0
   -4.6416    1.6349   -0.5960 H   0  0  0  0  0  0  0  0  0  0  0  0
   -3.8854   -0.4559   -1.5460 H   0  0  0  0  0  0  0  0  0  0  0  0
   -4.8061   -0.8412   -0.1061 H   0  0  0  0  0  0  0  0  0  0  0  0
    4.1014   -1.2040    0.1829 H   0  0  0  0  0  0  0  0  0  0  0  0
  1  2  2  0
  2  3  1  0
  2  8  1  0
  3  4  1  0
  4  5  1  0
  4  6  2  0
  6  7  1  0
  7  8  2  0
  7 10  1  0
  8  9  1  0
  9 14  2  0
 10 11  1  0
 11 12  1  0
 11 13  1  1
 11 14  1  0
 12 18  1  0
 14 15  1  0
 15 16  2  0
 15 17  1  0
 17 18  1  0
  5 19  1  0
  5 20  1  0
 10 21  1  0
 12 22  1  0
 12 23  1  0
 13 24  1  0
 13 25  1  0
 13 26  1  0
 18 27  1  0
 18 28  1  0
 17 29  1  0
 17 30  1  0
  3 31  1  0
M  END
