
     RDKit          3D

 68 71  0  0  0  0  0  0  0  0999 V2000
   -0.3362   -2.3687   -0.1212 C   0  0  0  0  0  0  0  0  0  0  0  0
   -1.0008   -3.3137   -0.7771 N   0  0  0  0  0  0  0  0  0  0  0  0
   -0.2818   -4.1461   -1.5288 C   0  0  0  0  0  0  0  0  0  0  0  0
    1.0385   -4.1322   -1.6768 N   0  0  0  0  0  0  0  0  0  0  0  0
    1.7071   -3.1858   -1.0061 C   0  0  0  0  0  0  0  0  0  0  0  0
    1.0774   -2.2593   -0.1965 C   0  0  0  0  0  0  0  0  0  0  0  0
   -1.0478   -1.5044    0.6235 N   0  0  0  0  0  0  0  0  0  0  0  0
   -0.9735   -5.0758   -2.2341 N   0  0  0  0  0  0  0  0  0  0  0  0
    3.1889   -3.1490   -1.2469 C   0  0  0  0  0  0  0  0  0  0  0  0
    3.5220   -2.2846   -2.4628 C   0  0  0  0  0  0  0  0  0  0  0  0
    2.5060   -1.5098    1.7142 C   0  0  0  0  0  0  0  0  0  0  0  0
    3.1373   -0.4859    2.4046 C   0  0  0  0  0  0  0  0  0  0  0  0
    3.0754    0.8380    1.9964 C   0  0  0  0  0  0  0  0  0  0  0  0
    2.3554    1.1636    0.8249 C   0  0  0  0  0  0  0  0  0  0  0  0
    1.7169    0.1185    0.1363 C   0  0  0  0  0  0  0  0  0  0  0  0
    1.7924   -1.2056    0.5606 C   0  0  0  0  0  0  0  0  0  0  0  0
    3.7668    1.8992    2.8104 C   0  0  0  0  0  0  0  0  0  0  0  0
    3.9481    3.1765    2.0116 C   0  0  0  0  0  0  0  0  0  0  0  0
    2.6514    3.5199    1.3034 C   0  0  0  0  0  0  0  0  0  0  0  0
    2.2967    2.4683    0.3678 N   0  0  0  0  0  0  0  0  0  0  0  0
    1.3741    2.7671   -0.7126 C   0  0  0  0  0  0  0  0  0  0  0  0
    1.4411    4.1956   -1.2315 C   0  0  0  0  0  0  0  0  0  0  0  0
    0.5899    4.3321   -2.4805 C   0  0  0  0  0  0  0  0  0  0  0  0
    0.6116    5.6719   -2.9042 O   0  0  0  0  0  0  0  0  0  0  0  0
   -0.1515    5.8855   -4.0635 C   0  0  0  0  0  0  0  0  0  0  0  0
   -2.4779   -1.5687    0.8086 C   0  0  0  0  0  0  0  0  0  0  0  0
   -3.0010   -0.2198    1.2956 C   0  0  0  0  0  0  0  0  0  0  0  0
   -7.2578   -0.4219    1.8787 C   0  0  0  0  0  0  0  0  0  0  0  0
   -6.3948   -0.7349    2.9210 C   0  0  0  0  0  0  0  0  0  0  0  0
   -5.0208   -0.6557    2.7360 C   0  0  0  0  0  0  0  0  0  0  0  0
   -4.4876   -0.2629    1.5105 C   0  0  0  0  0  0  0  0  0  0  0  0
   -5.3626    0.0471    0.4717 C   0  0  0  0  0  0  0  0  0  0  0  0
   -6.7371   -0.0301    0.6519 C   0  0  0  0  0  0  0  0  0  0  0  0
   -0.5330   -0.8391    1.1776 H   0  0  0  0  0  0  0  0  0  0  0  0
   -0.4584   -5.8573   -2.6012 H   0  0  0  0  0  0  0  0  0  0  0  0
   -1.9196   -5.2668   -1.9522 H   0  0  0  0  0  0  0  0  0  0  0  0
    3.5385   -4.1685   -1.4185 H   0  0  0  0  0  0  0  0  0  0  0  0
    3.7146   -2.7673   -0.3719 H   0  0  0  0  0  0  0  0  0  0  0  0
    4.5949   -2.2880   -2.6557 H   0  0  0  0  0  0  0  0  0  0  0  0
    3.0193   -2.6558   -3.3563 H   0  0  0  0  0  0  0  0  0  0  0  0
    3.2123   -1.2504   -2.3084 H   0  0  0  0  0  0  0  0  0  0  0  0
    3.6961   -0.7203    3.3043 H   0  0  0  0  0  0  0  0  0  0  0  0
    1.1450    0.3223   -0.7579 H   0  0  0  0  0  0  0  0  0  0  0  0
    3.1754    2.1170    3.7057 H   0  0  0  0  0  0  0  0  0  0  0  0
    4.7286    1.5241    3.1675 H   0  0  0  0  0  0  0  0  0  0  0  0
    4.2379    4.0009    2.6645 H   0  0  0  0  0  0  0  0  0  0  0  0
    4.7395    3.0559    1.2676 H   0  0  0  0  0  0  0  0  0  0  0  0
    1.8564    3.6853    2.0453 H   0  0  0  0  0  0  0  0  0  0  0  0
    2.7778    4.4524    0.7594 H   0  0  0  0  0  0  0  0  0  0  0  0
    1.6069    2.1044   -1.5509 H   0  0  0  0  0  0  0  0  0  0  0  0
    0.3369    2.5413   -0.4214 H   0  0  0  0  0  0  0  0  0  0  0  0
    1.0774    4.9011   -0.4809 H   0  0  0  0  0  0  0  0  0  0  0  0
    2.4754    4.4623   -1.4656 H   0  0  0  0  0  0  0  0  0  0  0  0
    0.9714    3.6694   -3.2713 H   0  0  0  0  0  0  0  0  0  0  0  0
   -0.4413    4.0097   -2.2708 H   0  0  0  0  0  0  0  0  0  0  0  0
    0.2212    5.3051   -4.9162 H   0  0  0  0  0  0  0  0  0  0  0  0
   -1.2066    5.6240   -3.9167 H   0  0  0  0  0  0  0  0  0  0  0  0
   -0.0921    6.9436   -4.3167 H   0  0  0  0  0  0  0  0  0  0  0  0
   -2.9533   -1.8295   -0.1375 H   0  0  0  0  0  0  0  0  0  0  0  0
   -2.7493   -2.3522    1.5257 H   0  0  0  0  0  0  0  0  0  0  0  0
   -2.4973    0.0528    2.2274 H   0  0  0  0  0  0  0  0  0  0  0  0
   -2.7506    0.5468    0.5580 H   0  0  0  0  0  0  0  0  0  0  0  0
   -8.3291   -0.4794    2.0227 H   0  0  0  0  0  0  0  0  0  0  0  0
   -6.7914   -1.0396    3.8809 H   0  0  0  0  0  0  0  0  0  0  0  0
   -4.3544   -0.8973    3.5563 H   0  0  0  0  0  0  0  0  0  0  0  0
   -4.9634    0.3581   -0.4869 H   0  0  0  0  0  0  0  0  0  0  0  0
   -7.4019    0.2189   -0.1655 H   0  0  0  0  0  0  0  0  0  0  0  0
    2.5670   -2.5311    2.0680 H   0  0  0  0  0  0  0  0  0  0  0  0
  1  2  2  0
  1  6  1  0
  1  7  1  0
  2  3  1  0
  3  4  2  0
  3  8  1  0
  4  5  1  0
  5  6  2  0
  5  9  1  0
  6 16  1  0
  7 26  1  0
  7 34  1  0
  8 35  1  0
  8 36  1  0
  9 10  1  0
  9 37  1  0
  9 38  1  0
 10 39  1  0
 10 40  1  0
 10 41  1  0
 11 12  2  0
 11 16  1  0
 11 68  1  0
 12 13  1  0
 12 42  1  0
 13 14  2  0
 13 17  1  0
 14 15  1  0
 14 20  1  0
 15 16  2  0
 15 43  1  0
 17 18  1  0
 17 44  1  0
 17 45  1  0
 18 19  1  0
 18 46  1  0
 18 47  1  0
 19 20  1  0
 19 48  1  0
 19 49  1  0
 20 21  1  0
 21 22  1  0
 21 50  1  0
 21 51  1  0
 22 23  1  0
 22 52  1  0
 22 53  1  0
 23 24  1  0
 23 54  1  0
 23 55  1  0
 24 25  1  0
 25 56  1  0
 25 57  1  0
 25 58  1  0
 26 27  1  0
 26 59  1  0
 26 60  1  0
 27 31  1  0
 27 61  1  0
 27 62  1  0
 28 29  2  0
 28 33  1  0
 28 63  1  0
 29 30  1  0
 29 64  1  0
 30 31  2  0
 30 65  1  0
 31 32  1  0
 32 33  2  0
 32 66  1  0
 33 67  1  0
M  END
