
     RDKit          3D

 30 31  0  0  0  0  0  0  0  0999 V2000
   -0.6991   -0.1036    0.7308 N   0  0  0  0  0  0  0  0  0  0  0  0
   -2.0485    0.9567   -1.0468 C   0  0  0  0  0  0  0  0  0  0  0  0
   -3.3145    1.2889   -1.5072 C   0  0  0  0  0  0  0  0  0  0  0  0
   -4.4605    0.9779   -0.7923 C   0  0  0  0  0  0  0  0  0  0  0  0
   -4.3078    0.3178    0.4165 C   0  0  0  0  0  0  0  0  0  0  0  0
   -3.0627   -0.0280    0.9055 C   0  0  0  0  0  0  0  0  0  0  0  0
    3.6372    0.9489    1.3155 C   0  0  0  0  0  0  0  0  0  0  0  0
    4.9754   -0.5782   -0.5877 C   0  0  0  0  0  0  0  0  0  0  0  0
    0.5667    0.0992    0.2752 C   0  0  0  0  0  0  0  0  0  0  0  0
   -1.9154    0.2892    0.1726 C   0  0  0  0  0  0  0  0  0  0  0  0
    0.8380    0.7078   -0.7393 O   0  0  0  0  0  0  0  0  0  0  0  0
    3.0144   -0.1634    0.7609 C   0  0  0  0  0  0  0  0  0  0  0  0
    4.9230    1.2905    0.9163 C   0  0  0  0  0  0  0  0  0  0  0  0
    5.5976    0.5371   -0.0309 C   0  0  0  0  0  0  0  0  0  0  0  0
    3.6872   -0.9229   -0.1893 C   0  0  0  0  0  0  0  0  0  0  0  0
   -0.7766   -0.6176    1.5961 H   0  0  0  0  0  0  0  0  0  0  0  0
   -1.1854    1.2157   -1.6363 H   0  0  0  0  0  0  0  0  0  0  0  0
   -3.4071    1.8056   -2.4534 H   0  0  0  0  0  0  0  0  0  0  0  0
   -5.4405    1.2393   -1.1655 H   0  0  0  0  0  0  0  0  0  0  0  0
   -2.9777   -0.5445    1.8537 H   0  0  0  0  0  0  0  0  0  0  0  0
    3.1226    1.5447    2.0594 H   0  0  0  0  0  0  0  0  0  0  0  0
    1.4362   -0.2454    2.2055 H   0  0  0  0  0  0  0  0  0  0  0  0
    1.4838   -1.6209    1.1290 H   0  0  0  0  0  0  0  0  0  0  0  0
    5.4102    2.1542    1.3502 H   0  0  0  0  0  0  0  0  0  0  0  0
    6.6014    0.8028   -0.3378 H   0  0  0  0  0  0  0  0  0  0  0  0
    3.2028   -1.7939   -0.6198 H   0  0  0  0  0  0  0  0  0  0  0  0
    5.1317   -2.0262   -1.8252 H   0  0  0  0  0  0  0  0  0  0  0  0
   -5.7127   -0.0893    1.3475 Cl  0  0  0  0  0  0  0  0  0  0  0  0
    1.6211   -0.5361    1.1681 C   0  0  0  0  0  0  0  0  0  0  0  0
    5.6630   -1.2886   -1.5052 O   0  0  0  0  0  0  0  0  0  0  0  0
 28  5  1  0
  5  6  2  0
  5  4  1  0
  6 10  1  0
 11  9  2  0
  4  3  2  0
  9  1  1  0
  9 29  1  0
 10  1  1  0
 10  2  2  0
  7 13  2  0
  7 12  1  0
 29 12  1  0
  3  2  1  0
 13 14  1  0
 12 15  2  0
 14  8  2  0
 15  8  1  0
  8 30  1  0
  1 16  1  0
  2 17  1  0
  3 18  1  0
  4 19  1  0
  6 20  1  0
  7 21  1  0
 29 22  1  0
 29 23  1  0
 13 24  1  0
 14 25  1  0
 15 26  1  0
 30 27  1  0
M  END
