
     RDKit          3D

 30 31  0  0  0  0  0  0  0  0999 V2000
   -3.5925    0.1445    0.0279 S   0  0  2  0  0  0  0  0  0  0  0  0
   -1.8209    0.2732    0.0728 C   0  0  0  0  0  0  0  0  0  0  0  0
   -1.2349    1.5307    0.0858 C   0  0  0  0  0  0  0  0  0  0  0  0
    0.1429    1.6310    0.1369 C   0  0  0  0  0  0  0  0  0  0  0  0
    0.9469    0.4977    0.1515 C   0  0  0  0  0  0  0  0  0  0  0  0
    2.3375    0.6567    0.2299 N   0  0  0  0  0  0  0  0  0  0  0  0
    3.1100    0.8178   -0.8789 C   0  0  0  0  0  0  0  0  0  0  0  0
    2.6819    0.9322   -2.0085 O   0  0  0  0  0  0  0  0  0  0  0  0
    4.5493    0.7980   -0.4237 C   0  0  0  0  0  0  0  0  0  0  0  0
    4.4689    1.0257    1.0821 C   0  0  0  0  0  0  0  0  0  0  0  0
    3.0914    0.4823    1.4657 C   0  0  0  0  0  0  0  0  0  0  0  0
    0.3227   -0.7503    0.1265 C   0  0  0  0  0  0  0  0  0  0  0  0
    1.0975   -1.9845    0.1169 N   0  0  0  0  0  0  0  0  0  0  0  0
    0.6329   -2.9316    0.7028 O   0  0  0  0  0  0  0  0  0  0  0  0
    2.1419   -1.9953   -0.4864 O   0  0  0  0  0  0  0  0  0  0  0  0
   -1.0568   -0.8764    0.1113 C   0  0  0  0  0  0  0  0  0  0  0  0
   -3.8855    0.4888   -1.5531 N   0  0  0  0  0  0  0  0  0  0  0  0
   -4.1606    1.2419    0.7927 O   0  0  0  0  0  0  0  0  0  0  0  0
   -3.9356   -1.2211    0.3917 O   0  0  0  0  0  0  0  0  0  0  0  0
   -1.8380    2.4282    0.0647 H   0  0  0  0  0  0  0  0  0  0  0  0
    0.6144    2.6035    0.1769 H   0  0  0  0  0  0  0  0  0  0  0  0
    5.1427    1.5395   -0.9565 H   0  0  0  0  0  0  0  0  0  0  0  0
    4.9593   -0.1873   -0.6651 H   0  0  0  0  0  0  0  0  0  0  0  0
    4.5189    2.0925    1.3018 H   0  0  0  0  0  0  0  0  0  0  0  0
    5.2653    0.5321    1.6344 H   0  0  0  0  0  0  0  0  0  0  0  0
    2.6284    1.0392    2.2795 H   0  0  0  0  0  0  0  0  0  0  0  0
    3.1371   -0.5706    1.7569 H   0  0  0  0  0  0  0  0  0  0  0  0
   -1.5199   -1.8532    0.1050 H   0  0  0  0  0  0  0  0  0  0  0  0
   -3.6997   -0.2896   -2.1766 H   0  0  0  0  0  0  0  0  0  0  0  0
   -4.8236    0.8501   -1.6953 H   0  0  0  0  0  0  0  0  0  0  0  0
  1  2  1  0
  1 17  1  6
  1 18  2  0
  1 19  2  0
  2  3  2  0
  2 16  1  0
  3  4  1  0
  3 20  1  0
  4  5  2  0
  4 21  1  0
  5  6  1  0
  5 12  1  0
  6  7  1  0
  6 11  1  0
  7  8  2  0
  7  9  1  0
  9 10  1  0
  9 22  1  0
  9 23  1  0
 10 11  1  0
 10 24  1  0
 10 25  1  0
 11 26  1  0
 11 27  1  0
 12 13  1  0
 12 16  2  0
 13 14  1  0
 13 15  2  0
 16 28  1  0
 17 29  1  0
 17 30  1  0
M  CHG  2  13   1  14  -1
M  END
