
     RDKit          3D

 19 20  0  0  0  0  0  0  0  0999 V2000
    1.0490    1.5642   -0.0515 C   0  0  0  0  0  0  0  0  0  0  0  0
   -0.2725    1.9669   -0.0732 C   0  0  0  0  0  0  0  0  0  0  0  0
    0.3963   -0.7669    0.0107 C   0  0  0  0  0  0  0  0  0  0  0  0
    1.3864    0.2084   -0.0073 C   0  0  0  0  0  0  0  0  0  0  0  0
   -1.2842    1.0075   -0.0541 C   0  0  0  0  0  0  0  0  0  0  0  0
   -0.9212   -0.3511   -0.0114 C   0  0  0  0  0  0  0  0  0  0  0  0
   -3.3087    0.1623   -0.0365 C   0  0  0  0  0  0  0  0  0  0  0  0
    2.8268   -0.1839   -0.0348 C   0  0  1  0  0  0  0  0  0  0  0  0
   -2.6259    1.2656   -0.0680 N   0  0  0  0  0  0  0  0  0  0  0  0
   -4.6381    0.0923   -0.0536 N   0  0  0  0  0  0  0  0  0  0  0  0
    3.3432   -0.1121   -1.2735 F   0  0  0  0  0  0  0  0  0  0  0  0
    3.5832    0.6126    0.7331 F   0  0  0  0  0  0  0  0  0  0  0  0
    3.0263   -1.4378    0.3882 F   0  0  0  0  0  0  0  0  0  0  0  0
   -2.3615   -1.3255    0.0109 S   0  0  0  0  0  0  0  0  0  0  0  0
    1.8222    2.3209   -0.0667 H   0  0  0  0  0  0  0  0  0  0  0  0
   -0.5256    3.0183   -0.1040 H   0  0  0  0  0  0  0  0  0  0  0  0
    0.6364   -1.8210    0.0417 H   0  0  0  0  0  0  0  0  0  0  0  0
   -5.1727    0.9442   -0.0117 H   0  0  0  0  0  0  0  0  0  0  0  0
   -5.1307   -0.7744    0.0725 H   0  0  0  0  0  0  0  0  0  0  0  0
  8 13  1  1
  8 11  1  0
  8 12  1  0
  8  4  1  0
  3  4  1  0
  3  6  2  0
  4  1  2  0
 14  6  1  0
 14  7  1  0
  6  5  1  0
  1  2  1  0
  5  2  2  0
  5  9  1  0
  7 10  1  0
  7  9  2  0
  1 15  1  0
  2 16  1  0
  3 17  1  0
 10 18  1  0
 10 19  1  0
M  END
