
     RDKit          3D

 24 25  0  0  0  0  0  0  0  0999 V2000
    0.5805    1.2749   -0.0521 C   0  0  0  0  0  0  0  0  0  0  0  0
   -3.6600    0.7713    0.3647 C   0  0  0  0  0  0  0  0  0  0  0  0
   -3.7099   -0.6290   -0.2361 C   0  0  0  0  0  0  0  0  0  0  0  0
   -2.2646    1.2539   -0.0066 C   0  0  0  0  0  0  0  0  0  0  0  0
   -2.3103   -1.1740    0.0222 C   0  0  0  0  0  0  0  0  0  0  0  0
   -0.1538   -0.0296    0.0014 C   0  0  0  0  0  0  0  0  0  0  0  0
    2.0732    1.1452   -0.1448 C   0  0  0  0  0  0  0  0  0  0  0  0
    1.7799   -1.2921    0.0162 C   0  0  0  0  0  0  0  0  0  0  0  0
    0.4294   -1.1993    0.0471 N   0  0  0  0  0  0  0  0  0  0  0  0
    2.5459   -0.1249   -0.0887 N   0  0  0  0  0  0  0  0  0  0  0  0
   -1.4721    0.0245    0.0059 N   0  0  0  0  0  0  0  0  0  0  0  0
    2.8003    2.1095   -0.2519 O   0  0  0  0  0  0  0  0  0  0  0  0
    2.3657   -2.3567    0.0718 O   0  0  0  0  0  0  0  0  0  0  0  0
    0.2352    1.8714   -0.9001 H   0  0  0  0  0  0  0  0  0  0  0  0
    0.3542    1.8657    0.8410 H   0  0  0  0  0  0  0  0  0  0  0  0
   -3.7637    0.7262    1.4507 H   0  0  0  0  0  0  0  0  0  0  0  0
   -4.4799   -1.2603    0.2045 H   0  0  0  0  0  0  0  0  0  0  0  0
   -3.8985   -0.5714   -1.3101 H   0  0  0  0  0  0  0  0  0  0  0  0
   -2.2527    1.7017   -1.0044 H   0  0  0  0  0  0  0  0  0  0  0  0
   -1.8703    1.9864    0.6971 H   0  0  0  0  0  0  0  0  0  0  0  0
   -2.2384   -1.6635    0.9965 H   0  0  0  0  0  0  0  0  0  0  0  0
   -1.9781   -1.8855   -0.7323 H   0  0  0  0  0  0  0  0  0  0  0  0
    3.5496   -0.2502   -0.1310 H   0  0  0  0  0  0  0  0  0  0  0  0
   -4.4331    1.4350   -0.0190 H   0  0  0  0  0  0  0  0  0  0  0  0
 13  8  2  0
  8 10  1  0
  8  9  1  0
 10  7  1  0
  9  6  2  0
  7 12  2  0
  7  1  1  0
  6  1  1  0
  6 11  1  0
  5 11  1  0
  5  3  1  0
 11  4  1  0
  3  2  1  0
  4  2  1  0
  1 14  1  0
  1 15  1  0
  2 24  1  0
  2 16  1  0
  3 17  1  0
  3 18  1  0
  4 19  1  0
  4 20  1  0
  5 21  1  0
  5 22  1  0
 10 23  1  0
M  END
