
     RDKit          3D

 57 60  0  0  0  0  0  0  0  0999 V2000
   -7.1058    1.1801    0.4632 C   0  0  0  0  0  0  0  0  0  0  0  0
   -9.0829   -0.0731   -0.0240 C   0  0  0  0  0  0  0  0  0  0  0  0
   -7.2597   -0.5090   -1.2397 C   0  0  0  0  0  0  0  0  0  0  0  0
    2.7173   -5.0910   -0.2138 C   0  0  0  0  0  0  0  0  0  0  0  0
    7.3371    3.0710   -0.5012 C   0  0  0  0  0  0  0  0  0  0  0  0
    7.4777    1.8388    0.1390 C   0  0  0  0  0  0  0  0  0  0  0  0
    9.5365    3.7308    0.2635 C   0  0  0  0  0  0  0  0  0  0  0  0
    2.9479   -2.7295   -0.1385 C   0  0  0  0  0  0  0  0  0  0  0  0
    4.3165   -2.7782   -0.3689 C   0  0  0  0  0  0  0  0  0  0  0  0
    5.0628   -1.6095   -0.3924 C   0  0  0  0  0  0  0  0  0  0  0  0
    4.4556   -0.3791   -0.1772 C   0  0  0  0  0  0  0  0  0  0  0  0
    3.0787   -0.3295    0.0458 C   0  0  0  0  0  0  0  0  0  0  0  0
    2.3195   -1.4850    0.0688 C   0  0  0  0  0  0  0  0  0  0  0  0
    0.0407   -0.5695   -0.1229 C   0  0  0  0  0  0  0  0  0  0  0  0
   -2.3988   -0.0372   -0.4559 C   0  0  0  0  0  0  0  0  0  0  0  0
   -1.3824   -0.8751    0.2983 C   0  0  0  0  0  0  0  0  0  0  0  0
    4.6382    1.9603   -0.4838 O   0  0  0  0  0  0  0  0  0  0  0  0
    6.5156    0.8233    0.1094 N   0  0  0  0  0  0  0  0  0  0  0  0
    8.3661    4.0011   -0.4303 C   0  0  0  0  0  0  0  0  0  0  0  0
    9.6769    2.5009    0.8934 C   0  0  0  0  0  0  0  0  0  0  0  0
    8.6590    1.5646    0.8332 C   0  0  0  0  0  0  0  0  0  0  0  0
    0.9413   -1.4869    0.3162 N   0  0  0  0  0  0  0  0  0  0  0  0
    0.3408    0.4106   -0.7770 O   0  0  0  0  0  0  0  0  0  0  0  0
   -4.0629   -0.4855    0.1156 S   0  0  0  0  0  0  0  0  0  0  0  0
   -6.5036    0.4551   -0.5541 C   0  0  0  0  0  0  0  0  0  0  0  0
   -8.4434    0.9243    0.7497 C   0  0  0  0  0  0  0  0  0  0  0  0
   -9.4160    1.4203    1.6695 C   0  0  0  0  0  0  0  0  0  0  0  0
  -10.5659    0.7270    1.4245 C   0  0  0  0  0  0  0  0  0  0  0  0
  -10.3687   -0.1679    0.4090 N   0  0  0  0  0  0  0  0  0  0  0  0
   -8.5308   -0.7825   -0.9950 N   0  0  0  0  0  0  0  0  0  0  0  0
   -6.5457    1.9278    1.0129 H   0  0  0  0  0  0  0  0  0  0  0  0
   -6.7903   -1.0806   -2.0347 H   0  0  0  0  0  0  0  0  0  0  0  0
   -4.7456    1.6772   -0.6990 H   0  0  0  0  0  0  0  0  0  0  0  0
   -4.8761    0.4417   -1.9543 H   0  0  0  0  0  0  0  0  0  0  0  0
    3.1803   -5.2356   -1.1924 H   0  0  0  0  0  0  0  0  0  0  0  0
    3.4597   -5.2781    0.5650 H   0  0  0  0  0  0  0  0  0  0  0  0
    1.9008   -5.7988   -0.1017 H   0  0  0  0  0  0  0  0  0  0  0  0
   10.3287    4.4657    0.3110 H   0  0  0  0  0  0  0  0  0  0  0  0
    4.8156   -3.7191   -0.5539 H   0  0  0  0  0  0  0  0  0  0  0  0
    6.1206   -1.6898   -0.6083 H   0  0  0  0  0  0  0  0  0  0  0  0
    2.6078    0.6247    0.2269 H   0  0  0  0  0  0  0  0  0  0  0  0
   -2.2363    1.0256   -0.2761 H   0  0  0  0  0  0  0  0  0  0  0  0
   -2.3273   -0.2150   -1.5299 H   0  0  0  0  0  0  0  0  0  0  0  0
   -1.5852   -1.9401    0.1569 H   0  0  0  0  0  0  0  0  0  0  0  0
   -1.4624   -0.6890    1.3741 H   0  0  0  0  0  0  0  0  0  0  0  0
    6.8310   -0.0593    0.4808 H   0  0  0  0  0  0  0  0  0  0  0  0
    8.2437    4.9520   -0.9332 H   0  0  0  0  0  0  0  0  0  0  0  0
   10.5815    2.2658    1.4393 H   0  0  0  0  0  0  0  0  0  0  0  0
    8.7787    0.6086    1.3306 H   0  0  0  0  0  0  0  0  0  0  0  0
    0.5706   -2.3103    0.7662 H   0  0  0  0  0  0  0  0  0  0  0  0
   -9.2840    2.1877    2.4147 H   0  0  0  0  0  0  0  0  0  0  0  0
  -11.5287    0.8041    1.9029 H   0  0  0  0  0  0  0  0  0  0  0  0
  -11.0631   -0.7998    0.0453 H   0  0  0  0  0  0  0  0  0  0  0  0
   -5.0604    0.6518   -0.8994 C   0  0  0  0  0  0  0  0  0  0  0  0
    2.1455   -3.8002   -0.0914 O   0  0  0  0  0  0  0  0  0  0  0  0
    5.1976    0.9123   -0.2070 C   0  0  0  0  0  0  0  0  0  0  0  0
    6.4448    3.3122   -1.0552 H   0  0  0  0  0  0  0  0  0  0  0  0
 25  1  2  0
  1 26  1  0
  1 31  1  0
 30  2  1  0
 26  2  2  0
  2 29  1  0
 25  3  1  0
  3 30  2  0
  3 32  1  0
 54 24  1  0
 54 25  1  0
 54 33  1  0
 54 34  1  0
  4 55  1  0
  4 35  1  0
  4 36  1  0
  4 37  1  0
 19  5  2  0
  5  6  1  0
  5 57  1  0
 21  6  2  0
  6 18  1  0
  7 20  2  0
  7 19  1  0
  7 38  1  0
  9  8  2  0
  8 13  1  0
  8 55  1  0
 18 56  1  0
 56 17  2  0
 56 11  1  0
 10  9  1  0
  9 39  1  0
 10 11  2  0
 10 40  1  0
 11 12  1  0
 12 13  2  0
 12 41  1  0
 13 22  1  0
 23 14  2  0
 22 14  1  0
 14 16  1  0
 24 15  1  0
 15 16  1  0
 15 42  1  0
 15 43  1  0
 16 44  1  0
 16 45  1  0
 18 46  1  0
 19 47  1  0
 20 21  1  0
 20 48  1  0
 21 49  1  0
 22 50  1  0
 26 27  1  0
 27 28  2  0
 27 51  1  0
 29 28  1  0
 28 52  1  0
 29 53  1  0
M  END
