
     RDKit          3D

 20 19  0  0  0  0  0  0  0  0999 V2000
   -4.1970   -0.7581   -0.0064 O   0  0  0  0  0  0  0  0  0  0  0  0
   -3.1973    0.1199   -0.0092 C   0  0  0  0  0  0  0  0  0  0  0  0
   -3.3735    1.3129   -0.0175 O   0  0  0  0  0  0  0  0  0  0  0  0
   -1.8575   -0.5609    0.0007 C   0  0  0  0  0  0  0  0  0  0  0  0
   -0.6787    0.3981   -0.0157 C   0  0  0  0  0  0  0  0  0  0  0  0
    0.6473   -0.3529   -0.0051 C   0  0  0  0  0  0  0  0  0  0  0  0
    1.8264    0.6054   -0.0208 C   0  0  0  0  0  0  0  0  0  0  0  0
    3.1656   -0.0771   -0.0192 C   0  0  0  0  0  0  0  0  0  0  0  0
    3.3403   -1.2703   -0.0021 O   0  0  0  0  0  0  0  0  0  0  0  0
    4.1663    0.7993   -0.0400 O   0  0  0  0  0  0  0  0  0  0  0  0
   -5.0461   -0.2916   -0.0098 H   0  0  0  0  0  0  0  0  0  0  0  0
   -1.8115   -1.2090    0.8819 H   0  0  0  0  0  0  0  0  0  0  0  0
   -1.8123   -1.2369   -0.8592 H   0  0  0  0  0  0  0  0  0  0  0  0
   -0.7309    1.0365   -0.9020 H   0  0  0  0  0  0  0  0  0  0  0  0
   -0.7291    1.0642    0.8498 H   0  0  0  0  0  0  0  0  0  0  0  0
    0.6994   -0.9913    0.8810 H   0  0  0  0  0  0  0  0  0  0  0  0
    0.6977   -1.0194   -0.8704 H   0  0  0  0  0  0  0  0  0  0  0  0
    1.7782    1.2592   -0.8976 H   0  0  0  0  0  0  0  0  0  0  0  0
    1.7857    1.2758    0.8439 H   0  0  0  0  0  0  0  0  0  0  0  0
    5.0150    0.3319   -0.0395 H   0  0  0  0  0  0  0  0  0  0  0  0
  3  2  2  0
  2  4  1  0
  2  1  1  0
  4  5  1  0
  5  6  1  0
  6  7  1  0
  7  8  1  0
  8  9  2  0
  8 10  1  0
  1 11  1  0
  4 12  1  0
  4 13  1  0
  5 14  1  0
  5 15  1  0
  6 16  1  0
  6 17  1  0
  7 18  1  0
  7 19  1  0
 10 20  1  0
M  END
