
     RDKit          3D

 46 48  0  0  0  0  0  0  0  0999 V2000
   -3.6075   -1.0253   -0.2810 N   0  0  0  0  0  0  0  0  0  0  0  0
    5.0677    1.9628    0.1740 C   0  0  2  0  0  0  0  0  0  0  0  0
   -2.9261   -0.2847   -1.3393 C   0  0  0  0  0  0  0  0  0  0  0  0
   -3.0648   -0.7054    1.0378 C   0  0  0  0  0  0  0  0  0  0  0  0
    3.2873    0.2341    0.3859 C   0  0  0  0  0  0  0  0  0  0  0  0
    0.4888   -0.1714    0.1150 C   0  0  0  0  0  0  0  0  0  0  0  0
   -1.4430   -0.6075   -1.3109 C   0  0  0  0  0  0  0  0  0  0  0  0
   -6.5912    2.6064   -0.5075 C   0  0  0  0  0  0  0  0  0  0  0  0
    2.4173    0.4227    1.4597 C   0  0  0  0  0  0  0  0  0  0  0  0
    1.0575    0.2242    1.3338 C   0  0  0  0  0  0  0  0  0  0  0  0
   -6.1067    1.4078   -1.0843 C   0  0  0  0  0  0  0  0  0  0  0  0
   -6.7417    2.5120    0.8451 C   0  0  0  0  0  0  0  0  0  0  0  0
   -6.3064    0.9734    1.4415 S   0  0  0  0  0  0  0  0  0  0  0  0
   -5.9101    0.4394   -0.1416 C   0  0  0  0  0  0  0  0  0  0  0  0
   -5.2500   -1.1575   -0.4006 S   0  0  1  0  0  0  0  0  0  0  0  0
   -5.5484   -1.5393   -1.7675 O   0  0  0  0  0  0  0  0  0  0  0  0
   -5.6893   -1.9801    0.7117 O   0  0  0  0  0  0  0  0  0  0  0  0
   -1.5876   -1.0390    1.0532 C   0  0  0  0  0  0  0  0  0  0  0  0
   -0.8833   -0.3337   -0.0046 N   0  0  0  0  0  0  0  0  0  0  0  0
    1.3641   -0.3525   -0.9623 C   0  0  0  0  0  0  0  0  0  0  0  0
    2.7268   -0.1420   -0.8303 C   0  0  0  0  0  0  0  0  0  0  0  0
    5.6706   -0.5011   -0.1762 C   0  0  2  0  0  0  0  0  0  0  0  0
    5.6377   -0.3551   -1.5031 F   0  0  0  0  0  0  0  0  0  0  0  0
    6.9444   -0.3951    0.1937 F   0  0  0  0  0  0  0  0  0  0  0  0
    5.2796   -1.7460    0.1046 F   0  0  0  0  0  0  0  0  0  0  0  0
    4.3518    2.8001    0.9217 F   0  0  0  0  0  0  0  0  0  0  0  0
    6.3510    2.2903    0.3302 F   0  0  0  0  0  0  0  0  0  0  0  0
    4.7473    2.1853   -1.1000 F   0  0  0  0  0  0  0  0  0  0  0  0
    5.1522    0.4485    1.9285 O   0  0  0  0  0  0  0  0  0  0  0  0
   -3.3182   -0.5744   -2.3116 H   0  0  0  0  0  0  0  0  0  0  0  0
   -3.0684    0.7962   -1.2146 H   0  0  0  0  0  0  0  0  0  0  0  0
   -3.2067    0.3563    1.2744 H   0  0  0  0  0  0  0  0  0  0  0  0
   -3.5608   -1.2995    1.8018 H   0  0  0  0  0  0  0  0  0  0  0  0
   -1.2879   -1.6518   -1.6158 H   0  0  0  0  0  0  0  0  0  0  0  0
   -0.9694    0.0293   -2.0575 H   0  0  0  0  0  0  0  0  0  0  0  0
   -6.8273    3.4953   -1.0731 H   0  0  0  0  0  0  0  0  0  0  0  0
    2.7852    0.7514    2.4221 H   0  0  0  0  0  0  0  0  0  0  0  0
    0.4344    0.4132    2.1973 H   0  0  0  0  0  0  0  0  0  0  0  0
   -5.9275    1.2713   -2.1410 H   0  0  0  0  0  0  0  0  0  0  0  0
   -7.0998    3.2700    1.5248 H   0  0  0  0  0  0  0  0  0  0  0  0
   -1.2000   -0.7555    2.0281 H   0  0  0  0  0  0  0  0  0  0  0  0
   -1.4585   -2.1249    0.9507 H   0  0  0  0  0  0  0  0  0  0  0  0
    1.0002   -0.6778   -1.9261 H   0  0  0  0  0  0  0  0  0  0  0  0
    3.3299   -0.2977   -1.7123 H   0  0  0  0  0  0  0  0  0  0  0  0
    4.7549   -0.3223    2.3526 H   0  0  0  0  0  0  0  0  0  0  0  0
    4.7709    0.5055    0.5914 C   0  0  1  0  0  0  0  0  0  0  0  0
 16 15  2  0
 15 17  2  0
 15  1  1  0
 15 14  1  1
 13 14  1  0
 13 12  1  0
  3  1  1  0
  3  7  1  0
  1  4  1  0
 14 11  2  0
  7 19  1  0
 12  8  2  0
 11  8  1  0
  4 18  1  0
 19 18  1  0
 19  6  1  0
 20  6  2  0
 20 21  1  0
  6 10  1  0
 21  5  2  0
 10  9  2  0
  5  9  1  0
  5 46  1  0
 46 29  1  1
 22 25  1  6
 46 22  1  0
 46  2  1  0
  2 27  1  6
 22 23  1  0
 22 24  1  0
  2 26  1  0
  2 28  1  0
  3 30  1  0
  3 31  1  0
  4 32  1  0
  4 33  1  0
  7 34  1  0
  7 35  1  0
  8 36  1  0
  9 37  1  0
 10 38  1  0
 11 39  1  0
 12 40  1  0
 18 41  1  0
 18 42  1  0
 20 43  1  0
 21 44  1  0
 29 45  1  0
M  END
