
     RDKit          3D

 49 52  0  0  0  0  0  0  0  0999 V2000
   -7.6951    1.1253   -0.4752 N   0  0  0  0  0  0  0  0  0  0  0  0
   -1.0500   -2.9286    0.7653 N   0  0  0  0  0  0  0  0  0  0  0  0
   -5.6544    1.5288    0.3345 C   0  0  0  0  0  0  0  0  0  0  0  0
   -4.5093    2.0803    0.9195 C   0  0  0  0  0  0  0  0  0  0  0  0
   -3.3822    1.2945    0.9423 C   0  0  0  0  0  0  0  0  0  0  0  0
   -6.9833    0.0482   -0.6968 C   0  0  0  0  0  0  0  0  0  0  0  0
    7.0959    0.4855    0.8221 C   0  0  0  0  0  0  0  0  0  0  0  0
    8.5616    1.4657   -0.8176 C   0  0  0  0  0  0  0  0  0  0  0  0
   -7.5427   -1.1560   -1.3658 C   0  0  0  0  0  0  0  0  0  0  0  0
    6.3374   -0.1139   -0.1798 C   0  0  0  0  0  0  0  0  0  0  0  0
   -2.1097   -0.8053    0.4589 C   0  0  0  0  0  0  0  0  0  0  0  0
   -0.8677   -0.2212    0.2598 C   0  0  0  0  0  0  0  0  0  0  0  0
    0.2818   -1.0048    0.3167 C   0  0  0  0  0  0  0  0  0  0  0  0
    2.6576   -1.1236    0.2223 C   0  0  0  0  0  0  0  0  0  0  0  0
   -3.3544   -0.0174    0.4057 C   0  0  0  0  0  0  0  0  0  0  0  0
   -4.4977   -0.5469   -0.1659 C   0  0  0  0  0  0  0  0  0  0  0  0
   -5.6573    0.2314   -0.2019 C   0  0  0  0  0  0  0  0  0  0  0  0
   -6.9010    2.0100    0.1418 N   0  0  0  0  0  0  0  0  0  0  0  0
    8.2006    1.2666    0.5089 C   0  0  0  0  0  0  0  0  0  0  0  0
    6.7105    0.0915   -1.5064 C   0  0  0  0  0  0  0  0  0  0  0  0
    0.1385   -2.3681    0.5688 C   0  0  0  0  0  0  0  0  0  0  0  0
   -2.1362   -2.1801    0.7170 C   0  0  0  0  0  0  0  0  0  0  0  0
    7.8115    0.8749   -1.8263 C   0  0  0  0  0  0  0  0  0  0  0  0
    1.4524   -0.3827    0.1098 O   0  0  0  0  0  0  0  0  0  0  0  0
    3.8245   -0.1519    0.0783 C   0  0  2  0  0  0  0  0  0  0  0  0
    5.1322   -0.9478    0.1465 C   0  0  0  0  0  0  0  0  0  0  0  0
    3.8398    0.9160    1.0575 N   0  0  0  0  0  0  0  0  0  0  0  0
   -4.4922   -1.5390   -0.6010 H   0  0  0  0  0  0  0  0  0  0  0  0
   -4.5064    3.0754    1.3439 H   0  0  0  0  0  0  0  0  0  0  0  0
   -7.2637    2.9128    0.3989 H   0  0  0  0  0  0  0  0  0  0  0  0
   -6.9509   -1.4317   -2.2398 H   0  0  0  0  0  0  0  0  0  0  0  0
   -7.5433   -2.0160   -0.6941 H   0  0  0  0  0  0  0  0  0  0  0  0
   -8.5665   -0.9807   -1.6915 H   0  0  0  0  0  0  0  0  0  0  0  0
   -2.4867    1.6886    1.4062 H   0  0  0  0  0  0  0  0  0  0  0  0
   -0.7763    0.8371    0.0444 H   0  0  0  0  0  0  0  0  0  0  0  0
   -3.0793   -2.6809    0.9087 H   0  0  0  0  0  0  0  0  0  0  0  0
    0.9933   -3.0317    0.6176 H   0  0  0  0  0  0  0  0  0  0  0  0
    2.7086   -1.6239    1.1978 H   0  0  0  0  0  0  0  0  0  0  0  0
    2.7032   -1.8943   -0.5557 H   0  0  0  0  0  0  0  0  0  0  0  0
    3.7589    0.3073   -0.9147 H   0  0  0  0  0  0  0  0  0  0  0  0
    5.0729   -1.7879   -0.5505 H   0  0  0  0  0  0  0  0  0  0  0  0
    5.2345   -1.3797    1.1473 H   0  0  0  0  0  0  0  0  0  0  0  0
    2.9817    1.4502    1.0072 H   0  0  0  0  0  0  0  0  0  0  0  0
    3.8751    0.5259    1.9929 H   0  0  0  0  0  0  0  0  0  0  0  0
    6.1352   -0.3722   -2.3001 H   0  0  0  0  0  0  0  0  0  0  0  0
    8.7816    1.7201    1.3021 H   0  0  0  0  0  0  0  0  0  0  0  0
    8.0878    1.0180   -2.8632 H   0  0  0  0  0  0  0  0  0  0  0  0
    9.4246    2.0713   -1.0628 H   0  0  0  0  0  0  0  0  0  0  0  0
    6.8233    0.3343    1.8596 H   0  0  0  0  0  0  0  0  0  0  0  0
  6  1  2  0
 18  1  1  0
 22  2  2  0
 17  3  2  0
  3  4  1  0
  4  5  2  0
 15  5  1  0
 17  6  1  0
 10  7  2  0
 19  8  2  0
 23  8  1  0
  6  9  1  0
 26 10  1  0
 15 11  1  0
 11 12  2  0
 12 13  1  0
 24 14  1  0
 16 15  2  0
 17 16  1  0
  3 18  1  0
  7 19  1  0
 10 20  1  0
 13 21  2  0
  2 21  1  0
 11 22  1  0
 20 23  2  0
 13 24  1  0
 14 25  1  0
 25 26  1  0
 25 27  1  0
 16 28  1  0
  4 29  1  0
 18 30  1  0
  9 31  1  0
  9 32  1  0
  9 33  1  0
  5 34  1  0
 12 35  1  0
 22 36  1  0
 21 37  1  0
 14 38  1  0
 14 39  1  0
 25 40  1  6
 26 41  1  0
 26 42  1  0
 27 43  1  0
 27 44  1  0
  7 49  1  0
 20 45  1  0
 19 46  1  0
 23 47  1  0
  8 48  1  0
M  END
