
     RDKit          3D

 68 71  0  0  0  0  0  0  0  0999 V2000
   -2.0019   -1.1356    1.1344 S   0  0  1  0  0  0  0  0  0  0  0  0
   -1.6079   -1.0183    2.4845 O   0  0  0  0  0  0  0  0  0  0  0  0
   -1.5655   -2.2934    0.4494 O   0  0  0  0  0  0  0  0  0  0  0  0
   -4.3607   -1.6089   -0.0479 C   0  0  0  0  0  0  0  0  0  0  0  0
   -3.6807   -1.0698    1.0247 C   0  0  0  0  0  0  0  0  0  0  0  0
   -4.4248   -0.4695    2.0762 C   0  0  0  0  0  0  0  0  0  0  0  0
   -5.7936   -0.4115    2.0330 C   0  0  0  0  0  0  0  0  0  0  0  0
   -7.9238   -0.9079    0.8510 C   0  0  0  0  0  0  0  0  0  0  0  0
   -8.5788   -1.4474   -0.2288 C   0  0  0  0  0  0  0  0  0  0  0  0
   -7.8512   -2.0583   -1.2799 C   0  0  0  0  0  0  0  0  0  0  0  0
   -6.4806   -2.1175   -1.2311 C   0  0  0  0  0  0  0  0  0  0  0  0
   -5.7758   -1.5652   -0.1253 C   0  0  0  0  0  0  0  0  0  0  0  0
   -6.5048   -0.9547    0.9281 C   0  0  0  0  0  0  0  0  0  0  0  0
   -1.5404    0.1797    0.3132 N   0  0  0  0  0  0  0  0  0  0  0  0
   -0.9065    1.3251    0.8867 C   0  0  0  0  0  0  0  0  0  0  0  0
    0.4383    1.6253    0.1931 C   0  0  0  0  0  0  0  0  0  0  0  0
    0.4836    1.7587   -1.0463 O   0  0  0  0  0  0  0  0  0  0  0  0
    1.5556    1.7201    0.9878 N   0  0  0  0  0  0  0  0  0  0  0  0
    2.8733    1.9440    0.4502 C   0  0  1  0  0  0  0  0  0  0  0  0
    3.4929    3.2431    1.0288 C   0  0  0  0  0  0  0  0  0  0  0  0
    3.2269    3.5810    2.2017 O   0  0  0  0  0  0  0  0  0  0  0  0
    3.8666    0.8100    0.7885 C   0  0  0  0  0  0  0  0  0  0  0  0
    3.3570   -0.5194    0.3626 C   0  0  0  0  0  0  0  0  0  0  0  0
    3.2712   -0.8436   -0.9964 C   0  0  0  0  0  0  0  0  0  0  0  0
    2.9430   -1.4544    1.3181 C   0  0  0  0  0  0  0  0  0  0  0  0
    2.7411   -2.0679   -1.3980 C   0  0  0  0  0  0  0  0  0  0  0  0
    2.4109   -2.6797    0.9217 C   0  0  0  0  0  0  0  0  0  0  0  0
    2.2888   -2.9793   -0.4387 C   0  0  0  0  0  0  0  0  0  0  0  0
    1.6574   -4.2677   -0.8732 C   0  0  0  0  0  0  0  0  0  0  0  0
    2.2920   -5.0015   -1.7401 N   0  0  0  0  0  0  0  0  0  0  0  0
    0.4481   -4.5687   -0.2137 N   0  0  0  0  0  0  0  0  0  0  0  0
    4.2896    4.0465    0.2267 N   0  0  0  0  0  0  0  0  0  0  0  0
    4.9097    5.2295    0.7983 C   0  0  0  0  0  0  0  0  0  0  0  0
    6.4282    5.1235    0.9473 C   0  0  0  0  0  0  0  0  0  0  0  0
    7.0770    4.6961   -0.3519 C   0  0  0  0  0  0  0  0  0  0  0  0
    6.4359    3.4356   -0.8916 C   0  0  0  0  0  0  0  0  0  0  0  0
    4.9152    3.5907   -0.9948 C   0  0  0  0  0  0  0  0  0  0  0  0
   -3.8735   -0.0653    2.9437 H   0  0  0  0  0  0  0  0  0  0  0  0
   -6.3639    0.0520    2.8525 H   0  0  0  0  0  0  0  0  0  0  0  0
   -8.4815   -0.4332    1.6724 H   0  0  0  0  0  0  0  0  0  0  0  0
   -9.6773   -1.4133   -0.2914 H   0  0  0  0  0  0  0  0  0  0  0  0
   -8.4013   -2.4836   -2.1328 H   0  0  0  0  0  0  0  0  0  0  0  0
   -5.9056   -2.5916   -2.0412 H   0  0  0  0  0  0  0  0  0  0  0  0
   -1.6029    0.2332   -0.6788 H   0  0  0  0  0  0  0  0  0  0  0  0
   -1.5442    2.2446    0.7316 H   0  0  0  0  0  0  0  0  0  0  0  0
   -0.7786    1.1650    1.9964 H   0  0  0  0  0  0  0  0  0  0  0  0
    1.4769    1.6777    1.9773 H   0  0  0  0  0  0  0  0  0  0  0  0
    2.7604    2.0162   -0.6741 H   0  0  0  0  0  0  0  0  0  0  0  0
    4.8325    1.0370    0.2615 H   0  0  0  0  0  0  0  0  0  0  0  0
    4.0721    0.8146    1.8925 H   0  0  0  0  0  0  0  0  0  0  0  0
    3.6119   -0.1209   -1.7527 H   0  0  0  0  0  0  0  0  0  0  0  0
    3.0306   -1.2211    2.3899 H   0  0  0  0  0  0  0  0  0  0  0  0
    2.6784   -2.3165   -2.4685 H   0  0  0  0  0  0  0  0  0  0  0  0
    2.0855   -3.4064    1.6822 H   0  0  0  0  0  0  0  0  0  0  0  0
    1.8415   -5.8494   -2.0120 H   0  0  0  0  0  0  0  0  0  0  0  0
   -0.0223   -3.7924    0.2007 H   0  0  0  0  0  0  0  0  0  0  0  0
   -0.1604   -5.2007   -0.6804 H   0  0  0  0  0  0  0  0  0  0  0  0
    4.6712    6.0907    0.1096 H   0  0  0  0  0  0  0  0  0  0  0  0
    4.4522    5.4443    1.8051 H   0  0  0  0  0  0  0  0  0  0  0  0
    6.8213    6.1245    1.2613 H   0  0  0  0  0  0  0  0  0  0  0  0
    6.6802    4.3901    1.7567 H   0  0  0  0  0  0  0  0  0  0  0  0
    6.9754    5.5188   -1.1083 H   0  0  0  0  0  0  0  0  0  0  0  0
    8.1724    4.5225   -0.1897 H   0  0  0  0  0  0  0  0  0  0  0  0
    6.8357    3.2082   -1.9131 H   0  0  0  0  0  0  0  0  0  0  0  0
    6.6855    2.5680   -0.2267 H   0  0  0  0  0  0  0  0  0  0  0  0
    4.4808    2.6107   -1.3325 H   0  0  0  0  0  0  0  0  0  0  0  0
    4.6865    4.3596   -1.7900 H   0  0  0  0  0  0  0  0  0  0  0  0
   -3.8028   -2.1019   -0.8651 H   0  0  0  0  0  0  0  0  0  0  0  0
  1  2  2  0
  1  3  2  0
  1  5  1  0
  4  5  2  0
  4 12  1  0
  4 68  1  0
  5  6  1  0
  6  7  2  0
  6 38  1  0
  7 13  1  0
  7 39  1  0
  8  9  1  0
  8 13  2  0
  8 40  1  0
  9 10  2  0
  9 41  1  0
 10 11  1  0
 10 42  1  0
 11 12  2  0
 11 43  1  0
 12 13  1  0
 14 15  1  0
 14 44  1  0
 15 16  1  0
 15 45  1  0
 15 46  1  0
 16 17  2  0
 18 19  1  0
 18 47  1  0
 19 20  1  0
 19 22  1  0
 19 48  1  6
 20 21  2  0
 22 23  1  0
 22 49  1  0
 22 50  1  0
 23 24  2  0
 23 25  1  0
 24 26  1  0
 24 51  1  0
 25 27  2  0
 25 52  1  0
 26 28  2  0
 26 53  1  0
 27 28  1  0
 27 54  1  0
 28 29  1  0
 29 30  2  0
 29 31  1  0
 30 55  1  0
 31 56  1  0
 31 57  1  0
 32 33  1  0
 32 37  1  0
 33 34  1  0
 33 58  1  0
 33 59  1  0
 34 35  1  0
 34 60  1  0
 34 61  1  0
 35 36  1  0
 35 62  1  0
 35 63  1  0
 36 37  1  0
 36 64  1  0
 36 65  1  0
 37 66  1  0
 37 67  1  0
  1 14  1  6
 16 18  1  0
 20 32  1  0
M  END
