
     RDKit          3D

 47 50  0  0  0  0  0  0  0  0999 V2000
   -0.1436   -1.4158    0.0171 C   0  0  1  0  0  0  0  0  0  0  0  0
    2.2177    0.5084    0.0341 C   0  0  2  0  0  0  0  0  0  0  0  0
    0.4666   -0.8331   -1.2614 C   0  0  0  0  0  0  0  0  0  0  0  0
    2.8860   -2.0988    2.2014 C   0  0  0  0  0  0  0  0  0  0  0  0
   -3.7020   -0.4470   -0.9594 C   0  0  0  0  0  0  0  0  0  0  0  0
   -4.4476    0.7467   -0.8635 C   0  0  0  0  0  0  0  0  0  0  0  0
   -4.0375    1.8271   -0.1014 C   0  0  0  0  0  0  0  0  0  0  0  0
   -2.8188    1.6968    0.5687 C   0  0  0  0  0  0  0  0  0  0  0  0
   -2.0714    0.5190    0.4470 C   0  0  0  0  0  0  0  0  0  0  0  0
   -2.4999   -0.5814   -0.2903 C   0  0  0  0  0  0  0  0  0  0  0  0
   -0.9514    1.8858    1.7930 C   0  0  0  0  0  0  0  0  0  0  0  0
   -0.8839    0.6522    1.2086 C   0  0  0  0  0  0  0  0  0  0  0  0
    0.0894   -0.4817    1.2338 C   0  0  2  0  0  0  0  0  0  0  0  0
   -1.6389   -1.8225   -0.1713 C   0  0  1  0  0  0  0  0  0  0  0  0
    1.5652   -0.0443    1.3411 C   0  0  1  0  0  0  0  0  0  0  0  0
    1.9368   -0.5258   -1.0625 C   0  0  1  0  0  0  0  0  0  0  0  0
    3.7113    0.6034    0.2533 C   0  0  0  0  0  0  0  0  0  0  0  0
   -1.7952   -2.7466   -1.3794 C   0  0  0  0  0  0  0  0  0  0  0  0
    1.6258    1.8771   -0.3007 C   0  0  0  0  0  0  0  0  0  0  0  0
   -2.1101    2.5140    1.4027 N   0  0  0  0  0  0  0  0  0  0  0  0
    2.3085   -1.1650    1.8177 N   0  0  0  0  0  0  0  0  0  0  0  0
    2.6558    0.0246   -2.6296 Cl  0  0  0  0  0  0  0  0  0  0  0  0
    0.3884   -2.3513    0.2292 H   0  0  0  0  0  0  0  0  0  0  0  0
    0.3863   -1.5636   -2.0658 H   0  0  0  0  0  0  0  0  0  0  0  0
   -0.0715    0.0581   -1.5911 H   0  0  0  0  0  0  0  0  0  0  0  0
   -3.1272   -2.9470    0.9428 H   0  0  0  0  0  0  0  0  0  0  0  0
   -1.4681   -3.4649    1.2523 H   0  0  0  0  0  0  0  0  0  0  0  0
   -2.0908   -1.9795    1.9764 H   0  0  0  0  0  0  0  0  0  0  0  0
    5.4753    1.6639    0.6351 H   0  0  0  0  0  0  0  0  0  0  0  0
    3.9609    2.6972    0.5033 H   0  0  0  0  0  0  0  0  0  0  0  0
   -4.0985   -1.2591   -1.5562 H   0  0  0  0  0  0  0  0  0  0  0  0
   -5.3855    0.8149   -1.4002 H   0  0  0  0  0  0  0  0  0  0  0  0
   -4.6408    2.7232   -0.0351 H   0  0  0  0  0  0  0  0  0  0  0  0
   -0.2607    2.3948    2.4472 H   0  0  0  0  0  0  0  0  0  0  0  0
   -0.0956   -1.0717    2.1377 H   0  0  0  0  0  0  0  0  0  0  0  0
    1.6585    0.7299    2.1077 H   0  0  0  0  0  0  0  0  0  0  0  0
    2.4690   -1.4515   -0.8319 H   0  0  0  0  0  0  0  0  0  0  0  0
    4.2499   -0.3400    0.2383 H   0  0  0  0  0  0  0  0  0  0  0  0
   -2.7925   -3.1879   -1.3991 H   0  0  0  0  0  0  0  0  0  0  0  0
   -1.6515   -2.2289   -2.3275 H   0  0  0  0  0  0  0  0  0  0  0  0
   -1.0789   -3.5697   -1.3306 H   0  0  0  0  0  0  0  0  0  0  0  0
    2.1838    2.3381   -1.1135 H   0  0  0  0  0  0  0  0  0  0  0  0
    0.5822    1.8173   -0.5957 H   0  0  0  0  0  0  0  0  0  0  0  0
    1.6773    2.5427    0.5603 H   0  0  0  0  0  0  0  0  0  0  0  0
   -2.3775    3.4408    1.6879 H   0  0  0  0  0  0  0  0  0  0  0  0
   -2.1036   -2.5938    1.0758 C   0  0  0  0  0  0  0  0  0  0  0  0
    4.4062    1.7113    0.4754 C   0  0  0  0  0  0  0  0  0  0  0  0
 14 18  1  6
 46 14  1  0
  5  6  2  0
  5 10  1  0
  6  7  1  0
 14 10  1  0
 14  1  1  0
 10  9  2  0
  7  8  2  0
  1  3  1  0
  1 13  1  0
  9  8  1  0
  9 12  1  0
  8 20  1  0
  3 16  1  0
 13 12  1  0
 13 15  1  0
 12 11  2  0
 20 11  1  0
  4 21  3  0
 16 22  1  0
 16  2  1  0
 21 15  1  0
 15  2  1  0
  2 19  1  0
  2 17  1  1
 17 47  2  0
  1 23  1  1
  3 24  1  0
  3 25  1  0
 46 26  1  0
 46 27  1  0
 46 28  1  0
 47 29  1  0
 47 30  1  0
  5 31  1  0
  6 32  1  0
  7 33  1  0
 11 34  1  0
 13 35  1  1
 15 36  1  1
 16 37  1  1
 17 38  1  0
 18 39  1  0
 18 40  1  0
 18 41  1  0
 19 42  1  0
 19 43  1  0
 19 44  1  0
 20 45  1  0
M  CHG  1  21   1
M  END
