
     RDKit          3D

 34 36  0  0  0  0  0  0  0  0999 V2000
   -7.2815   -0.9125   -0.1590 O   0  0  0  0  0  0  0  0  0  0  0  0
   -6.4030    0.0562    0.0452 C   0  0  0  0  0  0  0  0  0  0  0  0
   -6.6820    1.1919    0.3160 O   0  0  0  0  0  0  0  0  0  0  0  0
   -5.0000   -0.4780   -0.1110 C   0  0  0  0  0  0  0  0  0  0  0  0
    1.4525   -0.0988    0.0552 C   0  0  0  0  0  0  0  0  0  0  0  0
    1.9787   -1.3397    0.2775 N   0  0  0  0  0  0  0  0  0  0  0  0
    3.3257   -1.6275    0.2994 C   0  0  0  0  0  0  0  0  0  0  0  0
    3.7233   -2.7612    0.4969 O   0  0  0  0  0  0  0  0  0  0  0  0
    4.1665   -0.4580    0.0842 C   0  0  0  0  0  0  0  0  0  0  0  0
    5.5596   -0.5678    0.0917 C   0  0  0  0  0  0  0  0  0  0  0  0
    6.3388    0.5518   -0.1004 C   0  0  0  0  0  0  0  0  0  0  0  0
    5.7303    1.7963   -0.3023 C   0  0  0  0  0  0  0  0  0  0  0  0
    4.3582    1.9173   -0.3107 C   0  0  0  0  0  0  0  0  0  0  0  0
    3.5496    0.7878   -0.1158 C   0  0  0  0  0  0  0  0  0  0  0  0
    2.1866    0.9420   -0.1362 N   0  0  0  0  0  0  0  0  0  0  0  0
   -0.5904    1.2770    0.2975 C   0  0  0  0  0  0  0  0  0  0  0  0
   -1.9581    1.4353    0.3078 C   0  0  0  0  0  0  0  0  0  0  0  0
   -2.7945    0.3437    0.0566 C   0  0  0  0  0  0  0  0  0  0  0  0
   -2.2338   -0.9018   -0.2117 C   0  0  0  0  0  0  0  0  0  0  0  0
   -4.1144    0.5902    0.0935 O   0  0  0  0  0  0  0  0  0  0  0  0
   -0.0120    0.0283    0.0468 C   0  0  0  0  0  0  0  0  0  0  0  0
   -0.8545   -1.0482   -0.2119 C   0  0  0  0  0  0  0  0  0  0  0  0
   -8.1855   -0.5768   -0.0616 H   0  0  0  0  0  0  0  0  0  0  0  0
   -4.8434   -1.2842    0.6154 H   0  0  0  0  0  0  0  0  0  0  0  0
   -4.8936   -0.9133   -1.1116 H   0  0  0  0  0  0  0  0  0  0  0  0
    1.3577   -2.1123    0.4798 H   0  0  0  0  0  0  0  0  0  0  0  0
    6.0186   -1.5345    0.2519 H   0  0  0  0  0  0  0  0  0  0  0  0
    7.4173    0.4715   -0.0963 H   0  0  0  0  0  0  0  0  0  0  0  0
    6.3455    2.6734   -0.4557 H   0  0  0  0  0  0  0  0  0  0  0  0
    3.8845    2.8775   -0.4688 H   0  0  0  0  0  0  0  0  0  0  0  0
   -0.4605   -2.0287   -0.4486 H   0  0  0  0  0  0  0  0  0  0  0  0
   -2.8433   -1.7684   -0.4262 H   0  0  0  0  0  0  0  0  0  0  0  0
   -2.3931    2.4037    0.5190 H   0  0  0  0  0  0  0  0  0  0  0  0
    0.0449    2.1286    0.4982 H   0  0  0  0  0  0  0  0  0  0  0  0
  3  2  2  0
  2  1  1  0
  2  4  1  0
  4 20  1  0
  5  6  1  0
  5 15  2  0
  5 21  1  0
  6  7  1  0
  7  8  2  0
  7  9  1  0
  9 10  2  0
  9 14  1  0
 10 11  1  0
 11 12  2  0
 12 13  1  0
 13 14  2  0
 14 15  1  0
 22 19  1  0
 22 21  2  0
 19 18  2  0
 18 17  1  0
 18 20  1  0
 17 16  2  0
 16 21  1  0
  1 23  1  0
  4 24  1  0
  4 25  1  0
  6 26  1  0
 10 27  1  0
 11 28  1  0
 12 29  1  0
 13 30  1  0
 22 31  1  0
 19 32  1  0
 17 33  1  0
 16 34  1  0
M  END
