
     RDKit          3D

 40 43  0  0  0  0  0  0  0  0999 V2000
    4.7429    0.1368    2.2857 C   0  0  0  0  0  0  0  0  0  0  0  0
    4.6641    0.6589    0.9028 C   0  0  0  0  0  0  0  0  0  0  0  0
    5.6751    1.4143    0.4662 O   0  0  0  0  0  0  0  0  0  0  0  0
    5.4466    1.7974   -0.8244 N   0  0  0  0  0  0  0  0  0  0  0  0
    4.3074    1.2721   -1.1671 C   0  0  0  0  0  0  0  0  0  0  0  0
    3.7364    1.4970   -2.5215 C   0  0  0  0  0  0  0  0  0  0  0  0
    3.7446    0.5240   -0.0896 C   0  0  0  0  0  0  0  0  0  0  0  0
    2.4647   -0.1908   -0.0601 C   0  0  0  0  0  0  0  0  0  0  0  0
    2.1415   -1.0889   -1.0690 C   0  0  0  0  0  0  0  0  0  0  0  0
    1.5585    0.0456    0.9940 C   0  0  0  0  0  0  0  0  0  0  0  0
    0.3367   -0.5955    1.0726 C   0  0  0  0  0  0  0  0  0  0  0  0
    0.0320   -1.4882    0.0523 C   0  0  0  0  0  0  0  0  0  0  0  0
    0.9121   -1.7395   -1.0121 C   0  0  0  0  0  0  0  0  0  0  0  0
    0.3607   -2.6623   -1.8706 N   0  0  0  0  0  0  0  0  0  0  0  0
   -0.7959   -2.9482   -1.3472 C   0  0  0  0  0  0  0  0  0  0  0  0
   -1.0577   -2.2834   -0.1920 N   0  0  0  0  0  0  0  0  0  0  0  0
   -2.2628   -2.3655    0.6026 C   0  0  0  0  0  0  0  0  0  0  0  0
   -3.0232   -1.0642    0.6214 C   0  0  0  0  0  0  0  0  0  0  0  0
   -3.3593   -0.4213   -0.5664 C   0  0  0  0  0  0  0  0  0  0  0  0
   -4.0632    0.7715   -0.5552 C   0  0  0  0  0  0  0  0  0  0  0  0
   -4.4350    1.3246    0.6618 C   0  0  0  0  0  0  0  0  0  0  0  0
   -5.3125    2.8190    0.6847 Cl  0  0  0  0  0  0  0  0  0  0  0  0
   -4.1131    0.7046    1.8570 C   0  0  0  0  0  0  0  0  0  0  0  0
   -3.4051   -0.4893    1.8262 C   0  0  0  0  0  0  0  0  0  0  0  0
    5.7118   -0.3261    2.4751 H   0  0  0  0  0  0  0  0  0  0  0  0
    4.6052    0.9321    3.0199 H   0  0  0  0  0  0  0  0  0  0  0  0
    3.9697   -0.6106    2.4499 H   0  0  0  0  0  0  0  0  0  0  0  0
    3.8050    0.5973   -3.1332 H   0  0  0  0  0  0  0  0  0  0  0  0
    2.6824    1.7643   -2.4543 H   0  0  0  0  0  0  0  0  0  0  0  0
    4.2672    2.2945   -3.0377 H   0  0  0  0  0  0  0  0  0  0  0  0
    2.8322   -1.2917   -1.8779 H   0  0  0  0  0  0  0  0  0  0  0  0
    1.8191    0.7664    1.7586 H   0  0  0  0  0  0  0  0  0  0  0  0
   -0.3459   -0.3946    1.8875 H   0  0  0  0  0  0  0  0  0  0  0  0
   -1.5112   -3.6465   -1.7586 H   0  0  0  0  0  0  0  0  0  0  0  0
   -2.8757   -3.1615    0.1772 H   0  0  0  0  0  0  0  0  0  0  0  0
   -2.0063   -2.6697    1.6189 H   0  0  0  0  0  0  0  0  0  0  0  0
   -3.0726   -0.8476   -1.5204 H   0  0  0  0  0  0  0  0  0  0  0  0
   -4.3180    1.2626   -1.4844 H   0  0  0  0  0  0  0  0  0  0  0  0
   -4.3989    1.1446    2.8024 H   0  0  0  0  0  0  0  0  0  0  0  0
   -3.1475   -0.9702    2.7621 H   0  0  0  0  0  0  0  0  0  0  0  0
  3  4  1  0
  3  2  1  0
  4  5  2  0
  2  1  1  0
  2  7  2  0
  5  7  1  0
  5  6  1  0
  7  8  1  0
  8 10  1  0
  8  9  2  0
 10 11  2  0
  9 13  1  0
 11 12  1  0
 13 12  2  0
 13 14  1  0
 12 16  1  0
 14 15  2  0
 16 15  1  0
 16 17  1  0
 24 23  2  0
 24 18  1  0
 23 21  1  0
 17 18  1  0
 18 19  2  0
 21 22  1  0
 21 20  2  0
 19 20  1  0
  1 25  1  0
  1 26  1  0
  1 27  1  0
  6 28  1  0
  6 29  1  0
  6 30  1  0
  9 31  1  0
 10 32  1  0
 11 33  1  0
 15 34  1  0
 17 35  1  0
 17 36  1  0
 19 37  1  0
 20 38  1  0
 23 39  1  0
 24 40  1  0
M  END
