
     RDKit          3D

 31 32  0  0  0  0  0  0  0  0999 V2000
    1.4323   -0.7617    0.5659 C   0  0  0  0  0  0  0  0  0  0  0  0
    0.0836   -0.5610    0.7282 C   0  0  0  0  0  0  0  0  0  0  0  0
   -2.4808    1.8505   -0.5861 C   0  0  0  0  0  0  0  0  0  0  0  0
   -3.4545    1.1227   -1.4955 C   0  0  0  0  0  0  0  0  0  0  0  0
   -2.5777    0.6983    1.5732 C   0  0  0  0  0  0  0  0  0  0  0  0
   -3.7486   -0.2943    1.4500 C   0  0  0  0  0  0  0  0  0  0  0  0
   -4.1480   -0.6518    0.0256 C   0  0  0  0  0  0  0  0  0  0  0  0
   -0.5312    0.5887    0.1605 C   0  0  0  0  0  0  0  0  0  0  0  0
    1.4895    1.1498   -0.8218 C   0  0  0  0  0  0  0  0  0  0  0  0
    2.1819    0.1230   -0.2043 C   0  0  0  0  0  0  0  0  0  0  0  0
   -0.8103   -1.8226    1.5061 Cl  0  0  0  0  0  0  0  0  0  0  0  0
    3.6403   -0.0966   -0.3837 C   0  0  1  0  0  0  0  0  0  0  0  0
    4.2199    0.8828   -1.0852 F   0  0  0  0  0  0  0  0  0  0  0  0
    4.2823   -0.1703    0.7952 F   0  0  0  0  0  0  0  0  0  0  0  0
    3.9086   -1.2465   -1.0203 F   0  0  0  0  0  0  0  0  0  0  0  0
    0.2041    1.3635   -0.6383 N   0  0  0  0  0  0  0  0  0  0  0  0
   -1.8264    0.9468    0.3518 N   0  0  0  0  0  0  0  0  0  0  0  0
   -4.5401    0.5011   -0.7676 N   0  0  0  0  0  0  0  0  0  0  0  0
    1.8864   -1.6363    1.0138 H   0  0  0  0  0  0  0  0  0  0  0  0
   -3.0163    2.6127   -0.0146 H   0  0  0  0  0  0  0  0  0  0  0  0
   -3.8796    1.8571   -2.1840 H   0  0  0  0  0  0  0  0  0  0  0  0
   -2.8852    0.4032   -2.1076 H   0  0  0  0  0  0  0  0  0  0  0  0
   -2.9677    1.6705    1.8840 H   0  0  0  0  0  0  0  0  0  0  0  0
   -1.8997    0.3979    2.3689 H   0  0  0  0  0  0  0  0  0  0  0  0
   -3.5076   -1.2217    1.9714 H   0  0  0  0  0  0  0  0  0  0  0  0
   -4.6149    0.1308    1.9604 H   0  0  0  0  0  0  0  0  0  0  0  0
   -3.3360   -1.2228   -0.4505 H   0  0  0  0  0  0  0  0  0  0  0  0
   -5.0012   -1.3301    0.0848 H   0  0  0  0  0  0  0  0  0  0  0  0
    1.9865    1.8414   -1.4917 H   0  0  0  0  0  0  0  0  0  0  0  0
   -5.2504    0.2223   -1.4279 H   0  0  0  0  0  0  0  0  0  0  0  0
   -1.7309    2.3575   -1.1866 H   0  0  0  0  0  0  0  0  0  0  0  0
  7  6  1  0
  7 18  1  0
  6  5  1  0
  5 17  1  0
 18  4  1  0
  4  3  1  0
 17  3  1  0
 17  8  1  0
  8 16  2  0
  8  2  1  0
 16  9  1  0
 11  2  1  0
  2  1  2  0
  9 10  2  0
  1 10  1  0
 10 12  1  0
 12 13  1  6
 12 15  1  0
 12 14  1  0
  1 19  1  0
  3 31  1  0
  3 20  1  0
  4 21  1  0
  4 22  1  0
  5 23  1  0
  5 24  1  0
  6 25  1  0
  6 26  1  0
  7 27  1  0
  7 28  1  0
  9 29  1  0
 18 30  1  0
M  END
