
     RDKit          3D

 47 48  0  0  0  0  0  0  0  0999 V2000
   -0.1772    0.1630    0.6536 C   0  0  0  0  0  0  0  0  0  0  0  0
    0.9660   -0.2631   -0.0034 C   0  0  0  0  0  0  0  0  0  0  0  0
   -1.8125   -1.6943    0.4083 C   0  0  0  0  0  0  0  0  0  0  0  0
   -3.0521   -2.2184    0.0419 C   0  0  0  0  0  0  0  0  0  0  0  0
   -2.4263   -4.5478   -0.5878 C   0  0  0  0  0  0  0  0  0  0  0  0
   -3.7083    0.0067   -0.6628 C   0  0  0  0  0  0  0  0  0  0  0  0
   -2.4670    0.5120   -0.2944 C   0  0  0  0  0  0  0  0  0  0  0  0
   -2.0903    1.7916   -0.4503 O   0  0  0  0  0  0  0  0  0  0  0  0
   -1.1464    1.4340    2.3683 O   0  0  0  0  0  0  0  0  0  0  0  0
   -0.0384    1.0633    1.7174 C   0  0  0  0  0  0  0  0  0  0  0  0
    1.2294    1.5220    2.0815 C   0  0  0  0  0  0  0  0  0  0  0  0
    2.3512    1.0877    1.4065 C   0  0  0  0  0  0  0  0  0  0  0  0
    2.2443    0.1798    0.3487 C   0  0  0  0  0  0  0  0  0  0  0  0
    3.3860   -0.3130   -0.4009 C   0  0  0  0  0  0  0  0  0  0  0  0
    4.6775   -0.0248   -0.1857 C   0  0  0  0  0  0  0  0  0  0  0  0
    5.7208   -0.5984   -1.0422 C   0  0  0  0  0  0  0  0  0  0  0  0
    5.5345   -1.3450   -1.9777 O   0  0  0  0  0  0  0  0  0  0  0  0
    6.9354   -0.1957   -0.6724 O   0  0  0  0  0  0  0  0  0  0  0  0
   -1.5079   -0.3504    0.2609 C   0  0  0  0  0  0  0  0  0  0  0  0
   -1.5778   -5.4346   -0.0813 C   0  0  0  0  0  0  0  0  0  0  0  0
   -3.9876   -1.3458   -0.4909 C   0  0  0  0  0  0  0  0  0  0  0  0
   -3.0395    2.7433   -0.8996 C   0  0  0  0  0  0  0  0  0  0  0  0
   -2.3768    4.1045   -0.9159 C   0  0  0  0  0  0  0  0  0  0  0  0
   -3.3490    5.1842   -1.3713 C   0  0  0  0  0  0  0  0  0  0  0  0
    0.8580   -0.9633   -0.8240 H   0  0  0  0  0  0  0  0  0  0  0  0
   -1.0600   -2.3501    0.8333 H   0  0  0  0  0  0  0  0  0  0  0  0
   -2.4707   -4.4048   -1.6640 H   0  0  0  0  0  0  0  0  0  0  0  0
   -4.4683    0.6436   -1.0952 H   0  0  0  0  0  0  0  0  0  0  0  0
   -0.9339    2.0515    3.0778 H   0  0  0  0  0  0  0  0  0  0  0  0
    1.3344    2.2195    2.9045 H   0  0  0  0  0  0  0  0  0  0  0  0
    3.3184    1.4637    1.7144 H   0  0  0  0  0  0  0  0  0  0  0  0
    3.1468   -0.9852   -1.2199 H   0  0  0  0  0  0  0  0  0  0  0  0
    4.9934    0.6319    0.6156 H   0  0  0  0  0  0  0  0  0  0  0  0
    7.6010   -0.5789   -1.2621 H   0  0  0  0  0  0  0  0  0  0  0  0
   -3.2671   -3.9617    1.2806 H   0  0  0  0  0  0  0  0  0  0  0  0
   -4.3809   -3.8802   -0.0727 H   0  0  0  0  0  0  0  0  0  0  0  0
   -0.9294   -6.0261   -0.7144 H   0  0  0  0  0  0  0  0  0  0  0  0
   -1.5019   -5.6026    0.9869 H   0  0  0  0  0  0  0  0  0  0  0  0
   -4.9616   -1.7165   -0.7880 H   0  0  0  0  0  0  0  0  0  0  0  0
   -3.3949    2.4852   -1.9044 H   0  0  0  0  0  0  0  0  0  0  0  0
   -3.9122    2.7511   -0.2354 H   0  0  0  0  0  0  0  0  0  0  0  0
   -2.0028    4.3376    0.0840 H   0  0  0  0  0  0  0  0  0  0  0  0
   -1.5117    4.0789   -1.5833 H   0  0  0  0  0  0  0  0  0  0  0  0
   -3.7394    4.9749   -2.3686 H   0  0  0  0  0  0  0  0  0  0  0  0
   -4.1995    5.2664   -0.6928 H   0  0  0  0  0  0  0  0  0  0  0  0
   -2.8603    6.1575   -1.4068 H   0  0  0  0  0  0  0  0  0  0  0  0
   -3.3463   -3.6875    0.2246 C   0  0  0  0  0  0  0  0  0  0  0  0
 20  5  2  0
  5 47  1  0
 47  4  1  0
  4 21  1  0
  4  3  2  0
 21  6  2  0
  3 19  1  0
  6  7  1  0
 19  7  2  0
 19  1  1  0
  7  8  1  0
  2  1  2  0
  2 13  1  0
  1 10  1  0
 17 16  2  0
 14 13  1  0
 14 15  2  0
 16 15  1  0
 16 18  1  0
  8 22  1  0
 13 12  2  0
 22 23  1  0
 10  9  1  0
 10 11  2  0
 12 11  1  0
 23 24  1  0
  2 25  1  0
  3 26  1  0
  5 27  1  0
  6 28  1  0
  9 29  1  0
 11 30  1  0
 12 31  1  0
 14 32  1  0
 15 33  1  0
 18 34  1  0
 47 35  1  0
 47 36  1  0
 20 37  1  0
 20 38  1  0
 21 39  1  0
 22 40  1  0
 22 41  1  0
 23 42  1  0
 23 43  1  0
 24 44  1  0
 24 45  1  0
 24 46  1  0
M  END
