
     RDKit          3D

127127  0  0  0  0  0  0  0  0999 V2000
   21.1793    1.3537   -1.8059 C   0  0  0  0  0  0  0  0  0  0  0  0
   19.6836    1.2323   -1.7484 C   0  0  0  0  0  0  0  0  0  0  0  0
   19.0683    0.6196   -2.9715 C   0  0  0  0  0  0  0  0  0  0  0  0
   19.0011    1.6529   -0.6800 C   0  0  0  0  0  0  0  0  0  0  0  0
   17.5246    1.5993   -0.4425 C   0  0  0  0  0  0  0  0  0  0  0  0
   17.1736    0.6523    0.7157 C   0  0  0  0  0  0  0  0  0  0  0  0
   15.7030    0.6221    1.0383 C   0  0  0  0  0  0  0  0  0  0  0  0
   15.1364    1.9045    1.5754 C   0  0  0  0  0  0  0  0  0  0  0  0
   14.9922   -0.4915    0.8403 C   0  0  0  0  0  0  0  0  0  0  0  0
   13.5289   -0.7086    1.0660 C   0  0  0  0  0  0  0  0  0  0  0  0
   12.7853   -0.9265   -0.2608 C   0  0  0  0  0  0  0  0  0  0  0  0
   11.3117   -1.1864   -0.0913 C   0  0  0  0  0  0  0  0  0  0  0  0
   10.9568   -2.4802    0.5808 C   0  0  0  0  0  0  0  0  0  0  0  0
   10.4199   -0.2900   -0.5224 C   0  0  0  0  0  0  0  0  0  0  0  0
    8.9276   -0.3447   -0.4260 C   0  0  0  0  0  0  0  0  0  0  0  0
    8.3862    0.6602    0.6051 C   0  0  0  0  0  0  0  0  0  0  0  0
    6.8822    0.7432    0.6044 C   0  0  0  0  0  0  0  0  0  0  0  0
    6.2842    1.4785   -0.5593 C   0  0  0  0  0  0  0  0  0  0  0  0
    6.1713    0.1724    1.5803 C   0  0  0  0  0  0  0  0  0  0  0  0
    4.6808    0.0976    1.7034 C   0  0  0  0  0  0  0  0  0  0  0  0
    4.1560   -1.2904    1.2990 C   0  0  0  0  0  0  0  0  0  0  0  0
    2.6552   -1.4024    1.3466 C   0  0  0  0  0  0  0  0  0  0  0  0
    2.0381   -1.2603    2.7067 C   0  0  0  0  0  0  0  0  0  0  0  0
    1.9646   -1.6007    0.2207 C   0  0  0  0  0  0  0  0  0  0  0  0
    0.4811   -1.7018    0.0487 C   0  0  0  0  0  0  0  0  0  0  0  0
   -0.1062   -0.4083   -0.5400 C   0  0  0  0  0  0  0  0  0  0  0  0
   -1.5750   -0.5078   -0.8603 C   0  0  0  0  0  0  0  0  0  0  0  0
   -1.9180   -1.3790   -2.0331 C   0  0  0  0  0  0  0  0  0  0  0  0
   -2.4686    0.1534   -0.1197 C   0  0  0  0  0  0  0  0  0  0  0  0
   -3.9582    0.1668   -0.2571 C   0  0  0  0  0  0  0  0  0  0  0  0
   -4.6460   -0.5279    0.9292 C   0  0  0  0  0  0  0  0  0  0  0  0
   -6.1497   -0.5091    0.8353 C   0  0  0  0  0  0  0  0  0  0  0  0
   -6.7920    0.8324    1.0331 C   0  0  0  0  0  0  0  0  0  0  0  0
   -6.8164   -1.6383    0.5800 C   0  0  0  0  0  0  0  0  0  0  0  0
   -8.2903   -1.8210    0.4008 C   0  0  0  0  0  0  0  0  0  0  0  0
   -8.6476   -2.0926   -1.0707 C   0  0  0  0  0  0  0  0  0  0  0  0
  -10.1208   -2.3197   -1.2815 C   0  0  0  0  0  0  0  0  0  0  0  0
  -10.6624   -3.5992   -0.7183 C   0  0  0  0  0  0  0  0  0  0  0  0
  -10.8480   -1.3989   -1.9184 C   0  0  0  0  0  0  0  0  0  0  0  0
  -12.3296   -1.4024   -2.1743 C   0  0  0  0  0  0  0  0  0  0  0  0
  -12.9571   -0.2709   -1.4092 C   0  0  0  0  0  0  0  0  0  0  0  0
  -13.1052    0.9769   -1.8888 C   0  0  0  0  0  0  0  0  0  0  0  0
  -12.7069    1.4202   -3.2586 C   0  0  0  0  0  0  0  0  0  0  0  0
  -13.6800    2.0456   -1.0291 C   0  0  0  0  0  0  0  0  0  0  0  0
  -13.8364    3.1710   -1.4521 O   0  0  0  0  0  0  0  0  0  0  0  0
  -14.0454    1.7357    0.3755 C   0  0  0  0  0  0  0  0  0  0  0  0
  -14.4900    2.7477    1.1357 O   0  0  0  0  0  0  0  0  0  0  0  0
  -15.8875    3.0195    1.0308 C   0  0  0  0  0  0  0  0  0  0  0  0
  -13.9011    0.4929    0.8522 C   0  0  0  0  0  0  0  0  0  0  0  0
  -14.2761    0.1571    2.0954 O   0  0  0  0  0  0  0  0  0  0  0  0
  -13.2322    0.1664    3.0689 C   0  0  0  0  0  0  0  0  0  0  0  0
  -13.3504   -0.5852   -0.0087 C   0  0  0  0  0  0  0  0  0  0  0  0
  -13.2468   -1.7046    0.4426 O   0  0  0  0  0  0  0  0  0  0  0  0
   21.4883    1.9938   -2.6368 H   0  0  0  0  0  0  0  0  0  0  0  0
   21.5950    1.7694   -0.8883 H   0  0  0  0  0  0  0  0  0  0  0  0
   21.6454    0.3799   -1.9780 H   0  0  0  0  0  0  0  0  0  0  0  0
   19.4611   -0.3872   -3.1343 H   0  0  0  0  0  0  0  0  0  0  0  0
   17.9839    0.5490   -2.9260 H   0  0  0  0  0  0  0  0  0  0  0  0
   19.3287    1.1979   -3.8619 H   0  0  0  0  0  0  0  0  0  0  0  0
   19.5744    2.0750    0.1431 H   0  0  0  0  0  0  0  0  0  0  0  0
   17.1702    2.6068   -0.2038 H   0  0  0  0  0  0  0  0  0  0  0  0
   16.9809    1.2854   -1.3358 H   0  0  0  0  0  0  0  0  0  0  0  0
   17.5207   -0.3526    0.4632 H   0  0  0  0  0  0  0  0  0  0  0  0
   17.7335    0.9649    1.6054 H   0  0  0  0  0  0  0  0  0  0  0  0
   15.7490    2.2774    2.3998 H   0  0  0  0  0  0  0  0  0  0  0  0
   15.1305    2.6883    0.8144 H   0  0  0  0  0  0  0  0  0  0  0  0
   14.1160    1.8028    1.9395 H   0  0  0  0  0  0  0  0  0  0  0  0
   15.5189   -1.3552    0.4384 H   0  0  0  0  0  0  0  0  0  0  0  0
   13.3981   -1.5866    1.7061 H   0  0  0  0  0  0  0  0  0  0  0  0
   13.0719    0.1296    1.5951 H   0  0  0  0  0  0  0  0  0  0  0  0
   12.9347   -0.0477   -0.8930 H   0  0  0  0  0  0  0  0  0  0  0  0
   13.2470   -1.7709   -0.7862 H   0  0  0  0  0  0  0  0  0  0  0  0
   11.4805   -3.3154    0.1097 H   0  0  0  0  0  0  0  0  0  0  0  0
   11.2605   -2.4780    1.6301 H   0  0  0  0  0  0  0  0  0  0  0  0
    9.8914   -2.6990    0.5564 H   0  0  0  0  0  0  0  0  0  0  0  0
   10.8082    0.6172   -0.9818 H   0  0  0  0  0  0  0  0  0  0  0  0
    8.5056   -0.1148   -1.4093 H   0  0  0  0  0  0  0  0  0  0  0  0
    8.5715   -1.3423   -0.1635 H   0  0  0  0  0  0  0  0  0  0  0  0
    8.7493    0.3717    1.5944 H   0  0  0  0  0  0  0  0  0  0  0  0
    8.8093    1.6482    0.3905 H   0  0  0  0  0  0  0  0  0  0  0  0
    6.6494    1.0778   -1.5074 H   0  0  0  0  0  0  0  0  0  0  0  0
    5.1977    1.4347   -0.5861 H   0  0  0  0  0  0  0  0  0  0  0  0
    6.5753    2.5320   -0.5385 H   0  0  0  0  0  0  0  0  0  0  0  0
    6.7231   -0.3376    2.3674 H   0  0  0  0  0  0  0  0  0  0  0  0
    4.3990    0.3066    2.7390 H   0  0  0  0  0  0  0  0  0  0  0  0
    4.1863    0.8551    1.0922 H   0  0  0  0  0  0  0  0  0  0  0  0
    4.5099   -1.5149    0.2898 H   0  0  0  0  0  0  0  0  0  0  0  0
    4.6039   -2.0407    1.9610 H   0  0  0  0  0  0  0  0  0  0  0  0
    2.5023   -1.9507    3.4156 H   0  0  0  0  0  0  0  0  0  0  0  0
    2.1986   -0.2560    3.1059 H   0  0  0  0  0  0  0  0  0  0  0  0
    0.9657   -1.4436    2.7141 H   0  0  0  0  0  0  0  0  0  0  0  0
    2.5345   -1.6690   -0.7042 H   0  0  0  0  0  0  0  0  0  0  0  0
    0.2647   -2.5378   -0.6225 H   0  0  0  0  0  0  0  0  0  0  0  0
   -0.0256   -1.9234    0.9904 H   0  0  0  0  0  0  0  0  0  0  0  0
    0.0675    0.4048    0.1693 H   0  0  0  0  0  0  0  0  0  0  0  0
    0.4482   -0.1537   -1.4506 H   0  0  0  0  0  0  0  0  0  0  0  0
   -1.6110   -2.4135   -1.8625 H   0  0  0  0  0  0  0  0  0  0  0  0
   -2.9806   -1.3912   -2.2661 H   0  0  0  0  0  0  0  0  0  0  0  0
   -1.3863   -1.0429   -2.9271 H   0  0  0  0  0  0  0  0  0  0  0  0
   -2.0848    0.7497    0.7063 H   0  0  0  0  0  0  0  0  0  0  0  0
   -4.2936    1.2071   -0.3117 H   0  0  0  0  0  0  0  0  0  0  0  0
   -4.2841   -0.3098   -1.1832 H   0  0  0  0  0  0  0  0  0  0  0  0
   -4.2924   -1.5604    0.9825 H   0  0  0  0  0  0  0  0  0  0  0  0
   -4.3275   -0.0392    1.8570 H   0  0  0  0  0  0  0  0  0  0  0  0
   -6.5262    1.2442    2.0103 H   0  0  0  0  0  0  0  0  0  0  0  0
   -6.4396    1.5525    0.2909 H   0  0  0  0  0  0  0  0  0  0  0  0
   -7.8776    0.8051    0.9680 H   0  0  0  0  0  0  0  0  0  0  0  0
   -6.2263   -2.5442    0.4525 H   0  0  0  0  0  0  0  0  0  0  0  0
   -8.6213   -2.6638    1.0148 H   0  0  0  0  0  0  0  0  0  0  0  0
   -8.8531   -0.9510    0.7441 H   0  0  0  0  0  0  0  0  0  0  0  0
   -8.3090   -1.2453   -1.6717 H   0  0  0  0  0  0  0  0  0  0  0  0
   -8.0855   -2.9679   -1.4147 H   0  0  0  0  0  0  0  0  0  0  0  0
  -10.0611   -4.4454   -1.0587 H   0  0  0  0  0  0  0  0  0  0  0  0
  -10.6162   -3.6006    0.3727 H   0  0  0  0  0  0  0  0  0  0  0  0
  -11.6948   -3.7892   -0.9986 H   0  0  0  0  0  0  0  0  0  0  0  0
  -10.3361   -0.5099   -2.2801 H   0  0  0  0  0  0  0  0  0  0  0  0
  -12.5217   -1.2816   -3.2414 H   0  0  0  0  0  0  0  0  0  0  0  0
  -12.7892   -2.3446   -1.8823 H   0  0  0  0  0  0  0  0  0  0  0  0
  -13.5547    1.8468   -3.7956 H   0  0  0  0  0  0  0  0  0  0  0  0
  -11.9435    2.1974   -3.2008 H   0  0  0  0  0  0  0  0  0  0  0  0
  -12.3049    0.6082   -3.8568 H   0  0  0  0  0  0  0  0  0  0  0  0
  -16.1744    3.2861    0.0124 H   0  0  0  0  0  0  0  0  0  0  0  0
  -16.4800    2.1626    1.3575 H   0  0  0  0  0  0  0  0  0  0  0  0
  -16.0933    3.8620    1.6865 H   0  0  0  0  0  0  0  0  0  0  0  0
  -12.8001    1.1636    3.1719 H   0  0  0  0  0  0  0  0  0  0  0  0
  -13.6828   -0.1230    4.0150 H   0  0  0  0  0  0  0  0  0  0  0  0
  -12.4406   -0.5433    2.8234 H   0  0  0  0  0  0  0  0  0  0  0  0
  1  2  1  0
  1 54  1  0
  1 55  1  0
  1 56  1  0
  4  2  2  0
  2  3  1  0
  3 57  1  0
  3 58  1  0
  3 59  1  0
  5  4  1  0
  4 60  1  0
  6  5  1  0
  5 61  1  0
  5 62  1  0
  7  6  1  0
  6 63  1  0
  6 64  1  0
  8  7  1  0
  9  7  2  0
  8 65  1  0
  8 66  1  0
  8 67  1  0
 10  9  1  0
  9 68  1  0
 10 11  1  0
 10 69  1  0
 10 70  1  0
 12 11  1  0
 11 71  1  0
 11 72  1  0
 14 12  2  0
 12 13  1  0
 13 73  1  0
 13 74  1  0
 15 14  1  0
 14 76  1  0
 13 75  1  0
 16 15  1  0
 15 77  1  0
 15 78  1  0
 17 16  1  0
 16 79  1  0
 16 80  1  0
 19 17  2  0
 18 17  1  0
 18 81  1  0
 18 82  1  0
 18 83  1  0
 20 19  1  0
 19 84  1  0
 21 20  1  0
 20 85  1  0
 20 86  1  0
 22 21  1  0
 21 87  1  0
 21 88  1  0
 24 22  2  0
 22 23  1  0
 23 89  1  0
 23 90  1  0
 23 91  1  0
 25 24  1  0
 24 92  1  0
 26 25  1  0
 25 93  1  0
 25 94  1  0
 27 26  1  0
 26 95  1  0
 26 96  1  0
 28 27  1  0
 29 27  2  0
 28 97  1  0
 28 98  1  0
 28 99  1  0
 30 29  1  0
 29100  1  0
 31 30  1  0
 30101  1  0
 30102  1  0
 32 31  1  0
 31103  1  0
 31104  1  0
 34 32  2  0
 33 32  1  0
 33105  1  0
 33106  1  0
 33107  1  0
 35 34  1  0
 34108  1  0
 36 35  1  0
 35109  1  0
 35110  1  0
 37 36  1  0
 36111  1  0
 36112  1  0
 39 37  2  0
 38 37  1  0
 38113  1  0
 38114  1  0
 38115  1  0
 40 39  1  0
 39116  1  0
 41 40  1  0
 40117  1  0
 40118  1  0
 42 41  2  0
 52 41  1  0
 44 42  1  0
 42 43  1  0
 43119  1  0
 43120  1  0
 43121  1  0
 45 44  2  0
 46 44  1  0
 47 46  1  0
 46 49  2  0
 48 47  1  0
 48122  1  0
 48123  1  0
 48124  1  0
 50 49  1  0
 49 52  1  0
 51 50  1  0
 51125  1  0
 51126  1  0
 51127  1  0
 52 53  2  0
M  END
