
     RDKit          3D

 66 70  0  0  0  0  0  0  0  0999 V2000
    6.4138   -0.0414   -0.2826 C   0  0  0  0  0  0  0  0  0  0  0  0
    9.0107    0.6235    0.3180 C   0  0  0  0  0  0  0  0  0  0  0  0
   11.0904    1.3476    0.8232 C   0  0  0  0  0  0  0  0  0  0  0  0
    1.7906   -3.0798   -1.8092 C   0  0  0  0  0  0  0  0  0  0  0  0
   -1.4668   -2.1336   -0.5743 C   0  0  0  0  0  0  0  0  0  0  0  0
   -2.9789   -1.7925    1.7531 C   0  0  0  0  0  0  0  0  0  0  0  0
   -6.1124    1.0758    1.2654 C   0  0  0  0  0  0  0  0  0  0  0  0
   -9.8350    1.9367   -0.6598 C   0  0  0  0  0  0  0  0  0  0  0  0
   -2.4686   -1.1800   -0.5232 C   0  0  0  0  0  0  0  0  0  0  0  0
    5.7631   -2.3083   -0.7036 O   0  0  0  0  0  0  0  0  0  0  0  0
    5.4403   -1.1462   -0.6279 C   0  0  0  0  0  0  0  0  0  0  0  0
    8.0164   -0.8012    0.0546 S   0  0  0  0  0  0  0  0  0  0  0  0
   10.2651    0.3242    0.6236 N   0  0  0  0  0  0  0  0  0  0  0  0
   12.5022    1.0282    1.1890 C   0  0  0  0  0  0  0  0  0  0  0  0
   10.6389    2.6585    0.7067 C   0  0  0  0  0  0  0  0  0  0  0  0
    9.3059    2.8612    0.3864 C   0  0  0  0  0  0  0  0  0  0  0  0
    8.7201    4.2266    0.2416 C   0  0  0  0  0  0  0  0  0  0  0  0
    8.4850    1.8255    0.1925 N   0  0  0  0  0  0  0  0  0  0  0  0
    4.1732   -0.6762   -0.8398 N   0  0  0  0  0  0  0  0  0  0  0  0
    3.0668   -1.4266   -1.1761 C   0  0  0  0  0  0  0  0  0  0  0  0
    1.4970   -0.6826   -1.0981 S   0  0  0  0  0  0  0  0  0  0  0  0
    0.7993   -2.1733   -1.6388 C   0  0  0  0  0  0  0  0  0  0  0  0
    3.0670   -2.6572   -1.5535 N   0  0  0  0  0  0  0  0  0  0  0  0
   -0.6691   -2.3316   -1.8409 C   0  0  0  0  0  0  0  0  0  0  0  0
   -3.2306   -1.0058    0.6353 C   0  0  0  0  0  0  0  0  0  0  0  0
   -1.9662   -2.7467    1.6943 C   0  0  0  0  0  0  0  0  0  0  0  0
   -1.2127   -2.9225    0.5488 C   0  0  0  0  0  0  0  0  0  0  0  0
   -4.1828   -0.0508    0.5732 O   0  0  0  0  0  0  0  0  0  0  0  0
   -5.0927    0.0672    1.6520 C   0  0  0  0  0  0  0  0  0  0  0  0
   -6.4677    2.1015    2.0659 N   0  0  0  0  0  0  0  0  0  0  0  0
   -7.3725    2.8048    1.4769 N   0  0  0  0  0  0  0  0  0  0  0  0
   -7.6054    2.2586    0.2964 N   0  0  0  0  0  0  0  0  0  0  0  0
   -6.8490    1.1665    0.1119 C   0  0  0  0  0  0  0  0  0  0  0  0
   -8.6108    2.8100   -0.5942 C   0  0  0  0  0  0  0  0  0  0  0  0
  -10.2024    1.3267   -1.8528 C   0  0  0  0  0  0  0  0  0  0  0  0
  -11.3312    0.5177   -1.9114 C   0  0  0  0  0  0  0  0  0  0  0  0
  -12.0974    0.3121   -0.7736 C   0  0  0  0  0  0  0  0  0  0  0  0
  -11.7335    0.9191    0.4236 C   0  0  0  0  0  0  0  0  0  0  0  0
  -10.6092    1.7278    0.4798 C   0  0  0  0  0  0  0  0  0  0  0  0
    6.4923    0.6642   -1.1119 H   0  0  0  0  0  0  0  0  0  0  0  0
    6.0618    0.5157    0.5873 H   0  0  0  0  0  0  0  0  0  0  0  0
    1.6247   -4.0973   -2.1365 H   0  0  0  0  0  0  0  0  0  0  0  0
   -3.5455   -1.6824    2.6677 H   0  0  0  0  0  0  0  0  0  0  0  0
   -2.6771   -0.5604   -1.3880 H   0  0  0  0  0  0  0  0  0  0  0  0
   12.5460    0.6557    2.2140 H   0  0  0  0  0  0  0  0  0  0  0  0
   12.9002    0.2462    0.5435 H   0  0  0  0  0  0  0  0  0  0  0  0
   13.1442    1.9036    1.1210 H   0  0  0  0  0  0  0  0  0  0  0  0
   11.3087    3.4932    0.8585 H   0  0  0  0  0  0  0  0  0  0  0  0
    8.2544    4.3376   -0.7380 H   0  0  0  0  0  0  0  0  0  0  0  0
    7.9405    4.3842    0.9883 H   0  0  0  0  0  0  0  0  0  0  0  0
    9.4724    5.0030    0.3603 H   0  0  0  0  0  0  0  0  0  0  0  0
    4.0293    0.3153   -0.7143 H   0  0  0  0  0  0  0  0  0  0  0  0
   -0.8388   -3.3398   -2.2275 H   0  0  0  0  0  0  0  0  0  0  0  0
   -1.0226   -1.6422   -2.6114 H   0  0  0  0  0  0  0  0  0  0  0  0
   -1.7729   -3.3590    2.5658 H   0  0  0  0  0  0  0  0  0  0  0  0
   -0.4282   -3.6688    0.5218 H   0  0  0  0  0  0  0  0  0  0  0  0
   -4.5913    0.3899    2.5702 H   0  0  0  0  0  0  0  0  0  0  0  0
   -5.5641   -0.9007    1.8559 H   0  0  0  0  0  0  0  0  0  0  0  0
   -6.8871    0.5664   -0.7815 H   0  0  0  0  0  0  0  0  0  0  0  0
   -8.1656    2.9325   -1.5809 H   0  0  0  0  0  0  0  0  0  0  0  0
   -8.8498    3.8021   -0.2129 H   0  0  0  0  0  0  0  0  0  0  0  0
   -9.6061    1.4833   -2.7438 H   0  0  0  0  0  0  0  0  0  0  0  0
  -11.6076    0.0471   -2.8460 H   0  0  0  0  0  0  0  0  0  0  0  0
  -12.9759   -0.3185   -0.8167 H   0  0  0  0  0  0  0  0  0  0  0  0
  -12.3298    0.7643    1.3134 H   0  0  0  0  0  0  0  0  0  0  0  0
  -10.3321    2.1995    1.4156 H   0  0  0  0  0  0  0  0  0  0  0  0
 35 36  2  0
 35  8  1  0
 36 37  1  0
 34  8  1  0
 34 32  1  0
  8 39  2  0
 37 38  2  0
 32 31  1  0
 32 33  1  0
 31 30  2  0
 39 38  1  0
 33  7  2  0
 30  7  1  0
  7 29  1  0
 29 28  1  0
  6 26  2  0
  6 25  1  0
 28 25  1  0
 26 27  1  0
 25  9  2  0
 27  5  2  0
  9  5  1  0
  5 24  1  0
 24 22  1  0
 22 21  1  0
 22  4  2  0
 21 20  1  0
  4 23  1  0
 10 11  2  0
 20 23  2  0
 20 19  1  0
 11 19  1  0
 11  1  1  0
 12  1  1  0
 12  2  1  0
  2 13  1  0
  2 18  2  0
 13  3  2  0
 18 16  1  0
  3 14  1  0
  3 15  1  0
 16 15  2  0
 16 17  1  0
  1 40  1  0
  1 41  1  0
  4 42  1  0
  6 43  1  0
  9 44  1  0
 14 45  1  0
 14 46  1  0
 14 47  1  0
 15 48  1  0
 17 49  1  0
 17 50  1  0
 17 51  1  0
 19 52  1  0
 24 53  1  0
 24 54  1  0
 26 55  1  0
 27 56  1  0
 29 57  1  0
 29 58  1  0
 33 59  1  0
 34 60  1  0
 34 61  1  0
 35 62  1  0
 36 63  1  0
 37 64  1  0
 38 65  1  0
 39 66  1  0
M  END
