
     RDKit          3D

 57 61  0  0  0  0  0  0  0  0999 V2000
    4.1214   -1.2238   -0.3170 C   0  0  0  0  0  0  0  0  0  0  0  0
    2.7537   -0.9494   -0.3859 C   0  0  0  0  0  0  0  0  0  0  0  0
    1.9270   -1.9155    0.1590 C   0  0  0  0  0  0  0  0  0  0  0  0
    4.5946   -2.4274    0.2319 C   0  0  0  0  0  0  0  0  0  0  0  0
    6.3427   -1.2067   -0.4444 N   0  0  0  0  0  0  0  0  0  0  0  0
    0.1579    0.6004    0.3780 C   0  0  0  0  0  0  0  0  0  0  0  0
   -4.7810    0.7072   -0.0343 C   0  0  0  0  0  0  0  0  0  0  0  0
   -6.0274   -0.0863   -0.4138 C   0  0  0  0  0  0  0  0  0  0  0  0
   -4.2192   -1.6546   -0.1685 C   0  0  0  0  0  0  0  0  0  0  0  0
   -1.3558    3.7807    1.5410 C   0  0  0  0  0  0  0  0  0  0  0  0
    5.9022    1.7792   -0.3115 C   0  0  0  0  0  0  0  0  0  0  0  0
    5.9990    0.7725   -2.6294 C   0  0  0  0  0  0  0  0  0  0  0  0
    5.2094   -0.5337   -0.7121 N   0  0  0  0  0  0  0  0  0  0  0  0
    2.3664   -3.0856    0.6717 N   0  0  0  0  0  0  0  0  0  0  0  0
    3.6529   -3.3423    0.7001 C   0  0  0  0  0  0  0  0  0  0  0  0
    6.0060   -2.3374    0.1128 C   0  0  0  0  0  0  0  0  0  0  0  0
    0.5461   -1.8129    0.1871 N   0  0  0  0  0  0  0  0  0  0  0  0
   -0.2727   -0.7197    0.1938 C   0  0  0  0  0  0  0  0  0  0  0  0
   -0.8259    1.5753    0.3698 C   0  0  0  0  0  0  0  0  0  0  0  0
   -2.1140    1.2916    0.2143 N   0  0  0  0  0  0  0  0  0  0  0  0
   -2.4220    0.0026    0.0759 C   0  0  0  0  0  0  0  0  0  0  0  0
   -1.5602   -1.0143    0.0464 N   0  0  0  0  0  0  0  0  0  0  0  0
   -3.7282   -0.3001   -0.0557 N   0  0  0  0  0  0  0  0  0  0  0  0
   -5.7041   -1.4722    0.0903 C   0  0  2  0  0  0  0  0  0  0  0  0
   -6.4527   -2.4522   -0.4782 F   0  0  0  0  0  0  0  0  0  0  0  0
   -5.9508   -1.5514    1.4353 F   0  0  0  0  0  0  0  0  0  0  0  0
   -0.4719    3.0255    0.5189 C   0  0  1  0  0  0  0  0  0  0  0  0
   -2.1692    4.7478    0.6883 C   0  0  0  0  0  0  0  0  0  0  0  0
   -1.2405    5.0707   -0.3830 N   0  0  0  0  0  0  0  0  0  0  0  0
   -0.7012    3.7891   -0.8076 C   0  0  0  0  0  0  0  0  0  0  0  0
    2.3701   -0.0633   -0.8682 H   0  0  0  0  0  0  0  0  0  0  0  0
    1.1867    0.8656    0.5598 H   0  0  0  0  0  0  0  0  0  0  0  0
   -4.5767    1.5108   -0.7401 H   0  0  0  0  0  0  0  0  0  0  0  0
   -4.8731    1.1576    0.9573 H   0  0  0  0  0  0  0  0  0  0  0  0
   -6.9439    0.3186    0.0136 H   0  0  0  0  0  0  0  0  0  0  0  0
   -6.1391   -0.1243   -1.4987 H   0  0  0  0  0  0  0  0  0  0  0  0
   -4.0589   -2.0694   -1.1686 H   0  0  0  0  0  0  0  0  0  0  0  0
   -3.7558   -2.3288    0.5531 H   0  0  0  0  0  0  0  0  0  0  0  0
   -1.9883    3.1120    2.1224 H   0  0  0  0  0  0  0  0  0  0  0  0
   -0.7207    4.3287    2.2381 H   0  0  0  0  0  0  0  0  0  0  0  0
    5.3521    1.8051    0.6292 H   0  0  0  0  0  0  0  0  0  0  0  0
    6.9368    1.5070   -0.1008 H   0  0  0  0  0  0  0  0  0  0  0  0
    5.8960    2.7839   -0.7333 H   0  0  0  0  0  0  0  0  0  0  0  0
    4.2356    1.0920   -1.4673 H   0  0  0  0  0  0  0  0  0  0  0  0
    7.0425    0.4837   -2.5040 H   0  0  0  0  0  0  0  0  0  0  0  0
    5.5275    0.0762   -3.3227 H   0  0  0  0  0  0  0  0  0  0  0  0
    5.9756    1.7650   -3.0787 H   0  0  0  0  0  0  0  0  0  0  0  0
    3.9550   -4.3006    1.1089 H   0  0  0  0  0  0  0  0  0  0  0  0
    6.7572   -3.0519    0.4131 H   0  0  0  0  0  0  0  0  0  0  0  0
    0.0632   -2.6948    0.2839 H   0  0  0  0  0  0  0  0  0  0  0  0
    0.5785    3.0979    0.8053 H   0  0  0  0  0  0  0  0  0  0  0  0
   -3.0813    4.2467    0.3332 H   0  0  0  0  0  0  0  0  0  0  0  0
   -2.4714    5.6452    1.2322 H   0  0  0  0  0  0  0  0  0  0  0  0
   -1.6997    5.5480   -1.1475 H   0  0  0  0  0  0  0  0  0  0  0  0
    0.2264    3.9133   -1.3697 H   0  0  0  0  0  0  0  0  0  0  0  0
   -1.4001    3.2247   -1.4399 H   0  0  0  0  0  0  0  0  0  0  0  0
    5.2728    0.8000   -1.2929 C   0  0  1  0  0  0  0  0  0  0  0  0
 15 14  2  0
 15  4  1  0
 14  3  1  0
  4 16  1  0
  4  1  2  0
 16  5  2  0
 17  3  1  0
 17 18  1  0
  3  2  2  0
  6 18  2  0
  6 19  1  0
  1  2  1  0
  1 13  1  0
 10 27  1  0
 10 28  1  0
 18 22  1  0
  5 13  1  0
 27 19  1  0
 27 30  1  0
 28 29  1  0
 19 20  2  0
 13 57  1  0
 22 21  2  0
 20 21  1  0
 30 29  1  0
 21 23  1  0
 57 11  1  0
 57 12  1  0
 23  9  1  0
 23  7  1  0
  9 24  1  0
  7  8  1  0
 24 26  1  1
 24 25  1  0
 24  8  1  0
  2 31  1  0
  6 32  1  0
  7 33  1  0
  7 34  1  0
  8 35  1  0
  8 36  1  0
  9 37  1  0
  9 38  1  0
 10 39  1  0
 10 40  1  0
 11 41  1  0
 11 42  1  0
 11 43  1  0
 57 44  1  6
 12 45  1  0
 12 46  1  0
 12 47  1  0
 15 48  1  0
 16 49  1  0
 17 50  1  0
 27 51  1  1
 28 52  1  0
 28 53  1  0
 29 54  1  0
 30 55  1  0
 30 56  1  0
M  END
