
     RDKit          3D

 13 13  0  0  0  0  0  0  0  0999 V2000
    0.6002    1.2387   -0.0232 C   0  0  0  0  0  0  0  0  0  0  0  0
   -0.0627    0.0200   -0.0136 C   0  0  0  0  0  0  0  0  0  0  0  0
    1.8705   -1.1617   -0.0657 C   0  0  0  0  0  0  0  0  0  0  0  0
    0.5464   -1.1380   -0.0332 N   0  0  0  0  0  0  0  0  0  0  0  0
    1.9808    1.2175   -0.0585 C   0  0  0  0  0  0  0  0  0  0  0  0
   -1.9623   -0.0118    0.0360 Br  0  0  0  0  0  0  0  0  0  0  0  0
    2.6615   -0.0057   -0.0836 C   0  0  0  0  0  0  0  0  0  0  0  0
    4.0253   -0.0758   -0.1706 N   0  0  0  0  0  0  0  0  0  0  0  0
    0.0666    2.1785   -0.0011 H   0  0  0  0  0  0  0  0  0  0  0  0
    2.3380   -2.1410   -0.0792 H   0  0  0  0  0  0  0  0  0  0  0  0
    2.5327    2.1495   -0.0667 H   0  0  0  0  0  0  0  0  0  0  0  0
    4.5380    0.7318    0.1441 H   0  0  0  0  0  0  0  0  0  0  0  0
    4.4520   -0.9403    0.1214 H   0  0  0  0  0  0  0  0  0  0  0  0
  6  2  1  0
  1  2  2  0
  1  5  1  0
  2  4  1  0
  5  7  2  0
  4  3  2  0
  7  3  1  0
  7  8  1  0
  1  9  1  0
  3 10  1  0
  5 11  1  0
  8 12  1  0
  8 13  1  0
M  END
