
     RDKit          3D

 15 16  0  0  0  0  0  0  0  0999 V2000
   -1.4265    1.0112    0.0016 C   0  0  0  0  0  0  0  0  0  0  0  0
   -0.7086    2.1985   -0.0157 C   0  0  0  0  0  0  0  0  0  0  0  0
    0.6928    2.2283   -0.0355 C   0  0  0  0  0  0  0  0  0  0  0  0
    1.4105    1.0352   -0.0371 C   0  0  0  0  0  0  0  0  0  0  0  0
    0.7130   -0.1663   -0.0205 C   0  0  0  0  0  0  0  0  0  0  0  0
   -0.7056   -0.1781   -0.0014 C   0  0  0  0  0  0  0  0  0  0  0  0
   -3.5113    1.1590    0.0300 I   0  0  0  0  0  0  0  0  0  0  0  0
   -1.7616   -1.9927    0.0223 I   0  0  0  0  0  0  0  0  0  0  0  0
    1.7951   -1.9676   -0.0243 I   0  0  0  0  0  0  0  0  0  0  0  0
    3.4916    1.2215   -0.0640 I   0  0  0  0  0  0  0  0  0  0  0  0
   -1.0809    3.5097   -0.0196 N   0  0  0  0  0  0  0  0  0  0  0  0
    0.0550    4.2431   -0.0411 C   0  0  0  0  0  0  0  0  0  0  0  0
    1.1382    3.5194   -0.0510 N   0  0  0  0  0  0  0  0  0  0  0  0
    0.0256    5.3218   -0.0488 H   0  0  0  0  0  0  0  0  0  0  0  0
   -2.0190    3.8828   -0.0111 H   0  0  0  0  0  0  0  0  0  0  0  0
  7  1  1  0
  2  1  2  0
  1  6  1  0
 11  2  1  0
  2  3  1  0
 13  3  1  0
  3  4  2  0
  4  5  1  0
  4 10  1  0
  6  5  2  0
  5  9  1  0
  6  8  1  0
 12 11  1  0
 12 13  2  0
 12 14  1  0
 11 15  1  0
M  END
