
     RDKit          3D

 16 16  0  0  0  0  0  0  0  0999 V2000
   -1.4095   -0.1817    0.0194 C   0  0  0  0  0  0  0  0  0  0  0  0
   -1.8223   -1.1987    0.5177 O   0  0  0  0  0  0  0  0  0  0  0  0
   -0.0137    0.0361   -0.5106 C   0  0  2  0  0  0  0  0  0  0  0  0
    0.9405   -1.1477   -0.2893 C   0  0  0  0  0  0  0  0  0  0  0  0
    2.3148   -0.5172   -0.0057 C   0  0  0  0  0  0  0  0  0  0  0  0
    1.9695    0.8791    0.4202 C   0  0  0  0  0  0  0  0  0  0  0  0
    0.7074    1.1904    0.1494 C   0  0  0  0  0  0  0  0  0  0  0  0
   -0.1282    0.2546   -1.5816 H   0  0  0  0  0  0  0  0  0  0  0  0
    0.6171   -1.7204    0.5801 H   0  0  0  0  0  0  0  0  0  0  0  0
    0.9549   -1.8292   -1.1386 H   0  0  0  0  0  0  0  0  0  0  0  0
    2.8748   -1.0674    0.7528 H   0  0  0  0  0  0  0  0  0  0  0  0
    2.9476   -0.4942   -0.8986 H   0  0  0  0  0  0  0  0  0  0  0  0
    2.6906    1.5595    0.8555 H   0  0  0  0  0  0  0  0  0  0  0  0
   -2.1611    0.9028   -0.1391 O   0  0  0  0  0  0  0  0  0  0  0  0
   -3.0525    0.7422    0.2054 H   0  0  0  0  0  0  0  0  0  0  0  0
    0.2478    2.1550    0.3202 H   0  0  0  0  0  0  0  0  0  0  0  0
  1  2  2  0
  1  3  1  0
  3  4  1  0
  3  7  1  0
  4  5  1  0
  5  6  1  0
  6  7  2  0
  3  8  1  6
  4  9  1  0
  4 10  1  0
  5 11  1  0
  5 12  1  0
  6 13  1  0
  1 14  1  0
 14 15  1  0
  7 16  1  0
M  END
