
     RDKit          3D

 63 66  0  0  0  0  0  0  0  0999 V2000
   -5.3379   -1.9840   -0.2838 C   0  0  0  0  0  0  0  0  0  0  0  0
   -4.0431   -1.1890   -0.3342 C   0  0  0  0  0  0  0  0  0  0  0  0
   -3.7601    2.3095    0.6085 C   0  0  0  0  0  0  0  0  0  0  0  0
    0.8374    3.7817    0.2604 C   0  0  0  0  0  0  0  0  0  0  0  0
   -1.4461    3.0338    0.4436 C   0  0  0  0  0  0  0  0  0  0  0  0
    0.3086    1.5048   -0.2495 C   0  0  0  0  0  0  0  0  0  0  0  0
    3.3699    1.2342   -0.2779 C   0  0  0  0  0  0  0  0  0  0  0  0
    3.6189   -0.8995    0.5128 C   0  0  0  0  0  0  0  0  0  0  0  0
    5.3964    0.0284   -0.5292 C   0  0  0  0  0  0  0  0  0  0  0  0
    3.6862   -3.2451    1.2274 C   0  0  0  0  0  0  0  0  0  0  0  0
   -5.3508   -3.0525   -1.0861 N   0  0  0  0  0  0  0  0  0  0  0  0
   -6.2535   -1.6839    0.4626 O   0  0  0  0  0  0  0  0  0  0  0  0
   -4.3338    0.1205    0.0789 O   0  0  0  0  0  0  0  0  0  0  0  0
   -4.9364    2.5319    0.8496 O   0  0  0  0  0  0  0  0  0  0  0  0
   -2.7841    3.2654    0.7279 N   0  0  0  0  0  0  0  0  0  0  0  0
   -3.3122    0.9788    0.1675 C   0  0  0  0  0  0  0  0  0  0  0  0
   -2.0174    0.7220   -0.0989 C   0  0  0  0  0  0  0  0  0  0  0  0
   -0.4867    4.0453    0.5411 C   0  0  0  0  0  0  0  0  0  0  0  0
   -1.0355    1.7554    0.0384 C   0  0  0  0  0  0  0  0  0  0  0  0
    1.2556    2.5077   -0.1370 C   0  0  0  0  0  0  0  0  0  0  0  0
    2.6059    2.3358   -0.4631 N   0  0  0  0  0  0  0  0  0  0  0  0
    3.0781   -1.9291    1.2016 N   0  0  0  0  0  0  0  0  0  0  0  0
    2.8585    0.1847    0.3367 N   0  0  0  0  0  0  0  0  0  0  0  0
    4.8800   -1.0273    0.0802 N   0  0  0  0  0  0  0  0  0  0  0  0
    4.7043    1.1981   -0.7334 C   0  0  0  0  0  0  0  0  0  0  0  0
    2.9470   -4.2032    0.2928 C   0  0  2  0  0  0  0  0  0  0  0  0
    1.4565   -4.2129    0.6291 C   0  0  0  0  0  0  0  0  0  0  0  0
    0.8439   -2.8148    0.7025 C   0  0  2  0  0  0  0  0  0  0  0  0
    1.6900   -1.9320    1.6168 C   0  0  0  0  0  0  0  0  0  0  0  0
    3.5476   -5.5993    0.3784 C   0  0  0  0  0  0  0  0  0  0  0  0
   -0.5956   -2.8636    1.1937 C   0  0  0  0  0  0  0  0  0  0  0  0
   -3.3223   -1.6656    0.3432 H   0  0  0  0  0  0  0  0  0  0  0  0
   -3.6066   -1.2018   -1.3393 H   0  0  0  0  0  0  0  0  0  0  0  0
   -4.2379    4.6013    1.3921 H   0  0  0  0  0  0  0  0  0  0  0  0
   -2.6313    4.8738    2.0675 H   0  0  0  0  0  0  0  0  0  0  0  0
   -2.9818    5.3306    0.3896 H   0  0  0  0  0  0  0  0  0  0  0  0
    1.5623    4.5809    0.3518 H   0  0  0  0  0  0  0  0  0  0  0  0
    0.5909    0.5131   -0.5704 H   0  0  0  0  0  0  0  0  0  0  0  0
    6.4201   -0.0593   -0.8784 H   0  0  0  0  0  0  0  0  0  0  0  0
    4.7362   -3.1681    0.9585 H   0  0  0  0  0  0  0  0  0  0  0  0
    3.6340   -3.6238    2.2550 H   0  0  0  0  0  0  0  0  0  0  0  0
   -7.3688   -3.5323   -1.4595 H   0  0  0  0  0  0  0  0  0  0  0  0
   -6.1891   -4.8066   -1.7752 H   0  0  0  0  0  0  0  0  0  0  0  0
   -6.6304   -4.4098   -0.1132 H   0  0  0  0  0  0  0  0  0  0  0  0
   -4.5749   -3.2163   -1.7062 H   0  0  0  0  0  0  0  0  0  0  0  0
   -1.6828   -0.2526   -0.4311 H   0  0  0  0  0  0  0  0  0  0  0  0
   -0.7547    5.0479    0.8392 H   0  0  0  0  0  0  0  0  0  0  0  0
    3.0811    3.1608   -0.7949 H   0  0  0  0  0  0  0  0  0  0  0  0
    3.0748   -3.8302   -0.7308 H   0  0  0  0  0  0  0  0  0  0  0  0
    0.9129   -4.8220   -0.0993 H   0  0  0  0  0  0  0  0  0  0  0  0
    1.3191   -4.7018    1.6027 H   0  0  0  0  0  0  0  0  0  0  0  0
    0.8588   -2.3673   -0.2990 H   0  0  0  0  0  0  0  0  0  0  0  0
    1.6468   -2.3237    2.6402 H   0  0  0  0  0  0  0  0  0  0  0  0
    1.3114   -0.9131    1.6389 H   0  0  0  0  0  0  0  0  0  0  0  0
    3.4607   -6.0001    1.3910 H   0  0  0  0  0  0  0  0  0  0  0  0
    3.0380   -6.2900   -0.2951 H   0  0  0  0  0  0  0  0  0  0  0  0
    4.6057   -5.5965    0.1108 H   0  0  0  0  0  0  0  0  0  0  0  0
   -0.6581   -3.3286    2.1801 H   0  0  0  0  0  0  0  0  0  0  0  0
   -1.0209   -1.8616    1.2807 H   0  0  0  0  0  0  0  0  0  0  0  0
   -1.2264   -3.4394    0.5146 H   0  0  0  0  0  0  0  0  0  0  0  0
   -3.1786    4.5948    1.1685 C   0  0  0  0  0  0  0  0  0  0  0  0
   -6.4471   -3.9933   -1.1036 C   0  0  0  0  0  0  0  0  0  0  0  0
    5.4320    2.5457   -1.5368 Cl  0  0  0  0  0  0  0  0  0  0  0  0
 61 15  1  0
 14  3  2  0
 15  3  1  0
 15  5  1  0
  3 16  1  0
 18  5  1  0
 18  4  2  0
 30 26  1  0
  5 19  2  0
 16 13  1  0
 16 17  2  0
 12  1  2  0
 13  2  1  0
  4 20  1  0
 19 17  1  0
 19  6  1  0
 26 10  1  0
 26 27  1  0
  1  2  1  0
  1 11  1  0
 10 22  1  0
 27 28  1  0
 20  6  2  0
 20 21  1  0
 62 11  1  0
 22 29  1  0
 22  8  1  0
 23  8  2  0
 23  7  1  0
 21  7  1  0
 28 29  1  0
 28 31  1  0
  8 24  1  0
  7 25  2  0
 24  9  2  0
 25  9  1  0
 25 63  1  0
  2 32  1  0
  2 33  1  0
 61 34  1  0
 61 35  1  0
 61 36  1  0
  4 37  1  0
  6 38  1  0
  9 39  1  0
 10 40  1  0
 10 41  1  0
 62 42  1  0
 62 43  1  0
 62 44  1  0
 11 45  1  0
 17 46  1  0
 18 47  1  0
 21 48  1  0
 26 49  1  6
 27 50  1  0
 27 51  1  0
 28 52  1  6
 29 53  1  0
 29 54  1  0
 30 55  1  0
 30 56  1  0
 30 57  1  0
 31 58  1  0
 31 59  1  0
 31 60  1  0
M  END
