
     RDKit          3D

 36 39  0  0  0  0  0  0  0  0999 V2000
   -0.6164   -2.6995    0.7072 N   0  0  0  0  0  0  0  0  0  0  0  0
    5.4358   -1.6590   -0.1552 C   0  0  0  0  0  0  0  0  0  0  0  0
    3.4891   -0.3077   -0.0369 C   0  0  0  0  0  0  0  0  0  0  0  0
    2.0737   -0.2614    0.0559 C   0  0  0  0  0  0  0  0  0  0  0  0
   -2.1973   -0.2467   -0.0178 C   0  0  0  0  0  0  0  0  0  0  0  0
   -2.9168    0.9432   -0.0048 C   0  0  0  0  0  0  0  0  0  0  0  0
   -2.2034    2.1124    0.0960 C   0  0  0  0  0  0  0  0  0  0  0  0
   -0.8283    2.1328    0.1310 C   0  0  0  0  0  0  0  0  0  0  0  0
   -1.5748    4.2227    0.3078 C   0  0  0  0  0  0  0  0  0  0  0  0
   -2.9448   -1.4698   -0.4073 C   0  0  0  0  0  0  0  0  0  0  0  0
    4.2150    0.8653   -0.0681 C   0  0  0  0  0  0  0  0  0  0  0  0
    3.5373    2.0827   -0.0083 C   0  0  0  0  0  0  0  0  0  0  0  0
    2.1653    2.1547    0.0721 C   0  0  0  0  0  0  0  0  0  0  0  0
    1.3983    0.9774    0.0953 C   0  0  0  0  0  0  0  0  0  0  0  0
   -0.0547    0.9710    0.1321 C   0  0  0  0  0  0  0  0  0  0  0  0
   -0.7918   -0.2535    0.1212 C   0  0  0  0  0  0  0  0  0  0  0  0
   -0.0114   -1.4529    0.2665 C   0  0  0  0  0  0  0  0  0  0  0  0
    1.3373   -1.4674    0.1921 C   0  0  0  0  0  0  0  0  0  0  0  0
   -1.4966   -2.6266    1.5354 O   0  0  0  0  0  0  0  0  0  0  0  0
   -0.1744   -3.7369    0.2792 O   0  0  0  0  0  0  0  0  0  0  0  0
   -0.4136    3.4152    0.1338 O   0  0  0  0  0  0  0  0  0  0  0  0
   -2.6871    3.3724    0.0816 O   0  0  0  0  0  0  0  0  0  0  0  0
   -2.4997   -2.3113   -1.1507 O   0  0  0  0  0  0  0  0  0  0  0  0
   -4.1733   -1.4973    0.0806 O   0  0  0  0  0  0  0  0  0  0  0  0
    5.8395   -1.1904   -1.0553 H   0  0  0  0  0  0  0  0  0  0  0  0
    5.9239   -1.2287    0.7224 H   0  0  0  0  0  0  0  0  0  0  0  0
    5.6434   -2.7248   -0.1880 H   0  0  0  0  0  0  0  0  0  0  0  0
   -3.9916    0.9608   -0.1163 H   0  0  0  0  0  0  0  0  0  0  0  0
   -1.5993    4.6142    1.3293 H   0  0  0  0  0  0  0  0  0  0  0  0
   -1.5686    5.0334   -0.4190 H   0  0  0  0  0  0  0  0  0  0  0  0
    5.2933    0.8639   -0.1370 H   0  0  0  0  0  0  0  0  0  0  0  0
    4.1129    2.9985   -0.0309 H   0  0  0  0  0  0  0  0  0  0  0  0
    1.7071    3.1275    0.1101 H   0  0  0  0  0  0  0  0  0  0  0  0
    1.8715   -2.3979    0.3187 H   0  0  0  0  0  0  0  0  0  0  0  0
   -4.6568   -2.2556   -0.2812 H   0  0  0  0  0  0  0  0  0  0  0  0
    4.0261   -1.5311   -0.0870 O   0  0  0  0  0  0  0  0  0  0  0  0
 20  1  1  0
 23 10  2  0
 24 10  1  0
  1 19  2  0
  1 17  1  0
 10  5  1  0
 17 18  2  0
 17 16  1  0
  5 16  1  0
  5  6  2  0
  2 36  1  0
 18  4  1  0
 16 15  2  0
  6  7  1  0
 36  3  1  0
  4  3  2  0
  4 14  1  0
 15 14  1  0
 15  8  1  0
  7  8  2  0
  7 22  1  0
  3 11  1  0
 14 13  2  0
  8 21  1  0
 22  9  1  0
 11 12  2  0
 13 12  1  0
 21  9  1  0
  2 25  1  0
  2 26  1  0
  2 27  1  0
  6 28  1  0
  9 29  1  0
  9 30  1  0
 11 31  1  0
 12 32  1  0
 13 33  1  0
 18 34  1  0
 24 35  1  0
M  CHG  2   1   1  20  -1
M  END
