
     RDKit          3D

 53 57  0  0  0  0  0  0  0  0999 V2000
    0.4370    0.0393   -0.1865 C   0  0  0  0  0  0  0  0  0  0  0  0
    1.3290    1.1205   -0.0364 C   0  0  0  0  0  0  0  0  0  0  0  0
    0.6007    2.2827    0.0152 N   0  0  0  0  0  0  0  0  0  0  0  0
   -0.7217    2.0038   -0.0955 C   0  0  0  0  0  0  0  0  0  0  0  0
   -0.8816    0.6156   -0.2173 C   0  0  0  0  0  0  0  0  0  0  0  0
   -1.8318    2.8718   -0.0900 C   0  0  0  0  0  0  0  0  0  0  0  0
   -3.0541    2.2310   -0.2398 C   0  0  0  0  0  0  0  0  0  0  0  0
   -3.2437    0.9234   -0.3463 N   0  0  0  0  0  0  0  0  0  0  0  0
   -2.1901    0.1012   -0.3260 C   0  0  0  0  0  0  0  0  0  0  0  0
    0.9730   -1.2460   -0.2767 C   0  0  0  0  0  0  0  0  0  0  0  0
    2.3417   -1.4191   -0.2055 C   0  0  0  0  0  0  0  0  0  0  0  0
    3.2234   -0.3341   -0.0427 C   0  0  0  0  0  0  0  0  0  0  0  0
    2.7029    0.9544    0.0397 C   0  0  0  0  0  0  0  0  0  0  0  0
   -1.6532    4.3294    0.0433 C   0  0  0  0  0  0  0  0  0  0  0  0
   -2.4193   -1.2218   -0.4353 N   0  0  0  0  0  0  0  0  0  0  0  0
   -3.7344   -1.8304   -0.3386 C   0  0  1  0  0  0  0  0  0  0  0  0
   -3.7053   -3.2072   -0.9953 C   0  0  0  0  0  0  0  0  0  0  0  0
   -5.0641   -3.8943   -0.8968 C   0  0  0  0  0  0  0  0  0  0  0  0
   -5.5459   -3.9851    0.5476 C   0  0  0  0  0  0  0  0  0  0  0  0
   -5.5717   -2.6090    1.2040 C   0  0  0  0  0  0  0  0  0  0  0  0
   -4.2114   -1.9256    1.1114 C   0  0  0  0  0  0  0  0  0  0  0  0
   -2.7536    5.0844    0.1939 N   0  0  0  0  0  0  0  0  0  0  0  0
   -0.5290    4.8302    0.0119 O   0  0  0  0  0  0  0  0  0  0  0  0
    4.6657   -0.5513    0.0378 C   0  0  0  0  0  0  0  0  0  0  0  0
    5.3498   -1.7526    0.1017 C   0  0  0  0  0  0  0  0  0  0  0  0
    6.6576   -1.4621    0.1670 N   0  0  0  0  0  0  0  0  0  0  0  0
    6.8873   -0.1536    0.1497 N   0  0  0  0  0  0  0  0  0  0  0  0
    5.6978    0.4098    0.0732 C   0  0  0  0  0  0  0  0  0  0  0  0
    7.7586   -2.3914    0.2471 C   0  0  0  0  0  0  0  0  0  0  0  0
    0.9673    3.2174    0.0979 H   0  0  0  0  0  0  0  0  0  0  0  0
   -3.9683    2.8146   -0.2858 H   0  0  0  0  0  0  0  0  0  0  0  0
    0.3482   -2.1194   -0.4125 H   0  0  0  0  0  0  0  0  0  0  0  0
    2.7375   -2.4232   -0.2866 H   0  0  0  0  0  0  0  0  0  0  0  0
    3.3483    1.8144    0.1646 H   0  0  0  0  0  0  0  0  0  0  0  0
   -1.6436   -1.8367   -0.2530 H   0  0  0  0  0  0  0  0  0  0  0  0
   -4.4298   -1.1964   -0.8937 H   0  0  0  0  0  0  0  0  0  0  0  0
   -3.4024   -3.1098   -2.0407 H   0  0  0  0  0  0  0  0  0  0  0  0
   -2.9472   -3.8277   -0.5016 H   0  0  0  0  0  0  0  0  0  0  0  0
   -5.7958   -3.3330   -1.4878 H   0  0  0  0  0  0  0  0  0  0  0  0
   -5.0043   -4.8896   -1.3425 H   0  0  0  0  0  0  0  0  0  0  0  0
   -6.5374   -4.4423    0.5848 H   0  0  0  0  0  0  0  0  0  0  0  0
   -4.8769   -4.6437    1.1119 H   0  0  0  0  0  0  0  0  0  0  0  0
   -6.3261   -1.9855    0.7118 H   0  0  0  0  0  0  0  0  0  0  0  0
   -5.8750   -2.6915    2.2502 H   0  0  0  0  0  0  0  0  0  0  0  0
   -3.4743   -2.4954    1.6886 H   0  0  0  0  0  0  0  0  0  0  0  0
   -4.2569   -0.9255    1.5483 H   0  0  0  0  0  0  0  0  0  0  0  0
   -3.6736    4.7048    0.3279 H   0  0  0  0  0  0  0  0  0  0  0  0
   -2.6552    6.0806    0.2986 H   0  0  0  0  0  0  0  0  0  0  0  0
    5.0022   -2.7731    0.1094 H   0  0  0  0  0  0  0  0  0  0  0  0
    5.6154    1.4861    0.0405 H   0  0  0  0  0  0  0  0  0  0  0  0
    8.4164   -2.2747   -0.6116 H   0  0  0  0  0  0  0  0  0  0  0  0
    8.3277   -2.2273    1.1598 H   0  0  0  0  0  0  0  0  0  0  0  0
    7.3654   -3.4036    0.2550 H   0  0  0  0  0  0  0  0  0  0  0  0
  2  1  2  0
  5  1  1  0
  1 10  1  0
  3  2  1  0
 13  2  1  0
  3  4  1  0
  3 30  1  0
  6  4  2  0
  4  5  1  0
  5  9  2  0
 14  6  1  0
  6  7  1  0
  7  8  2  0
  7 31  1  0
  8  9  1  0
  9 15  1  0
 10 11  2  0
 10 32  1  0
 12 11  1  0
 11 33  1  0
 13 12  2  0
 12 24  1  0
 13 34  1  0
 22 14  1  0
 14 23  2  0
 15 16  1  0
 15 35  1  0
 21 16  1  0
 16 17  1  0
 16 36  1  6
 17 18  1  0
 17 37  1  0
 17 38  1  0
 19 18  1  0
 18 39  1  0
 18 40  1  0
 20 19  1  0
 19 41  1  0
 19 42  1  0
 21 20  1  0
 20 43  1  0
 20 44  1  0
 21 45  1  0
 21 46  1  0
 22 47  1  0
 22 48  1  0
 28 24  1  0
 24 25  2  0
 26 25  1  0
 25 49  1  0
 27 26  1  0
 26 29  1  0
 28 27  2  0
 28 50  1  0
 29 51  1  0
 29 52  1  0
 29 53  1  0
M  END
