
     RDKit          3D

146153  0  0  0  0  0  0  0  0999 V2000
    9.1109   10.1416   -0.2802 C   0  0  0  0  0  0  0  0  0  0  0  0
   10.8867   -8.7587    0.0441 C   0  0  0  0  0  0  0  0  0  0  0  0
   -9.2409   -9.1004    0.8167 C   0  0  0  0  0  0  0  0  0  0  0  0
    0.4729    3.9941    1.0310 O   0  0  0  0  0  0  0  0  0  0  0  0
   -3.9901   -1.1058   -0.8675 O   0  0  0  0  0  0  0  0  0  0  0  0
    3.9092    1.0763    0.8929 O   0  0  0  0  0  0  0  0  0  0  0  0
    1.3088   -2.1100   -0.2441 C   0  0  0  0  0  0  0  0  0  0  0  0
   -1.3940    2.0727    0.2996 C   0  0  0  0  0  0  0  0  0  0  0  0
   -5.6518    2.8108   -0.2788 C   0  0  0  0  0  0  0  0  0  0  0  0
    5.6002   -2.7809    0.2071 C   0  0  0  0  0  0  0  0  0  0  0  0
   -6.2551    4.1727    0.0378 C   0  0  0  0  0  0  0  0  0  0  0  0
    6.2264   -4.1527   -0.0034 C   0  0  0  0  0  0  0  0  0  0  0  0
   -4.7094   -5.4661   -0.6980 C   0  0  0  0  0  0  0  0  0  0  0  0
    4.6344    5.4163    0.6078 C   0  0  0  0  0  0  0  0  0  0  0  0
   -3.7996   -4.3398   -0.2237 C   0  0  0  0  0  0  0  0  0  0  0  0
    3.6909    4.2931    0.1961 C   0  0  0  0  0  0  0  0  0  0  0  0
   -4.1654    2.7720    0.0356 C   0  0  0  0  0  0  0  0  0  0  0  0
    4.0911   -2.8035    0.0302 C   0  0  0  0  0  0  0  0  0  0  0  0
   -7.7319    4.2352   -0.3283 C   0  0  0  0  0  0  0  0  0  0  0  0
    7.7407   -4.0993    0.1500 C   0  0  0  0  0  0  0  0  0  0  0  0
   -5.3154   -6.2258    0.4753 C   0  0  0  0  0  0  0  0  0  0  0  0
    5.1750    6.1445   -0.6153 C   0  0  0  0  0  0  0  0  0  0  0  0
   -8.5933    7.8602    0.1513 C   0  0  0  0  0  0  0  0  0  0  0  0
  -10.5274    6.5498    0.5736 C   0  0  0  0  0  0  0  0  0  0  0  0
   10.4548   -6.5272   -0.7140 C   0  0  0  0  0  0  0  0  0  0  0  0
    8.8284   -7.6649    0.5905 C   0  0  0  0  0  0  0  0  0  0  0  0
   -7.8376   -8.5360   -1.0827 C   0  0  0  0  0  0  0  0  0  0  0  0
   -6.8697   -9.6153    0.7932 C   0  0  0  0  0  0  0  0  0  0  0  0
    8.1115    8.1484    0.5918 C   0  0  0  0  0  0  0  0  0  0  0  0
    7.0110    9.3615   -1.1255 C   0  0  0  0  0  0  0  0  0  0  0  0
   -7.9000    6.6484   -0.4423 C   0  0  0  0  0  0  0  0  0  0  0  0
   -9.8350    5.3401   -0.0239 C   0  0  0  0  0  0  0  0  0  0  0  0
    9.8145   -5.2011   -0.3513 C   0  0  0  0  0  0  0  0  0  0  0  0
    8.1838   -6.3374    0.9432 C   0  0  0  0  0  0  0  0  0  0  0  0
   -7.2180   -7.2111   -0.6486 C   0  0  0  0  0  0  0  0  0  0  0  0
   -6.2536   -8.2954    1.2414 C   0  0  0  0  0  0  0  0  0  0  0  0
    7.2923    6.9183    0.2490 C   0  0  0  0  0  0  0  0  0  0  0  0
    6.1955    8.1309   -1.4700 C   0  0  0  0  0  0  0  0  0  0  0  0
   -3.1861   -3.5941   -1.4001 C   0  0  0  0  0  0  0  0  0  0  0  0
    3.1105    3.5699    1.4030 C   0  0  0  0  0  0  0  0  0  0  0  0
   -3.6357    1.4525   -0.2266 N   0  0  0  0  0  0  0  0  0  0  0  0
    3.5572   -1.4757    0.2385 N   0  0  0  0  0  0  0  0  0  0  0  0
   -2.3506    1.0959   -0.0915 C   0  0  0  0  0  0  0  0  0  0  0  0
    2.2677   -1.1288    0.1297 C   0  0  0  0  0  0  0  0  0  0  0  0
   -0.9388   -2.8917   -0.7937 C   0  0  0  0  0  0  0  0  0  0  0  0
    0.8529    2.8548    0.8498 C   0  0  0  0  0  0  0  0  0  0  0  0
   -2.7855   -1.2774   -0.7325 C   0  0  0  0  0  0  0  0  0  0  0  0
    2.7031    1.2456    0.7667 C   0  0  0  0  0  0  0  0  0  0  0  0
   -0.0164   -1.8118   -0.3904 C   0  0  0  0  0  0  0  0  0  0  0  0
   -0.0687    1.7747    0.4456 C   0  0  0  0  0  0  0  0  0  0  0  0
   -1.8773   -0.2148   -0.3259 C   0  0  0  0  0  0  0  0  0  0  0  0
    1.7937    0.1811    0.3687 C   0  0  0  0  0  0  0  0  0  0  0  0
   -0.5064   -0.5070   -0.1687 C   0  0  0  0  0  0  0  0  0  0  0  0
    0.4221    0.4717    0.2169 C   0  0  0  0  0  0  0  0  0  0  0  0
  -10.0282    7.7720   -0.0220 N   0  0  0  0  0  0  0  0  0  0  0  0
   10.2452   -7.4995    0.3389 N   0  0  0  0  0  0  0  0  0  0  0  0
   -8.0863   -9.4532    0.0163 N   0  0  0  0  0  0  0  0  0  0  0  0
    8.2975    8.9853   -0.5758 N   0  0  0  0  0  0  0  0  0  0  0  0
   -8.3991    5.4268    0.1601 N   0  0  0  0  0  0  0  0  0  0  0  0
    8.3930   -5.3670   -0.1149 N   0  0  0  0  0  0  0  0  0  0  0  0
   -5.9881   -7.4508    0.0886 N   0  0  0  0  0  0  0  0  0  0  0  0
    6.0027    7.2936   -0.3007 N   0  0  0  0  0  0  0  0  0  0  0  0
   -2.2583   -2.5402   -0.9812 N   0  0  0  0  0  0  0  0  0  0  0  0
    2.1763    2.5084    1.0175 N   0  0  0  0  0  0  0  0  0  0  0  0
    8.6615   10.8062    0.4749 H   0  0  0  0  0  0  0  0  0  0  0  0
   10.0878    9.8288    0.0918 H   0  0  0  0  0  0  0  0  0  0  0  0
    9.2711   10.7288   -1.1861 H   0  0  0  0  0  0  0  0  0  0  0  0
  -10.5687    9.0694    1.5839 H   0  0  0  0  0  0  0  0  0  0  0  0
  -10.3354    9.8373    0.0052 H   0  0  0  0  0  0  0  0  0  0  0  0
  -11.7762    8.8648    0.3060 H   0  0  0  0  0  0  0  0  0  0  0  0
   11.9581   -8.6094   -0.0993 H   0  0  0  0  0  0  0  0  0  0  0  0
   10.7542   -9.4502    0.8775 H   0  0  0  0  0  0  0  0  0  0  0  0
   10.4928   -9.2463   -0.8620 H   0  0  0  0  0  0  0  0  0  0  0  0
   -9.1845   -8.1290    1.3262 H   0  0  0  0  0  0  0  0  0  0  0  0
  -10.1310   -9.0826    0.1851 H   0  0  0  0  0  0  0  0  0  0  0  0
   -9.3966   -9.8606    1.5843 H   0  0  0  0  0  0  0  0  0  0  0  0
    1.6343   -3.1243   -0.4260 H   0  0  0  0  0  0  0  0  0  0  0  0
   -1.7205    3.0850    0.4925 H   0  0  0  0  0  0  0  0  0  0  0  0
   -6.1662    2.0369    0.2992 H   0  0  0  0  0  0  0  0  0  0  0  0
   -5.8032    2.5713   -1.3359 H   0  0  0  0  0  0  0  0  0  0  0  0
    5.8389   -2.4160    1.2112 H   0  0  0  0  0  0  0  0  0  0  0  0
    6.0333   -2.0664   -0.4999 H   0  0  0  0  0  0  0  0  0  0  0  0
   -6.1439    4.3889    1.1047 H   0  0  0  0  0  0  0  0  0  0  0  0
   -5.6937    4.9413   -0.4999 H   0  0  0  0  0  0  0  0  0  0  0  0
    5.7873   -4.8598    0.7058 H   0  0  0  0  0  0  0  0  0  0  0  0
    5.9871   -4.5237   -1.0043 H   0  0  0  0  0  0  0  0  0  0  0  0
   -5.4930   -5.0513   -1.3381 H   0  0  0  0  0  0  0  0  0  0  0  0
   -4.1391   -6.1687   -1.3134 H   0  0  0  0  0  0  0  0  0  0  0  0
    4.1079    6.1330    1.2452 H   0  0  0  0  0  0  0  0  0  0  0  0
    5.4506    5.0027    1.2069 H   0  0  0  0  0  0  0  0  0  0  0  0
   -4.3623   -3.6418    0.4018 H   0  0  0  0  0  0  0  0  0  0  0  0
   -3.0045   -4.7554    0.4011 H   0  0  0  0  0  0  0  0  0  0  0  0
    2.8774    4.7056   -0.4068 H   0  0  0  0  0  0  0  0  0  0  0  0
    4.2231    3.5793   -0.4382 H   0  0  0  0  0  0  0  0  0  0  0  0
   -3.6477    3.5186   -0.5752 H   0  0  0  0  0  0  0  0  0  0  0  0
   -4.0052    3.0517    1.0831 H   0  0  0  0  0  0  0  0  0  0  0  0
    3.8465   -3.1620   -0.9752 H   0  0  0  0  0  0  0  0  0  0  0  0
    3.6479   -3.5129    0.7377 H   0  0  0  0  0  0  0  0  0  0  0  0
   -7.8411    4.1262   -1.4222 H   0  0  0  0  0  0  0  0  0  0  0  0
   -8.2359    3.3716    0.1169 H   0  0  0  0  0  0  0  0  0  0  0  0
    8.1296   -3.3690   -0.5661 H   0  0  0  0  0  0  0  0  0  0  0  0
    7.9979   -3.7118    1.1517 H   0  0  0  0  0  0  0  0  0  0  0  0
   -4.5059   -6.4979    1.1598 H   0  0  0  0  0  0  0  0  0  0  0  0
   -5.9840   -5.5543    1.0430 H   0  0  0  0  0  0  0  0  0  0  0  0
    5.7110    5.4263   -1.2615 H   0  0  0  0  0  0  0  0  0  0  0  0
    4.3232    6.5019   -1.2019 H   0  0  0  0  0  0  0  0  0  0  0  0
   -8.3166    7.9462    1.2174 H   0  0  0  0  0  0  0  0  0  0  0  0
   -8.2260    8.7607   -0.3470 H   0  0  0  0  0  0  0  0  0  0  0  0
  -11.6026    6.4752    0.3917 H   0  0  0  0  0  0  0  0  0  0  0  0
  -10.3848    6.5421    1.6690 H   0  0  0  0  0  0  0  0  0  0  0  0
   10.0446   -6.8749   -1.6789 H   0  0  0  0  0  0  0  0  0  0  0  0
   11.5281   -6.3795   -0.8570 H   0  0  0  0  0  0  0  0  0  0  0  0
    8.6921   -8.3606    1.4224 H   0  0  0  0  0  0  0  0  0  0  0  0
    8.3072   -8.0981   -0.2818 H   0  0  0  0  0  0  0  0  0  0  0  0
   -8.7726   -8.3503   -1.6163 H   0  0  0  0  0  0  0  0  0  0  0  0
   -7.1542   -9.0223   -1.7872 H   0  0  0  0  0  0  0  0  0  0  0  0
   -6.1365  -10.1446    0.1751 H   0  0  0  0  0  0  0  0  0  0  0  0
   -7.0763  -10.2453    1.6613 H   0  0  0  0  0  0  0  0  0  0  0  0
    7.6147    8.6986    1.4107 H   0  0  0  0  0  0  0  0  0  0  0  0
    9.0882    7.8313    0.9651 H   0  0  0  0  0  0  0  0  0  0  0  0
    7.1654    9.9527   -2.0317 H   0  0  0  0  0  0  0  0  0  0  0  0
    6.4362    9.9895   -0.4215 H   0  0  0  0  0  0  0  0  0  0  0  0
   -8.0402    6.6474   -1.5379 H   0  0  0  0  0  0  0  0  0  0  0  0
   -6.8288    6.7427   -0.2577 H   0  0  0  0  0  0  0  0  0  0  0  0
  -10.2057    4.4387    0.4699 H   0  0  0  0  0  0  0  0  0  0  0  0
  -10.1059    5.2585   -1.0913 H   0  0  0  0  0  0  0  0  0  0  0  0
   10.3314   -4.7796    0.5287 H   0  0  0  0  0  0  0  0  0  0  0  0
    9.9592   -4.4986   -1.1754 H   0  0  0  0  0  0  0  0  0  0  0  0
    7.1150   -6.5005    1.0902 H   0  0  0  0  0  0  0  0  0  0  0  0
    8.5912   -5.9778    1.9047 H   0  0  0  0  0  0  0  0  0  0  0  0
   -7.0058   -6.6175   -1.5398 H   0  0  0  0  0  0  0  0  0  0  0  0
   -7.9386   -6.6311   -0.0435 H   0  0  0  0  0  0  0  0  0  0  0  0
   -6.9168   -7.7937    1.9688 H   0  0  0  0  0  0  0  0  0  0  0  0
   -5.3127   -8.4982    1.7593 H   0  0  0  0  0  0  0  0  0  0  0  0
    7.8621    6.2904   -0.4589 H   0  0  0  0  0  0  0  0  0  0  0  0
    7.1523    6.3304    1.1579 H   0  0  0  0  0  0  0  0  0  0  0  0
    5.2198    8.4468   -1.8467 H   0  0  0  0  0  0  0  0  0  0  0  0
    6.6963    7.5813   -2.2862 H   0  0  0  0  0  0  0  0  0  0  0  0
   -2.6401   -4.2836   -2.0403 H   0  0  0  0  0  0  0  0  0  0  0  0
   -3.9618   -3.1366   -2.0092 H   0  0  0  0  0  0  0  0  0  0  0  0
    3.9012    3.1234    2.0008 H   0  0  0  0  0  0  0  0  0  0  0  0
    2.5773    4.2679    2.0444 H   0  0  0  0  0  0  0  0  0  0  0  0
   -4.2795    0.7109   -0.4624 H   0  0  0  0  0  0  0  0  0  0  0  0
    4.1914   -0.7384    0.5114 H   0  0  0  0  0  0  0  0  0  0  0  0
   -0.5622   -4.0339   -0.9626 O   0  0  0  0  0  0  0  0  0  0  0  0
  -10.7045    8.9366    0.4987 C   0  0  0  0  0  0  0  0  0  0  0  0
 58  1  1  0
  1 65  1  0
  1 66  1  0
  1 67  1  0
 55146  1  0
146 68  1  0
146 69  1  0
146 70  1  0
  2 56  1  0
  2 71  1  0
  2 72  1  0
  2 73  1  0
 57  3  1  0
  3 74  1  0
  3 75  1  0
  3 76  1  0
145 45  2  0
 46  4  2  0
 47  5  2  0
  6 48  2  0
  7 49  2  0
  7 44  1  0
  7 77  1  0
 43  8  2  0
 50  8  1  0
  8 78  1  0
  9 17  1  0
  9 11  1  0
  9 79  1  0
  9 80  1  0
 12 10  1  0
 10 18  1  0
 10 81  1  0
 10 82  1  0
 19 11  1  0
 11 83  1  0
 11 84  1  0
 20 12  1  0
 12 85  1  0
 12 86  1  0
 21 13  1  0
 13 15  1  0
 13 87  1  0
 13 88  1  0
 16 14  1  0
 14 22  1  0
 14 89  1  0
 14 90  1  0
 15 39  1  0
 15 91  1  0
 15 92  1  0
 40 16  1  0
 16 93  1  0
 16 94  1  0
 41 17  1  0
 17 95  1  0
 17 96  1  0
 18 42  1  0
 18 97  1  0
 18 98  1  0
 19 59  1  0
 19 99  1  0
 19100  1  0
 60 20  1  0
 20101  1  0
 20102  1  0
 61 21  1  0
 21103  1  0
 21104  1  0
 22 62  1  0
 22105  1  0
 22106  1  0
 31 23  1  0
 55 23  1  0
 23107  1  0
 23108  1  0
 32 24  1  0
 24 55  1  0
 24109  1  0
 24110  1  0
 25 33  1  0
 25 56  1  0
 25111  1  0
 25112  1  0
 56 26  1  0
 26 34  1  0
 26113  1  0
 26114  1  0
 57 27  1  0
 35 27  1  0
 27115  1  0
 27116  1  0
 36 28  1  0
 28 57  1  0
 28117  1  0
 28118  1  0
 58 29  1  0
 37 29  1  0
 29119  1  0
 29120  1  0
 38 30  1  0
 30 58  1  0
 30121  1  0
 30122  1  0
 59 31  1  0
 31123  1  0
 31124  1  0
 32 59  1  0
 32125  1  0
 32126  1  0
 33 60  1  0
 33127  1  0
 33128  1  0
 60 34  1  0
 34129  1  0
 34130  1  0
 61 35  1  0
 35131  1  0
 35132  1  0
 36 61  1  0
 36133  1  0
 36134  1  0
 62 37  1  0
 37135  1  0
 37136  1  0
 38 62  1  0
 38137  1  0
 38138  1  0
 39 63  1  0
 39139  1  0
 39140  1  0
 64 40  1  0
 40141  1  0
 40142  1  0
 43 41  1  0
 41143  1  0
 42 44  1  0
 42144  1  0
 51 43  1  0
 44 52  2  0
 45 63  1  0
 45 49  1  0
 50 46  1  0
 64 46  1  0
 63 47  1  0
 47 51  1  0
 52 48  1  0
 48 64  1  0
 49 53  1  0
 54 50  2  0
 53 51  2  0
 52 54  1  0
 53 54  1  0
M  END
