
     RDKit          3D

 26 26  0  0  0  0  0  0  0  0999 V2000
   -0.7585   -0.9145   -0.0311 N   0  0  0  0  0  0  0  0  0  0  0  0
   -2.0515   -1.2645   -0.0563 C   0  0  0  0  0  0  0  0  0  0  0  0
   -2.3139   -2.5874   -0.1222 N   0  0  0  0  0  0  0  0  0  0  0  0
   -3.0866   -0.4315   -0.0523 N   0  0  0  0  0  0  0  0  0  0  0  0
   -2.8053    0.8741   -0.0290 C   0  0  0  0  0  0  0  0  0  0  0  0
   -3.9720    1.8084   -0.0172 C   0  0  0  0  0  0  0  0  0  0  0  0
   -0.5027    0.3735   -0.0084 C   0  0  0  0  0  0  0  0  0  0  0  0
   -1.5084    1.3463   -0.0113 C   0  0  0  0  0  0  0  0  0  0  0  0
    5.4852    0.3430   -0.0387 O   0  0  0  0  0  0  0  0  0  0  0  0
    4.2850   -0.3963   -0.0288 C   0  0  0  0  0  0  0  0  0  0  0  0
    3.1185    0.5739   -0.0020 C   0  0  0  0  0  0  0  0  0  0  0  0
    1.8033   -0.1773    0.0003 C   0  0  0  0  0  0  0  0  0  0  0  0
    0.7555    0.7916    0.0206 O   0  0  0  0  0  0  0  0  0  0  0  0
   -1.5757   -3.2313    0.1019 H   0  0  0  0  0  0  0  0  0  0  0  0
   -3.2506   -2.8958    0.0708 H   0  0  0  0  0  0  0  0  0  0  0  0
   -4.5879    1.6366    0.8664 H   0  0  0  0  0  0  0  0  0  0  0  0
   -3.6574    2.8497   -0.0180 H   0  0  0  0  0  0  0  0  0  0  0  0
   -4.6068    1.6387   -0.8874 H   0  0  0  0  0  0  0  0  0  0  0  0
   -1.2799    2.4020    0.0086 H   0  0  0  0  0  0  0  0  0  0  0  0
    6.2167   -0.2783   -0.0813 H   0  0  0  0  0  0  0  0  0  0  0  0
    4.2031   -1.0385   -0.9156 H   0  0  0  0  0  0  0  0  0  0  0  0
    4.2286   -1.0582    0.8454 H   0  0  0  0  0  0  0  0  0  0  0  0
    3.1869    1.2045    0.8885 H   0  0  0  0  0  0  0  0  0  0  0  0
    3.1686    1.2280   -0.8765 H   0  0  0  0  0  0  0  0  0  0  0  0
    1.7138   -0.8084   -0.8881 H   0  0  0  0  0  0  0  0  0  0  0  0
    1.7267   -0.8308    0.8736 H   0  0  0  0  0  0  0  0  0  0  0  0
  1  2  2  0
  1  7  1  0
  2  3  1  0
  2  4  1  0
  4  5  2  0
  5  6  1  0
  5  8  1  0
  7  8  2  0
  7 13  1  0
  9 10  1  0
 10 11  1  0
 11 12  1  0
 12 13  1  0
  3 14  1  0
  3 15  1  0
  6 16  1  0
  6 17  1  0
  6 18  1  0
  8 19  1  0
  9 20  1  0
 10 21  1  0
 10 22  1  0
 11 23  1  0
 11 24  1  0
 12 25  1  0
 12 26  1  0
M  END
