
     RDKit          3D

 27 27  0  0  0  0  0  0  0  0999 V2000
    3.3277   -1.3438    1.9497 O   0  0  0  0  0  0  0  0  0  0  0  0
    3.6331   -0.6060    1.0101 C   0  0  0  0  0  0  0  0  0  0  0  0
    2.8841   -0.3688   -0.2946 C   0  0  1  0  0  0  0  0  0  0  0  0
    2.6703   -1.6265   -0.9710 N   0  0  0  0  0  0  0  0  0  0  0  0
    1.6346    0.4471    0.0693 C   0  0  0  0  0  0  0  0  0  0  0  0
    0.6467    0.8066   -1.3459 S   0  0  0  0  0  0  0  0  0  0  0  0
   -1.0140   -0.5063   -1.2801 S   0  0  0  0  0  0  0  0  0  0  0  0
   -2.2738    0.2742   -0.4846 C   0  0  0  0  0  0  0  0  0  0  0  0
   -3.1224    1.1224   -1.2138 C   0  0  0  0  0  0  0  0  0  0  0  0
   -4.1737    1.7878   -0.6053 C   0  0  0  0  0  0  0  0  0  0  0  0
   -4.3979    1.6132    0.7667 C   0  0  0  0  0  0  0  0  0  0  0  0
   -3.5832    0.7858    1.5180 C   0  0  0  0  0  0  0  0  0  0  0  0
   -2.4986    0.0945    0.9090 C   0  0  0  0  0  0  0  0  0  0  0  0
   -1.6872   -0.7305    1.6610 N   0  0  0  0  0  0  0  0  0  0  0  0
    4.7852    0.1068    1.1165 O   0  0  0  0  0  0  0  0  0  0  0  0
    5.2137   -0.0880    1.9670 H   0  0  0  0  0  0  0  0  0  0  0  0
    3.5384    0.2640   -0.9692 H   0  0  0  0  0  0  0  0  0  0  0  0
    2.1591   -2.2666   -0.3957 H   0  0  0  0  0  0  0  0  0  0  0  0
    2.1789   -1.4711   -1.8315 H   0  0  0  0  0  0  0  0  0  0  0  0
    1.0428   -0.0795    0.8568 H   0  0  0  0  0  0  0  0  0  0  0  0
    1.9594    1.4350    0.4852 H   0  0  0  0  0  0  0  0  0  0  0  0
   -2.9361    1.2521   -2.2932 H   0  0  0  0  0  0  0  0  0  0  0  0
   -4.8290    2.4484   -1.1901 H   0  0  0  0  0  0  0  0  0  0  0  0
   -5.2339    2.1418    1.2526 H   0  0  0  0  0  0  0  0  0  0  0  0
   -3.7741    0.6605    2.5940 H   0  0  0  0  0  0  0  0  0  0  0  0
   -0.9878   -1.2817    1.2172 H   0  0  0  0  0  0  0  0  0  0  0  0
   -1.7965   -0.7783    2.6458 H   0  0  0  0  0  0  0  0  0  0  0  0
  1  2  2  0
  2 15  1  0
  2  3  1  0
  3  4  1  0
  3  5  1  0
  3 17  1  6
  4 18  1  0
  4 19  1  0
  5  6  1  0
  5 20  1  0
  5 21  1  0
  6  7  1  0
  7  8  1  0
  8  9  2  0
  8 13  1  0
  9 10  1  0
  9 22  1  0
 10 11  2  0
 10 23  1  0
 11 12  1  0
 11 24  1  0
 12 13  2  0
 12 25  1  0
 13 14  1  0
 14 26  1  0
 14 27  1  0
 15 16  1  0
M  END
