
     RDKit          3D

 12 11  0  0  0  0  0  0  0  0999 V2000
    1.9179   -0.0405    0.1032 C   0  0  0  0  0  0  0  0  0  0  0  0
    0.6690    0.6149   -0.2132 N   0  0  0  0  0  0  0  0  0  0  0  0
   -0.5560    0.0378   -0.0088 C   0  0  0  0  0  0  0  0  0  0  0  0
   -0.5501   -1.3374    0.0331 N   0  0  0  0  0  0  0  0  0  0  0  0
   -1.5861    0.7887    0.1511 N   0  0  0  0  0  0  0  0  0  0  0  0
    1.9755   -0.4008    1.1343 H   0  0  0  0  0  0  0  0  0  0  0  0
    2.1171   -0.8817   -0.5624 H   0  0  0  0  0  0  0  0  0  0  0  0
    2.7229    0.6741   -0.0492 H   0  0  0  0  0  0  0  0  0  0  0  0
    0.6550    1.6103   -0.0641 H   0  0  0  0  0  0  0  0  0  0  0  0
   -1.4535   -1.7712   -0.0671 H   0  0  0  0  0  0  0  0  0  0  0  0
    0.1542   -1.8149   -0.5070 H   0  0  0  0  0  0  0  0  0  0  0  0
   -2.4298    0.2310    0.2074 H   0  0  0  0  0  0  0  0  0  0  0  0
  1  2  1  0
  1  6  1  0
  1  7  1  0
  1  8  1  0
  2  3  1  0
  2  9  1  0
  3  4  1  0
  3  5  2  0
  4 10  1  0
  4 11  1  0
  5 12  1  0
M  END
