
     RDKit          3D

 30 30  0  0  0  0  0  0  0  0999 V2000
    0.3594   -1.3656   -1.4970 N   0  0  0  0  0  0  0  0  0  0  0  0
   -1.0549   -1.5712   -1.1765 C   0  0  0  0  0  0  0  0  0  0  0  0
   -3.6763   -0.3974   -0.3573 C   0  0  0  0  0  0  0  0  0  0  0  0
   -2.7533    0.3593    1.8067 C   0  0  0  0  0  0  0  0  0  0  0  0
    1.0171   -0.6759   -0.4128 C   0  0  1  0  0  0  0  0  0  0  0  0
   -0.1163    0.1512    0.2186 C   0  0  1  0  0  0  0  0  0  0  0  0
   -0.4111    1.4003   -0.6000 C   0  0  0  0  0  0  0  0  0  0  0  0
   -1.2724   -0.8705    0.1672 C   0  0  1  0  0  0  0  0  0  0  0  0
    0.6017    2.4963   -0.4103 C   0  0  0  0  0  0  0  0  0  0  0  0
   -2.6320   -0.3013    0.4633 C   0  0  0  0  0  0  0  0  0  0  0  0
    1.6444   -1.6080    0.6116 C   0  0  0  0  0  0  0  0  0  0  0  0
    1.5075   -2.8061    0.6247 O   0  0  0  0  0  0  0  0  0  0  0  0
    0.3888    3.5095   -1.2445 O   0  0  0  0  0  0  0  0  0  0  0  0
    1.4910    2.4919    0.4040 O   0  0  0  0  0  0  0  0  0  0  0  0
    2.3826   -0.9457    1.4926 O   0  0  0  0  0  0  0  0  0  0  0  0
    0.8277   -2.2213   -1.7555 H   0  0  0  0  0  0  0  0  0  0  0  0
   -1.6776   -1.1341   -1.9624 H   0  0  0  0  0  0  0  0  0  0  0  0
   -1.3185   -2.6290   -1.1121 H   0  0  0  0  0  0  0  0  0  0  0  0
   -4.6410    0.0101   -0.0804 H   0  0  0  0  0  0  0  0  0  0  0  0
   -3.6230   -0.8840   -1.3221 H   0  0  0  0  0  0  0  0  0  0  0  0
   -2.4925   -0.3393    2.6058 H   0  0  0  0  0  0  0  0  0  0  0  0
   -2.0700    1.2067    1.9009 H   0  0  0  0  0  0  0  0  0  0  0  0
   -3.7640    0.7210    1.9895 H   0  0  0  0  0  0  0  0  0  0  0  0
    1.8201   -0.0309   -0.7869 H   0  0  0  0  0  0  0  0  0  0  0  0
    0.1153    0.4369    1.2448 H   0  0  0  0  0  0  0  0  0  0  0  0
   -0.4880    1.1689   -1.6659 H   0  0  0  0  0  0  0  0  0  0  0  0
   -1.3865    1.8157   -0.3243 H   0  0  0  0  0  0  0  0  0  0  0  0
   -1.0731   -1.5993    0.9635 H   0  0  0  0  0  0  0  0  0  0  0  0
    1.0332    4.2140   -1.0789 H   0  0  0  0  0  0  0  0  0  0  0  0
    2.7705   -1.5611    2.1329 H   0  0  0  0  0  0  0  0  0  0  0  0
  1  2  1  0
  1  5  1  0
  1 16  1  0
  2  8  1  0
  2 17  1  0
  2 18  1  0
  3 10  2  0
  3 19  1  0
  3 20  1  0
  4 10  1  0
  4 21  1  0
  4 22  1  0
  4 23  1  0
  5  6  1  0
  5 11  1  0
  5 24  1  6
  6  7  1  0
  6  8  1  0
  6 25  1  1
  7  9  1  0
  7 26  1  0
  7 27  1  0
  8 10  1  0
  8 28  1  1
  9 13  1  0
  9 14  2  0
 11 12  2  0
 11 15  1  0
 13 29  1  0
 15 30  1  0
M  END
