
     RDKit          3D

 20 21  0  0  0  0  0  0  0  0999 V2000
   -1.4103    2.6075    0.0062 C   0  0  0  0  0  0  0  0  0  0  0  0
   -1.0849    1.2059    0.0095 N   0  0  0  0  0  0  0  0  0  0  0  0
   -1.9907    0.1686    0.0011 C   0  0  0  0  0  0  0  0  0  0  0  0
    0.1732    0.6872   -0.0202 C   0  0  0  0  0  0  0  0  0  0  0  0
    1.4106    1.3312   -0.0446 C   0  0  0  0  0  0  0  0  0  0  0  0
    2.5437    0.5416   -0.0652 C   0  0  0  0  0  0  0  0  0  0  0  0
    2.4594   -0.8599   -0.0534 C   0  0  0  0  0  0  0  0  0  0  0  0
    1.2362   -1.4963   -0.0287 C   0  0  0  0  0  0  0  0  0  0  0  0
    0.0723   -0.7224   -0.0209 C   0  0  0  0  0  0  0  0  0  0  0  0
   -1.3238   -1.0199   -0.0091 C   0  0  0  0  0  0  0  0  0  0  0  0
   -1.9077   -2.2430    0.0333 O   0  0  0  0  0  0  0  0  0  0  0  0
   -1.0920    3.0917   -0.9177 H   0  0  0  0  0  0  0  0  0  0  0  0
   -2.4862    2.7266    0.0976 H   0  0  0  0  0  0  0  0  0  0  0  0
   -0.9440    3.1220    0.8467 H   0  0  0  0  0  0  0  0  0  0  0  0
   -3.0524    0.3559    0.0172 H   0  0  0  0  0  0  0  0  0  0  0  0
    1.4909    2.4107   -0.0511 H   0  0  0  0  0  0  0  0  0  0  0  0
    3.5170    1.0141   -0.0862 H   0  0  0  0  0  0  0  0  0  0  0  0
    3.3688   -1.4457   -0.0595 H   0  0  0  0  0  0  0  0  0  0  0  0
    1.1860   -2.5780   -0.0083 H   0  0  0  0  0  0  0  0  0  0  0  0
   -1.4387   -2.8396   -0.5552 H   0  0  0  0  0  0  0  0  0  0  0  0
  3 10  2  0
  3  2  1  0
 11 10  1  0
  1  2  1  0
 10  9  1  0
  2  4  1  0
  9  4  2  0
  9  8  1  0
  4  5  1  0
  8  7  2  0
  5  6  2  0
  7  6  1  0
  1 12  1  0
  1 13  1  0
  1 14  1  0
  3 15  1  0
  5 16  1  0
  6 17  1  0
  7 18  1  0
  8 19  1  0
 11 20  1  0
M  END
