
     RDKit          3D

 34 35  0  0  0  0  0  0  0  0999 V2000
   -0.6140   -1.2103   -2.2150 O   0  0  0  0  0  0  0  0  0  0  0  0
   -1.1323   -1.1821   -0.9929 C   0  0  0  0  0  0  0  0  0  0  0  0
   -1.7232   -2.1143   -0.5061 O   0  0  0  0  0  0  0  0  0  0  0  0
   -0.8348    0.1198   -0.2773 C   0  0  1  0  0  0  0  0  0  0  0  0
   -1.9313    0.4927    0.7168 C   0  0  0  0  0  0  0  0  0  0  0  0
   -3.2793    0.7803    0.0671 C   0  0  0  0  0  0  0  0  0  0  0  0
   -4.3170    1.2639    1.0734 C   0  0  0  0  0  0  0  0  0  0  0  0
   -5.6704    1.5491    0.4378 C   0  0  0  0  0  0  0  0  0  0  0  0
    0.5119   -0.0500    0.3692 C   0  0  0  0  0  0  0  0  0  0  0  0
    1.7849    0.2640   -0.2083 C   0  0  0  0  0  0  0  0  0  0  0  0
    2.1881    0.8095   -1.4329 C   0  0  0  0  0  0  0  0  0  0  0  0
    3.5354    1.0015   -1.6665 C   0  0  0  0  0  0  0  0  0  0  0  0
    4.4961    0.6534   -0.7017 C   0  0  0  0  0  0  0  0  0  0  0  0
    4.1287    0.1095    0.5136 C   0  0  0  0  0  0  0  0  0  0  0  0
    2.7671   -0.0797    0.7468 C   0  0  0  0  0  0  0  0  0  0  0  0
    2.1163   -0.5827    1.8350 N   0  0  0  0  0  0  0  0  0  0  0  0
    0.7710   -0.5659    1.6093 C   0  0  0  0  0  0  0  0  0  0  0  0
   -0.7609   -2.0807   -2.6150 H   0  0  0  0  0  0  0  0  0  0  0  0
   -0.7580    0.9141   -1.0270 H   0  0  0  0  0  0  0  0  0  0  0  0
   -2.0437   -0.2944    1.4670 H   0  0  0  0  0  0  0  0  0  0  0  0
   -1.5959    1.3840    1.2528 H   0  0  0  0  0  0  0  0  0  0  0  0
   -3.1524    1.5374   -0.7147 H   0  0  0  0  0  0  0  0  0  0  0  0
   -3.6574   -0.1170   -0.4323 H   0  0  0  0  0  0  0  0  0  0  0  0
   -4.4317    0.5150    1.8630 H   0  0  0  0  0  0  0  0  0  0  0  0
   -3.9474    2.1689    1.5653 H   0  0  0  0  0  0  0  0  0  0  0  0
   -5.5856    2.3074   -0.3425 H   0  0  0  0  0  0  0  0  0  0  0  0
   -6.0905    0.6518   -0.0198 H   0  0  0  0  0  0  0  0  0  0  0  0
   -6.3884    1.9114    1.1746 H   0  0  0  0  0  0  0  0  0  0  0  0
    1.4579    1.0747   -2.1875 H   0  0  0  0  0  0  0  0  0  0  0  0
    3.8621    1.4243   -2.6076 H   0  0  0  0  0  0  0  0  0  0  0  0
    5.5447    0.8131   -0.9170 H   0  0  0  0  0  0  0  0  0  0  0  0
    4.8703   -0.1576    1.2559 H   0  0  0  0  0  0  0  0  0  0  0  0
    0.0892   -0.9240    2.3643 H   0  0  0  0  0  0  0  0  0  0  0  0
    2.5513   -0.9093    2.6812 H   0  0  0  0  0  0  0  0  0  0  0  0
  2  1  1  0
  1 18  1  0
  3  2  2  0
  4  2  1  0
  5  4  1  0
  4  9  1  0
  4 19  1  6
  6  5  1  0
  5 20  1  0
  5 21  1  0
  7  6  1  0
  6 22  1  0
  6 23  1  0
  8  7  1  0
  7 24  1  0
  7 25  1  0
  8 26  1  0
  8 27  1  0
  8 28  1  0
 17  9  2  0
  9 10  1  0
 15 10  2  0
 10 11  1  0
 11 12  2  0
 11 29  1  0
 13 12  1  0
 12 30  1  0
 14 13  2  0
 13 31  1  0
 15 14  1  0
 14 32  1  0
 16 15  1  0
 17 16  1  0
 17 33  1  0
 16 34  1  0
M  END
