
     RDKit          3D

 66 71  0  0  0  0  0  0  0  0999 V2000
   -2.8248    1.6522   -0.5953 C   0  0  0  0  0  0  0  0  0  0  0  0
   -3.9461    2.5020   -0.8436 C   0  0  0  0  0  0  0  0  0  0  0  0
   -3.8611    3.7964   -0.5941 N   0  0  0  0  0  0  0  0  0  0  0  0
   -0.7386    1.3537    0.1851 C   0  0  0  0  0  0  0  0  0  0  0  0
   -1.2268    0.1298   -0.2473 C   0  0  0  0  0  0  0  0  0  0  0  0
   -2.5285    0.3009   -0.7397 C   0  0  0  0  0  0  0  0  0  0  0  0
   -3.3774   -0.7291   -1.3238 C   0  0  0  0  0  0  0  0  0  0  0  0
    0.5744    1.6538    0.7562 C   0  0  0  0  0  0  0  0  0  0  0  0
   -1.6286    3.5858    0.2023 N   0  0  0  0  0  0  0  0  0  0  0  0
   -4.6116   -2.0349   -2.5968 C   0  0  0  0  0  0  0  0  0  0  0  0
   -1.7224    2.2639   -0.0366 N   0  0  0  0  0  0  0  0  0  0  0  0
   -2.6996    4.2508   -0.0966 C   0  0  0  0  0  0  0  0  0  0  0  0
   -5.0884    2.0117   -1.3139 N   0  0  0  0  0  0  0  0  0  0  0  0
   -3.7305   -1.8705   -0.6848 N   0  0  0  0  0  0  0  0  0  0  0  0
   -4.4700   -2.6673   -1.4476 N   0  0  0  0  0  0  0  0  0  0  0  0
   -3.9436   -0.8036   -2.5834 C   0  0  0  0  0  0  0  0  0  0  0  0
   -3.4008   -2.2727    0.6720 C   0  0  2  0  0  0  0  0  0  0  0  0
   -2.3983   -3.4217    0.6935 C   0  0  0  0  0  0  0  0  0  0  0  0
   -2.1175   -3.8229    2.1343 C   0  0  0  0  0  0  0  0  0  0  0  0
   -3.2981   -4.1597    2.8277 O   0  0  0  0  0  0  0  0  0  0  0  0
   -4.2163   -3.0898    2.8676 C   0  0  0  0  0  0  0  0  0  0  0  0
   -4.6405   -2.6506    1.4731 C   0  0  0  0  0  0  0  0  0  0  0  0
    0.7638    2.6127    1.7551 C   0  0  0  0  0  0  0  0  0  0  0  0
    2.0329    2.7933    2.2748 C   0  0  0  0  0  0  0  0  0  0  0  0
    3.1181    2.0559    1.8217 C   0  0  0  0  0  0  0  0  0  0  0  0
    2.9492    1.0806    0.8311 C   0  0  0  0  0  0  0  0  0  0  0  0
    1.6594    0.9014    0.3146 C   0  0  0  0  0  0  0  0  0  0  0  0
    4.0026    0.2870    0.3766 N   0  0  0  0  0  0  0  0  0  0  0  0
    5.2989    0.4580    1.0044 C   0  0  0  0  0  0  0  0  0  0  0  0
    6.2180   -0.7092    0.6824 C   0  0  0  0  0  0  0  0  0  0  0  0
    6.3154   -0.9171   -0.7467 N   0  0  0  0  0  0  0  0  0  0  0  0
    5.0201   -1.1062   -1.3629 C   0  0  0  0  0  0  0  0  0  0  0  0
    4.1129    0.0725   -1.0597 C   0  0  0  0  0  0  0  0  0  0  0  0
    7.5031   -0.8841   -1.3920 C   0  0  0  0  0  0  0  0  0  0  0  0
    7.4841   -1.0966   -2.8879 C   0  0  0  0  0  0  0  0  0  0  0  0
    8.5579   -0.6956   -0.7983 O   0  0  0  0  0  0  0  0  0  0  0  0
   -0.6819   -0.8009   -0.2041 H   0  0  0  0  0  0  0  0  0  0  0  0
   -5.1815   -2.4797   -3.3984 H   0  0  0  0  0  0  0  0  0  0  0  0
   -2.6389    5.3166    0.0871 H   0  0  0  0  0  0  0  0  0  0  0  0
   -5.2084    1.0389   -1.5397 H   0  0  0  0  0  0  0  0  0  0  0  0
   -5.8543    2.6389   -1.4952 H   0  0  0  0  0  0  0  0  0  0  0  0
   -3.8483   -0.0849   -3.3811 H   0  0  0  0  0  0  0  0  0  0  0  0
   -2.9425   -1.3984    1.1412 H   0  0  0  0  0  0  0  0  0  0  0  0
   -2.8002   -4.2735    0.1382 H   0  0  0  0  0  0  0  0  0  0  0  0
   -1.4620   -3.1281    0.2122 H   0  0  0  0  0  0  0  0  0  0  0  0
   -1.4648   -4.6961    2.1661 H   0  0  0  0  0  0  0  0  0  0  0  0
   -1.5931   -3.0027    2.6470 H   0  0  0  0  0  0  0  0  0  0  0  0
   -5.0818   -3.4317    3.4367 H   0  0  0  0  0  0  0  0  0  0  0  0
   -3.7849   -2.2337    3.4080 H   0  0  0  0  0  0  0  0  0  0  0  0
   -5.3226   -1.8010    1.5512 H   0  0  0  0  0  0  0  0  0  0  0  0
   -5.1761   -3.4619    0.9754 H   0  0  0  0  0  0  0  0  0  0  0  0
   -0.0619    3.2010    2.1255 H   0  0  0  0  0  0  0  0  0  0  0  0
    2.1899    3.5361    3.0464 H   0  0  0  0  0  0  0  0  0  0  0  0
    4.0915    2.2634    2.2422 H   0  0  0  0  0  0  0  0  0  0  0  0
    1.4878    0.1550   -0.4489 H   0  0  0  0  0  0  0  0  0  0  0  0
    5.7772    1.4007    0.6984 H   0  0  0  0  0  0  0  0  0  0  0  0
    5.1791    0.4861    2.0874 H   0  0  0  0  0  0  0  0  0  0  0  0
    7.2041   -0.5148    1.0950 H   0  0  0  0  0  0  0  0  0  0  0  0
    5.8305   -1.6190    1.1528 H   0  0  0  0  0  0  0  0  0  0  0  0
    5.1058   -1.2172   -2.4396 H   0  0  0  0  0  0  0  0  0  0  0  0
    4.5664   -2.0245   -0.9754 H   0  0  0  0  0  0  0  0  0  0  0  0
    3.1383   -0.1411   -1.4923 H   0  0  0  0  0  0  0  0  0  0  0  0
    4.5033    0.9709   -1.5609 H   0  0  0  0  0  0  0  0  0  0  0  0
    6.9218   -0.3140   -3.3989 H   0  0  0  0  0  0  0  0  0  0  0  0
    8.5053   -1.0807   -3.2592 H   0  0  0  0  0  0  0  0  0  0  0  0
    7.0343   -2.0525   -3.1575 H   0  0  0  0  0  0  0  0  0  0  0  0
 10 15  2  0
 10 16  1  0
 15 14  1  0
 16  7  2  0
 22 21  1  0
 22 17  1  0
 14  7  1  0
 14 17  1  0
  7  6  1  0
 21 20  1  0
 17 18  1  0
 20 19  1  0
  6  5  1  0
  6  1  2  0
  5  4  2  0
 18 19  1  0
 23 24  2  0
 23  8  1  0
 13  2  1  0
  1  2  1  0
  1 11  1  0
 24 25  1  0
  4  8  1  0
  4 11  1  0
  2  3  2  0
  8 27  2  0
 11  9  1  0
 25 26  2  0
  3 12  1  0
  9 12  2  0
 27 26  1  0
 26 28  1  0
 28 29  1  0
 28 33  1  0
 29 30  1  0
 33 32  1  0
 30 31  1  0
 32 31  1  0
 31 34  1  0
 34 36  2  0
 34 35  1  0
  5 37  1  0
 10 38  1  0
 12 39  1  0
 13 40  1  0
 13 41  1  0
 16 42  1  0
 17 43  1  1
 18 44  1  0
 18 45  1  0
 19 46  1  0
 19 47  1  0
 21 48  1  0
 21 49  1  0
 22 50  1  0
 22 51  1  0
 23 52  1  0
 24 53  1  0
 25 54  1  0
 27 55  1  0
 29 56  1  0
 29 57  1  0
 30 58  1  0
 30 59  1  0
 32 60  1  0
 32 61  1  0
 33 62  1  0
 33 63  1  0
 35 64  1  0
 35 65  1  0
 35 66  1  0
M  END
