
     RDKit          3D

 53 55  0  0  0  0  0  0  0  0999 V2000
   -6.7592    0.1693   -0.3102 C   0  0  0  0  0  0  0  0  0  0  0  0
   -4.4144   -0.1070    0.3861 C   0  0  0  0  0  0  0  0  0  0  0  0
   -3.0293    0.5080    0.2978 C   0  0  0  0  0  0  0  0  0  0  0  0
   -1.9527   -0.5653    0.3086 C   0  0  0  0  0  0  0  0  0  0  0  0
    0.7227   -1.0891    0.3175 C   0  0  0  0  0  0  0  0  0  0  0  0
    1.5293   -3.0351    0.5159 C   0  0  0  0  0  0  0  0  0  0  0  0
    0.7614    3.3927    1.0664 N   0  0  0  0  0  0  0  0  0  0  0  0
    0.2712    4.3402    1.5038 N   0  0  0  0  0  0  0  0  0  0  0  0
    2.6061   -2.2131    0.2429 C   0  0  0  0  0  0  0  0  0  0  0  0
    2.8437    0.2038   -0.2594 C   0  0  2  0  0  0  0  0  0  0  0  0
    2.6607    2.5040   -0.1754 C   0  0  1  0  0  0  0  0  0  0  0  0
    3.1714    2.1233   -1.5784 C   0  0  2  0  0  0  0  0  0  0  0  0
   -7.6473    1.3880   -0.5134 C   0  0  0  0  0  0  0  0  0  0  0  0
    1.3577    3.2743   -0.2780 C   0  0  0  0  0  0  0  0  0  0  0  0
    2.6466    0.6874   -1.6933 C   0  0  1  0  0  0  0  0  0  0  0  0
    1.8160   -4.3999    0.6928 C   0  0  0  0  0  0  0  0  0  0  0  0
    4.0277   -3.8818    0.3272 C   0  0  0  0  0  0  0  0  0  0  0  0
   -9.0394    0.9755   -0.5594 N   0  0  0  0  0  0  0  0  0  0  0  0
   -0.3746    5.1891    1.9805 N   0  0  0  0  0  0  0  0  0  0  0  0
   -5.3642    0.5519   -0.2911 N   0  0  0  0  0  0  0  0  0  0  0  0
    0.3635   -2.3136    0.5642 N   0  0  0  0  0  0  0  0  0  0  0  0
    0.8766   -5.3068    0.9687 N   0  0  0  0  0  0  0  0  0  0  0  0
    3.0926   -4.7888    0.5883 N   0  0  0  0  0  0  0  0  0  0  0  0
    3.8774   -2.5805    0.1384 N   0  0  0  0  0  0  0  0  0  0  0  0
    2.0783   -0.9538    0.1102 N   0  0  0  0  0  0  0  0  0  0  0  0
   -4.6330   -1.1085    1.0535 O   0  0  0  0  0  0  0  0  0  0  0  0
    2.4686    1.2929    0.5438 O   0  0  0  0  0  0  0  0  0  0  0  0
    4.5665    2.0836   -1.6370 O   0  0  0  0  0  0  0  0  0  0  0  0
    3.3241   -0.1491   -2.5681 O   0  0  0  0  0  0  0  0  0  0  0  0
   -0.3469    0.2824    0.2870 S   0  0  0  0  0  0  0  0  0  0  0  0
   -7.0021   -0.3121    0.6380 H   0  0  0  0  0  0  0  0  0  0  0  0
   -6.9528   -0.5589   -1.1036 H   0  0  0  0  0  0  0  0  0  0  0  0
   -2.9391    1.1345   -0.5918 H   0  0  0  0  0  0  0  0  0  0  0  0
   -2.9105    1.1707    1.1610 H   0  0  0  0  0  0  0  0  0  0  0  0
   -2.0145   -1.1784    1.2043 H   0  0  0  0  0  0  0  0  0  0  0  0
   -2.0262   -1.2116   -0.5651 H   0  0  0  0  0  0  0  0  0  0  0  0
    3.8926   -0.0710   -0.1018 H   0  0  0  0  0  0  0  0  0  0  0  0
    3.3923    3.1233    0.3507 H   0  0  0  0  0  0  0  0  0  0  0  0
    2.7487    2.7790   -2.3502 H   0  0  0  0  0  0  0  0  0  0  0  0
   -7.4220    2.1266    0.2682 H   0  0  0  0  0  0  0  0  0  0  0  0
   -7.3988    1.8575   -1.4691 H   0  0  0  0  0  0  0  0  0  0  0  0
    0.6032    2.7521   -0.8676 H   0  0  0  0  0  0  0  0  0  0  0  0
    1.5203    4.2675   -0.6946 H   0  0  0  0  0  0  0  0  0  0  0  0
    1.5710    0.7293   -1.9132 H   0  0  0  0  0  0  0  0  0  0  0  0
    5.0418   -4.2601    0.2595 H   0  0  0  0  0  0  0  0  0  0  0  0
   -9.3413    0.6997    0.3668 H   0  0  0  0  0  0  0  0  0  0  0  0
   -9.6163    1.7676   -0.8096 H   0  0  0  0  0  0  0  0  0  0  0  0
    0.1362    5.8799    2.5422 H   0  0  0  0  0  0  0  0  0  0  0  0
   -5.0846    1.3223   -0.8771 H   0  0  0  0  0  0  0  0  0  0  0  0
   -0.0964   -5.0569    0.9850 H   0  0  0  0  0  0  0  0  0  0  0  0
    1.1173   -6.2815    1.0206 H   0  0  0  0  0  0  0  0  0  0  0  0
    4.9020    2.9853   -1.6040 H   0  0  0  0  0  0  0  0  0  0  0  0
    3.0452    0.0472   -3.4680 H   0  0  0  0  0  0  0  0  0  0  0  0
 19  8  2  0
  8  7  2  0
 22 16  1  0
  7 14  1  0
 21  6  1  0
 21  5  2  0
 16  6  2  0
 16 23  1  0
  6  9  1  0
 30  5  1  0
 30  4  1  0
 23 17  2  0
  5 25  1  0
 27 10  1  0
 27 11  1  0
  9 25  1  0
  9 24  2  0
 25 10  1  0
 17 24  1  0
 26  2  2  0
 10 15  1  0
 14 11  1  0
 11 12  1  0
  3  4  1  0
  3  2  1  0
  2 20  1  0
 18 13  1  0
 15 12  1  0
 15 29  1  0
 12 28  1  0
 20  1  1  0
  1 13  1  0
  1 31  1  0
  1 32  1  0
  3 33  1  0
  3 34  1  0
  4 35  1  0
  4 36  1  0
 10 37  1  6
 11 38  1  1
 12 39  1  6
 13 40  1  0
 13 41  1  0
 14 42  1  0
 14 43  1  0
 15 44  1  6
 17 45  1  0
 18 46  1  0
 18 47  1  0
 19 48  1  0
 20 49  1  0
 22 50  1  0
 22 51  1  0
 28 52  1  0
 29 53  1  0
M  CHG  1   8   1
M  END
