
     RDKit          3D

 48 50  0  0  0  0  0  0  0  0999 V2000
    5.1877    1.0860   -0.5472 C   0  0  0  0  0  0  0  0  0  0  0  0
    1.5240   -0.9212   -1.0320 C   0  0  0  0  0  0  0  0  0  0  0  0
    0.4230   -0.1270   -1.3222 C   0  0  0  0  0  0  0  0  0  0  0  0
   -0.8410   -0.5347   -0.9351 C   0  0  0  0  0  0  0  0  0  0  0  0
   -0.9936   -1.7447   -0.2639 C   0  0  0  0  0  0  0  0  0  0  0  0
    0.1119   -2.5462    0.0150 C   0  0  0  0  0  0  0  0  0  0  0  0
    1.3713   -2.1357   -0.3711 C   0  0  0  0  0  0  0  0  0  0  0  0
   -3.2793   -1.3923    0.1803 C   0  0  0  0  0  0  0  0  0  0  0  0
   -4.3138   -1.5799   -0.7198 C   0  0  0  0  0  0  0  0  0  0  0  0
   -5.4386   -0.7726   -0.6404 C   0  0  0  0  0  0  0  0  0  0  0  0
   -5.5155    0.2216    0.3259 C   0  0  0  0  0  0  0  0  0  0  0  0
   -4.4697    0.3976    1.2271 C   0  0  0  0  0  0  0  0  0  0  0  0
   -3.3479   -0.4089    1.1573 C   0  0  0  0  0  0  0  0  0  0  0  0
   -6.7383    1.0753    0.4423 C   0  0  1  0  0  0  0  0  0  0  0  0
    4.8454   -2.1615    2.1255 O   0  0  0  0  0  0  0  0  0  0  0  0
    4.8582   -1.1823    1.1790 N   0  0  0  0  0  0  0  0  0  0  0  0
    3.8080   -0.3433    1.1109 C   0  0  0  0  0  0  0  0  0  0  0  0
    2.9396   -0.2906    1.9567 O   0  0  0  0  0  0  0  0  0  0  0  0
    3.7989    0.5850   -0.1177 C   0  0  1  0  0  0  0  0  0  0  0  0
    2.9062    1.8016    0.1304 C   0  0  0  0  0  0  0  0  0  0  0  0
    3.5777    2.7711    1.0970 C   0  0  0  0  0  0  0  0  0  0  0  0
    4.8480    3.1747    0.6414 O   0  0  0  0  0  0  0  0  0  0  0  0
    5.7184    2.0832    0.4756 C   0  0  0  0  0  0  0  0  0  0  0  0
    3.1293   -0.3934   -1.5288 S   0  0  1  0  0  0  0  0  0  0  0  0
    3.9830   -1.5716   -1.6775 O   0  0  0  0  0  0  0  0  0  0  0  0
    2.9842    0.5155   -2.6631 O   0  0  0  0  0  0  0  0  0  0  0  0
   -2.1957   -2.2304    0.1231 O   0  0  0  0  0  0  0  0  0  0  0  0
   -7.5834    0.6066    1.3738 F   0  0  0  0  0  0  0  0  0  0  0  0
   -6.4405    2.3316    0.7956 F   0  0  0  0  0  0  0  0  0  0  0  0
   -7.4255    1.1412   -0.7025 F   0  0  0  0  0  0  0  0  0  0  0  0
    5.9183    0.2881   -0.6790 H   0  0  0  0  0  0  0  0  0  0  0  0
    5.1008    1.5887   -1.5128 H   0  0  0  0  0  0  0  0  0  0  0  0
    0.5319    0.8075   -1.8554 H   0  0  0  0  0  0  0  0  0  0  0  0
   -1.6908    0.0897   -1.1753 H   0  0  0  0  0  0  0  0  0  0  0  0
   -0.0209   -3.4890    0.5287 H   0  0  0  0  0  0  0  0  0  0  0  0
    2.2218   -2.7684   -0.1557 H   0  0  0  0  0  0  0  0  0  0  0  0
   -4.2460   -2.3510   -1.4754 H   0  0  0  0  0  0  0  0  0  0  0  0
   -6.2408   -0.9294   -1.3483 H   0  0  0  0  0  0  0  0  0  0  0  0
   -4.5147    1.1614    1.9915 H   0  0  0  0  0  0  0  0  0  0  0  0
   -2.5377   -0.2738    1.8621 H   0  0  0  0  0  0  0  0  0  0  0  0
    5.4315   -1.8564    2.8302 H   0  0  0  0  0  0  0  0  0  0  0  0
    5.4225   -1.4059    0.3714 H   0  0  0  0  0  0  0  0  0  0  0  0
    2.7347    2.3161   -0.8167 H   0  0  0  0  0  0  0  0  0  0  0  0
    1.9354    1.5129    0.5314 H   0  0  0  0  0  0  0  0  0  0  0  0
    2.9662    3.6694    1.1849 H   0  0  0  0  0  0  0  0  0  0  0  0
    3.6490    2.3245    2.0968 H   0  0  0  0  0  0  0  0  0  0  0  0
    5.9055    1.5823    1.4361 H   0  0  0  0  0  0  0  0  0  0  0  0
    6.6725    2.4783    0.1260 H   0  0  0  0  0  0  0  0  0  0  0  0
  1 19  1  0
  1 23  1  0
  2  3  2  0
  2  7  1  0
 24  2  1  1
  3  4  1  0
  4  5  2  0
  5  6  1  0
  5 27  1  0
  6  7  2  0
  8  9  2  0
  8 13  1  0
  8 27  1  0
  9 10  1  0
 10 11  2  0
 11 12  1  0
 11 14  1  0
 12 13  2  0
 14 28  1  1
 14 29  1  0
 14 30  1  0
 15 16  1  0
 16 17  1  0
 17 18  2  0
 19 17  1  1
 19 20  1  0
 19 24  1  0
 20 21  1  0
 21 22  1  0
 22 23  1  0
 24 25  2  0
 24 26  2  0
  1 31  1  0
  1 32  1  0
  3 33  1  0
  4 34  1  0
  6 35  1  0
  7 36  1  0
  9 37  1  0
 10 38  1  0
 12 39  1  0
 13 40  1  0
 15 41  1  0
 16 42  1  0
 20 43  1  0
 20 44  1  0
 21 45  1  0
 21 46  1  0
 23 47  1  0
 23 48  1  0
M  END
