
     RDKit          3D

 58 62  0  0  0  0  0  0  0  0999 V2000
    1.5997    0.0210   -1.3886 C   0  0  0  0  0  0  0  0  0  0  0  0
    1.8132   -1.0977    0.7068 C   0  0  0  0  0  0  0  0  0  0  0  0
    3.8364    0.0116   -0.2560 C   0  0  0  0  0  0  0  0  0  0  0  0
    6.5595    0.7086   -0.2083 C   0  0  0  0  0  0  0  0  0  0  0  0
    7.8811    1.0917    0.2020 C   0  0  0  0  0  0  0  0  0  0  0  0
    7.8411    1.2398    1.5710 C   0  0  0  0  0  0  0  0  0  0  0  0
    5.7830    0.6446    0.9637 C   0  0  0  0  0  0  0  0  0  0  0  0
    9.0324    1.2855   -0.6571 C   0  0  0  0  0  0  0  0  0  0  0  0
   -5.8539   -4.0370    1.8176 C   0  0  0  0  0  0  0  0  0  0  0  0
   -5.5818   -4.5074   -0.6546 C   0  0  0  0  0  0  0  0  0  0  0  0
   -4.8539   -2.3258    0.3103 C   0  0  0  0  0  0  0  0  0  0  0  0
   -5.9497   -1.6237    0.0014 O   0  0  0  0  0  0  0  0  0  0  0  0
   -5.6350   -0.3144   -0.1970 N   0  0  0  0  0  0  0  0  0  0  0  0
   -4.3555   -0.2271    0.0006 C   0  0  0  0  0  0  0  0  0  0  0  0
   -3.7896   -1.4859    0.3318 C   0  0  0  0  0  0  0  0  0  0  0  0
   -2.3580   -1.7380    0.6195 C   0  0  0  0  0  0  0  0  0  0  0  0
   -0.3201   -1.0435   -0.4007 C   0  0  0  0  0  0  0  0  0  0  0  0
    0.2593   -0.3101   -1.4360 C   0  0  0  0  0  0  0  0  0  0  0  0
    2.4088   -0.3595   -0.3132 C   0  0  0  0  0  0  0  0  0  0  0  0
    0.4681   -1.4402    0.6750 C   0  0  0  0  0  0  0  0  0  0  0  0
    4.6075    0.0699   -1.4364 C   0  0  0  0  0  0  0  0  0  0  0  0
    5.9439    0.4123   -1.4281 C   0  0  0  0  0  0  0  0  0  0  0  0
    6.5979    0.9767    2.0169 N   0  0  0  0  0  0  0  0  0  0  0  0
    4.4356    0.3069    0.9612 C   0  0  0  0  0  0  0  0  0  0  0  0
    9.0162    1.1550   -1.8625 O   0  0  0  0  0  0  0  0  0  0  0  0
   10.1311    1.6258    0.0172 O   0  0  0  0  0  0  0  0  0  0  0  0
   -3.6322    1.0485   -0.1192 C   0  0  0  0  0  0  0  0  0  0  0  0
   -3.1631    1.5091   -1.3464 C   0  0  0  0  0  0  0  0  0  0  0  0
   -3.4640    0.5767   -2.7675 Cl  0  0  0  0  0  0  0  0  0  0  0  0
   -2.4452    2.6876   -1.4570 C   0  0  0  0  0  0  0  0  0  0  0  0
   -2.1837    3.4273   -0.3144 C   0  0  0  0  0  0  0  0  0  0  0  0
   -2.6285    2.9975    0.9254 C   0  0  0  0  0  0  0  0  0  0  0  0
   -3.3430    1.8140    1.0070 C   0  0  0  0  0  0  0  0  0  0  0  0
   -3.8848    1.2634    2.5539 Cl  0  0  0  0  0  0  0  0  0  0  0  0
    2.0138    0.6122   -2.1956 H   0  0  0  0  0  0  0  0  0  0  0  0
    2.4080   -1.4401    1.5445 H   0  0  0  0  0  0  0  0  0  0  0  0
    8.6235    1.5173    2.2589 H   0  0  0  0  0  0  0  0  0  0  0  0
   -5.8845   -5.1052    2.0320 H   0  0  0  0  0  0  0  0  0  0  0  0
   -5.4380   -3.5325    2.6895 H   0  0  0  0  0  0  0  0  0  0  0  0
   -6.8806   -3.6947    1.6822 H   0  0  0  0  0  0  0  0  0  0  0  0
   -4.0042   -4.1713    0.7539 H   0  0  0  0  0  0  0  0  0  0  0  0
   -4.9751   -4.3328   -1.5433 H   0  0  0  0  0  0  0  0  0  0  0  0
   -5.6026   -5.5815   -0.4702 H   0  0  0  0  0  0  0  0  0  0  0  0
   -6.6022   -4.1867   -0.8664 H   0  0  0  0  0  0  0  0  0  0  0  0
   -2.0444   -1.1588    1.4955 H   0  0  0  0  0  0  0  0  0  0  0  0
   -2.1808   -2.7934    0.8490 H   0  0  0  0  0  0  0  0  0  0  0  0
   -0.3518    0.0106   -2.2703 H   0  0  0  0  0  0  0  0  0  0  0  0
    0.0625   -2.0290    1.4871 H   0  0  0  0  0  0  0  0  0  0  0  0
    4.1432   -0.1825   -2.3812 H   0  0  0  0  0  0  0  0  0  0  0  0
    6.5024    0.4431   -2.3531 H   0  0  0  0  0  0  0  0  0  0  0  0
    6.3179    1.0155    2.9841 H   0  0  0  0  0  0  0  0  0  0  0  0
    3.8684    0.2962    1.8836 H   0  0  0  0  0  0  0  0  0  0  0  0
   -2.0931    3.0229   -2.4223 H   0  0  0  0  0  0  0  0  0  0  0  0
   -1.6238    4.3493   -0.3914 H   0  0  0  0  0  0  0  0  0  0  0  0
   -2.4235    3.5744    1.8162 H   0  0  0  0  0  0  0  0  0  0  0  0
   10.8680    1.7460   -0.5989 H   0  0  0  0  0  0  0  0  0  0  0  0
   -1.6314   -1.3288   -0.5282 O   0  0  0  0  0  0  0  0  0  0  0  0
   -5.0097   -3.7847    0.5664 C   0  0  1  0  0  0  0  0  0  0  0  0
  1 18  2  0
  1 19  1  0
  1 35  1  0
  2 19  2  0
  2 20  1  0
  2 36  1  0
  3 19  1  0
  3 21  1  0
  3 24  2  0
  4  5  1  0
  4  7  2  0
  4 22  1  0
  5  6  2  0
  5  8  1  0
  6 23  1  0
  6 37  1  0
  7 23  1  0
  7 24  1  0
  8 25  2  0
  8 26  1  0
  9 58  1  0
  9 38  1  0
  9 39  1  0
  9 40  1  0
 58 10  1  0
 58 11  1  0
 58 41  1  1
 10 42  1  0
 10 43  1  0
 10 44  1  0
 11 12  1  0
 11 15  2  0
 12 13  1  0
 13 14  2  0
 14 15  1  0
 14 27  1  0
 15 16  1  0
 16 57  1  0
 16 45  1  0
 16 46  1  0
 57 17  1  0
 17 18  1  0
 17 20  2  0
 18 47  1  0
 20 48  1  0
 21 22  2  0
 21 49  1  0
 22 50  1  0
 23 51  1  0
 24 52  1  0
 27 28  2  0
 27 33  1  0
 28 29  1  0
 28 30  1  0
 30 31  2  0
 30 53  1  0
 31 32  1  0
 31 54  1  0
 32 33  2  0
 32 55  1  0
 33 34  1  0
 26 56  1  0
M  END
