
     RDKit          3D

 58 61  0  0  0  0  0  0  0  0999 V2000
    2.0513    0.2297    0.9100 C   0  0  0  0  0  0  0  0  0  0  0  0
    3.3982    0.7299    1.4479 C   0  0  2  0  0  0  0  0  0  0  0  0
    3.7275    1.8871    0.7066 O   0  0  0  0  0  0  0  0  0  0  0  0
    2.6805    2.2369   -0.1929 C   0  0  2  0  0  0  0  0  0  0  0  0
    1.4393    1.5123    0.3330 C   0  0  1  0  0  0  0  0  0  0  0  0
    4.4499   -0.3188    1.3625 C   0  0  0  0  0  0  0  0  0  0  0  0
    5.5219   -0.2773    0.5743 C   0  0  0  0  0  0  0  0  0  0  0  0
    6.4822   -1.3940    0.5584 C   0  0  0  0  0  0  0  0  0  0  0  0
    7.4904   -1.1589   -0.2768 O   0  0  0  0  0  0  0  0  0  0  0  0
    6.3912   -2.4083    1.2113 O   0  0  0  0  0  0  0  0  0  0  0  0
    0.3782    1.2020   -0.6874 C   0  0  0  0  0  0  0  0  0  0  0  0
    0.7181    1.1476   -1.9855 C   0  0  0  0  0  0  0  0  0  0  0  0
    2.0836    1.3850   -2.4285 C   0  0  0  0  0  0  0  0  0  0  0  0
    3.0196    1.8543   -1.6005 C   0  0  0  0  0  0  0  0  0  0  0  0
   -0.9705    0.8518   -0.2126 C   0  0  0  0  0  0  0  0  0  0  0  0
   -1.7244   -0.1223   -0.8615 C   0  0  0  0  0  0  0  0  0  0  0  0
   -3.0147   -0.4793   -0.4704 C   0  0  0  0  0  0  0  0  0  0  0  0
   -3.7307   -1.5696   -1.2607 C   0  0  2  0  0  0  0  0  0  0  0  0
   -4.9894   -2.0355   -0.5215 C   0  0  0  0  0  0  0  0  0  0  0  0
   -2.8270   -2.7935   -1.4551 C   0  0  0  0  0  0  0  0  0  0  0  0
   -4.1137   -1.0125   -2.6390 C   0  0  0  0  0  0  0  0  0  0  0  0
   -3.6000    0.1900    0.6132 C   0  0  0  0  0  0  0  0  0  0  0  0
   -5.0145   -0.0930    1.1003 C   0  0  1  0  0  0  0  0  0  0  0  0
   -5.7742    1.2132    1.3621 C   0  0  0  0  0  0  0  0  0  0  0  0
   -5.7909   -0.8785    0.0404 C   0  0  0  0  0  0  0  0  0  0  0  0
   -4.9448   -0.8958    2.4072 C   0  0  0  0  0  0  0  0  0  0  0  0
   -2.8314    1.1428    1.2874 C   0  0  0  0  0  0  0  0  0  0  0  0
   -1.5470    1.4696    0.8993 C   0  0  0  0  0  0  0  0  0  0  0  0
    2.1952   -0.5104    0.1187 H   0  0  0  0  0  0  0  0  0  0  0  0
    1.4390   -0.2224    1.6884 H   0  0  0  0  0  0  0  0  0  0  0  0
    3.2831    1.0043    2.5059 H   0  0  0  0  0  0  0  0  0  0  0  0
    2.5616    3.3258   -0.1384 H   0  0  0  0  0  0  0  0  0  0  0  0
    1.0270    2.1021    1.1546 H   0  0  0  0  0  0  0  0  0  0  0  0
    4.2859   -1.1773    2.0070 H   0  0  0  0  0  0  0  0  0  0  0  0
    5.7184    0.5694   -0.0708 H   0  0  0  0  0  0  0  0  0  0  0  0
    8.1035   -1.9088   -0.2722 H   0  0  0  0  0  0  0  0  0  0  0  0
   -0.0223    0.9001   -2.7371 H   0  0  0  0  0  0  0  0  0  0  0  0
    2.3254    1.1720   -3.4626 H   0  0  0  0  0  0  0  0  0  0  0  0
    4.0303    2.0405   -1.9454 H   0  0  0  0  0  0  0  0  0  0  0  0
   -1.2739   -0.6456   -1.6960 H   0  0  0  0  0  0  0  0  0  0  0  0
   -4.7062   -2.7158    0.2875 H   0  0  0  0  0  0  0  0  0  0  0  0
   -5.6029   -2.6257   -1.2083 H   0  0  0  0  0  0  0  0  0  0  0  0
   -3.3916   -3.5907   -1.9430 H   0  0  0  0  0  0  0  0  0  0  0  0
   -1.9588   -2.5855   -2.0810 H   0  0  0  0  0  0  0  0  0  0  0  0
   -2.4679   -3.1748   -0.4977 H   0  0  0  0  0  0  0  0  0  0  0  0
   -4.8026   -0.1705   -2.5598 H   0  0  0  0  0  0  0  0  0  0  0  0
   -3.2347   -0.6649   -3.1848 H   0  0  0  0  0  0  0  0  0  0  0  0
   -4.5960   -1.7860   -3.2409 H   0  0  0  0  0  0  0  0  0  0  0  0
   -5.3574    1.7847    2.1919 H   0  0  0  0  0  0  0  0  0  0  0  0
   -5.7712    1.8525    0.4777 H   0  0  0  0  0  0  0  0  0  0  0  0
   -6.8145    0.9939    1.6127 H   0  0  0  0  0  0  0  0  0  0  0  0
   -6.7251   -1.2385    0.4808 H   0  0  0  0  0  0  0  0  0  0  0  0
   -6.0808   -0.2041   -0.7720 H   0  0  0  0  0  0  0  0  0  0  0  0
   -5.9501   -1.1044    2.7809 H   0  0  0  0  0  0  0  0  0  0  0  0
   -4.4352   -1.8517    2.2761 H   0  0  0  0  0  0  0  0  0  0  0  0
   -4.4099   -0.3440    3.1818 H   0  0  0  0  0  0  0  0  0  0  0  0
   -3.2505    1.6570    2.1433 H   0  0  0  0  0  0  0  0  0  0  0  0
   -1.0105    2.2300    1.4523 H   0  0  0  0  0  0  0  0  0  0  0  0
  1  2  1  0
  1  5  1  0
  1 29  1  0
  1 30  1  0
  2  3  1  0
  2  6  1  0
  2 31  1  1
  3  4  1  0
  4  5  1  0
  4 14  1  0
  4 32  1  6
  5 11  1  0
  5 33  1  1
  6  7  2  0
  6 34  1  0
  7  8  1  0
  7 35  1  0
  8  9  1  0
  8 10  2  0
  9 36  1  0
 11 12  2  0
 11 15  1  0
 12 13  1  0
 12 37  1  0
 13 14  2  0
 13 38  1  0
 14 39  1  0
 15 16  2  0
 15 28  1  0
 16 17  1  0
 16 40  1  0
 17 18  1  0
 17 22  2  0
 18 19  1  0
 18 20  1  6
 18 21  1  0
 19 25  1  0
 19 41  1  0
 19 42  1  0
 20 43  1  0
 20 44  1  0
 20 45  1  0
 21 46  1  0
 21 47  1  0
 21 48  1  0
 22 23  1  0
 22 27  1  0
 23 24  1  1
 23 25  1  0
 23 26  1  0
 24 49  1  0
 24 50  1  0
 24 51  1  0
 25 52  1  0
 25 53  1  0
 26 54  1  0
 26 55  1  0
 26 56  1  0
 27 28  2  0
 27 57  1  0
 28 58  1  0
M  END
