
     RDKit          3D

 52 53  0  0  0  0  0  0  0  0999 V2000
   -2.4494    3.3744    0.0974 C   0  0  0  0  0  0  0  0  0  0  0  0
   -0.9694    3.3982   -0.2734 C   0  0  1  0  0  0  0  0  0  0  0  0
   -0.2610    4.5416    0.4437 C   0  0  0  0  0  0  0  0  0  0  0  0
   -0.2848    2.0536    0.0431 C   0  0  1  0  0  0  0  0  0  0  0  0
   -1.0128    0.9067   -0.6559 C   0  0  0  0  0  0  0  0  0  0  0  0
   -0.8844    0.7282   -1.8567 O   0  0  0  0  0  0  0  0  0  0  0  0
   -1.7990    0.1563    0.1345 N   0  0  0  0  0  0  0  0  0  0  0  0
   -2.5823   -0.9534   -0.3300 C   0  0  2  0  0  0  0  0  0  0  0  0
   -4.0656   -0.6424   -0.2166 C   0  0  0  0  0  0  0  0  0  0  0  0
   -4.5256    0.3224    0.3349 O   0  0  0  0  0  0  0  0  0  0  0  0
   -4.7962   -1.5846   -0.7950 O   0  0  0  0  0  0  0  0  0  0  0  0
   -2.2338   -2.2503    0.4366 C   0  0  0  0  0  0  0  0  0  0  0  0
   -0.7703   -2.5505    0.3112 C   0  0  0  0  0  0  0  0  0  0  0  0
    0.1374   -2.0829    1.2537 C   0  0  0  0  0  0  0  0  0  0  0  0
    1.5047   -2.2148    1.0703 C   0  0  0  0  0  0  0  0  0  0  0  0
   -0.2671   -3.2125   -0.8052 C   0  0  0  0  0  0  0  0  0  0  0  0
    1.0971   -3.3461   -1.0086 C   0  0  0  0  0  0  0  0  0  0  0  0
    1.9946   -2.8157   -0.0864 C   0  0  0  0  0  0  0  0  0  0  0  0
    3.3167   -2.8935   -0.3814 O   0  0  0  0  0  0  0  0  0  0  0  0
    4.1279   -1.7904    0.0205 C   0  0  0  0  0  0  0  0  0  0  0  0
    3.6414   -0.4748   -0.5713 C   0  0  0  0  0  0  0  0  0  0  0  0
    4.2888    0.7468    0.0713 C   0  0  0  0  0  0  0  0  0  0  0  0
    3.5113    2.0254   -0.2449 C   0  0  0  0  0  0  0  0  0  0  0  0
    2.1551    2.0166    0.4358 C   0  0  0  0  0  0  0  0  0  0  0  0
    2.0557    1.9733    1.6540 O   0  0  0  0  0  0  0  0  0  0  0  0
    1.0928    2.0463   -0.3907 N   0  0  0  0  0  0  0  0  0  0  0  0
   -2.8914    4.3573   -0.0680 H   0  0  0  0  0  0  0  0  0  0  0  0
   -3.0210    2.6581   -0.4916 H   0  0  0  0  0  0  0  0  0  0  0  0
   -2.5882    3.1209    1.1510 H   0  0  0  0  0  0  0  0  0  0  0  0
   -0.8868    3.5622   -1.3539 H   0  0  0  0  0  0  0  0  0  0  0  0
   -0.3352    4.4314    1.5278 H   0  0  0  0  0  0  0  0  0  0  0  0
    0.7952    4.6029    0.1825 H   0  0  0  0  0  0  0  0  0  0  0  0
   -0.7186    5.4944    0.1750 H   0  0  0  0  0  0  0  0  0  0  0  0
   -0.2890    1.9067    1.1255 H   0  0  0  0  0  0  0  0  0  0  0  0
   -1.8488    0.3850    1.1148 H   0  0  0  0  0  0  0  0  0  0  0  0
   -2.3505   -1.1060   -1.3863 H   0  0  0  0  0  0  0  0  0  0  0  0
   -5.7400   -1.3873   -0.6947 H   0  0  0  0  0  0  0  0  0  0  0  0
   -2.5140   -2.1314    1.4869 H   0  0  0  0  0  0  0  0  0  0  0  0
   -2.8309   -3.0695    0.0348 H   0  0  0  0  0  0  0  0  0  0  0  0
   -0.2224   -1.5841    2.1458 H   0  0  0  0  0  0  0  0  0  0  0  0
    2.1739   -1.8047    1.8154 H   0  0  0  0  0  0  0  0  0  0  0  0
   -0.9484   -3.6057   -1.5513 H   0  0  0  0  0  0  0  0  0  0  0  0
    1.4709   -3.8304   -1.9023 H   0  0  0  0  0  0  0  0  0  0  0  0
    4.1747   -1.7223    1.1131 H   0  0  0  0  0  0  0  0  0  0  0  0
    5.1335   -2.0306   -0.3246 H   0  0  0  0  0  0  0  0  0  0  0  0
    3.8046   -0.4660   -1.6523 H   0  0  0  0  0  0  0  0  0  0  0  0
    2.5599   -0.4076   -0.4302 H   0  0  0  0  0  0  0  0  0  0  0  0
    4.3327    0.6205    1.1565 H   0  0  0  0  0  0  0  0  0  0  0  0
    5.3208    0.8599   -0.2668 H   0  0  0  0  0  0  0  0  0  0  0  0
    4.0603    2.8926    0.1295 H   0  0  0  0  0  0  0  0  0  0  0  0
    3.4176    2.1502   -1.3260 H   0  0  0  0  0  0  0  0  0  0  0  0
    1.2553    2.0737   -1.3852 H   0  0  0  0  0  0  0  0  0  0  0  0
  1  2  1  0
  2  3  1  0
  2  4  1  0
  4  5  1  0
  4 26  1  0
  5  6  2  0
  5  7  1  0
  7  8  1  0
  8  9  1  0
  8 12  1  0
  9 10  2  0
  9 11  1  0
 12 13  1  0
 13 14  2  0
 13 16  1  0
 14 15  1  0
 15 18  2  0
 16 17  2  0
 17 18  1  0
 18 19  1  0
 19 20  1  0
 20 21  1  0
 21 22  1  0
 22 23  1  0
 23 24  1  0
 24 25  2  0
 24 26  1  0
  1 27  1  0
  1 28  1  0
  1 29  1  0
  2 30  1  6
  3 31  1  0
  3 32  1  0
  3 33  1  0
  4 34  1  1
  7 35  1  0
  8 36  1  6
 11 37  1  0
 12 38  1  0
 12 39  1  0
 14 40  1  0
 15 41  1  0
 16 42  1  0
 17 43  1  0
 20 44  1  0
 20 45  1  0
 21 46  1  0
 21 47  1  0
 22 48  1  0
 22 49  1  0
 23 50  1  0
 23 51  1  0
 26 52  1  0
M  END
