
     RDKit          3D

 46 48  0  0  0  0  0  0  0  0999 V2000
   -2.3536   -3.7994   -0.3745 C   0  0  0  0  0  0  0  0  0  0  0  0
   -4.0273   -4.2623    1.2546 C   0  0  0  0  0  0  0  0  0  0  0  0
   -3.6270   -1.9956    0.5787 C   0  0  0  0  0  0  0  0  0  0  0  0
   -3.7715   -1.0728   -0.6284 C   0  0  0  0  0  0  0  0  0  0  0  0
   -4.7065    1.1501   -0.0163 C   0  0  0  0  0  0  0  0  0  0  0  0
   -2.8467    2.2874    0.3254 C   0  0  0  0  0  0  0  0  0  0  0  0
   -2.4738    1.0047   -0.0320 C   0  0  0  0  0  0  0  0  0  0  0  0
   -1.1540    0.6129   -0.1228 C   0  0  0  0  0  0  0  0  0  0  0  0
   -0.1932    1.5897    0.1666 C   0  0  0  0  0  0  0  0  0  0  0  0
    1.8462    0.1975   -0.1296 C   0  0  0  0  0  0  0  0  0  0  0  0
    3.3231    0.2669   -0.0136 C   0  0  0  0  0  0  0  0  0  0  0  0
    4.0332   -0.8075   -0.4729 C   0  0  0  0  0  0  0  0  0  0  0  0
    6.1609    0.1500    0.1177 C   0  0  0  0  0  0  0  0  0  0  0  0
    5.4218    1.2786    0.6140 C   0  0  0  0  0  0  0  0  0  0  0  0
    4.0695    1.3341    0.5511 C   0  0  0  0  0  0  0  0  0  0  0  0
   -0.5833    2.8880    0.5207 C   0  0  0  0  0  0  0  0  0  0  0  0
   -1.9201    3.2597    0.6057 C   0  0  0  0  0  0  0  0  0  0  0  0
   -3.6287   -3.3853    0.1735 N   0  0  0  0  0  0  0  0  0  0  0  0
   -3.6528    0.3190   -0.2541 N   0  0  0  0  0  0  0  0  0  0  0  0
    5.3727   -0.8722   -0.4192 N   0  0  0  0  0  0  0  0  0  0  0  0
   -5.8845    0.9194   -0.0858 O   0  0  0  0  0  0  0  0  0  0  0  0
   -4.2096    2.3679    0.3319 O   0  0  0  0  0  0  0  0  0  0  0  0
    1.2851   -0.8403   -0.4469 O   0  0  0  0  0  0  0  0  0  0  0  0
    7.3786    0.0345    0.1393 O   0  0  0  0  0  0  0  0  0  0  0  0
   -1.5324   -3.7321    0.3561 H   0  0  0  0  0  0  0  0  0  0  0  0
   -2.4150   -4.8342   -0.7130 H   0  0  0  0  0  0  0  0  0  0  0  0
   -2.0777   -3.1974   -1.2406 H   0  0  0  0  0  0  0  0  0  0  0  0
   -3.3220   -4.2633    2.1000 H   0  0  0  0  0  0  0  0  0  0  0  0
   -5.0069   -3.9703    1.6345 H   0  0  0  0  0  0  0  0  0  0  0  0
   -4.1031   -5.2874    0.8888 H   0  0  0  0  0  0  0  0  0  0  0  0
   -2.7240   -1.7295    1.1536 H   0  0  0  0  0  0  0  0  0  0  0  0
   -4.4773   -1.8216    1.2419 H   0  0  0  0  0  0  0  0  0  0  0  0
   -3.0158   -1.2752   -1.3881 H   0  0  0  0  0  0  0  0  0  0  0  0
   -4.7424   -1.2212   -1.0974 H   0  0  0  0  0  0  0  0  0  0  0  0
   -0.8804   -0.3901   -0.4040 H   0  0  0  0  0  0  0  0  0  0  0  0
    3.5349   -1.6618   -0.9078 H   0  0  0  0  0  0  0  0  0  0  0  0
    6.7554   -1.7661   -1.7247 H   0  0  0  0  0  0  0  0  0  0  0  0
    6.6236   -2.5358   -0.1359 H   0  0  0  0  0  0  0  0  0  0  0  0
    5.3342   -2.7426   -1.3294 H   0  0  0  0  0  0  0  0  0  0  0  0
    5.9905    2.0878    1.0503 H   0  0  0  0  0  0  0  0  0  0  0  0
    3.5821    2.2094    0.9617 H   0  0  0  0  0  0  0  0  0  0  0  0
    0.1763    3.6286    0.7383 H   0  0  0  0  0  0  0  0  0  0  0  0
   -2.2030    4.2660    0.8813 H   0  0  0  0  0  0  0  0  0  0  0  0
    1.7402    2.1695    0.3273 H   0  0  0  0  0  0  0  0  0  0  0  0
    1.1843    1.3530    0.1316 N   0  0  0  0  0  0  0  0  0  0  0  0
    6.0663   -2.0471   -0.9318 C   0  0  0  0  0  0  0  0  0  0  0  0
 15 14  2  0
 15 11  1  0
 23 10  2  0
 14 13  1  0
 10 11  1  0
 10 45  1  0
 11 12  2  0
 45  9  1  0
  9  8  1  0
  9 16  2  0
  8  7  2  0
  4 19  1  0
  4  3  1  0
 13 24  2  0
 13 20  1  0
  7 19  1  0
  7  6  1  0
 16 17  1  0
 19  5  1  0
  6 17  2  0
  6 22  1  0
 12 20  1  0
  5 21  2  0
  5 22  1  0
 20 46  1  0
  1 18  1  0
 18  3  1  0
 18  2  1  0
  1 25  1  0
  1 26  1  0
  1 27  1  0
  2 28  1  0
  2 29  1  0
  2 30  1  0
  3 31  1  0
  3 32  1  0
  4 33  1  0
  4 34  1  0
  8 35  1  0
 12 36  1  0
 46 37  1  0
 46 38  1  0
 46 39  1  0
 14 40  1  0
 15 41  1  0
 16 42  1  0
 17 43  1  0
 45 44  1  0
M  END
