
     RDKit          3D

 35 38  0  0  0  0  0  0  0  0999 V2000
    3.7069   -2.3561    0.5147 O   0  0  0  0  0  0  0  0  0  0  0  0
    3.1550   -1.3038    0.2908 C   0  0  0  0  0  0  0  0  0  0  0  0
    3.8536   -0.1144    0.3272 N   0  0  0  0  0  0  0  0  0  0  0  0
    5.1761   -0.2397    0.6185 O   0  0  0  0  0  0  0  0  0  0  0  0
    3.3803    1.1599    0.1009 C   0  0  0  0  0  0  0  0  0  0  0  0
    4.1497    2.0974    0.1933 O   0  0  0  0  0  0  0  0  0  0  0  0
    1.9562    1.2658   -0.2242 C   0  0  0  0  0  0  0  0  0  0  0  0
    1.4074    2.5014   -0.4708 C   0  0  0  0  0  0  0  0  0  0  0  0
    0.0476    2.6135   -0.7931 C   0  0  0  0  0  0  0  0  0  0  0  0
   -0.7453    1.4983   -0.8545 C   0  0  0  0  0  0  0  0  0  0  0  0
   -0.2150    0.2127   -0.5956 C   0  0  0  0  0  0  0  0  0  0  0  0
    1.1612    0.1012   -0.2855 C   0  0  0  0  0  0  0  0  0  0  0  0
    1.7267   -1.1683   -0.0430 C   0  0  0  0  0  0  0  0  0  0  0  0
    0.9483   -2.2965   -0.1239 C   0  0  0  0  0  0  0  0  0  0  0  0
   -0.4123   -2.1966   -0.4428 C   0  0  0  0  0  0  0  0  0  0  0  0
   -0.9945   -0.9718   -0.6556 C   0  0  0  0  0  0  0  0  0  0  0  0
   -2.4553   -0.9374   -0.9990 C   0  0  0  0  0  0  0  0  0  0  0  0
   -2.8341   -1.4724   -2.0176 O   0  0  0  0  0  0  0  0  0  0  0  0
   -3.3881   -0.2793   -0.0577 C   0  0  0  0  0  0  0  0  0  0  0  0
   -4.6886    0.0085   -0.4780 C   0  0  0  0  0  0  0  0  0  0  0  0
   -5.5817    0.6107    0.3905 C   0  0  0  0  0  0  0  0  0  0  0  0
   -5.1907    0.9158    1.6900 C   0  0  0  0  0  0  0  0  0  0  0  0
   -3.9036    0.6213    2.1186 C   0  0  0  0  0  0  0  0  0  0  0  0
   -3.0017    0.0312    1.2465 C   0  0  0  0  0  0  0  0  0  0  0  0
    5.4790    0.6758    0.7499 H   0  0  0  0  0  0  0  0  0  0  0  0
    2.0230    3.3893   -0.4210 H   0  0  0  0  0  0  0  0  0  0  0  0
   -0.3739    3.5878   -0.9955 H   0  0  0  0  0  0  0  0  0  0  0  0
   -1.7898    1.6128   -1.1120 H   0  0  0  0  0  0  0  0  0  0  0  0
    1.3803   -3.2710    0.0576 H   0  0  0  0  0  0  0  0  0  0  0  0
   -1.0067   -3.0985   -0.4997 H   0  0  0  0  0  0  0  0  0  0  0  0
   -4.9946   -0.2297   -1.4881 H   0  0  0  0  0  0  0  0  0  0  0  0
   -6.5848    0.8430    0.0585 H   0  0  0  0  0  0  0  0  0  0  0  0
   -5.8921    1.3836    2.3687 H   0  0  0  0  0  0  0  0  0  0  0  0
   -3.6018    0.8519    3.1314 H   0  0  0  0  0  0  0  0  0  0  0  0
   -2.0029   -0.1974    1.5956 H   0  0  0  0  0  0  0  0  0  0  0  0
 23 22  2  0
 23 24  1  0
 22 21  1  0
 24 19  2  0
 21 20  2  0
 19 20  1  0
 19 17  1  0
 18 17  2  0
 17 16  1  0
 16 15  2  0
 16 11  1  0
 15 14  1  0
 10 11  2  0
 10  9  1  0
 11 12  1  0
  9  8  2  0
 14 13  2  0
 12 13  1  0
 12  7  2  0
 13  2  1  0
  8  7  1  0
  7  5  1  0
  2  1  2  0
  2  3  1  0
  5  3  1  0
  5  6  2  0
  3  4  1  0
  4 25  1  0
  8 26  1  0
  9 27  1  0
 10 28  1  0
 14 29  1  0
 15 30  1  0
 20 31  1  0
 21 32  1  0
 22 33  1  0
 23 34  1  0
 24 35  1  0
M  END
