
     RDKit          3D

 60 62  0  0  0  0  0  0  0  0999 V2000
   -1.3601    1.6298    0.2347 C   0  0  0  0  0  0  0  0  0  0  0  0
   -3.7467    1.9437    0.4298 C   0  0  0  0  0  0  0  0  0  0  0  0
   -5.0889    1.2600    0.4300 C   0  0  0  0  0  0  0  0  0  0  0  0
   -6.1698    1.8093    1.1106 C   0  0  0  0  0  0  0  0  0  0  0  0
   -7.6325    0.0256    0.3512 C   0  0  0  0  0  0  0  0  0  0  0  0
   -6.5310   -0.5210   -0.3066 C   0  0  0  0  0  0  0  0  0  0  0  0
   -5.2818    0.0772   -0.2748 C   0  0  0  0  0  0  0  0  0  0  0  0
   -8.9808   -0.5819    0.3304 C   0  0  0  0  0  0  0  0  0  0  0  0
   -9.6607   -0.7879   -0.8698 C   0  0  0  0  0  0  0  0  0  0  0  0
  -10.9397   -1.3242   -0.8718 C   0  0  0  0  0  0  0  0  0  0  0  0
  -11.5576   -1.6656    0.3250 C   0  0  0  0  0  0  0  0  0  0  0  0
  -10.8904   -1.4597    1.5245 C   0  0  0  0  0  0  0  0  0  0  0  0
   -6.6815   -2.0239   -1.1650 Cl  0  0  0  0  0  0  0  0  0  0  0  0
   -9.6111   -0.9197    1.5266 C   0  0  0  0  0  0  0  0  0  0  0  0
   -7.4144    1.2031    1.0662 C   0  0  0  0  0  0  0  0  0  0  0  0
   -2.6543    0.9960    0.3961 N   0  0  0  0  0  0  0  0  0  0  0  0
   -0.2702    0.5736    0.1756 C   0  0  0  0  0  0  0  0  0  0  0  0
    1.0990    1.1485   -0.1168 C   0  0  0  0  0  0  0  0  0  0  0  0
    1.2568    2.1881   -0.7431 O   0  0  0  0  0  0  0  0  0  0  0  0
    2.1302    0.4104    0.3235 N   0  0  0  0  0  0  0  0  0  0  0  0
    3.5109    0.7584    0.0644 C   0  0  0  0  0  0  0  0  0  0  0  0
    4.3957   -0.4451    0.3366 C   0  0  0  0  0  0  0  0  0  0  0  0
    5.8574   -0.1589    0.0694 C   0  0  0  0  0  0  0  0  0  0  0  0
    6.2593    0.9282   -0.2995 O   0  0  0  0  0  0  0  0  0  0  0  0
    6.6604   -1.2348    0.2832 N   0  0  0  0  0  0  0  0  0  0  0  0
    8.0469   -1.3450    0.1650 C   0  0  0  0  0  0  0  0  0  0  0  0
    8.6160   -2.5628    0.5494 C   0  0  0  0  0  0  0  0  0  0  0  0
    9.9810   -2.7634    0.4645 C   0  0  0  0  0  0  0  0  0  0  0  0
   10.8148   -1.7582   -0.0024 C   0  0  0  0  0  0  0  0  0  0  0  0
    8.8785   -0.3341   -0.3092 C   0  0  0  0  0  0  0  0  0  0  0  0
   10.2539   -0.5453   -0.3882 C   0  0  0  0  0  0  0  0  0  0  0  0
   11.0848    0.5760   -0.9003 C   0  0  0  0  0  0  0  0  0  0  0  0
   10.6360    1.6380   -1.2596 O   0  0  0  0  0  0  0  0  0  0  0  0
   12.3793    0.2926   -0.9235 O   0  0  0  0  0  0  0  0  0  0  0  0
   -1.3717    2.1961   -0.6991 H   0  0  0  0  0  0  0  0  0  0  0  0
   -1.1380    2.3522    1.0347 H   0  0  0  0  0  0  0  0  0  0  0  0
   -3.6757    2.5693   -0.4666 H   0  0  0  0  0  0  0  0  0  0  0  0
   -3.6962    2.6375    1.2822 H   0  0  0  0  0  0  0  0  0  0  0  0
   -6.0420    2.7214    1.6807 H   0  0  0  0  0  0  0  0  0  0  0  0
   -4.4476   -0.3809   -0.7888 H   0  0  0  0  0  0  0  0  0  0  0  0
   -9.1950   -0.5156   -1.8081 H   0  0  0  0  0  0  0  0  0  0  0  0
  -11.4562   -1.4734   -1.8112 H   0  0  0  0  0  0  0  0  0  0  0  0
  -12.5542   -2.0878    0.3214 H   0  0  0  0  0  0  0  0  0  0  0  0
  -11.3633   -1.7204    2.4624 H   0  0  0  0  0  0  0  0  0  0  0  0
   -9.0947   -0.7679    2.4665 H   0  0  0  0  0  0  0  0  0  0  0  0
   -8.2455    1.6554    1.5926 H   0  0  0  0  0  0  0  0  0  0  0  0
   -2.6612    0.4556    1.2540 H   0  0  0  0  0  0  0  0  0  0  0  0
   -0.2500   -0.0009    1.1058 H   0  0  0  0  0  0  0  0  0  0  0  0
   -0.5057   -0.1416   -0.6192 H   0  0  0  0  0  0  0  0  0  0  0  0
    1.9366   -0.4076    0.8783 H   0  0  0  0  0  0  0  0  0  0  0  0
    3.6137    1.0715   -0.9750 H   0  0  0  0  0  0  0  0  0  0  0  0
    3.8183    1.6033    0.6860 H   0  0  0  0  0  0  0  0  0  0  0  0
    4.2883   -0.7685    1.3773 H   0  0  0  0  0  0  0  0  0  0  0  0
    4.0799   -1.2925   -0.2800 H   0  0  0  0  0  0  0  0  0  0  0  0
    6.1962   -2.0758    0.5927 H   0  0  0  0  0  0  0  0  0  0  0  0
    7.9816   -3.3598    0.9196 H   0  0  0  0  0  0  0  0  0  0  0  0
   10.3974   -3.7137    0.7697 H   0  0  0  0  0  0  0  0  0  0  0  0
   11.8799   -1.9299   -0.0600 H   0  0  0  0  0  0  0  0  0  0  0  0
    8.4718    0.6134   -0.6201 H   0  0  0  0  0  0  0  0  0  0  0  0
   12.8761    1.0522   -1.2619 H   0  0  0  0  0  0  0  0  0  0  0  0
 13  6  1  0
  6  7  2  0
  6  5  1  0
  7  3  1  0
 12 14  1  0
 12 11  2  0
 14  8  2  0
 11 10  1  0
 10  9  2  0
  8  9  1  0
  8  5  1  0
  5 15  2  0
  3  2  1  0
  3  4  2  0
  2 16  1  0
 15  4  1  0
 16  1  1  0
  1 17  1  0
 19 18  2  0
 17 18  1  0
 18 20  1  0
 20 21  1  0
 21 22  1  0
 22 23  1  0
 23 25  1  0
 23 24  2  0
 25 26  1  0
 26 30  1  0
 26 27  2  0
 30 31  2  0
 33 32  2  0
 27 28  1  0
 31 32  1  0
 31 29  1  0
 32 34  1  0
 28 29  2  0
  1 35  1  0
  1 36  1  0
  2 37  1  0
  2 38  1  0
  4 39  1  0
  7 40  1  0
  9 41  1  0
 10 42  1  0
 11 43  1  0
 12 44  1  0
 14 45  1  0
 15 46  1  0
 16 47  1  0
 17 48  1  0
 17 49  1  0
 20 50  1  0
 21 51  1  0
 21 52  1  0
 22 53  1  0
 22 54  1  0
 25 55  1  0
 27 56  1  0
 28 57  1  0
 29 58  1  0
 30 59  1  0
 34 60  1  0
M  END
