
     RDKit          3D

 56 60  0  0  0  0  0  0  0  0999 V2000
    5.4281    0.2427    1.3220 O   0  0  0  0  0  0  0  0  0  0  0  0
    5.3779    0.4504    0.1250 C   0  0  0  0  0  0  0  0  0  0  0  0
    6.4767    0.0261   -0.8372 C   0  0  1  0  0  0  0  0  0  0  0  0
    7.7384   -0.1794   -0.1435 N   0  0  0  0  0  0  0  0  0  0  0  0
    7.9271   -1.6222   -0.0369 C   0  0  0  0  0  0  0  0  0  0  0  0
    7.3176   -2.2034   -1.3105 C   0  0  0  0  0  0  0  0  0  0  0  0
    6.0780   -1.3309   -1.4994 C   0  0  0  0  0  0  0  0  0  0  0  0
    4.3192    1.0279   -0.5010 N   0  0  0  0  0  0  0  0  0  0  0  0
    3.0647    1.3455    0.0397 C   0  0  0  0  0  0  0  0  0  0  0  0
    2.8591    1.6681    1.3811 C   0  0  0  0  0  0  0  0  0  0  0  0
    1.5873    1.9758    1.8367 C   0  0  0  0  0  0  0  0  0  0  0  0
    1.9710    1.3637   -0.8226 C   0  0  0  0  0  0  0  0  0  0  0  0
    0.6997    1.6837   -0.3731 C   0  0  0  0  0  0  0  0  0  0  0  0
    0.5024    1.9848    0.9687 C   0  0  0  0  0  0  0  0  0  0  0  0
   -0.7058    2.3219    1.5009 O   0  0  0  0  0  0  0  0  0  0  0  0
   -1.8493    2.0496    0.7827 C   0  0  0  0  0  0  0  0  0  0  0  0
   -2.5151    3.1191    0.1695 C   0  0  0  0  0  0  0  0  0  0  0  0
   -3.7012    2.9110   -0.5080 C   0  0  0  0  0  0  0  0  0  0  0  0
   -4.1930    1.6095   -0.5703 C   0  0  0  0  0  0  0  0  0  0  0  0
   -5.3323    1.1283   -1.1493 N   0  0  0  0  0  0  0  0  0  0  0  0
   -6.2781    1.9114   -1.9051 C   0  0  0  0  0  0  0  0  0  0  0  0
   -2.3263    0.7571    0.7223 C   0  0  0  0  0  0  0  0  0  0  0  0
   -3.5149    0.5224    0.0250 C   0  0  0  0  0  0  0  0  0  0  0  0
   -4.2986   -0.6492   -0.2321 C   0  0  0  0  0  0  0  0  0  0  0  0
   -5.3847   -0.2208   -0.9512 C   0  0  0  0  0  0  0  0  0  0  0  0
   -4.0114   -2.0111    0.1846 C   0  0  0  0  0  0  0  0  0  0  0  0
   -4.9074   -3.0003    0.5444 C   0  0  0  0  0  0  0  0  0  0  0  0
   -4.1892   -4.0970    0.8418 N   0  0  0  0  0  0  0  0  0  0  0  0
   -4.6896   -5.3910    1.2388 C   0  0  0  0  0  0  0  0  0  0  0  0
   -2.8843   -3.8993    0.7052 N   0  0  0  0  0  0  0  0  0  0  0  0
   -2.7589   -2.6453    0.3102 C   0  0  0  0  0  0  0  0  0  0  0  0
    6.5977    0.7999   -1.5996 H   0  0  0  0  0  0  0  0  0  0  0  0
    4.3839    1.1061   -1.5052 H   0  0  0  0  0  0  0  0  0  0  0  0
    8.4818    0.2040   -0.7117 H   0  0  0  0  0  0  0  0  0  0  0  0
    5.2220   -1.7814   -0.9913 H   0  0  0  0  0  0  0  0  0  0  0  0
    5.7970   -1.2017   -2.5440 H   0  0  0  0  0  0  0  0  0  0  0  0
    8.9824   -1.8612    0.0948 H   0  0  0  0  0  0  0  0  0  0  0  0
    7.3924   -1.9963    0.8407 H   0  0  0  0  0  0  0  0  0  0  0  0
    8.0116   -2.0780   -2.1449 H   0  0  0  0  0  0  0  0  0  0  0  0
    7.0763   -3.2641   -1.2322 H   0  0  0  0  0  0  0  0  0  0  0  0
    3.6787    1.6845    2.0808 H   0  0  0  0  0  0  0  0  0  0  0  0
    2.1085    1.1223   -1.8699 H   0  0  0  0  0  0  0  0  0  0  0  0
    1.4394    2.2174    2.8818 H   0  0  0  0  0  0  0  0  0  0  0  0
   -0.1210    1.6873   -1.0776 H   0  0  0  0  0  0  0  0  0  0  0  0
   -2.0986    4.1155    0.2415 H   0  0  0  0  0  0  0  0  0  0  0  0
   -1.7930   -0.0462    1.2161 H   0  0  0  0  0  0  0  0  0  0  0  0
   -4.2188    3.7402   -0.9728 H   0  0  0  0  0  0  0  0  0  0  0  0
   -5.8527    2.2390   -2.8539 H   0  0  0  0  0  0  0  0  0  0  0  0
   -7.1592    1.3093   -2.1090 H   0  0  0  0  0  0  0  0  0  0  0  0
   -6.5874    2.7887   -1.3385 H   0  0  0  0  0  0  0  0  0  0  0  0
   -6.2041   -0.7969   -1.3541 H   0  0  0  0  0  0  0  0  0  0  0  0
   -5.9833   -2.9883    0.6164 H   0  0  0  0  0  0  0  0  0  0  0  0
   -1.7799   -2.2346    0.1131 H   0  0  0  0  0  0  0  0  0  0  0  0
   -4.5511   -6.1195    0.4416 H   0  0  0  0  0  0  0  0  0  0  0  0
   -4.1675   -5.7326    2.1294 H   0  0  0  0  0  0  0  0  0  0  0  0
   -5.7496   -5.3091    1.4610 H   0  0  0  0  0  0  0  0  0  0  0  0
  1  2  2  0
  2  3  1  0
  2  8  1  0
  3  4  1  0
  3  7  1  0
  4  5  1  0
  5  6  1  0
  6  7  1  0
  8  9  1  0
  9 10  2  0
  9 12  1  0
 10 11  1  0
 11 14  2  0
 12 13  2  0
 13 14  1  0
 14 15  1  0
 15 16  1  0
 16 17  2  0
 16 22  1  0
 17 18  1  0
 18 19  2  0
 19 20  1  0
 19 23  1  0
 20 21  1  0
 20 25  1  0
 22 23  2  0
 23 24  1  0
 24 25  2  0
 24 26  1  0
 26 27  2  0
 26 31  1  0
 27 28  1  0
 28 29  1  0
 28 30  1  0
 30 31  2  0
  3 32  1  6
  8 33  1  0
  4 34  1  0
  7 35  1  0
  7 36  1  0
  5 37  1  0
  5 38  1  0
  6 39  1  0
  6 40  1  0
 10 41  1  0
 12 42  1  0
 11 43  1  0
 13 44  1  0
 17 45  1  0
 22 46  1  0
 18 47  1  0
 21 48  1  0
 21 49  1  0
 21 50  1  0
 25 51  1  0
 27 52  1  0
 31 53  1  0
 29 54  1  0
 29 55  1  0
 29 56  1  0
M  END
