
     RDKit          3D

 18 18  0  0  0  0  0  0  0  0999 V2000
   -2.3171   -0.1511   -0.1360 N   0  0  0  0  0  0  0  0  0  0  0  0
   -1.3370   -2.2913    0.1694 C   0  0  0  0  0  0  0  0  0  0  0  0
   -2.4292   -1.4723   -0.0543 C   0  0  0  0  0  0  0  0  0  0  0  0
   -1.1307    0.3819   -0.0155 C   0  0  0  0  0  0  0  0  0  0  0  0
    3.6123    0.8424    0.1313 C   0  0  0  0  0  0  0  0  0  0  0  0
    2.6117   -1.1664   -0.6921 O   0  0  0  0  0  0  0  0  0  0  0  0
    2.4696   -0.1058   -0.1150 C   0  0  0  0  0  0  0  0  0  0  0  0
    0.0488   -0.3343    0.2133 C   0  0  0  0  0  0  0  0  0  0  0  0
   -0.0851   -1.7158    0.3137 C   0  0  0  0  0  0  0  0  0  0  0  0
   -1.0505    2.1143   -0.1434 Cl  0  0  0  0  0  0  0  0  0  0  0  0
   -1.4616   -3.3622    0.2443 H   0  0  0  0  0  0  0  0  0  0  0  0
   -3.4247   -1.8821   -0.1691 H   0  0  0  0  0  0  0  0  0  0  0  0
    1.2335    1.2562    0.7494 H   0  0  0  0  0  0  0  0  0  0  0  0
    3.3266    1.7429    0.6711 H   0  0  0  0  0  0  0  0  0  0  0  0
    4.3872    0.3299    0.7008 H   0  0  0  0  0  0  0  0  0  0  0  0
    4.0480    1.1329   -0.8245 H   0  0  0  0  0  0  0  0  0  0  0  0
    0.7745   -2.3357    0.5167 H   0  0  0  0  0  0  0  0  0  0  0  0
    1.2657    0.3267    0.3597 N   0  0  0  0  0  0  0  0  0  0  0  0
  7  5  1  0
  7  6  2  0
 18  7  1  0
  8 18  1  0
  9  8  1  0
  2  9  2  0
  3  2  1  0
  1  3  2  0
  4  1  1  0
  4  8  2  0
 10  4  1  0
  2 11  1  0
  3 12  1  0
 18 13  1  0
  5 14  1  0
  5 15  1  0
  5 16  1  0
  9 17  1  0
M  END
