
     RDKit          3D

 21 20  0  0  0  0  0  0  0  0999 V2000
   -0.4540    1.5652    2.9909 N   0  0  0  0  0  0  0  0  0  0  0  0
   -0.6399    1.7759    1.5755 C   0  0  1  0  0  0  0  0  0  0  0  0
    0.2371    0.8673    0.6994 C   0  0  0  0  0  0  0  0  0  0  0  0
    1.6824    1.3293    0.6302 C   0  0  1  0  0  0  0  0  0  0  0  0
    2.5994    0.1330    0.4591 C   0  0  0  0  0  0  0  0  0  0  0  0
    1.9409    2.3214   -0.4730 C   0  0  0  0  0  0  0  0  0  0  0  0
    2.0236    2.0351   -1.6674 O   0  0  0  0  0  0  0  0  0  0  0  0
   -2.0887    1.6063    1.1275 C   0  0  0  0  0  0  0  0  0  0  0  0
   -2.9656    0.8987    1.6354 O   0  0  0  0  0  0  0  0  0  0  0  0
   -2.4403    2.3307    0.0327 O   0  0  0  0  0  0  0  0  0  0  0  0
   -0.8902    2.2995    3.5149 H   0  0  0  0  0  0  0  0  0  0  0  0
   -0.8372    0.6863    3.2783 H   0  0  0  0  0  0  0  0  0  0  0  0
   -0.3620    2.8531    1.3455 H   0  0  0  0  0  0  0  0  0  0  0  0
   -0.2038    0.8673   -0.3334 H   0  0  0  0  0  0  0  0  0  0  0  0
    0.2050   -0.1823    1.0920 H   0  0  0  0  0  0  0  0  0  0  0  0
    1.9547    1.8542    1.5931 H   0  0  0  0  0  0  0  0  0  0  0  0
    2.5496   -0.5204    1.3637 H   0  0  0  0  0  0  0  0  0  0  0  0
    2.2970   -0.4713   -0.4303 H   0  0  0  0  0  0  0  0  0  0  0  0
    3.6567    0.4663    0.3221 H   0  0  0  0  0  0  0  0  0  0  0  0
    2.0870    3.3685   -0.1190 H   0  0  0  0  0  0  0  0  0  0  0  0
   -3.3735    2.1648   -0.1829 H   0  0  0  0  0  0  0  0  0  0  0  0
  1  2  1  0
  1 11  1  0
  1 12  1  0
  2  3  1  0
  2  8  1  0
  2 13  1  1
  3  4  1  0
  3 14  1  0
  3 15  1  0
  4  5  1  0
  4  6  1  0
  4 16  1  1
  5 17  1  0
  5 18  1  0
  5 19  1  0
  6  7  2  0
  6 20  1  0
  8  9  2  0
  8 10  1  0
 10 21  1  0
M  END
