
     RDKit          3D

 24 23  0  0  0  0  0  0  0  0999 V2000
   -0.3067   -0.3652   -0.5581 C   0  0  2  0  0  0  0  0  0  0  0  0
   -1.5236   -0.2122   -1.4597 C   0  0  0  0  0  0  0  0  0  0  0  0
   -1.5385    0.9289   -2.1260 O   0  0  0  0  0  0  0  0  0  0  0  0
   -2.4020   -1.0360   -1.5119 O   0  0  0  0  0  0  0  0  0  0  0  0
   -0.6636    0.0939    0.8574 C   0  0  0  0  0  0  0  0  0  0  0  0
    0.4428   -0.2394    1.8458 C   0  0  0  0  0  0  0  0  0  0  0  0
    0.1102    0.1723    3.2532 C   0  0  0  0  0  0  0  0  0  0  0  0
   -0.8703    0.7929    3.5801 O   0  0  0  0  0  0  0  0  0  0  0  0
    1.0400   -0.2259    4.1143 O   0  0  0  0  0  0  0  0  0  0  0  0
    1.4662   -0.0282   -2.1851 C   0  0  0  0  0  0  0  0  0  0  0  0
    2.6425    0.8156   -2.5952 C   0  0  0  0  0  0  0  0  0  0  0  0
    1.1028   -1.0048   -2.8254 O   0  0  0  0  0  0  0  0  0  0  0  0
    0.8456    0.3423   -1.0484 N   0  0  0  0  0  0  0  0  0  0  0  0
   -0.0881   -1.4360   -0.5333 H   0  0  0  0  0  0  0  0  0  0  0  0
   -2.3458    0.9886   -2.6588 H   0  0  0  0  0  0  0  0  0  0  0  0
   -0.8713    1.1665    0.8585 H   0  0  0  0  0  0  0  0  0  0  0  0
   -1.5852   -0.4061    1.1575 H   0  0  0  0  0  0  0  0  0  0  0  0
    0.6497   -1.3135    1.8386 H   0  0  0  0  0  0  0  0  0  0  0  0
    1.3868    0.2394    1.5695 H   0  0  0  0  0  0  0  0  0  0  0  0
    0.8032    0.0587    5.0097 H   0  0  0  0  0  0  0  0  0  0  0  0
    2.4933    1.1781   -3.6116 H   0  0  0  0  0  0  0  0  0  0  0  0
    2.8167    1.6671   -1.9404 H   0  0  0  0  0  0  0  0  0  0  0  0
    3.5417    0.1989   -2.6009 H   0  0  0  0  0  0  0  0  0  0  0  0
    1.1011    1.2166   -0.6168 H   0  0  0  0  0  0  0  0  0  0  0  0
  1  2  1  0
  1  5  1  0
  1 13  1  0
  1 14  1  1
  2  3  1  0
  2  4  2  0
  3 15  1  0
  5  6  1  0
  5 16  1  0
  5 17  1  0
  6  7  1  0
  6 18  1  0
  6 19  1  0
  7  8  2  0
  7  9  1  0
  9 20  1  0
 10 11  1  0
 10 12  2  0
 10 13  1  0
 11 21  1  0
 11 22  1  0
 11 23  1  0
 13 24  1  0
M  END
