
     RDKit          3D

 45 47  0  0  0  0  0  0  0  0999 V2000
   -4.0396    0.6882    1.8896 C   0  0  0  0  0  0  0  0  0  0  0  0
   -3.5863    0.9930    0.5583 N   0  0  0  0  0  0  0  0  0  0  0  0
   -4.6173    1.4281   -0.3598 C   0  0  0  0  0  0  0  0  0  0  0  0
   -3.8637    1.5220   -1.6741 C   0  0  0  0  0  0  0  0  0  0  0  0
   -2.9791    0.2781   -1.6200 C   0  0  0  0  0  0  0  0  0  0  0  0
   -2.7245    0.0289   -0.1126 C   0  0  1  0  0  0  0  0  0  0  0  0
   -1.2520    0.2441    0.2533 C   0  0  0  0  0  0  0  0  0  0  0  0
   -2.9032   -1.4612    0.2256 C   0  0  0  0  0  0  0  0  0  0  0  0
   -1.6116   -2.0749   -0.2933 C   0  0  0  0  0  0  0  0  0  0  0  0
   -0.6343   -1.0189   -0.0819 N   0  0  0  0  0  0  0  0  0  0  0  0
    0.7012   -1.2005   -0.2175 C   0  0  0  0  0  0  0  0  0  0  0  0
    1.6151   -0.1824    0.1050 C   0  0  0  0  0  0  0  0  0  0  0  0
    2.9725   -0.4114   -0.0576 C   0  0  0  0  0  0  0  0  0  0  0  0
    3.9476    0.4662    0.2301 O   0  0  0  0  0  0  0  0  0  0  0  0
    3.6389    1.8075    0.6239 C   0  0  1  0  0  0  0  0  0  0  0  0
    4.8955    2.3546    1.2710 C   0  0  0  0  0  0  0  0  0  0  0  0
    3.2078    2.6429   -0.5699 C   0  0  0  0  0  0  0  0  0  0  0  0
    3.3920   -1.6581   -0.5355 C   0  0  0  0  0  0  0  0  0  0  0  0
    2.5343   -2.6180   -0.8305 N   0  0  0  0  0  0  0  0  0  0  0  0
    1.2351   -2.4158   -0.6861 C   0  0  0  0  0  0  0  0  0  0  0  0
   -4.7544   -0.1461    1.9415 H   0  0  0  0  0  0  0  0  0  0  0  0
   -3.1989    0.4472    2.5427 H   0  0  0  0  0  0  0  0  0  0  0  0
   -4.5302    1.5654    2.3149 H   0  0  0  0  0  0  0  0  0  0  0  0
   -5.4513    0.7099   -0.4403 H   0  0  0  0  0  0  0  0  0  0  0  0
   -5.0429    2.3814   -0.0356 H   0  0  0  0  0  0  0  0  0  0  0  0
   -4.5200    1.5343   -2.5439 H   0  0  0  0  0  0  0  0  0  0  0  0
   -3.2624    2.4332   -1.6937 H   0  0  0  0  0  0  0  0  0  0  0  0
   -3.5133   -0.5721   -2.0504 H   0  0  0  0  0  0  0  0  0  0  0  0
   -2.0523    0.3866   -2.1850 H   0  0  0  0  0  0  0  0  0  0  0  0
   -0.8238    1.0738   -0.3172 H   0  0  0  0  0  0  0  0  0  0  0  0
   -1.1416    0.4847    1.3188 H   0  0  0  0  0  0  0  0  0  0  0  0
   -2.9693   -1.6093    1.3058 H   0  0  0  0  0  0  0  0  0  0  0  0
   -3.7889   -1.9051   -0.2297 H   0  0  0  0  0  0  0  0  0  0  0  0
   -1.3382   -2.9838    0.2488 H   0  0  0  0  0  0  0  0  0  0  0  0
   -1.6916   -2.3412   -1.3547 H   0  0  0  0  0  0  0  0  0  0  0  0
    1.2513    0.7586    0.4917 H   0  0  0  0  0  0  0  0  0  0  0  0
    2.8410    1.7933    1.3745 H   0  0  0  0  0  0  0  0  0  0  0  0
    5.7244    2.3836    0.5619 H   0  0  0  0  0  0  0  0  0  0  0  0
    4.7172    3.3710    1.6211 H   0  0  0  0  0  0  0  0  0  0  0  0
    5.1942    1.7546    2.1309 H   0  0  0  0  0  0  0  0  0  0  0  0
    4.0031    2.6927   -1.3154 H   0  0  0  0  0  0  0  0  0  0  0  0
    2.3114    2.2551   -1.0549 H   0  0  0  0  0  0  0  0  0  0  0  0
    2.9869    3.6596   -0.2444 H   0  0  0  0  0  0  0  0  0  0  0  0
    4.4492   -1.8619   -0.6696 H   0  0  0  0  0  0  0  0  0  0  0  0
    0.5850   -3.2398   -0.9559 H   0  0  0  0  0  0  0  0  0  0  0  0
 17 15  1  0
 14 15  1  0
 14 13  1  0
 18 13  1  0
 18 19  2  0
 15 16  1  0
 13 12  2  0
 19 20  1  0
 12 11  1  0
 20 11  2  0
 11 10  1  0
 10  7  1  0
 10  9  1  0
  7  6  1  0
  9  8  1  0
  8  6  1  0
  6  5  1  0
  6  2  1  1
  5  4  1  0
  2  3  1  0
  2  1  1  0
  4  3  1  0
  1 21  1  0
  1 22  1  0
  1 23  1  0
  3 24  1  0
  3 25  1  0
  4 26  1  0
  4 27  1  0
  5 28  1  0
  5 29  1  0
  7 30  1  0
  7 31  1  0
  8 32  1  0
  8 33  1  0
  9 34  1  0
  9 35  1  0
 12 36  1  0
 15 37  1  1
 16 38  1  0
 16 39  1  0
 16 40  1  0
 17 41  1  0
 17 42  1  0
 17 43  1  0
 18 44  1  0
 20 45  1  0
M  END
