
     RDKit          3D

 43 43  0  0  0  0  0  0  0  0999 V2000
   38.5280   37.5335  -10.7620 C   0  0  2  0  0  0  0  0  0  0  0  0
   39.0948   37.4048   -9.0936 Cl  0  0  0  0  0  0  0  0  0  0  0  0
   38.2176   35.9244  -11.4401 Cl  0  0  0  0  0  0  0  0  0  0  0  0
   39.6146   38.2003  -11.6078 C   0  0  0  0  0  0  0  0  0  0  0  0
   40.7535   37.7937  -11.6010 O   0  0  0  0  0  0  0  0  0  0  0  0
   39.1554   39.2315  -12.3341 N   0  0  0  0  0  0  0  0  0  0  0  0
   39.9918   40.0091  -13.2241 C   0  0  2  0  0  0  0  0  0  0  0  0
   39.7089   41.4949  -13.0396 C   0  0  0  0  0  0  0  0  0  0  0  0
   39.7969   39.5906  -14.6959 C   0  0  2  0  0  0  0  0  0  0  0  0
   38.5229   39.9146  -15.1796 O   0  0  0  0  0  0  0  0  0  0  0  0
   40.1592   38.1313  -14.8525 C   0  0  0  0  0  0  0  0  0  0  0  0
   41.5034   37.7740  -14.9276 C   0  0  0  0  0  0  0  0  0  0  0  0
   41.8883   36.4500  -14.9975 C   0  0  0  0  0  0  0  0  0  0  0  0
   40.9049   35.4700  -14.9870 C   0  0  0  0  0  0  0  0  0  0  0  0
   41.2944   34.0714  -15.0505 N   0  0  0  0  0  0  0  0  0  0  0  0
   40.4218   33.2350  -15.0333 O   0  0  0  0  0  0  0  0  0  0  0  0
   42.4733   33.8118  -15.1166 O   0  0  0  0  0  0  0  0  0  0  0  0
   39.5604   35.7959  -14.9216 C   0  0  0  0  0  0  0  0  0  0  0  0
   39.1955   37.1301  -14.8612 C   0  0  0  0  0  0  0  0  0  0  0  0
   39.9961   41.9057  -11.7052 O   0  0  0  0  0  0  0  0  0  0  0  0
   43.3736   40.6013   -9.6958 O   0  0  0  0  0  0  0  0  0  0  0  0
   43.7312   41.7519   -9.6709 C   0  0  0  0  0  0  0  0  0  0  0  0
   45.0071   42.1216   -9.6942 O   0  0  0  0  0  0  0  0  0  0  0  0
   42.8058   42.9334   -9.5643 C   0  0  0  0  0  0  0  0  0  0  0  0
   41.3804   42.5940   -9.9440 C   0  0  0  0  0  0  0  0  0  0  0  0
   41.2554   42.2028  -11.3902 C   0  0  0  0  0  0  0  0  0  0  0  0
   42.1665   42.1701  -12.1770 O   0  0  0  0  0  0  0  0  0  0  0  0
   37.5846   38.0747  -10.7524 H   0  0  0  0  0  0  0  0  0  0  0  0
   38.1993   39.5252  -12.2001 H   0  0  0  0  0  0  0  0  0  0  0  0
   41.0316   39.8074  -12.9618 H   0  0  0  0  0  0  0  0  0  0  0  0
   40.2794   42.0772  -13.7646 H   0  0  0  0  0  0  0  0  0  0  0  0
   38.6523   41.7148  -13.1878 H   0  0  0  0  0  0  0  0  0  0  0  0
   40.5001   40.1807  -15.2907 H   0  0  0  0  0  0  0  0  0  0  0  0
   37.8431   39.4759  -14.6572 H   0  0  0  0  0  0  0  0  0  0  0  0
   42.2672   38.5416  -14.9301 H   0  0  0  0  0  0  0  0  0  0  0  0
   38.1395   37.3599  -14.8203 H   0  0  0  0  0  0  0  0  0  0  0  0
   42.9362   36.1960  -15.0594 H   0  0  0  0  0  0  0  0  0  0  0  0
   38.7968   35.0326  -14.9149 H   0  0  0  0  0  0  0  0  0  0  0  0
   45.5786   41.3395   -9.7201 H   0  0  0  0  0  0  0  0  0  0  0  0
   42.8298   43.2737   -8.5248 H   0  0  0  0  0  0  0  0  0  0  0  0
   43.1896   43.7632  -10.1591 H   0  0  0  0  0  0  0  0  0  0  0  0
   40.9875   41.7855   -9.3237 H   0  0  0  0  0  0  0  0  0  0  0  0
   40.7319   43.4537   -9.7598 H   0  0  0  0  0  0  0  0  0  0  0  0
  1  2  1  0
  1  3  1  0
  1  4  1  0
  4  5  2  0
  4  6  1  0
  6  7  1  0
  7  8  1  0
  7  9  1  0
  8 20  1  0
  9 10  1  0
  9 11  1  0
 11 12  2  0
 11 19  1  0
 12 13  1  0
 13 14  2  0
 14 15  1  0
 14 18  1  0
 15 16  1  0
 15 17  2  0
 18 19  2  0
 20 26  1  0
 21 22  2  0
 22 23  1  0
 22 24  1  0
 24 25  1  0
 25 26  1  0
 26 27  2  0
  1 28  1  1
  6 29  1  0
  7 30  1  1
  8 31  1  0
  8 32  1  0
  9 33  1  6
 10 34  1  0
 12 35  1  0
 19 36  1  0
 13 37  1  0
 18 38  1  0
 23 39  1  0
 24 40  1  0
 24 41  1  0
 25 42  1  0
 25 43  1  0
M  CHG  2  15   1  16  -1
M  END
