
     RDKit          3D

 45 48  0  0  0  0  0  0  0  0999 V2000
   -1.2028    0.7573   -0.6806 C   0  0  1  0  0  0  0  0  0  0  0  0
   -2.3140    1.3831    0.1958 C   0  0  2  0  0  0  0  0  0  0  0  0
   -3.6930    0.8079   -0.0619 C   0  0  0  0  0  0  0  0  0  0  0  0
   -2.3973    2.7643   -0.0770 O   0  0  0  0  0  0  0  0  0  0  0  0
   -1.2052    3.4694    0.2098 C   0  0  2  0  0  0  0  0  0  0  0  0
   -1.4382    4.9348   -0.0840 C   0  0  0  0  0  0  0  0  0  0  0  0
   -0.0792    2.8953   -0.6296 C   0  0  0  0  0  0  0  0  0  0  0  0
    0.0480    1.4641   -0.4163 N   0  0  0  0  0  0  0  0  0  0  0  0
    1.2364    0.8684   -0.1409 C   0  0  0  0  0  0  0  0  0  0  0  0
    2.3168    1.5628    0.4372 C   0  0  0  0  0  0  0  0  0  0  0  0
    3.4988    0.9214    0.7253 C   0  0  0  0  0  0  0  0  0  0  0  0
    3.6382   -0.4355    0.4511 C   0  0  0  0  0  0  0  0  0  0  0  0
    2.5857   -1.1426   -0.1256 C   0  0  0  0  0  0  0  0  0  0  0  0
    1.4121   -0.5002   -0.4351 C   0  0  0  0  0  0  0  0  0  0  0  0
    0.3004   -1.2046   -1.1321 C   0  0  0  0  0  0  0  0  0  0  0  0
   -1.0750   -0.7775   -0.5424 C   0  0  1  0  0  0  0  0  0  0  0  0
   -1.1610   -1.2903    0.8717 C   0  0  0  0  0  0  0  0  0  0  0  0
   -0.4501   -0.6037    1.7292 O   0  0  0  0  0  0  0  0  0  0  0  0
   -1.8081   -2.3218    1.2484 N   0  0  0  0  0  0  0  0  0  0  0  0
   -2.5570   -3.0370    0.3233 C   0  0  0  0  0  0  0  0  0  0  0  0
   -3.0678   -4.0832    0.6494 O   0  0  0  0  0  0  0  0  0  0  0  0
   -2.7484   -2.5543   -0.9658 N   0  0  0  0  0  0  0  0  0  0  0  0
   -2.1163   -1.5169   -1.3478 C   0  0  0  0  0  0  0  0  0  0  0  0
   -2.2759   -1.0502   -2.5611 O   0  0  0  0  0  0  0  0  0  0  0  0
    4.8641   -1.1078    0.7589 N   0  0  0  0  0  0  0  0  0  0  0  0
    4.9457   -2.2975    0.5289 O   0  0  0  0  0  0  0  0  0  0  0  0
    5.7742   -0.4626    1.2383 O   0  0  0  0  0  0  0  0  0  0  0  0
   -1.4739    0.9581   -1.7237 H   0  0  0  0  0  0  0  0  0  0  0  0
   -2.0505    1.2427    1.2527 H   0  0  0  0  0  0  0  0  0  0  0  0
   -3.7850   -0.2199    0.2855 H   0  0  0  0  0  0  0  0  0  0  0  0
   -4.4323    1.3849    0.4931 H   0  0  0  0  0  0  0  0  0  0  0  0
   -3.9605    0.8454   -1.1186 H   0  0  0  0  0  0  0  0  0  0  0  0
   -0.9478    3.3431    1.2723 H   0  0  0  0  0  0  0  0  0  0  0  0
   -2.2571    5.3261    0.5193 H   0  0  0  0  0  0  0  0  0  0  0  0
   -0.5448    5.5120    0.1530 H   0  0  0  0  0  0  0  0  0  0  0  0
   -1.6778    5.0948   -1.1363 H   0  0  0  0  0  0  0  0  0  0  0  0
   -0.2901    3.0755   -1.6917 H   0  0  0  0  0  0  0  0  0  0  0  0
    0.8532    3.4027   -0.4007 H   0  0  0  0  0  0  0  0  0  0  0  0
    2.2309    2.6063    0.7014 H   0  0  0  0  0  0  0  0  0  0  0  0
    4.3011    1.4818    1.1829 H   0  0  0  0  0  0  0  0  0  0  0  0
    2.6878   -2.1934   -0.3607 H   0  0  0  0  0  0  0  0  0  0  0  0
    0.2988   -0.9403   -2.1931 H   0  0  0  0  0  0  0  0  0  0  0  0
    0.4196   -2.2873   -1.0710 H   0  0  0  0  0  0  0  0  0  0  0  0
   -0.5137   -1.0092    2.6093 H   0  0  0  0  0  0  0  0  0  0  0  0
   -2.9141   -1.5982   -3.0451 H   0  0  0  0  0  0  0  0  0  0  0  0
  6  5  1  0
  7  5  1  0
  7  8  1  0
  5  4  1  0
 10 11  1  0
 10  9  2  0
 11 12  2  0
 26 25  2  0
  4  2  1  0
  8  9  1  0
  8  1  1  0
  9 14  1  0
 12 25  1  0
 12 13  1  0
 25 27  1  0
  2  1  1  0
  2  3  1  0
  1 16  1  0
 14 13  2  0
 14 15  1  0
 18 17  1  0
 16 15  1  0
 16 17  1  1
 16 23  1  0
 17 19  2  0
 24 23  1  0
 23 22  2  0
 19 20  1  0
 22 20  1  0
 20 21  2  0
  1 28  1  6
  2 29  1  1
  3 30  1  0
  3 31  1  0
  3 32  1  0
  5 33  1  1
  6 34  1  0
  6 35  1  0
  6 36  1  0
  7 37  1  0
  7 38  1  0
 10 39  1  0
 11 40  1  0
 13 41  1  0
 15 42  1  0
 15 43  1  0
 18 44  1  0
 24 45  1  0
M  CHG  2  25   1  27  -1
M  END
