
     RDKit          3D

 16 16  0  0  0  0  0  0  0  0999 V2000
    1.2006    1.1264   -0.0586 C   0  0  0  0  0  0  0  0  0  0  0  0
   -0.0119    1.8128   -0.0760 C   0  0  0  0  0  0  0  0  0  0  0  0
   -1.1972    1.1139   -0.0770 C   0  0  0  0  0  0  0  0  0  0  0  0
    1.1661   -0.2594   -0.0376 C   0  0  0  0  0  0  0  0  0  0  0  0
   -1.1341   -0.2912   -0.0592 C   0  0  0  0  0  0  0  0  0  0  0  0
    0.0224   -0.9469   -0.0367 N   0  0  0  0  0  0  0  0  0  0  0  0
   -2.2720   -1.0423   -0.1106 N   0  0  0  0  0  0  0  0  0  0  0  0
    2.1429    1.6569   -0.0567 H   0  0  0  0  0  0  0  0  0  0  0  0
   -0.0249    2.8953   -0.0882 H   0  0  0  0  0  0  0  0  0  0  0  0
   -2.1519    1.6236   -0.0922 H   0  0  0  0  0  0  0  0  0  0  0  0
    2.4610   -1.7009    0.8790 H   0  0  0  0  0  0  0  0  0  0  0  0
    2.4779   -1.7333   -0.8759 H   0  0  0  0  0  0  0  0  0  0  0  0
    3.3129   -0.4381   -0.0142 H   0  0  0  0  0  0  0  0  0  0  0  0
   -3.1336   -0.6074    0.1734 H   0  0  0  0  0  0  0  0  0  0  0  0
   -2.1840   -2.0060    0.1666 H   0  0  0  0  0  0  0  0  0  0  0  0
    2.4266   -1.0703   -0.0108 C   0  0  0  0  0  0  0  0  0  0  0  0
  2  1  2  0
  2  3  1  0
  1  4  1  0
  3  5  2  0
  4 16  1  0
  4  6  2  0
  5  6  1  0
  5  7  1  0
  1  8  1  0
  2  9  1  0
  3 10  1  0
 16 11  1  0
 16 12  1  0
 16 13  1  0
  7 14  1  0
  7 15  1  0
M  END
