
     RDKit          3D

 53 56  0  0  0  0  0  0  0  0999 V2000
    9.2010    1.3188    0.8184 C   0  0  0  0  0  0  0  0  0  0  0  0
    8.2261    0.2963    0.7614 O   0  0  0  0  0  0  0  0  0  0  0  0
    6.9883    0.6050    0.3365 C   0  0  0  0  0  0  0  0  0  0  0  0
    6.5972    1.8880   -0.0280 C   0  0  0  0  0  0  0  0  0  0  0  0
    5.2887    2.0875   -0.4669 C   0  0  0  0  0  0  0  0  0  0  0  0
    4.9585    3.3411   -0.8314 O   0  0  0  0  0  0  0  0  0  0  0  0
    4.3793    1.0414   -0.5413 C   0  0  0  0  0  0  0  0  0  0  0  0
    4.7815   -0.2373   -0.1447 C   0  0  0  0  0  0  0  0  0  0  0  0
    3.9366   -1.3367   -0.2279 N   0  0  0  0  0  0  0  0  0  0  0  0
    2.5688   -1.3932   -0.1236 C   0  0  0  0  0  0  0  0  0  0  0  0
    1.9196   -2.5625   -0.5502 C   0  0  0  0  0  0  0  0  0  0  0  0
    0.5521   -2.6903   -0.4483 C   0  0  0  0  0  0  0  0  0  0  0  0
   -0.2345   -1.6534    0.0576 C   0  0  0  0  0  0  0  0  0  0  0  0
    0.4143   -0.5032    0.5059 C   0  0  0  0  0  0  0  0  0  0  0  0
    1.7883   -0.3709    0.4306 C   0  0  0  0  0  0  0  0  0  0  0  0
   -1.7035   -1.8511    0.1296 C   0  0  0  0  0  0  0  0  0  0  0  0
   -2.2004   -2.9656    0.1405 O   0  0  0  0  0  0  0  0  0  0  0  0
   -2.4404   -0.7059    0.1637 N   0  0  0  0  0  0  0  0  0  0  0  0
   -3.8278   -0.5709    0.2414 C   0  0  0  0  0  0  0  0  0  0  0  0
   -4.6937   -1.5717    0.6903 C   0  0  0  0  0  0  0  0  0  0  0  0
   -6.0525   -1.3194    0.7498 C   0  0  0  0  0  0  0  0  0  0  0  0
   -6.5979   -0.0926    0.3843 C   0  0  0  0  0  0  0  0  0  0  0  0
   -8.0840    0.1383    0.4394 C   0  0  0  0  0  0  0  0  0  0  0  0
   -8.4327    1.6096    0.4335 C   0  0  0  0  0  0  0  0  0  0  0  0
   -7.6822    2.2838   -0.6613 N   0  0  0  0  0  0  0  0  0  0  0  0
   -6.2173    2.2702   -0.4345 C   0  0  0  0  0  0  0  0  0  0  0  0
   -5.7290    0.9011   -0.0564 C   0  0  0  0  0  0  0  0  0  0  0  0
   -4.3645    0.6590   -0.1286 C   0  0  0  0  0  0  0  0  0  0  0  0
    6.0836   -0.4553    0.2921 C   0  0  0  0  0  0  0  0  0  0  0  0
   -7.9070    1.8440   -1.5554 H   0  0  0  0  0  0  0  0  0  0  0  0
   -7.9938    3.2510   -0.7525 H   0  0  0  0  0  0  0  0  0  0  0  0
    9.3824    1.7646   -0.1629 H   0  0  0  0  0  0  0  0  0  0  0  0
    8.9245    2.1102    1.5197 H   0  0  0  0  0  0  0  0  0  0  0  0
   10.1189    0.8505    1.1649 H   0  0  0  0  0  0  0  0  0  0  0  0
    7.2722    2.7320    0.0085 H   0  0  0  0  0  0  0  0  0  0  0  0
    4.0377    3.3776   -1.1128 H   0  0  0  0  0  0  0  0  0  0  0  0
    3.3883    1.2171   -0.9400 H   0  0  0  0  0  0  0  0  0  0  0  0
    4.3985   -2.2239   -0.3521 H   0  0  0  0  0  0  0  0  0  0  0  0
    2.5024   -3.3740   -0.9693 H   0  0  0  0  0  0  0  0  0  0  0  0
    0.0848   -3.6044   -0.7893 H   0  0  0  0  0  0  0  0  0  0  0  0
   -0.1389    0.3066    0.9654 H   0  0  0  0  0  0  0  0  0  0  0  0
    2.2484    0.5207    0.8306 H   0  0  0  0  0  0  0  0  0  0  0  0
   -1.9474    0.1536   -0.0221 H   0  0  0  0  0  0  0  0  0  0  0  0
   -4.3236   -2.5348    0.9998 H   0  0  0  0  0  0  0  0  0  0  0  0
   -6.7098   -2.1058    1.1015 H   0  0  0  0  0  0  0  0  0  0  0  0
   -8.5715   -0.3579   -0.4053 H   0  0  0  0  0  0  0  0  0  0  0  0
   -8.5063   -0.3067    1.3412 H   0  0  0  0  0  0  0  0  0  0  0  0
   -9.4920    1.7780    0.2596 H   0  0  0  0  0  0  0  0  0  0  0  0
   -8.1432    2.1026    1.3604 H   0  0  0  0  0  0  0  0  0  0  0  0
   -5.7422    2.6294   -1.3452 H   0  0  0  0  0  0  0  0  0  0  0  0
   -6.0188    2.9920    0.3580 H   0  0  0  0  0  0  0  0  0  0  0  0
   -3.7056    1.4455   -0.4817 H   0  0  0  0  0  0  0  0  0  0  0  0
    6.4002   -1.4446    0.5994 H   0  0  0  0  0  0  0  0  0  0  0  0
  1  2  1  0
  1 32  1  0
  1 33  1  0
  1 34  1  0
  2  3  1  0
  3  4  2  0
  3 29  1  0
  4  5  1  0
  4 35  1  0
  5  6  1  0
  5  7  2  0
  6 36  1  0
  7  8  1  0
  7 37  1  0
  8  9  1  0
  8 29  2  0
  9 10  1  0
  9 38  1  0
 10 11  2  0
 10 15  1  0
 11 12  1  0
 11 39  1  0
 12 13  2  0
 12 40  1  0
 13 14  1  0
 13 16  1  0
 14 15  2  0
 14 41  1  0
 15 42  1  0
 16 17  2  0
 16 18  1  0
 18 19  1  0
 18 43  1  0
 19 20  2  0
 19 28  1  0
 20 21  1  0
 20 44  1  0
 21 22  2  0
 21 45  1  0
 22 23  1  0
 22 27  1  0
 23 24  1  0
 23 46  1  0
 23 47  1  0
 24 25  1  0
 24 48  1  0
 24 49  1  0
 25 26  1  0
 25 30  1  0
 25 31  1  0
 26 27  1  0
 26 50  1  0
 26 51  1  0
 27 28  2  0
 28 52  1  0
 29 53  1  0
M  CHG  1  25   1
M  END
