
     RDKit          3D

 66 65  0  0  0  0  0  0  0  0999 V2000
   -6.2398    0.0492    0.0607 C   0  0  0  0  0  0  0  0  0  0  0  0
   -5.8243    0.2845    1.1708 O   0  0  0  0  0  0  0  0  0  0  0  0
   -5.2355   -0.6841   -1.2020 S   0  0  0  0  0  0  0  0  0  0  0  0
   -7.6018    0.3246   -0.4180 C   0  0  0  0  0  0  0  0  0  0  0  0
   -8.5273    0.8746    0.3720 C   0  0  0  0  0  0  0  0  0  0  0  0
   -9.9223    1.1778   -0.0460 C   0  0  0  0  0  0  0  0  0  0  0  0
  -10.9531    0.3846    0.7623 C   0  0  0  0  0  0  0  0  0  0  0  0
  -12.3826    0.7512    0.3837 C   0  0  0  0  0  0  0  0  0  0  0  0
  -13.4298   -0.0394    1.1581 C   0  0  0  0  0  0  0  0  0  0  0  0
  -14.8533    0.3398    0.7728 C   0  0  0  0  0  0  0  0  0  0  0  0
    8.1320    2.7426   -1.4262 O   0  0  0  0  0  0  0  0  0  0  0  0
    8.5509    2.3039   -0.0821 P   0  0  1  0  0  0  0  0  0  0  0  0
    8.7543    3.4192    1.0387 O   0  0  0  0  0  0  0  0  0  0  0  0
    7.5233    1.4008    0.7328 O   0  0  0  0  0  0  0  0  0  0  0  0
    9.9125    1.4717   -0.1953 O   0  0  0  0  0  0  0  0  0  0  0  0
    6.2496   -0.5921    1.1613 C   0  0  2  0  0  0  0  0  0  0  0  0
    7.3015   -1.0960    2.1538 C   0  0  0  0  0  0  0  0  0  0  0  0
    5.1857    0.2066    1.9189 C   0  0  0  0  0  0  0  0  0  0  0  0
    5.6035   -1.8399    0.4953 C   0  0  2  0  0  0  0  0  0  0  0  0
    6.5371   -2.6274   -0.1923 O   0  0  0  0  0  0  0  0  0  0  0  0
    4.4627   -1.4950   -0.4626 C   0  0  0  0  0  0  0  0  0  0  0  0
    4.7000   -1.2843   -1.6475 O   0  0  0  0  0  0  0  0  0  0  0  0
    3.2341   -1.4590    0.0540 N   0  0  0  0  0  0  0  0  0  0  0  0
    2.0619   -1.1421   -0.7378 C   0  0  0  0  0  0  0  0  0  0  0  0
    0.8072   -1.3669    0.0916 C   0  0  0  0  0  0  0  0  0  0  0  0
   -0.4386   -1.0308   -0.6992 C   0  0  0  0  0  0  0  0  0  0  0  0
   -0.5171   -0.0193   -1.3813 O   0  0  0  0  0  0  0  0  0  0  0  0
   -1.4426   -1.9172   -0.5890 N   0  0  0  0  0  0  0  0  0  0  0  0
   -2.7292   -1.7309   -1.2137 C   0  0  0  0  0  0  0  0  0  0  0  0
   -3.6589   -0.9005   -0.3332 C   0  0  0  0  0  0  0  0  0  0  0  0
   -7.8347    0.0671   -1.4461 H   0  0  0  0  0  0  0  0  0  0  0  0
   -8.2677    1.1183    1.3987 H   0  0  0  0  0  0  0  0  0  0  0  0
  -10.1030    2.2474    0.1081 H   0  0  0  0  0  0  0  0  0  0  0  0
  -10.0517    0.9801   -1.1127 H   0  0  0  0  0  0  0  0  0  0  0  0
  -10.7926   -0.6854    0.6008 H   0  0  0  0  0  0  0  0  0  0  0  0
  -10.7999    0.5645    1.8309 H   0  0  0  0  0  0  0  0  0  0  0  0
  -12.5361    1.8226    0.5526 H   0  0  0  0  0  0  0  0  0  0  0  0
  -12.5254    0.5879   -0.6900 H   0  0  0  0  0  0  0  0  0  0  0  0
  -13.2766   -1.1093    0.9866 H   0  0  0  0  0  0  0  0  0  0  0  0
  -13.2855    0.1202    2.2311 H   0  0  0  0  0  0  0  0  0  0  0  0
  -15.0449    1.3967    0.9661 H   0  0  0  0  0  0  0  0  0  0  0  0
  -15.0341    0.1613   -0.2887 H   0  0  0  0  0  0  0  0  0  0  0  0
  -15.5888   -0.2372    1.3344 H   0  0  0  0  0  0  0  0  0  0  0  0
    9.2882    4.1725    0.7528 H   0  0  0  0  0  0  0  0  0  0  0  0
    6.1665    0.6490   -0.6239 H   0  0  0  0  0  0  0  0  0  0  0  0
    7.6535   -0.3004   -0.4597 H   0  0  0  0  0  0  0  0  0  0  0  0
   10.3020    1.1861    0.6417 H   0  0  0  0  0  0  0  0  0  0  0  0
    7.7821   -0.2676    2.6731 H   0  0  0  0  0  0  0  0  0  0  0  0
    6.8338   -1.7300    2.9100 H   0  0  0  0  0  0  0  0  0  0  0  0
    8.0767   -1.6826    1.6606 H   0  0  0  0  0  0  0  0  0  0  0  0
    4.4946    0.7229    1.2518 H   0  0  0  0  0  0  0  0  0  0  0  0
    4.6000   -0.4449    2.5710 H   0  0  0  0  0  0  0  0  0  0  0  0
    5.6506    0.9591    2.5548 H   0  0  0  0  0  0  0  0  0  0  0  0
    5.2083   -2.4497    1.3160 H   0  0  0  0  0  0  0  0  0  0  0  0
    6.5498   -2.3351   -1.1129 H   0  0  0  0  0  0  0  0  0  0  0  0
    3.1110   -1.6738    1.0310 H   0  0  0  0  0  0  0  0  0  0  0  0
    2.1065   -0.1075   -1.0813 H   0  0  0  0  0  0  0  0  0  0  0  0
    2.0424   -1.7804   -1.6237 H   0  0  0  0  0  0  0  0  0  0  0  0
    0.7775   -2.3955    0.4568 H   0  0  0  0  0  0  0  0  0  0  0  0
    0.8213   -0.7156    0.9715 H   0  0  0  0  0  0  0  0  0  0  0  0
   -1.3231   -2.7182    0.0093 H   0  0  0  0  0  0  0  0  0  0  0  0
   -2.5890   -1.2529   -2.1832 H   0  0  0  0  0  0  0  0  0  0  0  0
   -3.1622   -2.7141   -1.3956 H   0  0  0  0  0  0  0  0  0  0  0  0
   -3.2240    0.0774   -0.1291 H   0  0  0  0  0  0  0  0  0  0  0  0
   -3.8422   -1.4074    0.6137 H   0  0  0  0  0  0  0  0  0  0  0  0
    6.9042    0.2775    0.0899 C   0  0  0  0  0  0  0  0  0  0  0  0
  1  2  2  0
  1  3  1  0
  1  4  1  0
  3 30  1  0
  4  5  2  0
  5  6  1  0
  6  7  1  0
  7  8  1  0
  8  9  1  0
  9 10  1  0
 11 12  2  0
 12 13  1  1
 12 14  1  0
 12 15  1  0
 14 66  1  0
 16 66  1  6
 16 17  1  0
 16 18  1  0
 16 19  1  0
 19 20  1  0
 19 21  1  0
 21 22  2  0
 21 23  1  0
 23 24  1  0
 24 25  1  0
 25 26  1  0
 26 27  2  0
 26 28  1  0
 28 29  1  0
 29 30  1  0
  4 31  1  0
  5 32  1  0
  6 33  1  0
  6 34  1  0
  7 35  1  0
  7 36  1  0
  8 37  1  0
  8 38  1  0
  9 39  1  0
  9 40  1  0
 10 41  1  0
 10 42  1  0
 10 43  1  0
 13 44  1  0
 66 45  1  0
 66 46  1  0
 15 47  1  0
 17 48  1  0
 17 49  1  0
 17 50  1  0
 18 51  1  0
 18 52  1  0
 18 53  1  0
 19 54  1  1
 20 55  1  0
 23 56  1  0
 24 57  1  0
 24 58  1  0
 25 59  1  0
 25 60  1  0
 28 61  1  0
 29 62  1  0
 29 63  1  0
 30 64  1  0
 30 65  1  0
M  END
