
     RDKit          3D

 25 24  0  0  0  0  0  0  0  0999 V2000
    3.8683   -1.1487   -0.2891 C   0  0  0  0  0  0  0  0  0  0  0  0
    2.9950   -0.4237    0.3982 C   0  0  0  0  0  0  0  0  0  0  0  0
    1.8026    0.2628   -0.2049 C   0  0  2  0  0  0  0  0  0  0  0  0
    1.8764    1.6651   -0.0091 O   0  0  0  0  0  0  0  0  0  0  0  0
    0.5020   -0.3277    0.3339 C   0  0  0  0  0  0  0  0  0  0  0  0
   -0.7536    0.2762   -0.2829 C   0  0  0  0  0  0  0  0  0  0  0  0
   -2.0318   -0.3623    0.2458 C   0  0  0  0  0  0  0  0  0  0  0  0
   -3.2950    0.2201   -0.3756 C   0  0  0  0  0  0  0  0  0  0  0  0
   -4.5686   -0.4180    0.1606 C   0  0  0  0  0  0  0  0  0  0  0  0
    4.7062   -1.6385    0.1896 H   0  0  0  0  0  0  0  0  0  0  0  0
    3.7760   -1.2835   -1.3610 H   0  0  0  0  0  0  0  0  0  0  0  0
    3.1180   -0.3126    1.4740 H   0  0  0  0  0  0  0  0  0  0  0  0
    1.8271    0.1169   -1.2902 H   0  0  0  0  0  0  0  0  0  0  0  0
    1.7315    1.8474    0.9260 H   0  0  0  0  0  0  0  0  0  0  0  0
    0.5155   -1.4062    0.1485 H   0  0  0  0  0  0  0  0  0  0  0  0
    0.4737   -0.2123    1.4248 H   0  0  0  0  0  0  0  0  0  0  0  0
   -0.7830    1.3528   -0.0937 H   0  0  0  0  0  0  0  0  0  0  0  0
   -0.7131    0.1583   -1.3717 H   0  0  0  0  0  0  0  0  0  0  0  0
   -2.0028   -1.4425    0.0640 H   0  0  0  0  0  0  0  0  0  0  0  0
   -2.0748   -0.2419    1.3344 H   0  0  0  0  0  0  0  0  0  0  0  0
   -3.3217    1.2995   -0.1956 H   0  0  0  0  0  0  0  0  0  0  0  0
   -3.2524    0.0968   -1.4622 H   0  0  0  0  0  0  0  0  0  0  0  0
   -5.4582    0.0149   -0.2983 H   0  0  0  0  0  0  0  0  0  0  0  0
   -4.5851   -1.4919   -0.0353 H   0  0  0  0  0  0  0  0  0  0  0  0
   -4.6541   -0.2817    1.2404 H   0  0  0  0  0  0  0  0  0  0  0  0
  1  2  2  0
  1 10  1  0
  1 11  1  0
  2  3  1  0
  2 12  1  0
  3  4  1  0
  3  5  1  0
  3 13  1  6
  4 14  1  0
  5  6  1  0
  5 15  1  0
  5 16  1  0
  6  7  1  0
  6 17  1  0
  6 18  1  0
  7  8  1  0
  7 19  1  0
  7 20  1  0
  8  9  1  0
  8 21  1  0
  8 22  1  0
  9 23  1  0
  9 24  1  0
  9 25  1  0
M  END
