
     RDKit          3D

 24 24  0  0  0  0  0  0  0  0999 V2000
    1.8858    1.0927   -0.4707 C   0  0  0  0  0  0  0  0  0  0  0  0
    0.2827    1.0941   -0.5155 C   0  0  1  0  0  0  0  0  0  0  0  0
   -0.2119    1.1108    0.7458 C   0  0  2  0  0  0  0  0  0  0  0  0
   -0.4033   -0.3720    1.1336 C   0  0  1  0  0  0  0  0  0  0  0  0
   -0.2387   -1.1947   -0.2226 C   0  0  1  0  0  0  0  0  0  0  0  0
   -1.4161   -2.1922   -0.3995 C   0  0  0  0  0  0  0  0  0  0  0  0
    2.3705    2.3860   -0.7562 O   0  0  0  0  0  0  0  0  0  0  0  0
   -0.1747    2.1626   -1.2142 O   0  0  0  0  0  0  0  0  0  0  0  0
   -1.4939    1.8064    0.7737 O   0  0  0  0  0  0  0  0  0  0  0  0
    0.5318   -0.7384    2.0001 O   0  0  0  0  0  0  0  0  0  0  0  0
   -0.2643   -0.2942   -1.1883 O   0  0  0  0  0  0  0  0  0  0  0  0
   -1.1939   -2.9944   -1.5747 O   0  0  0  0  0  0  0  0  0  0  0  0
    2.2166    0.7940    0.5230 H   0  0  0  0  0  0  0  0  0  0  0  0
    2.2918    0.3516   -1.2474 H   0  0  0  0  0  0  0  0  0  0  0  0
    0.4544    1.5575    1.3826 H   0  0  0  0  0  0  0  0  0  0  0  0
   -1.4317   -0.5342    1.5691 H   0  0  0  0  0  0  0  0  0  0  0  0
    0.7442   -1.7389   -0.2267 H   0  0  0  0  0  0  0  0  0  0  0  0
   -2.3452   -1.6365   -0.5111 H   0  0  0  0  0  0  0  0  0  0  0  0
   -1.4803   -2.8334    0.4629 H   0  0  0  0  0  0  0  0  0  0  0  0
    3.3200    2.3586   -0.8272 H   0  0  0  0  0  0  0  0  0  0  0  0
   -0.1180    1.9792   -2.1529 H   0  0  0  0  0  0  0  0  0  0  0  0
   -1.5335    2.3745    1.5570 H   0  0  0  0  0  0  0  0  0  0  0  0
    0.1418   -0.8991    2.8378 H   0  0  0  0  0  0  0  0  0  0  0  0
   -1.9342   -3.6399   -1.6784 H   0  0  0  0  0  0  0  0  0  0  0  0
  1  2  1  0
  1  7  1  0
  1 13  1  0
  1 14  1  0
  2  3  1  0
  2  8  1  6
  2 11  1  0
  3  4  1  0
  3  9  1  0
  3 15  1  1
  4  5  1  0
  4 10  1  0
  4 16  1  1
  5  6  1  0
  5 11  1  0
  5 17  1  1
  6 12  1  0
  6 18  1  0
  6 19  1  0
  7 20  1  0
  8 21  1  0
  9 22  1  0
 10 23  1  0
 12 24  1  0
M  END
