
     RDKit          3D

 34 36  0  0  0  0  0  0  0  0999 V2000
   -3.9688   -1.0157   -0.2271 C   0  0  0  0  0  0  0  0  0  0  0  0
   -5.0897   -0.2482    0.1096 C   0  0  0  0  0  0  0  0  0  0  0  0
   -4.9870    1.0543    0.5832 C   0  0  0  0  0  0  0  0  0  0  0  0
   -3.7459    1.6644    0.7474 C   0  0  0  0  0  0  0  0  0  0  0  0
   -2.6408    0.9129    0.4168 C   0  0  0  0  0  0  0  0  0  0  0  0
   -2.7438   -0.3878   -0.0551 C   0  0  0  0  0  0  0  0  0  0  0  0
   -1.3754   -0.8902   -0.3045 C   0  0  0  0  0  0  0  0  0  0  0  0
   -1.2095    1.2778    0.4846 C   0  0  0  0  0  0  0  0  0  0  0  0
   -0.5143    0.1562    0.0402 N   0  0  0  0  0  0  0  0  0  0  0  0
   -4.1110   -2.4153   -0.7367 C   0  0  0  0  0  0  0  0  0  0  0  0
   -1.0164   -1.9599   -0.7206 O   0  0  0  0  0  0  0  0  0  0  0  0
   -0.7085    2.3092    0.8475 O   0  0  0  0  0  0  0  0  0  0  0  0
    0.8924    0.0794   -0.0444 C   0  0  0  0  0  0  0  0  0  0  0  0
    1.5831    0.9541   -0.8754 C   0  0  0  0  0  0  0  0  0  0  0  0
    2.9615    0.8805   -0.9501 C   0  0  0  0  0  0  0  0  0  0  0  0
    3.6651   -0.0705   -0.2106 C   0  0  0  0  0  0  0  0  0  0  0  0
    2.9572   -0.9442    0.6123 C   0  0  0  0  0  0  0  0  0  0  0  0
    1.5771   -0.8681    0.7035 C   0  0  0  0  0  0  0  0  0  0  0  0
    5.1522   -0.1235   -0.3225 C   0  0  0  0  0  0  0  0  0  0  0  0
    5.8889   -1.1617    0.4760 C   0  0  0  0  0  0  0  0  0  0  0  0
    5.7387    0.6580   -1.0411 O   0  0  0  0  0  0  0  0  0  0  0  0
   -6.0735   -0.6860   -0.0053 H   0  0  0  0  0  0  0  0  0  0  0  0
   -5.8892    1.5992    0.8263 H   0  0  0  0  0  0  0  0  0  0  0  0
   -3.6594    2.6779    1.1152 H   0  0  0  0  0  0  0  0  0  0  0  0
   -3.7222   -2.5088   -1.7510 H   0  0  0  0  0  0  0  0  0  0  0  0
   -3.5628   -3.1245   -0.1170 H   0  0  0  0  0  0  0  0  0  0  0  0
   -5.1574   -2.7136   -0.7508 H   0  0  0  0  0  0  0  0  0  0  0  0
    1.0465    1.6828   -1.4681 H   0  0  0  0  0  0  0  0  0  0  0  0
    3.4940    1.5647   -1.5967 H   0  0  0  0  0  0  0  0  0  0  0  0
    3.4711   -1.6924    1.2004 H   0  0  0  0  0  0  0  0  0  0  0  0
    1.0412   -1.5382    1.3623 H   0  0  0  0  0  0  0  0  0  0  0  0
    5.5508   -2.1664    0.2184 H   0  0  0  0  0  0  0  0  0  0  0  0
    6.9579   -1.0928    0.2894 H   0  0  0  0  0  0  0  0  0  0  0  0
    5.7097   -1.0287    1.5443 H   0  0  0  0  0  0  0  0  0  0  0  0
  1  2  2  0
  1  6  1  0
  1 10  1  0
  2  3  1  0
  3  4  2  0
  4  5  1  0
  5  6  2  0
  5  8  1  0
  6  7  1  0
  7  9  1  0
  7 11  2  0
  8  9  1  0
  8 12  2  0
  9 13  1  0
 13 14  2  0
 13 18  1  0
 14 15  1  0
 15 16  2  0
 16 17  1  0
 16 19  1  0
 17 18  2  0
 19 20  1  0
 19 21  2  0
  2 22  1  0
  3 23  1  0
  4 24  1  0
 10 25  1  0
 10 26  1  0
 10 27  1  0
 14 28  1  0
 15 29  1  0
 17 30  1  0
 18 31  1  0
 20 32  1  0
 20 33  1  0
 20 34  1  0
M  END
