
     RDKit          3D

 51 54  0  0  0  0  0  0  0  0999 V2000
    1.2639    0.2727    0.9759 C   0  0  0  0  0  0  0  0  0  0  0  0
   -0.0200   -0.2986    0.3832 C   0  0  0  0  0  0  0  0  0  0  0  0
   -1.8400    1.1167   -0.5973 C   0  0  0  0  0  0  0  0  0  0  0  0
   -3.9135    1.7212    0.7436 C   0  0  1  0  0  0  0  0  0  0  0  0
   -4.9361    1.1984    1.7479 C   0  0  0  0  0  0  0  0  0  0  0  0
   -3.3420    3.0462    1.2422 C   0  0  0  0  0  0  0  0  0  0  0  0
   -3.3221   -0.6869    0.1846 C   0  0  0  0  0  0  0  0  0  0  0  0
   -3.9599   -0.9239   -1.0323 C   0  0  0  0  0  0  0  0  0  0  0  0
   -4.4747   -2.1775   -1.3300 C   0  0  0  0  0  0  0  0  0  0  0  0
   -4.3573   -3.2180   -0.4169 C   0  0  0  0  0  0  0  0  0  0  0  0
   -3.7233   -2.9928    0.7968 C   0  0  0  0  0  0  0  0  0  0  0  0
   -3.2110   -1.7359    1.0924 C   0  0  0  0  0  0  0  0  0  0  0  0
    0.3304    0.9230   -1.6836 C   0  0  0  0  0  0  0  0  0  0  0  0
    1.6169    1.5460   -1.1517 C   0  0  0  0  0  0  0  0  0  0  0  0
    4.8341   -1.8071   -0.5601 C   0  0  0  0  0  0  0  0  0  0  0  0
    4.0039   -0.7378   -0.3289 C   0  0  0  0  0  0  0  0  0  0  0  0
    4.4133    0.3645    0.4049 C   0  0  0  0  0  0  0  0  0  0  0  0
    5.6723    0.4499    0.9467 C   0  0  0  0  0  0  0  0  0  0  0  0
    6.5316   -0.6334    0.7199 C   0  0  0  0  0  0  0  0  0  0  0  0
    6.1230   -1.7341   -0.0159 C   0  0  0  0  0  0  0  0  0  0  0  0
    3.4062    1.2696    0.4564 O   0  0  0  0  0  0  0  0  0  0  0  0
    2.2540    0.6455   -0.1148 C   0  0  1  0  0  0  0  0  0  0  0  0
    2.7326   -0.5484   -0.7524 O   0  0  0  0  0  0  0  0  0  0  0  0
   -0.5830    0.6147   -0.5951 N   0  0  0  0  0  0  0  0  0  0  0  0
   -2.7896    0.6902    0.5238 C   0  0  1  0  0  0  0  0  0  0  0  0
   -2.2348    1.8491   -1.4954 O   0  0  0  0  0  0  0  0  0  0  0  0
    1.0281    1.1681    1.5561 H   0  0  0  0  0  0  0  0  0  0  0  0
    1.7100   -0.4551    1.6583 H   0  0  0  0  0  0  0  0  0  0  0  0
    0.1757   -1.2627   -0.0958 H   0  0  0  0  0  0  0  0  0  0  0  0
   -0.7193   -0.4893    1.1886 H   0  0  0  0  0  0  0  0  0  0  0  0
   -4.4217    1.8917   -0.2094 H   0  0  0  0  0  0  0  0  0  0  0  0
   -5.7104    1.9467    1.9230 H   0  0  0  0  0  0  0  0  0  0  0  0
   -5.4293    0.2896    1.4038 H   0  0  0  0  0  0  0  0  0  0  0  0
   -4.4658    0.9774    2.7095 H   0  0  0  0  0  0  0  0  0  0  0  0
   -2.8627    2.9175    2.2161 H   0  0  0  0  0  0  0  0  0  0  0  0
   -2.6060    3.4710    0.5607 H   0  0  0  0  0  0  0  0  0  0  0  0
   -4.1357    3.7845    1.3657 H   0  0  0  0  0  0  0  0  0  0  0  0
   -4.0609   -0.1249   -1.7562 H   0  0  0  0  0  0  0  0  0  0  0  0
   -4.9693   -2.3425   -2.2788 H   0  0  0  0  0  0  0  0  0  0  0  0
   -4.7580   -4.1958   -0.6509 H   0  0  0  0  0  0  0  0  0  0  0  0
   -3.6267   -3.7949    1.5170 H   0  0  0  0  0  0  0  0  0  0  0  0
   -2.7267   -1.5694    2.0482 H   0  0  0  0  0  0  0  0  0  0  0  0
   -0.1514    1.6033   -2.3782 H   0  0  0  0  0  0  0  0  0  0  0  0
    0.5555    0.0027   -2.2318 H   0  0  0  0  0  0  0  0  0  0  0  0
    2.3119    1.7226   -1.9752 H   0  0  0  0  0  0  0  0  0  0  0  0
    1.3930    2.5103   -0.6898 H   0  0  0  0  0  0  0  0  0  0  0  0
    4.5117   -2.6638   -1.1366 H   0  0  0  0  0  0  0  0  0  0  0  0
    5.9889    1.3117    1.5185 H   0  0  0  0  0  0  0  0  0  0  0  0
    7.5314   -0.6060    1.1320 H   0  0  0  0  0  0  0  0  0  0  0  0
    6.8084   -2.5556   -0.1755 H   0  0  0  0  0  0  0  0  0  0  0  0
   -2.2505    0.6237    1.4732 H   0  0  0  0  0  0  0  0  0  0  0  0
 23 16  1  0
 22 23  1  6
 14 22  1  0
 14 13  1  0
 15 16  2  0
 15 20  1  0
 16 17  1  0
  6  4  1  0
 22  1  1  0
 22 21  1  0
  1  2  1  0
 20 19  2  0
 13 24  1  0
 25  4  1  0
 25  3  1  0
 25  7  1  0
 24  3  1  0
 24  2  1  0
  4  5  1  0
  3 26  2  0
  8  7  2  0
  8  9  1  0
 17 21  1  0
 17 18  2  0
  7 12  1  0
 19 18  1  0
  9 10  2  0
 12 11  2  0
 10 11  1  0
  1 27  1  0
  1 28  1  0
  2 29  1  0
  2 30  1  0
  4 31  1  6
  5 32  1  0
  5 33  1  0
  5 34  1  0
  6 35  1  0
  6 36  1  0
  6 37  1  0
  8 38  1  0
  9 39  1  0
 10 40  1  0
 11 41  1  0
 12 42  1  0
 13 43  1  0
 13 44  1  0
 14 45  1  0
 14 46  1  0
 15 47  1  0
 18 48  1  0
 19 49  1  0
 20 50  1  0
 25 51  1  1
M  END
