
     RDKit          3D

 61 65  0  0  0  0  0  0  0  0999 V2000
    3.1935   -2.9272   -1.0682 C   0  0  0  0  0  0  0  0  0  0  0  0
    0.0424   -1.5500    0.3511 C   0  0  0  0  0  0  0  0  0  0  0  0
   -0.0424   -0.1502    0.2302 C   0  0  0  0  0  0  0  0  0  0  0  0
    1.3323   -2.1348    0.2944 N   0  0  0  0  0  0  0  0  0  0  0  0
    1.4290    1.8193   -0.1442 C   0  0  0  0  0  0  0  0  0  0  0  0
    2.8736    2.1528   -0.3282 C   0  0  0  0  0  0  0  0  0  0  0  0
    1.1766    0.5112    0.0964 N   0  0  0  0  0  0  0  0  0  0  0  0
    3.7879    1.2461   -0.8583 C   0  0  0  0  0  0  0  0  0  0  0  0
    5.1090    1.6263   -1.0399 C   0  0  0  0  0  0  0  0  0  0  0  0
    5.5219    2.9035   -0.6913 C   0  0  0  0  0  0  0  0  0  0  0  0
    4.6202    3.8288   -0.1668 C   0  0  0  0  0  0  0  0  0  0  0  0
    5.0600    5.2207    0.1814 C   0  0  0  0  0  0  0  0  0  0  0  0
    3.2964    3.4387    0.0002 C   0  0  0  0  0  0  0  0  0  0  0  0
   -1.2875    0.4694    0.2564 C   0  0  0  0  0  0  0  0  0  0  0  0
    0.5686    2.6822   -0.2081 O   0  0  0  0  0  0  0  0  0  0  0  0
   -2.4548   -0.2796    0.4131 C   0  0  0  0  0  0  0  0  0  0  0  0
   -3.7540    0.4192    0.4707 C   0  0  0  0  0  0  0  0  0  0  0  0
   -3.9114    1.5966    1.2137 C   0  0  0  0  0  0  0  0  0  0  0  0
   -5.1160    2.2802    1.2689 C   0  0  0  0  0  0  0  0  0  0  0  0
   -6.2276    1.8039    0.5747 C   0  0  0  0  0  0  0  0  0  0  0  0
   -6.0969    0.6491   -0.1688 C   0  0  0  0  0  0  0  0  0  0  0  0
   -7.0861   -0.1235   -0.9929 C   0  0  0  0  0  0  0  0  0  0  0  0
   -6.1638   -1.1096   -1.7217 C   0  0  0  0  0  0  0  0  0  0  0  0
   -4.9181   -1.1196   -0.9986 O   0  0  0  0  0  0  0  0  0  0  0  0
   -4.8815   -0.0234   -0.2139 C   0  0  0  0  0  0  0  0  0  0  0  0
   -2.3635   -1.6622    0.5456 C   0  0  0  0  0  0  0  0  0  0  0  0
   -1.1237   -2.2825    0.5110 C   0  0  0  0  0  0  0  0  0  0  0  0
    1.5828   -3.2080    1.2445 C   0  0  0  0  0  0  0  0  0  0  0  0
    3.0527   -3.5787    1.2157 C   0  0  0  0  0  0  0  0  0  0  0  0
    1.7305   -2.5274   -1.0553 C   0  0  0  0  0  0  0  0  0  0  0  0
    3.4471   -3.9875   -0.1169 N   0  0  0  0  0  0  0  0  0  0  0  0
    4.8216   -4.4305   -0.1597 C   0  0  0  0  0  0  0  0  0  0  0  0
    3.4574   -3.2704   -2.0712 H   0  0  0  0  0  0  0  0  0  0  0  0
    3.8165   -2.0379   -0.8596 H   0  0  0  0  0  0  0  0  0  0  0  0
    1.9574   -0.1165    0.2553 H   0  0  0  0  0  0  0  0  0  0  0  0
    3.4797    0.2546   -1.1667 H   0  0  0  0  0  0  0  0  0  0  0  0
    5.8178    0.9244   -1.4592 H   0  0  0  0  0  0  0  0  0  0  0  0
    6.5584    3.1866   -0.8314 H   0  0  0  0  0  0  0  0  0  0  0  0
    5.0028    5.8750   -0.6907 H   0  0  0  0  0  0  0  0  0  0  0  0
    4.4305    5.6561    0.9563 H   0  0  0  0  0  0  0  0  0  0  0  0
    6.0914    5.2381    0.5317 H   0  0  0  0  0  0  0  0  0  0  0  0
    2.5814    4.1454    0.4037 H   0  0  0  0  0  0  0  0  0  0  0  0
   -1.3599    1.5398    0.1519 H   0  0  0  0  0  0  0  0  0  0  0  0
   -3.0641    1.9755    1.7722 H   0  0  0  0  0  0  0  0  0  0  0  0
   -5.1915    3.1836    1.8593 H   0  0  0  0  0  0  0  0  0  0  0  0
   -7.1722    2.3316    0.6194 H   0  0  0  0  0  0  0  0  0  0  0  0
   -7.8124   -0.6350   -0.3565 H   0  0  0  0  0  0  0  0  0  0  0  0
   -6.5489   -2.1273   -1.7497 H   0  0  0  0  0  0  0  0  0  0  0  0
   -3.2513   -2.2623    0.6893 H   0  0  0  0  0  0  0  0  0  0  0  0
   -1.0681   -3.3589    0.6111 H   0  0  0  0  0  0  0  0  0  0  0  0
    1.3088   -2.8698    2.2448 H   0  0  0  0  0  0  0  0  0  0  0  0
    0.9891   -4.1058    1.0210 H   0  0  0  0  0  0  0  0  0  0  0  0
    3.6513   -2.7249    1.5780 H   0  0  0  0  0  0  0  0  0  0  0  0
    3.2205   -4.4071    1.9080 H   0  0  0  0  0  0  0  0  0  0  0  0
    1.5795   -1.6877   -1.7374 H   0  0  0  0  0  0  0  0  0  0  0  0
    1.1136   -3.3605   -1.4228 H   0  0  0  0  0  0  0  0  0  0  0  0
    5.5418   -3.6393    0.1013 H   0  0  0  0  0  0  0  0  0  0  0  0
    4.9688   -5.2560    0.5381 H   0  0  0  0  0  0  0  0  0  0  0  0
    5.0682   -4.7887   -1.1603 H   0  0  0  0  0  0  0  0  0  0  0  0
   -7.6439    0.4994   -1.6916 H   0  0  0  0  0  0  0  0  0  0  0  0
   -5.9646   -0.7829   -2.7451 H   0  0  0  0  0  0  0  0  0  0  0  0
 22 21  1  0
 22 23  1  0
 20 21  2  0
 20 19  1  0
 21 25  1  0
 19 18  2  0
 23 24  1  0
 25 24  1  0
 25 17  2  0
 18 17  1  0
 17 16  1  0
 16 14  2  0
 16 26  1  0
 14  3  1  0
 26 27  2  0
 15  5  2  0
  3  7  1  0
  3  2  2  0
  5  7  1  0
  5  6  1  0
 27  2  1  0
  6  8  2  0
  6 13  1  0
  2  4  1  0
  8  9  1  0
 13 11  2  0
  9 10  2  0
 11 10  1  0
 11 12  1  0
  4 28  1  0
  4 30  1  0
 28 29  1  0
 30  1  1  0
 29 31  1  0
  1 31  1  0
 31 32  1  0
  1 33  1  0
  1 34  1  0
  7 35  1  0
  8 36  1  0
  9 37  1  0
 10 38  1  0
 12 39  1  0
 12 40  1  0
 12 41  1  0
 13 42  1  0
 14 43  1  0
 18 44  1  0
 19 45  1  0
 20 46  1  0
 22 47  1  0
 23 48  1  0
 26 49  1  0
 27 50  1  0
 28 51  1  0
 28 52  1  0
 29 53  1  0
 29 54  1  0
 30 55  1  0
 30 56  1  0
 32 57  1  0
 32 58  1  0
 32 59  1  0
 22 60  1  0
 23 61  1  0
M  END
