
     RDKit          3D

 37 39  0  0  0  0  0  0  0  0999 V2000
    5.6265   -0.3097    1.3292 Cl  0  0  0  0  0  0  0  0  0  0  0  0
    4.8282    0.9316    0.4187 C   0  0  0  0  0  0  0  0  0  0  0  0
    5.3784    2.2027    0.3950 C   0  0  0  0  0  0  0  0  0  0  0  0
    4.7460    3.2096   -0.3160 C   0  0  0  0  0  0  0  0  0  0  0  0
    3.5777    2.9286   -1.0103 C   0  0  0  0  0  0  0  0  0  0  0  0
    3.0400    1.6525   -0.9989 C   0  0  0  0  0  0  0  0  0  0  0  0
    3.6520    0.6300   -0.2737 C   0  0  0  0  0  0  0  0  0  0  0  0
    3.1681   -0.6791   -0.2617 N   0  0  0  0  0  0  0  0  0  0  0  0
    1.8732   -1.0717   -0.2116 C   0  0  0  0  0  0  0  0  0  0  0  0
    1.5538   -2.4429   -0.2208 C   0  0  0  0  0  0  0  0  0  0  0  0
    0.2425   -2.8030   -0.1619 C   0  0  0  0  0  0  0  0  0  0  0  0
   -0.7396   -1.8984   -0.0988 N   0  0  0  0  0  0  0  0  0  0  0  0
   -0.3581   -0.6345   -0.0904 C   0  0  0  0  0  0  0  0  0  0  0  0
   -1.2865    0.3692   -0.0203 N   0  0  0  0  0  0  0  0  0  0  0  0
   -2.6629    0.3413    0.0646 C   0  0  0  0  0  0  0  0  0  0  0  0
   -3.3054    1.5843    0.1841 C   0  0  0  0  0  0  0  0  0  0  0  0
   -4.6760    1.6669    0.2731 C   0  0  0  0  0  0  0  0  0  0  0  0
   -5.4645    0.5150    0.2440 C   0  0  0  0  0  0  0  0  0  0  0  0
   -6.9295    0.6518    0.3403 C   0  0  0  0  0  0  0  0  0  0  0  0
   -7.5685   -0.5113    0.2784 O   0  0  0  0  0  0  0  0  0  0  0  0
   -7.5052    1.7094    0.4622 O   0  0  0  0  0  0  0  0  0  0  0  0
   -4.8267   -0.7179    0.1233 C   0  0  0  0  0  0  0  0  0  0  0  0
   -3.4493   -0.8162    0.0354 C   0  0  0  0  0  0  0  0  0  0  0  0
    0.8985   -0.1874   -0.1414 N   0  0  0  0  0  0  0  0  0  0  0  0
    2.5380   -3.3545   -0.2814 F   0  0  0  0  0  0  0  0  0  0  0  0
    6.2930    2.4024    0.9363 H   0  0  0  0  0  0  0  0  0  0  0  0
    5.1689    4.2047   -0.3281 H   0  0  0  0  0  0  0  0  0  0  0  0
    3.0840    3.7035   -1.5809 H   0  0  0  0  0  0  0  0  0  0  0  0
    2.1419    1.4469   -1.5605 H   0  0  0  0  0  0  0  0  0  0  0  0
    3.8606   -1.4083   -0.1852 H   0  0  0  0  0  0  0  0  0  0  0  0
   -0.0412   -3.8497   -0.1664 H   0  0  0  0  0  0  0  0  0  0  0  0
   -0.8706    1.2886   -0.0118 H   0  0  0  0  0  0  0  0  0  0  0  0
   -2.7135    2.4916    0.2075 H   0  0  0  0  0  0  0  0  0  0  0  0
   -5.1386    2.6403    0.3670 H   0  0  0  0  0  0  0  0  0  0  0  0
   -8.5233   -0.3632    0.3415 H   0  0  0  0  0  0  0  0  0  0  0  0
   -5.4021   -1.6333    0.0950 H   0  0  0  0  0  0  0  0  0  0  0  0
   -2.9888   -1.7855   -0.0571 H   0  0  0  0  0  0  0  0  0  0  0  0
  5  6  2  0
  5  4  1  0
  6  7  1  0
  4  3  2  0
  7  8  1  0
  7  2  2  0
  3  2  1  0
  8  9  1  0
  2  1  1  0
 25 10  1  0
  9 10  2  0
  9 24  1  0
 10 11  1  0
 21 19  2  0
 24 13  2  0
 17 16  2  0
 17 18  1  0
 16 15  1  0
 19 18  1  0
 19 20  1  0
 11 12  2  0
 18 22  2  0
 13 12  1  0
 13 14  1  0
 15 14  1  0
 15 23  2  0
 22 23  1  0
  3 26  1  0
  4 27  1  0
  5 28  1  0
  6 29  1  0
  8 30  1  0
 11 31  1  0
 14 32  1  0
 16 33  1  0
 17 34  1  0
 20 35  1  0
 22 36  1  0
 23 37  1  0
M  END
