
     RDKit          3D

 15 15  0  0  0  0  0  0  0  0999 V2000
   -1.3718   -2.2821   -0.0153 O   0  0  0  0  0  0  0  0  0  0  0  0
   -0.1775   -2.1265    0.0192 C   0  0  0  0  0  0  0  0  0  0  0  0
    0.5424   -0.8356    0.0065 C   0  0  0  0  0  0  0  0  0  0  0  0
   -0.0390    0.4319   -0.0666 C   0  0  0  0  0  0  0  0  0  0  0  0
   -1.8998    0.7041   -0.1669 Br  0  0  0  0  0  0  0  0  0  0  0  0
    0.7709    1.5589   -0.0673 C   0  0  0  0  0  0  0  0  0  0  0  0
    2.1483    1.4418    0.0050 C   0  0  0  0  0  0  0  0  0  0  0  0
    2.7447    0.1857    0.0781 C   0  0  0  0  0  0  0  0  0  0  0  0
    4.0832    0.1240    0.1474 O   0  0  0  0  0  0  0  0  0  0  0  0
    1.9317   -0.9393    0.0773 C   0  0  0  0  0  0  0  0  0  0  0  0
    0.5032   -2.9952    0.0667 H   0  0  0  0  0  0  0  0  0  0  0  0
    0.3348    2.5474   -0.1233 H   0  0  0  0  0  0  0  0  0  0  0  0
    2.7630    2.3327    0.0059 H   0  0  0  0  0  0  0  0  0  0  0  0
    4.3813   -0.7908    0.2113 H   0  0  0  0  0  0  0  0  0  0  0  0
    2.3748   -1.9287    0.1344 H   0  0  0  0  0  0  0  0  0  0  0  0
  2  1  2  0
  2  3  1  0
  3 10  2  0
  3  4  1  0
 10  8  1  0
  5  4  1  0
  4  6  2  0
  8  9  1  0
  8  7  2  0
  6  7  1  0
  2 11  1  0
  6 12  1  0
  7 13  1  0
  9 14  1  0
 10 15  1  0
M  END
