
     RDKit          3D

 16 16  0  0  0  0  0  0  0  0999 V2000
   -0.3638    0.1275    2.6105 C   0  0  0  0  0  0  0  0  0  0  0  0
   -0.4943    0.1595    3.8245 O   0  0  0  0  0  0  0  0  0  0  0  0
    0.7654   -0.4810    1.9285 C   0  0  0  0  0  0  0  0  0  0  0  0
    0.8168   -0.4654    0.5285 C   0  0  0  0  0  0  0  0  0  0  0  0
    1.8838   -1.0392   -0.1254 C   0  0  0  0  0  0  0  0  0  0  0  0
    1.7950   -1.0776    2.6674 C   0  0  0  0  0  0  0  0  0  0  0  0
    1.8102   -1.1296    4.0029 O   0  0  0  0  0  0  0  0  0  0  0  0
    2.8797   -1.6594    1.9937 C   0  0  0  0  0  0  0  0  0  0  0  0
    2.9104   -1.6332    0.6106 C   0  0  0  0  0  0  0  0  0  0  0  0
    3.8900   -2.2436    2.6662 O   0  0  0  0  0  0  0  0  0  0  0  0
   -1.1281    0.5777    1.9587 H   0  0  0  0  0  0  0  0  0  0  0  0
    0.0107    0.0004   -0.0247 H   0  0  0  0  0  0  0  0  0  0  0  0
    1.9362   -1.0350   -1.2052 H   0  0  0  0  0  0  0  0  0  0  0  0
    1.0001   -0.6979    4.3426 H   0  0  0  0  0  0  0  0  0  0  0  0
    3.7515   -2.0863    0.1005 H   0  0  0  0  0  0  0  0  0  0  0  0
    3.7456   -2.1827    3.6182 H   0  0  0  0  0  0  0  0  0  0  0  0
  1  2  2  0
  1  3  1  0
  1 11  1  0
  3  4  2  0
  3  6  1  0
  4  5  1  0
  4 12  1  0
  5  9  2  0
  5 13  1  0
  6  7  1  0
  6  8  2  0
  7 14  1  0
  8  9  1  0
  8 10  1  0
  9 15  1  0
 10 16  1  0
M  END
