
     RDKit          3D

 87 91  0  0  0  0  0  0  0  0999 V2000
   -8.9558    2.1825    1.1562 C   0  0  0  0  0  0  0  0  0  0  0  0
   -9.9547    2.4757    2.0714 C   0  0  0  0  0  0  0  0  0  0  0  0
   -6.6003    0.8263   -1.9317 C   0  0  0  0  0  0  0  0  0  0  0  0
   -7.6381    1.3019   -1.3010 N   0  0  0  0  0  0  0  0  0  0  0  0
   -6.7360   -0.3444   -0.0570 C   0  0  0  0  0  0  0  0  0  0  0  0
   -5.9696   -0.2183   -1.2171 C   0  0  0  0  0  0  0  0  0  0  0  0
   -4.1779   -0.7694   -2.6984 N   0  0  0  0  0  0  0  0  0  0  0  0
   -4.7724   -0.9938   -1.5084 C   0  0  0  0  0  0  0  0  0  0  0  0
   -2.9592   -1.4368   -3.0764 C   0  0  0  0  0  0  0  0  0  0  0  0
   -1.7429   -0.9691   -2.3153 C   0  0  0  0  0  0  0  0  0  0  0  0
   -1.5838    0.3672   -1.9586 C   0  0  0  0  0  0  0  0  0  0  0  0
    2.9113   -0.3089   -0.4280 N   0  0  0  0  0  0  0  0  0  0  0  0
   -0.4455    0.7904   -1.2948 C   0  0  0  0  0  0  0  0  0  0  0  0
    0.5744   -0.1089   -0.9908 C   0  0  0  0  0  0  0  0  0  0  0  0
    0.4146   -1.4475   -1.3402 C   0  0  0  0  0  0  0  0  0  0  0  0
    5.2988    2.2103    0.4552 N   0  0  0  0  0  0  0  0  0  0  0  0
   -4.3207   -1.8152   -0.7103 O   0  0  0  0  0  0  0  0  0  0  0  0
   -6.6121   -1.2032    0.9805 N   0  0  0  0  0  0  0  0  0  0  0  0
   -7.7253    0.5714   -0.1592 N   0  0  0  0  0  0  0  0  0  0  0  0
   -8.7366    0.8616    0.7814 C   0  0  0  0  0  0  0  0  0  0  0  0
   -9.5122   -0.1617    1.3141 C   0  0  0  0  0  0  0  0  0  0  0  0
  -10.4984    0.1419    2.2427 C   0  0  0  0  0  0  0  0  0  0  0  0
  -10.7235    1.4576    2.6221 C   0  0  0  0  0  0  0  0  0  0  0  0
   -0.7349   -1.8695   -1.9902 C   0  0  0  0  0  0  0  0  0  0  0  0
    1.7765    0.3971   -0.2687 C   0  0  0  0  0  0  0  0  0  0  0  0
    1.7282    1.3936    0.4394 O   0  0  0  0  0  0  0  0  0  0  0  0
    4.1398    0.1115    0.1928 C   0  0  1  0  0  0  0  0  0  0  0  0
    5.2192   -0.9551    0.0006 C   0  0  0  0  0  0  0  0  0  0  0  0
    4.8683   -2.2883    0.6536 C   0  0  0  0  0  0  0  0  0  0  0  0
    5.9995   -3.3137    0.6065 C   0  0  1  0  0  0  0  0  0  0  0  0
    5.6547   -4.5335    1.4613 C   0  0  0  0  0  0  0  0  0  0  0  0
    6.7563   -5.5877    1.4387 C   0  0  0  0  0  0  0  0  0  0  0  0
    7.0902   -6.0116    0.0125 C   0  0  0  0  0  0  0  0  0  0  0  0
    7.4435   -4.8036   -0.8479 C   0  0  0  0  0  0  0  0  0  0  0  0
    6.3400   -3.7503   -0.8192 C   0  0  0  0  0  0  0  0  0  0  0  0
    4.6195    1.4384   -0.4028 C   0  0  0  0  0  0  0  0  0  0  0  0
    4.4325    1.7092   -1.5792 O   0  0  0  0  0  0  0  0  0  0  0  0
    5.9428    3.4645    0.1192 C   0  0  1  0  0  0  0  0  0  0  0  0
    5.2766    4.6342    0.8417 C   0  0  0  0  0  0  0  0  0  0  0  0
    5.9656    5.9536    0.5068 C   0  0  0  0  0  0  0  0  0  0  0  0
    7.4576    5.8974    0.8179 C   0  0  0  0  0  0  0  0  0  0  0  0
    8.1227    4.7276    0.1003 C   0  0  0  0  0  0  0  0  0  0  0  0
    7.4370    3.4058    0.4320 C   0  0  0  0  0  0  0  0  0  0  0  0
   -8.3475    2.9717    0.7354 H   0  0  0  0  0  0  0  0  0  0  0  0
  -10.1260    3.5036    2.3621 H   0  0  0  0  0  0  0  0  0  0  0  0
   -6.3237    1.2458   -2.8884 H   0  0  0  0  0  0  0  0  0  0  0  0
   -4.5693   -0.1019   -3.3401 H   0  0  0  0  0  0  0  0  0  0  0  0
   -3.0663   -2.5179   -2.9672 H   0  0  0  0  0  0  0  0  0  0  0  0
   -2.8103   -1.2465   -4.1405 H   0  0  0  0  0  0  0  0  0  0  0  0
   -2.3588    1.0865   -2.1927 H   0  0  0  0  0  0  0  0  0  0  0  0
    2.9722   -0.9763   -1.1798 H   0  0  0  0  0  0  0  0  0  0  0  0
   -0.3435    1.8318   -1.0194 H   0  0  0  0  0  0  0  0  0  0  0  0
    1.1641   -2.1851   -1.0810 H   0  0  0  0  0  0  0  0  0  0  0  0
    5.3578    1.9113    1.4170 H   0  0  0  0  0  0  0  0  0  0  0  0
   -6.9821   -0.9202    1.8747 H   0  0  0  0  0  0  0  0  0  0  0  0
   -5.7172   -1.6652    1.0281 H   0  0  0  0  0  0  0  0  0  0  0  0
   -9.3621   -1.1861    0.9991 H   0  0  0  0  0  0  0  0  0  0  0  0
  -11.1024   -0.6545    2.6565 H   0  0  0  0  0  0  0  0  0  0  0  0
  -11.4983    1.6892    3.3408 H   0  0  0  0  0  0  0  0  0  0  0  0
   -0.8509   -2.9180   -2.2369 H   0  0  0  0  0  0  0  0  0  0  0  0
    3.9641    0.2386    1.2656 H   0  0  0  0  0  0  0  0  0  0  0  0
    5.4095   -1.0807   -1.0694 H   0  0  0  0  0  0  0  0  0  0  0  0
    6.1489   -0.5787    0.4360 H   0  0  0  0  0  0  0  0  0  0  0  0
    4.6029   -2.1039    1.7001 H   0  0  0  0  0  0  0  0  0  0  0  0
    3.9762   -2.7214    0.1881 H   0  0  0  0  0  0  0  0  0  0  0  0
    6.8960   -2.8453    1.0371 H   0  0  0  0  0  0  0  0  0  0  0  0
    5.4573   -4.2169    2.4896 H   0  0  0  0  0  0  0  0  0  0  0  0
    4.7210   -4.9748    1.0904 H   0  0  0  0  0  0  0  0  0  0  0  0
    7.6559   -5.1815    1.9151 H   0  0  0  0  0  0  0  0  0  0  0  0
    6.4574   -6.4550    2.0333 H   0  0  0  0  0  0  0  0  0  0  0  0
    7.9125   -6.7313    0.0119 H   0  0  0  0  0  0  0  0  0  0  0  0
    6.2265   -6.5260   -0.4234 H   0  0  0  0  0  0  0  0  0  0  0  0
    8.3762   -4.3602   -0.4815 H   0  0  0  0  0  0  0  0  0  0  0  0
    7.6358   -5.1152   -1.8777 H   0  0  0  0  0  0  0  0  0  0  0  0
    5.4362   -4.1562   -1.2912 H   0  0  0  0  0  0  0  0  0  0  0  0
    6.6415   -2.8897   -1.4226 H   0  0  0  0  0  0  0  0  0  0  0  0
    5.8187    3.6039   -0.9570 H   0  0  0  0  0  0  0  0  0  0  0  0
    4.2175    4.6746    0.5755 H   0  0  0  0  0  0  0  0  0  0  0  0
    5.3257    4.4630    1.9236 H   0  0  0  0  0  0  0  0  0  0  0  0
    5.8250    6.1758   -0.5565 H   0  0  0  0  0  0  0  0  0  0  0  0
    5.4919    6.7694    1.0574 H   0  0  0  0  0  0  0  0  0  0  0  0
    7.9378    6.8369    0.5339 H   0  0  0  0  0  0  0  0  0  0  0  0
    7.5984    5.7882    1.8987 H   0  0  0  0  0  0  0  0  0  0  0  0
    8.0783    4.8947   -0.9815 H   0  0  0  0  0  0  0  0  0  0  0  0
    9.1819    4.6708    0.3606 H   0  0  0  0  0  0  0  0  0  0  0  0
    7.5730    3.1791    1.4958 H   0  0  0  0  0  0  0  0  0  0  0  0
    7.8948    2.5857   -0.1263 H   0  0  0  0  0  0  0  0  0  0  0  0
 35 34  1  0
 35 30  1  0
 29 30  1  0
 29 28  1  0
 34 33  1  0
 33 32  1  0
 30 31  1  0
 37 36  2  0
 28 27  1  0
 31 32  1  0
 36 27  1  0
 36 16  1  0
 27 12  1  0
 16 38  1  0
 38 43  1  0
 38 39  1  0
 12 25  1  0
 43 42  1  0
 41 40  1  0
 41 42  1  0
 40 39  1  0
 25 26  2  0
 25 14  1  0
 15 14  2  0
 15 24  1  0
 14 13  1  0
 24 10  2  0
 13 11  2  0
 10 11  1  0
 10  9  1  0
  9  7  1  0
  7  8  1  0
  8 17  2  0
  8  6  1  0
  3  6  1  0
  3  4  2  0
  6  5  2  0
  4 19  1  0
  5 19  1  0
  5 18  1  0
 19 20  1  0
 21 20  1  0
 21 22  2  0
 20  1  2  0
 22 23  1  0
  1  2  1  0
 23  2  2  0
  1 44  1  0
  2 45  1  0
  3 46  1  0
  7 47  1  0
  9 48  1  0
  9 49  1  0
 11 50  1  0
 12 51  1  0
 13 52  1  0
 15 53  1  0
 16 54  1  0
 18 55  1  0
 18 56  1  0
 21 57  1  0
 22 58  1  0
 23 59  1  0
 24 60  1  0
 27 61  1  1
 28 62  1  0
 28 63  1  0
 29 64  1  0
 29 65  1  0
 30 66  1  1
 31 67  1  0
 31 68  1  0
 32 69  1  0
 32 70  1  0
 33 71  1  0
 33 72  1  0
 34 73  1  0
 34 74  1  0
 35 75  1  0
 35 76  1  0
 38 77  1  6
 39 78  1  0
 39 79  1  0
 40 80  1  0
 40 81  1  0
 41 82  1  0
 41 83  1  0
 42 84  1  0
 42 85  1  0
 43 86  1  0
 43 87  1  0
M  END
