
     RDKit          3D

 57 61  0  0  0  0  0  0  0  0999 V2000
   -6.5928   -4.0290    0.2487 O   0  0  0  0  0  0  0  0  0  0  0  0
   -6.3999   -2.8502   -0.0243 C   0  0  0  0  0  0  0  0  0  0  0  0
   -7.4228   -2.0480   -0.4755 N   0  0  0  0  0  0  0  0  0  0  0  0
   -7.2609   -0.7840   -0.7583 C   0  0  0  0  0  0  0  0  0  0  0  0
   -8.3134   -0.0423   -1.1383 N   0  0  0  0  0  0  0  0  0  0  0  0
   -6.0665   -0.1272   -0.6652 N   0  0  0  0  0  0  0  0  0  0  0  0
   -5.0152   -0.8712   -0.2362 C   0  0  0  0  0  0  0  0  0  0  0  0
   -5.1149   -2.1955    0.0897 C   0  0  0  0  0  0  0  0  0  0  0  0
   -3.8875   -2.6612    0.4834 N   0  0  0  0  0  0  0  0  0  0  0  0
   -3.0862   -1.6439    0.3938 C   0  0  0  0  0  0  0  0  0  0  0  0
   -3.7270   -0.5083   -0.0490 N   0  0  0  0  0  0  0  0  0  0  0  0
   -3.1729    0.8022   -0.3150 C   0  0  2  0  0  0  0  0  0  0  0  0
   -1.8164    0.7648   -0.0256 O   0  0  0  0  0  0  0  0  0  0  0  0
   -3.7721    1.9159    0.5536 C   0  0  2  0  0  0  0  0  0  0  0  0
   -4.7922    2.5376   -0.1783 O   0  0  0  0  0  0  0  0  0  0  0  0
   -2.5374    2.8143    0.8635 C   0  0  2  0  0  0  0  0  0  0  0  0
   -2.6454    4.1327    0.4224 O   0  0  0  0  0  0  0  0  0  0  0  0
   -1.3971    2.1126    0.1161 C   0  0  1  0  0  0  0  0  0  0  0  0
   -0.0884    2.1661    0.8568 C   0  0  0  0  0  0  0  0  0  0  0  0
    0.9035    1.5713    0.0314 O   0  0  0  0  0  0  0  0  0  0  0  0
    2.1628    1.5737    0.4926 C   0  0  0  0  0  0  0  0  0  0  0  0
    2.4911    2.0598    1.5566 O   0  0  0  0  0  0  0  0  0  0  0  0
    2.9958    0.9819   -0.3741 N   0  0  0  0  0  0  0  0  0  0  0  0
    4.4065    0.8158   -0.0946 C   0  0  0  0  0  0  0  0  0  0  0  0
    5.1196    0.2623   -1.3254 C   0  0  0  0  0  0  0  0  0  0  0  0
    6.5754    0.0543   -1.0749 C   0  0  0  0  0  0  0  0  0  0  0  0
    7.6056    0.8366   -1.5145 C   0  0  0  0  0  0  0  0  0  0  0  0
    7.1745   -0.9870   -0.2925 C   0  0  0  0  0  0  0  0  0  0  0  0
    6.6671   -2.0863    0.4102 C   0  0  0  0  0  0  0  0  0  0  0  0
    7.5463   -2.9246    1.0671 C   0  0  0  0  0  0  0  0  0  0  0  0
    8.9310   -2.6873    1.0398 C   0  0  0  0  0  0  0  0  0  0  0  0
    9.4613   -1.6116    0.3542 C   0  0  0  0  0  0  0  0  0  0  0  0
    8.5703   -0.7689   -0.3091 C   0  0  0  0  0  0  0  0  0  0  0  0
    8.7976    0.3465   -1.0603 N   0  0  0  0  0  0  0  0  0  0  0  0
   -9.1668   -0.5313   -1.3472 H   0  0  0  0  0  0  0  0  0  0  0  0
   -8.1834    0.8409   -1.6024 H   0  0  0  0  0  0  0  0  0  0  0  0
   -5.9912    0.8800   -0.7710 H   0  0  0  0  0  0  0  0  0  0  0  0
   -2.0348   -1.6468    0.6289 H   0  0  0  0  0  0  0  0  0  0  0  0
   -3.3496    1.0400   -1.3750 H   0  0  0  0  0  0  0  0  0  0  0  0
   -4.1520    1.4889    1.4880 H   0  0  0  0  0  0  0  0  0  0  0  0
   -5.3089    3.1001    0.4078 H   0  0  0  0  0  0  0  0  0  0  0  0
   -2.3489    2.7690    1.9421 H   0  0  0  0  0  0  0  0  0  0  0  0
   -3.0257    4.6674    1.1247 H   0  0  0  0  0  0  0  0  0  0  0  0
   -1.2882    2.5774   -0.8744 H   0  0  0  0  0  0  0  0  0  0  0  0
    0.1492    3.2122    1.0656 H   0  0  0  0  0  0  0  0  0  0  0  0
   -0.1730    1.6375    1.8107 H   0  0  0  0  0  0  0  0  0  0  0  0
    2.6140    0.5536   -1.2023 H   0  0  0  0  0  0  0  0  0  0  0  0
    4.8482    1.7767    0.1763 H   0  0  0  0  0  0  0  0  0  0  0  0
    4.5545    0.1407    0.7537 H   0  0  0  0  0  0  0  0  0  0  0  0
    4.6501   -0.6835   -1.6163 H   0  0  0  0  0  0  0  0  0  0  0  0
    4.9820    0.9523   -2.1616 H   0  0  0  0  0  0  0  0  0  0  0  0
    7.5769    1.7207   -2.1321 H   0  0  0  0  0  0  0  0  0  0  0  0
    5.6012   -2.2799    0.4387 H   0  0  0  0  0  0  0  0  0  0  0  0
    7.1668   -3.7795    1.6118 H   0  0  0  0  0  0  0  0  0  0  0  0
    9.5947   -3.3612    1.5659 H   0  0  0  0  0  0  0  0  0  0  0  0
   10.5287   -1.4307    0.3334 H   0  0  0  0  0  0  0  0  0  0  0  0
    9.6974    0.7529   -1.2515 H   0  0  0  0  0  0  0  0  0  0  0  0
  5  4  1  0
  3  4  2  0
  3  2  1  0
  4  6  1  0
  1  2  2  0
  2  8  1  0
  6  7  1  0
 15 14  1  0
  8  7  2  0
  8  9  1  0
  7 11  1  0
 31 30  2  0
 31 32  1  0
 30 29  1  0
  9 10  2  0
 11 10  1  0
 11 12  1  0
 14 12  1  0
 14 16  1  0
 12 13  1  0
 32 33  2  0
 29 28  2  0
 17 16  1  0
 16 18  1  0
 33 28  1  0
 33 34  1  0
 28 26  1  0
 13 18  1  0
 18 19  1  0
 34 27  1  0
 26 25  1  0
 26 27  2  0
 25 24  1  0
 19 20  1  0
 24 23  1  0
 20 21  1  0
 23 21  1  0
 21 22  2  0
  5 35  1  0
  5 36  1  0
  6 37  1  0
 10 38  1  0
 12 39  1  6
 14 40  1  1
 15 41  1  0
 16 42  1  1
 17 43  1  0
 18 44  1  6
 19 45  1  0
 19 46  1  0
 23 47  1  0
 24 48  1  0
 24 49  1  0
 25 50  1  0
 25 51  1  0
 27 52  1  0
 29 53  1  0
 30 54  1  0
 31 55  1  0
 32 56  1  0
 34 57  1  0
M  END
