
     RDKit          3D

 23 23  0  0  0  0  0  0  0  0999 V2000
    1.0019    0.3030    0.0976 N   0  0  0  0  0  0  0  0  0  0  0  0
   -0.2811   -0.2304    0.5335 C   0  0  2  0  0  0  0  0  0  0  0  0
   -1.3553    0.1856   -0.4669 C   0  0  0  0  0  0  0  0  0  0  0  0
   -1.0010   -0.2569   -1.8825 C   0  0  0  0  0  0  0  0  0  0  0  0
    0.3921    0.2301   -2.2640 C   0  0  0  0  0  0  0  0  0  0  0  0
    1.4021   -0.1926   -1.2090 C   0  0  0  0  0  0  0  0  0  0  0  0
   -0.6188    0.2572    1.9385 C   0  0  0  0  0  0  0  0  0  0  0  0
    0.3459   -0.2181    3.0183 C   0  0  0  0  0  0  0  0  0  0  0  0
    1.7159    0.0527    0.7697 H   0  0  0  0  0  0  0  0  0  0  0  0
   -0.2641   -1.3373    0.5564 H   0  0  0  0  0  0  0  0  0  0  0  0
   -2.3153   -0.2400   -0.1632 H   0  0  0  0  0  0  0  0  0  0  0  0
   -1.4649    1.2753   -0.4350 H   0  0  0  0  0  0  0  0  0  0  0  0
   -1.0243   -1.3513   -1.9332 H   0  0  0  0  0  0  0  0  0  0  0  0
   -1.7465    0.1047   -2.5949 H   0  0  0  0  0  0  0  0  0  0  0  0
    0.6880   -0.1676   -3.2374 H   0  0  0  0  0  0  0  0  0  0  0  0
    0.3945    1.3211   -2.3491 H   0  0  0  0  0  0  0  0  0  0  0  0
    1.4939   -1.2920   -1.2305 H   0  0  0  0  0  0  0  0  0  0  0  0
    2.3890    0.2101   -1.4471 H   0  0  0  0  0  0  0  0  0  0  0  0
   -1.6256   -0.0915    2.1839 H   0  0  0  0  0  0  0  0  0  0  0  0
   -0.6618    1.3510    1.9335 H   0  0  0  0  0  0  0  0  0  0  0  0
    0.0097    0.0973    4.0065 H   0  0  0  0  0  0  0  0  0  0  0  0
    0.4222   -1.3071    3.0283 H   0  0  0  0  0  0  0  0  0  0  0  0
    1.3519    0.1836    2.8853 H   0  0  0  0  0  0  0  0  0  0  0  0
  1  2  1  0
  1  6  1  0
  1  9  1  0
  2  3  1  0
  2  7  1  0
  2 10  1  1
  3  4  1  0
  3 11  1  0
  3 12  1  0
  4  5  1  0
  4 13  1  0
  4 14  1  0
  5  6  1  0
  5 15  1  0
  5 16  1  0
  6 17  1  0
  6 18  1  0
  7  8  1  0
  7 19  1  0
  7 20  1  0
  8 21  1  0
  8 22  1  0
  8 23  1  0
M  END
