
     RDKit          3D

 16 17  0  0  0  0  0  0  0  0999 V2000
    1.4926    0.0433   -1.7286 N   0  0  0  0  0  0  0  0  0  0  0  0
    0.5172    0.0584   -2.6854 C   0  0  0  0  0  0  0  0  0  0  0  0
   -0.6797    0.0398   -2.1815 N   0  0  0  0  0  0  0  0  0  0  0  0
   -0.4808    0.0112   -0.8246 C   0  0  0  0  0  0  0  0  0  0  0  0
   -1.4185   -0.0206    0.2472 C   0  0  0  0  0  0  0  0  0  0  0  0
   -2.6374   -0.0301    0.1989 O   0  0  0  0  0  0  0  0  0  0  0  0
   -0.7554   -0.0438    1.4806 N   0  0  0  0  0  0  0  0  0  0  0  0
    0.5973   -0.0365    1.6693 C   0  0  0  0  0  0  0  0  0  0  0  0
    1.0333   -0.1014    2.9372 N   0  0  0  0  0  0  0  0  0  0  0  0
    1.4566   -0.0060    0.6822 N   0  0  0  0  0  0  0  0  0  0  0  0
    0.8713    0.0129   -0.5250 C   0  0  0  0  0  0  0  0  0  0  0  0
    2.4881    0.0537   -1.8900 H   0  0  0  0  0  0  0  0  0  0  0  0
    0.7604    0.0828   -3.7362 H   0  0  0  0  0  0  0  0  0  0  0  0
   -1.3537   -0.0816    2.2959 H   0  0  0  0  0  0  0  0  0  0  0  0
    2.0144    0.0542    3.0961 H   0  0  0  0  0  0  0  0  0  0  0  0
    0.4200    0.1176    3.7038 H   0  0  0  0  0  0  0  0  0  0  0  0
  1  2  1  0
  1 11  1  0
  1 12  1  0
  2  3  2  0
  2 13  1  0
  3  4  1  0
  4  5  1  0
  4 11  2  0
  5  6  2  0
  5  7  1  0
  7  8  1  0
  7 14  1  0
  8  9  1  0
  8 10  2  0
  9 15  1  0
  9 16  1  0
 10 11  1  0
M  END
