
     RDKit          3D

 35 36  0  0  0  0  0  0  0  0999 V2000
    0.6334   -3.1944   -0.3655 O   0  0  0  0  0  0  0  0  0  0  0  0
    1.5678   -2.8490    0.3379 C   0  0  0  0  0  0  0  0  0  0  0  0
    2.2623   -3.6857    1.1184 N   0  0  0  0  0  0  0  0  0  0  0  0
    2.0401   -1.4031    0.4299 C   0  0  0  0  0  0  0  0  0  0  0  0
    1.4229   -0.6436   -0.5842 O   0  0  0  0  0  0  0  0  0  0  0  0
    0.9612    0.5857   -0.2339 C   0  0  0  0  0  0  0  0  0  0  0  0
    1.8372    1.6385   -0.0500 C   0  0  0  0  0  0  0  0  0  0  0  0
    3.1439    1.3633   -0.1924 O   0  0  0  0  0  0  0  0  0  0  0  0
    4.0829    2.4153   -0.0655 C   0  0  0  0  0  0  0  0  0  0  0  0
   -0.4322    0.7739   -0.0913 C   0  0  0  0  0  0  0  0  0  0  0  0
   -0.9302    2.0634    0.2239 C   0  0  0  0  0  0  0  0  0  0  0  0
   -0.0175    3.1214    0.4011 C   0  0  0  0  0  0  0  0  0  0  0  0
    1.3296    2.9176    0.2701 C   0  0  0  0  0  0  0  0  0  0  0  0
   -1.3430   -0.2923   -0.2603 C   0  0  0  0  0  0  0  0  0  0  0  0
   -2.6965   -0.1155   -0.1178 C   0  0  0  0  0  0  0  0  0  0  0  0
   -3.6163   -1.2889   -0.2872 C   0  0  0  0  0  0  0  0  0  0  0  0
   -4.9519   -1.0043   -0.2958 N   0  0  0  0  0  0  0  0  0  0  0  0
   -3.2462   -2.4988   -0.4681 N   0  0  0  0  0  0  0  0  0  0  0  0
   -3.1843    1.1829    0.1834 C   0  0  0  0  0  0  0  0  0  0  0  0
   -2.3267    2.2320    0.3524 C   0  0  0  0  0  0  0  0  0  0  0  0
    2.0124   -4.6596    1.1725 H   0  0  0  0  0  0  0  0  0  0  0  0
    3.0448   -3.3783    1.6709 H   0  0  0  0  0  0  0  0  0  0  0  0
    1.7903   -1.0274    1.4285 H   0  0  0  0  0  0  0  0  0  0  0  0
    3.1292   -1.3620    0.3327 H   0  0  0  0  0  0  0  0  0  0  0  0
    5.0601    1.9751   -0.2460 H   0  0  0  0  0  0  0  0  0  0  0  0
    3.9103    3.2053   -0.8001 H   0  0  0  0  0  0  0  0  0  0  0  0
    4.0749    2.8527    0.9357 H   0  0  0  0  0  0  0  0  0  0  0  0
   -0.3879    4.1090    0.6445 H   0  0  0  0  0  0  0  0  0  0  0  0
    2.0028    3.7522    0.4105 H   0  0  0  0  0  0  0  0  0  0  0  0
   -0.9341   -1.2594   -0.5172 H   0  0  0  0  0  0  0  0  0  0  0  0
   -5.2961   -0.2198    0.2286 H   0  0  0  0  0  0  0  0  0  0  0  0
   -5.5575   -1.8078   -0.2447 H   0  0  0  0  0  0  0  0  0  0  0  0
   -2.2393   -2.5933   -0.4978 H   0  0  0  0  0  0  0  0  0  0  0  0
   -4.2421    1.3787    0.2877 H   0  0  0  0  0  0  0  0  0  0  0  0
   -2.7169    3.2143    0.5882 H   0  0  0  0  0  0  0  0  0  0  0  0
  5  4  1  0
  5  6  1  0
  3  2  1  0
  1  2  2  0
  2  4  1  0
  8  7  1  0
  8  9  1  0
 18 16  2  0
  6  7  2  0
  6 10  1  0
 14 10  2  0
 14 15  1  0
 16 17  1  0
 16 15  1  0
  7 13  1  0
 10 11  1  0
 15 19  2  0
 13 12  2  0
 11 12  1  0
 11 20  2  0
 19 20  1  0
  3 21  1  0
  3 22  1  0
  4 23  1  0
  4 24  1  0
  9 25  1  0
  9 26  1  0
  9 27  1  0
 12 28  1  0
 13 29  1  0
 14 30  1  0
 17 31  1  0
 17 32  1  0
 18 33  1  0
 19 34  1  0
 20 35  1  0
M  END
