
     RDKit          3D

 16 15  0  0  0  0  0  0  0  0999 V2000
   -0.4315    1.5972    0.3915 N   0  0  0  0  0  0  0  0  0  0  0  0
   -0.2215    0.1724    0.3411 C   0  0  1  0  0  0  0  0  0  0  0  0
   -1.2288   -0.5097   -0.6259 C   0  0  0  0  0  0  0  0  0  0  0  0
   -2.6039   -0.5629   -0.0597 N   0  0  0  0  0  0  0  0  0  0  0  0
    1.1685   -0.2634   -0.1101 C   0  0  0  0  0  0  0  0  0  0  0  0
    1.5722   -0.3800   -1.2639 O   0  0  0  0  0  0  0  0  0  0  0  0
    2.0037   -0.5380    0.9223 O   0  0  0  0  0  0  0  0  0  0  0  0
   -0.0153    1.9978    1.2114 H   0  0  0  0  0  0  0  0  0  0  0  0
   -0.0664    2.0566   -0.4231 H   0  0  0  0  0  0  0  0  0  0  0  0
   -0.3689   -0.2631    1.3777 H   0  0  0  0  0  0  0  0  0  0  0  0
   -1.2767    0.0555   -1.6009 H   0  0  0  0  0  0  0  0  0  0  0  0
   -0.8706   -1.5622   -0.8276 H   0  0  0  0  0  0  0  0  0  0  0  0
   -2.5950   -1.0499    0.8422 H   0  0  0  0  0  0  0  0  0  0  0  0
   -2.9580    0.3909    0.0940 H   0  0  0  0  0  0  0  0  0  0  0  0
   -3.2296   -1.0558   -0.7048 H   0  0  0  0  0  0  0  0  0  0  0  0
    2.8776   -0.8115    0.5847 H   0  0  0  0  0  0  0  0  0  0  0  0
  1  2  1  0
  1  8  1  0
  1  9  1  0
  2  3  1  0
  2  5  1  0
  2 10  1  1
  3  4  1  0
  3 11  1  0
  3 12  1  0
  4 13  1  0
  4 14  1  0
  4 15  1  0
  5  6  2  0
  5  7  1  0
  7 16  1  0
M  CHG  1   4   1
M  END
