
     RDKit          3D

 64 64  0  0  0  0  0  0  0  0999 V2000
    8.3412   10.3073   25.2452 O   0  0  0  0  0  0  0  0  0  0  0  0
    7.7319   10.0942   24.2043 C   0  0  0  0  0  0  0  0  0  0  0  0
    6.4133    9.8891   24.1648 N   0  0  0  0  0  0  0  0  0  0  0  0
    5.5976    9.8473   25.3559 C   0  0  0  0  0  0  0  0  0  0  0  0
    8.4522   10.0608   22.8568 C   0  0  2  0  0  0  0  0  0  0  0  0
    9.1344    8.6958   22.5660 C   0  0  2  0  0  0  0  0  0  0  0  0
   10.2597    8.3891   23.5538 C   0  0  0  0  0  0  0  0  0  0  0  0
    9.7117    8.7479   21.1503 C   0  0  0  0  0  0  0  0  0  0  0  0
    8.0850    7.5841   22.6231 C   0  0  0  0  0  0  0  0  0  0  0  0
    9.3820   11.1663   22.8534 N   0  0  0  0  0  0  0  0  0  0  0  0
    9.4100   12.1370   21.9232 C   0  0  0  0  0  0  0  0  0  0  0  0
    8.7621   12.1024   20.8874 O   0  0  0  0  0  0  0  0  0  0  0  0
   10.3097   13.3165   22.2601 C   0  0  2  0  0  0  0  0  0  0  0  0
    9.4596   14.5913   22.3245 C   0  0  0  0  0  0  0  0  0  0  0  0
    8.3024   14.5738   23.3244 C   0  0  1  0  0  0  0  0  0  0  0  0
    8.7639   14.3117   24.7546 C   0  0  0  0  0  0  0  0  0  0  0  0
    7.5425   15.8944   23.2389 C   0  0  0  0  0  0  0  0  0  0  0  0
   11.4240   13.4485   21.2092 C   0  0  1  0  0  0  0  0  0  0  0  0
   12.4014   14.5268   21.6406 C   0  0  0  0  0  0  0  0  0  0  0  0
   13.0674   14.4368   22.6569 O   0  0  0  0  0  0  0  0  0  0  0  0
   12.4530   15.5732   20.8028 N   0  0  0  0  0  0  0  0  0  0  0  0
   13.3770   16.5551   20.9771 O   0  0  0  0  0  0  0  0  0  0  0  0
   12.2047   12.1397   21.0277 C   0  0  0  0  0  0  0  0  0  0  0  0
   13.3998   12.3037   20.2335 N   0  0  0  0  0  0  0  0  0  0  0  0
   13.3674   12.4754   18.9088 C   0  0  0  0  0  0  0  0  0  0  0  0
   12.3518   12.5089   18.2298 O   0  0  0  0  0  0  0  0  0  0  0  0
   14.6938   12.6308   18.2645 C   0  0  0  0  0  0  0  0  0  0  0  0
   15.8400   12.6224   18.8679 N   0  0  0  0  0  0  0  0  0  0  0  0
   16.8547   12.7919   17.9803 C   0  0  0  0  0  0  0  0  0  0  0  0
   16.4675   12.9313   16.6805 C   0  0  0  0  0  0  0  0  0  0  0  0
   14.7681   12.8472   16.5632 S   0  0  0  0  0  0  0  0  0  0  0  0
    5.9667    9.7297   23.2775 H   0  0  0  0  0  0  0  0  0  0  0  0
    7.7324   10.2389   22.0547 H   0  0  0  0  0  0  0  0  0  0  0  0
    5.8711    9.0146   26.0049 H   0  0  0  0  0  0  0  0  0  0  0  0
    5.6822   10.7707   25.9285 H   0  0  0  0  0  0  0  0  0  0  0  0
    4.5613    9.7227   25.0569 H   0  0  0  0  0  0  0  0  0  0  0  0
    9.9161   11.3004   23.6982 H   0  0  0  0  0  0  0  0  0  0  0  0
   11.0313    9.1609   23.5476 H   0  0  0  0  0  0  0  0  0  0  0  0
    9.8978    8.2789   24.5756 H   0  0  0  0  0  0  0  0  0  0  0  0
   10.7419    7.4506   23.2745 H   0  0  0  0  0  0  0  0  0  0  0  0
    8.9405    8.9687   20.4094 H   0  0  0  0  0  0  0  0  0  0  0  0
   10.4943    9.5014   21.0577 H   0  0  0  0  0  0  0  0  0  0  0  0
   10.1558    7.7848   20.8918 H   0  0  0  0  0  0  0  0  0  0  0  0
    7.2528    7.7845   21.9445 H   0  0  0  0  0  0  0  0  0  0  0  0
    8.5310    6.6363   22.3186 H   0  0  0  0  0  0  0  0  0  0  0  0
    7.6791    7.4415   23.6255 H   0  0  0  0  0  0  0  0  0  0  0  0
   10.7833   13.1498   23.2328 H   0  0  0  0  0  0  0  0  0  0  0  0
   10.1119   15.4358   22.5696 H   0  0  0  0  0  0  0  0  0  0  0  0
    9.0654   14.7939   21.3242 H   0  0  0  0  0  0  0  0  0  0  0  0
   10.9674   13.7114   20.2506 H   0  0  0  0  0  0  0  0  0  0  0  0
    7.6044   13.7768   23.0424 H   0  0  0  0  0  0  0  0  0  0  0  0
    9.5403   15.0192   25.0556 H   0  0  0  0  0  0  0  0  0  0  0  0
    7.9316   14.4161   25.4522 H   0  0  0  0  0  0  0  0  0  0  0  0
    9.1602   13.3042   24.8860 H   0  0  0  0  0  0  0  0  0  0  0  0
    6.6752   15.8937   23.9011 H   0  0  0  0  0  0  0  0  0  0  0  0
    8.1798   16.7332   23.5294 H   0  0  0  0  0  0  0  0  0  0  0  0
    7.1863   16.0853   22.2250 H   0  0  0  0  0  0  0  0  0  0  0  0
   12.5102   11.7409   21.9941 H   0  0  0  0  0  0  0  0  0  0  0  0
   11.5605   11.3981   20.5532 H   0  0  0  0  0  0  0  0  0  0  0  0
   11.9592   15.5972   19.9226 H   0  0  0  0  0  0  0  0  0  0  0  0
   12.9429   17.2511   21.4878 H   0  0  0  0  0  0  0  0  0  0  0  0
   14.2973   12.2872   20.6933 H   0  0  0  0  0  0  0  0  0  0  0  0
   17.8782   12.8089   18.3248 H   0  0  0  0  0  0  0  0  0  0  0  0
   17.0918   13.0757   15.8131 H   0  0  0  0  0  0  0  0  0  0  0  0
  1  2  2  0
  2  3  1  0
  2  5  1  0
  3  4  1  0
  5  6  1  0
  5 10  1  0
  6  7  1  1
  6  8  1  0
  6  9  1  0
 10 11  1  0
 11 12  2  0
 11 13  1  0
 13 14  1  0
 13 18  1  0
 14 15  1  0
 15 16  1  0
 15 17  1  0
 18 19  1  0
 18 23  1  0
 19 20  2  0
 19 21  1  0
 21 22  1  0
 23 24  1  0
 24 25  1  0
 25 26  2  0
 25 27  1  0
 27 28  2  0
 27 31  1  0
 28 29  1  0
 29 30  2  0
 30 31  1  0
  3 32  1  0
  5 33  1  6
  4 34  1  0
  4 35  1  0
  4 36  1  0
 10 37  1  0
  7 38  1  0
  7 39  1  0
  7 40  1  0
  8 41  1  0
  8 42  1  0
  8 43  1  0
  9 44  1  0
  9 45  1  0
  9 46  1  0
 13 47  1  1
 14 48  1  0
 14 49  1  0
 18 50  1  6
 15 51  1  6
 16 52  1  0
 16 53  1  0
 16 54  1  0
 17 55  1  0
 17 56  1  0
 17 57  1  0
 23 58  1  0
 23 59  1  0
 21 60  1  0
 22 61  1  0
 24 62  1  0
 29 63  1  0
 30 64  1  0
M  END
