
     RDKit          3D

 56 57  0  0  0  0  0  0  0  0999 V2000
    7.5357   -2.8386   -0.0607 Cl  0  0  0  0  0  0  0  0  0  0  0  0
    6.3330   -1.5983    0.1048 C   0  0  0  0  0  0  0  0  0  0  0  0
    6.3764   -0.4912   -0.7313 C   0  0  0  0  0  0  0  0  0  0  0  0
    5.4141    0.4957   -0.5936 C   0  0  0  0  0  0  0  0  0  0  0  0
    5.3454   -1.7291    1.0656 C   0  0  0  0  0  0  0  0  0  0  0  0
    4.3893   -0.7284    1.1868 C   0  0  0  0  0  0  0  0  0  0  0  0
    4.4116    0.3947    0.3692 C   0  0  0  0  0  0  0  0  0  0  0  0
    3.3898    1.4877    0.5288 C   0  0  0  0  0  0  0  0  0  0  0  0
    2.7535    1.8350   -0.7292 N   0  0  0  0  0  0  0  0  0  0  0  0
    1.9432    3.0377   -0.6234 C   0  0  0  0  0  0  0  0  0  0  0  0
    0.6538    2.8495    0.1762 C   0  0  0  0  0  0  0  0  0  0  0  0
    1.9612    0.7582   -1.3026 C   0  0  0  0  0  0  0  0  0  0  0  0
    0.6713    0.4565   -0.5385 C   0  0  0  0  0  0  0  0  0  0  0  0
   -0.1943    1.7134   -0.4050 C   0  0  1  0  0  0  0  0  0  0  0  0
   -1.5012    1.4644    0.3997 C   0  0  2  0  0  0  0  0  0  0  0  0
   -2.2532    2.7912    0.4310 C   0  0  0  0  0  0  0  0  0  0  0  0
   -2.4781    3.2643    1.6475 O   0  0  0  0  0  0  0  0  0  0  0  0
   -2.6251    3.3583   -0.5686 O   0  0  0  0  0  0  0  0  0  0  0  0
   -1.1575    1.0371    1.7476 N   0  0  0  0  0  0  0  0  0  0  0  0
   -2.4094    0.4580   -0.3463 C   0  0  0  0  0  0  0  0  0  0  0  0
   -3.7648    0.2049    0.3053 C   0  0  0  0  0  0  0  0  0  0  0  0
   -4.5651   -0.8966   -0.3853 C   0  0  0  0  0  0  0  0  0  0  0  0
   -5.9171   -1.1824    0.2631 C   0  0  0  0  0  0  0  0  0  0  0  0
   -6.7989   -2.3958   -0.4146 B   0  0  1  0  0  0  0  0  0  0  0  0
   -8.0437   -2.6461    0.3459 O   0  0  0  0  0  0  0  0  0  0  0  0
   -7.0836   -1.9887   -1.8141 O   0  0  0  0  0  0  0  0  0  0  0  0
   -6.1013   -3.6993   -0.3545 O   0  0  0  0  0  0  0  0  0  0  0  0
    7.1516   -0.3986   -1.4802 H   0  0  0  0  0  0  0  0  0  0  0  0
    5.4394    1.3562   -1.2503 H   0  0  0  0  0  0  0  0  0  0  0  0
    5.3135   -2.5977    1.7094 H   0  0  0  0  0  0  0  0  0  0  0  0
    3.6140   -0.8343    1.9361 H   0  0  0  0  0  0  0  0  0  0  0  0
    2.6809    1.2008    1.3194 H   0  0  0  0  0  0  0  0  0  0  0  0
    3.8922    2.3877    0.8978 H   0  0  0  0  0  0  0  0  0  0  0  0
    2.5472    3.8334   -0.1796 H   0  0  0  0  0  0  0  0  0  0  0  0
    1.6912    3.3645   -1.6385 H   0  0  0  0  0  0  0  0  0  0  0  0
    0.8807    2.6368    1.2237 H   0  0  0  0  0  0  0  0  0  0  0  0
    0.1066    3.7965    0.1631 H   0  0  0  0  0  0  0  0  0  0  0  0
    1.7107    1.0406   -2.3306 H   0  0  0  0  0  0  0  0  0  0  0  0
    2.5724   -0.1442   -1.3691 H   0  0  0  0  0  0  0  0  0  0  0  0
    0.1368   -0.3353   -1.0667 H   0  0  0  0  0  0  0  0  0  0  0  0
    0.9257    0.0572    0.4484 H   0  0  0  0  0  0  0  0  0  0  0  0
   -0.5013    2.0053   -1.4165 H   0  0  0  0  0  0  0  0  0  0  0  0
   -2.9785    4.0927    1.5875 H   0  0  0  0  0  0  0  0  0  0  0  0
   -1.9865    0.9475    2.3213 H   0  0  0  0  0  0  0  0  0  0  0  0
   -0.7683    0.1034    1.6981 H   0  0  0  0  0  0  0  0  0  0  0  0
   -2.5570    0.7915   -1.3775 H   0  0  0  0  0  0  0  0  0  0  0  0
   -1.8709   -0.4921   -0.4068 H   0  0  0  0  0  0  0  0  0  0  0  0
   -3.6287   -0.0756    1.3551 H   0  0  0  0  0  0  0  0  0  0  0  0
   -4.3671    1.1206    0.3094 H   0  0  0  0  0  0  0  0  0  0  0  0
   -4.7065   -0.6301   -1.4383 H   0  0  0  0  0  0  0  0  0  0  0  0
   -3.9518   -1.8078   -0.3912 H   0  0  0  0  0  0  0  0  0  0  0  0
   -5.7396   -1.4103    1.3248 H   0  0  0  0  0  0  0  0  0  0  0  0
   -6.4937   -0.2441    0.2732 H   0  0  0  0  0  0  0  0  0  0  0  0
   -8.4744   -1.8035    0.5047 H   0  0  0  0  0  0  0  0  0  0  0  0
   -7.6092   -2.6758   -2.2339 H   0  0  0  0  0  0  0  0  0  0  0  0
   -5.2246   -3.5977   -0.7305 H   0  0  0  0  0  0  0  0  0  0  0  0
 24 25  1  1
 26 24  1  0
 24 27  1  0
 24 23  1  0
 23 22  1  0
 22 21  1  0
 21 20  1  0
 20 15  1  0
 19 15  1  0
 18 16  2  0
 15 16  1  1
 15 14  1  0
 16 17  1  0
 14 13  1  0
 14 11  1  0
 13 12  1  0
 11 10  1  0
 12  9  1  0
 10  9  1  0
  9  8  1  0
  8  7  1  0
  7  4  2  0
  7  6  1  0
  4  3  1  0
  6  5  2  0
  3  2  2  0
  5  2  1  0
  2  1  1  0
  3 28  1  0
  4 29  1  0
  5 30  1  0
  6 31  1  0
  8 32  1  0
  8 33  1  0
 10 34  1  0
 10 35  1  0
 11 36  1  0
 11 37  1  0
 12 38  1  0
 12 39  1  0
 13 40  1  0
 13 41  1  0
 14 42  1  6
 17 43  1  0
 19 44  1  0
 19 45  1  0
 20 46  1  0
 20 47  1  0
 21 48  1  0
 21 49  1  0
 22 50  1  0
 22 51  1  0
 23 52  1  0
 23 53  1  0
 25 54  1  0
 26 55  1  0
 27 56  1  0
M  CHG  1  24  -1
M  END
