
     RDKit          3D

 37 37  0  0  0  0  0  0  0  0999 V2000
    2.4295   -1.4519   -0.5743 C   0  0  0  0  0  0  0  0  0  0  0  0
    2.1899   -2.4738    0.5279 C   0  0  0  0  0  0  0  0  0  0  0  0
    2.5554    0.9027   -1.3587 C   0  0  0  0  0  0  0  0  0  0  0  0
    4.7937    0.0391    0.6331 C   0  0  0  0  0  0  0  0  0  0  0  0
   -1.4728    0.0834   -0.1980 C   0  0  0  0  0  0  0  0  0  0  0  0
   -2.0776    1.0087    0.6473 C   0  0  0  0  0  0  0  0  0  0  0  0
   -2.3073   -0.8128   -0.8643 C   0  0  0  0  0  0  0  0  0  0  0  0
   -4.2070    0.0329    0.0893 C   0  0  0  0  0  0  0  0  0  0  0  0
   -3.4546    0.9721    0.7879 C   0  0  0  0  0  0  0  0  0  0  0  0
    0.9104    0.3113    0.4090 C   0  0  0  0  0  0  0  0  0  0  0  0
    2.3218    0.0199   -0.1278 C   0  0  1  0  0  0  0  0  0  0  0  0
    3.3407    0.3396    0.9810 C   0  0  0  0  0  0  0  0  0  0  0  0
    2.3212    2.2444   -1.0125 O   0  0  0  0  0  0  0  0  0  0  0  0
   -0.1006    0.0166   -0.4544 N   0  0  0  0  0  0  0  0  0  0  0  0
   -3.6219   -0.8363   -0.7325 N   0  0  0  0  0  0  0  0  0  0  0  0
    3.4215   -1.6065   -1.0042 H   0  0  0  0  0  0  0  0  0  0  0  0
    1.7380   -1.6482   -1.3990 H   0  0  0  0  0  0  0  0  0  0  0  0
    2.9298   -2.3976    1.3246 H   0  0  0  0  0  0  0  0  0  0  0  0
    1.2024   -2.3641    0.9803 H   0  0  0  0  0  0  0  0  0  0  0  0
    2.2490   -3.4840    0.1232 H   0  0  0  0  0  0  0  0  0  0  0  0
    3.5802    0.7436   -1.7151 H   0  0  0  0  0  0  0  0  0  0  0  0
    1.8994    0.5803   -2.1796 H   0  0  0  0  0  0  0  0  0  0  0  0
    5.1459    0.6119   -0.2254 H   0  0  0  0  0  0  0  0  0  0  0  0
    5.4333    0.3037    1.4756 H   0  0  0  0  0  0  0  0  0  0  0  0
    4.9651   -1.0163    0.4187 H   0  0  0  0  0  0  0  0  0  0  0  0
   -1.5018    1.7530    1.1740 H   0  0  0  0  0  0  0  0  0  0  0  0
   -5.9581   -0.8292    0.9730 H   0  0  0  0  0  0  0  0  0  0  0  0
   -6.1187    0.8813    0.5995 H   0  0  0  0  0  0  0  0  0  0  0  0
   -6.1715   -0.3219   -0.6958 H   0  0  0  0  0  0  0  0  0  0  0  0
   -1.8745   -1.5424   -1.5441 H   0  0  0  0  0  0  0  0  0  0  0  0
   -3.9459    1.6853    1.4370 H   0  0  0  0  0  0  0  0  0  0  0  0
    3.0743   -0.2191    1.8800 H   0  0  0  0  0  0  0  0  0  0  0  0
    3.2556    1.3920    1.2538 H   0  0  0  0  0  0  0  0  0  0  0  0
    2.5151    2.7940   -1.7771 H   0  0  0  0  0  0  0  0  0  0  0  0
    0.1467   -0.4340   -1.3210 H   0  0  0  0  0  0  0  0  0  0  0  0
   -5.6940   -0.0571    0.2467 C   0  0  0  0  0  0  0  0  0  0  0  0
    0.6996    0.7655    1.5169 O   0  0  0  0  0  0  0  0  0  0  0  0
  4 12  1  0
 12 11  1  0
 37 10  2  0
 13  3  1  0
  6  9  1  0
  6  5  2  0
  9  8  2  0
 11 10  1  1
 10 14  1  0
 11  3  1  0
 11  1  1  0
  5 14  1  0
  5  7  1  0
  8 36  1  0
  8 15  1  0
  1  2  1  0
  7 15  2  0
  1 16  1  0
  1 17  1  0
  2 18  1  0
  2 19  1  0
  2 20  1  0
  3 21  1  0
  3 22  1  0
  4 23  1  0
  4 24  1  0
  4 25  1  0
  6 26  1  0
 36 27  1  0
 36 28  1  0
 36 29  1  0
  7 30  1  0
  9 31  1  0
 12 32  1  0
 12 33  1  0
 13 34  1  0
 14 35  1  0
M  END
