
     RDKit          3D

 20 20  0  0  0  0  0  0  0  0999 V2000
   -0.4424   -0.3600    0.0531 C   0  0  0  0  0  0  0  0  0  0  0  0
    0.8269    0.0411    0.4910 C   0  0  0  0  0  0  0  0  0  0  0  0
   -1.4742   -0.4088    0.9859 C   0  0  0  0  0  0  0  0  0  0  0  0
   -0.6893   -0.7418   -1.3859 C   0  0  0  0  0  0  0  0  0  0  0  0
    1.0392    0.3616    1.8295 C   0  0  0  0  0  0  0  0  0  0  0  0
    1.8950    0.1145   -0.3345 O   0  0  0  0  0  0  0  0  0  0  0  0
   -1.2712   -0.0901    2.3209 C   0  0  0  0  0  0  0  0  0  0  0  0
   -0.0038    0.2906    2.7396 C   0  0  0  0  0  0  0  0  0  0  0  0
   -0.4521    0.3951   -2.3385 C   0  0  0  0  0  0  0  0  0  0  0  0
    0.3758    0.3499   -3.3785 C   0  0  0  0  0  0  0  0  0  0  0  0
   -2.4593   -0.7124    0.6513 H   0  0  0  0  0  0  0  0  0  0  0  0
   -0.0726   -1.5998   -1.6734 H   0  0  0  0  0  0  0  0  0  0  0  0
   -1.7281   -1.0680   -1.4789 H   0  0  0  0  0  0  0  0  0  0  0  0
    2.0280    0.6663    2.1499 H   0  0  0  0  0  0  0  0  0  0  0  0
    1.6199    0.1335   -1.2601 H   0  0  0  0  0  0  0  0  0  0  0  0
   -2.0907   -0.1417    3.0250 H   0  0  0  0  0  0  0  0  0  0  0  0
    0.1779    0.5404    3.7770 H   0  0  0  0  0  0  0  0  0  0  0  0
   -1.0036    1.3083   -2.1339 H   0  0  0  0  0  0  0  0  0  0  0  0
    0.5092    1.2013   -4.0324 H   0  0  0  0  0  0  0  0  0  0  0  0
    0.9416   -0.5437   -3.6188 H   0  0  0  0  0  0  0  0  0  0  0  0
  1  2  2  0
  1  3  1  0
  1  4  1  0
  2  5  1  0
  2  6  1  0
  3  7  2  0
  3 11  1  0
  4  9  1  0
  4 12  1  0
  4 13  1  0
  5  8  2  0
  5 14  1  0
  6 15  1  0
  7  8  1  0
  7 16  1  0
  8 17  1  0
  9 10  2  0
  9 18  1  0
 10 19  1  0
 10 20  1  0
M  END
