
     RDKit          3D

 40 42  0  0  0  0  0  0  0  0999 V2000
    3.3615    1.0205   -2.0535 O   0  0  0  0  0  0  0  0  0  0  0  0
    3.8063    1.1274   -0.9403 C   0  0  0  0  0  0  0  0  0  0  0  0
    3.6067    2.1747   -0.1555 O   0  0  0  0  0  0  0  0  0  0  0  0
    4.7338    0.1319   -0.3223 C   0  0  0  0  0  0  0  0  0  0  0  0
    6.0622    0.5020   -0.1592 C   0  0  0  0  0  0  0  0  0  0  0  0
    7.0077   -0.4232    0.2643 C   0  0  0  0  0  0  0  0  0  0  0  0
    6.6224   -1.7281    0.5320 C   0  0  0  0  0  0  0  0  0  0  0  0
    5.2933   -2.0961    0.3940 C   0  0  0  0  0  0  0  0  0  0  0  0
    4.3313   -1.1760   -0.0201 C   0  0  0  0  0  0  0  0  0  0  0  0
    2.9376   -1.6064   -0.0567 C   0  0  0  0  0  0  0  0  0  0  0  0
    2.0039   -0.7443   -0.0037 N   0  0  0  0  0  0  0  0  0  0  0  0
    0.7352   -1.1411   -0.0344 N   0  0  0  0  0  0  0  0  0  0  0  0
   -0.2390   -0.2039    0.0705 C   0  0  0  0  0  0  0  0  0  0  0  0
    0.1737    1.4727    0.2338 S   0  0  0  0  0  0  0  0  0  0  0  0
   -1.5159    1.8221    0.2928 C   0  0  0  0  0  0  0  0  0  0  0  0
   -2.2441    0.6780    0.1936 C   0  0  0  0  0  0  0  0  0  0  0  0
   -1.5017   -0.4712    0.0642 N   0  0  0  0  0  0  0  0  0  0  0  0
   -3.7101    0.5841    0.2064 C   0  0  0  0  0  0  0  0  0  0  0  0
   -4.3232   -0.6304   -0.0753 C   0  0  0  0  0  0  0  0  0  0  0  0
   -5.7141   -0.7478   -0.0753 C   0  0  0  0  0  0  0  0  0  0  0  0
   -6.1997   -1.9712   -0.3625 O   0  0  0  0  0  0  0  0  0  0  0  0
   -7.6014   -2.1531   -0.3793 C   0  0  0  0  0  0  0  0  0  0  0  0
   -6.5027    0.3624    0.2106 C   0  0  0  0  0  0  0  0  0  0  0  0
   -5.8821    1.5752    0.4955 C   0  0  0  0  0  0  0  0  0  0  0  0
   -4.5063    1.6972    0.4984 C   0  0  0  0  0  0  0  0  0  0  0  0
    3.0574    2.8309   -0.6117 H   0  0  0  0  0  0  0  0  0  0  0  0
    6.3738    1.5130   -0.3894 H   0  0  0  0  0  0  0  0  0  0  0  0
    8.0414   -0.1241    0.3742 H   0  0  0  0  0  0  0  0  0  0  0  0
    7.3530   -2.4578    0.8550 H   0  0  0  0  0  0  0  0  0  0  0  0
    4.9894   -3.1090    0.6279 H   0  0  0  0  0  0  0  0  0  0  0  0
    2.7433   -2.6793   -0.0927 H   0  0  0  0  0  0  0  0  0  0  0  0
    0.4759   -2.1199   -0.0981 H   0  0  0  0  0  0  0  0  0  0  0  0
   -1.8571    2.8399    0.3910 H   0  0  0  0  0  0  0  0  0  0  0  0
   -3.7214   -1.5017   -0.2997 H   0  0  0  0  0  0  0  0  0  0  0  0
   -8.0526   -1.9419    0.5936 H   0  0  0  0  0  0  0  0  0  0  0  0
   -8.0853   -1.5282   -1.1344 H   0  0  0  0  0  0  0  0  0  0  0  0
   -7.7749   -3.1975   -0.6261 H   0  0  0  0  0  0  0  0  0  0  0  0
   -7.5825    0.3070    0.2211 H   0  0  0  0  0  0  0  0  0  0  0  0
   -6.4956    2.4370    0.7242 H   0  0  0  0  0  0  0  0  0  0  0  0
   -4.0582    2.6520    0.7389 H   0  0  0  0  0  0  0  0  0  0  0  0
 24 25  2  0
 24 23  1  0
 25 18  1  0
 15 14  1  0
 15 16  2  0
 14 13  1  0
 23 20  2  0
  7  8  2  0
  7  6  1  0
 18 16  1  0
 18 19  2  0
 16 17  1  0
  8  9  1  0
  6  5  2  0
 13 17  2  0
 13 12  1  0
 20 19  1  0
 20 21  1  0
 11 12  1  0
 11 10  2  0
  9 10  1  0
  9  4  2  0
  5  4  1  0
 21 22  1  0
  4  2  1  0
  2  1  2  0
  2  3  1  0
  3 26  1  0
  5 27  1  0
  6 28  1  0
  7 29  1  0
  8 30  1  0
 10 31  1  0
 12 32  1  0
 15 33  1  0
 19 34  1  0
 22 35  1  0
 22 36  1  0
 22 37  1  0
 23 38  1  0
 24 39  1  0
 25 40  1  0
M  END
