
     RDKit          3D

 59 61  0  0  0  0  0  0  0  0999 V2000
   -3.9745    2.0196    0.4205 C   0  0  0  0  0  0  0  0  0  0  0  0
   -4.8542    0.9381    0.3254 C   0  0  0  0  0  0  0  0  0  0  0  0
   -6.1361    1.1304   -0.1780 C   0  0  0  0  0  0  0  0  0  0  0  0
   -4.3564    3.2704   -0.0490 C   0  0  0  0  0  0  0  0  0  0  0  0
   -6.5033    2.3794   -0.6442 C   0  0  0  0  0  0  0  0  0  0  0  0
   -5.6190    3.4473   -0.5906 C   0  0  0  0  0  0  0  0  0  0  0  0
   -8.0844    2.6110   -1.3093 Cl  0  0  0  0  0  0  0  0  0  0  0  0
   -4.4457   -0.4238    0.7701 C   0  0  0  0  0  0  0  0  0  0  0  0
   -5.1734   -1.1086    1.4515 O   0  0  0  0  0  0  0  0  0  0  0  0
   -3.1246   -0.9411    0.3074 C   0  0  0  0  0  0  0  0  0  0  0  0
   -2.4363   -1.8474    1.1064 C   0  0  0  0  0  0  0  0  0  0  0  0
   -1.2058   -2.3257    0.6914 C   0  0  0  0  0  0  0  0  0  0  0  0
   -0.6592   -1.9513   -0.5229 C   0  0  0  0  0  0  0  0  0  0  0  0
   -1.3701   -1.0612   -1.3228 C   0  0  0  0  0  0  0  0  0  0  0  0
   -2.5962   -0.5465   -0.9131 C   0  0  0  0  0  0  0  0  0  0  0  0
   -0.3097   -3.3814    1.7196 Cl  0  0  0  0  0  0  0  0  0  0  0  0
   -2.7964    1.7849    1.0298 O   0  0  0  0  0  0  0  0  0  0  0  0
   -1.6293    2.3761    0.5034 C   0  0  0  0  0  0  0  0  0  0  0  0
   -0.4958    1.3973    0.7829 C   0  0  0  0  0  0  0  0  0  0  0  0
   -0.5160    0.6608    1.7415 O   0  0  0  0  0  0  0  0  0  0  0  0
    0.5040    1.4611   -0.1393 N   0  0  0  0  0  0  0  0  0  0  0  0
    1.6753    0.7122   -0.2130 C   0  0  0  0  0  0  0  0  0  0  0  0
    2.5485    0.9971   -1.2825 C   0  0  0  0  0  0  0  0  0  0  0  0
    2.2413    2.0755   -2.2786 C   0  0  0  0  0  0  0  0  0  0  0  0
    3.7088    0.2551   -1.4036 C   0  0  0  0  0  0  0  0  0  0  0  0
    4.0118   -0.7440   -0.4861 C   0  0  0  0  0  0  0  0  0  0  0  0
    3.1579   -1.0245    0.5642 C   0  0  0  0  0  0  0  0  0  0  0  0
    1.9880   -0.2976    0.6993 C   0  0  0  0  0  0  0  0  0  0  0  0
    6.6977   -0.5836   -0.1785 N   0  0  0  0  0  0  0  0  0  0  0  0
    6.7873   -0.0887    1.1041 C   0  0  0  0  0  0  0  0  0  0  0  0
    7.8848    0.9272    1.2867 C   0  0  0  0  0  0  0  0  0  0  0  0
    5.5060   -1.6477   -0.6848 S   0  0  1  0  0  0  0  0  0  0  0  0
    5.4888   -2.7977    0.1945 O   0  0  0  0  0  0  0  0  0  0  0  0
    8.1457    1.2737    2.7412 C   0  0  0  0  0  0  0  0  0  0  0  0
    6.0230   -0.4434    1.9712 O   0  0  0  0  0  0  0  0  0  0  0  0
    5.7787   -1.8221   -2.1002 O   0  0  0  0  0  0  0  0  0  0  0  0
   -0.8080   -0.6419   -2.5661 C   0  0  0  0  0  0  0  0  0  0  0  0
   -0.3469   -0.2927   -3.5619 N   0  0  0  0  0  0  0  0  0  0  0  0
   -6.8234    0.2970   -0.2384 H   0  0  0  0  0  0  0  0  0  0  0  0
   -3.6858    4.1172    0.0191 H   0  0  0  0  0  0  0  0  0  0  0  0
   -5.9135    4.4212   -0.9567 H   0  0  0  0  0  0  0  0  0  0  0  0
   -2.8430   -2.1495    2.0622 H   0  0  0  0  0  0  0  0  0  0  0  0
    0.2991   -2.3353   -0.8434 H   0  0  0  0  0  0  0  0  0  0  0  0
   -3.1296    0.1409   -1.5566 H   0  0  0  0  0  0  0  0  0  0  0  0
   -1.7300    2.5757   -0.5678 H   0  0  0  0  0  0  0  0  0  0  0  0
   -1.4063    3.3283    0.9978 H   0  0  0  0  0  0  0  0  0  0  0  0
    0.3850    2.1553   -0.8614 H   0  0  0  0  0  0  0  0  0  0  0  0
    2.1508    3.0547   -1.8035 H   0  0  0  0  0  0  0  0  0  0  0  0
    3.0338    2.1502   -3.0200 H   0  0  0  0  0  0  0  0  0  0  0  0
    1.3142    1.8805   -2.8222 H   0  0  0  0  0  0  0  0  0  0  0  0
    4.3794    0.4683   -2.2266 H   0  0  0  0  0  0  0  0  0  0  0  0
    3.3812   -1.8012    1.2809 H   0  0  0  0  0  0  0  0  0  0  0  0
    1.3249   -0.5226    1.5169 H   0  0  0  0  0  0  0  0  0  0  0  0
    7.3179   -0.2439   -0.9040 H   0  0  0  0  0  0  0  0  0  0  0  0
    8.7944    0.5593    0.8057 H   0  0  0  0  0  0  0  0  0  0  0  0
    7.5954    1.8217    0.7255 H   0  0  0  0  0  0  0  0  0  0  0  0
    7.2597    1.6816    3.2248 H   0  0  0  0  0  0  0  0  0  0  0  0
    8.4704    0.4023    3.3090 H   0  0  0  0  0  0  0  0  0  0  0  0
    8.9332    2.0229    2.8051 H   0  0  0  0  0  0  0  0  0  0  0  0
  1  2  1  0
  1  4  2  0
  1 17  1  0
  2  3  2  0
  2  8  1  0
  3  5  1  0
  4  6  1  0
  5  6  2  0
  5  7  1  0
  8  9  2  0
  8 10  1  0
 10 11  2  0
 10 15  1  0
 11 12  1  0
 12 13  2  0
 12 16  1  0
 13 14  1  0
 14 15  2  0
 14 37  1  0
 17 18  1  0
 18 19  1  0
 19 20  2  0
 19 21  1  0
 21 22  1  0
 22 23  2  0
 22 28  1  0
 23 24  1  0
 23 25  1  0
 25 26  2  0
 26 27  1  0
 26 32  1  0
 27 28  2  0
 29 30  1  0
 32 29  1  1
 30 31  1  0
 30 35  2  0
 31 34  1  0
 32 33  2  0
 32 36  2  0
 37 38  3  0
  3 39  1  0
  4 40  1  0
  6 41  1  0
 11 42  1  0
 13 43  1  0
 15 44  1  0
 18 45  1  0
 18 46  1  0
 21 47  1  0
 24 48  1  0
 24 49  1  0
 24 50  1  0
 25 51  1  0
 27 52  1  0
 28 53  1  0
 29 54  1  0
 31 55  1  0
 31 56  1  0
 34 57  1  0
 34 58  1  0
 34 59  1  0
M  END
