
     RDKit          3D

 44 47  0  0  0  0  0  0  0  0999 V2000
    6.3533   -1.1112    1.7838 C   0  0  0  0  0  0  0  0  0  0  0  0
    6.4099    0.2755    1.8145 C   0  0  0  0  0  0  0  0  0  0  0  0
    5.4608   -1.7412    0.9248 C   0  0  0  0  0  0  0  0  0  0  0  0
   -6.5166   -0.1774   -1.3594 C   0  0  0  0  0  0  0  0  0  0  0  0
   -5.1377   -0.1935   -1.2417 C   0  0  0  0  0  0  0  0  0  0  0  0
    5.5757    1.0236    0.9936 C   0  0  0  0  0  0  0  0  0  0  0  0
    4.6334   -0.9902    0.1016 C   0  0  0  0  0  0  0  0  0  0  0  0
   -0.8073    0.2113    0.5217 C   0  0  0  0  0  0  0  0  0  0  0  0
   -7.3161   -0.2673   -0.2148 C   0  0  0  0  0  0  0  0  0  0  0  0
   -3.4743   -0.4159    1.9716 C   0  0  0  0  0  0  0  0  0  0  0  0
   -1.7751   -0.7359   -1.3446 C   0  0  0  0  0  0  0  0  0  0  0  0
   -4.5995   -0.3050    0.0385 C   0  0  0  0  0  0  0  0  0  0  0  0
   -2.0020   -0.2938   -0.0669 C   0  0  0  0  0  0  0  0  0  0  0  0
   -3.2865   -0.3360    0.6153 C   0  0  0  0  0  0  0  0  0  0  0  0
    4.6812    0.4005    0.1316 C   0  0  0  0  0  0  0  0  0  0  0  0
    0.2750    0.1477   -0.3051 C   0  0  0  0  0  0  0  0  0  0  0  0
   -5.5202   -0.3725    1.1098 C   0  0  0  0  0  0  0  0  0  0  0  0
    4.5046    1.2693   -2.1910 C   0  0  0  0  0  0  0  0  0  0  0  0
    3.8433    1.2324   -0.8075 C   0  0  1  0  0  0  0  0  0  0  0  0
   -6.8392   -0.3602    1.0180 N   0  0  0  0  0  0  0  0  0  0  0  0
   -4.8040   -0.4391    2.2653 N   0  0  0  0  0  0  0  0  0  0  0  0
    2.5051    0.7134   -0.9808 N   0  0  0  0  0  0  0  0  0  0  0  0
    3.6456    1.9374   -3.1507 N   0  0  0  0  0  0  0  0  0  0  0  0
    1.9224    0.8865    1.1979 O   0  0  0  0  0  0  0  0  0  0  0  0
   -0.1482   -0.5459   -1.8244 S   0  0  0  0  0  0  0  0  0  0  0  0
    6.9970   -1.6987    2.4256 H   0  0  0  0  0  0  0  0  0  0  0  0
    7.0985    0.7778    2.4820 H   0  0  0  0  0  0  0  0  0  0  0  0
    5.4087   -2.8223    0.8954 H   0  0  0  0  0  0  0  0  0  0  0  0
   -4.5096   -0.1137   -2.1198 H   0  0  0  0  0  0  0  0  0  0  0  0
    5.6178    2.1063    1.0282 H   0  0  0  0  0  0  0  0  0  0  0  0
    3.9386   -1.4921   -0.5616 H   0  0  0  0  0  0  0  0  0  0  0  0
   -0.7573    0.6291    1.5177 H   0  0  0  0  0  0  0  0  0  0  0  0
   -8.3955   -0.2581   -0.3132 H   0  0  0  0  0  0  0  0  0  0  0  0
   -2.7398   -0.4708    2.7593 H   0  0  0  0  0  0  0  0  0  0  0  0
   -2.4768   -1.2010   -2.0200 H   0  0  0  0  0  0  0  0  0  0  0  0
    5.4970    1.7208   -2.0766 H   0  0  0  0  0  0  0  0  0  0  0  0
    4.6617    0.2425   -2.5298 H   0  0  0  0  0  0  0  0  0  0  0  0
    3.7973    2.2577   -0.4183 H   0  0  0  0  0  0  0  0  0  0  0  0
   -5.1941   -0.5032    3.1918 H   0  0  0  0  0  0  0  0  0  0  0  0
    2.1623    0.7950   -1.9312 H   0  0  0  0  0  0  0  0  0  0  0  0
    3.6858    2.9402   -3.0189 H   0  0  0  0  0  0  0  0  0  0  0  0
    3.9708    1.7579   -4.0907 H   0  0  0  0  0  0  0  0  0  0  0  0
    1.6340    0.6203    0.0411 C   0  0  0  0  0  0  0  0  0  0  0  0
   -6.9870   -0.0920   -2.3292 H   0  0  0  0  0  0  0  0  0  0  0  0
  1  3  2  0
  1  2  1  0
  3  7  1  0
  2  6  2  0
  7 15  2  0
  6 15  1  0
 15 19  1  0
 24 43  2  0
 43 16  1  0
 43 22  1  0
 25 16  1  0
 25 11  1  0
 19 22  1  0
 19 18  1  0
 16  8  2  0
 11 13  2  0
  8 13  1  0
 18 23  1  0
 13 14  1  0
 14 10  2  0
 14 12  1  0
 10 21  1  0
 12  5  1  0
 12 17  2  0
  5  4  2  0
 21 17  1  0
 17 20  1  0
  4  9  1  0
 20  9  2  0
  1 26  1  0
  2 27  1  0
  3 28  1  0
  4 44  1  0
  5 29  1  0
  6 30  1  0
  7 31  1  0
  8 32  1  0
  9 33  1  0
 10 34  1  0
 11 35  1  0
 18 36  1  0
 18 37  1  0
 19 38  1  1
 21 39  1  0
 22 40  1  0
 23 41  1  0
 23 42  1  0
M  END
