
     RDKit          3D

 19 18  0  0  0  0  0  0  0  0999 V2000
    2.7269    0.2372   -0.7717 O   0  0  0  0  0  0  0  0  0  0  0  0
    1.6849    0.3705   -0.1922 C   0  0  0  0  0  0  0  0  0  0  0  0
    0.4016   -0.1361   -0.8121 C   0  0  0  0  0  0  0  0  0  0  0  0
   -0.8148    0.0030    0.0414 N   0  0  2  0  0  0  0  0  0  0  0  0
   -1.0696    1.4361    0.3692 C   0  0  0  0  0  0  0  0  0  0  0  0
   -0.6646   -0.7912    1.2943 C   0  0  0  0  0  0  0  0  0  0  0  0
   -1.9795   -0.5253   -0.7289 C   0  0  0  0  0  0  0  0  0  0  0  0
    1.6375    0.8659    0.7900 H   0  0  0  0  0  0  0  0  0  0  0  0
    0.5227   -1.1919   -1.0585 H   0  0  0  0  0  0  0  0  0  0  0  0
    0.2215    0.4049   -1.7433 H   0  0  0  0  0  0  0  0  0  0  0  0
   -0.2852    1.8193    1.0148 H   0  0  0  0  0  0  0  0  0  0  0  0
   -1.1026    2.0105   -0.5525 H   0  0  0  0  0  0  0  0  0  0  0  0
   -2.0219    1.5104    0.8862 H   0  0  0  0  0  0  0  0  0  0  0  0
   -1.5715   -0.6924    1.8837 H   0  0  0  0  0  0  0  0  0  0  0  0
   -0.5036   -1.8342    1.0357 H   0  0  0  0  0  0  0  0  0  0  0  0
    0.1771   -0.4209    1.8723 H   0  0  0  0  0  0  0  0  0  0  0  0
   -2.1155    0.0747   -1.6243 H   0  0  0  0  0  0  0  0  0  0  0  0
   -1.7883   -1.5596   -1.0008 H   0  0  0  0  0  0  0  0  0  0  0  0
   -2.8673   -0.4658   -0.1054 H   0  0  0  0  0  0  0  0  0  0  0  0
  1  2  2  0
  2  3  1  0
  2  8  1  0
  4  3  1  6
  3  9  1  0
  3 10  1  0
  4  5  1  0
  4  6  1  0
  4  7  1  0
  5 11  1  0
  5 12  1  0
  5 13  1  0
  6 14  1  0
  6 15  1  0
  6 16  1  0
  7 17  1  0
  7 18  1  0
  7 19  1  0
M  CHG  1   4   1
M  END
