
     RDKit          3D

 22 23  0  0  0  0  0  0  0  0999 V2000
    1.4495    1.1296   -0.4111 C   0  0  0  0  0  0  0  0  0  0  0  0
    0.7356   -0.0019   -0.0123 C   0  0  0  0  0  0  0  0  0  0  0  0
    1.4524   -1.1316    0.3865 C   0  0  0  0  0  0  0  0  0  0  0  0
    2.8397   -1.1306    0.3862 C   0  0  0  0  0  0  0  0  0  0  0  0
    3.5383    0.0013   -0.0132 C   0  0  0  0  0  0  0  0  0  0  0  0
    2.8368    1.1316   -0.4119 C   0  0  0  0  0  0  0  0  0  0  0  0
   -2.8456    1.1313    0.3687 C   0  0  0  0  0  0  0  0  0  0  0  0
   -3.5444   -0.0071   -0.0115 C   0  0  0  0  0  0  0  0  0  0  0  0
   -2.8430   -1.1438   -0.3919 C   0  0  0  0  0  0  0  0  0  0  0  0
   -1.4557   -1.1417   -0.3920 C   0  0  0  0  0  0  0  0  0  0  0  0
   -0.7417   -0.0036   -0.0122 C   0  0  0  0  0  0  0  0  0  0  0  0
   -1.4583    1.1327    0.3679 C   0  0  0  0  0  0  0  0  0  0  0  0
    0.9181    2.0123   -0.7447 H   0  0  0  0  0  0  0  0  0  0  0  0
    0.9227   -2.0156    0.7196 H   0  0  0  0  0  0  0  0  0  0  0  0
    3.3750   -2.0148    0.7073 H   0  0  0  0  0  0  0  0  0  0  0  0
    4.6205    0.0024   -0.0143 H   0  0  0  0  0  0  0  0  0  0  0  0
    3.3698    2.0171   -0.7333 H   0  0  0  0  0  0  0  0  0  0  0  0
   -4.6265   -0.0084   -0.0111 H   0  0  0  0  0  0  0  0  0  0  0  0
   -3.3760   -2.0345   -0.6986 H   0  0  0  0  0  0  0  0  0  0  0  0
   -0.9243   -2.0297   -0.7111 H   0  0  0  0  0  0  0  0  0  0  0  0
   -0.9289    2.0219    0.6872 H   0  0  0  0  0  0  0  0  0  0  0  0
   -3.3807    2.0208    0.6752 H   0  0  0  0  0  0  0  0  0  0  0  0
  1  2  2  0
  1  6  1  0
  2  3  1  0
  2 11  1  0
  3  4  2  0
  4  5  1  0
  5  6  2  0
  7  8  2  0
  7 12  1  0
  8  9  1  0
  9 10  2  0
 10 11  1  0
 11 12  2  0
  1 13  1  0
  3 14  1  0
  4 15  1  0
  5 16  1  0
  6 17  1  0
  7 22  1  0
  8 18  1  0
  9 19  1  0
 10 20  1  0
 12 21  1  0
M  END
