
     RDKit          3D

 44 46  0  0  0  0  0  0  0  0999 V2000
   -6.1370   -1.6556   -0.8780 C   0  0  0  0  0  0  0  0  0  0  0  0
   -5.4225   -0.6124   -0.1521 C   0  0  0  0  0  0  0  0  0  0  0  0
   -4.0637   -0.3970   -0.3123 C   0  0  0  0  0  0  0  0  0  0  0  0
   -6.1370    0.2223    0.7586 C   0  0  0  0  0  0  0  0  0  0  0  0
   -5.4803    1.2163    1.4574 C   0  0  0  0  0  0  0  0  0  0  0  0
   -4.1062    1.4327    1.2914 C   0  0  0  0  0  0  0  0  0  0  0  0
   -3.3892    0.5982    0.3803 C   0  0  0  0  0  0  0  0  0  0  0  0
   -0.0211    0.4573   -0.6089 C   0  0  0  0  0  0  0  0  0  0  0  0
    0.7258   -0.3695   -1.4445 C   0  0  0  0  0  0  0  0  0  0  0  0
    2.0840   -0.1618   -1.6153 C   0  0  0  0  0  0  0  0  0  0  0  0
    0.6054    1.5142    0.0596 C   0  0  0  0  0  0  0  0  0  0  0  0
    1.9562    1.7337   -0.1130 C   0  0  0  0  0  0  0  0  0  0  0  0
    2.6871    0.8917   -0.9478 C   0  0  0  0  0  0  0  0  0  0  0  0
    5.0822   -0.6140    0.7387 C   0  0  0  0  0  0  0  0  0  0  0  0
    4.4468   -2.7740    0.4377 C   0  0  0  0  0  0  0  0  0  0  0  0
    4.9734   -3.1664    1.6534 C   0  0  0  0  0  0  0  0  0  0  0  0
    5.5837   -2.1937    2.4402 C   0  0  0  0  0  0  0  0  0  0  0  0
    5.6444   -0.8916    1.9872 C   0  0  0  0  0  0  0  0  0  0  0  0
   -2.0381    0.8628    0.2607 N   0  0  0  0  0  0  0  0  0  0  0  0
   -1.3854    0.1438   -0.5164 N   0  0  0  0  0  0  0  0  0  0  0  0
    5.1282    0.6846    0.2484 N   0  0  0  0  0  0  0  0  0  0  0  0
    4.4982   -1.5246   -0.0159 N   0  0  0  0  0  0  0  0  0  0  0  0
   -3.4754    2.3982    1.9647 N   0  0  0  0  0  0  0  0  0  0  0  0
   -5.3890   -2.3734   -1.6944 O   0  0  0  0  0  0  0  0  0  0  0  0
   -7.3374   -1.8589   -0.7489 O   0  0  0  0  0  0  0  0  0  0  0  0
   -7.4389    0.0753    0.9626 O   0  0  0  0  0  0  0  0  0  0  0  0
    4.9026    0.4317   -2.2760 O   0  0  0  0  0  0  0  0  0  0  0  0
    4.6244    2.6433   -1.1313 O   0  0  0  0  0  0  0  0  0  0  0  0
    4.4130    1.2053   -1.1544 S   0  0  1  0  0  0  0  0  0  0  0  0
   -3.4922   -1.0122   -0.9943 H   0  0  0  0  0  0  0  0  0  0  0  0
   -6.0428    1.8361    2.1445 H   0  0  0  0  0  0  0  0  0  0  0  0
    0.2306   -1.1836   -1.9568 H   0  0  0  0  0  0  0  0  0  0  0  0
    2.6577   -0.8156   -2.2554 H   0  0  0  0  0  0  0  0  0  0  0  0
    0.0358    2.1666    0.7058 H   0  0  0  0  0  0  0  0  0  0  0  0
    2.4311    2.5588    0.4007 H   0  0  0  0  0  0  0  0  0  0  0  0
    3.9585   -3.4938   -0.2090 H   0  0  0  0  0  0  0  0  0  0  0  0
    4.9080   -4.1957    1.9756 H   0  0  0  0  0  0  0  0  0  0  0  0
    6.0095   -2.4502    3.4010 H   0  0  0  0  0  0  0  0  0  0  0  0
    6.1108   -0.1120    2.5748 H   0  0  0  0  0  0  0  0  0  0  0  0
    5.4312    1.4251    0.8678 H   0  0  0  0  0  0  0  0  0  0  0  0
   -3.9655    2.9859    2.6156 H   0  0  0  0  0  0  0  0  0  0  0  0
   -2.4883    2.5415    1.8464 H   0  0  0  0  0  0  0  0  0  0  0  0
   -5.9306   -3.0399   -2.1433 H   0  0  0  0  0  0  0  0  0  0  0  0
   -7.7585   -0.6638    0.3987 H   0  0  0  0  0  0  0  0  0  0  0  0
 17 18  2  0
 17 16  1  0
 18 14  1  0
 16 15  2  0
 23  6  1  0
 14 21  1  0
 14 22  2  0
 11 12  2  0
 11  8  1  0
 15 22  1  0
 29 21  1  1
 12 13  1  0
  5  6  2  0
  5  4  1  0
  6  7  1  0
 20  8  1  0
 20 19  2  0
  8  9  2  0
 13 29  1  0
 13 10  2  0
 29 27  2  0
 29 28  2  0
  4 26  1  0
  4  2  2  0
  7 19  1  0
  7  3  2  0
  9 10  1  0
  2  3  1  0
  2  1  1  0
 25  1  2  0
  1 24  1  0
  3 30  1  0
  5 31  1  0
  9 32  1  0
 10 33  1  0
 11 34  1  0
 12 35  1  0
 15 36  1  0
 16 37  1  0
 17 38  1  0
 18 39  1  0
 21 40  1  0
 23 41  1  0
 23 42  1  0
 24 43  1  0
 26 44  1  0
M  END
