
     RDKit          3D

 65 70  0  0  0  0  0  0  0  0999 V2000
   -6.7462    1.0020    0.0728 C   0  0  0  0  0  0  0  0  0  0  0  0
   -8.8937    0.2195   -0.1581 C   0  0  0  0  0  0  0  0  0  0  0  0
   -4.0938    0.7615    1.0157 C   0  0  0  0  0  0  0  0  0  0  0  0
   -2.6744    0.6470    1.4951 C   0  0  0  0  0  0  0  0  0  0  0  0
   -1.8031   -0.2697    0.6299 C   0  0  1  0  0  0  0  0  0  0  0  0
   -1.7502    0.1769   -0.8298 C   0  0  0  0  0  0  0  0  0  0  0  0
   -0.3943   -0.3580    1.2146 C   0  0  0  0  0  0  0  0  0  0  0  0
   -8.5725   -0.9646    0.5587 C   0  0  0  0  0  0  0  0  0  0  0  0
   -7.3072   -1.1414    1.0304 C   0  0  0  0  0  0  0  0  0  0  0  0
   -6.3344   -0.1414    0.7969 C   0  0  0  0  0  0  0  0  0  0  0  0
   -8.0129    1.1582   -0.3875 N   0  0  0  0  0  0  0  0  0  0  0  0
   -5.0052   -0.2374    1.2567 C   0  0  0  0  0  0  0  0  0  0  0  0
   -4.5157    1.8971    0.2863 C   0  0  0  0  0  0  0  0  0  0  0  0
   -5.7998    2.0196   -0.1731 C   0  0  0  0  0  0  0  0  0  0  0  0
  -10.2867    0.4072   -0.6749 C   0  0  0  0  0  0  0  0  0  0  0  0
   -0.7900   -0.6830   -1.6428 C   0  0  0  0  0  0  0  0  0  0  0  0
    0.5289   -0.6715   -1.0294 N   0  0  0  0  0  0  0  0  0  0  0  0
    0.5342   -1.1800    0.3332 C   0  0  0  0  0  0  0  0  0  0  0  0
    1.5751   -0.1007   -1.6407 C   0  0  0  0  0  0  0  0  0  0  0  0
    2.8462    0.0183   -0.8485 C   0  0  0  0  0  0  0  0  0  0  0  0
    3.0585    1.1587   -0.0338 C   0  0  0  0  0  0  0  0  0  0  0  0
    4.3030    1.2416    0.6378 C   0  0  0  0  0  0  0  0  0  0  0  0
    5.2611    0.2992    0.5109 N   0  0  0  0  0  0  0  0  0  0  0  0
    5.0514   -0.7376   -0.2606 C   0  0  0  0  0  0  0  0  0  0  0  0
    3.8339   -0.9151   -0.9676 C   0  0  0  0  0  0  0  0  0  0  0  0
    2.1073    2.1879    0.1436 C   0  0  0  0  0  0  0  0  0  0  0  0
    2.3839    3.2527    0.9580 C   0  0  0  0  0  0  0  0  0  0  0  0
    3.6214    3.3352    1.6283 C   0  0  0  0  0  0  0  0  0  0  0  0
    4.5613    2.3535    1.4725 C   0  0  0  0  0  0  0  0  0  0  0  0
    6.1337   -1.7420   -0.3504 C   0  0  0  0  0  0  0  0  0  0  0  0
    6.2477   -2.5950   -1.4486 C   0  0  0  0  0  0  0  0  0  0  0  0
    7.2746   -3.5257   -1.5176 C   0  0  0  0  0  0  0  0  0  0  0  0
    8.1992   -3.6228   -0.4870 C   0  0  0  0  0  0  0  0  0  0  0  0
    8.0945   -2.7772    0.6109 C   0  0  0  0  0  0  0  0  0  0  0  0
    7.0747   -1.8418    0.6766 C   0  0  0  0  0  0  0  0  0  0  0  0
    1.5566    0.3434   -2.7809 O   0  0  0  0  0  0  0  0  0  0  0  0
   -2.2169    1.6404    1.5295 H   0  0  0  0  0  0  0  0  0  0  0  0
   -2.6634    0.2671    2.5203 H   0  0  0  0  0  0  0  0  0  0  0  0
   -2.2394   -1.2769    0.6536 H   0  0  0  0  0  0  0  0  0  0  0  0
   -2.7421    0.1171   -1.2822 H   0  0  0  0  0  0  0  0  0  0  0  0
   -1.4367    1.2252   -0.8935 H   0  0  0  0  0  0  0  0  0  0  0  0
    0.0226    0.6469    1.3402 H   0  0  0  0  0  0  0  0  0  0  0  0
   -0.4307   -0.8087    2.2094 H   0  0  0  0  0  0  0  0  0  0  0  0
   -9.3378   -1.7118    0.7236 H   0  0  0  0  0  0  0  0  0  0  0  0
   -7.0372   -2.0341    1.5819 H   0  0  0  0  0  0  0  0  0  0  0  0
   -4.7092   -1.1197    1.8149 H   0  0  0  0  0  0  0  0  0  0  0  0
   -3.8015    2.6891    0.0937 H   0  0  0  0  0  0  0  0  0  0  0  0
   -6.1114    2.8970   -0.7259 H   0  0  0  0  0  0  0  0  0  0  0  0
  -11.0152    0.3380    0.1345 H   0  0  0  0  0  0  0  0  0  0  0  0
  -10.3948    1.3753   -1.1590 H   0  0  0  0  0  0  0  0  0  0  0  0
  -10.5402   -0.3713   -1.3970 H   0  0  0  0  0  0  0  0  0  0  0  0
   -1.1445   -1.7181   -1.6738 H   0  0  0  0  0  0  0  0  0  0  0  0
   -0.7163   -0.3298   -2.6675 H   0  0  0  0  0  0  0  0  0  0  0  0
    1.5454   -1.1870    0.7333 H   0  0  0  0  0  0  0  0  0  0  0  0
    0.1968   -2.2209    0.3032 H   0  0  0  0  0  0  0  0  0  0  0  0
    3.6751   -1.7984   -1.5713 H   0  0  0  0  0  0  0  0  0  0  0  0
    1.1537    2.1443   -0.3679 H   0  0  0  0  0  0  0  0  0  0  0  0
    1.6498    4.0362    1.0887 H   0  0  0  0  0  0  0  0  0  0  0  0
    3.8260    4.1836    2.2679 H   0  0  0  0  0  0  0  0  0  0  0  0
    5.5160    2.4044    1.9800 H   0  0  0  0  0  0  0  0  0  0  0  0
    5.5506   -2.5272   -2.2736 H   0  0  0  0  0  0  0  0  0  0  0  0
    7.3533   -4.1720   -2.3818 H   0  0  0  0  0  0  0  0  0  0  0  0
    8.9976   -4.3512   -0.5389 H   0  0  0  0  0  0  0  0  0  0  0  0
    8.8088   -2.8488    1.4206 H   0  0  0  0  0  0  0  0  0  0  0  0
    6.9990   -1.1862    1.5336 H   0  0  0  0  0  0  0  0  0  0  0  0
 11  1  2  0
  1 10  1  0
  1 14  1  0
 15  2  1  0
  2  8  2  0
  2 11  1  0
 12  3  2  0
 13  3  1  0
  3  4  1  0
  4  5  1  0
  4 37  1  0
  4 38  1  0
  5  7  1  0
  5  6  1  0
  5 39  1  6
  6 16  1  0
  6 40  1  0
  6 41  1  0
  7 18  1  0
  7 42  1  0
  7 43  1  0
  8  9  1  0
  8 44  1  0
  9 10  2  0
  9 45  1  0
 10 12  1  0
 12 46  1  0
 14 13  2  0
 13 47  1  0
 14 48  1  0
 15 49  1  0
 15 50  1  0
 15 51  1  0
 16 17  1  0
 16 52  1  0
 16 53  1  0
 18 17  1  0
 17 19  1  0
 18 54  1  0
 18 55  1  0
 19 20  1  0
 19 36  2  0
 20 21  2  0
 20 25  1  0
 26 21  1  0
 21 22  1  0
 22 29  1  0
 22 23  2  0
 24 23  1  0
 25 24  2  0
 24 30  1  0
 25 56  1  0
 26 27  2  0
 26 57  1  0
 27 28  1  0
 27 58  1  0
 28 29  2  0
 28 59  1  0
 29 60  1  0
 31 30  2  0
 30 35  1  0
 31 32  1  0
 31 61  1  0
 32 33  2  0
 32 62  1  0
 33 34  1  0
 33 63  1  0
 35 34  2  0
 34 64  1  0
 35 65  1  0
M  END
