
     RDKit          3D

 46 49  0  0  0  0  0  0  0  0999 V2000
   -8.0771    0.8099   -1.0444 C   0  0  0  0  0  0  0  0  0  0  0  0
   -3.1485    0.4574   -0.6610 C   0  0  0  0  0  0  0  0  0  0  0  0
   -2.3199    0.1917    0.5881 C   0  0  0  0  0  0  0  0  0  0  0  0
    1.3938    0.2093    1.0626 C   0  0  0  0  0  0  0  0  0  0  0  0
   -5.5522    0.9402   -1.0936 N   0  0  0  0  0  0  0  0  0  0  0  0
   -4.6017    0.2168   -0.4463 C   0  0  0  0  0  0  0  0  0  0  0  0
    3.2017   -0.4419   -0.3868 C   0  0  0  0  0  0  0  0  0  0  0  0
    4.1243    0.3109    0.3418 C   0  0  0  0  0  0  0  0  0  0  0  0
    5.5598    0.3991   -0.0036 C   0  0  0  0  0  0  0  0  0  0  0  0
    6.3689   -0.7362   -0.0292 C   0  0  0  0  0  0  0  0  0  0  0  0
    7.7219   -0.6293   -0.3149 C   0  0  0  0  0  0  0  0  0  0  0  0
    8.2843    0.6127   -0.5830 C   0  0  0  0  0  0  0  0  0  0  0  0
    7.4863    1.7480   -0.5590 C   0  0  0  0  0  0  0  0  0  0  0  0
    6.1328    1.6416   -0.2679 C   0  0  0  0  0  0  0  0  0  0  0  0
    3.6335    1.0186    1.4370 C   0  0  0  0  0  0  0  0  0  0  0  0
    2.2947    0.9715    1.7948 C   0  0  0  0  0  0  0  0  0  0  0  0
    1.8619   -0.4934   -0.0435 C   0  0  0  0  0  0  0  0  0  0  0  0
   -0.0608    0.1327    1.4423 C   0  0  0  0  0  0  0  0  0  0  0  0
   -0.9132    0.3785    0.2961 N   0  0  0  0  0  0  0  0  0  0  0  0
   -5.1136   -0.6975    0.3337 N   0  0  0  0  0  0  0  0  0  0  0  0
   -6.4764   -0.5754    0.1939 C   0  0  0  0  0  0  0  0  0  0  0  0
   -6.7750    0.4585   -0.7096 C   0  0  0  0  0  0  0  0  0  0  0  0
   -7.5124   -1.2935    0.7902 C   0  0  0  0  0  0  0  0  0  0  0  0
   -8.8131   -0.9523    0.4614 C   0  0  0  0  0  0  0  0  0  0  0  0
   -9.0913    0.0841   -0.4421 C   0  0  0  0  0  0  0  0  0  0  0  0
   -8.2913    1.6113   -1.7395 H   0  0  0  0  0  0  0  0  0  0  0  0
   -2.9990    1.4872   -0.9966 H   0  0  0  0  0  0  0  0  0  0  0  0
   -2.7940   -0.1853   -1.4730 H   0  0  0  0  0  0  0  0  0  0  0  0
   -2.6794    0.8305    1.4089 H   0  0  0  0  0  0  0  0  0  0  0  0
   -2.4703   -0.8405    0.9122 H   0  0  0  0  0  0  0  0  0  0  0  0
   -5.3815    1.7002   -1.7333 H   0  0  0  0  0  0  0  0  0  0  0  0
    5.9435   -1.7069    0.1909 H   0  0  0  0  0  0  0  0  0  0  0  0
    8.3401   -1.5176   -0.3250 H   0  0  0  0  0  0  0  0  0  0  0  0
    9.3402    0.6942   -0.8062 H   0  0  0  0  0  0  0  0  0  0  0  0
    7.9151    2.7191   -0.7693 H   0  0  0  0  0  0  0  0  0  0  0  0
    5.5132    2.5299   -0.2560 H   0  0  0  0  0  0  0  0  0  0  0  0
    4.3222    1.6151    2.0221 H   0  0  0  0  0  0  0  0  0  0  0  0
    1.9517    1.5339    2.6546 H   0  0  0  0  0  0  0  0  0  0  0  0
    1.1721   -1.0749   -0.6409 H   0  0  0  0  0  0  0  0  0  0  0  0
   -0.2811   -0.8733    1.8136 H   0  0  0  0  0  0  0  0  0  0  0  0
   -0.2523    0.8170    2.2816 H   0  0  0  0  0  0  0  0  0  0  0  0
   -0.7599    1.3279   -0.0249 H   0  0  0  0  0  0  0  0  0  0  0  0
   -7.3042   -2.0954    1.4871 H   0  0  0  0  0  0  0  0  0  0  0  0
   -9.6352   -1.4961    0.9082 H   0  0  0  0  0  0  0  0  0  0  0  0
  -10.1214    0.3218   -0.6729 H   0  0  0  0  0  0  0  0  0  0  0  0
    3.7099   -1.3148   -1.8001 Cl  0  0  0  0  0  0  0  0  0  0  0  0
 46  7  1  0
 11 10  2  0
 11 12  1  0
 10  9  1  0
 12 13  2  0
  7 17  2  0
  7  8  1  0
  9  8  1  0
  9 14  2  0
 17  4  1  0
 13 14  1  0
  8 15  2  0
  4 18  1  0
  4 16  2  0
 15 16  1  0
 19 18  1  0
 19  3  1  0
  3  2  1  0
  2  6  1  0
  6  5  1  0
  6 20  2  0
  5 22  1  0
 20 21  1  0
 22 21  1  0
 22  1  2  0
 21 23  2  0
  1 25  1  0
 23 24  1  0
 25 24  2  0
  1 26  1  0
  2 27  1  0
  2 28  1  0
  3 29  1  0
  3 30  1  0
  5 31  1  0
 10 32  1  0
 11 33  1  0
 12 34  1  0
 13 35  1  0
 14 36  1  0
 15 37  1  0
 16 38  1  0
 17 39  1  0
 18 40  1  0
 18 41  1  0
 19 42  1  0
 23 43  1  0
 24 44  1  0
 25 45  1  0
M  END
