
     RDKit          3D

 23 24  0  0  0  0  0  0  0  0999 V2000
   -4.0244    1.7189    0.8592 Cl  0  0  0  0  0  0  0  0  0  0  0  0
   -3.0078    0.4827    0.2239 C   0  0  0  0  0  0  0  0  0  0  0  0
   -1.6333    0.6180    0.3293 C   0  0  0  0  0  0  0  0  0  0  0  0
   -3.5567   -0.6444   -0.3769 C   0  0  0  0  0  0  0  0  0  0  0  0
   -5.2618   -0.8280   -0.5153 Cl  0  0  0  0  0  0  0  0  0  0  0  0
   -2.7166   -1.6308   -0.8708 C   0  0  0  0  0  0  0  0  0  0  0  0
   -1.3443   -1.4912   -0.7687 C   0  0  0  0  0  0  0  0  0  0  0  0
   -0.7818   -0.3655   -0.1678 C   0  0  0  0  0  0  0  0  0  0  0  0
    0.6805   -0.2138   -0.0574 C   0  0  0  0  0  0  0  0  0  0  0  0
    1.4947   -1.3204    0.1763 C   0  0  0  0  0  0  0  0  0  0  0  0
    1.2798    1.0358   -0.1857 C   0  0  0  0  0  0  0  0  0  0  0  0
    2.6512    1.1656   -0.0786 C   0  0  0  0  0  0  0  0  0  0  0  0
    3.3844    2.7240   -0.2526 Cl  0  0  0  0  0  0  0  0  0  0  0  0
    3.4828    0.0702    0.1570 C   0  0  0  0  0  0  0  0  0  0  0  0
    4.8072    0.1409    0.2693 O   0  0  0  0  0  0  0  0  0  0  0  0
    2.8641   -1.1747    0.2794 C   0  0  0  0  0  0  0  0  0  0  0  0
    3.8562   -2.5535    0.5810 Cl  0  0  0  0  0  0  0  0  0  0  0  0
   -1.2329    1.4927    0.8242 H   0  0  0  0  0  0  0  0  0  0  0  0
   -3.1382   -2.5063   -1.3448 H   0  0  0  0  0  0  0  0  0  0  0  0
   -0.7118   -2.2646   -1.1838 H   0  0  0  0  0  0  0  0  0  0  0  0
    1.0627   -2.3047    0.3000 H   0  0  0  0  0  0  0  0  0  0  0  0
    0.6836    1.9149   -0.3909 H   0  0  0  0  0  0  0  0  0  0  0  0
    5.1197    1.0516    0.1803 H   0  0  0  0  0  0  0  0  0  0  0  0
  1  2  1  0
  2  3  2  0
  2  4  1  0
  3  8  1  0
  3 18  1  0
  4  5  1  0
  4  6  2  0
  6  7  1  0
  6 19  1  0
  7  8  2  0
  7 20  1  0
  8  9  1  0
  9 10  2  0
  9 11  1  0
 10 16  1  0
 10 21  1  0
 11 12  2  0
 11 22  1  0
 12 13  1  0
 12 14  1  0
 14 15  1  0
 14 16  2  0
 15 23  1  0
 16 17  1  0
M  END
