
     RDKit          3D

 58 63  0  0  0  0  0  0  0  0999 V2000
   -4.6474   -1.3317    0.6167 C   0  0  0  0  0  0  0  0  0  0  0  0
   -2.4026   -0.4157    1.1725 C   0  0  0  0  0  0  0  0  0  0  0  0
   -1.6210    0.0403   -0.0542 C   0  0  0  0  0  0  0  0  0  0  0  0
    0.6210    0.7678   -0.7928 C   0  0  0  0  0  0  0  0  0  0  0  0
    4.2805    0.3908    0.1997 C   0  0  0  0  0  0  0  0  0  0  0  0
    4.4559   -1.0008    0.1318 C   0  0  0  0  0  0  0  0  0  0  0  0
    5.6568   -1.5673    0.4606 N   0  0  0  0  0  0  0  0  0  0  0  0
    6.3769    0.4802    1.5015 C   0  0  0  0  0  0  0  0  0  0  0  0
    5.4578    1.2544    0.5692 C   0  0  1  0  0  0  0  0  0  0  0  0
    7.5643   -0.3471   -0.5314 C   0  0  1  0  0  0  0  0  0  0  0  0
    3.3681   -1.7977   -0.2583 C   0  0  0  0  0  0  0  0  0  0  0  0
   -6.0421   -0.7879    0.4391 C   0  0  2  0  0  0  0  0  0  0  0  0
   -6.5641   -0.9012   -1.0050 C   0  0  2  0  0  0  0  0  0  0  0  0
   -5.8512    0.2700   -1.6907 C   0  0  0  0  0  0  0  0  0  0  0  0
   -6.3564    1.3222   -0.6966 C   0  0  1  0  0  0  0  0  0  0  0  0
   -7.8763    1.1203   -0.7838 C   0  0  0  0  0  0  0  0  0  0  0  0
   -8.0193   -0.4108   -0.9923 C   0  0  0  0  0  0  0  0  0  0  0  0
   -4.2876   -2.4771    0.4957 O   0  0  0  0  0  0  0  0  0  0  0  0
   -3.8144   -0.2871    0.9583 N   0  0  0  0  0  0  0  0  0  0  0  0
   -2.1222    0.0281   -1.1668 O   0  0  0  0  0  0  0  0  0  0  0  0
   -0.3594    0.3959    0.2105 N   0  0  0  0  0  0  0  0  0  0  0  0
    1.9609    0.1584   -0.4887 C   0  0  0  0  0  0  0  0  0  0  0  0
    3.0417    0.9397   -0.1053 C   0  0  0  0  0  0  0  0  0  0  0  0
    6.8236   -0.7667    0.7496 C   0  0  2  0  0  0  0  0  0  0  0  0
    6.7083    0.6182   -1.3441 C   0  0  0  0  0  0  0  0  0  0  0  0
    8.7860    0.2235   -0.1177 O   0  0  0  0  0  0  0  0  0  0  0  0
    2.1512   -1.2227   -0.5627 C   0  0  0  0  0  0  0  0  0  0  0  0
   -4.4394    0.9406    0.9349 C   0  0  0  0  0  0  0  0  0  0  0  0
   -3.8615    1.9852    1.1152 O   0  0  0  0  0  0  0  0  0  0  0  0
   -5.9030    0.7307    0.6508 C   0  0  2  0  0  0  0  0  0  0  0  0
   -2.1753   -1.4662    1.3602 H   0  0  0  0  0  0  0  0  0  0  0  0
   -2.1119    0.1412    2.0642 H   0  0  0  0  0  0  0  0  0  0  0  0
    0.2505    0.4312   -1.7609 H   0  0  0  0  0  0  0  0  0  0  0  0
    0.7085    1.8562   -0.8456 H   0  0  0  0  0  0  0  0  0  0  0  0
    5.8105   -2.5216    0.1797 H   0  0  0  0  0  0  0  0  0  0  0  0
    7.2366    1.0838    1.7918 H   0  0  0  0  0  0  0  0  0  0  0  0
    5.8452    0.2043    2.4150 H   0  0  0  0  0  0  0  0  0  0  0  0
    5.1068    2.1726    1.0459 H   0  0  0  0  0  0  0  0  0  0  0  0
    7.7367   -1.2395   -1.1511 H   0  0  0  0  0  0  0  0  0  0  0  0
    3.4899   -2.8728   -0.3233 H   0  0  0  0  0  0  0  0  0  0  0  0
   -6.7019   -1.2842    1.1539 H   0  0  0  0  0  0  0  0  0  0  0  0
   -6.4260   -1.8890   -1.4431 H   0  0  0  0  0  0  0  0  0  0  0  0
   -4.7635    0.1745   -1.7355 H   0  0  0  0  0  0  0  0  0  0  0  0
   -6.2144    0.4470   -2.7050 H   0  0  0  0  0  0  0  0  0  0  0  0
   -6.0311    2.3494   -0.8582 H   0  0  0  0  0  0  0  0  0  0  0  0
   -8.3909    1.4780    0.1095 H   0  0  0  0  0  0  0  0  0  0  0  0
   -8.2811    1.6724   -1.6331 H   0  0  0  0  0  0  0  0  0  0  0  0
   -8.5007   -0.6369   -1.9447 H   0  0  0  0  0  0  0  0  0  0  0  0
   -8.6078   -0.8923   -0.2096 H   0  0  0  0  0  0  0  0  0  0  0  0
   -0.0617    0.4352    1.1729 H   0  0  0  0  0  0  0  0  0  0  0  0
    2.9239    2.0171   -0.0384 H   0  0  0  0  0  0  0  0  0  0  0  0
    7.4981   -1.3680    1.3635 H   0  0  0  0  0  0  0  0  0  0  0  0
    7.3080    1.0699   -2.1390 H   0  0  0  0  0  0  0  0  0  0  0  0
    5.9096    0.0521   -1.8409 H   0  0  0  0  0  0  0  0  0  0  0  0
    9.2706    0.5105   -0.8978 H   0  0  0  0  0  0  0  0  0  0  0  0
    1.3284   -1.8633   -0.8607 H   0  0  0  0  0  0  0  0  0  0  0  0
   -6.4812    1.1235    1.4899 H   0  0  0  0  0  0  0  0  0  0  0  0
    6.1827    1.6817   -0.5801 O   0  0  0  0  0  0  0  0  0  0  0  0
 18  1  2  0
 20  3  2  0
 13 14  1  0
 13 17  1  0
 13 12  1  0
  4 21  1  0
  4 22  1  0
  3 21  1  0
  3  2  1  0
  1 12  1  0
  1 19  1  0
 14 15  1  0
 17 16  1  0
  2 19  1  0
 12 30  1  0
 23 22  1  0
 23  5  2  0
 19 28  1  0
 22 27  2  0
  9  5  1  0
  9  8  1  0
  9 58  1  0
  5  6  1  0
 15 16  1  0
 15 30  1  0
 28 30  1  0
 28 29  2  0
 27 11  1  0
  8 24  1  0
 58 25  1  0
  6 11  2  0
  6  7  1  0
 24  7  1  0
 24 10  1  0
 25 10  1  0
 10 26  1  0
  2 31  1  0
  2 32  1  0
  4 33  1  0
  4 34  1  0
  7 35  1  0
  8 36  1  0
  8 37  1  0
  9 38  1  1
 10 39  1  6
 11 40  1  0
 12 41  1  1
 13 42  1  6
 14 43  1  0
 14 44  1  0
 15 45  1  6
 16 46  1  0
 16 47  1  0
 17 48  1  0
 17 49  1  0
 21 50  1  0
 23 51  1  0
 24 52  1  1
 25 53  1  0
 25 54  1  0
 26 55  1  0
 27 56  1  0
 30 57  1  1
M  END
