
     RDKit          3D

 47 49  0  0  0  0  0  0  0  0999 V2000
   -5.7062    1.1599   -2.0812 C   0  0  0  0  0  0  0  0  0  0  0  0
   -5.0559    0.8113   -0.7501 C   0  0  0  0  0  0  0  0  0  0  0  0
   -3.5393    0.9480   -0.7889 C   0  0  0  0  0  0  0  0  0  0  0  0
   -2.8938    0.6097    0.5591 C   0  0  0  0  0  0  0  0  0  0  0  0
   -1.4113    0.7475    0.5152 C   0  0  0  0  0  0  0  0  0  0  0  0
   -0.7808    1.8459    0.8308 N   0  0  0  0  0  0  0  0  0  0  0  0
    0.5220    1.6131    0.5074 C   0  0  0  0  0  0  0  0  0  0  0  0
    1.6318    2.4931    0.6479 C   0  0  0  0  0  0  0  0  0  0  0  0
    1.4361    3.7328    1.1508 N   0  0  0  0  0  0  0  0  0  0  0  0
    2.8251    2.1234    0.2612 N   0  0  0  0  0  0  0  0  0  0  0  0
    3.0049    0.8963   -0.3031 C   0  0  0  0  0  0  0  0  0  0  0  0
    4.3096    0.5768   -0.7318 C   0  0  0  0  0  0  0  0  0  0  0  0
    4.5934   -0.6238   -1.3347 C   0  0  0  0  0  0  0  0  0  0  0  0
    3.5747   -1.5629   -1.5394 C   0  0  0  0  0  0  0  0  0  0  0  0
    2.2935   -1.2871   -1.1245 C   0  0  0  0  0  0  0  0  0  0  0  0
    1.9748   -0.0710   -0.4934 C   0  0  0  0  0  0  0  0  0  0  0  0
    0.6927    0.3501   -0.0229 C   0  0  0  0  0  0  0  0  0  0  0  0
   -0.5644   -0.2058    0.0046 N   0  0  0  0  0  0  0  0  0  0  0  0
   -0.9693   -1.5601   -0.3206 C   0  0  0  0  0  0  0  0  0  0  0  0
   -0.8955   -2.5558    0.8482 C   0  0  1  0  0  0  0  0  0  0  0  0
   -1.4369   -3.8911    0.3393 C   0  0  0  0  0  0  0  0  0  0  0  0
    0.5208   -2.7405    1.3844 C   0  0  0  0  0  0  0  0  0  0  0  0
   -1.7294   -2.0265    1.8610 O   0  0  0  0  0  0  0  0  0  0  0  0
   -6.7894    1.0426   -2.0398 H   0  0  0  0  0  0  0  0  0  0  0  0
   -5.4963    2.1930   -2.3649 H   0  0  0  0  0  0  0  0  0  0  0  0
   -5.3339    0.5170   -2.8811 H   0  0  0  0  0  0  0  0  0  0  0  0
   -5.4573    1.4555    0.0381 H   0  0  0  0  0  0  0  0  0  0  0  0
   -5.3179   -0.2129   -0.4684 H   0  0  0  0  0  0  0  0  0  0  0  0
   -3.1382    0.2957   -1.5719 H   0  0  0  0  0  0  0  0  0  0  0  0
   -3.2676    1.9684   -1.0741 H   0  0  0  0  0  0  0  0  0  0  0  0
   -3.2626    1.3013    1.3187 H   0  0  0  0  0  0  0  0  0  0  0  0
   -3.1876   -0.3891    0.8782 H   0  0  0  0  0  0  0  0  0  0  0  0
    0.5931    3.9117    1.6695 H   0  0  0  0  0  0  0  0  0  0  0  0
    2.2468    4.2590    1.4310 H   0  0  0  0  0  0  0  0  0  0  0  0
    5.0876    1.3137   -0.5755 H   0  0  0  0  0  0  0  0  0  0  0  0
    5.6036   -0.8429   -1.6556 H   0  0  0  0  0  0  0  0  0  0  0  0
    3.7922   -2.5061   -2.0225 H   0  0  0  0  0  0  0  0  0  0  0  0
    1.5307   -2.0308   -1.2972 H   0  0  0  0  0  0  0  0  0  0  0  0
   -1.9955   -1.5230   -0.6872 H   0  0  0  0  0  0  0  0  0  0  0  0
   -0.3760   -1.9229   -1.1565 H   0  0  0  0  0  0  0  0  0  0  0  0
   -0.8316   -4.2728   -0.4840 H   0  0  0  0  0  0  0  0  0  0  0  0
   -1.4198   -4.6393    1.1334 H   0  0  0  0  0  0  0  0  0  0  0  0
   -2.4651   -3.7939   -0.0127 H   0  0  0  0  0  0  0  0  0  0  0  0
    0.9617   -1.8009    1.7181 H   0  0  0  0  0  0  0  0  0  0  0  0
    0.5047   -3.4201    2.2402 H   0  0  0  0  0  0  0  0  0  0  0  0
    1.1791   -3.1843    0.6388 H   0  0  0  0  0  0  0  0  0  0  0  0
   -1.6591   -2.5896    2.6394 H   0  0  0  0  0  0  0  0  0  0  0  0
 14 13  1  0
 14 15  2  0
 13 12  2  0
 22 20  1  0
 20 23  1  1
 15 16  1  0
 20 19  1  0
 20 21  1  0
 12 11  1  0
 19 18  1  0
 16 11  1  0
 16 17  2  0
 11 10  2  0
 17 18  1  0
 17  7  1  0
 18  5  1  0
 10  8  1  0
  5  4  1  0
  5  6  2  0
  7  8  2  0
  7  6  1  0
  8  9  1  0
  2  1  1  0
  2  3  1  0
  4  3  1  0
  1 24  1  0
  1 25  1  0
  1 26  1  0
  2 27  1  0
  2 28  1  0
  3 29  1  0
  3 30  1  0
  4 31  1  0
  4 32  1  0
  9 33  1  0
  9 34  1  0
 12 35  1  0
 13 36  1  0
 14 37  1  0
 15 38  1  0
 19 39  1  0
 19 40  1  0
 21 41  1  0
 21 42  1  0
 21 43  1  0
 22 44  1  0
 22 45  1  0
 22 46  1  0
 23 47  1  0
M  END
