
     RDKit          3D

 32 33  0  0  0  0  0  0  0  0999 V2000
   -4.1995   -0.4281   -0.2383 N   0  0  0  0  0  0  0  0  0  0  0  0
    0.0744    0.8755   -0.7704 N   0  0  0  0  0  0  0  0  0  0  0  0
   -2.2038    0.4222   -0.3203 C   0  0  0  0  0  0  0  0  0  0  0  0
   -3.4637    0.6354    0.1738 C   0  0  0  0  0  0  0  0  0  0  0  0
   -1.0383    1.3047   -0.1497 C   0  0  0  0  0  0  0  0  0  0  0  0
    1.3383    1.5651   -0.7520 C   0  0  0  0  0  0  0  0  0  0  0  0
    2.4713    0.6851   -0.2857 C   0  0  0  0  0  0  0  0  0  0  0  0
    4.7621   -0.0662   -0.5199 C   0  0  0  0  0  0  0  0  0  0  0  0
    2.3347   -0.1358    0.8312 C   0  0  0  0  0  0  0  0  0  0  0  0
   -5.8096   -1.0469    1.5277 C   0  0  0  0  0  0  0  0  0  0  0  0
    4.5891   -0.8649    0.5921 C   0  0  0  0  0  0  0  0  0  0  0  0
    3.3901   -0.9164    1.2784 C   0  0  0  0  0  0  0  0  0  0  0  0
   -5.5974   -0.6824    0.0698 C   0  0  0  0  0  0  0  0  0  0  0  0
   -3.3746   -1.2340   -0.9476 C   0  0  0  0  0  0  0  0  0  0  0  0
    3.6907    0.7039   -0.9534 C   0  0  0  0  0  0  0  0  0  0  0  0
    5.6157   -1.6192    1.0198 F   0  0  0  0  0  0  0  0  0  0  0  0
   -2.1649   -0.7507   -1.0199 N   0  0  0  0  0  0  0  0  0  0  0  0
   -1.1095    2.3362    0.5094 O   0  0  0  0  0  0  0  0  0  0  0  0
    0.0051    0.0238   -1.3077 H   0  0  0  0  0  0  0  0  0  0  0  0
   -3.8803    1.4387    0.7582 H   0  0  0  0  0  0  0  0  0  0  0  0
    1.5702    1.9579   -1.7456 H   0  0  0  0  0  0  0  0  0  0  0  0
    1.2420    2.4269   -0.0912 H   0  0  0  0  0  0  0  0  0  0  0  0
    5.7086   -0.0469   -1.0438 H   0  0  0  0  0  0  0  0  0  0  0  0
    1.3926   -0.1747    1.3640 H   0  0  0  0  0  0  0  0  0  0  0  0
   -6.8660   -1.2457    1.7041 H   0  0  0  0  0  0  0  0  0  0  0  0
   -5.2454   -1.9397    1.7965 H   0  0  0  0  0  0  0  0  0  0  0  0
   -5.5068   -0.2362    2.1904 H   0  0  0  0  0  0  0  0  0  0  0  0
    3.2819   -1.5538    2.1464 H   0  0  0  0  0  0  0  0  0  0  0  0
   -6.1740    0.2027   -0.1976 H   0  0  0  0  0  0  0  0  0  0  0  0
   -5.9281   -1.4912   -0.5801 H   0  0  0  0  0  0  0  0  0  0  0  0
   -3.7176   -2.1581   -1.3884 H   0  0  0  0  0  0  0  0  0  0  0  0
    3.8123    1.3278   -1.8306 H   0  0  0  0  0  0  0  0  0  0  0  0
 10 13  1  0
 13  1  1  0
  1 14  1  0
  1  4  1  0
 14 17  2  0
  4  3  2  0
 17  3  1  0
  3  5  1  0
  5 18  2  0
  5  2  1  0
  2  6  1  0
  6  7  1  0
  7 15  1  0
  7  9  2  0
 15  8  2  0
  9 12  1  0
  8 11  1  0
 12 11  2  0
 11 16  1  0
  2 19  1  0
  4 20  1  0
  6 21  1  0
  6 22  1  0
  8 23  1  0
  9 24  1  0
 10 25  1  0
 10 26  1  0
 10 27  1  0
 12 28  1  0
 13 29  1  0
 13 30  1  0
 14 31  1  0
 15 32  1  0
M  END
