
     RDKit          3D

 41 40  0  0  0  0  0  0  0  0999 V2000
   -5.3185   -0.3895   -0.2498 C   0  0  0  0  0  0  0  0  0  0  0  0
   -6.0905   -1.6323    0.0934 C   0  0  0  0  0  0  0  0  0  0  0  0
   -7.3790   -1.5155   -0.2182 O   0  0  0  0  0  0  0  0  0  0  0  0
   -5.6260   -2.6273    0.5924 O   0  0  0  0  0  0  0  0  0  0  0  0
   -3.8405   -0.4615    0.0972 C   0  0  0  0  0  0  0  0  0  0  0  0
   -3.1179    0.8297   -0.2635 C   0  0  0  0  0  0  0  0  0  0  0  0
   -1.6320    0.7948    0.0727 C   0  0  0  0  0  0  0  0  0  0  0  0
   -0.9249    2.0826   -0.3305 C   0  0  0  0  0  0  0  0  0  0  0  0
    0.5493    2.1397    0.0690 C   0  0  2  0  0  0  0  0  0  0  0  0
    1.2428    3.4307   -0.4001 C   0  0  2  0  0  0  0  0  0  0  0  0
    2.6919    3.4859    0.0601 C   0  0  0  0  0  0  0  0  0  0  0  0
    1.2480    0.9824   -0.4623 N   0  0  0  0  0  0  0  0  0  0  0  0
    0.5320    4.5781    0.1503 N   0  0  0  0  0  0  0  0  0  0  0  0
    1.9218    0.1121    0.2872 C   0  0  0  0  0  0  0  0  0  0  0  0
    2.0853    0.1354    1.4844 O   0  0  0  0  0  0  0  0  0  0  0  0
    4.6112   -1.5757    0.8350 O   0  0  0  0  0  0  0  0  0  0  0  0
    3.3956   -2.0353    0.1484 P   0  0  2  0  0  0  0  0  0  0  0  0
    2.4426   -0.8818   -0.4960 O   0  0  0  0  0  0  0  0  0  0  0  0
    2.4758   -2.9017    1.1110 O   0  0  0  0  0  0  0  0  0  0  0  0
    3.5685   -2.8367   -1.2148 O   0  0  0  0  0  0  0  0  0  0  0  0
   -5.7909    0.4549    0.2624 H   0  0  0  0  0  0  0  0  0  0  0  0
   -5.4516   -0.1893   -1.3180 H   0  0  0  0  0  0  0  0  0  0  0  0
   -7.8519   -2.3245    0.0271 H   0  0  0  0  0  0  0  0  0  0  0  0
   -3.3745   -1.2987   -0.4289 H   0  0  0  0  0  0  0  0  0  0  0  0
   -3.7194   -0.6609    1.1655 H   0  0  0  0  0  0  0  0  0  0  0  0
   -3.5893    1.6699    0.2576 H   0  0  0  0  0  0  0  0  0  0  0  0
   -3.2409    1.0302   -1.3335 H   0  0  0  0  0  0  0  0  0  0  0  0
   -1.1695   -0.0603   -0.4287 H   0  0  0  0  0  0  0  0  0  0  0  0
   -1.5048    0.6259    1.1475 H   0  0  0  0  0  0  0  0  0  0  0  0
   -1.4412    2.9246    0.1368 H   0  0  0  0  0  0  0  0  0  0  0  0
   -1.0144    2.2266   -1.4144 H   0  0  0  0  0  0  0  0  0  0  0  0
    0.6235    2.0931    1.1577 H   0  0  0  0  0  0  0  0  0  0  0  0
    1.2353    3.4241   -1.5027 H   0  0  0  0  0  0  0  0  0  0  0  0
    2.7577    3.4579    1.1494 H   0  0  0  0  0  0  0  0  0  0  0  0
    3.2768    2.6596   -0.3413 H   0  0  0  0  0  0  0  0  0  0  0  0
    3.1637    4.4099   -0.2799 H   0  0  0  0  0  0  0  0  0  0  0  0
    1.1976    0.8185   -1.4572 H   0  0  0  0  0  0  0  0  0  0  0  0
    1.0697    5.4175   -0.0282 H   0  0  0  0  0  0  0  0  0  0  0  0
   -0.3443    4.7168   -0.3364 H   0  0  0  0  0  0  0  0  0  0  0  0
    1.7002   -3.3162    0.7086 H   0  0  0  0  0  0  0  0  0  0  0  0
    4.2798   -3.4918   -1.1980 H   0  0  0  0  0  0  0  0  0  0  0  0
  1  2  1  0
  1  5  1  0
  1 21  1  0
  1 22  1  0
  2  3  1  0
  2  4  2  0
  3 23  1  0
  5  6  1  0
  5 24  1  0
  5 25  1  0
  6  7  1  0
  6 26  1  0
  6 27  1  0
  7  8  1  0
  7 28  1  0
  7 29  1  0
  8  9  1  0
  8 30  1  0
  8 31  1  0
  9 10  1  0
  9 12  1  0
  9 32  1  1
 10 11  1  0
 10 13  1  0
 10 33  1  6
 11 34  1  0
 11 35  1  0
 11 36  1  0
 12 14  1  0
 12 37  1  0
 13 38  1  0
 13 39  1  0
 14 15  2  0
 14 18  1  0
 16 17  2  0
 17 18  1  6
 17 19  1  0
 17 20  1  0
 19 40  1  0
 20 41  1  0
M  END
