
     RDKit          3D

 67 70  0  0  0  0  0  0  0  0999 V2000
   -2.1286    4.5085    0.8021 C   0  0  0  0  0  0  0  0  0  0  0  0
   -2.1954    3.1234    0.7092 C   0  0  0  0  0  0  0  0  0  0  0  0
   -1.8214    2.4329   -0.4474 C   0  0  0  0  0  0  0  0  0  0  0  0
   -1.3554    3.1938   -1.5228 C   0  0  0  0  0  0  0  0  0  0  0  0
   -1.2914    4.5687   -1.4547 C   0  0  0  0  0  0  0  0  0  0  0  0
   -1.6747    5.2295   -0.2974 C   0  0  0  0  0  0  0  0  0  0  0  0
   -1.8855    1.0497   -0.4633 N   0  0  0  0  0  0  0  0  0  0  0  0
   -1.9084    0.3477   -1.5824 N   0  0  0  0  0  0  0  0  0  0  0  0
   -1.9891   -0.9073   -1.3172 C   0  0  0  0  0  0  0  0  0  0  0  0
   -2.0030   -1.2166    0.1674 C   0  0  1  0  0  0  0  0  0  0  0  0
   -2.1067    0.2261    0.7240 C   0  0  0  0  0  0  0  0  0  0  0  0
   -3.2308   -2.0311    0.5453 C   0  0  0  0  0  0  0  0  0  0  0  0
   -4.4770   -1.6458    0.0487 C   0  0  0  0  0  0  0  0  0  0  0  0
   -5.6285   -2.3431    0.3781 C   0  0  0  0  0  0  0  0  0  0  0  0
   -5.5587   -3.4461    1.2204 C   0  0  0  0  0  0  0  0  0  0  0  0
   -4.3279   -3.8352    1.7257 C   0  0  0  0  0  0  0  0  0  0  0  0
   -3.1746   -3.1344    1.3900 C   0  0  0  0  0  0  0  0  0  0  0  0
   -2.0041   -1.8971   -2.3928 C   0  0  0  0  0  0  0  0  0  0  0  0
   -2.0469   -1.3928   -3.8097 C   0  0  0  0  0  0  0  0  0  0  0  0
   -1.9976   -3.0843   -2.1243 O   0  0  0  0  0  0  0  0  0  0  0  0
   -0.9343    2.5953   -2.6469 F   0  0  0  0  0  0  0  0  0  0  0  0
   -2.5710    5.2065    2.0553 C   0  0  0  0  0  0  0  0  0  0  0  0
   -0.6829   -1.8738    0.6027 C   0  0  0  0  0  0  0  0  0  0  0  0
    0.5719   -1.1580    0.1140 C   0  0  0  0  0  0  0  0  0  0  0  0
    1.8186   -1.7931    0.7153 C   0  0  0  0  0  0  0  0  0  0  0  0
    3.0572   -1.2841    0.1564 N   0  0  0  0  0  0  0  0  0  0  0  0
    3.3071    0.1007    0.5095 C   0  0  0  0  0  0  0  0  0  0  0  0
    4.1855   -2.1104    0.5453 C   0  0  0  0  0  0  0  0  0  0  0  0
    5.4659   -1.6316   -0.1174 C   0  0  0  0  0  0  0  0  0  0  0  0
    4.5763    0.6062   -0.1569 C   0  0  0  0  0  0  0  0  0  0  0  0
    5.7014   -0.2355    0.1959 N   0  0  0  0  0  0  0  0  0  0  0  0
    6.8173    0.1696    0.8398 C   0  0  0  0  0  0  0  0  0  0  0  0
    6.9348    1.6419    1.1625 C   0  0  0  0  0  0  0  0  0  0  0  0
    7.7080   -0.6121    1.1531 O   0  0  0  0  0  0  0  0  0  0  0  0
   -2.5560    2.5674    1.5649 H   0  0  0  0  0  0  0  0  0  0  0  0
   -0.9223    5.1189   -2.3109 H   0  0  0  0  0  0  0  0  0  0  0  0
   -1.6111    6.3093   -0.2546 H   0  0  0  0  0  0  0  0  0  0  0  0
   -1.3562    0.4354    1.4884 H   0  0  0  0  0  0  0  0  0  0  0  0
   -3.0900    0.4356    1.1518 H   0  0  0  0  0  0  0  0  0  0  0  0
   -4.5565   -0.7883   -0.6100 H   0  0  0  0  0  0  0  0  0  0  0  0
   -6.5816   -2.0258   -0.0250 H   0  0  0  0  0  0  0  0  0  0  0  0
   -6.4551   -3.9950    1.4781 H   0  0  0  0  0  0  0  0  0  0  0  0
   -4.2575   -4.6906    2.3852 H   0  0  0  0  0  0  0  0  0  0  0  0
   -2.2323   -3.4703    1.8000 H   0  0  0  0  0  0  0  0  0  0  0  0
   -1.3342   -0.5867   -3.9748 H   0  0  0  0  0  0  0  0  0  0  0  0
   -1.8434   -2.2054   -4.5038 H   0  0  0  0  0  0  0  0  0  0  0  0
   -3.0385   -0.9913   -4.0274 H   0  0  0  0  0  0  0  0  0  0  0  0
   -3.5863    5.5934    1.9488 H   0  0  0  0  0  0  0  0  0  0  0  0
   -2.5656    4.5342    2.9121 H   0  0  0  0  0  0  0  0  0  0  0  0
   -1.9272    6.0545    2.2878 H   0  0  0  0  0  0  0  0  0  0  0  0
   -0.6680   -1.9123    1.6967 H   0  0  0  0  0  0  0  0  0  0  0  0
   -0.6590   -2.9075    0.2532 H   0  0  0  0  0  0  0  0  0  0  0  0
    0.6435   -1.2138   -0.9754 H   0  0  0  0  0  0  0  0  0  0  0  0
    0.5258   -0.0969    0.3733 H   0  0  0  0  0  0  0  0  0  0  0  0
    1.7914   -1.6827    1.8136 H   0  0  0  0  0  0  0  0  0  0  0  0
    1.7859   -2.8687    0.5167 H   0  0  0  0  0  0  0  0  0  0  0  0
    2.4785    0.7264    0.1753 H   0  0  0  0  0  0  0  0  0  0  0  0
    3.3967    0.2333    1.6021 H   0  0  0  0  0  0  0  0  0  0  0  0
    4.3294   -2.1192    1.6397 H   0  0  0  0  0  0  0  0  0  0  0  0
    3.9961   -3.1411    0.2375 H   0  0  0  0  0  0  0  0  0  0  0  0
    6.3084   -2.2311    0.2159 H   0  0  0  0  0  0  0  0  0  0  0  0
    5.3794   -1.7427   -1.2032 H   0  0  0  0  0  0  0  0  0  0  0  0
    4.4463    0.5903   -1.2438 H   0  0  0  0  0  0  0  0  0  0  0  0
    4.7514    1.6382    0.1325 H   0  0  0  0  0  0  0  0  0  0  0  0
    6.1578    1.9643    1.8571 H   0  0  0  0  0  0  0  0  0  0  0  0
    7.9014    1.8253    1.6243 H   0  0  0  0  0  0  0  0  0  0  0  0
    6.8554    2.2650    0.2716 H   0  0  0  0  0  0  0  0  0  0  0  0
  1 22  1  0
  1  6  2  0
  1  2  1  0
  2  3  2  0
  2 35  1  0
  3  4  1  0
  3  7  1  0
  4  5  2  0
  4 21  1  0
  5  6  1  0
  5 36  1  0
  6 37  1  0
  7  8  1  0
  7 11  1  0
  8  9  2  0
  9 10  1  0
  9 18  1  0
 10 23  1  1
 10 11  1  0
 10 12  1  0
 11 38  1  0
 11 39  1  0
 12 13  2  0
 12 17  1  0
 13 14  1  0
 13 40  1  0
 14 15  2  0
 14 41  1  0
 15 16  1  0
 15 42  1  0
 16 17  2  0
 16 43  1  0
 17 44  1  0
 18 19  1  0
 18 20  2  0
 19 45  1  0
 19 46  1  0
 19 47  1  0
 22 48  1  0
 22 49  1  0
 22 50  1  0
 23 24  1  0
 23 51  1  0
 23 52  1  0
 24 25  1  0
 24 53  1  0
 24 54  1  0
 25 26  1  0
 25 55  1  0
 25 56  1  0
 26 28  1  0
 26 27  1  0
 27 30  1  0
 27 57  1  0
 27 58  1  0
 28 29  1  0
 28 59  1  0
 28 60  1  0
 29 31  1  0
 29 61  1  0
 29 62  1  0
 30 31  1  0
 30 63  1  0
 30 64  1  0
 31 32  1  0
 32 34  2  0
 32 33  1  0
 33 65  1  0
 33 66  1  0
 33 67  1  0
M  END
