
     RDKit          3D

 46 47  0  0  0  0  0  0  0  0999 V2000
   -3.4631    0.8544    1.0482 C   0  0  0  0  0  0  0  0  0  0  0  0
   -2.1693    1.3068    0.8224 C   0  0  0  0  0  0  0  0  0  0  0  0
   -1.7425    1.5631   -0.4832 C   0  0  0  0  0  0  0  0  0  0  0  0
   -2.6175    1.3605   -1.5376 C   0  0  0  0  0  0  0  0  0  0  0  0
   -3.9211    0.9076   -1.3361 C   0  0  0  0  0  0  0  0  0  0  0  0
   -4.3204    0.6603   -0.0263 C   0  0  0  0  0  0  0  0  0  0  0  0
   -0.3493    2.0478   -0.7276 C   0  0  0  0  0  0  0  0  0  0  0  0
    0.6927    0.9832   -0.4197 C   0  0  0  0  0  0  0  0  0  0  0  0
    1.9408    1.5217   -0.2314 N   0  0  0  0  0  0  0  0  0  0  0  0
    3.1612    0.8925   -0.0600 C   0  0  0  0  0  0  0  0  0  0  0  0
    0.4336   -0.1959   -0.3920 O   0  0  0  0  0  0  0  0  0  0  0  0
    3.1734   -0.4282    0.1160 N   0  0  0  0  0  0  0  0  0  0  0  0
    4.3388   -1.0063    0.2659 C   0  0  0  0  0  0  0  0  0  0  0  0
    5.5665   -0.3222    0.2594 C   0  0  0  0  0  0  0  0  0  0  0  0
    5.5484    1.0813    0.0854 C   0  0  0  0  0  0  0  0  0  0  0  0
    4.2955    1.6864   -0.0767 C   0  0  0  0  0  0  0  0  0  0  0  0
   -4.8142    0.6932   -2.3165 O   0  0  0  0  0  0  0  0  0  0  0  0
   -4.4273    0.9543   -3.6520 C   0  0  0  0  0  0  0  0  0  0  0  0
   -1.2620    1.5234    1.7946 O   0  0  0  0  0  0  0  0  0  0  0  0
   -1.6223    1.2471    3.1328 C   0  0  0  0  0  0  0  0  0  0  0  0
    6.6738    1.8014    0.0671 N   0  0  0  0  0  0  0  0  0  0  0  0
    6.7777   -1.0222    0.4327 C   0  0  0  0  0  0  0  0  0  0  0  0
    4.4052   -2.3155    0.4398 O   0  0  0  0  0  0  0  0  0  0  0  0
    3.1843   -3.0617    0.5467 C   0  0  0  0  0  0  0  0  0  0  0  0
    3.5542   -4.5167    0.6999 C   0  0  0  0  0  0  0  0  0  0  0  0
   -6.0719    0.0454    0.2968 Br  0  0  0  0  0  0  0  0  0  0  0  0
    7.7889   -1.5641    0.5718 N   0  0  0  0  0  0  0  0  0  0  0  0
   -3.8159    0.6477    2.0492 H   0  0  0  0  0  0  0  0  0  0  0  0
   -2.2615    1.5652   -2.5390 H   0  0  0  0  0  0  0  0  0  0  0  0
   -0.1399    2.9575   -0.1582 H   0  0  0  0  0  0  0  0  0  0  0  0
   -0.2306    2.3170   -1.7813 H   0  0  0  0  0  0  0  0  0  0  0  0
    1.9960    2.5264   -0.3078 H   0  0  0  0  0  0  0  0  0  0  0  0
    4.2247    2.7569   -0.2191 H   0  0  0  0  0  0  0  0  0  0  0  0
   -4.1576    2.0028   -3.8015 H   0  0  0  0  0  0  0  0  0  0  0  0
   -3.5906    0.3248   -3.9648 H   0  0  0  0  0  0  0  0  0  0  0  0
   -5.2900    0.7222   -4.2710 H   0  0  0  0  0  0  0  0  0  0  0  0
   -2.4601    1.8655    3.4658 H   0  0  0  0  0  0  0  0  0  0  0  0
   -1.8810    0.1946    3.2758 H   0  0  0  0  0  0  0  0  0  0  0  0
   -0.7527    1.4806    3.7418 H   0  0  0  0  0  0  0  0  0  0  0  0
    6.6395    2.8021   -0.0182 H   0  0  0  0  0  0  0  0  0  0  0  0
    7.5794    1.3881    0.2053 H   0  0  0  0  0  0  0  0  0  0  0  0
    2.5689   -2.9005   -0.3399 H   0  0  0  0  0  0  0  0  0  0  0  0
    2.6173   -2.7069    1.4096 H   0  0  0  0  0  0  0  0  0  0  0  0
    4.0909   -4.8898   -0.1725 H   0  0  0  0  0  0  0  0  0  0  0  0
    4.1681   -4.6847    1.5849 H   0  0  0  0  0  0  0  0  0  0  0  0
    2.6436   -5.1050    0.8079 H   0  0  0  0  0  0  0  0  0  0  0  0
  1  2  2  0
  1  6  1  0
  1 28  1  0
  2  3  1  0
  2 19  1  0
  3  4  2  0
  3  7  1  0
  4  5  1  0
  4 29  1  0
  5  6  2  0
  5 17  1  0
  6 26  1  0
  7  8  1  0
  7 30  1  0
  7 31  1  0
  8  9  1  0
  8 11  2  0
  9 10  1  0
  9 32  1  0
 10 12  2  0
 10 16  1  0
 12 13  1  0
 13 14  2  0
 13 23  1  0
 14 15  1  0
 14 22  1  0
 15 16  2  0
 15 21  1  0
 16 33  1  0
 17 18  1  0
 18 34  1  0
 18 35  1  0
 18 36  1  0
 19 20  1  0
 20 37  1  0
 20 38  1  0
 20 39  1  0
 21 40  1  0
 21 41  1  0
 22 27  3  0
 23 24  1  0
 24 25  1  0
 24 42  1  0
 24 43  1  0
 25 44  1  0
 25 45  1  0
 25 46  1  0
M  END
