
     RDKit          3D

 18 18  0  0  0  0  0  0  0  0999 V2000
    1.8472    0.2865   -0.3885 O   0  0  0  0  0  0  0  0  0  0  0  0
    0.9165    0.2166   -2.9069 O   0  0  0  0  0  0  0  0  0  0  0  0
    1.4006    0.2308    2.0704 O   0  0  0  0  0  0  0  0  0  0  0  0
   -0.6559    0.0143    2.9265 N   0  0  0  0  0  0  0  0  0  0  0  0
    0.5263    0.1633   -0.5477 C   0  0  0  0  0  0  0  0  0  0  0  0
    0.0562    0.1290   -1.8730 C   0  0  0  0  0  0  0  0  0  0  0  0
   -1.2963    0.0060   -2.1183 C   0  0  0  0  0  0  0  0  0  0  0  0
   -2.1984   -0.0844   -1.0589 C   0  0  0  0  0  0  0  0  0  0  0  0
   -1.7473   -0.0533    0.2420 C   0  0  0  0  0  0  0  0  0  0  0  0
   -0.3786    0.0703    0.5183 C   0  0  0  0  0  0  0  0  0  0  0  0
    0.1767    0.1103    1.8931 C   0  0  0  0  0  0  0  0  0  0  0  0
    2.0023    0.2980    0.5958 H   0  0  0  0  0  0  0  0  0  0  0  0
    1.8223    0.2850   -2.5811 H   0  0  0  0  0  0  0  0  0  0  0  0
   -0.2877    0.0398    3.8639 H   0  0  0  0  0  0  0  0  0  0  0  0
   -1.6511   -0.0808    2.8332 H   0  0  0  0  0  0  0  0  0  0  0  0
   -1.6479   -0.0197   -3.1425 H   0  0  0  0  0  0  0  0  0  0  0  0
   -3.2560   -0.1786   -1.2629 H   0  0  0  0  0  0  0  0  0  0  0  0
   -2.4745   -0.1242    1.0389 H   0  0  0  0  0  0  0  0  0  0  0  0
  1  5  1  0
  1 12  1  0
  2  6  1  0
  2 13  1  0
  3 11  2  0
  4 11  1  0
  4 14  1  0
  4 15  1  0
  5  6  2  0
  5 10  1  0
  6  7  1  0
  7  8  2  0
  7 16  1  0
  8  9  1  0
  8 17  1  0
  9 10  2  0
  9 18  1  0
 10 11  1  0
M  END
