
     RDKit          3D

 51 50  0  0  0  0  0  0  0  0999 V2000
   -7.8599   -1.3723    0.0355 C   0  0  0  0  0  0  0  0  0  0  0  0
   -7.5543   -2.4334    0.5206 O   0  0  0  0  0  0  0  0  0  0  0  0
   -9.1123   -1.0617   -0.2905 O   0  0  0  0  0  0  0  0  0  0  0  0
   -6.9081   -0.2514   -0.2754 C   0  0  0  0  0  0  0  0  0  0  0  0
   -9.7030   -1.7987   -0.0753 H   0  0  0  0  0  0  0  0  0  0  0  0
   -6.9900   -0.0244   -1.3435 H   0  0  0  0  0  0  0  0  0  0  0  0
   -7.2636    0.6474    0.2389 H   0  0  0  0  0  0  0  0  0  0  0  0
   -5.4645   -0.5428    0.0983 C   0  0  0  0  0  0  0  0  0  0  0  0
   -4.5478    0.6279   -0.2349 C   0  0  0  0  0  0  0  0  0  0  0  0
   -3.0952    0.3680    0.1407 C   0  0  0  0  0  0  0  0  0  0  0  0
   -2.1727    1.5381   -0.1779 C   0  0  0  0  0  0  0  0  0  0  0  0
   -0.7282    1.2832    0.2317 C   0  0  0  0  0  0  0  0  0  0  0  0
    0.2035    2.4565   -0.0762 C   0  0  0  0  0  0  0  0  0  0  0  0
    1.5859    2.2283    0.4480 C   0  0  0  0  0  0  0  0  0  0  0  0
    2.6871    2.1273   -0.2909 C   0  0  0  0  0  0  0  0  0  0  0  0
    4.0525    1.8386    0.2492 C   0  0  0  0  0  0  0  0  0  0  0  0
    4.6163    0.5173   -0.2757 C   0  0  0  0  0  0  0  0  0  0  0  0
    5.9756    0.1790    0.3251 C   0  0  0  0  0  0  0  0  0  0  0  0
    6.5607   -1.1626   -0.1235 C   0  0  1  0  0  0  0  0  0  0  0  0
    6.9039   -1.1555   -1.6108 C   0  0  0  0  0  0  0  0  0  0  0  0
    7.7775   -1.5125    0.7379 C   0  0  0  0  0  0  0  0  0  0  0  0
    8.3720   -2.8895    0.4722 C   0  0  0  0  0  0  0  0  0  0  0  0
   -5.3949   -0.7645    1.1668 H   0  0  0  0  0  0  0  0  0  0  0  0
   -5.1173   -1.4374   -0.4259 H   0  0  0  0  0  0  0  0  0  0  0  0
   -4.6140    0.8507   -1.3055 H   0  0  0  0  0  0  0  0  0  0  0  0
   -4.9013    1.5262    0.2834 H   0  0  0  0  0  0  0  0  0  0  0  0
   -3.0335    0.1406    1.2107 H   0  0  0  0  0  0  0  0  0  0  0  0
   -2.7388   -0.5279   -0.3795 H   0  0  0  0  0  0  0  0  0  0  0  0
   -2.2174    1.7557   -1.2507 H   0  0  0  0  0  0  0  0  0  0  0  0
   -2.5391    2.4376    0.3293 H   0  0  0  0  0  0  0  0  0  0  0  0
   -0.6908    1.0646    1.3044 H   0  0  0  0  0  0  0  0  0  0  0  0
   -0.3539    0.3868   -0.2733 H   0  0  0  0  0  0  0  0  0  0  0  0
    0.2350    2.6308   -1.1557 H   0  0  0  0  0  0  0  0  0  0  0  0
   -0.2141    3.3636    0.3754 H   0  0  0  0  0  0  0  0  0  0  0  0
    1.6719    2.1148    1.5278 H   0  0  0  0  0  0  0  0  0  0  0  0
    2.6060    2.2307   -1.3718 H   0  0  0  0  0  0  0  0  0  0  0  0
    4.7407    2.6464   -0.0246 H   0  0  0  0  0  0  0  0  0  0  0  0
    4.0176    1.8168    1.3427 H   0  0  0  0  0  0  0  0  0  0  0  0
    3.9106   -0.2892   -0.0505 H   0  0  0  0  0  0  0  0  0  0  0  0
    4.6833    0.5687   -1.3661 H   0  0  0  0  0  0  0  0  0  0  0  0
    6.6916    0.9774    0.0942 H   0  0  0  0  0  0  0  0  0  0  0  0
    5.8767    0.1705    1.4164 H   0  0  0  0  0  0  0  0  0  0  0  0
    5.7981   -1.9344    0.0485 H   0  0  0  0  0  0  0  0  0  0  0  0
    7.6823   -0.4173   -1.8233 H   0  0  0  0  0  0  0  0  0  0  0  0
    7.2672   -2.1257   -1.9502 H   0  0  0  0  0  0  0  0  0  0  0  0
    6.0384   -0.9070   -2.2258 H   0  0  0  0  0  0  0  0  0  0  0  0
    8.5471   -0.7454    0.5961 H   0  0  0  0  0  0  0  0  0  0  0  0
    7.4845   -1.4528    1.7908 H   0  0  0  0  0  0  0  0  0  0  0  0
    7.6165   -3.6710    0.5767 H   0  0  0  0  0  0  0  0  0  0  0  0
    8.7937   -2.9703   -0.5300 H   0  0  0  0  0  0  0  0  0  0  0  0
    9.1734   -3.1115    1.1781 H   0  0  0  0  0  0  0  0  0  0  0  0
  1  2  2  0
  1  4  1  0
  4  6  1  0
  4  7  1  0
  1  3  1  0
  3  5  1  0
  4  8  1  0
  8  9  1  0
  9 10  1  0
 10 11  1  0
 11 12  1  0
 12 13  1  0
 13 14  1  0
 14 15  2  0
 15 16  1  0
 16 17  1  0
 17 18  1  0
 18 19  1  0
 19 20  1  0
 19 21  1  0
 21 22  1  0
  8 23  1  0
  8 24  1  0
  9 25  1  0
  9 26  1  0
 10 27  1  0
 10 28  1  0
 11 29  1  0
 11 30  1  0
 12 31  1  0
 12 32  1  0
 13 33  1  0
 13 34  1  0
 14 35  1  0
 15 36  1  0
 16 37  1  0
 16 38  1  0
 17 39  1  0
 17 40  1  0
 18 41  1  0
 18 42  1  0
 19 43  1  6
 20 44  1  0
 20 45  1  0
 20 46  1  0
 21 47  1  0
 21 48  1  0
 22 49  1  0
 22 50  1  0
 22 51  1  0
M  END
