
     RDKit          3D

 71 75  0  0  0  0  0  0  0  0999 V2000
    3.4496   -0.1907   -2.5809 C   0  0  0  0  0  0  0  0  0  0  0  0
    3.2848    0.9078   -1.5292 C   0  0  2  0  0  0  0  0  0  0  0  0
    0.0350    2.4410   -0.7325 C   0  0  0  0  0  0  0  0  0  0  0  0
   -0.9566    3.3879   -0.5499 C   0  0  0  0  0  0  0  0  0  0  0  0
   -2.1928    2.9611   -0.0860 C   0  0  0  0  0  0  0  0  0  0  0  0
   -2.4464    1.6111    0.1829 C   0  0  0  0  0  0  0  0  0  0  0  0
   -0.2161    1.1048   -0.4732 C   0  0  0  0  0  0  0  0  0  0  0  0
    1.0059    0.3230   -0.7637 C   0  0  0  0  0  0  0  0  0  0  0  0
   -3.7790    1.1528    0.6297 C   0  0  0  0  0  0  0  0  0  0  0  0
   -5.4702   -0.3683    0.3693 C   0  0  0  0  0  0  0  0  0  0  0  0
   -9.6128   -2.1126   -0.7782 C   0  0  0  0  0  0  0  0  0  0  0  0
   -8.5576   -4.1504   -0.3250 C   0  0  0  0  0  0  0  0  0  0  0  0
   -7.1665   -3.5438   -0.4403 C   0  0  0  0  0  0  0  0  0  0  0  0
   -5.7589    1.2290    1.9364 C   0  0  0  0  0  0  0  0  0  0  0  0
   -4.5108    1.7598    1.6532 C   0  0  0  0  0  0  0  0  0  0  0  0
    4.0396    0.6349   -0.2186 C   0  0  0  0  0  0  0  0  0  0  0  0
    6.8003    1.3758    1.2713 C   0  0  0  0  0  0  0  0  0  0  0  0
    9.0462   -1.7179   -1.1172 C   0  0  0  0  0  0  0  0  0  0  0  0
    9.3061   -2.7755   -0.2555 C   0  0  0  0  0  0  0  0  0  0  0  0
    8.5824   -2.9201    0.9237 C   0  0  0  0  0  0  0  0  0  0  0  0
    8.8633   -4.0464    1.8756 C   0  0  0  0  0  0  0  0  0  0  0  0
    7.5880   -1.9849    1.2057 C   0  0  0  0  0  0  0  0  0  0  0  0
    1.9077    1.2137   -1.2456 N   0  0  0  0  0  0  0  0  0  0  0  0
    1.4436    2.5864   -1.2047 C   0  0  0  0  0  0  0  0  0  0  0  0
   -1.4471    0.6644   -0.0260 C   0  0  0  0  0  0  0  0  0  0  0  0
    1.1655   -0.8761   -0.6165 O   0  0  0  0  0  0  0  0  0  0  0  0
   -4.2646    0.0895    0.0111 N   0  0  0  0  0  0  0  0  0  0  0  0
   -5.9044   -1.4717   -0.2596 N   0  0  0  0  0  0  0  0  0  0  0  0
   -7.2129   -2.0625   -0.0865 C   0  0  1  0  0  0  0  0  0  0  0  0
   -8.2902   -1.3758   -0.9262 C   0  0  0  0  0  0  0  0  0  0  0  0
   -9.4998   -3.4751   -1.1284 O   0  0  0  0  0  0  0  0  0  0  0  0
   -6.2541    0.1863    1.3020 N   0  0  0  0  0  0  0  0  0  0  0  0
   -3.9160    3.0729    2.6034 Cl  0  0  0  0  0  0  0  0  0  0  0  0
    3.5018    0.7500    0.8688 O   0  0  0  0  0  0  0  0  0  0  0  0
    5.3253    0.2819   -0.3779 N   0  0  0  0  0  0  0  0  0  0  0  0
    6.2333    0.0639    0.7349 C   0  0  1  0  0  0  0  0  0  0  0  0
    7.3148   -0.9212    0.3532 C   0  0  0  0  0  0  0  0  0  0  0  0
    8.0620   -0.7892   -0.8164 C   0  0  0  0  0  0  0  0  0  0  0  0
    4.4825   -0.2567   -2.9203 H   0  0  0  0  0  0  0  0  0  0  0  0
    3.1488   -1.1663   -2.2093 H   0  0  0  0  0  0  0  0  0  0  0  0
    2.8454    0.0531   -3.4537 H   0  0  0  0  0  0  0  0  0  0  0  0
    3.7166    1.8222   -1.9487 H   0  0  0  0  0  0  0  0  0  0  0  0
   -0.7866    4.4349   -0.7637 H   0  0  0  0  0  0  0  0  0  0  0  0
   -2.9795    3.6920    0.0416 H   0  0  0  0  0  0  0  0  0  0  0  0
   -9.9719   -2.0136    0.2573 H   0  0  0  0  0  0  0  0  0  0  0  0
  -10.3719   -1.6768   -1.4295 H   0  0  0  0  0  0  0  0  0  0  0  0
   -8.5450   -5.1916   -0.6502 H   0  0  0  0  0  0  0  0  0  0  0  0
   -8.8742   -4.1387    0.7286 H   0  0  0  0  0  0  0  0  0  0  0  0
   -6.4829   -4.0764    0.2247 H   0  0  0  0  0  0  0  0  0  0  0  0
   -6.7956   -3.6719   -1.4628 H   0  0  0  0  0  0  0  0  0  0  0  0
   -6.3738    1.6738    2.7114 H   0  0  0  0  0  0  0  0  0  0  0  0
    5.9695    1.9795    1.6559 H   0  0  0  0  0  0  0  0  0  0  0  0
    7.4498    1.1396    2.1241 H   0  0  0  0  0  0  0  0  0  0  0  0
   10.0752   -3.4970   -0.5051 H   0  0  0  0  0  0  0  0  0  0  0  0
    9.4315   -3.6954    2.7396 H   0  0  0  0  0  0  0  0  0  0  0  0
    7.9422   -4.4882    2.2565 H   0  0  0  0  0  0  0  0  0  0  0  0
    9.4449   -4.8350    1.4001 H   0  0  0  0  0  0  0  0  0  0  0  0
    7.0050   -2.0905    2.1150 H   0  0  0  0  0  0  0  0  0  0  0  0
    1.5049    3.0550   -2.1910 H   0  0  0  0  0  0  0  0  0  0  0  0
    2.0421    3.1879   -0.5135 H   0  0  0  0  0  0  0  0  0  0  0  0
   -1.6308   -0.3855    0.1631 H   0  0  0  0  0  0  0  0  0  0  0  0
   -5.3234   -1.8138   -1.0092 H   0  0  0  0  0  0  0  0  0  0  0  0
   -7.4845   -1.9683    0.9686 H   0  0  0  0  0  0  0  0  0  0  0  0
   -7.9830   -1.3658   -1.9764 H   0  0  0  0  0  0  0  0  0  0  0  0
   -8.4184   -0.3376   -0.6115 H   0  0  0  0  0  0  0  0  0  0  0  0
    5.7158    0.3065   -1.3054 H   0  0  0  0  0  0  0  0  0  0  0  0
    5.6522   -0.3754    1.5479 H   0  0  0  0  0  0  0  0  0  0  0  0
    7.8122    2.8760    0.5853 H   0  0  0  0  0  0  0  0  0  0  0  0
    7.8928    0.0313   -1.5020 H   0  0  0  0  0  0  0  0  0  0  0  0
    7.4909    2.0373    0.2429 O   0  0  0  0  0  0  0  0  0  0  0  0
    9.6177   -1.6171   -2.0310 H   0  0  0  0  0  0  0  0  0  0  0  0
 31 12  1  0
 31 11  1  0
 12 13  1  0
 13 29  1  0
 11 30  1  0
 30 29  1  0
 29 28  1  0
 28 10  1  0
 10 27  2  0
 10 32  1  0
 27  9  1  0
 32 14  2  0
  9  6  1  0
  9 15  2  0
 14 15  1  0
  6 25  2  0
  6  5  1  0
 25  7  1  0
 15 33  1  0
  5  4  2  0
 26  8  2  0
  1  2  1  0
  7  8  1  0
  7  3  2  0
  8 23  1  0
 23  2  1  0
 23 24  1  0
  4  3  1  0
  3 24  1  0
  2 16  1  0
 16 35  1  0
 16 34  2  0
 35 36  1  0
 70 17  1  0
 21 20  1  0
 17 36  1  0
 22 20  2  0
 22 37  1  0
 36 37  1  0
 20 19  1  0
 37 38  2  0
 19 18  2  0
 38 18  1  0
  1 39  1  0
  1 40  1  0
  1 41  1  0
  2 42  1  6
  4 43  1  0
  5 44  1  0
 11 45  1  0
 11 46  1  0
 12 47  1  0
 12 48  1  0
 13 49  1  0
 13 50  1  0
 14 51  1  0
 17 52  1  0
 17 53  1  0
 18 71  1  0
 19 54  1  0
 21 55  1  0
 21 56  1  0
 21 57  1  0
 22 58  1  0
 24 59  1  0
 24 60  1  0
 25 61  1  0
 28 62  1  0
 29 63  1  1
 30 64  1  0
 30 65  1  0
 35 66  1  0
 36 67  1  1
 70 68  1  0
 38 69  1  0
M  END
