
     RDKit          3D

 64 68  0  0  0  0  0  0  0  0999 V2000
    7.1017   -1.6603    0.5180 C   0  0  0  0  0  0  0  0  0  0  0  0
    6.9310    0.6051   -0.3260 C   0  0  0  0  0  0  0  0  0  0  0  0
    7.7180   -0.4738    0.1121 C   0  0  0  0  0  0  0  0  0  0  0  0
    9.0604    0.0077    0.0170 C   0  0  0  0  0  0  0  0  0  0  0  0
   -1.7970    2.8944    1.8129 C   0  0  0  0  0  0  0  0  0  0  0  0
   -0.8034    2.9193    0.8390 C   0  0  0  0  0  0  0  0  0  0  0  0
   -0.9317    3.8189   -0.2179 C   0  0  0  0  0  0  0  0  0  0  0  0
   -2.0217    4.6723   -0.2989 C   0  0  0  0  0  0  0  0  0  0  0  0
    4.9403   -0.6607    0.0004 C   0  0  0  0  0  0  0  0  0  0  0  0
    5.5375    0.5275   -0.3864 C   0  0  0  0  0  0  0  0  0  0  0  0
   -7.3054   -2.2952    0.5214 C   0  0  0  0  0  0  0  0  0  0  0  0
    0.3683    1.9807    0.9020 C   0  0  0  0  0  0  0  0  0  0  0  0
   -7.7800   -1.3041    1.3585 C   0  0  0  0  0  0  0  0  0  0  0  0
   -4.3106   -0.6801   -1.1102 C   0  0  0  0  0  0  0  0  0  0  0  0
   -3.1140   -0.5619   -0.3073 N   0  0  0  0  0  0  0  0  0  0  0  0
    0.2348    0.8378   -0.1141 C   0  0  2  0  0  0  0  0  0  0  0  0
   -0.9495    0.0500    0.1070 N   0  0  0  0  0  0  0  0  0  0  0  0
    1.4525   -0.0402   -0.0978 C   0  0  0  0  0  0  0  0  0  0  0  0
    1.3864   -1.3795   -0.2343 N   0  0  0  0  0  0  0  0  0  0  0  0
    2.6640   -1.8501   -0.2127 C   0  0  0  0  0  0  0  0  0  0  0  0
    3.4817   -0.7596   -0.0597 C   0  0  0  0  0  0  0  0  0  0  0  0
    2.6910    0.3586    0.0076 N   0  0  0  0  0  0  0  0  0  0  0  0
    5.7302   -1.7449    0.4603 C   0  0  0  0  0  0  0  0  0  0  0  0
    7.7898    1.5995   -0.6245 N   0  0  0  0  0  0  0  0  0  0  0  0
    9.0790    1.2368   -0.4316 N   0  0  0  0  0  0  0  0  0  0  0  0
   10.1980   -0.6663    0.4028 N   0  0  0  0  0  0  0  0  0  0  0  0
   -3.0066    4.6411    0.6819 C   0  0  0  0  0  0  0  0  0  0  0  0
   -2.8890    3.7510    1.7401 C   0  0  0  0  0  0  0  0  0  0  0  0
   -2.0107    0.0818   -0.7615 C   0  0  0  0  0  0  0  0  0  0  0  0
   -1.9581    0.6272   -1.8548 O   0  0  0  0  0  0  0  0  0  0  0  0
   -5.5255   -0.8627   -0.2388 C   0  0  0  0  0  0  0  0  0  0  0  0
   -5.9911    0.1587    0.6030 C   0  0  0  0  0  0  0  0  0  0  0  0
   -7.1119   -0.0863    1.3863 C   0  0  0  0  0  0  0  0  0  0  0  0
   -6.1860   -2.0837   -0.2704 C   0  0  0  0  0  0  0  0  0  0  0  0
   -5.3252    1.5101    0.6591 C   0  0  0  0  0  0  0  0  0  0  0  0
   -5.4873    2.2312   -0.5948 N   0  0  0  0  0  0  0  0  0  0  0  0
    7.6808   -2.4989    0.8838 H   0  0  0  0  0  0  0  0  0  0  0  0
   -1.7171    2.2019    2.6431 H   0  0  0  0  0  0  0  0  0  0  0  0
   -0.1680    3.8556   -0.9865 H   0  0  0  0  0  0  0  0  0  0  0  0
   -2.1017    5.3662   -1.1258 H   0  0  0  0  0  0  0  0  0  0  0  0
    4.9424    1.3626   -0.7313 H   0  0  0  0  0  0  0  0  0  0  0  0
    1.2980    2.5146    0.6985 H   0  0  0  0  0  0  0  0  0  0  0  0
    0.4611    1.5569    1.9053 H   0  0  0  0  0  0  0  0  0  0  0  0
   -8.6520   -1.4660    1.9774 H   0  0  0  0  0  0  0  0  0  0  0  0
   -4.4214    0.2316   -1.6951 H   0  0  0  0  0  0  0  0  0  0  0  0
   -4.2385   -1.5176   -1.8112 H   0  0  0  0  0  0  0  0  0  0  0  0
   -3.0334   -1.1660    0.4952 H   0  0  0  0  0  0  0  0  0  0  0  0
    0.1502    1.2708   -1.1143 H   0  0  0  0  0  0  0  0  0  0  0  0
   -1.1321   -0.2211    1.0623 H   0  0  0  0  0  0  0  0  0  0  0  0
    0.5450   -1.9293   -0.3287 H   0  0  0  0  0  0  0  0  0  0  0  0
    5.2506   -2.6508    0.8010 H   0  0  0  0  0  0  0  0  0  0  0  0
    7.5815    2.5092   -0.9980 H   0  0  0  0  0  0  0  0  0  0  0  0
   10.1771   -1.6548    0.2044 H   0  0  0  0  0  0  0  0  0  0  0  0
   11.0509   -0.2548    0.0546 H   0  0  0  0  0  0  0  0  0  0  0  0
   -3.8536    5.3129    0.6261 H   0  0  0  0  0  0  0  0  0  0  0  0
   -3.6504    3.7183    2.5088 H   0  0  0  0  0  0  0  0  0  0  0  0
   -7.4815    0.6953    2.0393 H   0  0  0  0  0  0  0  0  0  0  0  0
   -5.8211   -2.8735   -0.9158 H   0  0  0  0  0  0  0  0  0  0  0  0
   -5.7156    2.0530    1.5294 H   0  0  0  0  0  0  0  0  0  0  0  0
   -4.2573    1.3822    0.8343 H   0  0  0  0  0  0  0  0  0  0  0  0
   -6.4128    2.6377   -0.6398 H   0  0  0  0  0  0  0  0  0  0  0  0
   -4.8326    3.0023   -0.6204 H   0  0  0  0  0  0  0  0  0  0  0  0
    2.9771   -3.5097   -0.4195 Cl  0  0  0  0  0  0  0  0  0  0  0  0
   -8.1120   -3.8302    0.4582 Cl  0  0  0  0  0  0  0  0  0  0  0  0
 36 35  1  0
 35 32  1  0
 63 20  1  0
  5 28  2  0
  5  6  1  0
 32 33  2  0
 32 31  1  0
 33 13  1  0
 19 20  1  0
 19 18  1  0
 28 27  1  0
 12  6  1  0
 12 16  1  0
 20 21  2  0
 31 14  1  0
 31 34  2  0
 14 15  1  0
 13 11  2  0
  6  7  2  0
 17 16  1  0
 17 29  1  0
 18 16  1  0
 18 22  2  0
 34 11  1  0
 11 64  1  0
 15 29  1  0
 27  8  2  0
 21 22  1  0
 21  9  1  0
 29 30  2  0
  7  8  1  0
 10  9  2  0
 10  2  1  0
  9 23  1  0
 24  2  1  0
 24 25  1  0
  2  3  2  0
 23  1  2  0
 25  4  2  0
  3  1  1  0
  3  4  1  0
  4 26  1  0
  1 37  1  0
  5 38  1  0
  7 39  1  0
  8 40  1  0
 10 41  1  0
 12 42  1  0
 12 43  1  0
 13 44  1  0
 14 45  1  0
 14 46  1  0
 15 47  1  0
 16 48  1  6
 17 49  1  0
 19 50  1  0
 23 51  1  0
 24 52  1  0
 26 53  1  0
 26 54  1  0
 27 55  1  0
 28 56  1  0
 33 57  1  0
 34 58  1  0
 35 59  1  0
 35 60  1  0
 36 61  1  0
 36 62  1  0
M  END
