
     RDKit          3D

 23 22  0  0  0  0  0  0  0  0999 V2000
    1.2667    0.1595    3.7666 C   0  0  0  0  0  0  0  0  0  0  0  0
    0.4335    0.4412    2.6726 O   0  0  0  0  0  0  0  0  0  0  0  0
   -0.3512   -0.6610    2.2971 C   0  0  0  0  0  0  0  0  0  0  0  0
   -1.2467   -0.2861    1.1448 C   0  0  0  0  0  0  0  0  0  0  0  0
   -0.4717    0.0077    0.0107 O   0  0  0  0  0  0  0  0  0  0  0  0
   -1.2559    0.2964   -1.1187 C   0  0  0  0  0  0  0  0  0  0  0  0
   -0.3696    0.6698   -2.2784 C   0  0  0  0  0  0  0  0  0  0  0  0
    0.4173   -0.4304   -2.6546 O   0  0  0  0  0  0  0  0  0  0  0  0
    1.2471   -0.1474   -3.7508 C   0  0  0  0  0  0  0  0  0  0  0  0
    1.8366    1.0591    3.9970 H   0  0  0  0  0  0  0  0  0  0  0  0
    0.6953   -0.1252    4.6587 H   0  0  0  0  0  0  0  0  0  0  0  0
    1.9738   -0.6506    3.5502 H   0  0  0  0  0  0  0  0  0  0  0  0
    0.2790   -1.5182    2.0175 H   0  0  0  0  0  0  0  0  0  0  0  0
   -0.9890   -0.9957    3.1278 H   0  0  0  0  0  0  0  0  0  0  0  0
   -1.9241   -1.1305    0.9544 H   0  0  0  0  0  0  0  0  0  0  0  0
   -1.8790    0.5704    1.4214 H   0  0  0  0  0  0  0  0  0  0  0  0
   -1.8886   -0.5623   -1.3870 H   0  0  0  0  0  0  0  0  0  0  0  0
   -1.9333    1.1403   -0.9260 H   0  0  0  0  0  0  0  0  0  0  0  0
   -1.0142    0.9987   -3.1061 H   0  0  0  0  0  0  0  0  0  0  0  0
    0.2586    1.5308   -2.0062 H   0  0  0  0  0  0  0  0  0  0  0  0
    1.8192   -1.0455   -3.9817 H   0  0  0  0  0  0  0  0  0  0  0  0
    0.6731    0.1343   -4.6422 H   0  0  0  0  0  0  0  0  0  0  0  0
    1.9522    0.6653   -3.5368 H   0  0  0  0  0  0  0  0  0  0  0  0
  1  2  1  0
  1 10  1  0
  1 11  1  0
  1 12  1  0
  2  3  1  0
  3  4  1  0
  3 13  1  0
  3 14  1  0
  4  5  1  0
  4 15  1  0
  4 16  1  0
  5  6  1  0
  6  7  1  0
  6 17  1  0
  6 18  1  0
  7  8  1  0
  7 19  1  0
  7 20  1  0
  8  9  1  0
  9 21  1  0
  9 22  1  0
  9 23  1  0
M  END
