
     RDKit          3D

 58 62  0  0  0  0  0  0  0  0999 V2000
   -2.7068   -4.0531   -0.4882 O   0  0  0  0  0  0  0  0  0  0  0  0
   -6.3436    4.7296    0.0481 C   0  0  0  0  0  0  0  0  0  0  0  0
   -7.0487    3.8480    0.8589 C   0  0  0  0  0  0  0  0  0  0  0  0
   -5.6697    4.2438   -1.0638 C   0  0  0  0  0  0  0  0  0  0  0  0
   -7.0759    2.4937    0.5577 C   0  0  0  0  0  0  0  0  0  0  0  0
   -5.6996    2.8862   -1.3597 C   0  0  0  0  0  0  0  0  0  0  0  0
    0.9791   -1.9224    1.2676 C   0  0  0  0  0  0  0  0  0  0  0  0
    1.0637   -2.1758   -1.1158 C   0  0  0  0  0  0  0  0  0  0  0  0
   -0.3712   -2.2331    1.2533 C   0  0  0  0  0  0  0  0  0  0  0  0
   -0.2819   -2.5081   -1.1309 C   0  0  0  0  0  0  0  0  0  0  0  0
   -4.0577    0.1015    0.0053 C   0  0  0  0  0  0  0  0  0  0  0  0
   -5.6630   -1.7936   -0.1879 C   0  0  0  0  0  0  0  0  0  0  0  0
   -3.1813   -0.7648    0.9028 C   0  0  0  0  0  0  0  0  0  0  0  0
   -4.7475   -2.6135    0.7104 C   0  0  0  0  0  0  0  0  0  0  0  0
   -6.4144    0.5176   -0.8492 C   0  0  0  0  0  0  0  0  0  0  0  0
    3.2438    0.2975   -0.0649 S   0  0  0  0  0  0  0  0  0  0  0  0
   -2.4418   -2.9706    0.0217 C   0  0  0  0  0  0  0  0  0  0  0  0
    1.7087   -1.8884    0.0834 C   0  0  0  0  0  0  0  0  0  0  0  0
   -6.4000    1.9917   -0.5543 C   0  0  0  0  0  0  0  0  0  0  0  0
   -1.0134   -2.5205    0.0521 C   0  0  0  0  0  0  0  0  0  0  0  0
   -5.5265   -0.2992    0.0949 C   0  0  2  0  0  0  0  0  0  0  0  0
   -3.3649   -2.1757    0.5961 N   0  0  0  0  0  0  0  0  0  0  0  0
    4.9590    0.5470    0.0362 C   0  0  0  0  0  0  0  0  0  0  0  0
    6.8353    1.6701    0.0731 C   0  0  0  0  0  0  0  0  0  0  0  0
    5.4751    1.7992   -0.0420 N   0  0  0  0  0  0  0  0  0  0  0  0
    5.8638   -0.3840    0.1922 N   0  0  0  0  0  0  0  0  0  0  0  0
    7.0552    0.2926    0.2187 C   0  0  0  0  0  0  0  0  0  0  0  0
    9.1333    2.1261    0.2041 N   0  0  0  0  0  0  0  0  0  0  0  0
    7.8919    2.5660    0.0696 C   0  0  0  0  0  0  0  0  0  0  0  0
    8.3652   -0.1555    0.3590 C   0  0  0  0  0  0  0  0  0  0  0  0
    9.3536    0.8130    0.3422 C   0  0  0  0  0  0  0  0  0  0  0  0
   -6.3229    5.7865    0.2809 H   0  0  0  0  0  0  0  0  0  0  0  0
   -7.5811    4.2174    1.7262 H   0  0  0  0  0  0  0  0  0  0  0  0
   -5.1193    4.9211   -1.7044 H   0  0  0  0  0  0  0  0  0  0  0  0
   -7.6356    1.8164    1.1932 H   0  0  0  0  0  0  0  0  0  0  0  0
   -5.1728    2.5180   -2.2326 H   0  0  0  0  0  0  0  0  0  0  0  0
    1.4685   -1.7073    2.2096 H   0  0  0  0  0  0  0  0  0  0  0  0
    1.6205   -2.1501   -2.0447 H   0  0  0  0  0  0  0  0  0  0  0  0
   -0.9224   -2.2594    2.1852 H   0  0  0  0  0  0  0  0  0  0  0  0
   -0.7631   -2.7471   -2.0704 H   0  0  0  0  0  0  0  0  0  0  0  0
   -3.9210    1.1461    0.2939 H   0  0  0  0  0  0  0  0  0  0  0  0
   -3.7134    0.0094   -1.0309 H   0  0  0  0  0  0  0  0  0  0  0  0
   -5.4185   -1.9960   -1.2359 H   0  0  0  0  0  0  0  0  0  0  0  0
   -6.6955   -2.1176   -0.0325 H   0  0  0  0  0  0  0  0  0  0  0  0
   -2.1399   -0.4802    0.7844 H   0  0  0  0  0  0  0  0  0  0  0  0
   -3.4453   -0.5978    1.9518 H   0  0  0  0  0  0  0  0  0  0  0  0
   -5.0508   -2.4937    1.7560 H   0  0  0  0  0  0  0  0  0  0  0  0
   -4.8123   -3.6716    0.4721 H   0  0  0  0  0  0  0  0  0  0  0  0
    3.7009   -1.9702   -0.7338 H   0  0  0  0  0  0  0  0  0  0  0  0
    3.6424   -1.8082    1.0299 H   0  0  0  0  0  0  0  0  0  0  0  0
   -7.4395    0.1426   -0.7726 H   0  0  0  0  0  0  0  0  0  0  0  0
   -6.0936    0.3417   -1.8803 H   0  0  0  0  0  0  0  0  0  0  0  0
   -5.8648   -0.1198    1.1244 H   0  0  0  0  0  0  0  0  0  0  0  0
    4.9596    2.6563   -0.1717 H   0  0  0  0  0  0  0  0  0  0  0  0
    7.7391    3.6341   -0.0398 H   0  0  0  0  0  0  0  0  0  0  0  0
    8.6076   -1.2029    0.4751 H   0  0  0  0  0  0  0  0  0  0  0  0
   10.3910    0.5172    0.4468 H   0  0  0  0  0  0  0  0  0  0  0  0
    3.1610   -1.5194    0.0972 C   0  0  0  0  0  0  0  0  0  0  0  0
  1 17  2  0
  2  3  2  0
  4  2  1  0
  4  6  2  0
  5  3  1  0
  6 19  1  0
  8 18  2  0
  9  7  2  0
 10  8  1  0
 10 20  2  0
 12 21  1  0
 13 11  1  0
 14 12  1  0
 14 22  1  0
 58 16  1  0
 17 20  1  0
 17 22  1  0
 18  7  1  0
 18 58  1  0
 19  5  2  0
 19 15  1  0
 20  9  1  0
 21 11  1  0
 21 15  1  0
 22 13  1  0
 16 23  1  0
 25 23  1  0
 23 26  2  0
 24 25  1  0
 26 27  1  0
 29 24  2  0
 24 27  1  0
 27 30  2  0
 28 29  1  0
 30 31  1  0
 28 31  2  0
  2 32  1  0
  3 33  1  0
  4 34  1  0
  5 35  1  0
  6 36  1  0
  7 37  1  0
  8 38  1  0
  9 39  1  0
 10 40  1  0
 11 41  1  0
 11 42  1  0
 12 43  1  0
 12 44  1  0
 13 45  1  0
 13 46  1  0
 14 47  1  0
 14 48  1  0
 58 49  1  0
 58 50  1  0
 15 51  1  0
 15 52  1  0
 21 53  1  1
 25 54  1  0
 29 55  1  0
 30 56  1  0
 31 57  1  0
M  END
