
     RDKit          3D

 37 39  0  0  0  0  0  0  0  0999 V2000
   -1.3886    0.1008   -5.5205 O   0  0  0  0  0  0  0  0  0  0  0  0
   -1.2837    0.0652   -4.1811 C   0  0  0  0  0  0  0  0  0  0  0  0
   -2.3270   -0.3439   -3.3530 C   0  0  0  0  0  0  0  0  0  0  0  0
   -2.1558   -0.3634   -1.9797 C   0  0  0  0  0  0  0  0  0  0  0  0
   -0.9474    0.0200   -1.3943 C   0  0  0  0  0  0  0  0  0  0  0  0
    0.0841    0.4384   -2.2387 C   0  0  0  0  0  0  0  0  0  0  0  0
   -0.0740    0.4598   -3.6117 C   0  0  0  0  0  0  0  0  0  0  0  0
   -0.7734   -0.0150    0.0547 C   0  0  0  0  0  0  0  0  0  0  0  0
   -1.8234    0.3245    0.8836 N   0  0  0  0  0  0  0  0  0  0  0  0
   -1.4312    0.2020    2.1736 C   0  0  0  0  0  0  0  0  0  0  0  0
   -2.1283    0.4478    3.2620 N   0  0  0  0  0  0  0  0  0  0  0  0
   -0.0879   -0.2522    2.1659 C   0  0  0  0  0  0  0  0  0  0  0  0
    0.5591   -0.4832    3.3029 N   0  0  0  0  0  0  0  0  0  0  0  0
   -0.1385   -0.2426    4.4054 C   0  0  0  0  0  0  0  0  0  0  0  0
   -1.4582    0.2199    4.3880 C   0  0  0  0  0  0  0  0  0  0  0  0
    0.3178   -0.3918    0.8074 C   0  0  0  0  0  0  0  0  0  0  0  0
    1.6520   -0.8772    0.3501 C   0  0  0  0  0  0  0  0  0  0  0  0
    2.7435    0.1917    0.4336 C   0  0  0  0  0  0  0  0  0  0  0  0
    4.0910   -0.2986   -0.0786 C   0  0  0  0  0  0  0  0  0  0  0  0
    5.1722    0.7704   -0.0074 C   0  0  0  0  0  0  0  0  0  0  0  0
   -2.2624   -0.1940   -5.8006 H   0  0  0  0  0  0  0  0  0  0  0  0
   -3.2729   -0.6582   -3.7789 H   0  0  0  0  0  0  0  0  0  0  0  0
   -2.9778   -0.7063   -1.3633 H   0  0  0  0  0  0  0  0  0  0  0  0
    1.0221    0.7799   -1.8214 H   0  0  0  0  0  0  0  0  0  0  0  0
    0.7372    0.7937   -4.2463 H   0  0  0  0  0  0  0  0  0  0  0  0
   -2.7024    0.7118    0.5785 H   0  0  0  0  0  0  0  0  0  0  0  0
    0.3532   -0.4177    5.3549 H   0  0  0  0  0  0  0  0  0  0  0  0
   -1.9777    0.4050    5.3200 H   0  0  0  0  0  0  0  0  0  0  0  0
    1.5822   -1.2523   -0.6748 H   0  0  0  0  0  0  0  0  0  0  0  0
    1.9508   -1.7328    0.9638 H   0  0  0  0  0  0  0  0  0  0  0  0
    2.8408    0.5236    1.4718 H   0  0  0  0  0  0  0  0  0  0  0  0
    2.4346    1.0742   -0.1364 H   0  0  0  0  0  0  0  0  0  0  0  0
    3.9815   -0.6380   -1.1135 H   0  0  0  0  0  0  0  0  0  0  0  0
    4.4007   -1.1768    0.4965 H   0  0  0  0  0  0  0  0  0  0  0  0
    6.1213    0.4077   -0.4031 H   0  0  0  0  0  0  0  0  0  0  0  0
    4.8894    1.6529   -0.5846 H   0  0  0  0  0  0  0  0  0  0  0  0
    5.3449    1.0923    1.0210 H   0  0  0  0  0  0  0  0  0  0  0  0
  1  2  1  0
  1 21  1  0
  2  3  2  0
  2  7  1  0
  3  4  1  0
  3 22  1  0
  4  5  2  0
  4 23  1  0
  5  6  1  0
  5  8  1  0
  6  7  2  0
  6 24  1  0
  7 25  1  0
  8  9  1  0
  8 16  2  0
  9 10  1  0
  9 26  1  0
 10 11  2  0
 10 12  1  0
 11 15  1  0
 12 13  2  0
 12 16  1  0
 13 14  1  0
 14 15  2  0
 14 27  1  0
 15 28  1  0
 16 17  1  0
 17 18  1  0
 17 29  1  0
 17 30  1  0
 18 19  1  0
 18 31  1  0
 18 32  1  0
 19 20  1  0
 19 33  1  0
 19 34  1  0
 20 35  1  0
 20 36  1  0
 20 37  1  0
M  END
