
     RDKit          3D

 44 45  0  0  0  0  0  0  0  0999 V2000
   -6.6041   -1.4981   -0.3793 Br  0  0  0  0  0  0  0  0  0  0  0  0
   -4.7746   -1.0274   -0.4099 C   0  0  0  0  0  0  0  0  0  0  0  0
   -3.8172   -1.9970   -0.6658 C   0  0  0  0  0  0  0  0  0  0  0  0
   -2.4791   -1.6428   -0.6761 C   0  0  0  0  0  0  0  0  0  0  0  0
   -4.3969    0.2865   -0.1817 C   0  0  0  0  0  0  0  0  0  0  0  0
   -3.0562    0.6401   -0.2046 C   0  0  0  0  0  0  0  0  0  0  0  0
   -2.0766   -0.3258   -0.4434 C   0  0  0  0  0  0  0  0  0  0  0  0
   -0.7161   -0.0415   -0.5167 N   0  0  0  0  0  0  0  0  0  0  0  0
   -0.0484    0.9476    0.1766 C   0  0  0  0  0  0  0  0  0  0  0  0
   -0.6156    1.7093    0.9434 O   0  0  0  0  0  0  0  0  0  0  0  0
    1.2822    0.9590   -0.0806 N   0  0  0  0  0  0  0  0  0  0  0  0
    2.2367    1.9546    0.4225 C   0  0  1  0  0  0  0  0  0  0  0  0
    1.8988    3.3427   -0.1244 C   0  0  0  0  0  0  0  0  0  0  0  0
    2.2452    1.9978    1.9571 C   0  0  0  0  0  0  0  0  0  0  0  0
    3.6132    1.4683   -0.0328 C   0  0  0  0  0  0  0  0  0  0  0  0
    4.0052    0.1706    0.2810 C   0  0  0  0  0  0  0  0  0  0  0  0
    5.2544   -0.3311   -0.0838 C   0  0  0  0  0  0  0  0  0  0  0  0
    5.6569   -1.7114    0.2739 C   0  0  0  0  0  0  0  0  0  0  0  0
    4.9783   -2.2611    1.2021 N   0  0  0  0  0  0  0  0  0  0  0  0
    5.3701   -3.5273    1.5143 O   0  0  0  0  0  0  0  0  0  0  0  0
    6.8081   -2.3410   -0.4495 C   0  0  0  0  0  0  0  0  0  0  0  0
    6.1269    0.5010   -0.7853 C   0  0  0  0  0  0  0  0  0  0  0  0
    5.7507    1.7970   -1.0980 C   0  0  0  0  0  0  0  0  0  0  0  0
    4.5037    2.2811   -0.7284 C   0  0  0  0  0  0  0  0  0  0  0  0
   -4.0951   -3.0262   -0.8490 H   0  0  0  0  0  0  0  0  0  0  0  0
   -1.7354   -2.4078   -0.8643 H   0  0  0  0  0  0  0  0  0  0  0  0
   -5.1370    1.0533    0.0046 H   0  0  0  0  0  0  0  0  0  0  0  0
   -2.7913    1.6729   -0.0451 H   0  0  0  0  0  0  0  0  0  0  0  0
   -0.1554   -0.7531   -0.9596 H   0  0  0  0  0  0  0  0  0  0  0  0
    1.6023    0.4161   -0.8678 H   0  0  0  0  0  0  0  0  0  0  0  0
    1.9317    3.3646   -1.2144 H   0  0  0  0  0  0  0  0  0  0  0  0
    0.8988    3.6324    0.1914 H   0  0  0  0  0  0  0  0  0  0  0  0
    2.5913    4.0944    0.2560 H   0  0  0  0  0  0  0  0  0  0  0  0
    3.0422    2.6615    2.2941 H   0  0  0  0  0  0  0  0  0  0  0  0
    1.3044    2.3700    2.3551 H   0  0  0  0  0  0  0  0  0  0  0  0
    2.4308    1.0100    2.3790 H   0  0  0  0  0  0  0  0  0  0  0  0
    3.3232   -0.4763    0.8180 H   0  0  0  0  0  0  0  0  0  0  0  0
    4.7597   -3.7933    2.2098 H   0  0  0  0  0  0  0  0  0  0  0  0
    7.7548   -1.9176   -0.1076 H   0  0  0  0  0  0  0  0  0  0  0  0
    6.8550   -3.4156   -0.2997 H   0  0  0  0  0  0  0  0  0  0  0  0
    6.7393   -2.1491   -1.5198 H   0  0  0  0  0  0  0  0  0  0  0  0
    7.1054    0.1504   -1.0852 H   0  0  0  0  0  0  0  0  0  0  0  0
    6.4345    2.4369   -1.6400 H   0  0  0  0  0  0  0  0  0  0  0  0
    4.2389    3.2940   -0.9964 H   0  0  0  0  0  0  0  0  0  0  0  0
 13 12  1  0
 12 15  1  0
 12 14  1  0
 12 11  1  1
 24 15  1  0
 24 23  2  0
 15 16  2  0
 23 22  1  0
 11  9  1  0
 16 17  1  0
 22 17  2  0
 17 18  1  0
 21 18  1  0
 18 19  2  0
  9  8  1  0
  9 10  2  0
 19 20  1  0
  8  7  1  0
  7  6  2  0
  7  4  1  0
  6  5  1  0
  4  3  2  0
  5  2  2  0
  3  2  1  0
  2  1  1  0
  3 25  1  0
  4 26  1  0
  5 27  1  0
  6 28  1  0
  8 29  1  0
 11 30  1  0
 13 31  1  0
 13 32  1  0
 13 33  1  0
 14 34  1  0
 14 35  1  0
 14 36  1  0
 16 37  1  0
 20 38  1  0
 21 39  1  0
 21 40  1  0
 21 41  1  0
 22 42  1  0
 23 43  1  0
 24 44  1  0
M  END
