
     RDKit          3D

 28 28  0  0  0  0  0  0  0  0999 V2000
    0.9877    0.1135    1.6818 N   0  0  0  0  0  0  0  0  0  0  0  0
    2.2907    0.6854    1.4129 C   0  0  2  0  0  0  0  0  0  0  0  0
    2.9909    0.1340    0.1661 C   0  0  0  0  0  0  0  0  0  0  0  0
    2.7699   -1.0083   -0.2505 O   0  0  0  0  0  0  0  0  0  0  0  0
    3.2525    0.5649    2.6062 C   0  0  0  0  0  0  0  0  0  0  0  0
    3.5045   -0.8706    3.0261 C   0  0  0  0  0  0  0  0  0  0  0  0
    4.6724   -0.9723    3.9442 C   0  0  0  0  0  0  0  0  0  0  0  0
    5.8525   -1.5975    3.5267 C   0  0  0  0  0  0  0  0  0  0  0  0
    4.5934   -0.4547    5.2432 C   0  0  0  0  0  0  0  0  0  0  0  0
    6.9385   -1.7004    4.3952 C   0  0  0  0  0  0  0  0  0  0  0  0
    5.6802   -0.5578    6.1088 C   0  0  0  0  0  0  0  0  0  0  0  0
    6.8550   -1.1805    5.6863 C   0  0  0  0  0  0  0  0  0  0  0  0
    3.9284    1.0702   -0.5211 C   0  0  0  0  0  0  0  0  0  0  0  0
    1.0764   -0.8487    1.9495 H   0  0  0  0  0  0  0  0  0  0  0  0
    0.4175    0.1630    0.8592 H   0  0  0  0  0  0  0  0  0  0  0  0
    2.1224    1.7913    1.2293 H   0  0  0  0  0  0  0  0  0  0  0  0
    4.2209    1.0534    2.3209 H   0  0  0  0  0  0  0  0  0  0  0  0
    2.8279    1.1372    3.4726 H   0  0  0  0  0  0  0  0  0  0  0  0
    2.5971   -1.2767    3.5507 H   0  0  0  0  0  0  0  0  0  0  0  0
    3.6716   -1.5044    2.1127 H   0  0  0  0  0  0  0  0  0  0  0  0
    5.9225   -2.0133    2.5103 H   0  0  0  0  0  0  0  0  0  0  0  0
    3.6657    0.0335    5.5776 H   0  0  0  0  0  0  0  0  0  0  0  0
    7.8621   -2.1947    4.0599 H   0  0  0  0  0  0  0  0  0  0  0  0
    5.6102   -0.1492    7.1275 H   0  0  0  0  0  0  0  0  0  0  0  0
    7.7118   -1.2626    6.3703 H   0  0  0  0  0  0  0  0  0  0  0  0
    4.6233    1.5372    0.2183 H   0  0  0  0  0  0  0  0  0  0  0  0
    3.3405    1.8808   -1.0187 H   0  0  0  0  0  0  0  0  0  0  0  0
    4.5276    0.5344   -1.2970 H   0  0  0  0  0  0  0  0  0  0  0  0
  1  2  1  0
  1 14  1  0
  1 15  1  0
  2  3  1  0
  2  5  1  0
  2 16  1  6
  3  4  2  0
  3 13  1  0
  5  6  1  0
  5 17  1  0
  5 18  1  0
  6  7  1  0
  6 19  1  0
  6 20  1  0
  7  8  2  0
  7  9  1  0
  8 10  1  0
  8 21  1  0
  9 11  2  0
  9 22  1  0
 10 12  2  0
 10 23  1  0
 11 12  1  0
 11 24  1  0
 12 25  1  0
 13 26  1  0
 13 27  1  0
 13 28  1  0
M  END
