
     RDKit          3D

 44 46  0  0  0  0  0  0  0  0999 V2000
   -6.2785   -0.1369    0.4655 Cl  0  0  0  0  0  0  0  0  0  0  0  0
   -4.5820   -0.1945    0.1289 C   0  0  0  0  0  0  0  0  0  0  0  0
   -0.4979   -0.3112   -0.7346 N   0  0  0  0  0  0  0  0  0  0  0  0
    0.4440    0.5817   -0.3002 C   0  0  0  0  0  0  0  0  0  0  0  0
   -1.6763    2.4467   -1.4212 O   0  0  0  0  0  0  0  0  0  0  0  0
   -1.7305    3.2153    0.6972 N   0  0  0  0  0  0  0  0  0  0  0  0
    1.7913    0.1487   -0.1337 C   0  0  0  0  0  0  0  0  0  0  0  0
    3.5143   -1.5543   -0.2326 C   0  0  0  0  0  0  0  0  0  0  0  0
    4.0030   -2.7839   -0.4409 O   0  0  0  0  0  0  0  0  0  0  0  0
    3.1103   -3.7926   -0.8728 C   0  0  0  0  0  0  0  0  0  0  0  0
    4.4867   -0.5872    0.1813 C   0  0  0  0  0  0  0  0  0  0  0  0
    6.7509   -0.1612    0.6962 C   0  0  0  0  0  0  0  0  0  0  0  0
   -1.8558   -0.2696   -0.4251 C   0  0  0  0  0  0  0  0  0  0  0  0
    0.1477    1.9063    0.0043 C   0  0  0  0  0  0  0  0  0  0  0  0
   -3.0174    3.8555    0.5715 C   0  0  0  0  0  0  0  0  0  0  0  0
    2.7443    1.0930    0.3039 C   0  0  0  0  0  0  0  0  0  0  0  0
    2.4305    2.3712    0.6125 N   0  0  0  0  0  0  0  0  0  0  0  0
    1.1828    2.7332    0.4712 C   0  0  0  0  0  0  0  0  0  0  0  0
    2.2053   -1.1854   -0.3744 C   0  0  0  0  0  0  0  0  0  0  0  0
    4.0950    0.6956    0.4478 C   0  0  0  0  0  0  0  0  0  0  0  0
    5.7345   -1.0549    0.2808 O   0  0  0  0  0  0  0  0  0  0  0  0
   -3.6707    0.0510    1.1424 C   0  0  0  0  0  0  0  0  0  0  0  0
   -2.3148   -0.0028    0.8605 C   0  0  0  0  0  0  0  0  0  0  0  0
   -4.1605   -0.4934   -1.1581 C   0  0  0  0  0  0  0  0  0  0  0  0
   -2.8067   -0.5114   -1.4097 C   0  0  0  0  0  0  0  0  0  0  0  0
   -2.3833   -0.7780   -2.6511 F   0  0  0  0  0  0  0  0  0  0  0  0
   -4.0059    0.2690    2.1467 H   0  0  0  0  0  0  0  0  0  0  0  0
   -4.8650   -0.6851   -1.9563 H   0  0  0  0  0  0  0  0  0  0  0  0
   -0.1858   -1.0796   -1.3057 H   0  0  0  0  0  0  0  0  0  0  0  0
   -1.3199    3.1521    1.6141 H   0  0  0  0  0  0  0  0  0  0  0  0
   -3.0397    4.5291   -0.2836 H   0  0  0  0  0  0  0  0  0  0  0  0
   -3.8202    3.1239    0.4566 H   0  0  0  0  0  0  0  0  0  0  0  0
   -3.2037    4.4353    1.4709 H   0  0  0  0  0  0  0  0  0  0  0  0
    1.4752   -1.9318   -0.6550 H   0  0  0  0  0  0  0  0  0  0  0  0
    2.6397   -3.5352   -1.8251 H   0  0  0  0  0  0  0  0  0  0  0  0
    3.7032   -4.6940   -1.0035 H   0  0  0  0  0  0  0  0  0  0  0  0
    2.3298   -3.9872   -0.1328 H   0  0  0  0  0  0  0  0  0  0  0  0
    4.7996    1.4482    0.7756 H   0  0  0  0  0  0  0  0  0  0  0  0
    7.6763   -0.7310    0.7052 H   0  0  0  0  0  0  0  0  0  0  0  0
    6.8567    0.6791    0.0062 H   0  0  0  0  0  0  0  0  0  0  0  0
    6.5629    0.2261    1.7004 H   0  0  0  0  0  0  0  0  0  0  0  0
   -1.6012    0.1590    1.6577 H   0  0  0  0  0  0  0  0  0  0  0  0
    0.9543    3.7693    0.7030 H   0  0  0  0  0  0  0  0  0  0  0  0
   -1.1728    2.5299   -0.3096 C   0  0  0  0  0  0  0  0  0  0  0  0
  1  2  1  0
  2 22  2  0
  2 24  1  0
  3  4  1  0
  3 13  1  0
  4  7  1  0
  4 14  2  0
 44  5  2  0
 44  6  1  0
 44 14  1  0
  6 15  1  0
  7 16  1  0
  7 19  2  0
  8  9  1  0
  8 11  2  0
  8 19  1  0
  9 10  1  0
 11 20  1  0
 11 21  1  0
 12 21  1  0
 13 23  2  0
 13 25  1  0
 14 18  1  0
 16 17  1  0
 16 20  2  0
 17 18  2  0
 22 23  1  0
 24 25  2  0
 25 26  1  0
 22 27  1  0
 24 28  1  0
  3 29  1  0
  6 30  1  0
 15 31  1  0
 15 32  1  0
 15 33  1  0
 19 34  1  0
 10 35  1  0
 10 36  1  0
 10 37  1  0
 20 38  1  0
 12 39  1  0
 12 40  1  0
 12 41  1  0
 23 42  1  0
 18 43  1  0
M  END
