
     RDKit          3D

 24 25  0  0  0  0  0  0  0  0999 V2000
    1.2888    2.5247   -0.2763 C   0  0  0  0  0  0  0  0  0  0  0  0
    1.6016    1.0801   -0.1290 C   0  0  0  0  0  0  0  0  0  0  0  0
    2.8356    0.6756   -0.1079 N   0  0  0  0  0  0  0  0  0  0  0  0
    2.7965   -0.6832    0.0128 O   0  0  0  0  0  0  0  0  0  0  0  0
    0.7015   -0.0233   -0.0261 C   0  0  0  0  0  0  0  0  0  0  0  0
    1.5295   -1.0996    0.0575 C   0  0  0  0  0  0  0  0  0  0  0  0
    1.2916   -2.5539    0.1952 C   0  0  0  0  0  0  0  0  0  0  0  0
   -0.7633   -0.0029   -0.0173 C   0  0  0  0  0  0  0  0  0  0  0  0
   -1.4927   -0.8613   -0.8418 C   0  0  0  0  0  0  0  0  0  0  0  0
   -2.8800   -0.8610   -0.8140 C   0  0  0  0  0  0  0  0  0  0  0  0
   -3.5610    0.0054    0.0306 C   0  0  0  0  0  0  0  0  0  0  0  0
   -2.8454    0.8711    0.8479 C   0  0  0  0  0  0  0  0  0  0  0  0
   -1.4584    0.8655    0.8260 C   0  0  0  0  0  0  0  0  0  0  0  0
    0.5185    2.6781   -1.0318 H   0  0  0  0  0  0  0  0  0  0  0  0
    0.9157    2.9464    0.6575 H   0  0  0  0  0  0  0  0  0  0  0  0
    2.1764    3.0839   -0.5655 H   0  0  0  0  0  0  0  0  0  0  0  0
    1.9257   -2.9821    0.9715 H   0  0  0  0  0  0  0  0  0  0  0  0
    0.2534   -2.7438    0.4574 H   0  0  0  0  0  0  0  0  0  0  0  0
    1.5056   -3.0802   -0.7366 H   0  0  0  0  0  0  0  0  0  0  0  0
   -0.9722   -1.5254   -1.5213 H   0  0  0  0  0  0  0  0  0  0  0  0
   -0.9122    1.5292    1.4851 H   0  0  0  0  0  0  0  0  0  0  0  0
   -3.4297   -1.5343   -1.4588 H   0  0  0  0  0  0  0  0  0  0  0  0
   -4.6431    0.0068    0.0519 H   0  0  0  0  0  0  0  0  0  0  0  0
   -3.3688    1.5470    1.5116 H   0  0  0  0  0  0  0  0  0  0  0  0
  1  2  1  0
  2  3  2  0
  2  5  1  0
  3  4  1  0
  4  6  1  0
  5  6  2  0
  5  8  1  0
  6  7  1  0
  8  9  2  0
  8 13  1  0
  9 10  1  0
 10 11  2  0
 11 12  1  0
 12 13  2  0
  1 14  1  0
  1 15  1  0
  1 16  1  0
  7 17  1  0
  7 18  1  0
  7 19  1  0
  9 20  1  0
 13 21  1  0
 10 22  1  0
 11 23  1  0
 12 24  1  0
M  END
