
     RDKit          3D

 71 72  0  0  0  0  0  0  0  0999 V2000
    0.9342    2.2248    2.5265 N   0  0  0  0  0  0  0  0  0  0  0  0
    1.4453    1.1931    1.6408 C   0  0  1  0  0  0  0  0  0  0  0  0
    0.4311    0.8598    0.5239 C   0  0  0  0  0  0  0  0  0  0  0  0
   -0.6611    1.4681    0.3926 O   0  0  0  0  0  0  0  0  0  0  0  0
    2.8085    1.5169    0.9960 C   0  0  0  0  0  0  0  0  0  0  0  0
    3.7866    2.0201    1.9981 C   0  0  0  0  0  0  0  0  0  0  0  0
    4.2127    1.1936    3.0455 C   0  0  0  0  0  0  0  0  0  0  0  0
    4.3165    3.3100    1.8819 C   0  0  0  0  0  0  0  0  0  0  0  0
    5.1516    1.6539    3.9663 C   0  0  0  0  0  0  0  0  0  0  0  0
    5.2569    3.7681    2.8043 C   0  0  0  0  0  0  0  0  0  0  0  0
    5.6746    2.9423    3.8477 C   0  0  0  0  0  0  0  0  0  0  0  0
    0.7534   -0.1625   -0.3283 N   0  0  0  0  0  0  0  0  0  0  0  0
   -0.0615   -0.5094   -1.4678 C   0  0  2  0  0  0  0  0  0  0  0  0
   -1.2959   -1.3473   -1.0392 C   0  0  0  0  0  0  0  0  0  0  0  0
   -1.1648   -2.3766   -0.3492 O   0  0  0  0  0  0  0  0  0  0  0  0
    0.6945   -1.3562   -2.5096 C   0  0  0  0  0  0  0  0  0  0  0  0
    1.9533   -0.7040   -2.9550 C   0  0  0  0  0  0  0  0  0  0  0  0
    3.1853   -1.1306   -2.4454 C   0  0  0  0  0  0  0  0  0  0  0  0
    1.9198    0.3250   -3.9034 C   0  0  0  0  0  0  0  0  0  0  0  0
    4.3683   -0.5340   -2.8792 C   0  0  0  0  0  0  0  0  0  0  0  0
    3.1039    0.9209   -4.3342 C   0  0  0  0  0  0  0  0  0  0  0  0
    4.3293    0.4930   -3.8224 C   0  0  0  0  0  0  0  0  0  0  0  0
   -2.5274   -0.9120   -1.4721 N   0  0  0  0  0  0  0  0  0  0  0  0
   -3.7572   -1.6062   -1.1659 C   0  0  2  0  0  0  0  0  0  0  0  0
   -4.7332   -1.6262   -2.3834 C   0  0  2  0  0  0  0  0  0  0  0  0
   -5.9386   -2.2520   -1.9899 O   0  0  0  0  0  0  0  0  0  0  0  0
   -4.4964   -0.9928    0.0394 C   0  0  0  0  0  0  0  0  0  0  0  0
   -3.8633   -1.4090    1.3503 C   0  0  0  0  0  0  0  0  0  0  0  0
   -3.9149   -0.3104    2.4099 C   0  0  0  0  0  0  0  0  0  0  0  0
   -3.0044    0.7787    2.1260 N   0  0  0  0  0  0  0  0  0  0  0  0
   -2.8302    1.8569    2.9594 C   0  0  0  0  0  0  0  0  0  0  0  0
   -3.4638    1.9120    4.1858 N   0  0  0  0  0  0  0  0  0  0  0  0
   -2.0524    2.9241    2.5462 N   0  0  0  0  0  0  0  0  0  0  0  0
   -4.0910   -2.3179   -3.5785 C   0  0  0  0  0  0  0  0  0  0  0  0
   -5.0919   -2.2227   -5.0067 Cl  0  0  0  0  0  0  0  0  0  0  0  0
    1.5599    2.3179    3.3071 H   0  0  0  0  0  0  0  0  0  0  0  0
    0.8978    3.1020    2.0404 H   0  0  0  0  0  0  0  0  0  0  0  0
    1.5624    0.2564    2.2687 H   0  0  0  0  0  0  0  0  0  0  0  0
    3.2286    0.5883    0.5246 H   0  0  0  0  0  0  0  0  0  0  0  0
    2.6645    2.2737    0.1794 H   0  0  0  0  0  0  0  0  0  0  0  0
    3.8142    0.1720    3.1339 H   0  0  0  0  0  0  0  0  0  0  0  0
    4.0022    3.9625    1.0532 H   0  0  0  0  0  0  0  0  0  0  0  0
    5.4866    0.9970    4.7835 H   0  0  0  0  0  0  0  0  0  0  0  0
    5.6746    4.7815    2.7030 H   0  0  0  0  0  0  0  0  0  0  0  0
    6.4205    3.3031    4.5722 H   0  0  0  0  0  0  0  0  0  0  0  0
    1.5995   -0.6726   -0.2085 H   0  0  0  0  0  0  0  0  0  0  0  0
   -0.3935    0.4586   -1.9535 H   0  0  0  0  0  0  0  0  0  0  0  0
    0.9080   -2.3716   -2.0771 H   0  0  0  0  0  0  0  0  0  0  0  0
    0.0061   -1.5000   -3.3855 H   0  0  0  0  0  0  0  0  0  0  0  0
    3.2233   -1.9543   -1.7164 H   0  0  0  0  0  0  0  0  0  0  0  0
    0.9563    0.6569   -4.3179 H   0  0  0  0  0  0  0  0  0  0  0  0
    5.3348   -0.8812   -2.4832 H   0  0  0  0  0  0  0  0  0  0  0  0
    3.0715    1.7245   -5.0856 H   0  0  0  0  0  0  0  0  0  0  0  0
    5.2642    0.9591   -4.1688 H   0  0  0  0  0  0  0  0  0  0  0  0
   -2.5992   -0.0606   -1.9760 H   0  0  0  0  0  0  0  0  0  0  0  0
   -3.4980   -2.6793   -0.9119 H   0  0  0  0  0  0  0  0  0  0  0  0
   -4.5278    0.1227   -0.0639 H   0  0  0  0  0  0  0  0  0  0  0  0
   -5.5631   -1.3474    0.0116 H   0  0  0  0  0  0  0  0  0  0  0  0
   -4.4197   -2.2900    1.7716 H   0  0  0  0  0  0  0  0  0  0  0  0
   -2.8015   -1.7473    1.1948 H   0  0  0  0  0  0  0  0  0  0  0  0
   -4.9666    0.0947    2.4758 H   0  0  0  0  0  0  0  0  0  0  0  0
   -3.6414   -0.7686    3.4058 H   0  0  0  0  0  0  0  0  0  0  0  0
   -2.4782    0.7368    1.2688 H   0  0  0  0  0  0  0  0  0  0  0  0
   -4.1277    1.2196    4.4435 H   0  0  0  0  0  0  0  0  0  0  0  0
   -3.3798    2.7190    4.7589 H   0  0  0  0  0  0  0  0  0  0  0  0
   -1.7038    3.5553    3.2328 H   0  0  0  0  0  0  0  0  0  0  0  0
   -1.4906    2.8137    1.7192 H   0  0  0  0  0  0  0  0  0  0  0  0
   -3.1195   -1.8396   -3.8465 H   0  0  0  0  0  0  0  0  0  0  0  0
   -3.9262   -3.4023   -3.3643 H   0  0  0  0  0  0  0  0  0  0  0  0
   -5.0435   -0.5743   -2.6452 H   0  0  0  0  0  0  0  0  0  0  0  0
   -5.7967   -3.2075   -1.9926 H   0  0  0  0  0  0  0  0  0  0  0  0
  1  2  1  0
  1 36  1  0
  1 37  1  0
  2  3  1  0
  2  5  1  0
  2 38  1  1
  3  4  2  0
  3 12  1  0
  5  6  1  0
  5 39  1  0
  5 40  1  0
  6  7  2  0
  6  8  1  0
  7  9  1  0
  7 41  1  0
  8 10  2  0
  8 42  1  0
  9 11  2  0
  9 43  1  0
 10 11  1  0
 10 44  1  0
 11 45  1  0
 12 13  1  0
 12 46  1  0
 13 14  1  0
 13 16  1  0
 13 47  1  6
 14 15  2  0
 14 23  1  0
 16 17  1  0
 16 48  1  0
 16 49  1  0
 17 18  2  0
 17 19  1  0
 18 20  1  0
 18 50  1  0
 19 21  2  0
 19 51  1  0
 20 22  2  0
 20 52  1  0
 21 22  1  0
 21 53  1  0
 22 54  1  0
 23 24  1  0
 23 55  1  0
 24 25  1  0
 24 27  1  0
 24 56  1  1
 25 26  1  0
 25 34  1  0
 27 28  1  0
 27 57  1  0
 27 58  1  0
 28 29  1  0
 28 59  1  0
 28 60  1  0
 29 30  1  0
 29 61  1  0
 29 62  1  0
 30 31  1  0
 30 63  1  0
 31 32  1  0
 31 33  2  0
 32 64  1  0
 32 65  1  0
 33 66  1  0
 33 67  1  0
 34 68  1  0
 34 69  1  0
 34 35  1  0
 25 70  1  6
 26 71  1  0
M  CHG  1  33   1
M  END
