
     RDKit          3D

 31 31  0  0  0  0  0  0  0  0999 V2000
    3.5991   -0.5420   -0.3284 C   0  0  0  0  0  0  0  0  0  0  0  0
    2.7176    0.6309    0.0746 C   0  0  1  0  0  0  0  0  0  0  0  0
    3.2301    1.3989    1.2966 C   0  0  0  0  0  0  0  0  0  0  0  0
    2.6648    1.5758   -1.1336 C   0  0  0  0  0  0  0  0  0  0  0  0
    1.3751   -0.0006    0.4622 C   0  0  0  0  0  0  0  0  0  0  0  0
   -1.0504   -0.0269    0.1949 C   0  0  0  0  0  0  0  0  0  0  0  0
   -2.1080    0.7546   -0.5762 C   0  0  0  0  0  0  0  0  0  0  0  0
   -3.4810    0.2550   -0.2821 C   0  0  0  0  0  0  0  0  0  0  0  0
   -4.4655    0.8623    0.4472 C   0  0  0  0  0  0  0  0  0  0  0  0
   -5.1407   -1.0898   -0.2699 C   0  0  0  0  0  0  0  0  0  0  0  0
    0.2751    0.4571   -0.1379 N   0  0  0  0  0  0  0  0  0  0  0  0
   -5.5146   -0.0108    0.4419 N   0  0  0  0  0  0  0  0  0  0  0  0
   -3.9187   -0.9654   -0.7226 N   0  0  0  0  0  0  0  0  0  0  0  0
    3.2297   -1.4001   -1.0914 O   0  0  0  0  0  0  0  0  0  0  0  0
    1.3470   -0.8684    1.3252 O   0  0  0  0  0  0  0  0  0  0  0  0
    4.1887    1.8715    1.0876 H   0  0  0  0  0  0  0  0  0  0  0  0
    2.5246    2.1921    1.5482 H   0  0  0  0  0  0  0  0  0  0  0  0
    3.3426    0.7582    2.1691 H   0  0  0  0  0  0  0  0  0  0  0  0
    2.2400    1.1031   -2.0193 H   0  0  0  0  0  0  0  0  0  0  0  0
    2.0848    2.4688   -0.8956 H   0  0  0  0  0  0  0  0  0  0  0  0
    3.6695    1.9129   -1.3893 H   0  0  0  0  0  0  0  0  0  0  0  0
   -1.2222    0.0805    1.2684 H   0  0  0  0  0  0  0  0  0  0  0  0
   -1.1328   -1.0909   -0.0399 H   0  0  0  0  0  0  0  0  0  0  0  0
   -2.0402    1.8142   -0.3190 H   0  0  0  0  0  0  0  0  0  0  0  0
   -1.9086    0.6728   -1.6492 H   0  0  0  0  0  0  0  0  0  0  0  0
   -4.5043    1.8129    0.9520 H   0  0  0  0  0  0  0  0  0  0  0  0
   -5.7956   -1.9322   -0.4316 H   0  0  0  0  0  0  0  0  0  0  0  0
    0.3533    1.1592   -0.8545 H   0  0  0  0  0  0  0  0  0  0  0  0
   -6.4068    0.1269    0.8892 H   0  0  0  0  0  0  0  0  0  0  0  0
    4.8157   -0.5006    0.1867 O   0  0  0  0  0  0  0  0  0  0  0  0
    5.3417   -1.2416   -0.1513 H   0  0  0  0  0  0  0  0  0  0  0  0
 15  5  2  0
  7  8  1  0
  7  6  1  0
  9  8  2  0
  9 12  1  0
 14  1  2  0
  8 13  1  0
 12 10  1  0
  2  1  1  6
  5 11  1  0
  5  2  1  0
 13 10  2  0
  6 11  1  0
  2  3  1  0
  2  4  1  0
  3 16  1  0
  3 17  1  0
  3 18  1  0
  4 19  1  0
  4 20  1  0
  4 21  1  0
  6 22  1  0
  6 23  1  0
  7 24  1  0
  7 25  1  0
  9 26  1  0
 10 27  1  0
 11 28  1  0
 12 29  1  0
  1 30  1  0
 30 31  1  0
M  END
