
     RDKit          3D

 43 45  0  0  0  0  0  0  0  0999 V2000
    4.0228    1.9163   -0.8449 C   0  0  0  0  0  0  0  0  0  0  0  0
    4.2796    0.4562   -0.4587 C   0  0  1  0  0  0  0  0  0  0  0  0
    5.4400    0.4569    0.5486 C   0  0  0  0  0  0  0  0  0  0  0  0
    3.0375   -0.1844    0.1666 C   0  0  0  0  0  0  0  0  0  0  0  0
    1.8681    0.5421    0.3543 C   0  0  0  0  0  0  0  0  0  0  0  0
    0.7056    0.0036    0.9062 C   0  0  0  0  0  0  0  0  0  0  0  0
   -0.4565    0.9133    1.1117 C   0  0  0  0  0  0  0  0  0  0  0  0
   -0.2840    2.0499    1.5399 O   0  0  0  0  0  0  0  0  0  0  0  0
   -1.6887    0.4572    0.8143 N   0  0  0  0  0  0  0  0  0  0  0  0
   -2.8387    1.3439    0.9800 C   0  0  0  0  0  0  0  0  0  0  0  0
   -3.9014    0.6609    0.1811 C   0  0  0  0  0  0  0  0  0  0  0  0
   -5.2084    1.0660   -0.0382 C   0  0  0  0  0  0  0  0  0  0  0  0
   -6.0259    0.2759   -0.8368 C   0  0  0  0  0  0  0  0  0  0  0  0
   -5.5379   -0.8999   -1.4016 C   0  0  0  0  0  0  0  0  0  0  0  0
   -4.2288   -1.3057   -1.1706 C   0  0  0  0  0  0  0  0  0  0  0  0
   -3.4184   -0.5112   -0.3752 C   0  0  0  0  0  0  0  0  0  0  0  0
   -1.9991   -0.7465    0.0398 C   0  0  0  0  0  0  0  0  0  0  0  0
    0.7224   -1.3162    1.3334 C   0  0  0  0  0  0  0  0  0  0  0  0
    1.8736   -2.0674    1.1865 C   0  0  0  0  0  0  0  0  0  0  0  0
    4.6820   -0.2819   -1.7449 C   0  0  0  0  0  0  0  0  0  0  0  0
    3.0154   -1.5245    0.6019 C   0  0  0  0  0  0  0  0  0  0  0  0
    4.1185   -2.2802    0.4526 O   0  0  0  0  0  0  0  0  0  0  0  0
    4.9293    2.3349   -1.2838 H   0  0  0  0  0  0  0  0  0  0  0  0
    3.2272    2.0174   -1.5859 H   0  0  0  0  0  0  0  0  0  0  0  0
    3.7670    2.5355    0.0168 H   0  0  0  0  0  0  0  0  0  0  0  0
    5.1697    1.0205    1.4437 H   0  0  0  0  0  0  0  0  0  0  0  0
    5.7363   -0.5431    0.8555 H   0  0  0  0  0  0  0  0  0  0  0  0
    6.3148    0.9387    0.1070 H   0  0  0  0  0  0  0  0  0  0  0  0
    5.5219    0.2327   -2.2171 H   0  0  0  0  0  0  0  0  0  0  0  0
    4.9871   -1.3104   -1.5676 H   0  0  0  0  0  0  0  0  0  0  0  0
    3.8570   -0.2912   -2.4597 H   0  0  0  0  0  0  0  0  0  0  0  0
    1.8403    1.5795    0.0541 H   0  0  0  0  0  0  0  0  0  0  0  0
   -0.1372   -1.7660    1.8121 H   0  0  0  0  0  0  0  0  0  0  0  0
   -3.1117    1.4517    2.0339 H   0  0  0  0  0  0  0  0  0  0  0  0
   -2.6220    2.3451    0.5990 H   0  0  0  0  0  0  0  0  0  0  0  0
   -1.3220   -0.8583   -0.8099 H   0  0  0  0  0  0  0  0  0  0  0  0
   -1.9253   -1.6552    0.6415 H   0  0  0  0  0  0  0  0  0  0  0  0
   -5.5827    1.9737    0.4159 H   0  0  0  0  0  0  0  0  0  0  0  0
   -7.0498    0.5743   -1.0207 H   0  0  0  0  0  0  0  0  0  0  0  0
   -6.1847   -1.5043   -2.0239 H   0  0  0  0  0  0  0  0  0  0  0  0
   -3.8553   -2.2254   -1.6035 H   0  0  0  0  0  0  0  0  0  0  0  0
    1.8888   -3.0939    1.5365 H   0  0  0  0  0  0  0  0  0  0  0  0
    3.9682   -3.1655    0.8033 H   0  0  0  0  0  0  0  0  0  0  0  0
  2  1  1  6
  2  3  1  0
  2  4  1  0
  2 20  1  0
  4  5  2  0
  4 21  1  0
  5  6  1  0
  6  7  1  0
  6 18  2  0
  7  8  2  0
  7  9  1  0
  9 10  1  0
  9 17  1  0
 10 11  1  0
 11 12  1  0
 11 16  2  0
 12 13  2  0
 13 14  1  0
 14 15  2  0
 15 16  1  0
 16 17  1  0
 18 19  1  0
 19 21  2  0
 21 22  1  0
  1 23  1  0
  1 24  1  0
  1 25  1  0
  3 26  1  0
  3 27  1  0
  3 28  1  0
 20 29  1  0
 20 30  1  0
 20 31  1  0
  5 32  1  0
 18 33  1  0
 10 34  1  0
 10 35  1  0
 17 36  1  0
 17 37  1  0
 12 38  1  0
 13 39  1  0
 14 40  1  0
 15 41  1  0
 19 42  1  0
 22 43  1  0
M  END
