
     RDKit          3D

 33 35  0  0  0  0  0  0  0  0999 V2000
    1.9687    0.3942    0.0610 C   0  0  0  0  0  0  0  0  0  0  0  0
    0.9577    1.3471    0.1857 C   0  0  0  0  0  0  0  0  0  0  0  0
   -0.3741    0.9840    0.2454 C   0  0  0  0  0  0  0  0  0  0  0  0
   -0.7417   -0.3576    0.1974 C   0  0  0  0  0  0  0  0  0  0  0  0
    0.2536   -1.3403    0.0801 C   0  0  0  0  0  0  0  0  0  0  0  0
    1.5883   -0.9411    0.0055 C   0  0  0  0  0  0  0  0  0  0  0  0
    3.3767    0.7769   -0.0062 C   0  0  0  0  0  0  0  0  0  0  0  0
    3.9140    1.9867   -0.4026 C   0  0  0  0  0  0  0  0  0  0  0  0
    5.2445    1.8641   -0.3002 N   0  0  0  0  0  0  0  0  0  0  0  0
    5.6300    0.6709    0.1333 N   0  0  0  0  0  0  0  0  0  0  0  0
    4.5100   -0.0009    0.3151 C   0  0  0  0  0  0  0  0  0  0  0  0
   -0.0870   -2.7848    0.0545 C   0  0  0  0  0  0  0  0  0  0  0  0
   -1.1163   -3.2653    0.4597 O   0  0  0  0  0  0  0  0  0  0  0  0
    0.8916   -3.5207   -0.4642 O   0  0  0  0  0  0  0  0  0  0  0  0
   -2.0302   -0.7574    0.2583 O   0  0  0  0  0  0  0  0  0  0  0  0
   -3.0411    0.1661    0.1327 C   0  0  0  0  0  0  0  0  0  0  0  0
   -3.3483    0.6965   -1.1123 C   0  0  0  0  0  0  0  0  0  0  0  0
   -4.4112    1.5815   -1.2247 C   0  0  0  0  0  0  0  0  0  0  0  0
   -5.1585    1.9284   -0.1057 C   0  0  0  0  0  0  0  0  0  0  0  0
   -4.8400    1.3863    1.1319 C   0  0  0  0  0  0  0  0  0  0  0  0
   -3.7741    0.5045    1.2586 C   0  0  0  0  0  0  0  0  0  0  0  0
    1.2064    2.3990    0.2514 H   0  0  0  0  0  0  0  0  0  0  0  0
   -1.1236    1.7574    0.3419 H   0  0  0  0  0  0  0  0  0  0  0  0
    2.3549   -1.6971   -0.0965 H   0  0  0  0  0  0  0  0  0  0  0  0
    3.4545    2.8951   -0.7563 H   0  0  0  0  0  0  0  0  0  0  0  0
    5.9338    2.5643   -0.5233 H   0  0  0  0  0  0  0  0  0  0  0  0
    4.5379   -1.0155    0.6844 H   0  0  0  0  0  0  0  0  0  0  0  0
    0.6507   -4.4579   -0.4183 H   0  0  0  0  0  0  0  0  0  0  0  0
   -2.7676    0.4191   -1.9833 H   0  0  0  0  0  0  0  0  0  0  0  0
   -4.6570    1.9974   -2.1929 H   0  0  0  0  0  0  0  0  0  0  0  0
   -5.9888    2.6156   -0.1994 H   0  0  0  0  0  0  0  0  0  0  0  0
   -5.4204    1.6495    2.0064 H   0  0  0  0  0  0  0  0  0  0  0  0
   -3.5189    0.0787    2.2208 H   0  0  0  0  0  0  0  0  0  0  0  0
 20 21  2  0
 20 19  1  0
 21 16  1  0
 19 18  2  0
 16 15  1  0
 16 17  2  0
 18 17  1  0
 15  4  1  0
  3  4  1  0
  3  2  2  0
  4  5  2  0
  2  1  1  0
  5  6  1  0
  5 12  1  0
  1  6  2  0
  1  7  1  0
 11  7  1  0
 11 10  2  0
 13 12  2  0
 12 14  1  0
  7  8  2  0
 10  9  1  0
  8  9  1  0
  2 22  1  0
  3 23  1  0
  6 24  1  0
  8 25  1  0
  9 26  1  0
 11 27  1  0
 14 28  1  0
 17 29  1  0
 18 30  1  0
 19 31  1  0
 20 32  1  0
 21 33  1  0
M  END
