
     RDKit          3D

 50 53  0  0  0  0  0  0  0  0999 V2000
    2.1868    1.0156   -0.8620 C   0  0  0  0  0  0  0  0  0  0  0  0
    2.6453   -0.2981   -0.6140 C   0  0  0  0  0  0  0  0  0  0  0  0
    2.1245   -0.9709    0.5318 C   0  0  0  0  0  0  0  0  0  0  0  0
    1.1523   -0.3571    1.3684 C   0  0  0  0  0  0  0  0  0  0  0  0
    0.7617    0.9280    1.0607 C   0  0  0  0  0  0  0  0  0  0  0  0
    1.2799    1.6239   -0.0452 C   0  0  0  0  0  0  0  0  0  0  0  0
    3.5890   -0.9469   -1.4441 C   0  0  0  0  0  0  0  0  0  0  0  0
    4.0264   -2.2073   -1.1685 C   0  0  0  0  0  0  0  0  0  0  0  0
    3.5267   -2.8721   -0.0269 C   0  0  0  0  0  0  0  0  0  0  0  0
    2.6065   -2.2741    0.7976 C   0  0  0  0  0  0  0  0  0  0  0  0
    3.9884   -4.1881    0.2776 C   0  0  0  0  0  0  0  0  0  0  0  0
    4.3644   -5.2515    0.5124 N   0  0  0  0  0  0  0  0  0  0  0  0
   -1.1639   -1.5194   -0.8598 C   0  0  0  0  0  0  0  0  0  0  0  0
   -2.4580    3.8040    0.2717 C   0  0  0  0  0  0  0  0  0  0  0  0
   -2.6656    1.4633   -1.3180 C   0  0  0  0  0  0  0  0  0  0  0  0
   -2.3118    0.2311   -2.1207 C   0  0  0  0  0  0  0  0  0  0  0  0
   -3.5409   -1.5826   -1.0472 C   0  0  0  0  0  0  0  0  0  0  0  0
   -2.3251   -3.3169    0.2391 C   0  0  0  0  0  0  0  0  0  0  0  0
   -1.1063   -2.6326   -0.1100 C   0  0  0  0  0  0  0  0  0  0  0  0
   -2.3281   -0.9936   -1.3330 N   0  0  0  0  0  0  0  0  0  0  0  0
   -3.4624   -2.7135   -0.2787 N   0  0  0  0  0  0  0  0  0  0  0  0
   -0.1292    1.5038    1.9042 O   0  0  0  0  0  0  0  0  0  0  0  0
   -1.7884    1.5203   -0.2089 O   0  0  0  0  0  0  0  0  0  0  0  0
   -2.4143   -4.3269    0.9126 O   0  0  0  0  0  0  0  0  0  0  0  0
   -2.2816    4.9282    1.0715 C   0  0  0  0  0  0  0  0  0  0  0  0
   -1.3668    4.9210    2.1105 C   0  0  0  0  0  0  0  0  0  0  0  0
   -0.6225    3.7732    2.3568 C   0  0  0  0  0  0  0  0  0  0  0  0
   -0.7987    2.6516    1.5704 C   0  0  0  0  0  0  0  0  0  0  0  0
   -1.7148    2.6533    0.5093 C   0  0  0  0  0  0  0  0  0  0  0  0
    0.5465   -1.0411    2.5580 C   0  0  0  0  0  0  0  0  0  0  0  0
    2.7865    1.9007   -2.2221 Cl  0  0  0  0  0  0  0  0  0  0  0  0
    0.9701    2.6407   -0.2481 H   0  0  0  0  0  0  0  0  0  0  0  0
    3.9741   -0.4351   -2.3143 H   0  0  0  0  0  0  0  0  0  0  0  0
    4.7481   -2.6943   -1.8089 H   0  0  0  0  0  0  0  0  0  0  0  0
    2.2609   -2.8148    1.6661 H   0  0  0  0  0  0  0  0  0  0  0  0
   -0.2678   -0.9875   -1.1462 H   0  0  0  0  0  0  0  0  0  0  0  0
   -3.1879    3.8378   -0.5253 H   0  0  0  0  0  0  0  0  0  0  0  0
   -2.5432    2.3318   -1.9720 H   0  0  0  0  0  0  0  0  0  0  0  0
   -3.7051    1.4365   -0.9810 H   0  0  0  0  0  0  0  0  0  0  0  0
   -3.0052    0.1430   -2.9550 H   0  0  0  0  0  0  0  0  0  0  0  0
   -1.3137    0.3333   -2.5439 H   0  0  0  0  0  0  0  0  0  0  0  0
   -0.1586   -3.0211    0.2286 H   0  0  0  0  0  0  0  0  0  0  0  0
   -4.3492   -3.1568   -0.0716 H   0  0  0  0  0  0  0  0  0  0  0  0
   -2.8732    5.8117    0.8717 H   0  0  0  0  0  0  0  0  0  0  0  0
   -1.2283    5.7969    2.7292 H   0  0  0  0  0  0  0  0  0  0  0  0
    0.0916    3.7398    3.1698 H   0  0  0  0  0  0  0  0  0  0  0  0
    0.9809   -0.6737    3.4898 H   0  0  0  0  0  0  0  0  0  0  0  0
   -0.5266   -0.8634    2.6048 H   0  0  0  0  0  0  0  0  0  0  0  0
    0.6832   -2.1182    2.5394 H   0  0  0  0  0  0  0  0  0  0  0  0
   -4.5960   -1.1361   -1.4474 O   0  0  0  0  0  0  0  0  0  0  0  0
 50 17  2  0
 16 15  1  0
 16 20  1  0
 17 20  1  0
 17 21  1  0
 15 23  1  0
 20 13  1  0
 21 18  1  0
 13 19  2  0
 23 29  1  0
 18 19  1  0
 18 24  2  0
 14 29  2  0
 14 25  1  0
 29 28  1  0
 25 26  2  0
 28 22  1  0
 28 27  2  0
 26 27  1  0
 22  5  1  0
  6  5  1  0
  6  1  2  0
  5  4  2  0
 31  1  1  0
  1  2  1  0
  4 30  1  0
  4  3  1  0
  2  3  2  0
  2  7  1  0
  3 10  1  0
  7  8  2  0
 10  9  2  0
  8  9  1  0
  9 11  1  0
 11 12  3  0
  6 32  1  0
  7 33  1  0
  8 34  1  0
 10 35  1  0
 13 36  1  0
 14 37  1  0
 15 38  1  0
 15 39  1  0
 16 40  1  0
 16 41  1  0
 19 42  1  0
 21 43  1  0
 25 44  1  0
 26 45  1  0
 27 46  1  0
 30 47  1  0
 30 48  1  0
 30 49  1  0
M  END
