
     RDKit          3D

 20 20  0  0  0  0  0  0  0  0999 V2000
   -0.6716   -0.0849   -0.0689 C   0  0  0  0  0  0  0  0  0  0  0  0
    0.0371   -1.2697   -0.2973 C   0  0  0  0  0  0  0  0  0  0  0  0
    1.4253   -1.2892   -0.3099 C   0  0  0  0  0  0  0  0  0  0  0  0
    2.1230   -0.1008   -0.1190 C   0  0  0  0  0  0  0  0  0  0  0  0
    1.4472    1.0970    0.0884 C   0  0  0  0  0  0  0  0  0  0  0  0
    0.0572    1.0919    0.1137 C   0  0  0  0  0  0  0  0  0  0  0  0
   -0.6828   -2.3903   -0.4642 O   0  0  0  0  0  0  0  0  0  0  0  0
   -0.6490    2.2228    0.2807 O   0  0  0  0  0  0  0  0  0  0  0  0
    3.4633   -0.1656   -0.1483 O   0  0  0  0  0  0  0  0  0  0  0  0
   -2.7963   -0.4428   -1.0264 O   0  0  0  0  0  0  0  0  0  0  0  0
   -2.1660   -0.0918   -0.0542 C   0  0  0  0  0  0  0  0  0  0  0  0
   -2.8345    0.2575    1.2440 C   0  0  0  0  0  0  0  0  0  0  0  0
    1.9663   -2.2149   -0.4699 H   0  0  0  0  0  0  0  0  0  0  0  0
    1.9950    2.0247    0.2180 H   0  0  0  0  0  0  0  0  0  0  0  0
   -0.1009   -3.1525   -0.5629 H   0  0  0  0  0  0  0  0  0  0  0  0
   -0.0628    2.9746    0.4242 H   0  0  0  0  0  0  0  0  0  0  0  0
    3.8484    0.7029    0.0141 H   0  0  0  0  0  0  0  0  0  0  0  0
   -2.7121   -0.5938    1.9197 H   0  0  0  0  0  0  0  0  0  0  0  0
   -2.3726    1.1124    1.7334 H   0  0  0  0  0  0  0  0  0  0  0  0
   -3.8995    0.4400    1.1105 H   0  0  0  0  0  0  0  0  0  0  0  0
 10 11  2  0
 11  1  1  0
 11 12  1  0
  7  2  1  0
  1  2  2  0
  1  6  1  0
  2  3  1  0
  8  6  1  0
  6  5  2  0
  3  4  2  0
  5  4  1  0
  4  9  1  0
  3 13  1  0
  5 14  1  0
  7 15  1  0
  8 16  1  0
  9 17  1  0
 12 18  1  0
 12 19  1  0
 12 20  1  0
M  END
