
     RDKit          3D

 38 40  0  0  0  0  0  0  0  0999 V2000
    8.1825    0.2102    0.5351 C   0  0  0  0  0  0  0  0  0  0  0  0
    7.0634   -0.5179   -0.1833 C   0  0  0  0  0  0  0  0  0  0  0  0
    5.8816    0.3219   -0.2599 N   0  0  0  0  0  0  0  0  0  0  0  0
    4.7181   -0.1061   -0.7578 C   0  0  0  0  0  0  0  0  0  0  0  0
    4.5528   -1.2214   -1.2283 O   0  0  0  0  0  0  0  0  0  0  0  0
    3.5955    0.9157   -0.6478 C   0  0  1  0  0  0  0  0  0  0  0  0
    2.4975    0.5324   -1.4472 O   0  0  0  0  0  0  0  0  0  0  0  0
    3.0511    1.0272    0.7825 C   0  0  1  0  0  0  0  0  0  0  0  0
    3.7997    1.9557    1.5091 O   0  0  0  0  0  0  0  0  0  0  0  0
    1.6060    1.4638    0.5148 C   0  0  1  0  0  0  0  0  0  0  0  0
    1.5448    2.8220    0.1854 O   0  0  0  0  0  0  0  0  0  0  0  0
    1.2938    0.6761   -0.7553 C   0  0  2  0  0  0  0  0  0  0  0  0
    0.7527   -0.6455   -0.4488 N   0  0  0  0  0  0  0  0  0  0  0  0
    1.3461   -1.8723   -0.5923 C   0  0  0  0  0  0  0  0  0  0  0  0
    0.5676   -2.8596   -0.2526 N   0  0  0  0  0  0  0  0  0  0  0  0
   -0.6002   -2.2604    0.1300 C   0  0  0  0  0  0  0  0  0  0  0  0
   -0.5051   -0.8840    0.0112 C   0  0  0  0  0  0  0  0  0  0  0  0
   -1.4603    0.0068    0.2937 N   0  0  0  0  0  0  0  0  0  0  0  0
   -2.5437   -0.5945    0.7159 C   0  0  0  0  0  0  0  0  0  0  0  0
   -4.1533    0.6980    1.2070 I   0  0  0  0  0  0  0  0  0  0  0  0
   -2.7953   -1.8747    0.8863 N   0  0  0  0  0  0  0  0  0  0  0  0
   -1.8296   -2.7621    0.5976 C   0  0  0  0  0  0  0  0  0  0  0  0
   -2.0693   -4.0575    0.7659 N   0  0  0  0  0  0  0  0  0  0  0  0
    7.8959    0.4740    1.5536 H   0  0  0  0  0  0  0  0  0  0  0  0
    9.0636   -0.4270    0.5914 H   0  0  0  0  0  0  0  0  0  0  0  0
    8.4647    1.1235    0.0101 H   0  0  0  0  0  0  0  0  0  0  0  0
    7.3837   -0.7970   -1.1896 H   0  0  0  0  0  0  0  0  0  0  0  0
    6.8196   -1.4438    0.3416 H   0  0  0  0  0  0  0  0  0  0  0  0
    5.9382    1.2575    0.1119 H   0  0  0  0  0  0  0  0  0  0  0  0
    3.9646    1.8973   -0.9701 H   0  0  0  0  0  0  0  0  0  0  0  0
    3.0482    0.0436    1.2682 H   0  0  0  0  0  0  0  0  0  0  0  0
    3.7480    1.7391    2.4453 H   0  0  0  0  0  0  0  0  0  0  0  0
    0.9300    1.2078    1.3395 H   0  0  0  0  0  0  0  0  0  0  0  0
    2.0973    3.3062    0.8112 H   0  0  0  0  0  0  0  0  0  0  0  0
    0.5604    1.1916   -1.3808 H   0  0  0  0  0  0  0  0  0  0  0  0
    2.3574   -1.9742   -0.9545 H   0  0  0  0  0  0  0  0  0  0  0  0
   -1.3751   -4.7472    0.5354 H   0  0  0  0  0  0  0  0  0  0  0  0
   -2.9678   -4.3741    1.0882 H   0  0  0  0  0  0  0  0  0  0  0  0
  1  2  1  0
  1 24  1  0
  1 25  1  0
  1 26  1  0
  2  3  1  0
  2 27  1  0
  2 28  1  0
  3  4  1  0
  3 29  1  0
  4  5  2  0
  4  6  1  0
  6  7  1  0
  6  8  1  0
  6 30  1  6
  7 12  1  0
  8  9  1  0
  8 10  1  0
  8 31  1  1
  9 32  1  0
 10 11  1  0
 10 12  1  0
 10 33  1  1
 11 34  1  0
 12 13  1  0
 12 35  1  6
 13 14  1  0
 13 17  1  0
 14 15  2  0
 14 36  1  0
 15 16  1  0
 16 17  2  0
 16 22  1  0
 17 18  1  0
 18 19  2  0
 19 20  1  0
 19 21  1  0
 21 22  2  0
 22 23  1  0
 23 37  1  0
 23 38  1  0
M  END
