
     RDKit          3D

 69 72  0  0  0  0  0  0  0  0999 V2000
    7.8229   -3.1679   -2.6763 O   0  0  0  0  0  0  0  0  0  0  0  0
    7.1561   -2.0022   -2.5659 C   0  0  0  0  0  0  0  0  0  0  0  0
    6.6608   -1.5763   -1.3198 C   0  0  0  0  0  0  0  0  0  0  0  0
    6.8993   -2.3844   -0.2822 O   0  0  0  0  0  0  0  0  0  0  0  0
    6.9617   -1.2199   -3.6860 C   0  0  0  0  0  0  0  0  0  0  0  0
    6.2768   -0.0098   -3.5878 C   0  0  0  0  0  0  0  0  0  0  0  0
    5.7849    0.4133   -2.3730 C   0  0  0  0  0  0  0  0  0  0  0  0
    5.9620   -0.3658   -1.2208 C   0  0  0  0  0  0  0  0  0  0  0  0
    5.4554    0.0255    0.1189 C   0  0  0  0  0  0  0  0  0  0  0  0
    5.7095   -0.6777    1.1111 O   0  0  0  0  0  0  0  0  0  0  0  0
    4.7315    1.1409    0.2226 N   0  0  0  0  0  0  0  0  0  0  0  0
    4.1916    1.6506    1.4668 C   0  0  0  0  0  0  0  0  0  0  0  0
    2.7179    1.3668    1.6230 C   0  0  0  0  0  0  0  0  0  0  0  0
    2.2588    0.0617    1.7670 C   0  0  0  0  0  0  0  0  0  0  0  0
    1.7997    2.4097    1.5942 C   0  0  0  0  0  0  0  0  0  0  0  0
    0.4395    2.1630    1.7347 C   0  0  0  0  0  0  0  0  0  0  0  0
   -0.5420    3.3115    1.7017 C   0  0  0  0  0  0  0  0  0  0  0  0
   -1.8617    2.9225    1.2640 N   0  0  0  0  0  0  0  0  0  0  0  0
   -2.0916    2.4792    0.0236 C   0  0  0  0  0  0  0  0  0  0  0  0
   -1.1948    2.5193   -0.8328 O   0  0  0  0  0  0  0  0  0  0  0  0
   -3.4291    1.9384   -0.3057 C   0  0  0  0  0  0  0  0  0  0  0  0
   -4.4738    1.8437    0.6248 C   0  0  0  0  0  0  0  0  0  0  0  0
   -5.6974    1.3372    0.2520 C   0  0  0  0  0  0  0  0  0  0  0  0
   -5.9121    0.9111   -1.0573 C   0  0  0  0  0  0  0  0  0  0  0  0
   -4.8974    0.9795   -1.9881 C   0  0  0  0  0  0  0  0  0  0  0  0
   -5.1212    0.5723   -3.2523 O   0  0  0  0  0  0  0  0  0  0  0  0
   -3.6420    1.4897   -1.6151 C   0  0  0  0  0  0  0  0  0  0  0  0
   -2.7076    1.5234   -2.5720 O   0  0  0  0  0  0  0  0  0  0  0  0
    0.0046    0.8569    1.9086 C   0  0  0  0  0  0  0  0  0  0  0  0
    0.9014   -0.2022    1.9043 C   0  0  0  0  0  0  0  0  0  0  0  0
    0.4425   -1.6359    2.0478 C   0  0  0  0  0  0  0  0  0  0  0  0
   -0.9844   -1.8192    1.9496 N   0  0  0  0  0  0  0  0  0  0  0  0
   -1.6438   -1.7400    0.7871 C   0  0  0  0  0  0  0  0  0  0  0  0
   -1.0304   -1.5548   -0.2736 O   0  0  0  0  0  0  0  0  0  0  0  0
   -3.1177   -1.8960    0.7981 C   0  0  0  0  0  0  0  0  0  0  0  0
   -3.8686   -1.9523    1.9821 C   0  0  0  0  0  0  0  0  0  0  0  0
   -5.2309   -2.1333    1.9375 C   0  0  0  0  0  0  0  0  0  0  0  0
   -5.8761   -2.2683    0.7088 C   0  0  0  0  0  0  0  0  0  0  0  0
   -5.1633   -2.2037   -0.4697 C   0  0  0  0  0  0  0  0  0  0  0  0
   -5.7196   -2.3258   -1.6902 O   0  0  0  0  0  0  0  0  0  0  0  0
   -3.7719   -1.9918   -0.4384 C   0  0  0  0  0  0  0  0  0  0  0  0
   -3.1465   -1.9075   -1.6114 O   0  0  0  0  0  0  0  0  0  0  0  0
    7.8963   -3.5946   -1.8137 H   0  0  0  0  0  0  0  0  0  0  0  0
    6.5108   -1.9321    0.5138 H   0  0  0  0  0  0  0  0  0  0  0  0
    7.3495   -1.5553   -4.6399 H   0  0  0  0  0  0  0  0  0  0  0  0
    6.1359    0.5981   -4.4706 H   0  0  0  0  0  0  0  0  0  0  0  0
    5.2686    1.3627   -2.3346 H   0  0  0  0  0  0  0  0  0  0  0  0
    4.4828    1.6509   -0.6085 H   0  0  0  0  0  0  0  0  0  0  0  0
    4.7548    1.2179    2.2919 H   0  0  0  0  0  0  0  0  0  0  0  0
    4.3639    2.7271    1.4895 H   0  0  0  0  0  0  0  0  0  0  0  0
    2.9672   -0.7598    1.7672 H   0  0  0  0  0  0  0  0  0  0  0  0
    2.1489    3.4264    1.4464 H   0  0  0  0  0  0  0  0  0  0  0  0
   -0.6544    3.7343    2.7008 H   0  0  0  0  0  0  0  0  0  0  0  0
   -0.1527    4.1116    1.0691 H   0  0  0  0  0  0  0  0  0  0  0  0
   -2.5847    2.8736    1.9599 H   0  0  0  0  0  0  0  0  0  0  0  0
   -4.3396    2.1577    1.6513 H   0  0  0  0  0  0  0  0  0  0  0  0
   -6.4944    1.2584    0.9776 H   0  0  0  0  0  0  0  0  0  0  0  0
   -6.8734    0.5106   -1.3534 H   0  0  0  0  0  0  0  0  0  0  0  0
   -4.3082    0.6337   -3.7680 H   0  0  0  0  0  0  0  0  0  0  0  0
   -1.8947    1.9081   -2.1495 H   0  0  0  0  0  0  0  0  0  0  0  0
   -1.0528    0.6621    2.0316 H   0  0  0  0  0  0  0  0  0  0  0  0
    0.9475   -2.2523    1.3014 H   0  0  0  0  0  0  0  0  0  0  0  0
    0.7440   -2.0222    3.0219 H   0  0  0  0  0  0  0  0  0  0  0  0
   -1.4859   -2.0045    2.8002 H   0  0  0  0  0  0  0  0  0  0  0  0
   -3.3967   -1.8360    2.9490 H   0  0  0  0  0  0  0  0  0  0  0  0
   -5.8076   -2.1703    2.8515 H   0  0  0  0  0  0  0  0  0  0  0  0
   -6.9503   -2.4141    0.6763 H   0  0  0  0  0  0  0  0  0  0  0  0
   -6.6742   -2.4216   -1.6066 H   0  0  0  0  0  0  0  0  0  0  0  0
   -2.1996   -1.7115   -1.4034 H   0  0  0  0  0  0  0  0  0  0  0  0
  1  2  1  0
  1 43  1  0
  2  3  2  0
  2  5  1  0
  3  4  1  0
  3  8  1  0
  4 44  1  0
  5  6  2  0
  5 45  1  0
  6  7  1  0
  6 46  1  0
  7  8  2  0
  7 47  1  0
  8  9  1  0
  9 10  2  0
  9 11  1  0
 11 12  1  0
 11 48  1  0
 12 13  1  0
 12 49  1  0
 12 50  1  0
 13 14  2  0
 13 15  1  0
 14 30  1  0
 14 51  1  0
 15 16  2  0
 15 52  1  0
 16 17  1  0
 16 29  1  0
 17 18  1  0
 17 53  1  0
 17 54  1  0
 18 19  1  0
 18 55  1  0
 19 20  2  0
 19 21  1  0
 21 22  2  0
 21 27  1  0
 22 23  1  0
 22 56  1  0
 23 24  2  0
 23 57  1  0
 24 25  1  0
 24 58  1  0
 25 26  1  0
 25 27  2  0
 26 59  1  0
 27 28  1  0
 28 60  1  0
 29 30  2  0
 29 61  1  0
 30 31  1  0
 31 32  1  0
 31 62  1  0
 31 63  1  0
 32 33  1  0
 32 64  1  0
 33 34  2  0
 33 35  1  0
 35 36  2  0
 35 41  1  0
 36 37  1  0
 36 65  1  0
 37 38  2  0
 37 66  1  0
 38 39  1  0
 38 67  1  0
 39 40  1  0
 39 41  2  0
 40 68  1  0
 41 42  1  0
 42 69  1  0
M  END
