
     RDKit          3D

 22 23  0  0  0  0  0  0  0  0999 V2000
   -1.6994   -1.0498   -0.1074 C   0  0  1  0  0  0  0  0  0  0  0  0
   -1.3954    0.3963    0.0525 C   0  0  0  0  0  0  0  0  0  0  0  0
   -0.1367    1.0319    0.1286 C   0  0  0  0  0  0  0  0  0  0  0  0
    1.2244    0.4863    0.0799 C   0  0  0  0  0  0  0  0  0  0  0  0
    1.6003   -0.6171    0.8466 C   0  0  0  0  0  0  0  0  0  0  0  0
    2.9001   -1.0994    0.8007 C   0  0  0  0  0  0  0  0  0  0  0  0
    3.8482   -0.4851   -0.0068 C   0  0  0  0  0  0  0  0  0  0  0  0
    3.4866    0.6189   -0.7671 C   0  0  0  0  0  0  0  0  0  0  0  0
    2.1854    1.0984   -0.7264 C   0  0  0  0  0  0  0  0  0  0  0  0
   -1.5899   -1.7237    1.0500 F   0  0  0  0  0  0  0  0  0  0  0  0
   -2.9405   -1.2492   -0.5521 F   0  0  0  0  0  0  0  0  0  0  0  0
   -0.8599   -1.6335   -0.9705 F   0  0  0  0  0  0  0  0  0  0  0  0
   -2.3910    1.2587    0.1226 N   0  0  0  0  0  0  0  0  0  0  0  0
   -1.8088    2.4331    0.2442 N   0  0  0  0  0  0  0  0  0  0  0  0
   -0.4700    2.3653    0.2490 C   0  0  0  0  0  0  0  0  0  0  0  0
    0.8865   -1.0923    1.5060 H   0  0  0  0  0  0  0  0  0  0  0  0
    3.1728   -1.9559    1.4037 H   0  0  0  0  0  0  0  0  0  0  0  0
    4.8621   -0.8617   -0.0405 H   0  0  0  0  0  0  0  0  0  0  0  0
    4.2158    1.1045   -1.4023 H   0  0  0  0  0  0  0  0  0  0  0  0
    1.9094    1.9506   -1.3352 H   0  0  0  0  0  0  0  0  0  0  0  0
   -2.3738    3.2652    0.3192 H   0  0  0  0  0  0  0  0  0  0  0  0
    0.1510    3.2404    0.3502 H   0  0  0  0  0  0  0  0  0  0  0  0
  1 12  1  6
  6  5  2  0
  6  7  1  0
  5  4  1  0
 10  1  1  0
  7  8  2  0
  4  3  1  0
  4  9  2  0
  3 15  2  0
  3  2  1  0
 15 14  1  0
 14 13  1  0
  2  1  1  0
  2 13  2  0
  1 11  1  0
  8  9  1  0
  5 16  1  0
  6 17  1  0
  7 18  1  0
  8 19  1  0
  9 20  1  0
 14 21  1  0
 15 22  1  0
M  END
