
     RDKit          3D

 51 52  0  0  0  0  0  0  0  0999 V2000
    7.7711    1.5492   -0.3251 C   0  0  1  0  0  0  0  0  0  0  0  0
    8.8046    1.8935    0.7112 C   0  0  0  0  0  0  0  0  0  0  0  0
    8.3744    0.9174   -1.4748 N   0  0  0  0  0  0  0  0  0  0  0  0
    9.9643    1.5715    0.6676 O   0  0  0  0  0  0  0  0  0  0  0  0
    6.6467    0.7632    0.3773 C   0  0  0  0  0  0  0  0  0  0  0  0
    5.4388    0.5267   -0.5187 C   0  0  0  0  0  0  0  0  0  0  0  0
    4.3530   -0.2805    0.1802 C   0  0  0  0  0  0  0  0  0  0  0  0
    3.1440   -0.4923   -0.7156 C   0  0  0  0  0  0  0  0  0  0  0  0
    2.1510   -1.3108   -0.0496 N   0  0  0  0  0  0  0  0  0  0  0  0
    0.9666   -1.6026   -0.5957 C   0  0  0  0  0  0  0  0  0  0  0  0
    0.6065   -1.1634   -1.6803 O   0  0  0  0  0  0  0  0  0  0  0  0
    0.0952   -2.5506    0.2086 C   0  0  0  0  0  0  0  0  0  0  0  0
   -1.3495   -2.0778    0.2009 C   0  0  1  0  0  0  0  0  0  0  0  0
   -2.3478   -3.0503    0.7733 C   0  0  0  0  0  0  0  0  0  0  0  0
   -3.4539   -3.2097    0.3233 O   0  0  0  0  0  0  0  0  0  0  0  0
   -1.8893   -3.6751    1.8480 O   0  0  0  0  0  0  0  0  0  0  0  0
   -1.4617   -0.5395    1.1951 S   0  0  0  0  0  0  0  0  0  0  0  0
   -2.8288    0.2718    0.4212 C   0  0  0  0  0  0  0  0  0  0  0  0
   -3.9859    0.4736    1.1247 C   0  0  0  0  0  0  0  0  0  0  0  0
   -5.0607    1.1918    0.5494 C   0  0  0  0  0  0  0  0  0  0  0  0
   -6.2634    1.4213    1.2569 C   0  0  0  0  0  0  0  0  0  0  0  0
   -7.2894    2.1168    0.6769 C   0  0  0  0  0  0  0  0  0  0  0  0
   -7.1601    2.6139   -0.6367 C   0  0  0  0  0  0  0  0  0  0  0  0
   -6.0082    2.4034   -1.3459 C   0  0  0  0  0  0  0  0  0  0  0  0
   -4.9325    1.6875   -0.7732 C   0  0  0  0  0  0  0  0  0  0  0  0
   -3.7264    1.4527   -1.4776 C   0  0  0  0  0  0  0  0  0  0  0  0
   -2.6954    0.7726   -0.8964 C   0  0  0  0  0  0  0  0  0  0  0  0
    7.3444    2.5105   -0.6433 H   0  0  0  0  0  0  0  0  0  0  0  0
    8.4066    2.4714    1.5658 H   0  0  0  0  0  0  0  0  0  0  0  0
    8.6724   -0.0229   -1.2443 H   0  0  0  0  0  0  0  0  0  0  0  0
    7.6932    0.8285   -2.2164 H   0  0  0  0  0  0  0  0  0  0  0  0
    7.0457   -0.1976    0.7211 H   0  0  0  0  0  0  0  0  0  0  0  0
    6.3276    1.3056    1.2732 H   0  0  0  0  0  0  0  0  0  0  0  0
    5.0335    1.4908   -0.8429 H   0  0  0  0  0  0  0  0  0  0  0  0
    5.7446   -0.0027   -1.4260 H   0  0  0  0  0  0  0  0  0  0  0  0
    4.7612   -1.2508    0.4811 H   0  0  0  0  0  0  0  0  0  0  0  0
    4.0456    0.2304    1.0976 H   0  0  0  0  0  0  0  0  0  0  0  0
    2.7063    0.4732   -0.9823 H   0  0  0  0  0  0  0  0  0  0  0  0
    3.4526   -0.9702   -1.6503 H   0  0  0  0  0  0  0  0  0  0  0  0
    2.3875   -1.7131    0.8429 H   0  0  0  0  0  0  0  0  0  0  0  0
    0.1502   -3.5341   -0.2688 H   0  0  0  0  0  0  0  0  0  0  0  0
    0.4699   -2.6766    1.2256 H   0  0  0  0  0  0  0  0  0  0  0  0
   -1.6518   -1.8398   -0.8182 H   0  0  0  0  0  0  0  0  0  0  0  0
   -2.5697   -4.2645    2.2070 H   0  0  0  0  0  0  0  0  0  0  0  0
   -4.0912    0.0860    2.1309 H   0  0  0  0  0  0  0  0  0  0  0  0
   -6.3626    1.0396    2.2657 H   0  0  0  0  0  0  0  0  0  0  0  0
   -8.2062    2.2891    1.2255 H   0  0  0  0  0  0  0  0  0  0  0  0
   -7.9782    3.1644   -1.0822 H   0  0  0  0  0  0  0  0  0  0  0  0
   -5.9068    2.7850   -2.3547 H   0  0  0  0  0  0  0  0  0  0  0  0
   -3.6220    1.8328   -2.4866 H   0  0  0  0  0  0  0  0  0  0  0  0
   -1.7713    0.6112   -1.4376 H   0  0  0  0  0  0  0  0  0  0  0  0
 22 23  2  0
 22 21  1  0
 23 24  1  0
 21 20  2  0
 24 25  2  0
 15 14  2  0
 20 25  1  0
 20 19  1  0
 16 14  1  0
 25 26  1  0
 14 13  1  0
 19 18  2  0
 26 27  2  0
 18 27  1  0
 18 17  1  0
 13 12  1  0
 13 17  1  0
 12 10  1  0
 11 10  2  0
 10  9  1  0
  9  8  1  0
  8  7  1  0
  7  6  1  0
  6  5  1  0
  5  1  1  0
  2  4  2  0
  2  1  1  0
  1  3  1  0
  1 28  1  6
  2 29  1  0
  3 30  1  0
  3 31  1  0
  5 32  1  0
  5 33  1  0
  6 34  1  0
  6 35  1  0
  7 36  1  0
  7 37  1  0
  8 38  1  0
  8 39  1  0
  9 40  1  0
 12 41  1  0
 12 42  1  0
 13 43  1  6
 16 44  1  0
 19 45  1  0
 21 46  1  0
 22 47  1  0
 23 48  1  0
 24 49  1  0
 26 50  1  0
 27 51  1  0
M  END
