
     RDKit          3D

 72 75  0  0  0  0  0  0  0  0999 V2000
    8.5668   -2.3750    1.3489 C   0  0  0  0  0  0  0  0  0  0  0  0
    7.1688   -2.0434    0.9131 C   0  0  0  0  0  0  0  0  0  0  0  0
    6.1487   -1.9014    1.8481 C   0  0  0  0  0  0  0  0  0  0  0  0
    4.8480   -1.5770    1.4766 C   0  0  0  0  0  0  0  0  0  0  0  0
    3.7721   -1.4697    2.5157 C   0  0  0  0  0  0  0  0  0  0  0  0
    4.5763   -1.3734    0.1211 C   0  0  0  0  0  0  0  0  0  0  0  0
    3.2624   -1.0615   -0.2999 N   0  0  0  0  0  0  0  0  0  0  0  0
    2.7115    0.1701   -0.1062 C   0  0  0  0  0  0  0  0  0  0  0  0
    3.2904    1.0706    0.4761 O   0  0  0  0  0  0  0  0  0  0  0  0
    1.4429    0.2717   -0.6211 N   0  0  0  0  0  0  0  0  0  0  0  0
    0.6338    1.4021   -0.6155 C   0  0  0  0  0  0  0  0  0  0  0  0
    1.1417    2.6798   -0.6412 C   0  0  0  0  0  0  0  0  0  0  0  0
    0.2974    3.8086   -0.6615 C   0  0  0  0  0  0  0  0  0  0  0  0
    0.8183    5.1248   -0.6896 C   0  0  0  0  0  0  0  0  0  0  0  0
   -0.0223    6.2036   -0.7261 C   0  0  0  0  0  0  0  0  0  0  0  0
   -1.4231    6.0245   -0.7384 C   0  0  0  0  0  0  0  0  0  0  0  0
   -1.9540    4.7644   -0.7150 C   0  0  0  0  0  0  0  0  0  0  0  0
   -1.1070    3.6328   -0.6739 C   0  0  0  0  0  0  0  0  0  0  0  0
   -1.6118    2.3190   -0.6471 C   0  0  0  0  0  0  0  0  0  0  0  0
   -0.7878    1.2223   -0.6004 C   0  0  0  0  0  0  0  0  0  0  0  0
   -1.3881   -0.1439   -0.5871 C   0  0  0  0  0  0  0  0  0  0  0  0
   -0.8586   -1.0936   -1.1613 O   0  0  0  0  0  0  0  0  0  0  0  0
   -2.5484   -0.2683    0.0725 N   0  0  0  0  0  0  0  0  0  0  0  0
   -3.2529   -1.5322    0.2189 C   0  0  1  0  0  0  0  0  0  0  0  0
   -2.5023   -2.4156    1.2183 C   0  0  0  0  0  0  0  0  0  0  0  0
   -4.6835   -1.2119    0.7548 C   0  0  1  0  0  0  0  0  0  0  0  0
   -5.4550   -0.1427   -0.0280 C   0  0  0  0  0  0  0  0  0  0  0  0
   -6.7568    0.2157    0.6855 C   0  0  0  0  0  0  0  0  0  0  0  0
   -7.6343   -1.0130    0.8889 C   0  0  0  0  0  0  0  0  0  0  0  0
   -6.8715   -2.1080    1.6238 C   0  0  0  0  0  0  0  0  0  0  0  0
   -5.5646   -2.4542    0.9143 C   0  0  0  0  0  0  0  0  0  0  0  0
   -3.3531   -2.2394   -1.1311 C   0  0  0  0  0  0  0  0  0  0  0  0
   -3.2840   -3.4361   -1.2561 O   0  0  0  0  0  0  0  0  0  0  0  0
   -3.6022   -1.4165   -2.1367 O   0  0  0  0  0  0  0  0  0  0  0  0
    5.5766   -1.5162   -0.8430 C   0  0  0  0  0  0  0  0  0  0  0  0
    5.2709   -1.3088   -2.2974 C   0  0  0  0  0  0  0  0  0  0  0  0
    6.8605   -1.8563   -0.4297 C   0  0  0  0  0  0  0  0  0  0  0  0
    9.0920   -1.4808    1.6913 H   0  0  0  0  0  0  0  0  0  0  0  0
    8.5694   -3.0843    2.1765 H   0  0  0  0  0  0  0  0  0  0  0  0
    9.1509   -2.8034    0.5352 H   0  0  0  0  0  0  0  0  0  0  0  0
    6.3660   -2.0630    2.8985 H   0  0  0  0  0  0  0  0  0  0  0  0
    3.5126   -0.4296    2.7172 H   0  0  0  0  0  0  0  0  0  0  0  0
    2.8577   -1.9721    2.1989 H   0  0  0  0  0  0  0  0  0  0  0  0
    4.0960   -1.9164    3.4545 H   0  0  0  0  0  0  0  0  0  0  0  0
    2.8207   -1.6949   -0.9494 H   0  0  0  0  0  0  0  0  0  0  0  0
    0.9768   -0.5753   -0.9229 H   0  0  0  0  0  0  0  0  0  0  0  0
    2.2085    2.8406   -0.6639 H   0  0  0  0  0  0  0  0  0  0  0  0
    1.8924    5.2645   -0.6810 H   0  0  0  0  0  0  0  0  0  0  0  0
    0.3860    7.2058   -0.7469 H   0  0  0  0  0  0  0  0  0  0  0  0
   -2.0737    6.8882   -0.7668 H   0  0  0  0  0  0  0  0  0  0  0  0
   -3.0275    4.6194   -0.7249 H   0  0  0  0  0  0  0  0  0  0  0  0
   -2.6872    2.1892   -0.6833 H   0  0  0  0  0  0  0  0  0  0  0  0
   -2.8365    0.4834    0.6795 H   0  0  0  0  0  0  0  0  0  0  0  0
   -2.4322   -1.8882    2.1698 H   0  0  0  0  0  0  0  0  0  0  0  0
   -3.0046   -3.3624    1.3978 H   0  0  0  0  0  0  0  0  0  0  0  0
   -1.4937   -2.6332    0.8728 H   0  0  0  0  0  0  0  0  0  0  0  0
   -4.5058   -0.8107    1.7632 H   0  0  0  0  0  0  0  0  0  0  0  0
   -4.8595    0.7628   -0.1620 H   0  0  0  0  0  0  0  0  0  0  0  0
   -5.6920   -0.5077   -1.0301 H   0  0  0  0  0  0  0  0  0  0  0  0
   -6.5286    0.6685    1.6568 H   0  0  0  0  0  0  0  0  0  0  0  0
   -7.2909    0.9730    0.1071 H   0  0  0  0  0  0  0  0  0  0  0  0
   -8.5414   -0.7470    1.4372 H   0  0  0  0  0  0  0  0  0  0  0  0
   -7.9586   -1.3902   -0.0869 H   0  0  0  0  0  0  0  0  0  0  0  0
   -6.6509   -1.7764    2.6441 H   0  0  0  0  0  0  0  0  0  0  0  0
   -7.4862   -3.0064    1.7142 H   0  0  0  0  0  0  0  0  0  0  0  0
   -5.7993   -2.8745   -0.0696 H   0  0  0  0  0  0  0  0  0  0  0  0
   -5.0459   -3.2346    1.4723 H   0  0  0  0  0  0  0  0  0  0  0  0
   -3.6864   -1.9227   -2.9589 H   0  0  0  0  0  0  0  0  0  0  0  0
    4.8718   -0.3105   -2.4846 H   0  0  0  0  0  0  0  0  0  0  0  0
    6.1663   -1.4284   -2.9048 H   0  0  0  0  0  0  0  0  0  0  0  0
    4.5295   -2.0215   -2.6651 H   0  0  0  0  0  0  0  0  0  0  0  0
    7.6386   -1.9691   -1.1764 H   0  0  0  0  0  0  0  0  0  0  0  0
  1  2  1  0
  1 38  1  0
  1 39  1  0
  1 40  1  0
  2 37  2  0
  2  3  1  0
  3  4  2  0
  3 41  1  0
  4  6  1  0
  4  5  1  0
  5 42  1  0
  5 43  1  0
  5 44  1  0
 35  6  2  0
  6  7  1  0
  8  7  1  0
  7 45  1  0
 10  8  1  0
  8  9  2  0
 11 10  1  0
 10 46  1  0
 20 11  1  0
 11 12  2  0
 13 12  1  0
 12 47  1  0
 18 13  2  0
 13 14  1  0
 15 14  2  0
 14 48  1  0
 16 15  1  0
 15 49  1  0
 17 16  2  0
 16 50  1  0
 17 18  1  0
 17 51  1  0
 19 18  1  0
 19 20  2  0
 19 52  1  0
 21 20  1  0
 23 21  1  0
 21 22  2  0
 24 23  1  0
 23 53  1  0
 24 32  1  6
 26 24  1  0
 24 25  1  0
 25 54  1  0
 25 55  1  0
 25 56  1  0
 27 26  1  0
 26 31  1  0
 26 57  1  1
 28 27  1  0
 27 58  1  0
 27 59  1  0
 28 29  1  0
 28 60  1  0
 28 61  1  0
 29 30  1  0
 29 62  1  0
 29 63  1  0
 30 31  1  0
 30 64  1  0
 30 65  1  0
 31 66  1  0
 31 67  1  0
 33 32  2  0
 32 34  1  0
 34 68  1  0
 37 35  1  0
 35 36  1  0
 36 69  1  0
 36 70  1  0
 36 71  1  0
 37 72  1  0
M  END
