
     RDKit          3D

 58 61  0  0  0  0  0  0  0  0999 V2000
   -1.1552   -1.1111   -0.5851 C   0  0  0  0  0  0  0  0  0  0  0  0
   -0.7712   -0.7238    0.7107 C   0  0  0  0  0  0  0  0  0  0  0  0
   -1.7814   -0.7608    1.6683 C   0  0  0  0  0  0  0  0  0  0  0  0
   -3.0171   -1.1104    1.3992 N   0  0  0  0  0  0  0  0  0  0  0  0
   -2.3911   -1.4769   -0.8714 N   0  0  0  0  0  0  0  0  0  0  0  0
    6.0629    3.6323    0.7578 C   0  0  0  0  0  0  0  0  0  0  0  0
    4.5165    1.8621    0.4471 C   0  0  0  0  0  0  0  0  0  0  0  0
    3.1954    1.4630    0.2306 C   0  0  0  0  0  0  0  0  0  0  0  0
    1.9845    2.6832    0.0596 Cl  0  0  0  0  0  0  0  0  0  0  0  0
    5.5082    0.8938    0.5664 C   0  0  0  0  0  0  0  0  0  0  0  0
    5.1911   -0.4584    0.4714 C   0  0  0  0  0  0  0  0  0  0  0  0
    6.0858   -1.4449    0.5690 O   0  0  0  0  0  0  0  0  0  0  0  0
    7.4446   -1.1169    0.8017 C   0  0  0  0  0  0  0  0  0  0  0  0
    3.8635   -0.8312    0.2609 C   0  0  0  0  0  0  0  0  0  0  0  0
    3.4786   -2.5101    0.1505 Cl  0  0  0  0  0  0  0  0  0  0  0  0
    2.8573    0.1189    0.1432 C   0  0  0  0  0  0  0  0  0  0  0  0
    1.4569   -0.3004   -0.0589 C   0  0  0  0  0  0  0  0  0  0  0  0
    0.5640   -0.3168    0.9505 C   0  0  0  0  0  0  0  0  0  0  0  0
    1.0796   -0.6905   -1.4108 C   0  0  0  0  0  0  0  0  0  0  0  0
    1.8693   -0.6640   -2.3400 O   0  0  0  0  0  0  0  0  0  0  0  0
   -0.2383   -1.0978   -1.5973 N   0  0  0  0  0  0  0  0  0  0  0  0
   -0.6777   -1.4990   -2.9278 C   0  0  0  0  0  0  0  0  0  0  0  0
   -3.2774   -1.4337    0.1225 C   0  0  0  0  0  0  0  0  0  0  0  0
   -4.5522   -1.7501   -0.1878 N   0  0  0  0  0  0  0  0  0  0  0  0
   -5.6630   -1.3215    0.6173 C   0  0  2  0  0  0  0  0  0  0  0  0
   -6.9776   -1.9265    0.1121 C   0  0  0  0  0  0  0  0  0  0  0  0
   -7.9563   -0.9394    0.3360 O   0  0  0  0  0  0  0  0  0  0  0  0
   -7.3634    0.2897   -0.0106 C   0  0  0  0  0  0  0  0  0  0  0  0
   -5.9435    0.2267    0.5623 C   0  0  2  0  0  0  0  0  0  0  0  0
   -5.0005    0.9599   -0.2295 N   0  0  0  0  0  0  0  0  0  0  0  0
   -3.9831    1.6979    0.2718 C   0  0  0  0  0  0  0  0  0  0  0  0
   -3.8784    1.9903    1.4521 O   0  0  0  0  0  0  0  0  0  0  0  0
   -2.9813    2.0967   -0.7524 C   0  0  0  0  0  0  0  0  0  0  0  0
   -1.7948    2.5844   -0.4106 C   0  0  0  0  0  0  0  0  0  0  0  0
   -1.5567   -0.4900    2.6954 H   0  0  0  0  0  0  0  0  0  0  0  0
    6.4609    3.2585    1.7041 H   0  0  0  0  0  0  0  0  0  0  0  0
    6.7388    3.3484   -0.0521 H   0  0  0  0  0  0  0  0  0  0  0  0
    6.0059    4.7163    0.8039 H   0  0  0  0  0  0  0  0  0  0  0  0
    6.5325    1.1940    0.7338 H   0  0  0  0  0  0  0  0  0  0  0  0
    7.8577   -0.5057   -0.0039 H   0  0  0  0  0  0  0  0  0  0  0  0
    7.5776   -0.5948    1.7521 H   0  0  0  0  0  0  0  0  0  0  0  0
    7.9825   -2.0602    0.8400 H   0  0  0  0  0  0  0  0  0  0  0  0
    0.8551   -0.0213    1.9516 H   0  0  0  0  0  0  0  0  0  0  0  0
    0.1564   -1.4172   -3.6126 H   0  0  0  0  0  0  0  0  0  0  0  0
   -1.0319   -2.5272   -2.9139 H   0  0  0  0  0  0  0  0  0  0  0  0
   -1.4863   -0.8562   -3.2683 H   0  0  0  0  0  0  0  0  0  0  0  0
   -4.7222   -1.9015   -1.1711 H   0  0  0  0  0  0  0  0  0  0  0  0
   -5.4812   -1.6108    1.6503 H   0  0  0  0  0  0  0  0  0  0  0  0
   -6.8982   -2.1664   -0.9588 H   0  0  0  0  0  0  0  0  0  0  0  0
   -7.2642   -2.8345    0.6412 H   0  0  0  0  0  0  0  0  0  0  0  0
   -7.3249    0.4177   -1.1027 H   0  0  0  0  0  0  0  0  0  0  0  0
   -7.9590    1.1016    0.4057 H   0  0  0  0  0  0  0  0  0  0  0  0
   -5.9213    0.6293    1.5724 H   0  0  0  0  0  0  0  0  0  0  0  0
   -4.9958    0.7779   -1.2214 H   0  0  0  0  0  0  0  0  0  0  0  0
   -3.2248    1.9312   -1.7965 H   0  0  0  0  0  0  0  0  0  0  0  0
   -1.0568    2.8351   -1.1598 H   0  0  0  0  0  0  0  0  0  0  0  0
   -1.5186    2.7394    0.6239 H   0  0  0  0  0  0  0  0  0  0  0  0
    4.7419    3.1760    0.5250 O   0  0  0  0  0  0  0  0  0  0  0  0
 13 12  1  0
 12 11  1  0
 11 10  1  0
 11 14  2  0
 10  7  2  0
  6 58  1  0
 15 14  1  0
 14 16  1  0
  7 58  1  0
  7  8  1  0
 16  8  2  0
 16 17  1  0
  8  9  1  0
 20 19  2  0
 17 19  1  0
 17 18  2  0
 19 21  1  0
 18  2  1  0
 21 22  1  0
 21  1  1  0
  2  1  1  0
  2  3  2  0
  1  5  2  0
  3  4  1  0
  5 23  1  0
  4 23  2  0
 23 24  1  0
 26 27  1  0
 26 25  1  0
 24 25  1  0
 27 28  1  0
 25 29  1  0
 28 29  1  0
 29 30  1  0
 30 31  1  0
 31 32  2  0
 31 33  1  0
 34 33  2  0
  3 35  1  0
  6 36  1  0
  6 37  1  0
  6 38  1  0
 10 39  1  0
 13 40  1  0
 13 41  1  0
 13 42  1  0
 18 43  1  0
 22 44  1  0
 22 45  1  0
 22 46  1  0
 24 47  1  0
 25 48  1  1
 26 49  1  0
 26 50  1  0
 28 51  1  0
 28 52  1  0
 29 53  1  1
 30 54  1  0
 33 55  1  0
 34 56  1  0
 34 57  1  0
M  END
