
     RDKit          3D

 49 50  0  0  0  0  0  0  0  0999 V2000
    3.0908    1.8706   -0.1559 C   0  0  0  0  0  0  0  0  0  0  0  0
    3.2076    3.3561   -0.4743 C   0  0  0  0  0  0  0  0  0  0  0  0
    4.3640    4.0177    0.2612 C   0  0  0  0  0  0  0  0  0  0  0  0
    1.9705    1.2209   -0.9545 C   0  0  0  0  0  0  0  0  0  0  0  0
    1.7421   -0.1819   -0.5931 N   0  0  0  0  0  0  0  0  0  0  0  0
    0.8083   -0.5518    0.3430 C   0  0  0  0  0  0  0  0  0  0  0  0
    0.0113    0.5746    0.9641 C   0  0  0  0  0  0  0  0  0  0  0  0
    0.4617    1.1578    1.9204 O   0  0  0  0  0  0  0  0  0  0  0  0
   -1.3048    0.8940    0.3679 C   0  0  0  0  0  0  0  0  0  0  0  0
   -1.7548    0.2247   -0.7626 C   0  0  0  0  0  0  0  0  0  0  0  0
   -2.9985    0.5587   -1.2887 C   0  0  0  0  0  0  0  0  0  0  0  0
   -3.4754   -0.1205   -2.4510 C   0  0  0  0  0  0  0  0  0  0  0  0
   -3.8641   -0.6768   -3.3814 N   0  0  0  0  0  0  0  0  0  0  0  0
   -3.7835    1.5438   -0.6956 C   0  0  0  0  0  0  0  0  0  0  0  0
   -3.3376    2.2192    0.4373 C   0  0  0  0  0  0  0  0  0  0  0  0
   -4.1952    3.2602    1.0900 C   0  0  0  0  0  0  0  0  0  0  0  0
   -2.0935    1.8854    0.9541 C   0  0  0  0  0  0  0  0  0  0  0  0
    0.5843   -1.8234    0.7398 C   0  0  0  0  0  0  0  0  0  0  0  0
   -0.4745   -2.1848    1.7556 C   0  0  1  0  0  0  0  0  0  0  0  0
   -1.5433   -3.1142    1.1797 C   0  0  0  0  0  0  0  0  0  0  0  0
    0.1309   -2.7370    3.0469 C   0  0  0  0  0  0  0  0  0  0  0  0
    1.4201   -2.8621    0.1586 C   0  0  0  0  0  0  0  0  0  0  0  0
    1.3633   -4.0491    0.4198 O   0  0  0  0  0  0  0  0  0  0  0  0
    2.3427   -2.4060   -0.7632 N   0  0  0  0  0  0  0  0  0  0  0  0
    2.5648   -1.1210   -1.1737 C   0  0  0  0  0  0  0  0  0  0  0  0
    3.4191   -0.8380   -1.9876 O   0  0  0  0  0  0  0  0  0  0  0  0
    4.0346    1.3683   -0.3822 H   0  0  0  0  0  0  0  0  0  0  0  0
    2.9108    1.7364    0.9138 H   0  0  0  0  0  0  0  0  0  0  0  0
    3.3348    3.4914   -1.5525 H   0  0  0  0  0  0  0  0  0  0  0  0
    2.2712    3.8572   -0.2119 H   0  0  0  0  0  0  0  0  0  0  0  0
    4.2629    3.9023    1.3418 H   0  0  0  0  0  0  0  0  0  0  0  0
    5.3194    3.5783   -0.0297 H   0  0  0  0  0  0  0  0  0  0  0  0
    4.4114    5.0853    0.0458 H   0  0  0  0  0  0  0  0  0  0  0  0
    1.0372    1.7705   -0.8280 H   0  0  0  0  0  0  0  0  0  0  0  0
    2.1882    1.2598   -2.0203 H   0  0  0  0  0  0  0  0  0  0  0  0
   -1.1592   -0.5404   -1.2424 H   0  0  0  0  0  0  0  0  0  0  0  0
   -4.7487    1.7851   -1.1229 H   0  0  0  0  0  0  0  0  0  0  0  0
   -4.9237    2.7925    1.7545 H   0  0  0  0  0  0  0  0  0  0  0  0
   -3.6000    3.9502    1.6853 H   0  0  0  0  0  0  0  0  0  0  0  0
   -4.7510    3.8374    0.3527 H   0  0  0  0  0  0  0  0  0  0  0  0
   -1.7284    2.4040    1.8317 H   0  0  0  0  0  0  0  0  0  0  0  0
   -0.9934   -1.2649    2.0386 H   0  0  0  0  0  0  0  0  0  0  0  0
   -1.1481   -4.1046    0.9628 H   0  0  0  0  0  0  0  0  0  0  0  0
   -2.3581   -3.2265    1.8959 H   0  0  0  0  0  0  0  0  0  0  0  0
   -1.9680   -2.7083    0.2601 H   0  0  0  0  0  0  0  0  0  0  0  0
    0.8716   -2.0501    3.4580 H   0  0  0  0  0  0  0  0  0  0  0  0
   -0.6514   -2.8679    3.7958 H   0  0  0  0  0  0  0  0  0  0  0  0
    0.6085   -3.7030    2.8924 H   0  0  0  0  0  0  0  0  0  0  0  0
    2.9471   -3.1041   -1.1792 H   0  0  0  0  0  0  0  0  0  0  0  0
  1  4  1  0
  1  2  1  0
  1 27  1  0
  1 28  1  0
  3  2  1  0
  2 29  1  0
  2 30  1  0
  3 31  1  0
  3 32  1  0
  3 33  1  0
  5  4  1  0
  4 34  1  0
  4 35  1  0
 25  5  1  0
  5  6  1  0
 18  6  2  0
  6  7  1  0
  7  8  2  0
  7  9  1  0
 17  9  1  0
  9 10  2  0
 10 11  1  0
 10 36  1  0
 14 11  2  0
 11 12  1  0
 12 13  3  0
 15 14  1  0
 14 37  1  0
 17 15  2  0
 16 15  1  0
 16 38  1  0
 16 39  1  0
 16 40  1  0
 17 41  1  0
 22 18  1  0
 18 19  1  0
 21 19  1  0
 19 20  1  0
 19 42  1  1
 20 43  1  0
 20 44  1  0
 20 45  1  0
 21 46  1  0
 21 47  1  0
 21 48  1  0
 23 22  2  0
 24 22  1  0
 24 25  1  0
 24 49  1  0
 26 25  2  0
M  END
