
     RDKit          3D

 51 54  0  0  0  0  0  0  0  0999 V2000
   -2.2558   -0.3623    0.5992 O   0  0  0  0  0  0  0  0  0  0  0  0
   -1.9565   -1.1098   -0.5649 C   0  0  1  0  0  0  0  0  0  0  0  0
   -1.2943   -0.2241   -1.6134 C   0  0  1  0  0  0  0  0  0  0  0  0
   -2.2439    0.8911   -2.0064 C   0  0  0  0  0  0  0  0  0  0  0  0
   -2.8677    1.5023   -0.7841 C   0  0  0  0  0  0  0  0  0  0  0  0
   -3.4983    2.7480   -0.8308 C   0  0  0  0  0  0  0  0  0  0  0  0
   -4.0501    3.3337    0.3022 C   0  0  0  0  0  0  0  0  0  0  0  0
   -3.9741    2.6607    1.5192 C   0  0  0  0  0  0  0  0  0  0  0  0
   -3.3665    1.4164    1.6008 C   0  0  0  0  0  0  0  0  0  0  0  0
   -2.8284    0.8539    0.4475 C   0  0  0  0  0  0  0  0  0  0  0  0
   -1.1008   -2.2835   -0.1780 C   0  0  0  0  0  0  0  0  0  0  0  0
   -1.2120   -3.4494   -0.9224 C   0  0  0  0  0  0  0  0  0  0  0  0
   -0.3923   -4.5375   -0.6489 C   0  0  0  0  0  0  0  0  0  0  0  0
    0.5363   -4.4664    0.3871 C   0  0  0  0  0  0  0  0  0  0  0  0
    0.6346   -3.2960    1.1375 C   0  0  0  0  0  0  0  0  0  0  0  0
   -0.1730   -2.2033    0.8535 C   0  0  0  0  0  0  0  0  0  0  0  0
   -0.1191    0.3027   -1.0005 O   0  0  0  0  0  0  0  0  0  0  0  0
    0.9237    0.6176   -1.7567 C   0  0  0  0  0  0  0  0  0  0  0  0
   -3.5444    3.3517   -2.0331 O   0  0  0  0  0  0  0  0  0  0  0  0
    2.0666    1.1115   -0.9573 C   0  0  0  0  0  0  0  0  0  0  0  0
   -4.4911    3.1770    2.6509 O   0  0  0  0  0  0  0  0  0  0  0  0
    3.2320    1.4568   -1.6328 C   0  0  0  0  0  0  0  0  0  0  0  0
   -0.5259   -5.6535   -1.3938 O   0  0  0  0  0  0  0  0  0  0  0  0
    4.3316    1.9193   -0.9278 C   0  0  0  0  0  0  0  0  0  0  0  0
    1.2923   -5.5662    0.6272 O   0  0  0  0  0  0  0  0  0  0  0  0
    4.2672    2.0409    0.4613 C   0  0  0  0  0  0  0  0  0  0  0  0
    1.5568   -3.3091    2.1260 O   0  0  0  0  0  0  0  0  0  0  0  0
    3.0939    1.6916    1.1328 C   0  0  0  0  0  0  0  0  0  0  0  0
    0.9365    0.5077   -2.9597 O   0  0  0  0  0  0  0  0  0  0  0  0
    1.9952    1.2274    0.4300 C   0  0  0  0  0  0  0  0  0  0  0  0
    5.4494    2.2444   -1.6056 O   0  0  0  0  0  0  0  0  0  0  0  0
    5.3644    2.5015    1.0934 O   0  0  0  0  0  0  0  0  0  0  0  0
    3.1246    1.8395    2.4744 O   0  0  0  0  0  0  0  0  0  0  0  0
   -2.8889   -1.4801   -1.0124 H   0  0  0  0  0  0  0  0  0  0  0  0
   -1.0373   -0.8303   -2.4840 H   0  0  0  0  0  0  0  0  0  0  0  0
   -1.7166    1.6382   -2.6021 H   0  0  0  0  0  0  0  0  0  0  0  0
   -3.0065    0.4641   -2.6647 H   0  0  0  0  0  0  0  0  0  0  0  0
   -4.5378    4.3011    0.2358 H   0  0  0  0  0  0  0  0  0  0  0  0
   -3.3139    0.8856    2.5429 H   0  0  0  0  0  0  0  0  0  0  0  0
   -1.9350   -3.5255   -1.7261 H   0  0  0  0  0  0  0  0  0  0  0  0
   -0.0827   -1.3038    1.4490 H   0  0  0  0  0  0  0  0  0  0  0  0
   -3.9773    4.2100   -1.9650 H   0  0  0  0  0  0  0  0  0  0  0  0
   -4.9024    4.0297    2.4730 H   0  0  0  0  0  0  0  0  0  0  0  0
    3.2950    1.3660   -2.7091 H   0  0  0  0  0  0  0  0  0  0  0  0
    0.1044   -6.3273   -1.1123 H   0  0  0  0  0  0  0  0  0  0  0  0
    2.0278   -5.3568    1.2141 H   0  0  0  0  0  0  0  0  0  0  0  0
    1.5776   -2.4642    2.5880 H   0  0  0  0  0  0  0  0  0  0  0  0
    1.0923    0.9664    0.9668 H   0  0  0  0  0  0  0  0  0  0  0  0
    6.1475    2.5234   -1.0013 H   0  0  0  0  0  0  0  0  0  0  0  0
    5.2421    2.5052    2.0504 H   0  0  0  0  0  0  0  0  0  0  0  0
    2.2891    1.5694    2.8712 H   0  0  0  0  0  0  0  0  0  0  0  0
  1  2  1  0
  1 10  1  0
  2  3  1  0
  2 11  1  0
  3  4  1  0
  3 17  1  0
  4  5  1  0
  5  6  1  0
  5 10  2  0
  6  7  2  0
  6 19  1  0
  7  8  1  0
  8  9  2  0
  8 21  1  0
  9 10  1  0
 11 12  2  0
 11 16  1  0
 12 13  1  0
 13 14  2  0
 13 23  1  0
 14 15  1  0
 14 25  1  0
 15 16  2  0
 15 27  1  0
 17 18  1  0
 18 20  1  0
 18 29  2  0
 20 22  2  0
 20 30  1  0
 22 24  1  0
 24 26  2  0
 24 31  1  0
 26 28  1  0
 26 32  1  0
 28 30  2  0
 28 33  1  0
  2 34  1  6
  3 35  1  6
  4 36  1  0
  4 37  1  0
  7 38  1  0
  9 39  1  0
 12 40  1  0
 16 41  1  0
 19 42  1  0
 21 43  1  0
 22 44  1  0
 23 45  1  0
 25 46  1  0
 27 47  1  0
 30 48  1  0
 31 49  1  0
 32 50  1  0
 33 51  1  0
M  END
