
     RDKit          3D

 47 48  0  0  0  0  0  0  0  0999 V2000
    1.9821    0.1075   -0.7624 C   0  0  0  0  0  0  0  0  0  0  0  0
   -6.8823    0.1550   -0.3262 C   0  0  0  0  0  0  0  0  0  0  0  0
   -7.8197   -0.8129    0.0355 C   0  0  0  0  0  0  0  0  0  0  0  0
   -6.1105   -1.9850    1.2565 C   0  0  0  0  0  0  0  0  0  0  0  0
   -5.5660    0.0432    0.1131 C   0  0  0  0  0  0  0  0  0  0  0  0
   -8.5141    1.3307   -1.5350 O   0  0  0  0  0  0  0  0  0  0  0  0
   -7.2371    1.3176   -1.1776 C   0  0  0  0  0  0  0  0  0  0  0  0
   -6.4503    2.1696   -1.5170 O   0  0  0  0  0  0  0  0  0  0  0  0
   -7.4267   -1.8796    0.8266 C   0  0  0  0  0  0  0  0  0  0  0  0
   -5.1668   -1.0224    0.9110 C   0  0  0  0  0  0  0  0  0  0  0  0
   -3.7513   -1.1164    1.4175 C   0  0  0  0  0  0  0  0  0  0  0  0
   -2.7890   -0.7094    0.4158 N   0  0  0  0  0  0  0  0  0  0  0  0
   -1.4260   -0.7024    0.9138 C   0  0  0  0  0  0  0  0  0  0  0  0
   -0.4437   -0.2931   -0.1713 C   0  0  0  0  0  0  0  0  0  0  0  0
    0.9947   -0.2703    0.3292 C   0  0  0  0  0  0  0  0  0  0  0  0
    3.3446    0.1053   -0.2547 N   0  0  0  0  0  0  0  0  0  0  0  0
    4.3161    0.4349   -1.2823 C   0  0  0  0  0  0  0  0  0  0  0  0
    5.7074    0.2643   -0.7501 C   0  0  0  0  0  0  0  0  0  0  0  0
    6.1563    1.2435    0.0891 N   0  0  0  0  0  0  0  0  0  0  0  0
    6.4818   -0.8024   -1.0303 C   0  0  0  0  0  0  0  0  0  0  0  0
    7.7929   -0.9245   -0.4419 C   0  0  0  0  0  0  0  0  0  0  0  0
    8.5697   -1.8443   -0.6264 O   0  0  0  0  0  0  0  0  0  0  0  0
    8.1371    0.1243    0.3995 N   0  0  0  0  0  0  0  0  0  0  0  0
    7.3824    1.2264    0.7023 C   0  0  0  0  0  0  0  0  0  0  0  0
    7.7615    2.1087    1.4438 O   0  0  0  0  0  0  0  0  0  0  0  0
    1.9234   -0.6244   -1.5737 H   0  0  0  0  0  0  0  0  0  0  0  0
    1.6973    1.0778   -1.1986 H   0  0  0  0  0  0  0  0  0  0  0  0
   -8.8465   -0.7474   -0.2960 H   0  0  0  0  0  0  0  0  0  0  0  0
   -5.8136   -2.8304    1.8664 H   0  0  0  0  0  0  0  0  0  0  0  0
   -4.8361    0.7899   -0.1696 H   0  0  0  0  0  0  0  0  0  0  0  0
   -8.6914    2.1036   -2.0913 H   0  0  0  0  0  0  0  0  0  0  0  0
   -8.1476   -2.6365    1.1055 H   0  0  0  0  0  0  0  0  0  0  0  0
   -3.6438   -0.4463    2.2773 H   0  0  0  0  0  0  0  0  0  0  0  0
   -3.5729   -2.1313    1.8043 H   0  0  0  0  0  0  0  0  0  0  0  0
   -2.8484   -1.3445   -0.3724 H   0  0  0  0  0  0  0  0  0  0  0  0
   -1.3715    0.0117    1.7420 H   0  0  0  0  0  0  0  0  0  0  0  0
   -1.1242   -1.6778    1.3288 H   0  0  0  0  0  0  0  0  0  0  0  0
   -0.5231   -0.9897   -1.0134 H   0  0  0  0  0  0  0  0  0  0  0  0
   -0.7232    0.6929   -0.5538 H   0  0  0  0  0  0  0  0  0  0  0  0
    1.2665   -1.2517    0.7287 H   0  0  0  0  0  0  0  0  0  0  0  0
    1.0798    0.4400    1.1590 H   0  0  0  0  0  0  0  0  0  0  0  0
    3.4058    0.7791    0.5004 H   0  0  0  0  0  0  0  0  0  0  0  0
    4.1875   -0.2559   -2.1160 H   0  0  0  0  0  0  0  0  0  0  0  0
    4.2029    1.4511   -1.6898 H   0  0  0  0  0  0  0  0  0  0  0  0
    9.0493    0.0819    0.8364 H   0  0  0  0  0  0  0  0  0  0  0  0
    5.5844    2.0590    0.2602 H   0  0  0  0  0  0  0  0  0  0  0  0
    6.1292   -1.5817   -1.6890 H   0  0  0  0  0  0  0  0  0  0  0  0
  1 15  1  0
  1 16  1  0
  1 26  1  0
  1 27  1  0
  2  5  2  0
  2  7  1  0
  3  2  1  0
  3 28  1  0
  4 10  2  0
  4 29  1  0
  5 30  1  0
  6 31  1  0
  7  6  1  0
  8  7  2  0
  9  3  2  0
  9  4  1  0
  9 32  1  0
 10  5  1  0
 10 11  1  0
 11 12  1  0
 11 33  1  0
 11 34  1  0
 12 13  1  0
 12 35  1  0
 13 14  1  0
 13 36  1  0
 13 37  1  0
 14 15  1  0
 14 38  1  0
 14 39  1  0
 15 40  1  0
 15 41  1  0
 16 42  1  0
 17 16  1  0
 17 43  1  0
 17 44  1  0
 18 17  1  0
 18 20  2  0
 19 18  1  0
 21 20  1  0
 21 22  2  0
 23 21  1  0
 23 45  1  0
 24 19  1  0
 24 23  1  0
 25 24  2  0
 19 46  1  0
 20 47  1  0
M  END
