
     RDKit          3D

 30 30  0  0  0  0  0  0  0  0999 V2000
    1.7235   -1.0736    2.5964 C   0  0  0  0  0  0  0  0  0  0  0  0
    0.7609   -0.3831    1.8770 C   0  0  0  0  0  0  0  0  0  0  0  0
    0.8486   -0.3529    0.4927 C   0  0  0  0  0  0  0  0  0  0  0  0
    1.8861   -0.9957   -0.1761 C   0  0  0  0  0  0  0  0  0  0  0  0
    2.8444   -1.6785    0.5747 C   0  0  0  0  0  0  0  0  0  0  0  0
    2.7719   -1.7227    1.9546 C   0  0  0  0  0  0  0  0  0  0  0  0
    1.6386   -1.1274    4.3604 S   0  0  1  0  0  0  0  0  0  0  0  0
    2.9846   -1.1009    4.9152 O   0  0  0  0  0  0  0  0  0  0  0  0
    0.6922   -0.1094    4.7983 O   0  0  0  0  0  0  0  0  0  0  0  0
    1.0826   -2.6653    4.6044 N   0  0  0  0  0  0  0  0  0  0  0  0
    1.9476   -1.0073   -1.6743 C   0  0  0  0  0  0  0  0  0  0  0  0
    1.3051   -2.2710   -2.2598 C   0  0  0  0  0  0  0  0  0  0  0  0
   -0.0824   -2.4289   -1.8940 N   0  0  0  0  0  0  0  0  0  0  0  0
   -1.0818   -1.7636   -2.4980 C   0  0  0  0  0  0  0  0  0  0  0  0
   -2.4600   -2.0056   -1.9350 C   0  0  0  0  0  0  0  0  0  0  0  0
   -0.8957   -1.0133   -3.4476 O   0  0  0  0  0  0  0  0  0  0  0  0
   -0.0505    0.1267    2.3778 H   0  0  0  0  0  0  0  0  0  0  0  0
    0.1005    0.1893   -0.0715 H   0  0  0  0  0  0  0  0  0  0  0  0
    3.6633   -2.1780    0.0718 H   0  0  0  0  0  0  0  0  0  0  0  0
    3.5284   -2.2527    2.5180 H   0  0  0  0  0  0  0  0  0  0  0  0
    1.2295   -2.9625    5.5651 H   0  0  0  0  0  0  0  0  0  0  0  0
    0.1033   -2.7676    4.3571 H   0  0  0  0  0  0  0  0  0  0  0  0
    2.9868   -0.9712   -2.0084 H   0  0  0  0  0  0  0  0  0  0  0  0
    1.4471   -0.1279   -2.0820 H   0  0  0  0  0  0  0  0  0  0  0  0
    1.3953   -2.2487   -3.3458 H   0  0  0  0  0  0  0  0  0  0  0  0
    1.8400   -3.1546   -1.9115 H   0  0  0  0  0  0  0  0  0  0  0  0
   -0.2957   -3.0013   -1.0948 H   0  0  0  0  0  0  0  0  0  0  0  0
   -2.8812   -1.0594   -1.5952 H   0  0  0  0  0  0  0  0  0  0  0  0
   -3.1110   -2.3849   -2.7226 H   0  0  0  0  0  0  0  0  0  0  0  0
   -2.4767   -2.7073   -1.1035 H   0  0  0  0  0  0  0  0  0  0  0  0
  1  7  1  0
  1  6  2  0
  1  2  1  0
  2  3  2  0
  2 17  1  0
  3  4  1  0
  3 18  1  0
  4  5  2  0
  4 11  1  0
  5  6  1  0
  5 19  1  0
  6 20  1  0
  7  8  2  0
  7  9  2  0
  7 10  1  6
 10 21  1  0
 10 22  1  0
 11 12  1  0
 11 23  1  0
 11 24  1  0
 12 13  1  0
 12 25  1  0
 12 26  1  0
 13 14  1  0
 13 27  1  0
 14 16  2  0
 14 15  1  0
 15 28  1  0
 15 29  1  0
 15 30  1  0
M  END
