
     RDKit          3D

 52 54  0  0  0  0  0  0  0  0999 V2000
   -6.3180   -0.2447   -1.8892 O   0  0  0  0  0  0  0  0  0  0  0  0
   -6.6778    0.6987   -1.2375 C   0  0  0  0  0  0  0  0  0  0  0  0
   -7.6071    1.5629   -1.6245 O   0  0  0  0  0  0  0  0  0  0  0  0
   -6.1416    1.0665    0.1227 C   0  0  0  0  0  0  0  0  0  0  0  0
   -5.1527    0.1563    0.4783 O   0  0  0  0  0  0  0  0  0  0  0  0
   -4.5796    0.4494    1.7317 C   0  0  0  0  0  0  0  0  0  0  0  0
   -3.5087   -0.5731    2.0457 C   0  0  0  0  0  0  0  0  0  0  0  0
   -2.4229   -0.5929    1.0883 N   0  0  0  0  0  0  0  0  0  0  0  0
   -1.6320   -1.8020    1.1997 C   0  0  0  0  0  0  0  0  0  0  0  0
   -0.5501   -1.8395    0.1394 C   0  0  0  0  0  0  0  0  0  0  0  0
   -1.5567    0.5642    1.1923 C   0  0  0  0  0  0  0  0  0  0  0  0
   -0.4677    0.5222    0.1395 C   0  0  0  0  0  0  0  0  0  0  0  0
    0.3287   -0.6878    0.2746 N   0  0  0  0  0  0  0  0  0  0  0  0
    1.4457   -0.7113   -0.6531 C   0  0  1  0  0  0  0  0  0  0  0  0
    2.3946    0.4474   -0.4078 C   0  0  0  0  0  0  0  0  0  0  0  0
    3.0284    1.0675   -1.4776 C   0  0  0  0  0  0  0  0  0  0  0  0
    3.9516    2.0846   -1.2763 C   0  0  0  0  0  0  0  0  0  0  0  0
    4.2360    2.4870    0.0178 C   0  0  0  0  0  0  0  0  0  0  0  0
    5.3826    3.7610    0.2861 Cl  0  0  0  0  0  0  0  0  0  0  0  0
    3.6116    1.8912    1.1037 C   0  0  0  0  0  0  0  0  0  0  0  0
    2.6968    0.8744    0.8826 C   0  0  0  0  0  0  0  0  0  0  0  0
    2.2491   -1.9941   -0.5495 C   0  0  0  0  0  0  0  0  0  0  0  0
    2.6615   -2.6463   -1.7051 C   0  0  0  0  0  0  0  0  0  0  0  0
    3.4435   -3.7935   -1.6344 C   0  0  0  0  0  0  0  0  0  0  0  0
    3.8168   -4.3048   -0.4004 C   0  0  0  0  0  0  0  0  0  0  0  0
    3.4015   -3.6621    0.7609 C   0  0  0  0  0  0  0  0  0  0  0  0
    2.6268   -2.5146    0.6871 C   0  0  0  0  0  0  0  0  0  0  0  0
   -7.9425    1.3221   -2.5010 H   0  0  0  0  0  0  0  0  0  0  0  0
   -5.7626    2.0987    0.0805 H   0  0  0  0  0  0  0  0  0  0  0  0
   -6.9787    1.0780    0.8370 H   0  0  0  0  0  0  0  0  0  0  0  0
   -4.1716    1.4695    1.7389 H   0  0  0  0  0  0  0  0  0  0  0  0
   -5.3360    0.4130    2.5275 H   0  0  0  0  0  0  0  0  0  0  0  0
   -3.1555   -0.3813    3.0732 H   0  0  0  0  0  0  0  0  0  0  0  0
   -3.9712   -1.5641    2.0608 H   0  0  0  0  0  0  0  0  0  0  0  0
   -1.1596   -1.8944    2.1935 H   0  0  0  0  0  0  0  0  0  0  0  0
   -2.2840   -2.6692    1.0725 H   0  0  0  0  0  0  0  0  0  0  0  0
    0.0205   -2.7603    0.2577 H   0  0  0  0  0  0  0  0  0  0  0  0
   -1.0185   -1.8724   -0.8589 H   0  0  0  0  0  0  0  0  0  0  0  0
   -2.1358    1.4787    1.0523 H   0  0  0  0  0  0  0  0  0  0  0  0
   -1.0885    0.6290    2.1906 H   0  0  0  0  0  0  0  0  0  0  0  0
   -0.9240    0.5886   -0.8628 H   0  0  0  0  0  0  0  0  0  0  0  0
    0.1652    1.4018    0.2611 H   0  0  0  0  0  0  0  0  0  0  0  0
    1.0893   -0.6317   -1.6957 H   0  0  0  0  0  0  0  0  0  0  0  0
    2.8040    0.7579   -2.4915 H   0  0  0  0  0  0  0  0  0  0  0  0
    4.4356    2.5570   -2.1203 H   0  0  0  0  0  0  0  0  0  0  0  0
    3.8315    2.2167    2.1114 H   0  0  0  0  0  0  0  0  0  0  0  0
    2.1990    0.4198    1.7291 H   0  0  0  0  0  0  0  0  0  0  0  0
    2.3681   -2.2569   -2.6731 H   0  0  0  0  0  0  0  0  0  0  0  0
    3.7524   -4.2895   -2.5457 H   0  0  0  0  0  0  0  0  0  0  0  0
    4.4225   -5.1997   -0.3407 H   0  0  0  0  0  0  0  0  0  0  0  0
    3.6797   -4.0588    1.7289 H   0  0  0  0  0  0  0  0  0  0  0  0
    2.2984   -2.0325    1.5996 H   0  0  0  0  0  0  0  0  0  0  0  0
 19 18  1  0
 20 21  2  0
 20 18  1  0
 21 15  1  0
 18 17  2  0
 11 12  1  0
 11  8  1  0
  7  8  1  0
  7  6  1  0
  5  6  1  0
  5  4  1  0
 12 13  1  0
  8  9  1  0
  9 10  1  0
 13 10  1  0
 13 14  1  0
  1  2  2  0
 15 14  1  0
 15 16  2  0
 17 16  1  0
 27 26  2  0
 27 22  1  0
  4  2  1  0
 26 25  1  0
  2  3  1  0
 14 22  1  0
 22 23  2  0
 25 24  2  0
 23 24  1  0
  3 28  1  0
  4 29  1  0
  4 30  1  0
  6 31  1  0
  6 32  1  0
  7 33  1  0
  7 34  1  0
  9 35  1  0
  9 36  1  0
 10 37  1  0
 10 38  1  0
 11 39  1  0
 11 40  1  0
 12 41  1  0
 12 42  1  0
 14 43  1  6
 16 44  1  0
 17 45  1  0
 20 46  1  0
 21 47  1  0
 23 48  1  0
 24 49  1  0
 25 50  1  0
 26 51  1  0
 27 52  1  0
M  END
