
     RDKit          3D

 47 50  0  0  0  0  0  0  0  0999 V2000
    3.5058   -1.2057   -0.5319 C   0  0  0  0  0  0  0  0  0  0  0  0
   -0.4737    0.1495    0.6739 C   0  0  2  0  0  0  0  0  0  0  0  0
   -0.2941   -1.0894   -0.2349 C   0  0  1  0  0  0  0  0  0  0  0  0
    1.0442   -1.8665    0.0021 C   0  0  2  0  0  0  0  0  0  0  0  0
   -1.7586    0.9189    0.3288 C   0  0  2  0  0  0  0  0  0  0  0  0
   -3.0341    0.0431    0.3967 C   0  0  2  0  0  0  0  0  0  0  0  0
   -2.8207   -1.2053   -0.4588 C   0  0  0  0  0  0  0  0  0  0  0  0
   -1.5416   -1.9678   -0.1209 C   0  0  0  0  0  0  0  0  0  0  0  0
   -4.2041    0.8777   -0.0594 C   0  0  0  0  0  0  0  0  0  0  0  0
    1.1615   -3.0016   -1.0171 C   0  0  0  0  0  0  0  0  0  0  0  0
    1.1103   -2.4552    1.4199 C   0  0  0  0  0  0  0  0  0  0  0  0
    4.5028   -0.2095   -0.5658 C   0  0  0  0  0  0  0  0  0  0  0  0
   -3.3110   -0.3264    1.8623 C   0  0  0  0  0  0  0  0  0  0  0  0
   -5.0887    0.5669   -0.9973 C   0  0  0  0  0  0  0  0  0  0  0  0
    4.2562    1.1100   -0.2268 C   0  0  0  0  0  0  0  0  0  0  0  0
    2.9506    1.4229    0.1547 C   0  0  0  0  0  0  0  0  0  0  0  0
    1.9653    0.4260    0.1849 C   0  0  0  0  0  0  0  0  0  0  0  0
    2.2110   -0.9017   -0.1504 C   0  0  0  0  0  0  0  0  0  0  0  0
    1.0065    2.3345    0.7989 C   0  0  0  0  0  0  0  0  0  0  0  0
    0.7417    1.0108    0.5920 C   0  0  0  0  0  0  0  0  0  0  0  0
   -1.6370    1.4923   -0.9673 N   0  0  0  0  0  0  0  0  0  0  0  0
    2.3354    2.5797    0.5397 N   0  0  0  0  0  0  0  0  0  0  0  0
    3.7844   -2.2140   -0.8104 H   0  0  0  0  0  0  0  0  0  0  0  0
   -0.5996   -0.1940    1.7070 H   0  0  0  0  0  0  0  0  0  0  0  0
   -0.2419   -0.7205   -1.2683 H   0  0  0  0  0  0  0  0  0  0  0  0
   -1.8669    1.7516    1.0315 H   0  0  0  0  0  0  0  0  0  0  0  0
   -3.6812   -1.8699   -0.3476 H   0  0  0  0  0  0  0  0  0  0  0  0
   -2.7900   -0.9211   -1.5151 H   0  0  0  0  0  0  0  0  0  0  0  0
   -1.4777   -2.8147   -0.8045 H   0  0  0  0  0  0  0  0  0  0  0  0
   -1.6126   -2.3934    0.8835 H   0  0  0  0  0  0  0  0  0  0  0  0
   -4.3270    1.8166    0.4775 H   0  0  0  0  0  0  0  0  0  0  0  0
    1.1134   -2.6223   -2.0397 H   0  0  0  0  0  0  0  0  0  0  0  0
    2.1024   -3.5407   -0.9044 H   0  0  0  0  0  0  0  0  0  0  0  0
    0.3679   -3.7363   -0.8909 H   0  0  0  0  0  0  0  0  0  0  0  0
    0.3258   -3.1957    1.5852 H   0  0  0  0  0  0  0  0  0  0  0  0
    2.0673   -2.9559    1.5754 H   0  0  0  0  0  0  0  0  0  0  0  0
    1.0158   -1.6857    2.1877 H   0  0  0  0  0  0  0  0  0  0  0  0
    5.5029   -0.4922   -0.8693 H   0  0  0  0  0  0  0  0  0  0  0  0
   -3.4120    0.5678    2.4798 H   0  0  0  0  0  0  0  0  0  0  0  0
   -4.2444   -0.8858    1.9275 H   0  0  0  0  0  0  0  0  0  0  0  0
   -2.5303   -0.9442    2.3040 H   0  0  0  0  0  0  0  0  0  0  0  0
   -5.9121    1.2318   -1.2247 H   0  0  0  0  0  0  0  0  0  0  0  0
   -5.0378   -0.3497   -1.5712 H   0  0  0  0  0  0  0  0  0  0  0  0
    5.0414    1.8540   -0.2610 H   0  0  0  0  0  0  0  0  0  0  0  0
    0.3585    3.1441    1.0973 H   0  0  0  0  0  0  0  0  0  0  0  0
    2.7689    3.4854    0.6028 H   0  0  0  0  0  0  0  0  0  0  0  0
   -1.5391    1.9464   -2.0326 C   0  0  0  0  0  0  0  0  0  0  0  0
 47 21  3  0
 22 19  1  0
 22 16  1  0
 19 20  2  0
 21  5  1  0
 16 15  2  0
 16 17  1  0
 15 12  1  0
 20 17  1  0
 20  2  1  0
  5  2  1  0
  5  6  1  0
  9 14  2  0
  6  9  1  6
 17 18  2  0
 12  1  2  0
  2  3  1  0
  6  7  1  0
  6 13  1  0
 18  1  1  0
 18  4  1  0
  7  8  1  0
  3  4  1  0
  3  8  1  0
  4 10  1  6
  4 11  1  0
  1 23  1  0
  2 24  1  1
  3 25  1  6
  5 26  1  1
  7 27  1  0
  7 28  1  0
  8 29  1  0
  8 30  1  0
  9 31  1  0
 10 32  1  0
 10 33  1  0
 10 34  1  0
 11 35  1  0
 11 36  1  0
 11 37  1  0
 12 38  1  0
 13 39  1  0
 13 40  1  0
 13 41  1  0
 14 42  1  0
 14 43  1  0
 15 44  1  0
 19 45  1  0
 22 46  1  0
M  CHG  1  21   1
M  END
