
     RDKit          3D

 76 78  0  0  0  0  0  0  0  0999 V2000
   -2.7504    0.3483    7.7367 O   0  0  0  0  0  0  0  0  0  0  0  0
   -1.4467   -0.0561    8.1410 C   0  0  2  0  0  0  0  0  0  0  0  0
   -1.5471   -1.1253    9.2290 C   0  0  0  0  0  0  0  0  0  0  0  0
   -0.7789    1.1901    8.7090 C   0  0  0  0  0  0  0  0  0  0  0  0
   -0.6658   -0.6280    6.9483 C   0  0  0  0  0  0  0  0  0  0  0  0
   -0.4691    0.3149    5.7677 C   0  0  0  0  0  0  0  0  0  0  0  0
    0.2784   -0.3598    4.6210 C   0  0  0  0  0  0  0  0  0  0  0  0
    0.5215    0.5350    3.3962 C   0  0  1  0  0  0  0  0  0  0  0  0
    1.4816    1.6666    3.7553 C   0  0  0  0  0  0  0  0  0  0  0  0
    1.0086   -0.3174    2.2151 C   0  0  1  0  0  0  0  0  0  0  0  0
   -0.0319   -1.3898    1.7956 C   0  0  0  0  0  0  0  0  0  0  0  0
    1.3686    0.3859    0.8841 C   0  0  2  0  0  0  0  0  0  0  0  0
    0.2840    1.3881    0.4852 C   0  0  0  0  0  0  0  0  0  0  0  0
    1.3736   -0.8304   -0.0755 C   0  0  1  0  0  0  0  0  0  0  0  0
    0.1042   -1.5904    0.2739 C   0  0  0  0  0  0  0  0  0  0  0  0
    2.7598    1.0241    0.8211 C   0  0  0  0  0  0  0  0  0  0  0  0
    3.1557    1.4014   -0.6060 C   0  0  0  0  0  0  0  0  0  0  0  0
    3.0142    0.2381   -1.5937 C   0  0  0  0  0  0  0  0  0  0  0  0
    1.6736   -0.4377   -1.4882 C   0  0  0  0  0  0  0  0  0  0  0  0
    0.8441   -0.6886   -2.5140 C   0  0  0  0  0  0  0  0  0  0  0  0
    1.0645   -0.3231   -3.9023 C   0  0  0  0  0  0  0  0  0  0  0  0
    0.3058   -0.6676   -4.9544 C   0  0  0  0  0  0  0  0  0  0  0  0
   -0.9325   -1.5087   -4.9066 C   0  0  0  0  0  0  0  0  0  0  0  0
    0.6482   -0.2118   -6.3422 C   0  0  0  0  0  0  0  0  0  0  0  0
   -0.5228    0.5177   -7.0072 C   0  0  1  0  0  0  0  0  0  0  0  0
   -0.2285    0.8206   -8.3565 O   0  0  0  0  0  0  0  0  0  0  0  0
   -1.7861   -0.3407   -6.9813 C   0  0  2  0  0  0  0  0  0  0  0  0
   -2.9737    0.3468   -7.6467 C   0  0  0  0  0  0  0  0  0  0  0  0
   -2.1133   -0.7803   -5.5532 C   0  0  2  0  0  0  0  0  0  0  0  0
   -2.4732    0.3664   -4.8111 O   0  0  0  0  0  0  0  0  0  0  0  0
   -3.1998   -0.4201    7.3685 H   0  0  0  0  0  0  0  0  0  0  0  0
   -2.1134   -0.7599   10.0879 H   0  0  0  0  0  0  0  0  0  0  0  0
   -2.0441   -2.0242    8.8550 H   0  0  0  0  0  0  0  0  0  0  0  0
   -0.5583   -1.4215    9.5818 H   0  0  0  0  0  0  0  0  0  0  0  0
    0.2549    0.9793    8.9840 H   0  0  0  0  0  0  0  0  0  0  0  0
   -0.7735    2.0123    7.9928 H   0  0  0  0  0  0  0  0  0  0  0  0
   -1.2990    1.5315    9.6060 H   0  0  0  0  0  0  0  0  0  0  0  0
   -1.1821   -1.5344    6.6054 H   0  0  0  0  0  0  0  0  0  0  0  0
    0.3135   -0.9643    7.3048 H   0  0  0  0  0  0  0  0  0  0  0  0
    0.0777    1.2011    6.0976 H   0  0  0  0  0  0  0  0  0  0  0  0
   -1.4393    0.6685    5.4062 H   0  0  0  0  0  0  0  0  0  0  0  0
   -0.2880   -1.2475    4.3255 H   0  0  0  0  0  0  0  0  0  0  0  0
    1.2456   -0.7300    4.9837 H   0  0  0  0  0  0  0  0  0  0  0  0
   -0.4423    0.9797    3.1150 H   0  0  0  0  0  0  0  0  0  0  0  0
    2.4868    1.2828    3.9458 H   0  0  0  0  0  0  0  0  0  0  0  0
    1.5564    2.4148    2.9679 H   0  0  0  0  0  0  0  0  0  0  0  0
    1.1575    2.1907    4.6544 H   0  0  0  0  0  0  0  0  0  0  0  0
    1.9199   -0.8348    2.5470 H   0  0  0  0  0  0  0  0  0  0  0  0
    0.1334   -2.3232    2.3345 H   0  0  0  0  0  0  0  0  0  0  0  0
   -1.0415   -1.0599    2.0540 H   0  0  0  0  0  0  0  0  0  0  0  0
    0.4276    1.7601   -0.5295 H   0  0  0  0  0  0  0  0  0  0  0  0
   -0.7144    0.9491    0.5209 H   0  0  0  0  0  0  0  0  0  0  0  0
    0.2784    2.2511    1.1534 H   0  0  0  0  0  0  0  0  0  0  0  0
    2.2216   -1.4523    0.2540 H   0  0  0  0  0  0  0  0  0  0  0  0
    0.1680   -2.6427   -0.0079 H   0  0  0  0  0  0  0  0  0  0  0  0
   -0.7612   -1.1788   -0.2500 H   0  0  0  0  0  0  0  0  0  0  0  0
    3.4873    0.3078    1.2215 H   0  0  0  0  0  0  0  0  0  0  0  0
    2.8237    1.9090    1.4553 H   0  0  0  0  0  0  0  0  0  0  0  0
    4.1897    1.7540   -0.6151 H   0  0  0  0  0  0  0  0  0  0  0  0
    2.5498    2.2432   -0.9524 H   0  0  0  0  0  0  0  0  0  0  0  0
    3.7835   -0.5098   -1.3636 H   0  0  0  0  0  0  0  0  0  0  0  0
    3.2266    0.5881   -2.6037 H   0  0  0  0  0  0  0  0  0  0  0  0
   -0.0760   -1.2174   -2.2886 H   0  0  0  0  0  0  0  0  0  0  0  0
    1.9339    0.2904   -4.1171 H   0  0  0  0  0  0  0  0  0  0  0  0
   -0.7600   -2.4363   -5.4654 H   0  0  0  0  0  0  0  0  0  0  0  0
   -1.2009   -1.8127   -3.8927 H   0  0  0  0  0  0  0  0  0  0  0  0
    1.5287    0.4371   -6.3267 H   0  0  0  0  0  0  0  0  0  0  0  0
    0.8991   -1.0823   -6.9633 H   0  0  0  0  0  0  0  0  0  0  0  0
   -0.7153    1.4430   -6.4458 H   0  0  0  0  0  0  0  0  0  0  0  0
    0.5146    1.4316   -8.3703 H   0  0  0  0  0  0  0  0  0  0  0  0
   -1.5666   -1.2627   -7.5359 H   0  0  0  0  0  0  0  0  0  0  0  0
   -3.8635   -0.2836   -7.5947 H   0  0  0  0  0  0  0  0  0  0  0  0
   -3.2096    1.2967   -7.1657 H   0  0  0  0  0  0  0  0  0  0  0  0
   -2.7794    0.5448   -8.6997 H   0  0  0  0  0  0  0  0  0  0  0  0
   -2.9571   -1.4838   -5.6047 H   0  0  0  0  0  0  0  0  0  0  0  0
   -2.6286    0.1007   -3.8996 H   0  0  0  0  0  0  0  0  0  0  0  0
  2  1  1  6
  1 31  1  0
  2  3  1  0
  2  4  1  0
  2  5  1  0
  3 32  1  0
  3 33  1  0
  3 34  1  0
  4 35  1  0
  4 36  1  0
  4 37  1  0
  5  6  1  0
  5 38  1  0
  5 39  1  0
  6  7  1  0
  6 40  1  0
  6 41  1  0
  7  8  1  0
  7 42  1  0
  7 43  1  0
  8  9  1  0
  8 10  1  0
  8 44  1  6
  9 45  1  0
  9 46  1  0
  9 47  1  0
 10 11  1  0
 10 12  1  0
 10 48  1  1
 11 15  1  0
 11 49  1  0
 11 50  1  0
 12 13  1  6
 12 14  1  0
 12 16  1  0
 13 51  1  0
 13 52  1  0
 13 53  1  0
 14 15  1  0
 14 19  1  0
 14 54  1  1
 15 55  1  0
 15 56  1  0
 16 17  1  0
 16 57  1  0
 16 58  1  0
 17 18  1  0
 17 59  1  0
 17 60  1  0
 18 19  1  0
 18 61  1  0
 18 62  1  0
 19 20  2  0
 20 21  1  0
 20 63  1  0
 21 22  2  0
 21 64  1  0
 22 23  1  0
 22 24  1  0
 23 29  1  0
 23 65  1  0
 23 66  1  0
 24 25  1  0
 24 67  1  0
 24 68  1  0
 25 26  1  0
 25 27  1  0
 25 69  1  1
 26 70  1  0
 27 28  1  0
 27 29  1  0
 27 71  1  6
 28 72  1  0
 28 73  1  0
 28 74  1  0
 29 30  1  0
 29 75  1  6
 30 76  1  0
M  END
