
     RDKit          3D

 49 52  0  0  0  0  0  0  0  0999 V2000
    2.1787   -1.7414   -0.2382 O   0  0  0  0  0  0  0  0  0  0  0  0
    2.1166   -0.5207   -0.1827 C   0  0  0  0  0  0  0  0  0  0  0  0
    3.2203    0.2471   -0.2155 N   0  0  0  0  0  0  0  0  0  0  0  0
    3.2544    1.7043   -0.1376 C   0  0  0  0  0  0  0  0  0  0  0  0
    4.7171    1.9991    0.1642 C   0  0  0  0  0  0  0  0  0  0  0  0
    5.4498    0.8745   -0.5584 C   0  0  0  0  0  0  0  0  0  0  0  0
    4.5433   -0.3499   -0.3561 C   0  0  1  0  0  0  0  0  0  0  0  0
    4.9233   -1.1291    0.8728 C   0  0  0  0  0  0  0  0  0  0  0  0
    5.5619   -2.2139    0.7872 N   0  0  0  0  0  0  0  0  0  0  0  0
    0.7985    0.2196   -0.0450 C   0  0  0  0  0  0  0  0  0  0  0  0
   -0.3126   -0.6792   -0.2302 N   0  0  0  0  0  0  0  0  0  0  0  0
   -1.6478   -0.1195   -0.0384 C   0  0  1  0  0  0  0  0  0  0  0  0
   -1.8930    0.4511    1.3689 C   0  0  0  0  0  0  0  0  0  0  0  0
   -3.3330    0.9532    1.4975 C   0  0  1  0  0  0  0  0  0  0  0  0
   -3.5863    2.0482    0.4607 C   0  0  0  0  0  0  0  0  0  0  0  0
   -3.3676    1.4751   -0.9402 C   0  0  1  0  0  0  0  0  0  0  0  0
   -1.9268    0.9782   -1.0708 C   0  0  0  0  0  0  0  0  0  0  0  0
   -4.3345    0.3129   -1.1736 C   0  0  0  0  0  0  0  0  0  0  0  0
   -4.2961   -0.2119    1.2609 C   0  0  0  0  0  0  0  0  0  0  0  0
   -4.0824   -0.7873   -0.1404 C   0  0  1  0  0  0  0  0  0  0  0  0
   -4.9111   -1.9132   -0.3697 O   0  0  0  0  0  0  0  0  0  0  0  0
   -2.6396   -1.2665   -0.2745 C   0  0  0  0  0  0  0  0  0  0  0  0
    2.9501    2.1527   -1.0884 H   0  0  0  0  0  0  0  0  0  0  0  0
    2.5897    2.0805    0.6403 H   0  0  0  0  0  0  0  0  0  0  0  0
    5.0137    2.9893   -0.1775 H   0  0  0  0  0  0  0  0  0  0  0  0
    4.8962    1.9497    1.2401 H   0  0  0  0  0  0  0  0  0  0  0  0
    5.5197    1.0939   -1.6256 H   0  0  0  0  0  0  0  0  0  0  0  0
    6.4619    0.7069   -0.1917 H   0  0  0  0  0  0  0  0  0  0  0  0
    4.5862   -1.0214   -1.2159 H   0  0  0  0  0  0  0  0  0  0  0  0
    4.6386   -0.6664    1.8232 H   0  0  0  0  0  0  0  0  0  0  0  0
    5.7699   -2.5789    1.7123 H   0  0  0  0  0  0  0  0  0  0  0  0
    0.8138    0.7364    0.9283 H   0  0  0  0  0  0  0  0  0  0  0  0
    0.7649    1.0133   -0.7961 H   0  0  0  0  0  0  0  0  0  0  0  0
   -0.2016   -1.4731    0.3900 H   0  0  0  0  0  0  0  0  0  0  0  0
   -1.6992   -0.3272    2.1161 H   0  0  0  0  0  0  0  0  0  0  0  0
   -1.1983    1.2705    1.5777 H   0  0  0  0  0  0  0  0  0  0  0  0
   -3.4900    1.3518    2.5037 H   0  0  0  0  0  0  0  0  0  0  0  0
   -4.6077    2.4300    0.5560 H   0  0  0  0  0  0  0  0  0  0  0  0
   -2.9131    2.8938    0.6333 H   0  0  0  0  0  0  0  0  0  0  0  0
   -3.5466    2.2513   -1.6892 H   0  0  0  0  0  0  0  0  0  0  0  0
   -1.2441    1.8221   -0.9323 H   0  0  0  0  0  0  0  0  0  0  0  0
   -1.7444    0.5860   -2.0769 H   0  0  0  0  0  0  0  0  0  0  0  0
   -5.3700    0.6658   -1.0972 H   0  0  0  0  0  0  0  0  0  0  0  0
   -4.2053   -0.0929   -2.1826 H   0  0  0  0  0  0  0  0  0  0  0  0
   -4.1342   -0.9940    2.0099 H   0  0  0  0  0  0  0  0  0  0  0  0
   -5.3333    0.1265    1.3705 H   0  0  0  0  0  0  0  0  0  0  0  0
   -5.8283   -1.6284   -0.2948 H   0  0  0  0  0  0  0  0  0  0  0  0
   -2.4755   -1.6809   -1.2749 H   0  0  0  0  0  0  0  0  0  0  0  0
   -2.4480   -2.0691    0.4482 H   0  0  0  0  0  0  0  0  0  0  0  0
 20 21  1  6
 22 20  1  0
 22 12  1  0
 20 18  1  0
 20 19  1  0
 18 16  1  0
 12 11  1  1
 11 10  1  0
 12 17  1  0
 12 13  1  0
 19 14  1  0
 17 16  1  0
 16 15  1  0
 10  2  1  0
  1  2  2  0
 13 14  1  0
 14 15  1  0
  2  3  1  0
  3  7  1  0
  3  4  1  0
  7  8  1  0
  7  6  1  0
  4  5  1  0
  8  9  2  0
  6  5  1  0
  4 23  1  0
  4 24  1  0
  5 25  1  0
  5 26  1  0
  6 27  1  0
  6 28  1  0
  7 29  1  6
  8 30  1  0
  9 31  1  0
 10 32  1  0
 10 33  1  0
 11 34  1  0
 13 35  1  0
 13 36  1  0
 14 37  1  1
 15 38  1  0
 15 39  1  0
 16 40  1  6
 17 41  1  0
 17 42  1  0
 18 43  1  0
 18 44  1  0
 19 45  1  0
 19 46  1  0
 21 47  1  0
 22 48  1  0
 22 49  1  0
M  END
