
     RDKit          3D

 44 43  0  0  0  0  0  0  0  0999 V2000
    7.6769    1.3247   -0.8440 O   0  0  0  0  0  0  0  0  0  0  0  0
    6.7564    0.5868   -0.2371 C   0  0  0  0  0  0  0  0  0  0  0  0
    5.7369    0.0857   -1.2286 C   0  0  0  0  0  0  0  0  0  0  0  0
    4.7719   -0.6481   -0.5460 O   0  0  0  0  0  0  0  0  0  0  0  0
    3.7918   -1.1799   -1.4066 C   0  0  0  0  0  0  0  0  0  0  0  0
    2.7972   -1.9741   -0.6014 C   0  0  0  0  0  0  0  0  0  0  0  0
    2.0802   -1.1159    0.2486 O   0  0  0  0  0  0  0  0  0  0  0  0
    1.1404   -1.7986    1.0384 C   0  0  0  0  0  0  0  0  0  0  0  0
    0.3995   -0.8222    1.9145 C   0  0  0  0  0  0  0  0  0  0  0  0
   -0.3672    0.0473    1.1208 O   0  0  0  0  0  0  0  0  0  0  0  0
   -1.1408    0.9346    1.8873 C   0  0  0  0  0  0  0  0  0  0  0  0
   -1.9273    1.8466    0.9812 C   0  0  0  0  0  0  0  0  0  0  0  0
   -2.8413    1.0946    0.2254 O   0  0  0  0  0  0  0  0  0  0  0  0
   -3.6728    1.8960   -0.5746 C   0  0  0  0  0  0  0  0  0  0  0  0
   -4.5708    1.0231   -1.4129 C   0  0  0  0  0  0  0  0  0  0  0  0
   -5.4288    0.2837   -0.5827 O   0  0  0  0  0  0  0  0  0  0  0  0
   -6.3087   -0.5376   -1.3076 C   0  0  0  0  0  0  0  0  0  0  0  0
   -7.1275   -1.3780   -0.3611 C   0  0  0  0  0  0  0  0  0  0  0  0
    6.7448    0.3521    0.9415 O   0  0  0  0  0  0  0  0  0  0  0  0
   -7.9576   -0.5456    0.4161 O   0  0  0  0  0  0  0  0  0  0  0  0
    8.3310    1.6384   -0.2016 H   0  0  0  0  0  0  0  0  0  0  0  0
    5.3080    0.9476   -1.7603 H   0  0  0  0  0  0  0  0  0  0  0  0
    6.2583   -0.5155   -1.9886 H   0  0  0  0  0  0  0  0  0  0  0  0
    3.2786   -0.3813   -1.9604 H   0  0  0  0  0  0  0  0  0  0  0  0
    4.2442   -1.8479   -2.1518 H   0  0  0  0  0  0  0  0  0  0  0  0
    2.1259   -2.4900   -1.3020 H   0  0  0  0  0  0  0  0  0  0  0  0
    3.3181   -2.7546   -0.0282 H   0  0  0  0  0  0  0  0  0  0  0  0
    0.4275   -2.3541    0.4123 H   0  0  0  0  0  0  0  0  0  0  0  0
    1.6321   -2.5352    1.6894 H   0  0  0  0  0  0  0  0  0  0  0  0
   -0.2389   -1.3996    2.5978 H   0  0  0  0  0  0  0  0  0  0  0  0
    1.1092   -0.2622    2.5404 H   0  0  0  0  0  0  0  0  0  0  0  0
   -1.8251    0.3862    2.5508 H   0  0  0  0  0  0  0  0  0  0  0  0
   -0.5070    1.5605    2.5309 H   0  0  0  0  0  0  0  0  0  0  0  0
   -2.4441    2.5836    1.6123 H   0  0  0  0  0  0  0  0  0  0  0  0
   -1.2455    2.4107    0.3283 H   0  0  0  0  0  0  0  0  0  0  0  0
   -4.2775    2.5749    0.0441 H   0  0  0  0  0  0  0  0  0  0  0  0
   -3.0830    2.5261   -1.2547 H   0  0  0  0  0  0  0  0  0  0  0  0
   -5.1376    1.6744   -2.0932 H   0  0  0  0  0  0  0  0  0  0  0  0
   -3.9637    0.3571   -2.0433 H   0  0  0  0  0  0  0  0  0  0  0  0
   -6.9709    0.0637   -1.9478 H   0  0  0  0  0  0  0  0  0  0  0  0
   -5.7572   -1.2176   -1.9721 H   0  0  0  0  0  0  0  0  0  0  0  0
   -7.7076   -2.0824   -0.9704 H   0  0  0  0  0  0  0  0  0  0  0  0
   -6.4534   -1.9789    0.2628 H   0  0  0  0  0  0  0  0  0  0  0  0
   -8.4649   -1.1036    1.0122 H   0  0  0  0  0  0  0  0  0  0  0  0
  1  2  1  0
  2  3  1  0
  2 19  2  0
  3  4  1  0
  4  5  1  0
  5  6  1  0
  6  7  1  0
  7  8  1  0
  8  9  1  0
  9 10  1  0
 10 11  1  0
 11 12  1  0
 12 13  1  0
 13 14  1  0
 14 15  1  0
 15 16  1  0
 16 17  1  0
 17 18  1  0
 18 20  1  0
  1 21  1  0
  3 22  1  0
  3 23  1  0
  5 24  1  0
  5 25  1  0
  6 26  1  0
  6 27  1  0
  8 28  1  0
  8 29  1  0
  9 30  1  0
  9 31  1  0
 11 32  1  0
 11 33  1  0
 12 34  1  0
 12 35  1  0
 14 36  1  0
 14 37  1  0
 15 38  1  0
 15 39  1  0
 17 40  1  0
 17 41  1  0
 18 42  1  0
 18 43  1  0
 20 44  1  0
M  END
