
     RDKit          3D

 35 37  0  0  0  0  0  0  0  0999 V2000
   -1.2752   -1.0263   -0.0080 C   0  0  0  0  0  0  0  0  0  0  0  0
   -3.8904    1.5410    0.7980 C   0  0  0  0  0  0  0  0  0  0  0  0
   -0.0497   -0.3583   -0.0440 C   0  0  0  0  0  0  0  0  0  0  0  0
    2.4284   -0.3192   -0.1444 C   0  0  0  0  0  0  0  0  0  0  0  0
    3.8040    1.3979   -1.1015 C   0  0  0  0  0  0  0  0  0  0  0  0
   -2.5580   -0.3104    0.0477 C   0  0  0  0  0  0  0  0  0  0  0  0
    3.4545   -0.6047    0.7549 C   0  0  0  0  0  0  0  0  0  0  0  0
    4.6263    0.1167    0.6980 C   0  0  0  0  0  0  0  0  0  0  0  0
    4.8483    1.1341   -0.2225 C   0  0  0  0  0  0  0  0  0  0  0  0
    2.6181    0.6979   -1.0788 C   0  0  0  0  0  0  0  0  0  0  0  0
   -2.6814    0.8835    0.7604 C   0  0  0  0  0  0  0  0  0  0  0  0
   -0.0850   -3.1055   -0.0840 N   0  0  0  0  0  0  0  0  0  0  0  0
   -1.2108   -2.4133   -0.0177 C   0  0  0  0  0  0  0  0  0  0  0  0
    1.1456   -1.0480   -0.0963 C   0  0  0  0  0  0  0  0  0  0  0  0
    1.0781   -2.4615   -0.1329 C   0  0  0  0  0  0  0  0  0  0  0  0
   -5.0267    1.0651    0.1534 C   0  0  0  0  0  0  0  0  0  0  0  0
   -4.8730   -0.1266   -0.5430 C   0  0  0  0  0  0  0  0  0  0  0  0
   -3.6795   -0.8099   -0.6130 C   0  0  0  0  0  0  0  0  0  0  0  0
    5.6159   -0.1525    1.5660 F   0  0  0  0  0  0  0  0  0  0  0  0
    5.9763    1.8517   -0.3113 O   0  0  0  0  0  0  0  0  0  0  0  0
    3.9855    2.3678   -2.0057 F   0  0  0  0  0  0  0  0  0  0  0  0
   -5.9526   -0.6064   -1.1843 F   0  0  0  0  0  0  0  0  0  0  0  0
   -6.1723    1.7582    0.2396 O   0  0  0  0  0  0  0  0  0  0  0  0
   -4.0061    2.6812    1.4902 F   0  0  0  0  0  0  0  0  0  0  0  0
   -0.0251    0.7253   -0.0343 H   0  0  0  0  0  0  0  0  0  0  0  0
    3.3447   -1.3735    1.5086 H   0  0  0  0  0  0  0  0  0  0  0  0
    1.8497    0.9373   -1.8024 H   0  0  0  0  0  0  0  0  0  0  0  0
   -1.8454    1.2979    1.3092 H   0  0  0  0  0  0  0  0  0  0  0  0
    3.0394   -2.8312   -0.5698 H   0  0  0  0  0  0  0  0  0  0  0  0
    2.0490   -4.1977   -0.4442 H   0  0  0  0  0  0  0  0  0  0  0  0
   -2.1207   -3.0025    0.0430 H   0  0  0  0  0  0  0  0  0  0  0  0
   -3.6289   -1.7166   -1.2022 H   0  0  0  0  0  0  0  0  0  0  0  0
    6.6351    1.5426    0.3213 H   0  0  0  0  0  0  0  0  0  0  0  0
   -6.8695    1.3333   -0.2735 H   0  0  0  0  0  0  0  0  0  0  0  0
    2.1974   -3.2338   -0.1935 N   0  0  0  0  0  0  0  0  0  0  0  0
 20  9  1  0
 19  8  1  0
  9  8  1  0
  9  5  2  0
  8  7  2  0
 24  2  1  0
 21  5  1  0
  5 10  1  0
  7  4  1  0
  2 11  2  0
  2 16  1  0
 11  6  1  0
 23 16  1  0
 10  4  2  0
  4 14  1  0
 16 17  2  0
  3 14  2  0
  3  1  1  0
 14 15  1  0
  6  1  1  0
  6 18  2  0
  1 13  2  0
 17 18  1  0
 17 22  1  0
 15 35  1  0
 15 12  2  0
 13 12  1  0
  3 25  1  0
  7 26  1  0
 10 27  1  0
 11 28  1  0
 35 29  1  0
 35 30  1  0
 13 31  1  0
 18 32  1  0
 20 33  1  0
 23 34  1  0
M  END
