
     RDKit          3D

 31 30  0  0  0  0  0  0  0  0999 V2000
   -3.6798   -1.8531    0.4092 N   0  0  0  0  0  0  0  0  0  0  0  0
   -3.5633   -0.4793   -0.0134 C   0  0  1  0  0  0  0  0  0  0  0  0
   -4.6787    0.4188    0.5166 C   0  0  0  0  0  0  0  0  0  0  0  0
   -5.2749    0.3488    1.5959 O   0  0  0  0  0  0  0  0  0  0  0  0
   -2.2210    0.1685    0.3621 C   0  0  0  0  0  0  0  0  0  0  0  0
   -1.0905   -0.3593   -0.4938 C   0  0  0  0  0  0  0  0  0  0  0  0
    0.1904    0.3962   -0.2095 C   0  0  0  0  0  0  0  0  0  0  0  0
    1.3305   -0.1917   -1.0423 C   0  0  0  0  0  0  0  0  0  0  0  0
    2.5885    0.5066   -0.9224 N   0  0  0  0  0  0  0  0  0  0  0  0
    3.4968    0.3075    0.1183 C   0  0  0  0  0  0  0  0  0  0  0  0
    3.2303   -0.7496    1.3290 S   0  0  0  0  0  0  0  0  0  0  0  0
    4.6593    1.0677    0.0701 N   0  0  0  0  0  0  0  0  0  0  0  0
    5.6847    0.9764    1.0663 C   0  0  0  0  0  0  0  0  0  0  0  0
   -5.0474    1.4196   -0.3272 O   0  0  0  0  0  0  0  0  0  0  0  0
   -3.3773   -1.9698    1.3562 H   0  0  0  0  0  0  0  0  0  0  0  0
   -4.6251   -2.1736    0.3212 H   0  0  0  0  0  0  0  0  0  0  0  0
   -3.6626   -0.4667   -1.1430 H   0  0  0  0  0  0  0  0  0  0  0  0
   -1.9955   -0.0137    1.4450 H   0  0  0  0  0  0  0  0  0  0  0  0
   -2.3253    1.2772    0.2170 H   0  0  0  0  0  0  0  0  0  0  0  0
   -1.3581   -0.2563   -1.5786 H   0  0  0  0  0  0  0  0  0  0  0  0
   -0.9353   -1.4521   -0.2925 H   0  0  0  0  0  0  0  0  0  0  0  0
    0.4378    0.3226    0.8814 H   0  0  0  0  0  0  0  0  0  0  0  0
    0.0489    1.4828   -0.4504 H   0  0  0  0  0  0  0  0  0  0  0  0
    1.0435   -0.1384   -2.1330 H   0  0  0  0  0  0  0  0  0  0  0  0
    1.4727   -1.2821   -0.7701 H   0  0  0  0  0  0  0  0  0  0  0  0
    2.7910    1.1635   -1.6446 H   0  0  0  0  0  0  0  0  0  0  0  0
    4.8150    1.7118   -0.6721 H   0  0  0  0  0  0  0  0  0  0  0  0
    6.4424    1.7798    0.8622 H   0  0  0  0  0  0  0  0  0  0  0  0
    5.2469    1.1273    2.0927 H   0  0  0  0  0  0  0  0  0  0  0  0
    6.1921   -0.0260    1.0353 H   0  0  0  0  0  0  0  0  0  0  0  0
   -5.7578    1.9446    0.0783 H   0  0  0  0  0  0  0  0  0  0  0  0
  1  2  1  0
  1 15  1  0
  1 16  1  0
  2  3  1  0
  2  5  1  0
  2 17  1  6
  3  4  2  0
  3 14  1  0
  5  6  1  0
  5 18  1  0
  5 19  1  0
  6  7  1  0
  6 20  1  0
  6 21  1  0
  7  8  1  0
  7 22  1  0
  7 23  1  0
  8  9  1  0
  8 24  1  0
  8 25  1  0
  9 10  1  0
  9 26  1  0
 10 11  2  0
 10 12  1  0
 12 13  1  0
 12 27  1  0
 13 28  1  0
 13 29  1  0
 13 30  1  0
 14 31  1  0
M  END
