
     RDKit          3D

 19 20  0  0  0  0  0  0  0  0999 V2000
    2.9405   -1.4832   -0.0144 O   0  0  0  0  0  0  0  0  0  0  0  0
    2.5413   -0.3404   -0.0095 C   0  0  0  0  0  0  0  0  0  0  0  0
    3.3651    0.7025   -0.0072 O   0  0  0  0  0  0  0  0  0  0  0  0
    1.1137    0.0409   -0.0055 C   0  0  0  0  0  0  0  0  0  0  0  0
    0.7049    1.3927   -0.0008 C   0  0  0  0  0  0  0  0  0  0  0  0
   -0.6282    1.7373    0.0029 C   0  0  0  0  0  0  0  0  0  0  0  0
   -1.5663    0.7043    0.0021 C   0  0  0  0  0  0  0  0  0  0  0  0
   -2.9234    0.7421    0.0056 N   0  0  0  0  0  0  0  0  0  0  0  0
   -3.4168   -0.5352    0.0033 C   0  0  0  0  0  0  0  0  0  0  0  0
   -2.3872   -1.4279   -0.0018 C   0  0  0  0  0  0  0  0  0  0  0  0
   -1.1820   -0.6577   -0.0024 C   0  0  0  0  0  0  0  0  0  0  0  0
    0.1726   -0.9794   -0.0064 C   0  0  0  0  0  0  0  0  0  0  0  0
    4.2829    0.3938   -0.0094 H   0  0  0  0  0  0  0  0  0  0  0  0
    1.4420    2.1828    0.0000 H   0  0  0  0  0  0  0  0  0  0  0  0
   -0.9326    2.7760    0.0068 H   0  0  0  0  0  0  0  0  0  0  0  0
   -3.4878    1.5754    0.0092 H   0  0  0  0  0  0  0  0  0  0  0  0
   -4.4808   -0.7074    0.0053 H   0  0  0  0  0  0  0  0  0  0  0  0
   -2.4754   -2.5023   -0.0039 H   0  0  0  0  0  0  0  0  0  0  0  0
    0.4878   -2.0150   -0.0105 H   0  0  0  0  0  0  0  0  0  0  0  0
 10  9  2  0
 10 11  1  0
  9  8  1  0
  1  2  2  0
 11 12  1  0
 11  7  2  0
 12  4  2  0
  8  7  1  0
  7  6  1  0
  4  2  1  0
  4  5  1  0
  2  3  1  0
  6  5  2  0
  3 13  1  0
  5 14  1  0
  6 15  1  0
  8 16  1  0
  9 17  1  0
 10 18  1  0
 12 19  1  0
M  END
