
     RDKit          3D

 22 22  0  0  0  0  0  0  0  0999 V2000
   -3.2176    0.3664   -0.0700 S   0  0  1  0  0  0  0  0  0  0  0  0
   -3.9952   -0.8448   -0.2731 O   0  0  0  0  0  0  0  0  0  0  0  0
   -3.3556    1.4650   -1.0108 O   0  0  0  0  0  0  0  0  0  0  0  0
   -3.4051    1.0152    1.4268 N   0  0  0  0  0  0  0  0  0  0  0  0
    2.0115    1.8372   -0.0264 S   0  0  1  0  0  0  0  0  0  0  0  0
    1.2574    3.0701    0.0887 O   0  0  0  0  0  0  0  0  0  0  0  0
    2.8818    1.6138   -1.1616 O   0  0  0  0  0  0  0  0  0  0  0  0
    2.9115    1.7068    1.3241 N   0  0  0  0  0  0  0  0  0  0  0  0
   -1.5057   -0.1149   -0.0216 C   0  0  0  0  0  0  0  0  0  0  0  0
   -0.5388    0.8781   -0.0007 C   0  0  0  0  0  0  0  0  0  0  0  0
    0.7949    0.5173   -0.0089 C   0  0  0  0  0  0  0  0  0  0  0  0
    1.1619   -0.8288   -0.0450 C   0  0  0  0  0  0  0  0  0  0  0  0
    0.1734   -1.8067   -0.0537 C   0  0  0  0  0  0  0  0  0  0  0  0
   -1.1679   -1.4523   -0.0488 C   0  0  0  0  0  0  0  0  0  0  0  0
    2.8055   -1.3018   -0.0599 Cl  0  0  0  0  0  0  0  0  0  0  0  0
    0.5945   -3.4678   -0.0812 Cl  0  0  0  0  0  0  0  0  0  0  0  0
   -4.1284    1.7272    1.4488 H   0  0  0  0  0  0  0  0  0  0  0  0
   -3.5484    0.3242    2.1557 H   0  0  0  0  0  0  0  0  0  0  0  0
    2.4027    1.8239    2.1926 H   0  0  0  0  0  0  0  0  0  0  0  0
    3.5657    0.9347    1.3500 H   0  0  0  0  0  0  0  0  0  0  0  0
   -0.8185    1.9223    0.0235 H   0  0  0  0  0  0  0  0  0  0  0  0
   -1.9239   -2.2246   -0.0642 H   0  0  0  0  0  0  0  0  0  0  0  0
  2  1  2  0
  3  1  2  0
  1  4  1  1
  1  9  1  0
  9 14  2  0
  9 10  1  0
 14 13  1  0
 10 11  2  0
 13 16  1  0
 13 12  2  0
 11 12  1  0
 11  5  1  0
 12 15  1  0
  5  8  1  1
  5  7  2  0
  5  6  2  0
  4 17  1  0
  4 18  1  0
  8 19  1  0
  8 20  1  0
 10 21  1  0
 14 22  1  0
M  END
