
     RDKit          3D

 56 57  0  0  0  0  0  0  0  0999 V2000
    4.3121    1.9582   -1.3533 O   0  0  0  0  0  0  0  0  0  0  0  0
    3.6428    2.2009   -0.3597 C   0  0  0  0  0  0  0  0  0  0  0  0
    3.5578    3.5810    0.2460 C   0  0  0  0  0  0  0  0  0  0  0  0
    2.8814    1.2814    0.2655 N   0  0  0  0  0  0  0  0  0  0  0  0
    2.7181   -0.0820   -0.1646 C   0  0  1  0  0  0  0  0  0  0  0  0
    3.0860   -1.0727    0.9370 C   0  0  2  0  0  0  0  0  0  0  0  0
    4.4212   -0.8448    1.2958 O   0  0  0  0  0  0  0  0  0  0  0  0
    2.8369   -2.4964    0.4389 C   0  0  1  0  0  0  0  0  0  0  0  0
    1.3792   -2.6241   -0.0072 C   0  0  2  0  0  0  0  0  0  0  0  0
    1.1049   -3.9885   -0.6028 C   0  0  0  0  0  0  0  0  0  0  0  0
   -0.2749   -4.1428   -0.8277 O   0  0  0  0  0  0  0  0  0  0  0  0
    1.0613   -1.6495   -0.9898 O   0  0  0  0  0  0  0  0  0  0  0  0
    1.2742   -0.3260   -0.6279 C   0  0  1  0  0  0  0  0  0  0  0  0
    0.4447    0.0984    0.4149 O   0  0  0  0  0  0  0  0  0  0  0  0
   -0.8891    0.4585    0.1148 C   0  0  1  0  0  0  0  0  0  0  0  0
   -1.7985   -0.2535    1.1152 C   0  0  2  0  0  0  0  0  0  0  0  0
   -1.7463   -1.6255    0.8412 O   0  0  0  0  0  0  0  0  0  0  0  0
   -3.2286    0.2968    1.0804 C   0  0  2  0  0  0  0  0  0  0  0  0
   -3.8960   -0.1113   -0.1375 N   0  0  0  0  0  0  0  0  0  0  0  0
   -5.2300   -0.0615   -0.2912 C   0  0  0  0  0  0  0  0  0  0  0  0
   -5.9779    0.3916    0.5660 O   0  0  0  0  0  0  0  0  0  0  0  0
   -5.7503   -0.5882   -1.6053 C   0  0  0  0  0  0  0  0  0  0  0  0
   -1.0374    1.9861    0.2494 C   0  0  1  0  0  0  0  0  0  0  0  0
   -0.3131    2.7256   -0.8563 C   0  0  0  0  0  0  0  0  0  0  0  0
   -0.3334    4.1040   -0.5717 O   0  0  0  0  0  0  0  0  0  0  0  0
   -2.3895    2.3729    0.1937 O   0  0  0  0  0  0  0  0  0  0  0  0
   -3.1651    1.8112    1.2210 C   0  0  0  0  0  0  0  0  0  0  0  0
    3.7444   -2.7660   -0.6051 O   0  0  0  0  0  0  0  0  0  0  0  0
    4.4034    4.1872   -0.0687 H   0  0  0  0  0  0  0  0  0  0  0  0
    2.6427    4.0715   -0.0939 H   0  0  0  0  0  0  0  0  0  0  0  0
    3.5260    3.5520    1.3348 H   0  0  0  0  0  0  0  0  0  0  0  0
    2.3674    1.5705    1.0831 H   0  0  0  0  0  0  0  0  0  0  0  0
    3.3764   -0.2365   -1.0208 H   0  0  0  0  0  0  0  0  0  0  0  0
    1.0798    0.2523   -1.5397 H   0  0  0  0  0  0  0  0  0  0  0  0
    4.6323   -1.4047    2.0497 H   0  0  0  0  0  0  0  0  0  0  0  0
    2.9868   -3.1895    1.2789 H   0  0  0  0  0  0  0  0  0  0  0  0
    0.7377   -2.4975    0.8727 H   0  0  0  0  0  0  0  0  0  0  0  0
    3.9368   -3.7070   -0.6172 H   0  0  0  0  0  0  0  0  0  0  0  0
    1.6787   -4.1040   -1.5310 H   0  0  0  0  0  0  0  0  0  0  0  0
    1.4844   -4.7393    0.1049 H   0  0  0  0  0  0  0  0  0  0  0  0
   -0.4021   -4.9828   -1.2774 H   0  0  0  0  0  0  0  0  0  0  0  0
   -1.1520    0.1528   -0.9080 H   0  0  0  0  0  0  0  0  0  0  0  0
   -1.4112   -0.0275    2.1202 H   0  0  0  0  0  0  0  0  0  0  0  0
   -0.6002    2.2759    1.2204 H   0  0  0  0  0  0  0  0  0  0  0  0
   -2.1864   -2.1001    1.5538 H   0  0  0  0  0  0  0  0  0  0  0  0
   -3.7726   -0.1047    1.9428 H   0  0  0  0  0  0  0  0  0  0  0  0
   -3.3600   -0.5915   -0.8416 H   0  0  0  0  0  0  0  0  0  0  0  0
   -4.1609    2.2479    1.1571 H   0  0  0  0  0  0  0  0  0  0  0  0
   -2.7555    2.0598    2.2107 H   0  0  0  0  0  0  0  0  0  0  0  0
   -6.5312   -1.3245   -1.4190 H   0  0  0  0  0  0  0  0  0  0  0  0
   -6.2019    0.2293   -2.1676 H   0  0  0  0  0  0  0  0  0  0  0  0
   -4.9819   -1.0461   -2.2251 H   0  0  0  0  0  0  0  0  0  0  0  0
    0.7136    2.3539   -0.9198 H   0  0  0  0  0  0  0  0  0  0  0  0
   -0.8009    2.4951   -1.8133 H   0  0  0  0  0  0  0  0  0  0  0  0
    0.0654    4.5673   -1.3135 H   0  0  0  0  0  0  0  0  0  0  0  0
    2.4168   -0.9108    1.7948 H   0  0  0  0  0  0  0  0  0  0  0  0
  1  2  2  0
  2  3  1  0
  2  4  1  0
  4  5  1  0
  5  6  1  0
  5 13  1  0
  6  7  1  0
  6  8  1  0
  8  9  1  0
  8 28  1  0
  9 10  1  0
  9 12  1  0
 10 11  1  0
 12 13  1  0
 13 14  1  0
 14 15  1  0
 15 16  1  0
 15 23  1  0
 16 17  1  0
 16 18  1  0
 18 19  1  0
 18 27  1  0
 19 20  1  0
 20 21  2  0
 20 22  1  0
 23 24  1  0
 23 26  1  0
 24 25  1  0
 26 27  1  0
  3 29  1  0
  3 30  1  0
  3 31  1  0
  4 32  1  0
  5 33  1  6
 13 34  1  6
  7 35  1  0
  8 36  1  1
  9 37  1  1
 28 38  1  0
 10 39  1  0
 10 40  1  0
 11 41  1  0
 15 42  1  6
 16 43  1  1
 23 44  1  1
 17 45  1  0
 18 46  1  1
 19 47  1  0
 27 48  1  0
 27 49  1  0
 22 50  1  0
 22 51  1  0
 22 52  1  0
 24 53  1  0
 24 54  1  0
 25 55  1  0
  6 56  1  1
M  END
