
     RDKit          3D

 26 28  0  0  0  0  0  0  0  0999 V2000
   -1.0348    0.0046    0.9067 C   0  0  0  0  0  0  0  0  0  0  0  0
   -1.8787    0.0247    2.0523 C   0  0  0  0  0  0  0  0  0  0  0  0
    0.3898    0.0253    1.0728 C   0  0  0  0  0  0  0  0  0  0  0  0
   -1.3259    0.0585    3.2953 C   0  0  0  0  0  0  0  0  0  0  0  0
    0.9370    0.0354    2.4081 C   0  0  0  0  0  0  0  0  0  0  0  0
    0.0762    0.0551    3.4784 C   0  0  0  0  0  0  0  0  0  0  0  0
    0.9407    0.0018   -3.7517 C   0  0  0  0  0  0  0  0  0  0  0  0
   -0.4707   -0.0436   -3.9164 C   0  0  0  0  0  0  0  0  0  0  0  0
    1.4891    0.0326   -2.5062 C   0  0  0  0  0  0  0  0  0  0  0  0
   -1.2926   -0.0552   -2.8316 C   0  0  0  0  0  0  0  0  0  0  0  0
    0.6626    0.0178   -1.3467 C   0  0  0  0  0  0  0  0  0  0  0  0
   -0.7557   -0.0238   -1.5120 C   0  0  0  0  0  0  0  0  0  0  0  0
   -1.5666   -0.0250   -0.3808 C   0  0  0  0  0  0  0  0  0  0  0  0
    1.1987    0.0454   -0.0600 C   0  0  0  0  0  0  0  0  0  0  0  0
    2.3025    0.0853    2.5851 N   0  0  0  0  0  0  0  0  0  0  0  0
   -2.9529    0.0159    1.9173 H   0  0  0  0  0  0  0  0  0  0  0  0
   -1.9628    0.0755    4.1706 H   0  0  0  0  0  0  0  0  0  0  0  0
    0.4774    0.0609    4.4851 H   0  0  0  0  0  0  0  0  0  0  0  0
    1.5782    0.0117   -4.6260 H   0  0  0  0  0  0  0  0  0  0  0  0
   -0.8877   -0.0684   -4.9149 H   0  0  0  0  0  0  0  0  0  0  0  0
    2.5647    0.0653   -2.3800 H   0  0  0  0  0  0  0  0  0  0  0  0
   -2.3685   -0.0875   -2.9551 H   0  0  0  0  0  0  0  0  0  0  0  0
   -2.6443   -0.0447   -0.5016 H   0  0  0  0  0  0  0  0  0  0  0  0
    2.2769    0.0921    0.0316 H   0  0  0  0  0  0  0  0  0  0  0  0
    2.6097   -0.1049    3.5262 H   0  0  0  0  0  0  0  0  0  0  0  0
    2.8639   -0.4211    1.9191 H   0  0  0  0  0  0  0  0  0  0  0  0
  1  2  2  0
  1  3  1  0
  1 13  1  0
  2  4  1  0
  2 16  1  0
  3  5  2  0
  3 14  1  0
  4  6  2  0
  4 17  1  0
  5  6  1  0
  5 15  1  0
  6 18  1  0
  7  8  1  0
  7  9  2  0
  7 19  1  0
  8 10  2  0
  8 20  1  0
  9 11  1  0
  9 21  1  0
 10 12  1  0
 10 22  1  0
 11 12  1  0
 11 14  2  0
 12 13  2  0
 13 23  1  0
 14 24  1  0
 15 25  1  0
 15 26  1  0
M  END
