
     RDKit          3D

 55 55  0  0  0  0  0  0  0  0999 V2000
    0.0474    0.7600   -0.9022 C   0  0  0  0  0  0  0  0  0  0  0  0
   -0.8584    0.0937    0.1272 C   0  0  0  0  0  0  0  0  0  0  0  0
    1.3086    1.1112   -0.2831 N   0  0  0  0  0  0  0  0  0  0  0  0
   -2.1197   -0.3329   -0.4322 N   0  0  0  0  0  0  0  0  0  0  0  0
   -3.1930    0.4621   -0.5365 C   0  0  0  0  0  0  0  0  0  0  0  0
   -4.4106   -0.1671   -1.1758 C   0  0  0  0  0  0  0  0  0  0  0  0
   -3.2163    1.6194   -0.1390 O   0  0  0  0  0  0  0  0  0  0  0  0
   -5.5830   -0.2593   -0.1804 C   0  0  1  0  0  0  0  0  0  0  0  0
   -6.7361   -0.9840   -0.8857 C   0  0  0  0  0  0  0  0  0  0  0  0
   -5.2006   -0.9350    0.9837 O   0  0  0  0  0  0  0  0  0  0  0  0
   -5.9991    1.1398    0.2788 C   0  0  0  0  0  0  0  0  0  0  0  0
   -6.4865    1.8455   -0.7325 O   0  0  0  0  0  0  0  0  0  0  0  0
   -5.8936    1.5514    1.4003 O   0  0  0  0  0  0  0  0  0  0  0  0
   -7.9670   -1.1151   -0.0313 C   0  0  0  0  0  0  0  0  0  0  0  0
   -8.3142   -0.3063    0.7927 O   0  0  0  0  0  0  0  0  0  0  0  0
   -8.6544   -2.2117   -0.3139 O   0  0  0  0  0  0  0  0  0  0  0  0
    4.5897   -3.1641   -0.2472 P   0  0  1  0  0  0  0  0  0  0  0  0
    6.0019   -3.6781    0.2785 O   0  0  0  0  0  0  0  0  0  0  0  0
    4.1441   -3.5980   -1.5838 O   0  0  0  0  0  0  0  0  0  0  0  0
    3.4847   -3.5535    0.8380 O   0  0  0  0  0  0  0  0  0  0  0  0
    4.8895   -1.6051   -0.0715 O   0  0  0  0  0  0  0  0  0  0  0  0
    4.3970    0.7328   -0.1678 C   0  0  0  0  0  0  0  0  0  0  0  0
    5.5818    0.9683    0.5103 C   0  0  0  0  0  0  0  0  0  0  0  0
    5.9990    2.1862    0.8399 N   0  0  0  0  0  0  0  0  0  0  0  0
    5.2680    3.2393    0.5174 C   0  0  0  0  0  0  0  0  0  0  0  0
    4.0546    3.0954   -0.1727 C   0  0  0  0  0  0  0  0  0  0  0  0
    3.6063    1.8286   -0.5291 C   0  0  0  0  0  0  0  0  0  0  0  0
    2.2865    1.6283   -1.2269 C   0  0  0  0  0  0  0  0  0  0  0  0
    5.7643    4.5972    0.9174 C   0  0  0  0  0  0  0  0  0  0  0  0
    0.2453    0.0524   -1.7122 H   0  0  0  0  0  0  0  0  0  0  0  0
   -0.4704    1.6197   -1.3523 H   0  0  0  0  0  0  0  0  0  0  0  0
   -0.3564   -0.7836    0.5347 H   0  0  0  0  0  0  0  0  0  0  0  0
   -1.0479    0.7745    0.9587 H   0  0  0  0  0  0  0  0  0  0  0  0
    1.1477    1.8094    0.4335 H   0  0  0  0  0  0  0  0  0  0  0  0
   -2.1687   -1.2635   -0.8121 H   0  0  0  0  0  0  0  0  0  0  0  0
   -4.6940    0.4304   -2.0436 H   0  0  0  0  0  0  0  0  0  0  0  0
   -4.1966   -1.1715   -1.5487 H   0  0  0  0  0  0  0  0  0  0  0  0
   -7.0218   -0.4610   -1.8027 H   0  0  0  0  0  0  0  0  0  0  0  0
   -6.3930   -1.9718   -1.2007 H   0  0  0  0  0  0  0  0  0  0  0  0
   -4.9037   -1.8199    0.7441 H   0  0  0  0  0  0  0  0  0  0  0  0
   -6.7397    2.7295   -0.4283 H   0  0  0  0  0  0  0  0  0  0  0  0
   -9.4640   -2.2431    0.2186 H   0  0  0  0  0  0  0  0  0  0  0  0
    6.1265   -4.6344    0.2146 H   0  0  0  0  0  0  0  0  0  0  0  0
    3.7065   -3.3523    1.7571 H   0  0  0  0  0  0  0  0  0  0  0  0
    3.8461   -0.7298   -1.6263 H   0  0  0  0  0  0  0  0  0  0  0  0
    2.9543   -0.8324   -0.1080 H   0  0  0  0  0  0  0  0  0  0  0  0
    6.2272    0.1514    0.8063 H   0  0  0  0  0  0  0  0  0  0  0  0
    2.4059    0.8883   -2.0235 H   0  0  0  0  0  0  0  0  0  0  0  0
    1.9622    2.5499   -1.7233 H   0  0  0  0  0  0  0  0  0  0  0  0
    3.7198    4.9838   -0.2496 H   0  0  0  0  0  0  0  0  0  0  0  0
    5.9185    5.2527    0.0561 H   0  0  0  0  0  0  0  0  0  0  0  0
    5.0715    5.1032    1.5950 H   0  0  0  0  0  0  0  0  0  0  0  0
    6.7183    4.5042    1.4311 H   0  0  0  0  0  0  0  0  0  0  0  0
    3.2920    4.1576   -0.4986 O   0  0  0  0  0  0  0  0  0  0  0  0
    3.9433   -0.6490   -0.5388 C   0  0  0  0  0  0  0  0  0  0  0  0
 15 14  2  0
 16 14  1  0
 14  9  1  0
  9  8  1  0
  8 10  1  1
  8  6  1  0
  8 11  1  0
  6  5  1  0
 11 13  2  0
 11 12  1  0
  5  4  1  0
  5  7  2  0
  4  2  1  0
  1  2  1  0
  1  3  1  0
  3 28  1  0
 19 17  2  0
 28 27  1  0
 55 21  1  0
 55 22  1  0
 27 22  2  0
 27 26  1  0
 17 18  1  1
 17 21  1  0
 17 20  1  0
 54 26  1  0
 22 23  1  0
 26 25  2  0
 23 24  2  0
 25 24  1  0
 25 29  1  0
  1 30  1  0
  1 31  1  0
  2 32  1  0
  2 33  1  0
  3 34  1  0
  4 35  1  0
  6 36  1  0
  6 37  1  0
  9 38  1  0
  9 39  1  0
 10 40  1  0
 12 41  1  0
 16 42  1  0
 18 43  1  0
 20 44  1  0
 55 45  1  0
 55 46  1  0
 23 47  1  0
 28 48  1  0
 28 49  1  0
 54 50  1  0
 29 51  1  0
 29 52  1  0
 29 53  1  0
M  END
