
     RDKit          3D

 45 48  0  0  0  0  0  0  0  0999 V2000
   13.6037    7.6227   11.8773 N   0  0  0  0  0  0  0  0  0  0  0  0
   13.0635    6.3996   12.1578 C   0  0  0  0  0  0  0  0  0  0  0  0
   13.9459    5.4735   12.5383 N   0  0  0  0  0  0  0  0  0  0  0  0
   13.4358    4.2698   12.7699 C   0  0  0  0  0  0  0  0  0  0  0  0
   12.0989    3.9543   12.6472 C   0  0  0  0  0  0  0  0  0  0  0  0
   11.2636    5.0152   12.2764 C   0  0  0  0  0  0  0  0  0  0  0  0
    9.9189    4.9143   12.1220 N   0  0  0  0  0  0  0  0  0  0  0  0
    9.1672    3.7518   12.2864 C   0  0  0  0  0  0  0  0  0  0  0  0
    9.0911    3.0882   13.4915 C   0  0  0  0  0  0  0  0  0  0  0  0
    9.6823    3.4207   14.6562 O   0  0  0  0  0  0  0  0  0  0  0  0
    9.4747    2.3112   15.5265 C   0  0  0  0  0  0  0  0  0  0  0  0
    8.4483    1.5209   14.9411 O   0  0  0  0  0  0  0  0  0  0  0  0
    8.3381    1.9372   13.6586 C   0  0  0  0  0  0  0  0  0  0  0  0
    7.5849    1.4077   12.6419 C   0  0  0  0  0  0  0  0  0  0  0  0
    7.6211    2.0741   11.4124 C   0  0  0  0  0  0  0  0  0  0  0  0
    8.3974    3.2039   11.2425 C   0  0  0  0  0  0  0  0  0  0  0  0
    8.4427    3.9837    9.6982 Cl  0  0  0  0  0  0  0  0  0  0  0  0
   11.7582    6.2267   12.0386 N   0  0  0  0  0  0  0  0  0  0  0  0
    9.4417    7.8067    8.6778 C   0  0  0  0  0  0  0  0  0  0  0  0
    8.7441    8.9030    9.8880 S   0  0  2  0  0  0  0  0  0  0  0  0
    8.6351    8.1729   11.1429 O   0  0  0  0  0  0  0  0  0  0  0  0
    7.5544    9.5293    9.3381 O   0  0  0  0  0  0  0  0  0  0  0  0
   11.1988    9.9915   10.3492 C   0  0  0  0  0  0  0  0  0  0  0  0
   12.0698   10.9879    9.9185 C   0  0  0  0  0  0  0  0  0  0  0  0
   13.4239   10.8535   10.1869 C   0  0  0  0  0  0  0  0  0  0  0  0
   13.9215    9.7396   10.8380 C   0  0  0  0  0  0  0  0  0  0  0  0
   13.0454    8.7321   11.2563 C   0  0  0  0  0  0  0  0  0  0  0  0
   11.6755    8.8825   11.0391 C   0  0  0  0  0  0  0  0  0  0  0  0
   14.6060    7.6481   11.9907 H   0  0  0  0  0  0  0  0  0  0  0  0
   14.1411    3.5013   13.0672 H   0  0  0  0  0  0  0  0  0  0  0  0
   11.7467    2.9500   12.8236 H   0  0  0  0  0  0  0  0  0  0  0  0
    9.4588    5.7365   11.7553 H   0  0  0  0  0  0  0  0  0  0  0  0
   10.3971    1.7267   15.6051 H   0  0  0  0  0  0  0  0  0  0  0  0
    9.1566    2.6677   16.5047 H   0  0  0  0  0  0  0  0  0  0  0  0
    6.9836    0.5193   12.7728 H   0  0  0  0  0  0  0  0  0  0  0  0
    7.0435    1.6905   10.5835 H   0  0  0  0  0  0  0  0  0  0  0  0
    8.7404    6.9837    8.5504 H   0  0  0  0  0  0  0  0  0  0  0  0
    9.5648    8.3451    7.7414 H   0  0  0  0  0  0  0  0  0  0  0  0
   10.3989    7.4216    9.0232 H   0  0  0  0  0  0  0  0  0  0  0  0
    9.5907   10.9419    9.4975 H   0  0  0  0  0  0  0  0  0  0  0  0
   11.6990   11.8527    9.3832 H   0  0  0  0  0  0  0  0  0  0  0  0
   11.0082    8.1277   11.4145 H   0  0  0  0  0  0  0  0  0  0  0  0
   14.1073   11.6274    9.8629 H   0  0  0  0  0  0  0  0  0  0  0  0
   14.9860    9.6428   11.0143 H   0  0  0  0  0  0  0  0  0  0  0  0
    9.8272   10.1461   10.0790 N   0  0  0  0  0  0  0  0  0  0  0  0
  1  2  1  0
  1 27  1  0
  2  3  2  0
  2 18  1  0
  3  4  1  0
  4  5  2  0
  5  6  1  0
  6  7  1  0
  6 18  2  0
  7  8  1  0
  8  9  2  0
  8 16  1  0
  9 10  1  0
  9 13  1  0
 10 11  1  0
 11 12  1  0
 12 13  1  0
 13 14  2  0
 14 15  1  0
 15 16  2  0
 16 17  1  0
 19 20  1  0
 20 21  2  0
 20 22  2  0
 20 45  1  1
 45 23  1  0
 23 24  2  0
 23 28  1  0
 24 25  1  0
 25 26  2  0
 26 27  1  0
 27 28  2  0
  1 29  1  0
  4 30  1  0
  5 31  1  0
  7 32  1  0
 11 33  1  0
 11 34  1  0
 14 35  1  0
 15 36  1  0
 19 37  1  0
 19 38  1  0
 19 39  1  0
 45 40  1  0
 24 41  1  0
 28 42  1  0
 25 43  1  0
 26 44  1  0
M  END
