
     RDKit          3D

 42 44  0  0  0  0  0  0  0  0999 V2000
   -2.9910   -2.3689   -5.2794 S   0  0  0  0  0  0  0  0  0  0  0  0
    1.2334    1.3794   -1.5899 O   0  0  0  0  0  0  0  0  0  0  0  0
   -4.3172    2.9785   -2.2152 O   0  0  0  0  0  0  0  0  0  0  0  0
   -2.0317   -1.7522   -2.9255 N   0  0  0  0  0  0  0  0  0  0  0  0
   -1.1627   -0.5115   -4.6489 N   0  0  0  0  0  0  0  0  0  0  0  0
   -2.0223   -1.4896   -4.2299 C   0  0  0  0  0  0  0  0  0  0  0  0
   -0.1477   -0.0402   -3.8067 C   0  0  0  0  0  0  0  0  0  0  0  0
   -0.2197   -0.2572   -2.4801 C   0  0  0  0  0  0  0  0  0  0  0  0
   -1.4285   -0.9344   -1.8966 C   0  0  1  0  0  0  0  0  0  0  0  0
    1.0091    0.6257   -4.4860 C   0  0  0  0  0  0  0  0  0  0  0  0
    0.7903    0.2489   -1.5252 C   0  0  0  0  0  0  0  0  0  0  0  0
    1.2431   -0.6696   -0.4446 C   0  0  0  0  0  0  0  0  0  0  0  0
    1.3594   -2.0397   -0.6744 C   0  0  0  0  0  0  0  0  0  0  0  0
    1.8509   -2.8756    0.3168 C   0  0  0  0  0  0  0  0  0  0  0  0
    2.2117   -2.3491    1.5504 C   0  0  0  0  0  0  0  0  0  0  0  0
    2.0959   -0.9842    1.7862 C   0  0  0  0  0  0  0  0  0  0  0  0
    1.6252   -0.1449    0.7892 C   0  0  0  0  0  0  0  0  0  0  0  0
   -2.3990    0.0550   -1.2772 C   0  0  0  0  0  0  0  0  0  0  0  0
   -2.9398    1.0933   -2.0269 C   0  0  0  0  0  0  0  0  0  0  0  0
   -3.8233    1.9930   -1.4405 C   0  0  0  0  0  0  0  0  0  0  0  0
   -4.1625    1.8575   -0.0942 C   0  0  0  0  0  0  0  0  0  0  0  0
   -3.6167    0.8235    0.6478 C   0  0  0  0  0  0  0  0  0  0  0  0
   -2.7386   -0.0803    0.0638 C   0  0  0  0  0  0  0  0  0  0  0  0
   -4.8986    3.5511   -1.7025 H   0  0  0  0  0  0  0  0  0  0  0  0
   -2.6424   -2.4983   -2.6309 H   0  0  0  0  0  0  0  0  0  0  0  0
   -1.1255   -1.6170   -1.1008 H   0  0  0  0  0  0  0  0  0  0  0  0
   -0.8422    0.9243   -6.1332 H   0  0  0  0  0  0  0  0  0  0  0  0
   -2.2194   -0.1311   -6.4010 H   0  0  0  0  0  0  0  0  0  0  0  0
   -0.5883   -0.7453   -6.6787 H   0  0  0  0  0  0  0  0  0  0  0  0
    1.8796    0.6700   -3.8414 H   0  0  0  0  0  0  0  0  0  0  0  0
    0.7672    1.6488   -4.7763 H   0  0  0  0  0  0  0  0  0  0  0  0
    1.2930    0.0846   -5.3874 H   0  0  0  0  0  0  0  0  0  0  0  0
    1.0864   -2.4538   -1.6380 H   0  0  0  0  0  0  0  0  0  0  0  0
    1.9520   -3.9357    0.1266 H   0  0  0  0  0  0  0  0  0  0  0  0
    2.5853   -3.0018    2.3288 H   0  0  0  0  0  0  0  0  0  0  0  0
    2.3783   -0.5753    2.7473 H   0  0  0  0  0  0  0  0  0  0  0  0
    1.5423    0.9186    0.9730 H   0  0  0  0  0  0  0  0  0  0  0  0
   -2.6772    1.2284   -3.0698 H   0  0  0  0  0  0  0  0  0  0  0  0
   -4.8461    2.5586    0.3710 H   0  0  0  0  0  0  0  0  0  0  0  0
   -3.8810    0.7221    1.6923 H   0  0  0  0  0  0  0  0  0  0  0  0
   -2.3157   -0.8859    0.6515 H   0  0  0  0  0  0  0  0  0  0  0  0
   -1.1953   -0.0979   -6.0462 C   0  0  0  0  0  0  0  0  0  0  0  0
  1  6  2  0
  2 11  2  0
  3 20  1  0
  3 24  1  0
  4  6  1  0
  4  9  1  0
  4 25  1  0
  5  7  1  0
  5  6  1  0
  5 42  1  0
  7 10  1  0
  7  8  2  0
  8 11  1  0
  8  9  1  0
  9 18  1  0
  9 26  1  1
 42 27  1  0
 42 28  1  0
 42 29  1  0
 10 30  1  0
 10 31  1  0
 10 32  1  0
 11 12  1  0
 12 17  1  0
 12 13  2  0
 13 14  1  0
 13 33  1  0
 14 15  2  0
 14 34  1  0
 15 16  1  0
 15 35  1  0
 16 17  2  0
 16 36  1  0
 17 37  1  0
 18 19  2  0
 18 23  1  0
 19 20  1  0
 19 38  1  0
 20 21  2  0
 21 22  1  0
 21 39  1  0
 22 23  2  0
 22 40  1  0
 23 41  1  0
M  END
