
     RDKit          3D

102107  0  0  0  0  0  0  0  0999 V2000
   -3.5528    0.1204    0.1981 C   0  0  0  0  0  0  0  0  0  0  0  0
   -3.1460   -0.1972   -0.9038 O   0  0  0  0  0  0  0  0  0  0  0  0
   -2.9468    1.1843    1.1230 C   0  0  1  0  0  0  0  0  0  0  0  0
   -3.4854    0.7297    2.4904 C   0  0  1  0  0  0  0  0  0  0  0  0
   -4.8500    0.1382    2.1376 C   0  0  0  0  0  0  0  0  0  0  0  0
   -4.6636   -0.3564    0.7919 N   0  0  0  0  0  0  0  0  0  0  0  0
   -5.5972   -1.2903    0.2046 C   0  0  1  0  0  0  0  0  0  0  0  0
   -5.9852   -0.9644   -1.2131 C   0  0  0  0  0  0  0  0  0  0  0  0
   -5.4713   -1.9020   -2.1017 C   0  0  0  0  0  0  0  0  0  0  0  0
   -4.6387   -2.9195   -1.3816 C   0  0  0  0  0  0  0  0  0  0  0  0
   -5.0796   -2.7478    0.0812 C   0  0  1  0  0  0  0  0  0  0  0  0
   -4.1046   -2.9994    1.0492 O   0  0  0  0  0  0  0  0  0  0  0  0
   -5.7390   -1.7940   -3.4578 C   0  0  0  0  0  0  0  0  0  0  0  0
   -6.5113   -0.7299   -3.9125 C   0  0  0  0  0  0  0  0  0  0  0  0
   -7.0134    0.2129   -3.0207 C   0  0  0  0  0  0  0  0  0  0  0  0
   -6.7533    0.0976   -1.6593 C   0  0  0  0  0  0  0  0  0  0  0  0
   -2.6198   -0.2510    3.0064 O   0  0  0  0  0  0  0  0  0  0  0  0
   -1.4177    1.2190    1.0746 C   0  0  0  0  0  0  0  0  0  0  0  0
   -0.7945    1.7378   -0.2168 C   0  0  0  0  0  0  0  0  0  0  0  0
   -3.5978    2.5347    0.7018 C   0  0  0  0  0  0  0  0  0  0  0  0
   -3.4361    3.6684    1.6815 C   0  0  0  0  0  0  0  0  0  0  0  0
   -2.2714    4.4314    1.7519 C   0  0  0  0  0  0  0  0  0  0  0  0
   -2.1450    5.4622    2.6737 C   0  0  0  0  0  0  0  0  0  0  0  0
   -3.1871    5.7563    3.5425 C   0  0  0  0  0  0  0  0  0  0  0  0
   -4.3590    5.0149    3.4758 C   0  0  0  0  0  0  0  0  0  0  0  0
   -4.4780    3.9852    2.5529 C   0  0  0  0  0  0  0  0  0  0  0  0
    6.8790    0.4955   -0.8081 C   0  0  0  0  0  0  0  0  0  0  0  0
    5.4926    0.9726   -0.9482 C   0  0  0  0  0  0  0  0  0  0  0  0
    4.7268    0.6228   -2.0575 C   0  0  0  0  0  0  0  0  0  0  0  0
    3.4111    1.0470   -2.1663 C   0  0  0  0  0  0  0  0  0  0  0  0
    2.8303    1.8343   -1.1801 C   0  0  0  0  0  0  0  0  0  0  0  0
    3.6006    2.1977   -0.0796 C   0  0  0  0  0  0  0  0  0  0  0  0
    4.9125    1.7752    0.0357 C   0  0  0  0  0  0  0  0  0  0  0  0
    1.3750    2.2012   -1.2423 C   0  0  0  0  0  0  0  0  0  0  0  0
    0.6330    1.4390   -0.2396 N   0  0  0  0  0  0  0  0  0  0  0  0
    0.8590    0.0899   -0.4176 N   0  0  0  0  0  0  0  0  0  0  0  0
    1.5832   -0.6304    0.4584 C   0  0  0  0  0  0  0  0  0  0  0  0
    1.8854   -2.0559   -0.0040 C   0  0  1  0  0  0  0  0  0  0  0  0
    3.2685   -2.3143    0.3142 N   0  0  0  0  0  0  0  0  0  0  0  0
    4.1874   -2.6287   -0.6209 C   0  0  0  0  0  0  0  0  0  0  0  0
    5.4107   -2.6627   -0.0843 O   0  0  0  0  0  0  0  0  0  0  0  0
    6.4791   -3.0328   -0.9459 C   0  0  0  0  0  0  0  0  0  0  0  0
    3.9543   -2.8747   -1.7862 O   0  0  0  0  0  0  0  0  0  0  0  0
    0.9159   -3.1153    0.5865 C   0  0  1  0  0  0  0  0  0  0  0  0
   -0.5130   -2.8057    0.1364 C   0  0  0  0  0  0  0  0  0  0  0  0
    1.3177   -4.4846    0.0333 C   0  0  0  0  0  0  0  0  0  0  0  0
    0.9717   -3.1612    2.1134 C   0  0  0  0  0  0  0  0  0  0  0  0
    1.9863   -0.2078    1.5256 O   0  0  0  0  0  0  0  0  0  0  0  0
    7.3949    0.1206    0.4309 C   0  0  0  0  0  0  0  0  0  0  0  0
    8.6996   -0.3366    0.5116 C   0  0  0  0  0  0  0  0  0  0  0  0
    9.5098   -0.4461   -0.5360 N   0  0  0  0  0  0  0  0  0  0  0  0
    9.0200   -0.0887   -1.7177 C   0  0  0  0  0  0  0  0  0  0  0  0
    7.7308    0.3828   -1.9053 C   0  0  0  0  0  0  0  0  0  0  0  0
   -3.5873    1.5643    3.1910 H   0  0  0  0  0  0  0  0  0  0  0  0
   -5.1305   -0.6678    2.8196 H   0  0  0  0  0  0  0  0  0  0  0  0
   -5.6444    0.8915    2.1818 H   0  0  0  0  0  0  0  0  0  0  0  0
   -6.4746   -1.2687    0.8551 H   0  0  0  0  0  0  0  0  0  0  0  0
   -4.7962   -3.9377   -1.7436 H   0  0  0  0  0  0  0  0  0  0  0  0
   -3.5776   -2.6831   -1.4911 H   0  0  0  0  0  0  0  0  0  0  0  0
   -5.9583   -3.3920    0.2293 H   0  0  0  0  0  0  0  0  0  0  0  0
   -3.8036   -3.9065    0.9431 H   0  0  0  0  0  0  0  0  0  0  0  0
   -5.3497   -2.5226   -4.1589 H   0  0  0  0  0  0  0  0  0  0  0  0
   -6.7267   -0.6354   -4.9694 H   0  0  0  0  0  0  0  0  0  0  0  0
   -7.6147    1.0345   -3.3883 H   0  0  0  0  0  0  0  0  0  0  0  0
   -7.1537    0.8260   -0.9639 H   0  0  0  0  0  0  0  0  0  0  0  0
   -2.9873   -0.5671    3.8373 H   0  0  0  0  0  0  0  0  0  0  0  0
   -1.0466    1.8255    1.9059 H   0  0  0  0  0  0  0  0  0  0  0  0
   -1.0518    0.2096    1.2557 H   0  0  0  0  0  0  0  0  0  0  0  0
   -1.2988    1.3291   -1.0992 H   0  0  0  0  0  0  0  0  0  0  0  0
   -0.8806    2.8237   -0.2852 H   0  0  0  0  0  0  0  0  0  0  0  0
   -3.1931    2.8214   -0.2712 H   0  0  0  0  0  0  0  0  0  0  0  0
   -4.6677    2.3805    0.5364 H   0  0  0  0  0  0  0  0  0  0  0  0
   -1.4517    4.2347    1.0732 H   0  0  0  0  0  0  0  0  0  0  0  0
   -1.2305    6.0405    2.7078 H   0  0  0  0  0  0  0  0  0  0  0  0
   -3.0905    6.5612    4.2594 H   0  0  0  0  0  0  0  0  0  0  0  0
   -5.1840    5.2397    4.1397 H   0  0  0  0  0  0  0  0  0  0  0  0
   -5.3998    3.4163    2.5063 H   0  0  0  0  0  0  0  0  0  0  0  0
    5.1439   -0.0132   -2.8282 H   0  0  0  0  0  0  0  0  0  0  0  0
    2.8250    0.7406   -3.0247 H   0  0  0  0  0  0  0  0  0  0  0  0
    3.1665    2.8101    0.7011 H   0  0  0  0  0  0  0  0  0  0  0  0
    5.4942    2.0814    0.8966 H   0  0  0  0  0  0  0  0  0  0  0  0
    1.2314    3.2606   -1.0194 H   0  0  0  0  0  0  0  0  0  0  0  0
    0.9880    2.0274   -2.2576 H   0  0  0  0  0  0  0  0  0  0  0  0
    0.5900   -0.3273   -1.3021 H   0  0  0  0  0  0  0  0  0  0  0  0
    1.7902   -2.1116   -1.0913 H   0  0  0  0  0  0  0  0  0  0  0  0
    3.5954   -2.0263    1.2239 H   0  0  0  0  0  0  0  0  0  0  0  0
    7.3760   -3.0133   -0.3332 H   0  0  0  0  0  0  0  0  0  0  0  0
    6.3439   -4.0368   -1.3495 H   0  0  0  0  0  0  0  0  0  0  0  0
    6.5997   -2.3290   -1.7686 H   0  0  0  0  0  0  0  0  0  0  0  0
   -0.5833   -2.7172   -0.9508 H   0  0  0  0  0  0  0  0  0  0  0  0
   -1.1831   -3.6115    0.4391 H   0  0  0  0  0  0  0  0  0  0  0  0
   -0.9118   -1.8882    0.5690 H   0  0  0  0  0  0  0  0  0  0  0  0
    2.3190   -4.7739    0.3536 H   0  0  0  0  0  0  0  0  0  0  0  0
    0.6240   -5.2471    0.3927 H   0  0  0  0  0  0  0  0  0  0  0  0
    1.2936   -4.5006   -1.0583 H   0  0  0  0  0  0  0  0  0  0  0  0
    0.6376   -2.2303    2.5715 H   0  0  0  0  0  0  0  0  0  0  0  0
    0.3214   -3.9586    2.4785 H   0  0  0  0  0  0  0  0  0  0  0  0
    1.9790   -3.3745    2.4771 H   0  0  0  0  0  0  0  0  0  0  0  0
    6.7860    0.1572    1.3243 H   0  0  0  0  0  0  0  0  0  0  0  0
    9.1052   -0.6371    1.4715 H   0  0  0  0  0  0  0  0  0  0  0  0
    9.6889   -0.1756   -2.5667 H   0  0  0  0  0  0  0  0  0  0  0  0
    7.4081    0.6713   -2.8968 H   0  0  0  0  0  0  0  0  0  0  0  0
  1  2  2  0
  1  3  1  0
  1  6  1  0
  3  4  1  0
  3 18  1  1
  3 20  1  0
  4  5  1  0
  4 17  1  0
  5  6  1  0
  6  7  1  0
  7  8  1  0
  7 11  1  0
  8  9  2  0
  8 16  1  0
  9 10  1  0
  9 13  1  0
 10 11  1  0
 11 12  1  0
 13 14  2  0
 14 15  1  0
 15 16  2  0
 18 19  1  0
 19 35  1  0
 20 21  1  0
 21 22  2  0
 21 26  1  0
 22 23  1  0
 23 24  2  0
 24 25  1  0
 25 26  2  0
 27 28  1  0
 27 49  2  0
 27 53  1  0
 28 29  2  0
 28 33  1  0
 29 30  1  0
 30 31  2  0
 31 32  1  0
 31 34  1  0
 32 33  2  0
 34 35  1  0
 35 36  1  0
 36 37  1  0
 37 38  1  0
 37 48  2  0
 38 39  1  0
 38 44  1  0
 39 40  1  0
 40 41  1  0
 40 43  2  0
 41 42  1  0
 44 45  1  1
 44 46  1  0
 44 47  1  0
 49 50  1  0
 50 51  2  0
 51 52  1  0
 52 53  2  0
  4 54  1  1
  5 55  1  0
  5 56  1  0
  7 57  1  1
 10 58  1  0
 10 59  1  0
 11 60  1  1
 12 61  1  0
 13 62  1  0
 14 63  1  0
 15 64  1  0
 16 65  1  0
 17 66  1  0
 18 67  1  0
 18 68  1  0
 19 69  1  0
 19 70  1  0
 20 71  1  0
 20 72  1  0
 22 73  1  0
 23 74  1  0
 24 75  1  0
 25 76  1  0
 26 77  1  0
 29 78  1  0
 30 79  1  0
 32 80  1  0
 33 81  1  0
 34 82  1  0
 34 83  1  0
 36 84  1  0
 38 85  1  6
 39 86  1  0
 42 87  1  0
 42 88  1  0
 42 89  1  0
 45 90  1  0
 45 91  1  0
 45 92  1  0
 46 93  1  0
 46 94  1  0
 46 95  1  0
 47 96  1  0
 47 97  1  0
 47 98  1  0
 49 99  1  0
 50100  1  0
 52101  1  0
 53102  1  0
M  END
