
     RDKit          3D

 25 25  0  0  0  0  0  0  0  0999 V2000
   -4.0887    0.2781   -0.0744 C   0  0  0  0  0  0  0  0  0  0  0  0
   -2.6305    0.6417   -0.0660 C   0  0  0  0  0  0  0  0  0  0  0  0
   -1.7518   -0.4831    0.4633 C   0  0  0  0  0  0  0  0  0  0  0  0
   -0.3621   -0.0875    0.4662 N   0  0  0  0  0  0  0  0  0  0  0  0
    0.6097   -0.7365   -0.1986 C   0  0  0  0  0  0  0  0  0  0  0  0
    1.9763   -0.1359   -0.0995 C   0  0  0  0  0  0  0  0  0  0  0  0
    3.0774   -0.9805   -0.2254 C   0  0  0  0  0  0  0  0  0  0  0  0
    4.3640   -0.4700   -0.1534 C   0  0  0  0  0  0  0  0  0  0  0  0
    4.5647    0.8935    0.0231 C   0  0  0  0  0  0  0  0  0  0  0  0
    3.4724    1.7435    0.1285 C   0  0  0  0  0  0  0  0  0  0  0  0
    2.1838    1.2316    0.0710 C   0  0  0  0  0  0  0  0  0  0  0  0
    0.4191   -1.7581   -0.8450 O   0  0  0  0  0  0  0  0  0  0  0  0
   -4.8466    1.2828   -0.4982 O   0  0  0  0  0  0  0  0  0  0  0  0
   -4.5340   -0.7925    0.2566 O   0  0  0  0  0  0  0  0  0  0  0  0
   -2.3322    0.9074   -1.0843 H   0  0  0  0  0  0  0  0  0  0  0  0
   -2.5028    1.5486    0.5325 H   0  0  0  0  0  0  0  0  0  0  0  0
   -2.0535   -0.7593    1.4755 H   0  0  0  0  0  0  0  0  0  0  0  0
   -1.8512   -1.3692   -0.1588 H   0  0  0  0  0  0  0  0  0  0  0  0
   -0.1081    0.6794    1.0677 H   0  0  0  0  0  0  0  0  0  0  0  0
    2.9275   -2.0423   -0.3688 H   0  0  0  0  0  0  0  0  0  0  0  0
    5.2115   -1.1372   -0.2389 H   0  0  0  0  0  0  0  0  0  0  0  0
    5.5696    1.2923    0.0731 H   0  0  0  0  0  0  0  0  0  0  0  0
    3.6208    2.8085    0.2484 H   0  0  0  0  0  0  0  0  0  0  0  0
    1.3472    1.9164    0.1337 H   0  0  0  0  0  0  0  0  0  0  0  0
   -5.7789    1.0186   -0.4968 H   0  0  0  0  0  0  0  0  0  0  0  0
 14  1  2  0
  2  1  1  0
  1 13  1  0
  3  2  1  0
  2 15  1  0
  2 16  1  0
  4  3  1  0
  3 17  1  0
  3 18  1  0
  5  4  1  0
  4 19  1  0
  6  5  1  0
  5 12  2  0
 11  6  2  0
  7  6  1  0
  8  7  2  0
  7 20  1  0
  9  8  1  0
  8 21  1  0
  9 10  2  0
  9 22  1  0
 10 11  1  0
 10 23  1  0
 11 24  1  0
 13 25  1  0
M  END
