
     RDKit          3D

 48 52  0  0  0  0  0  0  0  0999 V2000
   -1.3631    0.3864   -6.5150 Cl  0  0  0  0  0  0  0  0  0  0  0  0
   -1.0104    0.8250   -4.8741 C   0  0  0  0  0  0  0  0  0  0  0  0
   -0.0994    0.0830   -4.1459 C   0  0  0  0  0  0  0  0  0  0  0  0
    0.1734    0.4409   -2.8302 C   0  0  0  0  0  0  0  0  0  0  0  0
   -0.4496    1.5295   -2.2294 C   0  0  0  0  0  0  0  0  0  0  0  0
   -1.3563    2.2626   -2.9979 C   0  0  0  0  0  0  0  0  0  0  0  0
   -1.6449    1.9211   -4.3076 C   0  0  0  0  0  0  0  0  0  0  0  0
   -0.1764    1.9568   -0.7878 C   0  0  1  0  0  0  0  0  0  0  0  0
   -1.5116    1.9365   -0.0125 C   0  0  0  0  0  0  0  0  0  0  0  0
   -1.3552    2.1618    1.4865 C   0  0  0  0  0  0  0  0  0  0  0  0
   -0.4323    1.1914    2.0450 N   0  0  0  0  0  0  0  0  0  0  0  0
    0.8750    1.2993    1.4246 C   0  0  0  0  0  0  0  0  0  0  0  0
    0.7625    0.9784   -0.0570 C   0  0  0  0  0  0  0  0  0  0  0  0
    0.4725    3.3398   -0.8713 C   0  0  0  0  0  0  0  0  0  0  0  0
    1.7626    3.4558   -1.3920 C   0  0  0  0  0  0  0  0  0  0  0  0
    2.3883    4.6812   -1.5242 C   0  0  0  0  0  0  0  0  0  0  0  0
    1.7375    5.8589   -1.1446 C   0  0  0  0  0  0  0  0  0  0  0  0
    0.4399    5.7526   -0.6448 C   0  0  0  0  0  0  0  0  0  0  0  0
   -0.1771    4.5186   -0.5131 C   0  0  0  0  0  0  0  0  0  0  0  0
    2.3741    7.1799   -1.2669 C   0  0  0  0  0  0  0  0  0  0  0  0
    1.6556    8.2453   -0.9043 N   0  0  0  0  0  0  0  0  0  0  0  0
    2.1694    9.4652   -0.9911 C   0  0  0  0  0  0  0  0  0  0  0  0
    3.3780    9.8013   -1.4157 N   0  0  0  0  0  0  0  0  0  0  0  0
    4.0909    8.7494   -1.7735 C   0  0  0  0  0  0  0  0  0  0  0  0
    5.3612    8.7127   -2.2519 N   0  0  0  0  0  0  0  0  0  0  0  0
    5.6583    7.4066   -2.4746 C   0  0  0  0  0  0  0  0  0  0  0  0
    4.6853    6.5945   -2.1801 N   0  0  0  0  0  0  0  0  0  0  0  0
    3.6734    7.4082   -1.7328 C   0  0  0  0  0  0  0  0  0  0  0  0
    0.3985   -0.7686   -4.5896 H   0  0  0  0  0  0  0  0  0  0  0  0
   -2.3530    2.5051   -4.8797 H   0  0  0  0  0  0  0  0  0  0  0  0
    0.8919   -0.1567   -2.2867 H   0  0  0  0  0  0  0  0  0  0  0  0
   -1.8522    3.1288   -2.5773 H   0  0  0  0  0  0  0  0  0  0  0  0
   -1.9587    0.9508   -0.1681 H   0  0  0  0  0  0  0  0  0  0  0  0
   -2.2227    2.6570   -0.4205 H   0  0  0  0  0  0  0  0  0  0  0  0
    1.7576    0.9651   -0.5042 H   0  0  0  0  0  0  0  0  0  0  0  0
    0.3610   -0.0347   -0.1520 H   0  0  0  0  0  0  0  0  0  0  0  0
   -1.0385    3.1965    1.6807 H   0  0  0  0  0  0  0  0  0  0  0  0
   -2.3311    2.0388    1.9612 H   0  0  0  0  0  0  0  0  0  0  0  0
   -0.3470    1.3474    3.0409 H   0  0  0  0  0  0  0  0  0  0  0  0
    1.5502    0.5813    1.8940 H   0  0  0  0  0  0  0  0  0  0  0  0
    1.3292    2.2948    1.5565 H   0  0  0  0  0  0  0  0  0  0  0  0
    2.2983    2.5728   -1.7170 H   0  0  0  0  0  0  0  0  0  0  0  0
   -1.1861    4.4960   -0.1251 H   0  0  0  0  0  0  0  0  0  0  0  0
    3.3895    4.7179   -1.9291 H   0  0  0  0  0  0  0  0  0  0  0  0
   -0.0941    6.6466   -0.3541 H   0  0  0  0  0  0  0  0  0  0  0  0
    1.5244   10.2786   -0.6788 H   0  0  0  0  0  0  0  0  0  0  0  0
    5.9697    9.5009   -2.4150 H   0  0  0  0  0  0  0  0  0  0  0  0
    6.6207    7.1075   -2.8607 H   0  0  0  0  0  0  0  0  0  0  0  0
  1  2  1  0
  2  3  2  0
  3  4  1  0
  4  5  2  0
  5  6  1  0
  2  7  1  0
  6  7  2  0
  8  5  1  6
  8  9  1  0
  9 10  1  0
 10 11  1  0
 11 12  1  0
  8 13  1  0
 12 13  1  0
  8 14  1  0
 14 15  2  0
 15 16  1  0
 16 17  2  0
 17 18  1  0
 14 19  1  0
 18 19  2  0
 17 20  1  0
 20 21  2  0
 21 22  1  0
 22 23  2  0
 23 24  1  0
 24 25  1  0
 25 26  1  0
 26 27  2  0
 20 28  1  0
 24 28  2  0
 27 28  1  0
  3 29  1  0
  7 30  1  0
  4 31  1  0
  6 32  1  0
  9 33  1  0
  9 34  1  0
 13 35  1  0
 13 36  1  0
 10 37  1  0
 10 38  1  0
 11 39  1  0
 12 40  1  0
 12 41  1  0
 15 42  1  0
 19 43  1  0
 16 44  1  0
 18 45  1  0
 22 46  1  0
 25 47  1  0
 26 48  1  0
M  END
