
     RDKit          3D

 31 33  0  0  0  0  0  0  0  0999 V2000
   -2.7772   -1.5133   -0.1969 N   0  0  0  0  0  0  0  0  0  0  0  0
   -3.6936   -0.5462   -0.0437 C   0  0  0  0  0  0  0  0  0  0  0  0
   -3.4660    0.7538    0.0921 N   0  0  0  0  0  0  0  0  0  0  0  0
   -2.1678    1.0537    0.1020 C   0  0  0  0  0  0  0  0  0  0  0  0
   -1.0991    0.1545   -0.0008 C   0  0  0  0  0  0  0  0  0  0  0  0
   -1.4877   -1.1889   -0.1966 C   0  0  0  0  0  0  0  0  0  0  0  0
   -4.9923   -0.9493   -0.0871 N   0  0  0  0  0  0  0  0  0  0  0  0
   -0.6037   -2.1867   -0.3737 N   0  0  0  0  0  0  0  0  0  0  0  0
    3.7869    0.7041   -0.7573 C   0  0  0  0  0  0  0  0  0  0  0  0
    3.2662   -0.9931    0.8350 C   0  0  0  0  0  0  0  0  0  0  0  0
    2.4597    1.1065   -0.7672 C   0  0  0  0  0  0  0  0  0  0  0  0
    1.9407   -0.5861    0.8391 C   0  0  0  0  0  0  0  0  0  0  0  0
   -0.2776    2.2287    0.1677 C   0  0  0  0  0  0  0  0  0  0  0  0
   -1.6491    2.2990    0.2009 N   0  0  0  0  0  0  0  0  0  0  0  0
    4.2161   -0.3538    0.0408 C   0  0  0  0  0  0  0  0  0  0  0  0
    1.5097    0.4698    0.0324 C   0  0  0  0  0  0  0  0  0  0  0  0
    0.1159    0.9255    0.0498 C   0  0  0  0  0  0  0  0  0  0  0  0
    6.1908   -0.2854    0.8849 H   0  0  0  0  0  0  0  0  0  0  0  0
    5.7598   -1.8481    0.2109 H   0  0  0  0  0  0  0  0  0  0  0  0
    6.1680   -0.5040   -0.8578 H   0  0  0  0  0  0  0  0  0  0  0  0
   -5.1743   -1.9239    0.0809 H   0  0  0  0  0  0  0  0  0  0  0  0
   -5.6801   -0.3133    0.2789 H   0  0  0  0  0  0  0  0  0  0  0  0
   -0.9513   -3.0860   -0.6610 H   0  0  0  0  0  0  0  0  0  0  0  0
    0.3576   -1.9845   -0.5847 H   0  0  0  0  0  0  0  0  0  0  0  0
    4.4982    1.2157   -1.3951 H   0  0  0  0  0  0  0  0  0  0  0  0
    3.5663   -1.8202    1.4683 H   0  0  0  0  0  0  0  0  0  0  0  0
    2.1535    1.9188   -1.4152 H   0  0  0  0  0  0  0  0  0  0  0  0
    1.2372   -1.0836    1.4957 H   0  0  0  0  0  0  0  0  0  0  0  0
    0.3233    3.1182    0.2670 H   0  0  0  0  0  0  0  0  0  0  0  0
   -2.1862    3.1460    0.2920 H   0  0  0  0  0  0  0  0  0  0  0  0
    5.6569   -0.7729    0.0662 C   0  0  0  0  0  0  0  0  0  0  0  0
  1  2  2  0
  1  6  1  0
  2  3  1  0
  2  7  1  0
  3  4  2  0
  4  5  1  0
  4 14  1  0
  5  6  2  0
  5 17  1  0
  6  8  1  0
 31 15  1  0
  9 11  2  0
  9 15  1  0
 10 12  1  0
 10 15  2  0
 11 16  1  0
 12 16  2  0
 13 14  1  0
 13 17  2  0
 16 17  1  0
 31 18  1  0
 31 19  1  0
 31 20  1  0
  7 21  1  0
  7 22  1  0
  8 23  1  0
  8 24  1  0
  9 25  1  0
 10 26  1  0
 11 27  1  0
 12 28  1  0
 13 29  1  0
 14 30  1  0
M  END
