
     RDKit          3D

 25 25  0  0  0  0  0  0  0  0999 V2000
    2.6768   -0.2863   -0.0496 N   0  0  0  0  0  0  0  0  0  0  0  0
   -4.0695    1.7071   -0.3779 N   0  0  0  0  0  0  0  0  0  0  0  0
    1.0851   -2.0473    0.1153 C   0  0  0  0  0  0  0  0  0  0  0  0
   -0.2191   -2.5006    0.1745 C   0  0  0  0  0  0  0  0  0  0  0  0
   -1.2984   -1.6294    0.1306 C   0  0  0  0  0  0  0  0  0  0  0  0
   -1.0497   -0.2629    0.0155 C   0  0  0  0  0  0  0  0  0  0  0  0
    0.2648    0.2094   -0.0441 C   0  0  0  0  0  0  0  0  0  0  0  0
    3.2148    0.9562   -0.1634 C   0  0  0  0  0  0  0  0  0  0  0  0
    1.3360   -0.6767    0.0086 C   0  0  0  0  0  0  0  0  0  0  0  0
   -3.3546    0.5531   -0.4132 C   0  0  0  0  0  0  0  0  0  0  0  0
    2.5556    1.9777   -0.2381 O   0  0  0  0  0  0  0  0  0  0  0  0
   -3.8200   -0.5045   -0.8075 O   0  0  0  0  0  0  0  0  0  0  0  0
    3.3348   -1.0483   -0.0002 H   0  0  0  0  0  0  0  0  0  0  0  0
   -3.7675    2.4879    0.1811 H   0  0  0  0  0  0  0  0  0  0  0  0
   -5.0649    1.6296   -0.5015 H   0  0  0  0  0  0  0  0  0  0  0  0
    1.9073   -2.7513    0.1533 H   0  0  0  0  0  0  0  0  0  0  0  0
   -0.4037   -3.5632    0.2641 H   0  0  0  0  0  0  0  0  0  0  0  0
   -2.3033   -2.0130    0.1946 H   0  0  0  0  0  0  0  0  0  0  0  0
    0.4363    1.2704   -0.1381 H   0  0  0  0  0  0  0  0  0  0  0  0
    5.1766    0.0177   -0.3821 H   0  0  0  0  0  0  0  0  0  0  0  0
    5.0717    1.7068   -0.8978 H   0  0  0  0  0  0  0  0  0  0  0  0
    5.0739    1.3087    0.8143 H   0  0  0  0  0  0  0  0  0  0  0  0
   -1.7339    1.6505    0.1494 H   0  0  0  0  0  0  0  0  0  0  0  0
   -2.0533    0.7059   -0.0004 N   0  0  0  0  0  0  0  0  0  0  0  0
    4.7211    0.9824   -0.1653 C   0  0  0  0  0  0  0  0  0  0  0  0
 12 10  2  0
 24 10  1  0
 24  6  1  0
 10  2  1  0
  6  5  2  0
  6  7  1  0
  5  4  1  0
  7  9  2  0
  4  3  2  0
  9  3  1  0
  9  1  1  0
  1  8  1  0
  8 11  2  0
  8 25  1  0
  1 13  1  0
  2 14  1  0
  2 15  1  0
  3 16  1  0
  4 17  1  0
  5 18  1  0
  7 19  1  0
 25 20  1  0
 25 21  1  0
 25 22  1  0
 24 23  1  0
M  END
