
     RDKit          3D

  8  8  0  0  0  0  0  0  0  0999 V2000
    0.0359    1.1806    0.0561 C   0  0  0  0  0  0  0  0  0  0  0  0
   -1.0785    0.3842    0.0292 C   0  0  0  0  0  0  0  0  0  0  0  0
    0.6135   -0.9423   -0.0327 N   0  0  0  0  0  0  0  0  0  0  0  0
   -0.6749   -0.9039   -0.0251 N   0  0  0  0  0  0  0  0  0  0  0  0
    1.0476    0.3018    0.0159 N   0  0  0  0  0  0  0  0  0  0  0  0
    0.1798    2.2457    0.0984 H   0  0  0  0  0  0  0  0  0  0  0  0
   -2.1182    0.6648    0.0452 H   0  0  0  0  0  0  0  0  0  0  0  0
    2.0391    0.4916    0.0178 H   0  0  0  0  0  0  0  0  0  0  0  0
  3  5  1  0
  3  4  2  0
  5  1  1  0
  4  2  1  0
  1  2  2  0
  1  6  1  0
  2  7  1  0
  5  8  1  0
M  END
