
     RDKit          3D

 37 39  0  0  0  0  0  0  0  0999 V2000
    2.8880   -2.2723    0.7339 C   0  0  0  0  0  0  0  0  0  0  0  0
    2.3952   -0.8901    0.7624 N   0  0  0  0  0  0  0  0  0  0  0  0
    3.3642    0.0090    0.1689 C   0  0  1  0  0  0  0  0  0  0  0  0
    4.0338   -0.8661   -0.8872 C   0  0  2  0  0  0  0  0  0  0  0  0
    4.1563   -2.1951   -0.1324 C   0  0  0  0  0  0  0  0  0  0  0  0
    1.1530   -0.5768    0.3187 C   0  0  0  0  0  0  0  0  0  0  0  0
    1.1623    0.6174   -0.3079 O   0  0  0  0  0  0  0  0  0  0  0  0
    2.4775    1.1514   -0.3204 C   0  0  1  0  0  0  0  0  0  0  0  0
    0.1206   -1.2927    0.4788 N   0  0  0  0  0  0  0  0  0  0  0  0
   -1.0938   -0.9888   -0.1046 C   0  0  0  0  0  0  0  0  0  0  0  0
   -2.2388   -0.9172    0.7150 C   0  0  0  0  0  0  0  0  0  0  0  0
   -3.4588   -0.6796    0.0983 C   0  0  0  0  0  0  0  0  0  0  0  0
   -3.5817   -0.5257   -1.2847 C   0  0  0  0  0  0  0  0  0  0  0  0
   -2.4391   -0.6156   -2.0776 C   0  0  0  0  0  0  0  0  0  0  0  0
   -1.2144   -0.8426   -1.4921 C   0  0  0  0  0  0  0  0  0  0  0  0
   -2.1410   -1.0803    2.2005 C   0  0  0  0  0  0  0  0  0  0  0  0
   -4.8863   -0.5580    1.0619 Cl  0  0  0  0  0  0  0  0  0  0  0  0
    5.2350   -0.2854   -1.2981 O   0  0  0  0  0  0  0  0  0  0  0  0
   -4.8473   -0.2897   -1.8874 C   0  0  0  0  0  0  0  0  0  0  0  0
   -5.8610   -0.1012   -2.4030 N   0  0  0  0  0  0  0  0  0  0  0  0
    2.4931    2.3595    0.6015 C   0  0  1  0  0  0  0  0  0  0  0  0
    3.7108    2.9058    0.6282 F   0  0  0  0  0  0  0  0  0  0  0  0
    1.6331    3.2936    0.1946 F   0  0  0  0  0  0  0  0  0  0  0  0
    2.1629    2.0318    1.8541 F   0  0  0  0  0  0  0  0  0  0  0  0
    3.1016   -2.6288    1.7401 H   0  0  0  0  0  0  0  0  0  0  0  0
    2.1233   -2.9172    0.3020 H   0  0  0  0  0  0  0  0  0  0  0  0
    4.1163    0.3344    0.8940 H   0  0  0  0  0  0  0  0  0  0  0  0
    3.3392   -0.9909   -1.7316 H   0  0  0  0  0  0  0  0  0  0  0  0
    5.0502   -2.1657    0.4944 H   0  0  0  0  0  0  0  0  0  0  0  0
    4.2430   -3.0494   -0.8027 H   0  0  0  0  0  0  0  0  0  0  0  0
    2.7278    1.4798   -1.3329 H   0  0  0  0  0  0  0  0  0  0  0  0
   -2.5209   -0.5093   -3.1504 H   0  0  0  0  0  0  0  0  0  0  0  0
   -0.3378   -0.9292   -2.1195 H   0  0  0  0  0  0  0  0  0  0  0  0
   -2.4091   -0.1571    2.7165 H   0  0  0  0  0  0  0  0  0  0  0  0
   -2.8143   -1.8589    2.5601 H   0  0  0  0  0  0  0  0  0  0  0  0
   -1.1296   -1.3454    2.4939 H   0  0  0  0  0  0  0  0  0  0  0  0
    5.5974   -0.8069   -2.0211 H   0  0  0  0  0  0  0  0  0  0  0  0
  5  1  1  0
  1  2  1  0
  1 25  1  0
  1 26  1  0
  6  2  1  0
  3  2  1  0
  4  3  1  0
  3  8  1  0
  3 27  1  1
  5  4  1  0
  4 18  1  0
  4 28  1  6
  5 29  1  0
  5 30  1  0
  9  6  2  0
  6  7  1  0
  7  8  1  0
  8 21  1  0
  8 31  1  6
 10  9  1  0
 15 10  1  0
 10 11  2  0
 12 11  1  0
 11 16  1  0
 13 12  2  0
 12 17  1  0
 14 13  1  0
 19 13  1  0
 14 15  2  0
 14 32  1  0
 15 33  1  0
 16 34  1  0
 16 35  1  0
 16 36  1  0
 18 37  1  0
 20 19  3  0
 21 22  1  1
 21 24  1  0
 21 23  1  0
M  END
