
     RDKit          3D

 59 62  0  0  0  0  0  0  0  0999 V2000
   -1.3015   -1.3196   -0.4094 C   0  0  0  0  0  0  0  0  0  0  0  0
   -2.5293   -1.5770    0.2045 C   0  0  0  0  0  0  0  0  0  0  0  0
   -2.6771   -2.7131    0.9965 C   0  0  0  0  0  0  0  0  0  0  0  0
   -4.8104   -0.9376    0.4688 C   0  0  0  0  0  0  0  0  0  0  0  0
   -7.1618   -0.0743    0.4463 C   0  0  0  0  0  0  0  0  0  0  0  0
   -9.2153    2.6169   -1.4682 C   0  0  0  0  0  0  0  0  0  0  0  0
  -10.4813    1.9177    0.4476 C   0  0  0  0  0  0  0  0  0  0  0  0
    4.2525   -0.1759    0.0416 C   0  0  0  0  0  0  0  0  0  0  0  0
    5.6900    1.1395    1.4474 C   0  0  0  0  0  0  0  0  0  0  0  0
    7.5978    1.0122   -0.1961 C   0  0  0  0  0  0  0  0  0  0  0  0
    9.7509    2.0387    0.0294 C   0  0  0  0  0  0  0  0  0  0  0  0
   -1.5953   -3.5708    1.1621 C   0  0  0  0  0  0  0  0  0  0  0  0
   -0.3786   -3.3160    0.5531 C   0  0  0  0  0  0  0  0  0  0  0  0
   -0.2303   -2.1817   -0.2431 C   0  0  0  0  0  0  0  0  0  0  0  0
   -3.5055   -0.6789   -0.0266 O   0  0  0  0  0  0  0  0  0  0  0  0
   -5.7178    0.1958    0.0386 C   0  0  0  0  0  0  0  0  0  0  0  0
   -8.1115    1.0957    0.2033 C   0  0  1  0  0  0  0  0  0  0  0  0
   -8.1987    1.5016   -1.2679 C   0  0  0  0  0  0  0  0  0  0  0  0
  -10.5174    2.2039   -0.9757 N   0  0  0  0  0  0  0  0  0  0  0  0
   -9.5139    0.7758    0.7211 C   0  0  0  0  0  0  0  0  0  0  0  0
    2.0087   -1.0824   -0.0307 C   0  0  0  0  0  0  0  0  0  0  0  0
    1.7095   -0.6236    1.0525 O   0  0  0  0  0  0  0  0  0  0  0  0
    3.2492   -0.8881   -0.5626 N   0  0  0  0  0  0  0  0  0  0  0  0
    5.4063   -0.0220   -0.5161 N   0  0  0  0  0  0  0  0  0  0  0  0
    6.2389    0.7274    0.2729 C   0  0  0  0  0  0  0  0  0  0  0  0
    4.0725    0.5796    1.5899 S   0  0  0  0  0  0  0  0  0  0  0  0
    8.4818    1.8089    0.5307 C   0  0  0  0  0  0  0  0  0  0  0  0
   10.1933    1.5410   -1.1213 N   0  0  0  0  0  0  0  0  0  0  0  0
    9.3512    0.7829   -1.8131 C   0  0  0  0  0  0  0  0  0  0  0  0
    8.0603    0.4910   -1.4028 C   0  0  0  0  0  0  0  0  0  0  0  0
   -1.2009   -0.4363   -1.0301 H   0  0  0  0  0  0  0  0  0  0  0  0
   -3.6142   -2.9461    1.4835 H   0  0  0  0  0  0  0  0  0  0  0  0
   -5.1794   -1.8933    0.0770 H   0  0  0  0  0  0  0  0  0  0  0  0
   -4.7977   -1.0138    1.5623 H   0  0  0  0  0  0  0  0  0  0  0  0
   -7.5336   -0.9565   -0.0877 H   0  0  0  0  0  0  0  0  0  0  0  0
   -7.1947   -0.3296    1.5114 H   0  0  0  0  0  0  0  0  0  0  0  0
   -9.2997    2.8608   -2.5294 H   0  0  0  0  0  0  0  0  0  0  0  0
  -10.1727    2.7926    1.0449 H   0  0  0  0  0  0  0  0  0  0  0  0
  -11.4861    1.6475    0.7799 H   0  0  0  0  0  0  0  0  0  0  0  0
    6.1359    1.7290    2.2326 H   0  0  0  0  0  0  0  0  0  0  0  0
   10.4427    2.6592    0.5878 H   0  0  0  0  0  0  0  0  0  0  0  0
   -1.7155   -4.4527    1.7781 H   0  0  0  0  0  0  0  0  0  0  0  0
    0.4508   -3.9989    0.6887 H   0  0  0  0  0  0  0  0  0  0  0  0
   -5.3736    1.1299    0.4933 H   0  0  0  0  0  0  0  0  0  0  0  0
   -5.6455    0.3207   -1.0448 H   0  0  0  0  0  0  0  0  0  0  0  0
   -7.7357    1.9610    0.7682 H   0  0  0  0  0  0  0  0  0  0  0  0
   -8.4923    0.6319   -1.8669 H   0  0  0  0  0  0  0  0  0  0  0  0
   -7.2277    1.8341   -1.6413 H   0  0  0  0  0  0  0  0  0  0  0  0
  -11.1930    2.9352   -1.1551 H   0  0  0  0  0  0  0  0  0  0  0  0
   -9.4828    0.5666    1.7937 H   0  0  0  0  0  0  0  0  0  0  0  0
   -9.8814   -0.1315    0.2288 H   0  0  0  0  0  0  0  0  0  0  0  0
    3.4780   -1.2868   -1.4628 H   0  0  0  0  0  0  0  0  0  0  0  0
    8.2013    2.2548    1.4755 H   0  0  0  0  0  0  0  0  0  0  0  0
    9.7190    0.3799   -2.7503 H   0  0  0  0  0  0  0  0  0  0  0  0
    7.4284   -0.1356   -2.0161 H   0  0  0  0  0  0  0  0  0  0  0  0
    1.0810   -1.8896   -0.9078 C   0  0  0  0  0  0  0  0  0  0  0  0
   -8.8445    3.5241   -0.9615 H   0  0  0  0  0  0  0  0  0  0  0  0
    1.5876   -2.8164   -1.1909 H   0  0  0  0  0  0  0  0  0  0  0  0
    0.9313   -1.3344   -1.8386 H   0  0  0  0  0  0  0  0  0  0  0  0
 11 28  2  0
 11 27  1  0
 28 29  1  0
 27 10  2  0
 29 30  2  0
 10 30  1  0
 10 25  1  0
  9 25  2  0
  9 26  1  0
 25 24  1  0
 26  8  1  0
 24  8  2  0
  8 23  1  0
 23 21  1  0
 22 21  2  0
 21 56  1  0
 56 14  1  0
 14  1  2  0
 14 13  1  0
  1  2  1  0
 13 12  2  0
  2 15  1  0
  2  3  2  0
 12  3  1  0
 15  4  1  0
 16  4  1  0
 16  5  1  0
 18  6  1  0
 18 17  1  0
  6 19  1  0
  5 17  1  0
 17 20  1  0
 19  7  1  0
 20  7  1  0
  1 31  1  0
  3 32  1  0
  4 33  1  0
  4 34  1  0
  5 35  1  0
  5 36  1  0
  6 57  1  0
  6 37  1  0
  7 38  1  0
  7 39  1  0
 56 58  1  0
 56 59  1  0
  9 40  1  0
 11 41  1  0
 12 42  1  0
 13 43  1  0
 16 44  1  0
 16 45  1  0
 17 46  1  1
 18 47  1  0
 18 48  1  0
 19 49  1  0
 20 50  1  0
 20 51  1  0
 23 52  1  0
 27 53  1  0
 29 54  1  0
 30 55  1  0
M  END
