
     RDKit          3D

 30 31  0  0  0  0  0  0  0  0999 V2000
    4.9445   -0.3242   -0.3419 O   0  0  0  0  0  0  0  0  0  0  0  0
    4.5043    0.2450   -1.3119 C   0  0  0  0  0  0  0  0  0  0  0  0
    3.0510    0.5117   -1.5093 C   0  0  0  0  0  0  0  0  0  0  0  0
    2.6767    1.1450   -2.6134 N   0  0  0  0  0  0  0  0  0  0  0  0
    2.1543    0.0943   -0.5371 C   0  0  0  0  0  0  0  0  0  0  0  0
    1.3931    1.3958   -2.7845 C   0  0  0  0  0  0  0  0  0  0  0  0
    0.7997    0.3450   -0.7008 C   0  0  0  0  0  0  0  0  0  0  0  0
    0.9811    2.0393   -4.0901 C   0  0  1  0  0  0  0  0  0  0  0  0
    0.4011    1.0201   -1.8625 C   0  0  0  0  0  0  0  0  0  0  0  0
    0.7043    1.0320   -5.0438 O   0  0  0  0  0  0  0  0  0  0  0  0
   -0.1998    2.9728   -3.8765 C   0  0  0  0  0  0  0  0  0  0  0  0
   -0.2304   -0.1021    0.3221 C   0  0  1  0  0  0  0  0  0  0  0  0
   -1.0779   -1.0847   -0.2417 O   0  0  0  0  0  0  0  0  0  0  0  0
   -0.9844    1.3941   -2.1427 C   0  0  0  0  0  0  0  0  0  0  0  0
    0.3545   -0.5627    1.6460 C   0  0  0  0  0  0  0  0  0  0  0  0
   -1.2724    2.3145   -3.0684 C   0  0  0  0  0  0  0  0  0  0  0  0
    5.2519    0.6965   -2.3026 O   0  0  0  0  0  0  0  0  0  0  0  0
    2.5244   -0.4110    0.3431 H   0  0  0  0  0  0  0  0  0  0  0  0
    1.8301    2.5998   -4.4835 H   0  0  0  0  0  0  0  0  0  0  0  0
   -0.1094    0.5819   -4.7895 H   0  0  0  0  0  0  0  0  0  0  0  0
   -0.5861    3.3129   -4.8390 H   0  0  0  0  0  0  0  0  0  0  0  0
    0.1392    3.8738   -3.3507 H   0  0  0  0  0  0  0  0  0  0  0  0
   -0.8803    0.7536    0.5264 H   0  0  0  0  0  0  0  0  0  0  0  0
   -0.5535   -1.8748   -0.4124 H   0  0  0  0  0  0  0  0  0  0  0  0
   -1.7807    0.9389   -1.5720 H   0  0  0  0  0  0  0  0  0  0  0  0
    0.9705    0.2118    2.1034 H   0  0  0  0  0  0  0  0  0  0  0  0
    0.9656   -1.4609    1.5362 H   0  0  0  0  0  0  0  0  0  0  0  0
   -0.4548   -0.7951    2.3376 H   0  0  0  0  0  0  0  0  0  0  0  0
   -2.3012    2.6121   -3.2283 H   0  0  0  0  0  0  0  0  0  0  0  0
    6.1831    0.4974   -2.1230 H   0  0  0  0  0  0  0  0  0  0  0  0
  1  2  2  0
  2  3  1  0
  2 17  1  0
  3  4  2  0
  3  5  1  0
  4  6  1  0
  5  7  2  0
  5 18  1  0
  6  8  1  0
  6  9  2  0
  7  9  1  0
  7 12  1  0
  8 10  1  0
  8 11  1  0
  8 19  1  6
  9 14  1  0
 10 20  1  0
 11 16  1  0
 11 21  1  0
 11 22  1  0
 12 13  1  0
 12 15  1  0
 12 23  1  1
 13 24  1  0
 14 16  2  0
 14 25  1  0
 15 26  1  0
 15 27  1  0
 15 28  1  0
 16 29  1  0
 17 30  1  0
M  END
