
     RDKit          3D

 61 61  0  0  0  0  0  0  0  0999 V2000
   -5.1027    0.0892   -1.3075 C   0  0  1  0  0  0  0  0  0  0  0  0
   -4.0675    1.2075   -1.4090 C   0  0  2  0  0  0  0  0  0  0  0  0
   -3.8550    1.8740   -0.0537 C   0  0  1  0  0  0  0  0  0  0  0  0
   -3.4995    0.8095    0.9863 C   0  0  2  0  0  0  0  0  0  0  0  0
   -4.6919   -0.8773   -0.1928 C   0  0  2  0  0  0  0  0  0  0  0  0
   -6.3508    0.6665   -1.0183 O   0  0  0  0  0  0  0  0  0  0  0  0
   -4.4459    2.2099   -2.3230 O   0  0  0  0  0  0  0  0  0  0  0  0
   -2.7933    2.7976   -0.1022 O   0  0  0  0  0  0  0  0  0  0  0  0
   -4.4973   -0.1977    1.0123 O   0  0  0  0  0  0  0  0  0  0  0  0
   -3.4168    1.3935    2.3802 C   0  0  0  0  0  0  0  0  0  0  0  0
   -2.9757    0.3945    3.2691 O   0  0  0  0  0  0  0  0  0  0  0  0
   -3.5521   -1.5492   -0.6207 O   0  0  0  0  0  0  0  0  0  0  0  0
   -3.1261   -2.6009    0.2240 C   0  0  0  0  0  0  0  0  0  0  0  0
   -1.7611   -3.0584   -0.2181 C   0  0  0  0  0  0  0  0  0  0  0  0
   -0.8291   -2.0392    0.0308 O   0  0  0  0  0  0  0  0  0  0  0  0
    0.4826   -2.3896   -0.3374 C   0  0  0  0  0  0  0  0  0  0  0  0
    1.4253   -1.2574    0.0159 C   0  0  0  0  0  0  0  0  0  0  0  0
    2.8682   -1.5778   -0.3539 C   0  0  0  0  0  0  0  0  0  0  0  0
    3.8365   -0.4648    0.0265 C   0  0  0  0  0  0  0  0  0  0  0  0
    5.2833   -0.7756   -0.3350 C   0  0  0  0  0  0  0  0  0  0  0  0
    6.2519    0.3275    0.0729 C   0  0  0  0  0  0  0  0  0  0  0  0
    7.7008    0.0255   -0.2886 C   0  0  0  0  0  0  0  0  0  0  0  0
    8.6674    1.1211    0.1432 C   0  0  0  0  0  0  0  0  0  0  0  0
   10.1173    0.8296   -0.2243 C   0  0  0  0  0  0  0  0  0  0  0  0
   11.0729    1.9272    0.2228 C   0  0  0  0  0  0  0  0  0  0  0  0
   -5.1311   -0.4650   -2.2563 H   0  0  0  0  0  0  0  0  0  0  0  0
   -3.1133    0.7525   -1.7055 H   0  0  0  0  0  0  0  0  0  0  0  0
   -4.7892    2.3669    0.2546 H   0  0  0  0  0  0  0  0  0  0  0  0
   -2.5228    0.3782    0.7232 H   0  0  0  0  0  0  0  0  0  0  0  0
   -5.5085   -1.5868    0.0102 H   0  0  0  0  0  0  0  0  0  0  0  0
   -7.0292   -0.0098   -1.1061 H   0  0  0  0  0  0  0  0  0  0  0  0
   -4.2701    1.8974   -3.2155 H   0  0  0  0  0  0  0  0  0  0  0  0
   -3.0039    3.4578   -0.7707 H   0  0  0  0  0  0  0  0  0  0  0  0
   -2.7293    2.2457    2.3584 H   0  0  0  0  0  0  0  0  0  0  0  0
   -4.4049    1.7835    2.6628 H   0  0  0  0  0  0  0  0  0  0  0  0
   -2.9018    0.7898    4.1422 H   0  0  0  0  0  0  0  0  0  0  0  0
   -3.0812   -2.2797    1.2696 H   0  0  0  0  0  0  0  0  0  0  0  0
   -3.8247   -3.4454    0.1674 H   0  0  0  0  0  0  0  0  0  0  0  0
   -1.5073   -3.9724    0.3379 H   0  0  0  0  0  0  0  0  0  0  0  0
   -1.7779   -3.3316   -1.2834 H   0  0  0  0  0  0  0  0  0  0  0  0
    0.7970   -3.3093    0.1796 H   0  0  0  0  0  0  0  0  0  0  0  0
    0.5389   -2.6031   -1.4156 H   0  0  0  0  0  0  0  0  0  0  0  0
    1.1063   -0.3450   -0.4976 H   0  0  0  0  0  0  0  0  0  0  0  0
    1.3586   -1.0542    1.0892 H   0  0  0  0  0  0  0  0  0  0  0  0
    3.1761   -2.5062    0.1395 H   0  0  0  0  0  0  0  0  0  0  0  0
    2.9382   -1.7686   -1.4302 H   0  0  0  0  0  0  0  0  0  0  0  0
    3.5297    0.4655   -0.4640 H   0  0  0  0  0  0  0  0  0  0  0  0
    3.7642   -0.2767    1.1034 H   0  0  0  0  0  0  0  0  0  0  0  0
    5.5842   -1.7147    0.1426 H   0  0  0  0  0  0  0  0  0  0  0  0
    5.3604   -0.9471   -1.4145 H   0  0  0  0  0  0  0  0  0  0  0  0
    5.9481    1.2687   -0.3989 H   0  0  0  0  0  0  0  0  0  0  0  0
    6.1751    0.4938    1.1533 H   0  0  0  0  0  0  0  0  0  0  0  0
    8.0009   -0.9226    0.1717 H   0  0  0  0  0  0  0  0  0  0  0  0
    7.7816   -0.1255   -1.3709 H   0  0  0  0  0  0  0  0  0  0  0  0
    8.3634    2.0719   -0.3090 H   0  0  0  0  0  0  0  0  0  0  0  0
    8.5908    1.2650    1.2269 H   0  0  0  0  0  0  0  0  0  0  0  0
   10.4195   -0.1227    0.2226 H   0  0  0  0  0  0  0  0  0  0  0  0
   10.1960    0.6934   -1.3076 H   0  0  0  0  0  0  0  0  0  0  0  0
   10.8032    2.8882   -0.2196 H   0  0  0  0  0  0  0  0  0  0  0  0
   11.0527    2.0490    1.3074 H   0  0  0  0  0  0  0  0  0  0  0  0
   12.1016    1.7076   -0.0659 H   0  0  0  0  0  0  0  0  0  0  0  0
 25 24  1  0
 24 23  1  0
 23 22  1  0
 22 21  1  0
 21 20  1  0
 20 19  1  0
 19 18  1  0
 18 17  1  0
 17 16  1  0
 16 15  1  0
 15 14  1  0
  7  2  1  0
  1  6  1  0
  1  2  1  0
  1  5  1  0
 12 13  1  0
 12  5  1  0
 14 13  1  0
  2  3  1  0
  5  9  1  0
  3  8  1  0
  3  4  1  0
  9  4  1  0
  4 10  1  0
 10 11  1  0
  1 26  1  6
  2 27  1  6
  3 28  1  1
  4 29  1  6
  5 30  1  1
  6 31  1  0
  7 32  1  0
  8 33  1  0
 10 34  1  0
 10 35  1  0
 11 36  1  0
 13 37  1  0
 13 38  1  0
 14 39  1  0
 14 40  1  0
 16 41  1  0
 16 42  1  0
 17 43  1  0
 17 44  1  0
 18 45  1  0
 18 46  1  0
 19 47  1  0
 19 48  1  0
 20 49  1  0
 20 50  1  0
 21 51  1  0
 21 52  1  0
 22 53  1  0
 22 54  1  0
 23 55  1  0
 23 56  1  0
 24 57  1  0
 24 58  1  0
 25 59  1  0
 25 60  1  0
 25 61  1  0
M  END
