
     RDKit          3D

 36 38  0  0  0  0  0  0  0  0999 V2000
   -3.5773   -0.7397   -0.1839 C   0  0  2  0  0  0  0  0  0  0  0  0
   -3.6933   -0.6360   -1.5637 O   0  0  0  0  0  0  0  0  0  0  0  0
   -3.3444    0.6542    0.4065 C   0  0  2  0  0  0  0  0  0  0  0  0
   -4.3671    1.5804   -0.0493 N   0  0  0  0  0  0  0  0  0  0  0  0
   -1.9518    1.1922    0.0493 C   0  0  1  0  0  0  0  0  0  0  0  0
   -1.6856    2.4045    0.7145 O   0  0  0  0  0  0  0  0  0  0  0  0
   -0.9400    0.1577    0.4864 C   0  0  2  0  0  0  0  0  0  0  0  0
    0.3727    0.5345    0.1275 O   0  0  0  0  0  0  0  0  0  0  0  0
   -1.2635   -1.1790   -0.1738 C   0  0  2  0  0  0  0  0  0  0  0  0
   -2.5461   -1.6216    0.2019 O   0  0  0  0  0  0  0  0  0  0  0  0
   -0.2130   -2.1851    0.2652 C   0  0  0  0  0  0  0  0  0  0  0  0
    1.0630   -1.6633   -0.0620 O   0  0  0  0  0  0  0  0  0  0  0  0
    5.3026    0.7589   -0.4817 C   0  0  0  0  0  0  0  0  0  0  0  0
    5.0552   -0.4665    0.1253 C   0  0  0  0  0  0  0  0  0  0  0  0
    4.2449    1.6121   -0.7584 C   0  0  0  0  0  0  0  0  0  0  0  0
    3.7575   -0.8328    0.4481 C   0  0  0  0  0  0  0  0  0  0  0  0
    2.9435    1.2461   -0.4351 C   0  0  0  0  0  0  0  0  0  0  0  0
    2.6914    0.0193    0.1679 C   0  0  0  0  0  0  0  0  0  0  0  0
    1.3009   -0.4201    0.5428 C   0  0  1  0  0  0  0  0  0  0  0  0
   -4.4832   -1.1725    0.2577 H   0  0  0  0  0  0  0  0  0  0  0  0
   -3.3635    0.5135    1.4989 H   0  0  0  0  0  0  0  0  0  0  0  0
   -5.2835    1.1611    0.0561 H   0  0  0  0  0  0  0  0  0  0  0  0
   -4.3783    2.3874    0.5616 H   0  0  0  0  0  0  0  0  0  0  0  0
   -1.8831    1.3226   -1.0393 H   0  0  0  0  0  0  0  0  0  0  0  0
   -2.0937    3.1202    0.2186 H   0  0  0  0  0  0  0  0  0  0  0  0
   -1.0051    0.0325    1.5809 H   0  0  0  0  0  0  0  0  0  0  0  0
   -1.1897   -1.0581   -1.2628 H   0  0  0  0  0  0  0  0  0  0  0  0
   -0.2953   -2.3719    1.3451 H   0  0  0  0  0  0  0  0  0  0  0  0
   -0.3195   -3.1365   -0.2571 H   0  0  0  0  0  0  0  0  0  0  0  0
    5.8746   -1.1377    0.3485 H   0  0  0  0  0  0  0  0  0  0  0  0
    4.4295    2.5687   -1.2300 H   0  0  0  0  0  0  0  0  0  0  0  0
    3.5775   -1.7880    0.9259 H   0  0  0  0  0  0  0  0  0  0  0  0
    2.1326    1.9263   -0.6560 H   0  0  0  0  0  0  0  0  0  0  0  0
    1.2257   -0.5396    1.6393 H   0  0  0  0  0  0  0  0  0  0  0  0
   -4.0136   -1.4741   -1.9148 H   0  0  0  0  0  0  0  0  0  0  0  0
    6.3150    1.0475   -0.7329 H   0  0  0  0  0  0  0  0  0  0  0  0
  1  2  1  0
  1  3  1  0
  1 10  1  0
  3  4  1  0
  3  5  1  0
  5  6  1  0
  5  7  1  0
  7  8  1  0
  7  9  1  0
  8 19  1  0
  9 10  1  0
  9 11  1  0
 11 12  1  0
 12 19  1  0
 13 14  2  0
 13 15  1  0
 14 16  1  0
 15 17  2  0
 16 18  2  0
 17 18  1  0
 18 19  1  0
  1 20  1  1
  3 21  1  1
  4 22  1  0
  4 23  1  0
  5 24  1  6
  6 25  1  0
  7 26  1  1
  9 27  1  6
 11 28  1  0
 11 29  1  0
 13 36  1  0
 14 30  1  0
 15 31  1  0
 16 32  1  0
 17 33  1  0
 19 34  1  1
  2 35  1  0
M  END
