
     RDKit          3D

 40 41  0  0  0  0  0  0  0  0999 V2000
    3.7714   -1.4600    0.2481 S   0  0  1  0  0  0  0  0  0  0  0  0
   -1.2355   -0.1381   -0.0773 N   0  0  0  0  0  0  0  0  0  0  0  0
   -2.6074   -0.2540   -0.0199 C   0  0  0  0  0  0  0  0  0  0  0  0
    0.6556    1.0391    0.0417 C   0  0  0  0  0  0  0  0  0  0  0  0
    3.4704    1.2734   -0.0888 C   0  0  0  0  0  0  0  0  0  0  0  0
    4.9540    1.4703   -0.1860 C   0  0  0  0  0  0  0  0  0  0  0  0
    4.4585   -1.1874    1.6700 O   0  0  0  0  0  0  0  0  0  0  0  0
   -5.3572   -0.6489   -0.0102 C   0  0  0  0  0  0  0  0  0  0  0  0
    4.8045   -1.5356   -0.7670 O   0  0  0  0  0  0  0  0  0  0  0  0
    2.8623   -2.5812    0.3760 O   0  0  0  0  0  0  0  0  0  0  0  0
   -3.1257   -1.5451   -0.2817 C   0  0  0  0  0  0  0  0  0  0  0  0
   -3.4899    0.8026    0.2556 C   0  0  0  0  0  0  0  0  0  0  0  0
   -4.5154   -1.7126   -0.2756 C   0  0  0  0  0  0  0  0  0  0  0  0
   -4.8538    0.6442    0.2711 C   0  0  0  0  0  0  0  0  0  0  0  0
    1.4652   -0.0864    0.1667 C   0  0  0  0  0  0  0  0  0  0  0  0
    1.2445    2.2982   -0.1243 C   0  0  0  0  0  0  0  0  0  0  0  0
    2.8418    0.0341    0.1025 C   0  0  0  0  0  0  0  0  0  0  0  0
    2.6317    2.3773   -0.1902 C   0  0  0  0  0  0  0  0  0  0  0  0
   -7.1855   -0.1076    0.1801 H   0  0  0  0  0  0  0  0  0  0  0  0
    5.2734   -1.7092    1.7740 H   0  0  0  0  0  0  0  0  0  0  0  0
   -3.0687    1.7792    0.4610 H   0  0  0  0  0  0  0  0  0  0  0  0
   -4.9407   -2.6878   -0.4814 H   0  0  0  0  0  0  0  0  0  0  0  0
    1.0014   -1.0501    0.3242 H   0  0  0  0  0  0  0  0  0  0  0  0
    3.0856    3.3507   -0.3344 H   0  0  0  0  0  0  0  0  0  0  0  0
   -1.3404   -2.4097   -0.7051 H   0  0  0  0  0  0  0  0  0  0  0  0
   -2.6873   -3.4151   -0.9523 H   0  0  0  0  0  0  0  0  0  0  0  0
   -6.4179    1.5929    1.4351 H   0  0  0  0  0  0  0  0  0  0  0  0
   -5.2250    2.6924    0.7712 H   0  0  0  0  0  0  0  0  0  0  0  0
   -6.4481    2.0039   -0.2792 H   0  0  0  0  0  0  0  0  0  0  0  0
    5.3661    0.9720   -1.0622 H   0  0  0  0  0  0  0  0  0  0  0  0
    5.1820    2.5307   -0.2678 H   0  0  0  0  0  0  0  0  0  0  0  0
    5.4794    1.0845    0.6874 H   0  0  0  0  0  0  0  0  0  0  0  0
   -0.2872    3.6354    0.5772 H   0  0  0  0  0  0  0  0  0  0  0  0
    1.0359    4.4247   -0.2879 H   0  0  0  0  0  0  0  0  0  0  0  0
   -0.1889    3.5110   -1.1657 H   0  0  0  0  0  0  0  0  0  0  0  0
   -0.7436    0.9936    0.0969 N   0  0  0  0  0  0  0  0  0  0  0  0
    0.4099    3.5347   -0.2543 C   0  0  0  0  0  0  0  0  0  0  0  0
   -6.6748   -0.8976   -0.0294 O   0  0  0  0  0  0  0  0  0  0  0  0
   -2.3050   -2.6038   -0.4975 N   0  0  0  0  0  0  0  0  0  0  0  0
   -5.7865    1.7836    0.5630 C   0  0  0  0  0  0  0  0  0  0  0  0
  1  7  1  1
  1  9  2  0
  1 10  2  0
  1 17  1  0
 36  2  2  0
 36  4  1  0
  2  3  1  0
  3 11  2  0
  3 12  1  0
  4 15  2  0
  4 16  1  0
 38  8  1  0
 38 19  1  0
  5  6  1  0
  5 17  2  0
  5 18  1  0
 39 11  1  0
 39 25  1  0
 39 26  1  0
 40 14  1  0
 40 27  1  0
 40 28  1  0
 40 29  1  0
  6 30  1  0
  6 31  1  0
  6 32  1  0
 37 16  1  0
 37 33  1  0
 37 34  1  0
 37 35  1  0
  7 20  1  0
  8 13  2  0
  8 14  1  0
 11 13  1  0
 12 14  2  0
 12 21  1  0
 13 22  1  0
 15 17  1  0
 15 23  1  0
 16 18  2  0
 18 24  1  0
M  END
