
     RDKit          3D

 17 16  0  0  0  0  0  0  0  0999 V2000
   -3.7353   -0.1627   -0.6802 O   0  0  0  0  0  0  0  0  0  0  0  0
   -2.8095    0.4153   -0.1066 C   0  0  0  0  0  0  0  0  0  0  0  0
   -1.7460   -1.3544    1.1759 N   0  0  0  0  0  0  0  0  0  0  0  0
   -2.9436    1.7483    0.1217 O   0  0  0  0  0  0  0  0  0  0  0  0
    1.8974    0.4912    0.3432 Br  0  0  0  0  0  0  0  0  0  0  0  0
   -1.4963   -0.1612    0.4001 C   0  0  1  0  0  0  0  0  0  0  0  0
   -0.5895   -0.3275   -0.8385 C   0  0  0  0  0  0  0  0  0  0  0  0
    0.7769   -0.7823   -0.4719 C   0  0  0  0  0  0  0  0  0  0  0  0
    1.2073   -2.0233   -0.7100 C   0  0  0  0  0  0  0  0  0  0  0  0
   -1.8965   -2.1478    0.5827 H   0  0  0  0  0  0  0  0  0  0  0  0
   -0.9752   -1.5306    1.7898 H   0  0  0  0  0  0  0  0  0  0  0  0
   -3.7990    2.0547   -0.2235 H   0  0  0  0  0  0  0  0  0  0  0  0
   -1.0215    0.5969    1.0955 H   0  0  0  0  0  0  0  0  0  0  0  0
   -1.0601   -1.0666   -1.5425 H   0  0  0  0  0  0  0  0  0  0  0  0
   -0.5385    0.6582   -1.3742 H   0  0  0  0  0  0  0  0  0  0  0  0
    2.2160   -2.3738   -0.4499 H   0  0  0  0  0  0  0  0  0  0  0  0
    0.5583   -2.7814   -1.1727 H   0  0  0  0  0  0  0  0  0  0  0  0
  4  2  1  0
  6  2  1  0
  2  1  2  0
  3  6  1  0
  3 10  1  0
  3 11  1  0
  4 12  1  0
  8  5  1  0
  6  7  1  0
  6 13  1  1
  8  7  1  0
  7 14  1  0
  7 15  1  0
  9  8  2  0
  9 16  1  0
  9 17  1  0
M  END
