
     RDKit          3D

 19 19  0  0  0  0  0  0  0  0999 V2000
    0.0556    0.0187    2.9681 B   0  0  0  0  0  0  0  0  0  0  0  0
    1.2690   -0.0560    3.5752 O   0  0  0  0  0  0  0  0  0  0  0  0
   -1.1385    0.0996    3.6116 O   0  0  0  0  0  0  0  0  0  0  0  0
    0.0330    0.0115    1.3938 C   0  0  0  0  0  0  0  0  0  0  0  0
   -1.1723    0.0025    0.6867 C   0  0  0  0  0  0  0  0  0  0  0  0
   -1.1944   -0.0064   -0.6976 C   0  0  0  0  0  0  0  0  0  0  0  0
   -0.0011   -0.0036   -1.4165 C   0  0  0  0  0  0  0  0  0  0  0  0
   -0.0704   -0.0133   -2.8996 C   0  0  0  0  0  0  0  0  0  0  0  0
    1.1235   -0.0054   -3.4753 O   0  0  0  0  0  0  0  0  0  0  0  0
   -1.1046   -0.0273   -3.5233 O   0  0  0  0  0  0  0  0  0  0  0  0
    1.2111    0.0073   -0.7288 C   0  0  0  0  0  0  0  0  0  0  0  0
    1.2195    0.0133    0.6570 C   0  0  0  0  0  0  0  0  0  0  0  0
    1.2607   -0.0441    4.5372 H   0  0  0  0  0  0  0  0  0  0  0  0
   -1.1000    0.0943    4.5731 H   0  0  0  0  0  0  0  0  0  0  0  0
   -2.1141    0.0007    1.2205 H   0  0  0  0  0  0  0  0  0  0  0  0
   -2.1412   -0.0155   -1.2210 H   0  0  0  0  0  0  0  0  0  0  0  0
    1.0242   -0.0125   -4.4387 H   0  0  0  0  0  0  0  0  0  0  0  0
    2.1512    0.0107   -1.2631 H   0  0  0  0  0  0  0  0  0  0  0  0
    2.1741    0.0213    1.1674 H   0  0  0  0  0  0  0  0  0  0  0  0
  1  2  1  0
  1  3  1  0
  1  4  1  0
  2 13  1  0
  3 14  1  0
  4  5  2  0
  4 12  1  0
  5  6  1  0
  5 15  1  0
  6  7  2  0
  6 16  1  0
  7  8  1  0
  7 11  1  0
  8  9  1  0
  8 10  2  0
  9 17  1  0
 11 12  2  0
 11 18  1  0
 12 19  1  0
M  END
