
     RDKit          3D

 48 48  0  0  0  0  0  0  0  0999 V2000
   -0.9485    3.0123    1.7434 C   0  0  0  0  0  0  0  0  0  0  0  0
   -0.5837    2.1997    0.5335 C   0  0  0  0  0  0  0  0  0  0  0  0
    0.6942    1.9508    0.2380 C   0  0  0  0  0  0  0  0  0  0  0  0
    1.2318    1.2681   -0.9921 C   0  0  1  0  0  0  0  0  0  0  0  0
    1.2721    2.2949   -2.1333 C   0  0  0  0  0  0  0  0  0  0  0  0
    2.6246    0.6782   -0.7376 C   0  0  2  0  0  0  0  0  0  0  0  0
    3.1819    0.3251   -1.9855 O   0  0  0  0  0  0  0  0  0  0  0  0
    2.6544   -0.5677    0.1775 C   0  0  1  0  0  0  0  0  0  0  0  0
    2.2965   -0.2029    1.4832 O   0  0  0  0  0  0  0  0  0  0  0  0
    2.9913   -0.9059    2.4857 C   0  0  0  0  0  0  0  0  0  0  0  0
    1.8193   -1.6847   -0.3806 C   0  0  0  0  0  0  0  0  0  0  0  0
    0.8707   -2.3551    0.2632 C   0  0  0  0  0  0  0  0  0  0  0  0
    0.0215   -3.4264   -0.3500 C   0  0  0  0  0  0  0  0  0  0  0  0
   -1.4694   -3.1642   -0.1187 C   0  0  0  0  0  0  0  0  0  0  0  0
   -1.8966   -1.7854   -0.6022 C   0  0  0  0  0  0  0  0  0  0  0  0
   -3.3508   -1.4456   -0.2579 C   0  0  0  0  0  0  0  0  0  0  0  0
   -3.6079    0.0356   -0.3634 C   0  0  0  0  0  0  0  0  0  0  0  0
   -4.4198    0.5116   -1.1273 O   0  0  0  0  0  0  0  0  0  0  0  0
   -2.7565    0.9115    0.5287 C   0  0  0  0  0  0  0  0  0  0  0  0
   -1.7439    1.7305   -0.2990 C   0  0  0  0  0  0  0  0  0  0  0  0
   -0.0639    3.3946    2.2523 H   0  0  0  0  0  0  0  0  0  0  0  0
   -1.5741    3.8655    1.4671 H   0  0  0  0  0  0  0  0  0  0  0  0
   -1.5220    2.4303    2.4693 H   0  0  0  0  0  0  0  0  0  0  0  0
    1.4439    2.3756    0.9007 H   0  0  0  0  0  0  0  0  0  0  0  0
    0.5679    0.4490   -1.2904 H   0  0  0  0  0  0  0  0  0  0  0  0
    1.9651    3.1073   -1.9029 H   0  0  0  0  0  0  0  0  0  0  0  0
    1.5739    1.8516   -3.0808 H   0  0  0  0  0  0  0  0  0  0  0  0
    0.2848    2.7364   -2.2701 H   0  0  0  0  0  0  0  0  0  0  0  0
    3.2404    1.4517   -0.2515 H   0  0  0  0  0  0  0  0  0  0  0  0
    4.0986    0.0670   -1.8471 H   0  0  0  0  0  0  0  0  0  0  0  0
    3.7081   -0.9015    0.1687 H   0  0  0  0  0  0  0  0  0  0  0  0
    2.8272   -1.9869    2.4341 H   0  0  0  0  0  0  0  0  0  0  0  0
    4.0712   -0.7253    2.4349 H   0  0  0  0  0  0  0  0  0  0  0  0
    2.6290   -0.5522    3.4504 H   0  0  0  0  0  0  0  0  0  0  0  0
    2.0299   -1.9374   -1.4164 H   0  0  0  0  0  0  0  0  0  0  0  0
    0.6432   -2.1094    1.2981 H   0  0  0  0  0  0  0  0  0  0  0  0
    0.2313   -3.5004   -1.4209 H   0  0  0  0  0  0  0  0  0  0  0  0
    0.2738   -4.3987    0.0858 H   0  0  0  0  0  0  0  0  0  0  0  0
   -2.0597   -3.9423   -0.6099 H   0  0  0  0  0  0  0  0  0  0  0  0
   -1.6820   -3.2457    0.9525 H   0  0  0  0  0  0  0  0  0  0  0  0
   -1.2303   -1.0487   -0.1467 H   0  0  0  0  0  0  0  0  0  0  0  0
   -1.7453   -1.7015   -1.6825 H   0  0  0  0  0  0  0  0  0  0  0  0
   -4.0471   -2.0003   -0.8885 H   0  0  0  0  0  0  0  0  0  0  0  0
   -3.5409   -1.7328    0.7829 H   0  0  0  0  0  0  0  0  0  0  0  0
   -3.4119    1.5810    1.0902 H   0  0  0  0  0  0  0  0  0  0  0  0
   -2.2281    0.2964    1.2593 H   0  0  0  0  0  0  0  0  0  0  0  0
   -2.2618    2.5942   -0.7269 H   0  0  0  0  0  0  0  0  0  0  0  0
   -1.3939    1.1438   -1.1503 H   0  0  0  0  0  0  0  0  0  0  0  0
  1  2  1  0
  2  3  2  0
  2 20  1  0
  3  4  1  0
  4  5  1  0
  4  6  1  0
  6  7  1  0
  6  8  1  0
  8  9  1  0
  8 11  1  0
  9 10  1  0
 11 12  2  0
 12 13  1  0
 13 14  1  0
 14 15  1  0
 15 16  1  0
 16 17  1  0
 17 18  2  0
 17 19  1  0
 19 20  1  0
  1 21  1  0
  1 22  1  0
  1 23  1  0
  3 24  1  0
  4 25  1  6
  5 26  1  0
  5 27  1  0
  5 28  1  0
  6 29  1  1
  7 30  1  0
  8 31  1  1
 10 32  1  0
 10 33  1  0
 10 34  1  0
 11 35  1  0
 12 36  1  0
 13 37  1  0
 13 38  1  0
 14 39  1  0
 14 40  1  0
 15 41  1  0
 15 42  1  0
 16 43  1  0
 16 44  1  0
 19 45  1  0
 19 46  1  0
 20 47  1  0
 20 48  1  0
M  END
