
     RDKit          3D

 47 49  0  0  0  0  0  0  0  0999 V2000
    2.0723    2.8909    0.6214 O   0  0  0  0  0  0  0  0  0  0  0  0
    2.5946    1.9315   -0.3359 S   0  0  1  0  0  0  0  0  0  0  0  0
    3.5378    2.3775   -1.3478 O   0  0  0  0  0  0  0  0  0  0  0  0
    3.3208    0.6018    0.5975 C   0  0  0  0  0  0  0  0  0  0  0  0
    3.9442   -0.5028   -0.0485 C   0  0  0  0  0  0  0  0  0  0  0  0
    4.1117   -0.6735   -1.4416 C   0  0  0  0  0  0  0  0  0  0  0  0
    4.7126   -1.8087   -1.9113 C   0  0  0  0  0  0  0  0  0  0  0  0
    5.1779   -2.8023   -1.1262 N   0  0  0  0  0  0  0  0  0  0  0  0
    5.0449   -2.6603    0.1629 C   0  0  0  0  0  0  0  0  0  0  0  0
    4.4382   -1.5411    0.7789 C   0  0  0  0  0  0  0  0  0  0  0  0
    4.3278   -1.4618    2.1837 C   0  0  0  0  0  0  0  0  0  0  0  0
    3.7327   -0.3809    2.7671 C   0  0  0  0  0  0  0  0  0  0  0  0
    3.2192    0.6538    1.9635 C   0  0  0  0  0  0  0  0  0  0  0  0
    1.3129    1.2920   -1.1370 N   0  0  0  0  0  0  0  0  0  0  0  0
    0.2593    0.6247   -0.3786 C   0  0  0  0  0  0  0  0  0  0  0  0
   -0.9932    0.5220   -1.2342 C   0  0  0  0  0  0  0  0  0  0  0  0
   -2.0424   -0.1386   -0.4869 N   0  0  0  0  0  0  0  0  0  0  0  0
   -3.2536   -0.3033   -1.2754 C   0  0  0  0  0  0  0  0  0  0  0  0
   -4.3555   -0.9079   -0.4431 C   0  0  0  0  0  0  0  0  0  0  0  0
   -5.3148   -0.1179    0.2074 C   0  0  0  0  0  0  0  0  0  0  0  0
   -6.3156   -0.7604    0.9448 C   0  0  0  0  0  0  0  0  0  0  0  0
   -6.3570   -2.1410    1.0680 C   0  0  0  0  0  0  0  0  0  0  0  0
   -5.3935   -2.9128    0.4332 C   0  0  0  0  0  0  0  0  0  0  0  0
   -4.4063   -2.2947   -0.3190 C   0  0  0  0  0  0  0  0  0  0  0  0
    3.8048    0.0746   -2.1561 H   0  0  0  0  0  0  0  0  0  0  0  0
    4.8413   -1.9459   -2.9780 H   0  0  0  0  0  0  0  0  0  0  0  0
    5.4259   -3.4579    0.7941 H   0  0  0  0  0  0  0  0  0  0  0  0
    4.7202   -2.2704    2.7877 H   0  0  0  0  0  0  0  0  0  0  0  0
    3.6431   -0.3096    3.8418 H   0  0  0  0  0  0  0  0  0  0  0  0
    2.7392    1.4951    2.4429 H   0  0  0  0  0  0  0  0  0  0  0  0
    1.5832    0.8077   -1.9865 H   0  0  0  0  0  0  0  0  0  0  0  0
    0.5662   -0.3721   -0.0478 H   0  0  0  0  0  0  0  0  0  0  0  0
    0.0427    1.2181    0.5108 H   0  0  0  0  0  0  0  0  0  0  0  0
   -1.2756    1.5257   -1.5854 H   0  0  0  0  0  0  0  0  0  0  0  0
   -0.7736   -0.0727   -2.1266 H   0  0  0  0  0  0  0  0  0  0  0  0
   -2.2719    0.4337    0.3180 H   0  0  0  0  0  0  0  0  0  0  0  0
   -3.5910    0.6387   -1.7303 H   0  0  0  0  0  0  0  0  0  0  0  0
   -3.0240   -0.9742   -2.1082 H   0  0  0  0  0  0  0  0  0  0  0  0
   -7.0766   -0.1709    1.4423 H   0  0  0  0  0  0  0  0  0  0  0  0
   -7.1386   -2.6127    1.6498 H   0  0  0  0  0  0  0  0  0  0  0  0
   -5.4152   -3.9920    0.5176 H   0  0  0  0  0  0  0  0  0  0  0  0
   -3.6648   -2.8994   -0.8286 H   0  0  0  0  0  0  0  0  0  0  0  0
   -5.3118    1.4558    0.1900 B   0  0  0  0  0  0  0  0  0  0  0  0
   -6.5074    2.0787    0.0001 O   0  0  0  0  0  0  0  0  0  0  0  0
   -4.1340    2.1012    0.4149 O   0  0  0  0  0  0  0  0  0  0  0  0
   -6.4914    3.0401    0.0538 H   0  0  0  0  0  0  0  0  0  0  0  0
   -4.1652    3.0632    0.3896 H   0  0  0  0  0  0  0  0  0  0  0  0
 12 11  2  0
 12 13  1  0
 11 10  1  0
 13  4  2  0
 20 21  2  0
 20 19  1  0
 21 22  1  0
 18 19  1  0
 18 17  1  0
 19 24  2  0
 15 14  1  0
 15 16  1  0
 22 23  2  0
 24 23  1  0
  2 14  1  6
 10  9  2  0
 10  5  1  0
  4  5  1  0
  4  2  1  0
 16 17  1  0
  9  8  1  0
  5  6  2  0
  2  3  2  0
  2  1  2  0
  8  7  2  0
  6  7  1  0
  6 25  1  0
  7 26  1  0
  9 27  1  0
 11 28  1  0
 12 29  1  0
 13 30  1  0
 14 31  1  0
 15 32  1  0
 15 33  1  0
 16 34  1  0
 16 35  1  0
 17 36  1  0
 18 37  1  0
 18 38  1  0
 21 39  1  0
 22 40  1  0
 23 41  1  0
 24 42  1  0
 20 43  1  0
 43 44  1  0
 43 45  1  0
 44 46  1  0
 45 47  1  0
M  END
