
     RDKit          3D

 20 21  0  0  0  0  0  0  0  0999 V2000
    3.6838    0.4718   -0.6320 C   0  0  0  0  0  0  0  0  0  0  0  0
    3.4955   -0.1235    0.6063 C   0  0  0  0  0  0  0  0  0  0  0  0
    2.5827    0.8139   -1.4095 C   0  0  0  0  0  0  0  0  0  0  0  0
    2.2095   -0.3823    1.0652 C   0  0  0  0  0  0  0  0  0  0  0  0
    1.3006    0.5614   -0.9493 C   0  0  0  0  0  0  0  0  0  0  0  0
    1.1078   -0.0432    0.2906 C   0  0  0  0  0  0  0  0  0  0  0  0
   -0.9906   -1.3352   -0.1360 C   0  0  0  0  0  0  0  0  0  0  0  0
   -2.5733    0.4172   -0.1600 C   0  0  0  0  0  0  0  0  0  0  0  0
   -0.2768   -0.3551    0.7865 C   0  0  2  0  0  0  0  0  0  0  0  0
   -2.1836   -0.8337   -0.5734 N   0  0  0  0  0  0  0  0  0  0  0  0
   -0.5441   -2.4104   -0.4386 O   0  0  0  0  0  0  0  0  0  0  0  0
   -3.5915    0.9695   -0.4711 O   0  0  0  0  0  0  0  0  0  0  0  0
   -1.3499    1.1104    0.9071 S   0  0  0  0  0  0  0  0  0  0  0  0
    4.6842    0.6712   -0.9926 H   0  0  0  0  0  0  0  0  0  0  0  0
    4.3479   -0.3869    1.2186 H   0  0  0  0  0  0  0  0  0  0  0  0
    2.7250    1.2809   -2.3752 H   0  0  0  0  0  0  0  0  0  0  0  0
    2.0657   -0.8500    2.0316 H   0  0  0  0  0  0  0  0  0  0  0  0
    0.4503    0.8414   -1.5608 H   0  0  0  0  0  0  0  0  0  0  0  0
   -0.2230   -0.8206    1.7734 H   0  0  0  0  0  0  0  0  0  0  0  0
   -2.7736   -1.3631   -1.2051 H   0  0  0  0  0  0  0  0  0  0  0  0
  1  3  2  0
  1  2  1  0
  3  5  1  0
  2  4  2  0
 11  7  2  0
  5  6  2  0
  4  6  1  0
  6  9  1  0
  7 10  1  0
  7  9  1  0
 10  8  1  0
  9 13  1  0
  8 12  2  0
  8 13  1  0
  1 14  1  0
  2 15  1  0
  3 16  1  0
  4 17  1  0
  5 18  1  0
  9 19  1  1
 10 20  1  0
M  END
