
     RDKit          3D

 58 62  0  0  0  0  0  0  0  0999 V2000
   -0.7782   -0.4343   -2.4073 C   0  0  0  0  0  0  0  0  0  0  0  0
   -1.5612   -1.5731   -2.5546 C   0  0  0  0  0  0  0  0  0  0  0  0
   -2.7076   -1.5547   -3.3367 C   0  0  0  0  0  0  0  0  0  0  0  0
   -3.0573   -0.3769   -3.9754 C   0  0  0  0  0  0  0  0  0  0  0  0
   -4.4885   -0.3316   -4.9558 Cl  0  0  0  0  0  0  0  0  0  0  0  0
   -2.2869    0.7693   -3.8491 C   0  0  0  0  0  0  0  0  0  0  0  0
   -1.1419    0.7443   -3.0635 C   0  0  0  0  0  0  0  0  0  0  0  0
   -0.2543    1.9436   -2.9223 C   0  0  0  0  0  0  0  0  0  0  0  0
    1.0494    1.7781   -3.6994 C   0  0  0  0  0  0  0  0  0  0  0  0
    1.9522    0.6119   -3.3632 C   0  0  0  0  0  0  0  0  0  0  0  0
    1.7148   -0.3783   -2.3992 C   0  0  0  0  0  0  0  0  0  0  0  0
    2.5890   -1.3593   -2.1723 N   0  0  0  0  0  0  0  0  0  0  0  0
    3.7181   -1.4071   -2.8585 C   0  0  0  0  0  0  0  0  0  0  0  0
    4.0638   -0.4864   -3.8407 C   0  0  0  0  0  0  0  0  0  0  0  0
    5.3479   -0.5906   -4.6038 C   0  0  0  0  0  0  0  0  0  0  0  0
    3.1462    0.5263   -4.0736 C   0  0  0  0  0  0  0  0  0  0  0  0
    0.4637   -0.4327   -1.5957 C   0  0  0  0  0  0  0  0  0  0  0  0
    0.4506   -0.4762   -0.2563 C   0  0  0  0  0  0  0  0  0  0  0  0
    1.6765   -0.3755    0.6072 C   0  0  0  0  0  0  0  0  0  0  0  0
    1.5506    0.8147    1.5612 C   0  0  0  0  0  0  0  0  0  0  0  0
    0.3268    0.7289    2.3366 N   0  0  0  0  0  0  0  0  0  0  0  0
   -0.8631    0.6899    1.5088 C   0  0  0  0  0  0  0  0  0  0  0  0
   -0.8184   -0.5028    0.5504 C   0  0  0  0  0  0  0  0  0  0  0  0
    0.3651    0.4795    3.6627 C   0  0  0  0  0  0  0  0  0  0  0  0
    1.4115    0.4128    4.2903 O   0  0  0  0  0  0  0  0  0  0  0  0
   -0.9732    0.2906    4.3672 C   0  0  0  0  0  0  0  0  0  0  0  0
   -0.7899    0.1052    5.8414 C   0  0  0  0  0  0  0  0  0  0  0  0
   -0.9194    1.1686    6.7250 C   0  0  0  0  0  0  0  0  0  0  0  0
   -0.7401    0.9466    8.0822 C   0  0  0  0  0  0  0  0  0  0  0  0
   -0.4475   -0.2407    8.5992 N   0  0  0  0  0  0  0  0  0  0  0  0
   -0.3257   -1.2583    7.7529 C   0  0  0  0  0  0  0  0  0  0  0  0
   -0.4863   -1.1385    6.3821 C   0  0  0  0  0  0  0  0  0  0  0  0
   -1.2755   -2.4900   -2.0543 H   0  0  0  0  0  0  0  0  0  0  0  0
   -3.3128   -2.4444   -3.4446 H   0  0  0  0  0  0  0  0  0  0  0  0
   -2.5791    1.6807   -4.3558 H   0  0  0  0  0  0  0  0  0  0  0  0
   -0.0397    2.1272   -1.8660 H   0  0  0  0  0  0  0  0  0  0  0  0
   -0.7580    2.8344   -3.3000 H   0  0  0  0  0  0  0  0  0  0  0  0
    1.6344    2.6946   -3.5832 H   0  0  0  0  0  0  0  0  0  0  0  0
    0.8093    1.7181   -4.7653 H   0  0  0  0  0  0  0  0  0  0  0  0
    4.3929   -2.2248   -2.6211 H   0  0  0  0  0  0  0  0  0  0  0  0
    5.1669   -0.8613   -5.6453 H   0  0  0  0  0  0  0  0  0  0  0  0
    5.8859    0.3578   -4.6068 H   0  0  0  0  0  0  0  0  0  0  0  0
    6.0035   -1.3472   -4.1742 H   0  0  0  0  0  0  0  0  0  0  0  0
    3.3619    1.2814   -4.8235 H   0  0  0  0  0  0  0  0  0  0  0  0
    1.7806   -1.2903    1.2002 H   0  0  0  0  0  0  0  0  0  0  0  0
    2.5881   -0.2655    0.0246 H   0  0  0  0  0  0  0  0  0  0  0  0
    2.4059    0.8596    2.2293 H   0  0  0  0  0  0  0  0  0  0  0  0
    1.5320    1.7444    0.9837 H   0  0  0  0  0  0  0  0  0  0  0  0
   -1.7637    0.6471    2.1144 H   0  0  0  0  0  0  0  0  0  0  0  0
   -0.9137    1.6192    0.9328 H   0  0  0  0  0  0  0  0  0  0  0  0
   -1.7083   -0.4818   -0.0776 H   0  0  0  0  0  0  0  0  0  0  0  0
   -0.8571   -1.4255    1.1399 H   0  0  0  0  0  0  0  0  0  0  0  0
   -1.6222    1.1485    4.1785 H   0  0  0  0  0  0  0  0  0  0  0  0
   -1.4829   -0.5807    3.9465 H   0  0  0  0  0  0  0  0  0  0  0  0
   -1.1624    2.1617    6.3688 H   0  0  0  0  0  0  0  0  0  0  0  0
   -0.8416    1.7685    8.7824 H   0  0  0  0  0  0  0  0  0  0  0  0
   -0.0882   -2.2234    8.1867 H   0  0  0  0  0  0  0  0  0  0  0  0
   -0.3791   -2.0099    5.7485 H   0  0  0  0  0  0  0  0  0  0  0  0
  1  2  2  0
  1  7  1  0
  1 17  1  0
  2  3  1  0
  2 33  1  0
  3  4  2  0
  3 34  1  0
  4  5  1  0
  4  6  1  0
  6  7  2  0
  6 35  1  0
  7  8  1  0
  8  9  1  0
  8 36  1  0
  8 37  1  0
  9 10  1  0
  9 38  1  0
  9 39  1  0
 10 11  2  0
 10 16  1  0
 11 12  1  0
 11 17  1  0
 12 13  2  0
 13 14  1  0
 13 40  1  0
 14 15  1  0
 14 16  2  0
 15 41  1  0
 15 42  1  0
 15 43  1  0
 16 44  1  0
 17 18  2  0
 18 19  1  0
 18 23  1  0
 19 20  1  0
 19 45  1  0
 19 46  1  0
 20 21  1  0
 20 47  1  0
 20 48  1  0
 21 22  1  0
 21 24  1  0
 22 23  1  0
 22 49  1  0
 22 50  1  0
 23 51  1  0
 23 52  1  0
 24 25  2  0
 24 26  1  0
 26 27  1  0
 26 53  1  0
 26 54  1  0
 27 28  2  0
 27 32  1  0
 28 29  1  0
 28 55  1  0
 29 30  2  0
 29 56  1  0
 30 31  1  0
 31 32  2  0
 31 57  1  0
 32 58  1  0
M  END
