
     RDKit          3D

 18 19  0  0  0  0  0  0  0  0999 V2000
    3.2979   -0.7088   -0.0158 O   0  0  0  0  0  0  0  0  0  0  0  0
    2.5176    0.2179   -0.0141 N   0  0  0  0  0  0  0  0  0  0  0  0
    2.8665    1.3781   -0.0194 O   0  0  0  0  0  0  0  0  0  0  0  0
    1.1016   -0.0757   -0.0052 C   0  0  0  0  0  0  0  0  0  0  0  0
    0.6906   -1.4205   -0.0014 C   0  0  0  0  0  0  0  0  0  0  0  0
   -0.6487   -1.7314    0.0078 C   0  0  0  0  0  0  0  0  0  0  0  0
   -1.5637   -0.6773    0.0135 C   0  0  0  0  0  0  0  0  0  0  0  0
   -2.9177   -0.6852    0.0229 N   0  0  0  0  0  0  0  0  0  0  0  0
   -3.3849    0.6025    0.0256 C   0  0  0  0  0  0  0  0  0  0  0  0
   -2.3381    1.4740    0.0173 C   0  0  0  0  0  0  0  0  0  0  0  0
   -1.1510    0.6784    0.0094 C   0  0  0  0  0  0  0  0  0  0  0  0
    0.2062    0.9798   -0.0002 C   0  0  0  0  0  0  0  0  0  0  0  0
    1.4199   -2.2162   -0.0056 H   0  0  0  0  0  0  0  0  0  0  0  0
   -0.9742   -2.7630    0.0113 H   0  0  0  0  0  0  0  0  0  0  0  0
   -3.4998   -1.5067    0.0299 H   0  0  0  0  0  0  0  0  0  0  0  0
   -4.4451    0.7960    0.0332 H   0  0  0  0  0  0  0  0  0  0  0  0
   -2.4021    2.5498    0.0169 H   0  0  0  0  0  0  0  0  0  0  0  0
    0.5421    2.0071   -0.0039 H   0  0  0  0  0  0  0  0  0  0  0  0
  1  2  2  0
  2  3  1  0
  2  4  1  0
  4  5  2  0
  4 12  1  0
  5  6  1  0
  6  7  2  0
  7  8  1  0
  7 11  1  0
  8  9  1  0
  9 10  2  0
 10 11  1  0
 11 12  2  0
  5 13  1  0
  6 14  1  0
  8 15  1  0
  9 16  1  0
 10 17  1  0
 12 18  1  0
M  CHG  2   2   1   3  -1
M  END
