
     RDKit          3D

 28 30  0  0  0  0  0  0  0  0999 V2000
   -0.9240   -0.7530   -0.1456 C   0  0  0  0  0  0  0  0  0  0  0  0
   -2.3354   -0.5316   -0.1044 C   0  0  0  0  0  0  0  0  0  0  0  0
   -3.2689   -1.5512   -0.3285 C   0  0  0  0  0  0  0  0  0  0  0  0
   -2.8028   -2.7826   -0.5845 F   0  0  0  0  0  0  0  0  0  0  0  0
   -4.6218   -1.3399   -0.2981 C   0  0  0  0  0  0  0  0  0  0  0  0
   -5.1028   -0.0541   -0.0330 C   0  0  0  0  0  0  0  0  0  0  0  0
   -4.2243    0.9825    0.1930 C   0  0  0  0  0  0  0  0  0  0  0  0
   -2.8464    0.7520    0.1571 C   0  0  0  0  0  0  0  0  0  0  0  0
   -1.9234    1.8614    0.4029 C   0  0  0  0  0  0  0  0  0  0  0  0
   -2.2738    3.0050    0.6543 O   0  0  0  0  0  0  0  0  0  0  0  0
   -0.5960    1.5291    0.3459 N   0  0  0  0  0  0  0  0  0  0  0  0
   -0.0848    0.2828    0.0817 C   0  0  0  0  0  0  0  0  0  0  0  0
    1.3798    0.1610    0.0376 C   0  0  0  0  0  0  0  0  0  0  0  0
    2.1734    1.1898   -0.4701 C   0  0  0  0  0  0  0  0  0  0  0  0
    3.5520    1.0652   -0.5220 C   0  0  0  0  0  0  0  0  0  0  0  0
    4.1442   -0.0994   -0.0597 C   0  0  0  0  0  0  0  0  0  0  0  0
    5.8652   -0.2606   -0.1175 Cl  0  0  0  0  0  0  0  0  0  0  0  0
    3.3777   -1.1359    0.4519 C   0  0  0  0  0  0  0  0  0  0  0  0
    2.0012   -0.9988    0.4996 C   0  0  0  0  0  0  0  0  0  0  0  0
   -0.5234   -1.7251   -0.3892 H   0  0  0  0  0  0  0  0  0  0  0  0
   -5.3029   -2.1612   -0.4785 H   0  0  0  0  0  0  0  0  0  0  0  0
   -6.1698    0.1181   -0.0076 H   0  0  0  0  0  0  0  0  0  0  0  0
   -4.5943    1.9771    0.3995 H   0  0  0  0  0  0  0  0  0  0  0  0
    0.0486    2.2771    0.5664 H   0  0  0  0  0  0  0  0  0  0  0  0
    1.7262    2.0963   -0.8578 H   0  0  0  0  0  0  0  0  0  0  0  0
    1.4108   -1.8008    0.9224 H   0  0  0  0  0  0  0  0  0  0  0  0
    4.1527    1.8673   -0.9278 H   0  0  0  0  0  0  0  0  0  0  0  0
    3.8457   -2.0374    0.8224 H   0  0  0  0  0  0  0  0  0  0  0  0
  1  2  1  0
  1 12  2  0
  2  3  1  0
  2  8  2  0
  3  4  1  0
  3  5  2  0
  5  6  1  0
  6  7  2  0
  7  8  1  0
  8  9  1  0
  9 10  2  0
  9 11  1  0
 11 12  1  0
 12 13  1  0
 13 14  2  0
 13 19  1  0
 14 15  1  0
 15 16  2  0
 16 17  1  0
 16 18  1  0
 18 19  2  0
  1 20  1  0
  5 21  1  0
  6 22  1  0
  7 23  1  0
 11 24  1  0
 14 25  1  0
 19 26  1  0
 15 27  1  0
 18 28  1  0
M  END
