
     RDKit          3D

 40 40  0  0  0  0  0  0  0  0999 V2000
   -2.2052   -1.3081    1.0165 O   0  0  0  0  0  0  0  0  0  0  0  0
   -1.7442    0.4358   -1.6315 C   0  0  2  0  0  0  0  0  0  0  0  0
    1.7129   -0.0650    1.7290 C   0  0  1  0  0  0  0  0  0  0  0  0
   -2.9647   -0.4420   -1.9697 C   0  0  0  0  0  0  0  0  0  0  0  0
    1.2133   -0.0940    0.2810 C   0  0  1  0  0  0  0  0  0  0  0  0
   -1.3396    1.2236   -2.8487 C   0  0  0  0  0  0  0  0  0  0  0  0
   -0.2601   -0.2052    0.2045 C   0  0  2  0  0  0  0  0  0  0  0  0
   -0.7784   -1.3583    1.0055 C   0  0  1  0  0  0  0  0  0  0  0  0
   -1.9907    2.4782   -3.1431 N   0  0  0  0  0  0  0  0  0  0  0  0
    3.5565    0.2309   -1.3290 O   0  0  0  0  0  0  0  0  0  0  0  0
   -0.4901    0.8288   -3.5451 O   0  0  0  0  0  0  0  0  0  0  0  0
   -0.6541   -0.3955   -1.2140 O   0  0  0  0  0  0  0  0  0  0  0  0
   -0.2696   -1.3285    2.4589 C   0  0  1  0  0  0  0  0  0  0  0  0
   -0.6986   -2.5827    3.1430 C   0  0  0  0  0  0  0  0  0  0  0  0
    2.8975    1.2133   -1.2208 C   0  0  0  0  0  0  0  0  0  0  0  0
    3.3854    2.5302   -1.8242 C   0  0  0  0  0  0  0  0  0  0  0  0
    1.6455    1.1865   -0.4090 N   0  0  0  0  0  0  0  0  0  0  0  0
   -0.0168   -2.7065    4.3766 O   0  0  0  0  0  0  0  0  0  0  0  0
    1.1905   -1.2214    2.5306 O   0  0  0  0  0  0  0  0  0  0  0  0
    3.0618   -0.1077    1.7297 O   0  0  0  0  0  0  0  0  0  0  0  0
   -0.4591   -2.2757    0.5427 H   0  0  0  0  0  0  0  0  0  0  0  0
   -2.0035    1.1180   -0.8333 H   0  0  0  0  0  0  0  0  0  0  0  0
   -2.6340   -1.4923   -2.1351 H   0  0  0  0  0  0  0  0  0  0  0  0
   -3.4460   -0.0639   -2.8740 H   0  0  0  0  0  0  0  0  0  0  0  0
   -3.6758   -0.4112   -1.1391 H   0  0  0  0  0  0  0  0  0  0  0  0
    1.3903    0.8380    2.1826 H   0  0  0  0  0  0  0  0  0  0  0  0
    1.6627   -0.9502   -0.2331 H   0  0  0  0  0  0  0  0  0  0  0  0
    3.3804    0.0155    2.6093 H   0  0  0  0  0  0  0  0  0  0  0  0
   -0.7051    0.7173    0.5798 H   0  0  0  0  0  0  0  0  0  0  0  0
    1.0743    2.0074   -0.3442 H   0  0  0  0  0  0  0  0  0  0  0  0
   -2.5924    2.8901   -2.4756 H   0  0  0  0  0  0  0  0  0  0  0  0
   -1.8791    2.8975   -4.0337 H   0  0  0  0  0  0  0  0  0  0  0  0
   -0.7138   -0.4661    2.9735 H   0  0  0  0  0  0  0  0  0  0  0  0
   -0.4666   -3.4348    2.5146 H   0  0  0  0  0  0  0  0  0  0  0  0
   -1.7632   -2.5464    3.3212 H   0  0  0  0  0  0  0  0  0  0  0  0
   -0.3401   -3.4542    4.8391 H   0  0  0  0  0  0  0  0  0  0  0  0
    2.8818    3.3736   -1.3225 H   0  0  0  0  0  0  0  0  0  0  0  0
    3.1589    2.5493   -2.8663 H   0  0  0  0  0  0  0  0  0  0  0  0
    4.4522    2.6158   -1.6851 H   0  0  0  0  0  0  0  0  0  0  0  0
   -2.5731   -2.2403    1.0390 H   0  0  0  0  0  0  0  0  0  0  0  0
  1  8  1  0
  2  4  1  0
  2  6  1  0
  2 12  1  0
  3  5  1  0
  3 19  1  0
  3 20  1  0
  5  7  1  0
  5 17  1  0
  6  9  1  0
  6 11  2  0
  7  8  1  0
  7 12  1  0
  8 13  1  0
 10 15  2  0
 13 14  1  0
 13 19  1  0
 14 18  1  0
 15 16  1  0
 15 17  1  0
  8 21  1  6
  2 22  1  1
  4 23  1  0
  4 24  1  0
  4 25  1  0
  3 26  1  1
  5 27  1  6
 20 28  1  0
  7 29  1  1
 17 30  1  0
  9 31  1  0
  9 32  1  0
 13 33  1  1
 14 34  1  0
 14 35  1  0
 18 36  1  0
 16 37  1  0
 16 38  1  0
 16 39  1  0
  1 40  1  0
M  END
