
     RDKit          3D

 19 19  0  0  0  0  0  0  0  0999 V2000
   -1.9285   -0.3527    0.0115 C   0  0  0  0  0  0  0  0  0  0  0  0
   -3.2359    0.2361    0.0262 N   0  0  0  0  0  0  0  0  0  0  0  0
   -4.1729   -0.5332   -0.0216 O   0  0  0  0  0  0  0  0  0  0  0  0
   -0.8312    0.4049    0.0541 C   0  0  0  0  0  0  0  0  0  0  0  0
   -3.3558    1.4404    0.0843 O   0  0  0  0  0  0  0  0  0  0  0  0
    0.5349   -0.0964    0.0438 C   0  0  0  0  0  0  0  0  0  0  0  0
    1.5653    0.8441    0.1024 C   0  0  0  0  0  0  0  0  0  0  0  0
    2.8960    0.4404    0.0975 C   0  0  0  0  0  0  0  0  0  0  0  0
    3.9179    1.3132    0.1521 O   0  0  0  0  0  0  0  0  0  0  0  0
    3.1998   -0.9173    0.0324 C   0  0  0  0  0  0  0  0  0  0  0  0
    2.1743   -1.8504   -0.0261 C   0  0  0  0  0  0  0  0  0  0  0  0
    0.8476   -1.4567   -0.0211 C   0  0  0  0  0  0  0  0  0  0  0  0
   -1.9508   -1.4305   -0.0348 H   0  0  0  0  0  0  0  0  0  0  0  0
   -0.9417    1.4823    0.1011 H   0  0  0  0  0  0  0  0  0  0  0  0
    1.3226    1.9002    0.1537 H   0  0  0  0  0  0  0  0  0  0  0  0
    3.5898    2.2191    0.1833 H   0  0  0  0  0  0  0  0  0  0  0  0
    4.2344   -1.2369    0.0269 H   0  0  0  0  0  0  0  0  0  0  0  0
    2.4195   -2.9029   -0.0770 H   0  0  0  0  0  0  0  0  0  0  0  0
    0.0701   -2.2066   -0.0676 H   0  0  0  0  0  0  0  0  0  0  0  0
  1  2  1  0
  1  4  2  0
  2  5  1  0
  3  2  2  0
  6  4  1  0
  6  7  2  0
  8  7  1  0
  8  9  1  0
 10  8  2  0
 11 10  1  0
 11 12  2  0
 12  6  1  0
  1 13  1  0
  4 14  1  0
  7 15  1  0
  9 16  1  0
 10 17  1  0
 11 18  1  0
 12 19  1  0
M  CHG  2   2   1   5  -1
M  END
