
     RDKit          3D

 47 48  0  0  0  0  0  0  0  0999 V2000
    6.7803    2.9745   -1.9020 O   0  0  0  0  0  0  0  0  0  0  0  0
    5.6424    2.7854   -1.2508 C   0  0  0  0  0  0  0  0  0  0  0  0
    4.9395    3.6634   -0.8305 O   0  0  0  0  0  0  0  0  0  0  0  0
    5.3634    1.3107   -1.1169 C   0  0  0  0  0  0  0  0  0  0  0  0
    4.1389    1.1673   -0.4330 O   0  0  0  0  0  0  0  0  0  0  0  0
    3.8870   -0.1457   -0.2556 N   0  0  0  0  0  0  0  0  0  0  0  0
    2.7507   -0.4180    0.2506 C   0  0  0  0  0  0  0  0  0  0  0  0
    2.4852   -1.8474    0.4823 C   0  0  0  0  0  0  0  0  0  0  0  0
    3.3854   -2.7389    0.9613 C   0  0  0  0  0  0  0  0  0  0  0  0
    2.6489   -4.2970    1.0702 S   0  0  0  0  0  0  0  0  0  0  0  0
    1.1647   -3.6146    0.4622 C   0  0  0  0  0  0  0  0  0  0  0  0
    0.0713   -4.3681    0.2366 N   0  0  0  0  0  0  0  0  0  0  0  0
    1.2402   -2.3455    0.2023 N   0  0  0  0  0  0  0  0  0  0  0  0
    1.7175    0.6091    0.6696 C   0  0  0  0  0  0  0  0  0  0  0  0
    2.0293    1.6341    1.2437 O   0  0  0  0  0  0  0  0  0  0  0  0
    0.4563    0.2764    0.3448 N   0  0  0  0  0  0  0  0  0  0  0  0
   -0.6587    1.0328    0.8293 C   0  0  2  0  0  0  0  0  0  0  0  0
   -0.8846    0.8509    2.3240 C   0  0  0  0  0  0  0  0  0  0  0  0
   -0.1866    0.1658    3.0207 O   0  0  0  0  0  0  0  0  0  0  0  0
   -1.9174    0.6433    0.0510 C   0  0  2  0  0  0  0  0  0  0  0  0
   -2.9895    1.5289    0.3745 N   0  0  0  0  0  0  0  0  0  0  0  0
   -2.4137   -1.0501    0.5100 S   0  0  0  0  0  0  0  0  0  0  0  0
   -3.8207   -1.1141   -0.6172 C   0  0  0  0  0  0  0  0  0  0  0  0
   -4.7083    0.1011   -0.5760 C   0  0  0  0  0  0  0  0  0  0  0  0
   -6.0142   -0.0638   -1.2069 C   0  0  0  0  0  0  0  0  0  0  0  0
   -6.5194   -1.2133   -1.6669 C   0  0  0  0  0  0  0  0  0  0  0  0
   -4.2668    1.2851   -0.0776 C   0  0  0  0  0  0  0  0  0  0  0  0
   -5.1061    2.5177    0.0783 C   0  0  0  0  0  0  0  0  0  0  0  0
   -6.3603    2.2793    0.4028 O   0  0  0  0  0  0  0  0  0  0  0  0
   -4.6348    3.6243   -0.0237 O   0  0  0  0  0  0  0  0  0  0  0  0
    6.9690    3.9216   -1.9822 H   0  0  0  0  0  0  0  0  0  0  0  0
    5.3218    0.8579   -2.1132 H   0  0  0  0  0  0  0  0  0  0  0  0
    6.1853    0.8346   -0.5720 H   0  0  0  0  0  0  0  0  0  0  0  0
    4.4031   -2.5723    1.2740 H   0  0  0  0  0  0  0  0  0  0  0  0
   -0.0296   -5.2458    0.7180 H   0  0  0  0  0  0  0  0  0  0  0  0
   -0.7891   -3.8598    0.1000 H   0  0  0  0  0  0  0  0  0  0  0  0
    0.2972   -0.6891    0.0531 H   0  0  0  0  0  0  0  0  0  0  0  0
   -0.4902    2.1036    0.6604 H   0  0  0  0  0  0  0  0  0  0  0  0
   -1.7426    1.4121    2.7278 H   0  0  0  0  0  0  0  0  0  0  0  0
   -1.6882    0.6453   -1.0218 H   0  0  0  0  0  0  0  0  0  0  0  0
   -3.4718   -1.3127   -1.6331 H   0  0  0  0  0  0  0  0  0  0  0  0
   -4.3838   -1.9941   -0.3011 H   0  0  0  0  0  0  0  0  0  0  0  0
   -6.6074    0.8242   -1.3701 H   0  0  0  0  0  0  0  0  0  0  0  0
   -7.4797   -1.2188   -2.1639 H   0  0  0  0  0  0  0  0  0  0  0  0
   -6.0263   -2.1719   -1.5780 H   0  0  0  0  0  0  0  0  0  0  0  0
   -6.8494    3.1136    0.4818 H   0  0  0  0  0  0  0  0  0  0  0  0
   -2.7434    2.5079    0.4272 H   0  0  0  0  0  0  0  0  0  0  0  0
 30 28  2  0
 26 25  2  0
 25 24  1  0
 28 29  1  0
 28 27  1  0
 24 27  2  0
 24 23  1  0
 27 21  1  0
 23 22  1  0
 21 20  1  0
  3  2  2  0
 19 18  2  0
  4  2  1  0
  4  5  1  0
  2  1  1  0
 18 17  1  0
 20 22  1  0
 20 17  1  0
  5  6  1  0
 16 17  1  0
 16 14  1  0
  6  7  2  0
  7 14  1  0
  7  8  1  0
 14 15  2  0
 13  8  1  0
 13 11  2  0
  8  9  2  0
 12 11  1  0
 11 10  1  0
  9 10  1  0
  1 31  1  0
  4 32  1  0
  4 33  1  0
  9 34  1  0
 12 35  1  0
 12 36  1  0
 16 37  1  0
 17 38  1  1
 18 39  1  0
 20 40  1  6
 23 41  1  0
 23 42  1  0
 25 43  1  0
 26 44  1  0
 26 45  1  0
 29 46  1  0
 21 47  1  0
M  END
