
     RDKit          3D

 42 44  0  0  0  0  0  0  0  0999 V2000
   -7.0363    2.2686   -0.5307 F   0  0  0  0  0  0  0  0  0  0  0  0
   -6.5500    1.0208   -0.5268 C   0  0  0  0  0  0  0  0  0  0  0  0
   -7.1261    0.0687   -1.3483 C   0  0  0  0  0  0  0  0  0  0  0  0
   -6.6760   -1.1773   -1.3723 N   0  0  0  0  0  0  0  0  0  0  0  0
   -5.6550   -1.5008   -0.5898 C   0  0  0  0  0  0  0  0  0  0  0  0
   -5.4888    0.7007    0.2917 C   0  0  0  0  0  0  0  0  0  0  0  0
   -5.0171   -0.6073    0.2669 C   0  0  0  0  0  0  0  0  0  0  0  0
   -3.8422   -1.0314    1.0965 C   0  0  0  0  0  0  0  0  0  0  0  0
   -2.5149   -0.6049    0.4695 C   0  0  0  0  0  0  0  0  0  0  0  0
   -1.3194   -1.0660    1.2886 C   0  0  0  0  0  0  0  0  0  0  0  0
   -0.0768   -0.7104    0.6319 N   0  0  0  0  0  0  0  0  0  0  0  0
    1.1018   -1.1416    1.3578 C   0  0  0  0  0  0  0  0  0  0  0  0
    2.3476   -0.8677    0.5605 C   0  0  0  0  0  0  0  0  0  0  0  0
    2.4719   -1.4124   -0.7376 C   0  0  0  0  0  0  0  0  0  0  0  0
    3.5972   -1.1791   -1.4812 C   0  0  0  0  0  0  0  0  0  0  0  0
    3.3595   -0.0911    1.0693 C   0  0  0  0  0  0  0  0  0  0  0  0
    4.5320    0.1713    0.3244 C   0  0  0  0  0  0  0  0  0  0  0  0
    5.4950    0.9491    0.8727 N   0  0  0  0  0  0  0  0  0  0  0  0
    4.6439   -0.3853   -0.9703 C   0  0  0  0  0  0  0  0  0  0  0  0
    5.8277   -0.0975   -1.6948 C   0  0  0  0  0  0  0  0  0  0  0  0
    6.7912    0.6796   -1.1383 C   0  0  0  0  0  0  0  0  0  0  0  0
    6.5825    1.1951    0.1791 C   0  0  0  0  0  0  0  0  0  0  0  0
    7.5610    1.9364    0.7586 N   0  0  0  0  0  0  0  0  0  0  0  0
   -7.9633    0.3218   -1.9900 H   0  0  0  0  0  0  0  0  0  0  0  0
   -5.3183   -2.5314   -0.6364 H   0  0  0  0  0  0  0  0  0  0  0  0
   -5.0413    1.4483    0.9361 H   0  0  0  0  0  0  0  0  0  0  0  0
   -3.9297   -0.6086    2.1006 H   0  0  0  0  0  0  0  0  0  0  0  0
   -3.8565   -2.1179    1.2126 H   0  0  0  0  0  0  0  0  0  0  0  0
   -2.4357   -1.0138   -0.5413 H   0  0  0  0  0  0  0  0  0  0  0  0
   -2.4920    0.4852    0.3694 H   0  0  0  0  0  0  0  0  0  0  0  0
   -1.3978   -0.6614    2.3106 H   0  0  0  0  0  0  0  0  0  0  0  0
   -1.3503   -2.1556    1.3890 H   0  0  0  0  0  0  0  0  0  0  0  0
   -0.0377    0.2957    0.5159 H   0  0  0  0  0  0  0  0  0  0  0  0
    1.1943   -0.6841    2.3539 H   0  0  0  0  0  0  0  0  0  0  0  0
    1.0145   -2.2204    1.5245 H   0  0  0  0  0  0  0  0  0  0  0  0
    1.6677   -2.0148   -1.1396 H   0  0  0  0  0  0  0  0  0  0  0  0
    3.6964   -1.6022   -2.4742 H   0  0  0  0  0  0  0  0  0  0  0  0
    3.2723    0.3405    2.0602 H   0  0  0  0  0  0  0  0  0  0  0  0
    5.9577   -0.5000   -2.6920 H   0  0  0  0  0  0  0  0  0  0  0  0
    7.7035    0.9125   -1.6717 H   0  0  0  0  0  0  0  0  0  0  0  0
    8.2554    2.3649    0.1710 H   0  0  0  0  0  0  0  0  0  0  0  0
    7.3185    2.4565    1.5852 H   0  0  0  0  0  0  0  0  0  0  0  0
 20 21  1  0
 20 19  2  0
 21 22  2  0
 15 19  1  0
 15 14  2  0
 19 17  1  0
 22 23  1  0
 22 18  1  0
 14 13  1  0
 17 18  2  0
 17 16  1  0
 13 16  2  0
 13 12  1  0
 12 11  1  0
 11 10  1  0
 10  9  1  0
  9  8  1  0
  8  7  1  0
  7  5  2  0
  7  6  1  0
  5  4  1  0
  6  2  2  0
  4  3  2  0
  2  3  1  0
  2  1  1  0
  3 24  1  0
  5 25  1  0
  6 26  1  0
  8 27  1  0
  8 28  1  0
  9 29  1  0
  9 30  1  0
 10 31  1  0
 10 32  1  0
 11 33  1  0
 12 34  1  0
 12 35  1  0
 14 36  1  0
 15 37  1  0
 16 38  1  0
 20 39  1  0
 21 40  1  0
 23 41  1  0
 23 42  1  0
M  END
