
     RDKit          3D

 58 58  0  0  0  0  0  0  0  0999 V2000
    7.0584    4.6685   -0.4561 C   0  0  0  0  0  0  0  0  0  0  0  0
    5.7400    4.2236    0.1619 C   0  0  0  0  0  0  0  0  0  0  0  0
    5.1960    2.9385   -0.4498 C   0  0  0  0  0  0  0  0  0  0  0  0
    3.8756    2.4971    0.1695 C   0  0  0  0  0  0  0  0  0  0  0  0
    3.3357    1.2073   -0.4334 C   0  0  0  0  0  0  0  0  0  0  0  0
    1.9714    0.8006    0.1252 C   0  0  2  0  0  0  0  0  0  0  0  0
    1.9923    0.6341    1.5230 O   0  0  0  0  0  0  0  0  0  0  0  0
    1.4207   -0.3938   -0.6024 C   0  0  0  0  0  0  0  0  0  0  0  0
    0.9213   -1.4842   -0.0302 C   0  0  0  0  0  0  0  0  0  0  0  0
    0.3008   -2.6237   -0.7673 C   0  0  1  0  0  0  0  0  0  0  0  0
    0.8000   -4.0177   -0.3298 C   0  0  2  0  0  0  0  0  0  0  0  0
    1.7729   -4.4479   -1.2538 O   0  0  0  0  0  0  0  0  0  0  0  0
   -0.4598   -4.9096   -0.2709 C   0  0  0  0  0  0  0  0  0  0  0  0
   -1.5312   -4.0953   -0.9728 C   0  0  1  0  0  0  0  0  0  0  0  0
   -3.1959   -4.6252   -0.5310 Cl  0  0  0  0  0  0  0  0  0  0  0  0
   -1.2284   -2.6622   -0.5731 C   0  0  2  0  0  0  0  0  0  0  0  0
   -1.9566   -1.5693   -1.3574 C   0  0  0  0  0  0  0  0  0  0  0  0
   -3.3159   -1.2278   -0.8183 C   0  0  0  0  0  0  0  0  0  0  0  0
   -3.5549   -0.3190    0.1260 C   0  0  0  0  0  0  0  0  0  0  0  0
   -2.5376    0.5373    0.8155 C   0  0  0  0  0  0  0  0  0  0  0  0
   -2.6525    2.0053    0.4021 C   0  0  0  0  0  0  0  0  0  0  0  0
   -1.6411    2.8714    1.1343 C   0  0  0  0  0  0  0  0  0  0  0  0
   -1.7137    4.3290    0.7730 C   0  0  0  0  0  0  0  0  0  0  0  0
   -2.5154    4.8200    0.0179 O   0  0  0  0  0  0  0  0  0  0  0  0
   -0.7749    5.0382    1.3932 O   0  0  0  0  0  0  0  0  0  0  0  0
    7.4323    5.5788    0.0139 H   0  0  0  0  0  0  0  0  0  0  0  0
    7.8256    3.9000   -0.3436 H   0  0  0  0  0  0  0  0  0  0  0  0
    6.9488    4.8690   -1.5235 H   0  0  0  0  0  0  0  0  0  0  0  0
    5.8726    4.0814    1.2389 H   0  0  0  0  0  0  0  0  0  0  0  0
    4.9960    5.0189    0.0520 H   0  0  0  0  0  0  0  0  0  0  0  0
    5.0647    3.0772   -1.5287 H   0  0  0  0  0  0  0  0  0  0  0  0
    5.9384    2.1403   -0.3365 H   0  0  0  0  0  0  0  0  0  0  0  0
    4.0078    2.3738    1.2478 H   0  0  0  0  0  0  0  0  0  0  0  0
    3.1321    3.2924    0.0425 H   0  0  0  0  0  0  0  0  0  0  0  0
    3.2391    1.3241   -1.5173 H   0  0  0  0  0  0  0  0  0  0  0  0
    4.0501    0.3891   -0.2796 H   0  0  0  0  0  0  0  0  0  0  0  0
    1.2833    1.6377   -0.0549 H   0  0  0  0  0  0  0  0  0  0  0  0
    2.6491   -0.0394    1.7339 H   0  0  0  0  0  0  0  0  0  0  0  0
    1.4297   -0.3167   -1.6874 H   0  0  0  0  0  0  0  0  0  0  0  0
    0.8911   -1.5585    1.0543 H   0  0  0  0  0  0  0  0  0  0  0  0
    0.5000   -2.5216   -1.8415 H   0  0  0  0  0  0  0  0  0  0  0  0
    1.2332   -3.9562    0.6760 H   0  0  0  0  0  0  0  0  0  0  0  0
    2.1610   -5.2645   -0.9249 H   0  0  0  0  0  0  0  0  0  0  0  0
   -0.3051   -5.8919   -0.7190 H   0  0  0  0  0  0  0  0  0  0  0  0
   -0.7524   -5.0641    0.7695 H   0  0  0  0  0  0  0  0  0  0  0  0
   -1.4695   -4.2015   -2.0574 H   0  0  0  0  0  0  0  0  0  0  0  0
   -1.4463   -2.5512    0.4961 H   0  0  0  0  0  0  0  0  0  0  0  0
   -1.3274   -0.6753   -1.3546 H   0  0  0  0  0  0  0  0  0  0  0  0
   -2.0364   -1.8772   -2.4041 H   0  0  0  0  0  0  0  0  0  0  0  0
   -4.1571   -1.7804   -1.2218 H   0  0  0  0  0  0  0  0  0  0  0  0
   -4.5851   -0.1583    0.4326 H   0  0  0  0  0  0  0  0  0  0  0  0
   -2.6855    0.4607    1.8981 H   0  0  0  0  0  0  0  0  0  0  0  0
   -1.5223    0.1809    0.6221 H   0  0  0  0  0  0  0  0  0  0  0  0
   -2.5013    2.0874   -0.6768 H   0  0  0  0  0  0  0  0  0  0  0  0
   -3.6658    2.3611    0.6042 H   0  0  0  0  0  0  0  0  0  0  0  0
   -1.7687    2.7816    2.2180 H   0  0  0  0  0  0  0  0  0  0  0  0
   -0.6221    2.5242    0.9345 H   0  0  0  0  0  0  0  0  0  0  0  0
   -0.8478    5.9720    1.1456 H   0  0  0  0  0  0  0  0  0  0  0  0
  7  6  1  0
  3  4  1  0
  3  2  1  0
  1  2  1  0
  5  4  1  0
  5  6  1  0
  6  8  1  0
  8  9  2  0
  9 10  1  0
 12 11  1  0
 11 10  1  0
 11 13  1  0
 10 16  1  0
 13 14  1  0
 16 17  1  0
 16 14  1  0
 17 18  1  0
 18 19  2  0
 14 15  1  0
 19 20  1  0
 20 21  1  0
 21 22  1  0
 22 23  1  0
 24 23  2  0
 23 25  1  0
  1 26  1  0
  1 27  1  0
  1 28  1  0
  2 29  1  0
  2 30  1  0
  3 31  1  0
  3 32  1  0
  4 33  1  0
  4 34  1  0
  5 35  1  0
  5 36  1  0
  6 37  1  1
  7 38  1  0
  8 39  1  0
  9 40  1  0
 10 41  1  6
 11 42  1  1
 12 43  1  0
 13 44  1  0
 13 45  1  0
 14 46  1  6
 16 47  1  1
 17 48  1  0
 17 49  1  0
 18 50  1  0
 19 51  1  0
 20 52  1  0
 20 53  1  0
 21 54  1  0
 21 55  1  0
 22 56  1  0
 22 57  1  0
 25 58  1  0
M  END
