
     RDKit          3D

 26 26  0  0  0  0  0  0  0  0999 V2000
    0.0376    0.6840    3.7384 C   0  0  0  0  0  0  0  0  0  0  0  0
    0.0072   -0.4300    2.7045 C   0  0  0  0  0  0  0  0  0  0  0  0
    0.0186    0.0935    1.2744 C   0  0  0  0  0  0  0  0  0  0  0  0
    0.0121   -1.0313    0.2389 C   0  0  0  0  0  0  0  0  0  0  0  0
    0.0213   -0.5142   -1.1721 C   0  0  0  0  0  0  0  0  0  0  0  0
    1.2223   -0.2438   -1.8255 C   0  0  0  0  0  0  0  0  0  0  0  0
    1.2343    0.2700   -3.1155 C   0  0  0  0  0  0  0  0  0  0  0  0
    0.0394    0.5248   -3.7764 C   0  0  0  0  0  0  0  0  0  0  0  0
   -1.1646    0.2598   -3.1365 C   0  0  0  0  0  0  0  0  0  0  0  0
   -1.1703   -0.2541   -1.8462 C   0  0  0  0  0  0  0  0  0  0  0  0
    0.0298    0.1453    5.0916 N   0  0  0  0  0  0  0  0  0  0  0  0
   -0.7918    1.3790    3.5401 H   0  0  0  0  0  0  0  0  0  0  0  0
    0.9556    1.2643    3.6094 H   0  0  0  0  0  0  0  0  0  0  0  0
    0.8648   -1.0913    2.8639 H   0  0  0  0  0  0  0  0  0  0  0  0
   -0.8875   -1.0448    2.8558 H   0  0  0  0  0  0  0  0  0  0  0  0
   -0.8492    0.7414    1.1123 H   0  0  0  0  0  0  0  0  0  0  0  0
    0.9011    0.7236    1.1206 H   0  0  0  0  0  0  0  0  0  0  0  0
    0.8812   -1.6748    0.4014 H   0  0  0  0  0  0  0  0  0  0  0  0
   -0.8703   -1.6582    0.3960 H   0  0  0  0  0  0  0  0  0  0  0  0
    2.1608   -0.4434   -1.3210 H   0  0  0  0  0  0  0  0  0  0  0  0
    2.1788    0.4684   -3.6063 H   0  0  0  0  0  0  0  0  0  0  0  0
    0.0465    0.9227   -4.7832 H   0  0  0  0  0  0  0  0  0  0  0  0
   -2.1020    0.4496   -3.6438 H   0  0  0  0  0  0  0  0  0  0  0  0
   -2.1157   -0.4615   -1.3578 H   0  0  0  0  0  0  0  0  0  0  0  0
    0.1204    0.9034    5.7560 H   0  0  0  0  0  0  0  0  0  0  0  0
   -0.8743   -0.2709    5.2790 H   0  0  0  0  0  0  0  0  0  0  0  0
  1  2  1  0
  1 11  1  0
  1 12  1  0
  1 13  1  0
  2  3  1  0
  2 14  1  0
  2 15  1  0
  3  4  1  0
  3 16  1  0
  3 17  1  0
  4  5  1  0
  4 18  1  0
  4 19  1  0
  5  6  2  0
  5 10  1  0
  6  7  1  0
  6 20  1  0
  7  8  2  0
  7 21  1  0
  8  9  1  0
  8 22  1  0
  9 10  2  0
  9 23  1  0
 10 24  1  0
 11 25  1  0
 11 26  1  0
M  END
