
     RDKit          3D

 26 27  0  0  0  0  0  0  0  0999 V2000
   -2.9306    0.3955    0.0004 C   0  0  0  0  0  0  0  0  0  0  0  0
   -1.1109   -0.8407   -0.1107 C   0  0  0  0  0  0  0  0  0  0  0  0
   -0.1370   -1.8184   -0.1863 C   0  0  0  0  0  0  0  0  0  0  0  0
    1.1852   -1.3937   -0.2117 C   0  0  0  0  0  0  0  0  0  0  0  0
    1.5172   -0.0322   -0.1709 C   0  0  0  0  0  0  0  0  0  0  0  0
    2.9343    0.4383   -0.2269 C   0  0  0  0  0  0  0  0  0  0  0  0
    3.2330    1.5157   -0.7182 O   0  0  0  0  0  0  0  0  0  0  0  0
    3.8329   -0.4083    0.3157 N   0  0  0  0  0  0  0  0  0  0  0  0
    5.1855   -0.1180    0.3013 N   0  0  0  0  0  0  0  0  0  0  0  0
    0.5188    0.9405   -0.1176 C   0  0  0  0  0  0  0  0  0  0  0  0
   -0.8065    0.5344   -0.0734 C   0  0  0  0  0  0  0  0  0  0  0  0
   -2.4817   -0.8937   -0.0635 N   0  0  0  0  0  0  0  0  0  0  0  0
   -1.9571    1.2792   -0.0024 N   0  0  0  0  0  0  0  0  0  0  0  0
   -4.2378    0.6875    0.0402 N   0  0  0  0  0  0  0  0  0  0  0  0
   -5.2747   -0.3082    0.1559 C   0  0  0  0  0  0  0  0  0  0  0  0
   -0.3835   -2.8709   -0.2325 H   0  0  0  0  0  0  0  0  0  0  0  0
    1.9596   -2.1448   -0.2958 H   0  0  0  0  0  0  0  0  0  0  0  0
    3.5121   -1.2077    0.8414 H   0  0  0  0  0  0  0  0  0  0  0  0
    5.5063    0.0261    1.2504 H   0  0  0  0  0  0  0  0  0  0  0  0
    5.6845   -0.9159   -0.0695 H   0  0  0  0  0  0  0  0  0  0  0  0
    0.7712    1.9929   -0.1002 H   0  0  0  0  0  0  0  0  0  0  0  0
   -3.0449   -1.7292   -0.0558 H   0  0  0  0  0  0  0  0  0  0  0  0
   -4.4713    1.6519    0.2026 H   0  0  0  0  0  0  0  0  0  0  0  0
   -5.2659   -0.9950   -0.6923 H   0  0  0  0  0  0  0  0  0  0  0  0
   -5.2001   -0.8915    1.0773 H   0  0  0  0  0  0  0  0  0  0  0  0
   -6.2357    0.1974    0.1564 H   0  0  0  0  0  0  0  0  0  0  0  0
 15 14  1  0
 14  1  1  0
  1 12  1  0
  1 13  2  0
 12  2  1  0
 13 11  1  0
  2 11  2  0
  2  3  1  0
 11 10  1  0
  3  4  2  0
 10  5  2  0
  4  5  1  0
  5  6  1  0
  6  7  2  0
  6  8  1  0
  8  9  1  0
  3 16  1  0
  4 17  1  0
  8 18  1  0
  9 19  1  0
  9 20  1  0
 10 21  1  0
 12 22  1  0
 14 23  1  0
 15 24  1  0
 15 25  1  0
 15 26  1  0
M  END
