
     RDKit          3D

 67 70  0  0  0  0  0  0  0  0999 V2000
    5.5235   -0.4964   -0.1891 C   0  0  0  0  0  0  0  0  0  0  0  0
    4.5928   -1.5580   -0.2058 O   0  0  0  0  0  0  0  0  0  0  0  0
    3.4304   -1.3981    0.4578 C   0  0  0  0  0  0  0  0  0  0  0  0
    3.0755   -0.2650    1.1722 C   0  0  0  0  0  0  0  0  0  0  0  0
    2.5376   -2.4859    0.3910 C   0  0  0  0  0  0  0  0  0  0  0  0
    2.9611   -3.5439   -0.3296 O   0  0  0  0  0  0  0  0  0  0  0  0
    2.0810   -4.6380   -0.4744 C   0  0  0  0  0  0  0  0  0  0  0  0
    1.3193   -2.4044    1.0457 C   0  0  0  0  0  0  0  0  0  0  0  0
    0.9817   -1.2613    1.7634 C   0  0  0  0  0  0  0  0  0  0  0  0
    1.8484   -0.1879    1.8308 C   0  0  0  0  0  0  0  0  0  0  0  0
    1.4613    1.0568    2.5753 C   0  0  0  0  0  0  0  0  0  0  0  0
    0.4591    1.8954    1.8394 C   0  0  0  0  0  0  0  0  0  0  0  0
   -0.1569    2.8818    2.5665 N   0  0  0  0  0  0  0  0  0  0  0  0
   -1.1298    3.7306    2.0722 C   0  0  0  0  0  0  0  0  0  0  0  0
   -1.6487    4.5850    2.7644 O   0  0  0  0  0  0  0  0  0  0  0  0
    0.2179    1.6655    0.6053 N   0  0  0  0  0  0  0  0  0  0  0  0
   -0.7279    2.4559    0.0498 N   0  0  0  0  0  0  0  0  0  0  0  0
   -1.4296    3.4585    0.6940 C   0  0  0  0  0  0  0  0  0  0  0  0
   -2.3192    3.9338   -0.2427 C   0  0  0  0  0  0  0  0  0  0  0  0
   -3.3181    5.0282   -0.1122 C   0  0  0  0  0  0  0  0  0  0  0  0
   -2.1575    3.2442   -1.3967 N   0  0  0  0  0  0  0  0  0  0  0  0
   -1.1945    2.3591   -1.2082 C   0  0  0  0  0  0  0  0  0  0  0  0
   -0.6695    1.3723   -2.1989 C   0  0  2  0  0  0  0  0  0  0  0  0
   -0.3335    2.0482   -3.5368 C   0  0  1  0  0  0  0  0  0  0  0  0
    0.6168    1.1969   -4.3691 C   0  0  0  0  0  0  0  0  0  0  0  0
   -1.5345    2.3061   -4.2285 O   0  0  0  0  0  0  0  0  0  0  0  0
   -1.6169    0.1706   -2.3368 C   0  0  0  0  0  0  0  0  0  0  0  0
   -1.5514   -0.7616   -1.1329 C   0  0  0  0  0  0  0  0  0  0  0  0
   -2.4718   -1.9743   -1.2773 C   0  0  0  0  0  0  0  0  0  0  0  0
   -2.2586   -2.9783   -0.1773 C   0  0  0  0  0  0  0  0  0  0  0  0
   -1.7458   -4.2433   -0.4510 C   0  0  0  0  0  0  0  0  0  0  0  0
   -1.5004   -5.1557    0.5686 C   0  0  0  0  0  0  0  0  0  0  0  0
   -1.7626   -4.8129    1.8874 C   0  0  0  0  0  0  0  0  0  0  0  0
   -2.2794   -3.5545    2.1746 C   0  0  0  0  0  0  0  0  0  0  0  0
   -2.5266   -2.6503    1.1519 C   0  0  0  0  0  0  0  0  0  0  0  0
    6.3780   -0.8254   -0.7755 H   0  0  0  0  0  0  0  0  0  0  0  0
    5.1178    0.4130   -0.6410 H   0  0  0  0  0  0  0  0  0  0  0  0
    5.8633   -0.2629    0.8237 H   0  0  0  0  0  0  0  0  0  0  0  0
    3.7491    0.5806    1.2258 H   0  0  0  0  0  0  0  0  0  0  0  0
    2.5904   -5.3664   -1.1008 H   0  0  0  0  0  0  0  0  0  0  0  0
    1.8428   -5.1054    0.4853 H   0  0  0  0  0  0  0  0  0  0  0  0
    1.1457   -4.3464   -0.9595 H   0  0  0  0  0  0  0  0  0  0  0  0
    0.6042   -3.2154    0.9961 H   0  0  0  0  0  0  0  0  0  0  0  0
    0.0167   -1.2172    2.2530 H   0  0  0  0  0  0  0  0  0  0  0  0
    1.0313    0.8014    3.5481 H   0  0  0  0  0  0  0  0  0  0  0  0
    2.3372    1.6771    2.7882 H   0  0  0  0  0  0  0  0  0  0  0  0
    0.0996    2.9941    3.5388 H   0  0  0  0  0  0  0  0  0  0  0  0
   -2.9408    5.9565   -0.5458 H   0  0  0  0  0  0  0  0  0  0  0  0
   -4.2347    4.7705   -0.6419 H   0  0  0  0  0  0  0  0  0  0  0  0
   -3.5627    5.2267    0.9283 H   0  0  0  0  0  0  0  0  0  0  0  0
    0.2799    0.9994   -1.8018 H   0  0  0  0  0  0  0  0  0  0  0  0
    0.1856    2.9898   -3.3044 H   0  0  0  0  0  0  0  0  0  0  0  0
    0.8683    1.7062   -5.3017 H   0  0  0  0  0  0  0  0  0  0  0  0
    1.5490    1.0175   -3.8326 H   0  0  0  0  0  0  0  0  0  0  0  0
    0.1807    0.2304   -4.6262 H   0  0  0  0  0  0  0  0  0  0  0  0
   -1.3095    2.7184   -5.0680 H   0  0  0  0  0  0  0  0  0  0  0  0
   -2.6405    0.5188   -2.4950 H   0  0  0  0  0  0  0  0  0  0  0  0
   -1.3431   -0.3985   -3.2290 H   0  0  0  0  0  0  0  0  0  0  0  0
   -0.5217   -1.1019   -0.9916 H   0  0  0  0  0  0  0  0  0  0  0  0
   -1.8140   -0.2270   -0.2162 H   0  0  0  0  0  0  0  0  0  0  0  0
   -3.5130   -1.6366   -1.2844 H   0  0  0  0  0  0  0  0  0  0  0  0
   -2.2956   -2.4542   -2.2437 H   0  0  0  0  0  0  0  0  0  0  0  0
   -1.5273   -4.5169   -1.4769 H   0  0  0  0  0  0  0  0  0  0  0  0
   -1.0988   -6.1323    0.3289 H   0  0  0  0  0  0  0  0  0  0  0  0
   -1.5695   -5.5185    2.6851 H   0  0  0  0  0  0  0  0  0  0  0  0
   -2.4897   -3.2757    3.1994 H   0  0  0  0  0  0  0  0  0  0  0  0
   -2.9254   -1.6718    1.3946 H   0  0  0  0  0  0  0  0  0  0  0  0
 32 31  2  0
 32 33  1  0
 31 30  1  0
 33 34  2  0
 30 29  1  0
 30 35  2  0
 34 35  1  0
 29 28  1  0
 26 24  1  0
 28 27  1  0
 27 23  1  0
  1  2  1  0
 23 24  1  0
 23 22  1  0
 24 25  1  0
  2  3  1  0
 22 21  2  0
 22 17  1  0
 21 19  1  0
  3  4  2  0
  3  5  1  0
  4 10  1  0
 17 16  1  0
 17 18  1  0
 16 12  2  0
 19 18  2  0
 19 20  1  0
  6  5  1  0
  6  7  1  0
  5  8  2  0
 18 14  1  0
 10 11  1  0
 10  9  2  0
 12 11  1  0
 12 13  1  0
  8  9  1  0
 14 13  1  0
 14 15  2  0
  1 36  1  0
  1 37  1  0
  1 38  1  0
  4 39  1  0
  7 40  1  0
  7 41  1  0
  7 42  1  0
  8 43  1  0
  9 44  1  0
 11 45  1  0
 11 46  1  0
 13 47  1  0
 20 48  1  0
 20 49  1  0
 20 50  1  0
 23 51  1  1
 24 52  1  1
 25 53  1  0
 25 54  1  0
 25 55  1  0
 26 56  1  0
 27 57  1  0
 27 58  1  0
 28 59  1  0
 28 60  1  0
 29 61  1  0
 29 62  1  0
 31 63  1  0
 32 64  1  0
 33 65  1  0
 34 66  1  0
 35 67  1  0
M  END
