
     RDKit          3D

 52 56  0  0  0  0  0  0  0  0999 V2000
    5.1951    1.9184   -2.1863 C   0  0  0  0  0  0  0  0  0  0  0  0
    6.1890    1.4656   -1.1253 C   0  0  0  0  0  0  0  0  0  0  0  0
    5.5681    1.1957    0.2520 C   0  0  1  0  0  0  0  0  0  0  0  0
    6.6280    0.7277    1.2686 C   0  0  0  0  0  0  0  0  0  0  0  0
    7.7927    1.6874    1.4805 C   0  0  0  0  0  0  0  0  0  0  0  0
    5.0159    2.4258    0.6782 O   0  0  0  0  0  0  0  0  0  0  0  0
    4.4884    0.1233    0.1255 C   0  0  0  0  0  0  0  0  0  0  0  0
    3.1584    0.4164    0.3613 C   0  0  0  0  0  0  0  0  0  0  0  0
    4.8510   -1.1857   -0.2657 C   0  0  0  0  0  0  0  0  0  0  0  0
    3.9247   -2.1942   -0.4106 C   0  0  0  0  0  0  0  0  0  0  0  0
    2.5748   -1.9171   -0.1600 C   0  0  0  0  0  0  0  0  0  0  0  0
    1.3713   -2.6780   -0.2060 C   0  0  0  0  0  0  0  0  0  0  0  0
    2.2212   -0.6062    0.2156 C   0  0  0  0  0  0  0  0  0  0  0  0
    0.8666   -0.5771    0.3778 N   0  0  0  0  0  0  0  0  0  0  0  0
    0.3520   -1.8255    0.1349 C   0  0  0  0  0  0  0  0  0  0  0  0
   -1.0651   -2.0691    0.2233 C   0  0  0  0  0  0  0  0  0  0  0  0
   -1.6005   -3.3017    0.3965 N   0  0  0  0  0  0  0  0  0  0  0  0
   -2.9271   -3.3394    0.4312 N   0  0  0  0  0  0  0  0  0  0  0  0
   -3.2839   -2.0729    0.2739 C   0  0  0  0  0  0  0  0  0  0  0  0
   -4.5227   -1.3627    0.2002 C   0  0  0  0  0  0  0  0  0  0  0  0
   -2.1617   -1.2329    0.1425 C   0  0  0  0  0  0  0  0  0  0  0  0
   -2.6148    0.4099   -0.0971 S   0  0  0  0  0  0  0  0  0  0  0  0
   -4.3206   -0.0339    0.0106 C   0  0  0  0  0  0  0  0  0  0  0  0
   -5.3324    1.0139   -0.1221 C   0  0  0  0  0  0  0  0  0  0  0  0
   -5.0712    2.3305    0.2632 C   0  0  0  0  0  0  0  0  0  0  0  0
   -6.0441    3.3103    0.1335 C   0  0  0  0  0  0  0  0  0  0  0  0
   -7.2951    2.9920   -0.3772 C   0  0  0  0  0  0  0  0  0  0  0  0
   -7.5652    1.6845   -0.7622 C   0  0  0  0  0  0  0  0  0  0  0  0
   -6.5925    0.7053   -0.6415 C   0  0  0  0  0  0  0  0  0  0  0  0
    5.7012    2.0600   -3.1417 H   0  0  0  0  0  0  0  0  0  0  0  0
    4.4033    1.1838   -2.3364 H   0  0  0  0  0  0  0  0  0  0  0  0
    4.7238    2.8642   -1.9200 H   0  0  0  0  0  0  0  0  0  0  0  0
    6.6936    0.5563   -1.4607 H   0  0  0  0  0  0  0  0  0  0  0  0
    6.9688    2.2232   -1.0159 H   0  0  0  0  0  0  0  0  0  0  0  0
    6.1201    0.5573    2.2249 H   0  0  0  0  0  0  0  0  0  0  0  0
    7.0197   -0.2464    0.9681 H   0  0  0  0  0  0  0  0  0  0  0  0
    7.4516    2.6917    1.7317 H   0  0  0  0  0  0  0  0  0  0  0  0
    8.4192    1.3381    2.3017 H   0  0  0  0  0  0  0  0  0  0  0  0
    8.4286    1.7590    0.5981 H   0  0  0  0  0  0  0  0  0  0  0  0
    4.7428    2.3396    1.5984 H   0  0  0  0  0  0  0  0  0  0  0  0
    2.8373    1.4123    0.6359 H   0  0  0  0  0  0  0  0  0  0  0  0
    5.8907   -1.4105   -0.4677 H   0  0  0  0  0  0  0  0  0  0  0  0
    4.2390   -3.1850   -0.7139 H   0  0  0  0  0  0  0  0  0  0  0  0
    1.2692   -3.7145   -0.4883 H   0  0  0  0  0  0  0  0  0  0  0  0
    0.3501    0.2080    0.7402 H   0  0  0  0  0  0  0  0  0  0  0  0
   -1.0830   -4.1577    0.5313 H   0  0  0  0  0  0  0  0  0  0  0  0
   -5.4999   -1.8112    0.3067 H   0  0  0  0  0  0  0  0  0  0  0  0
   -4.1095    2.5975    0.6848 H   0  0  0  0  0  0  0  0  0  0  0  0
   -5.8226    4.3245    0.4388 H   0  0  0  0  0  0  0  0  0  0  0  0
   -8.0528    3.7575   -0.4781 H   0  0  0  0  0  0  0  0  0  0  0  0
   -8.5338    1.4260   -1.1695 H   0  0  0  0  0  0  0  0  0  0  0  0
   -6.8084   -0.3032   -0.9703 H   0  0  0  0  0  0  0  0  0  0  0  0
 27 26  1  0
 27 28  2  0
 26 25  2  0
 28 29  1  0
 25 24  1  0
 29 24  2  0
 24 23  1  0
 23 20  2  0
 23 22  1  0
 20 19  1  0
 22 21  1  0
 19 21  1  0
 19 18  2  0
 21 16  2  0
 18 17  1  0
 16 17  1  0
 16 15  1  0
 12 15  2  0
 12 11  1  0
 15 14  1  0
 11 10  2  0
 11 13  1  0
 14 13  1  0
 10  9  1  0
 13  8  2  0
  9  7  2  0
  8  7  1  0
  7  3  1  0
  3  6  1  1
  3  2  1  0
  3  4  1  0
  2  1  1  0
  4  5  1  0
  1 30  1  0
  1 31  1  0
  1 32  1  0
  2 33  1  0
  2 34  1  0
  4 35  1  0
  4 36  1  0
  5 37  1  0
  5 38  1  0
  5 39  1  0
  6 40  1  0
  8 41  1  0
  9 42  1  0
 10 43  1  0
 12 44  1  0
 14 45  1  0
 17 46  1  0
 20 47  1  0
 25 48  1  0
 26 49  1  0
 27 50  1  0
 28 51  1  0
 29 52  1  0
M  END
