
     RDKit          3D

 53 55  0  0  0  0  0  0  0  0999 V2000
   -2.6599    3.2358   -0.0171 C   0  0  0  0  0  0  0  0  0  0  0  0
   -1.8546   -1.6452    0.5406 N   0  0  0  0  0  0  0  0  0  0  0  0
   -2.9480   -0.7266    2.6312 O   0  0  0  0  0  0  0  0  0  0  0  0
   -1.9637   -0.3836    1.6175 S   0  0  1  0  0  0  0  0  0  0  0  0
   -3.8487    3.0396   -0.6971 C   0  0  0  0  0  0  0  0  0  0  0  0
   -0.6268    0.0193    2.0304 O   0  0  0  0  0  0  0  0  0  0  0  0
   -4.4309    1.7798   -0.6729 C   0  0  0  0  0  0  0  0  0  0  0  0
   -3.8611    0.7207    0.0103 C   0  0  0  0  0  0  0  0  0  0  0  0
   -2.6670    0.9464    0.6716 C   0  0  0  0  0  0  0  0  0  0  0  0
   -2.0590    2.1904    0.6701 C   0  0  0  0  0  0  0  0  0  0  0  0
   -2.6694   -2.8357    0.8507 C   0  0  0  0  0  0  0  0  0  0  0  0
   -2.7995   -3.7204   -0.3741 C   0  0  0  0  0  0  0  0  0  0  0  0
   -1.4311   -4.1193   -0.8958 C   0  0  0  0  0  0  0  0  0  0  0  0
   -0.6249   -2.8694   -1.2021 C   0  0  0  0  0  0  0  0  0  0  0  0
   -0.5166   -1.9436    0.0189 C   0  0  1  0  0  0  0  0  0  0  0  0
    0.1846   -0.6892   -0.4658 C   0  0  0  0  0  0  0  0  0  0  0  0
    2.3044    0.2987   -0.7739 C   0  0  0  0  0  0  0  0  0  0  0  0
    3.7414   -0.0122   -0.4160 C   0  0  0  0  0  0  0  0  0  0  0  0
    4.6761    1.0785   -0.9428 C   0  0  0  0  0  0  0  0  0  0  0  0
   -2.1943    4.2109   -0.0248 H   0  0  0  0  0  0  0  0  0  0  0  0
   -4.3055    3.8566   -1.2356 H   0  0  0  0  0  0  0  0  0  0  0  0
   -4.3309   -0.2533    0.0105 H   0  0  0  0  0  0  0  0  0  0  0  0
   -1.1251    2.3541    1.1885 H   0  0  0  0  0  0  0  0  0  0  0  0
   -2.2170   -3.4048    1.6702 H   0  0  0  0  0  0  0  0  0  0  0  0
   -3.6564   -2.5167    1.1745 H   0  0  0  0  0  0  0  0  0  0  0  0
   -3.3858   -4.5972   -0.0935 H   0  0  0  0  0  0  0  0  0  0  0  0
   -3.3582   -3.1912   -1.1509 H   0  0  0  0  0  0  0  0  0  0  0  0
   -0.9096   -4.7284   -0.1508 H   0  0  0  0  0  0  0  0  0  0  0  0
   -1.5198   -4.7268   -1.7976 H   0  0  0  0  0  0  0  0  0  0  0  0
    0.3864   -3.1282   -1.5207 H   0  0  0  0  0  0  0  0  0  0  0  0
   -1.0986   -2.3206   -2.0202 H   0  0  0  0  0  0  0  0  0  0  0  0
    0.0903   -2.4397    0.7848 H   0  0  0  0  0  0  0  0  0  0  0  0
    2.1814    0.3719   -1.8572 H   0  0  0  0  0  0  0  0  0  0  0  0
    1.9896    1.2476   -0.3329 H   0  0  0  0  0  0  0  0  0  0  0  0
    3.8469   -0.0919    0.6690 H   0  0  0  0  0  0  0  0  0  0  0  0
    4.0293   -0.9772   -0.8414 H   0  0  0  0  0  0  0  0  0  0  0  0
    4.5619    1.1654   -2.0266 H   0  0  0  0  0  0  0  0  0  0  0  0
    4.3877    2.0438   -0.5190 H   0  0  0  0  0  0  0  0  0  0  0  0
    6.1093    0.7886   -0.6071 C   0  0  0  0  0  0  0  0  0  0  0  0
    6.8850   -0.0714   -1.3774 C   0  0  0  0  0  0  0  0  0  0  0  0
    8.1912   -0.3351   -0.9977 C   0  0  0  0  0  0  0  0  0  0  0  0
    8.6833    0.2734    0.1477 C   0  0  0  0  0  0  0  0  0  0  0  0
    7.9602    1.0984    0.8955 N   0  0  0  0  0  0  0  0  0  0  0  0
    6.7105    1.3413    0.5200 C   0  0  0  0  0  0  0  0  0  0  0  0
    6.4716   -0.5276   -2.2692 H   0  0  0  0  0  0  0  0  0  0  0  0
    8.8198   -0.9983   -1.5760 H   0  0  0  0  0  0  0  0  0  0  0  0
    9.7019    0.0893    0.4707 H   0  0  0  0  0  0  0  0  0  0  0  0
    6.1423    2.0215    1.1484 H   0  0  0  0  0  0  0  0  0  0  0  0
   -5.6829    1.5592   -1.3864 N   0  0  0  0  0  0  0  0  0  0  0  0
   -6.1742    2.4968   -1.9659 O   0  0  0  0  0  0  0  0  0  0  0  0
   -6.1613    0.4510   -1.3579 O   0  0  0  0  0  0  0  0  0  0  0  0
   -0.3705    0.2098   -1.0425 O   0  0  0  0  0  0  0  0  0  0  0  0
    1.4858   -0.7636   -0.2633 O   0  0  0  0  0  0  0  0  0  0  0  0
 19 18  1  0
 18 17  1  0
 17 53  1  0
 53 16  1  0
 52 16  2  0
 11 12  1  0
 11  2  1  0
 16 15  1  0
  7  5  1  0
  7  8  2  0
 12 13  1  0
  5  1  2  0
  8  9  1  0
 13 14  1  0
  2 15  1  0
  2  4  1  0
 15 14  1  0
  1 10  1  0
  9 10  2  0
  4  9  1  6
  4  3  2  0
  4  6  2  0
  1 20  1  0
  5 21  1  0
  8 22  1  0
 10 23  1  0
 11 24  1  0
 11 25  1  0
 12 26  1  0
 12 27  1  0
 13 28  1  0
 13 29  1  0
 14 30  1  0
 14 31  1  0
 15 32  1  1
 17 33  1  0
 17 34  1  0
 18 35  1  0
 18 36  1  0
 19 37  1  0
 19 38  1  0
 19 39  1  0
 39 40  2  0
 40 41  1  0
 41 42  2  0
 42 43  1  0
 43 44  2  0
 44 39  1  0
 40 45  1  0
 41 46  1  0
 42 47  1  0
 44 48  1  0
  7 49  1  0
 49 50  1  0
 49 51  2  0
M  CHG  2  49   1  50  -1
M  END
