
     RDKit          3D

130130  0  0  0  0  0  0  0  0999 V2000
    6.9834    0.3411   -1.2859 C   0  0  0  0  0  0  0  0  0  0  0  0
    8.2543    0.2263   -0.6031 N   0  0  0  0  0  0  0  0  0  0  0  0
   -4.1199    1.1106    2.0472 O   0  0  0  0  0  0  0  0  0  0  0  0
    5.8263    0.3543   -0.2985 C   0  0  0  0  0  0  0  0  0  0  0  0
   -5.4463    1.0218    0.2289 N   0  0  0  0  0  0  0  0  0  0  0  0
    4.4793    0.4800   -0.9984 C   0  0  0  0  0  0  0  0  0  0  0  0
   -8.8627    0.0235    0.7830 N   0  0  0  0  0  0  0  0  0  0  0  0
    3.3066    0.4952   -0.0260 C   0  0  0  0  0  0  0  0  0  0  0  0
   -8.1402   -6.6064    0.0711 N   0  0  0  0  0  0  0  0  0  0  0  0
    1.9569    0.6492   -0.7156 C   0  0  0  0  0  0  0  0  0  0  0  0
    0.7870    0.6641    0.2602 C   0  0  0  0  0  0  0  0  0  0  0  0
   -0.5647    0.8393   -0.4203 C   0  0  0  0  0  0  0  0  0  0  0  0
   -1.7236    0.8492    0.5690 C   0  0  0  0  0  0  0  0  0  0  0  0
   -3.0641    1.0497   -0.1193 C   0  0  0  0  0  0  0  0  0  0  0  0
   -4.2439    1.0609    0.8313 C   0  0  0  0  0  0  0  0  0  0  0  0
   -6.6889    1.0420    0.9526 C   0  0  1  0  0  0  0  0  0  0  0  0
   -7.1346    2.4546    1.3217 C   0  0  0  0  0  0  0  0  0  0  0  0
   -7.7613    0.3619    0.1006 C   0  0  0  0  0  0  0  0  0  0  0  0
  -10.0386   -0.5665    0.1929 C   0  0  1  0  0  0  0  0  0  0  0  0
  -10.1472   -2.0680    0.4963 C   0  0  0  0  0  0  0  0  0  0  0  0
   -8.9780   -2.8853   -0.0336 C   0  0  0  0  0  0  0  0  0  0  0  0
   -9.1347   -4.3708    0.2673 C   0  0  0  0  0  0  0  0  0  0  0  0
   -7.9634   -5.1954   -0.2434 C   0  0  0  0  0  0  0  0  0  0  0  0
  -11.2711    0.1378    0.7551 C   0  0  0  0  0  0  0  0  0  0  0  0
  -13.6351    0.6577    0.3063 C   0  0  0  0  0  0  0  0  0  0  0  0
  -14.7268   -0.0981   -0.4368 C   0  0  0  0  0  0  0  0  0  0  0  0
  -16.1425    0.3072   -0.0289 C   0  0  1  0  0  0  0  0  0  0  0  0
  -16.4673    1.7616   -0.3784 C   0  0  0  0  0  0  0  0  0  0  0  0
  -17.9003    2.1335   -0.0075 C   0  0  0  0  0  0  0  0  0  0  0  0
  -18.9087    1.1916   -0.6555 C   0  0  0  0  0  0  0  0  0  0  0  0
  -18.5982   -0.2602   -0.3066 C   0  0  0  0  0  0  0  0  0  0  0  0
  -17.1653   -0.6258   -0.6788 C   0  0  0  0  0  0  0  0  0  0  0  0
    9.3984    0.7775   -1.0377 C   0  0  0  0  0  0  0  0  0  0  0  0
    9.4741    1.4155   -2.0811 O   0  0  0  0  0  0  0  0  0  0  0  0
   10.5916    0.5928   -0.1230 C   0  0  0  0  0  0  0  0  0  0  0  0
   11.9035    0.4121   -0.8753 C   0  0  0  0  0  0  0  0  0  0  0  0
   13.1014    0.3458    0.0633 C   0  0  0  0  0  0  0  0  0  0  0  0
   14.4242    0.1757   -0.6728 C   0  0  0  0  0  0  0  0  0  0  0  0
   15.6285    0.1397    0.2600 C   0  0  0  0  0  0  0  0  0  0  0  0
   16.9540   -0.0210   -0.4737 C   0  0  0  0  0  0  0  0  0  0  0  0
   18.1581   -0.0437    0.4599 C   0  0  0  0  0  0  0  0  0  0  0  0
   19.4859   -0.1953   -0.2718 C   0  0  0  0  0  0  0  0  0  0  0  0
   20.6887   -0.2119    0.6636 C   0  0  0  0  0  0  0  0  0  0  0  0
   22.0187   -0.3536   -0.0660 C   0  0  0  0  0  0  0  0  0  0  0  0
   23.2194   -0.3669    0.8720 C   0  0  0  0  0  0  0  0  0  0  0  0
   24.5531   -0.4983    0.1464 C   0  0  0  0  0  0  0  0  0  0  0  0
   25.7422   -0.5080    1.0974 C   0  0  0  0  0  0  0  0  0  0  0  0
    6.9846    1.2633   -1.8675 H   0  0  0  0  0  0  0  0  0  0  0  0
    6.8544   -0.4822   -1.9969 H   0  0  0  0  0  0  0  0  0  0  0  0
    8.2827   -0.3373    0.2316 H   0  0  0  0  0  0  0  0  0  0  0  0
    5.8424   -0.5631    0.3002 H   0  0  0  0  0  0  0  0  0  0  0  0
    5.9581    1.1861    0.4003 H   0  0  0  0  0  0  0  0  0  0  0  0
   -5.4979    0.9784   -0.7773 H   0  0  0  0  0  0  0  0  0  0  0  0
   -7.7038    4.0383    0.3656 H   0  0  0  0  0  0  0  0  0  0  0  0
    4.4653    1.3969   -1.5978 H   0  0  0  0  0  0  0  0  0  0  0  0
    4.3549   -0.3474   -1.7052 H   0  0  0  0  0  0  0  0  0  0  0  0
   -8.8994    0.1987    1.7762 H   0  0  0  0  0  0  0  0  0  0  0  0
    3.3120   -0.4286    0.5633 H   0  0  0  0  0  0  0  0  0  0  0  0
    3.4417    1.3126    0.6907 H   0  0  0  0  0  0  0  0  0  0  0  0
   -7.3700   -7.1369   -0.3159 H   0  0  0  0  0  0  0  0  0  0  0  0
   -8.0752   -6.7319    1.0742 H   0  0  0  0  0  0  0  0  0  0  0  0
    1.9523    1.5748   -1.3022 H   0  0  0  0  0  0  0  0  0  0  0  0
  -12.2010   -0.1561   -1.0141 H   0  0  0  0  0  0  0  0  0  0  0  0
    0.7855   -0.2667    0.8385 H   0  0  0  0  0  0  0  0  0  0  0  0
   -0.5648    1.7734   -0.9933 H   0  0  0  0  0  0  0  0  0  0  0  0
   -0.7120    0.0358   -1.1500 H   0  0  0  0  0  0  0  0  0  0  0  0
   -1.7298   -0.0911    1.1277 H   0  0  0  0  0  0  0  0  0  0  0  0
   -1.5643    1.6423    1.3035 H   0  0  0  0  0  0  0  0  0  0  0  0
   -3.0652    1.9989   -0.6671 H   0  0  0  0  0  0  0  0  0  0  0  0
   -3.2226    0.2746   -0.8756 H   0  0  0  0  0  0  0  0  0  0  0  0
   -6.5677    0.4826    1.8845 H   0  0  0  0  0  0  0  0  0  0  0  0
   -6.3323    2.9312    1.8961 H   0  0  0  0  0  0  0  0  0  0  0  0
   -8.0055    2.3923    1.9862 H   0  0  0  0  0  0  0  0  0  0  0  0
   -9.9799   -0.4234   -0.8879 H   0  0  0  0  0  0  0  0  0  0  0  0
  -10.2339   -2.2051    1.5791 H   0  0  0  0  0  0  0  0  0  0  0  0
  -11.0793   -2.4392    0.0601 H   0  0  0  0  0  0  0  0  0  0  0  0
   -8.8842   -2.7359   -1.1138 H   0  0  0  0  0  0  0  0  0  0  0  0
   -8.0449   -2.5269    0.4103 H   0  0  0  0  0  0  0  0  0  0  0  0
   -9.2336   -4.5114    1.3498 H   0  0  0  0  0  0  0  0  0  0  0  0
  -10.0598   -4.7480   -0.1793 H   0  0  0  0  0  0  0  0  0  0  0  0
   -7.0300   -4.7715    0.1556 H   0  0  0  0  0  0  0  0  0  0  0  0
   -7.9034   -5.0917   -1.3305 H   0  0  0  0  0  0  0  0  0  0  0  0
  -13.7605    0.5280    1.3820 H   0  0  0  0  0  0  0  0  0  0  0  0
  -13.6991    1.7306    0.1053 H   0  0  0  0  0  0  0  0  0  0  0  0
  -14.6096    0.0466   -1.5173 H   0  0  0  0  0  0  0  0  0  0  0  0
  -14.5969   -1.1686   -0.2494 H   0  0  0  0  0  0  0  0  0  0  0  0
  -16.2274    0.1919    1.0610 H   0  0  0  0  0  0  0  0  0  0  0  0
  -15.7738    2.4429    0.1205 H   0  0  0  0  0  0  0  0  0  0  0  0
  -16.3206    1.9044   -1.4562 H   0  0  0  0  0  0  0  0  0  0  0  0
  -18.0139    2.0907    1.0815 H   0  0  0  0  0  0  0  0  0  0  0  0
  -18.1035    3.1670   -0.2984 H   0  0  0  0  0  0  0  0  0  0  0  0
  -19.9237    1.4488   -0.3426 H   0  0  0  0  0  0  0  0  0  0  0  0
  -18.8766    1.3189   -1.7433 H   0  0  0  0  0  0  0  0  0  0  0  0
  -18.7412   -0.4115    0.7689 H   0  0  0  0  0  0  0  0  0  0  0  0
  -19.2994   -0.9313   -0.8088 H   0  0  0  0  0  0  0  0  0  0  0  0
  -17.0478   -0.5755   -1.7685 H   0  0  0  0  0  0  0  0  0  0  0  0
  -16.9557   -1.6607   -0.3932 H   0  0  0  0  0  0  0  0  0  0  0  0
   10.6538    1.4874    0.5073 H   0  0  0  0  0  0  0  0  0  0  0  0
   10.4316   -0.2447    0.5615 H   0  0  0  0  0  0  0  0  0  0  0  0
   11.8604   -0.5011   -1.4775 H   0  0  0  0  0  0  0  0  0  0  0  0
   12.0387    1.2384   -1.5768 H   0  0  0  0  0  0  0  0  0  0  0  0
   13.1369    1.2594    0.6677 H   0  0  0  0  0  0  0  0  0  0  0  0
   12.9699   -0.4801    0.7708 H   0  0  0  0  0  0  0  0  0  0  0  0
   14.3961   -0.7452   -1.2662 H   0  0  0  0  0  0  0  0  0  0  0  0
   14.5472    0.9945   -1.3904 H   0  0  0  0  0  0  0  0  0  0  0  0
   15.6522    1.0600    0.8547 H   0  0  0  0  0  0  0  0  0  0  0  0
   15.5078   -0.6802    0.9767 H   0  0  0  0  0  0  0  0  0  0  0  0
   16.9345   -0.9445   -1.0636 H   0  0  0  0  0  0  0  0  0  0  0  0
   17.0709    0.7958   -1.1947 H   0  0  0  0  0  0  0  0  0  0  0  0
   18.1736    0.8782    1.0524 H   0  0  0  0  0  0  0  0  0  0  0  0
   18.0437   -0.8628    1.1787 H   0  0  0  0  0  0  0  0  0  0  0  0
   19.4730   -1.1182   -0.8628 H   0  0  0  0  0  0  0  0  0  0  0  0
   19.5989    0.6230   -0.9918 H   0  0  0  0  0  0  0  0  0  0  0  0
   20.6974    0.7090    1.2579 H   0  0  0  0  0  0  0  0  0  0  0  0
   20.5781   -1.0329    1.3807 H   0  0  0  0  0  0  0  0  0  0  0  0
   22.0120   -1.2746   -0.6602 H   0  0  0  0  0  0  0  0  0  0  0  0
   22.1287    0.4677   -0.7829 H   0  0  0  0  0  0  0  0  0  0  0  0
   23.2223    0.5515    1.4703 H   0  0  0  0  0  0  0  0  0  0  0  0
   23.1125   -1.1914    1.5859 H   0  0  0  0  0  0  0  0  0  0  0  0
   24.5522   -1.4158   -0.4507 H   0  0  0  0  0  0  0  0  0  0  0  0
   24.6594    0.3256   -0.5662 H   0  0  0  0  0  0  0  0  0  0  0  0
   25.7808    0.4103    1.6866 H   0  0  0  0  0  0  0  0  0  0  0  0
   25.6794   -1.3445    1.7957 H   0  0  0  0  0  0  0  0  0  0  0  0
   26.6878   -0.5949    0.5609 H   0  0  0  0  0  0  0  0  0  0  0  0
    1.8202   -0.1659   -1.4348 H   0  0  0  0  0  0  0  0  0  0  0  0
    0.9322    1.4713    0.9866 H   0  0  0  0  0  0  0  0  0  0  0  0
   -7.4233    3.1482    0.1350 O   0  0  0  0  0  0  0  0  0  0  0  0
   -7.6100    0.1689   -1.0956 O   0  0  0  0  0  0  0  0  0  0  0  0
  -11.2803    0.5794    1.8963 O   0  0  0  0  0  0  0  0  0  0  0  0
  -12.3255    0.1602   -0.0651 N   0  0  0  0  0  0  0  0  0  0  0  0
  2  1  1  0
  1  4  1  0
  1 48  1  0
  1 49  1  0
 33  2  1  0
  2 50  1  0
  3 15  2  0
  6  4  1  0
  4 51  1  0
  4 52  1  0
 15  5  1  0
 16  5  1  0
  5 53  1  0
127 17  1  0
127 54  1  0
  6  8  1  0
  6 55  1  0
  6 56  1  0
 18  7  1  0
  7 19  1  0
  7 57  1  0
 18128  2  0
 10  8  1  0
  8 58  1  0
  8 59  1  0
  9 23  1  0
  9 60  1  0
  9 61  1  0
129 24  2  0
 10 11  1  0
 10 62  1  0
 24130  1  0
 25130  1  0
130 63  1  0
 11 12  1  0
 11 64  1  0
 12 13  1  0
 12 65  1  0
 12 66  1  0
 13 14  1  0
 13 67  1  0
 13 68  1  0
 15 14  1  0
 14 69  1  0
 14 70  1  0
 17 16  1  0
 16 18  1  0
 16 71  1  1
 17 72  1  0
 17 73  1  0
 24 19  1  0
 19 20  1  0
 19 74  1  6
 21 20  1  0
 20 75  1  0
 20 76  1  0
 21 22  1  0
 21 77  1  0
 21 78  1  0
 23 22  1  0
 22 79  1  0
 22 80  1  0
 23 81  1  0
 23 82  1  0
 25 26  1  0
 25 83  1  0
 25 84  1  0
 27 26  1  0
 26 85  1  0
 26 86  1  0
 28 27  1  0
 27 32  1  0
 27 87  1  1
 29 28  1  0
 28 88  1  0
 28 89  1  0
 29 30  1  0
 29 90  1  0
 29 91  1  0
 30 31  1  0
 30 92  1  0
 30 93  1  0
 31 32  1  0
 31 94  1  0
 31 95  1  0
 32 96  1  0
 32 97  1  0
 35 33  1  0
 33 34  2  0
 36 35  1  0
 35 98  1  0
 35 99  1  0
 37 36  1  0
 36100  1  0
 36101  1  0
 38 37  1  0
 37102  1  0
 37103  1  0
 39 38  1  0
 38104  1  0
 38105  1  0
 40 39  1  0
 39106  1  0
 39107  1  0
 41 40  1  0
 40108  1  0
 40109  1  0
 42 41  1  0
 41110  1  0
 41111  1  0
 42 43  1  0
 42112  1  0
 42113  1  0
 44 43  1  0
 43114  1  0
 43115  1  0
 45 44  1  0
 44116  1  0
 44117  1  0
 46 45  1  0
 45118  1  0
 45119  1  0
 47 46  1  0
 46120  1  0
 46121  1  0
 47122  1  0
 47123  1  0
 47124  1  0
 10125  1  0
 11126  1  0
M  END
