
     RDKit          3D

 20 19  0  0  0  0  0  0  0  0999 V2000
    1.8639    0.1903    2.4902 N   0  0  0  0  0  0  0  0  0  0  0  0
    0.4348    0.3705    2.3752 C   0  0  2  0  0  0  0  0  0  0  0  0
   -0.2589   -0.0866    3.6492 C   0  0  0  0  0  0  0  0  0  0  0  0
   -0.0429   -1.0913    4.3287 O   0  0  0  0  0  0  0  0  0  0  0  0
   -0.2620   -0.3625    1.2111 C   0  0  0  0  0  0  0  0  0  0  0  0
    0.1829    0.1871   -0.1185 C   0  0  0  0  0  0  0  0  0  0  0  0
   -0.9851   -0.4107   -1.3051 S   0  0  0  0  0  0  0  0  0  0  0  0
   -0.1806    0.0743   -2.9104 C   0  0  1  0  0  0  0  0  0  0  0  0
   -1.2438    0.7554    4.0591 O   0  0  0  0  0  0  0  0  0  0  0  0
   -0.8493   -0.4396   -3.9850 F   0  0  0  0  0  0  0  0  0  0  0  0
   -0.1170    1.4235   -3.1398 F   0  0  0  0  0  0  0  0  0  0  0  0
    1.1141   -0.3503   -3.0529 F   0  0  0  0  0  0  0  0  0  0  0  0
    2.3468    0.8982    1.9748 H   0  0  0  0  0  0  0  0  0  0  0  0
    2.1465   -0.7177    2.1746 H   0  0  0  0  0  0  0  0  0  0  0  0
    0.2496    1.4818    2.2550 H   0  0  0  0  0  0  0  0  0  0  0  0
   -0.0454   -1.4619    1.2698 H   0  0  0  0  0  0  0  0  0  0  0  0
   -1.3713   -0.2260    1.3296 H   0  0  0  0  0  0  0  0  0  0  0  0
    0.1874    1.3051   -0.1096 H   0  0  0  0  0  0  0  0  0  0  0  0
    1.2120   -0.1606   -0.3830 H   0  0  0  0  0  0  0  0  0  0  0  0
   -1.6487    0.4130    4.8738 H   0  0  0  0  0  0  0  0  0  0  0  0
  1  2  1  0
  1 13  1  0
  1 14  1  0
  2  3  1  0
  2  5  1  0
  2 15  1  6
  3  4  2  0
  3  9  1  0
  5  6  1  0
  5 16  1  0
  5 17  1  0
  6  7  1  0
  6 18  1  0
  6 19  1  0
  7  8  1  0
  8 10  1  6
  8 11  1  0
  8 12  1  0
  9 20  1  0
M  END
