
     RDKit          3D

 26 26  0  0  0  0  0  0  0  0999 V2000
   -5.0655    0.2783   -0.5070 C   0  0  0  0  0  0  0  0  0  0  0  0
   -4.1201   -0.6833   -0.0782 O   0  0  0  0  0  0  0  0  0  0  0  0
   -2.8231   -0.3408   -0.0434 C   0  0  0  0  0  0  0  0  0  0  0  0
   -1.9348   -1.3209    0.4095 C   0  0  0  0  0  0  0  0  0  0  0  0
   -0.5829   -1.0587    0.4772 C   0  0  0  0  0  0  0  0  0  0  0  0
   -0.0606    0.1874    0.1087 C   0  0  0  0  0  0  0  0  0  0  0  0
    1.3861    0.4710    0.1576 C   0  0  0  0  0  0  0  0  0  0  0  0
    1.7934    1.8815    0.4753 C   0  0  0  0  0  0  0  0  0  0  0  0
    2.2536   -0.5287   -0.0970 C   0  0  0  0  0  0  0  0  0  0  0  0
    3.7130   -0.4136   -0.0916 C   0  0  0  0  0  0  0  0  0  0  0  0
    4.2832   -1.6082   -0.2711 O   0  0  0  0  0  0  0  0  0  0  0  0
    4.3667    0.5977    0.0425 O   0  0  0  0  0  0  0  0  0  0  0  0
   -0.9629    1.1577   -0.3238 C   0  0  0  0  0  0  0  0  0  0  0  0
   -2.3244    0.9060   -0.4143 C   0  0  0  0  0  0  0  0  0  0  0  0
   -6.0402   -0.1987   -0.4442 H   0  0  0  0  0  0  0  0  0  0  0  0
   -5.0637    1.1640    0.1331 H   0  0  0  0  0  0  0  0  0  0  0  0
   -4.8916    0.5886   -1.5402 H   0  0  0  0  0  0  0  0  0  0  0  0
   -2.3177   -2.2853    0.7187 H   0  0  0  0  0  0  0  0  0  0  0  0
    0.0746   -1.8322    0.8531 H   0  0  0  0  0  0  0  0  0  0  0  0
    2.6489    1.9112    1.1439 H   0  0  0  0  0  0  0  0  0  0  0  0
    2.0806    2.4172   -0.4317 H   0  0  0  0  0  0  0  0  0  0  0  0
    0.9787    2.4303    0.9414 H   0  0  0  0  0  0  0  0  0  0  0  0
    1.8676   -1.5087   -0.3484 H   0  0  0  0  0  0  0  0  0  0  0  0
    5.2462   -1.5102   -0.2713 H   0  0  0  0  0  0  0  0  0  0  0  0
   -0.6072    2.1351   -0.6238 H   0  0  0  0  0  0  0  0  0  0  0  0
   -2.9742    1.6930   -0.7722 H   0  0  0  0  0  0  0  0  0  0  0  0
 14 13  1  0
 14  3  2  0
  2  3  1  0
  2  1  1  0
 13  6  2  0
  3  4  1  0
  6  7  1  0
  6  5  1  0
  4  5  2  0
  7  8  1  0
  7  9  2  0
  9 10  1  0
 12 10  2  0
 10 11  1  0
  1 15  1  0
  1 16  1  0
  1 17  1  0
  4 18  1  0
  5 19  1  0
  8 20  1  0
  8 21  1  0
  8 22  1  0
  9 23  1  0
 11 24  1  0
 13 25  1  0
 14 26  1  0
M  END
