
     RDKit          3D

 44 45  0  0  0  0  0  0  0  0999 V2000
    1.0272   -4.8934   -2.1777 N   0  0  0  0  0  0  0  0  0  0  0  0
    0.9921   -4.0102   -1.4412 C   0  0  0  0  0  0  0  0  0  0  0  0
    0.9284   -2.8983   -0.5039 C   0  0  0  0  0  0  0  0  0  0  0  0
   -0.4834   -2.7390    0.0564 C   0  0  0  0  0  0  0  0  0  0  0  0
   -0.6139   -1.3752    1.2484 S   0  0  0  0  0  0  0  0  0  0  0  0
   -0.3894    0.0246    0.1712 C   0  0  0  0  0  0  0  0  0  0  0  0
    0.8895    0.6526    0.1054 C   0  0  0  0  0  0  0  0  0  0  0  0
    2.0173    0.2314    0.8314 C   0  0  0  0  0  0  0  0  0  0  0  0
    3.2220    0.8892    0.7090 C   0  0  0  0  0  0  0  0  0  0  0  0
    4.2443    0.4166    1.4438 O   0  0  0  0  0  0  0  0  0  0  0  0
    5.5091    1.0431    1.3454 C   0  0  0  0  0  0  0  0  0  0  0  0
    3.3343    2.0028   -0.1538 C   0  0  0  0  0  0  0  0  0  0  0  0
    2.2431    2.4262   -0.8632 C   0  0  0  0  0  0  0  0  0  0  0  0
    1.0002    1.7712   -0.7552 C   0  0  0  0  0  0  0  0  0  0  0  0
   -0.0385    2.2381   -1.4824 N   0  0  0  0  0  0  0  0  0  0  0  0
   -1.2037    1.6584   -1.3963 C   0  0  0  0  0  0  0  0  0  0  0  0
   -2.3067    2.2345   -2.2337 C   0  0  0  0  0  0  0  0  0  0  0  0
   -1.4451    0.5219   -0.5568 C   0  0  0  0  0  0  0  0  0  0  0  0
   -2.8344   -0.0373   -0.4471 C   0  0  0  0  0  0  0  0  0  0  0  0
   -3.6368    0.6562    0.6583 C   0  0  0  0  0  0  0  0  0  0  0  0
   -5.0105    0.0308    0.8600 C   0  0  0  0  0  0  0  0  0  0  0  0
   -5.8256    0.7458    1.9286 C   0  0  0  0  0  0  0  0  0  0  0  0
    1.6452   -3.0835    0.2972 H   0  0  0  0  0  0  0  0  0  0  0  0
    1.2491   -1.9978   -1.0308 H   0  0  0  0  0  0  0  0  0  0  0  0
   -1.2068   -2.5950   -0.7457 H   0  0  0  0  0  0  0  0  0  0  0  0
   -0.7745   -3.6310    0.6115 H   0  0  0  0  0  0  0  0  0  0  0  0
    1.9418   -0.6139    1.5026 H   0  0  0  0  0  0  0  0  0  0  0  0
    4.2709    2.5321   -0.2634 H   0  0  0  0  0  0  0  0  0  0  0  0
    5.4741    2.0895    1.6586 H   0  0  0  0  0  0  0  0  0  0  0  0
    6.1722    0.5014    2.0154 H   0  0  0  0  0  0  0  0  0  0  0  0
    5.9136    0.9893    0.3317 H   0  0  0  0  0  0  0  0  0  0  0  0
    2.3190    3.2799   -1.5242 H   0  0  0  0  0  0  0  0  0  0  0  0
   -2.6652    1.5183   -2.9756 H   0  0  0  0  0  0  0  0  0  0  0  0
   -3.1688    2.5246   -1.6309 H   0  0  0  0  0  0  0  0  0  0  0  0
   -1.9480    3.1167   -2.7590 H   0  0  0  0  0  0  0  0  0  0  0  0
   -3.3606    0.0613   -1.3982 H   0  0  0  0  0  0  0  0  0  0  0  0
   -2.7993   -1.1045   -0.2292 H   0  0  0  0  0  0  0  0  0  0  0  0
   -3.0696    0.6038    1.5926 H   0  0  0  0  0  0  0  0  0  0  0  0
   -3.7494    1.7206    0.4274 H   0  0  0  0  0  0  0  0  0  0  0  0
   -5.5596    0.0398   -0.0867 H   0  0  0  0  0  0  0  0  0  0  0  0
   -4.8881   -1.0222    1.1308 H   0  0  0  0  0  0  0  0  0  0  0  0
   -5.3021    0.7509    2.8866 H   0  0  0  0  0  0  0  0  0  0  0  0
   -6.0143    1.7841    1.6501 H   0  0  0  0  0  0  0  0  0  0  0  0
   -6.7918    0.2640    2.0826 H   0  0  0  0  0  0  0  0  0  0  0  0
  1  2  3  0
  2  3  1  0
  3  4  1  0
  4  5  1  0
  5  6  1  0
  6  7  2  0
  6 18  1  0
  7  8  1  0
  7 14  1  0
  8  9  2  0
  9 10  1  0
  9 12  1  0
 10 11  1  0
 12 13  2  0
 13 14  1  0
 14 15  2  0
 15 16  1  0
 16 17  1  0
 16 18  2  0
 18 19  1  0
 19 20  1  0
 20 21  1  0
 21 22  1  0
  3 23  1  0
  3 24  1  0
  4 25  1  0
  4 26  1  0
  8 27  1  0
 12 28  1  0
 11 29  1  0
 11 30  1  0
 11 31  1  0
 13 32  1  0
 17 33  1  0
 17 34  1  0
 17 35  1  0
 19 36  1  0
 19 37  1  0
 20 38  1  0
 20 39  1  0
 21 40  1  0
 21 41  1  0
 22 42  1  0
 22 43  1  0
 22 44  1  0
M  END
