
     RDKit          3D

 28 29  0  0  0  0  0  0  0  0999 V2000
    4.1392   -1.9380    0.0343 B   0  0  0  0  0  0  0  0  0  0  0  0
    5.2132   -1.4042    0.6705 O   0  0  0  0  0  0  0  0  0  0  0  0
    4.1195   -3.2465   -0.3197 O   0  0  0  0  0  0  0  0  0  0  0  0
    2.8783   -1.0523   -0.3622 C   0  0  0  0  0  0  0  0  0  0  0  0
    2.8297    0.1615    0.4522 N   0  0  0  0  0  0  0  0  0  0  0  0
    1.9700    1.4579   -0.0714 S   0  0  1  0  0  0  0  0  0  0  0  0
    2.0773    2.4741    0.9593 O   0  0  0  0  0  0  0  0  0  0  0  0
    2.3866    1.7392   -1.4327 O   0  0  0  0  0  0  0  0  0  0  0  0
    0.2741    0.9394   -0.1392 C   0  0  0  0  0  0  0  0  0  0  0  0
   -0.2371    0.3466   -1.2834 C   0  0  0  0  0  0  0  0  0  0  0  0
   -1.5545   -0.0763   -1.2685 C   0  0  0  0  0  0  0  0  0  0  0  0
   -2.2903    0.1244   -0.1089 C   0  0  0  0  0  0  0  0  0  0  0  0
   -3.6840   -0.2950   -0.0241 C   0  0  0  0  0  0  0  0  0  0  0  0
   -4.4687   -0.1103    1.0376 N   0  0  0  0  0  0  0  0  0  0  0  0
   -5.6591   -0.6087    0.7788 N   0  0  0  0  0  0  0  0  0  0  0  0
   -5.6043   -1.0848   -0.4055 N   0  0  0  0  0  0  0  0  0  0  0  0
   -4.3977   -0.9098   -0.9365 N   0  0  0  0  0  0  0  0  0  0  0  0
   -1.8017    0.7016    0.9844 N   0  0  0  0  0  0  0  0  0  0  0  0
   -0.5438    1.1010    0.9744 C   0  0  0  0  0  0  0  0  0  0  0  0
    5.1092   -0.4617    0.8436 H   0  0  0  0  0  0  0  0  0  0  0  0
    4.9215   -3.7276   -0.0893 H   0  0  0  0  0  0  0  0  0  0  0  0
    3.0132   -0.7648   -1.4086 H   0  0  0  0  0  0  0  0  0  0  0  0
    0.3642    0.2206   -2.1734 H   0  0  0  0  0  0  0  0  0  0  0  0
   -1.9980   -0.5423   -2.1365 H   0  0  0  0  0  0  0  0  0  0  0  0
   -4.2579    0.3324    1.9226 H   0  0  0  0  0  0  0  0  0  0  0  0
   -0.1762    1.5697    1.8790 H   0  0  0  0  0  0  0  0  0  0  0  0
    1.9464   -1.6249   -0.3085 H   0  0  0  0  0  0  0  0  0  0  0  0
    2.6747   -0.0052    1.4416 H   0  0  0  0  0  0  0  0  0  0  0  0
 15 14  1  0
 15 16  2  0
 14 13  1  0
 16 17  1  0
 13 17  2  0
 13 12  1  0
 11 12  2  0
 11 10  1  0
 12 18  1  0
 10  9  2  0
 18 19  2  0
  9 19  1  0
  9  6  1  0
  8  6  2  0
  6  7  2  0
  6  5  1  1
  4  5  1  0
  4  1  1  0
  1  3  1  0
  1  2  1  0
  2 20  1  0
  3 21  1  0
  4 22  1  0
 10 23  1  0
 11 24  1  0
 14 25  1  0
 19 26  1  0
  4 27  1  0
  5 28  1  0
M  END
