
     RDKit          3D

 45 45  0  0  0  0  0  0  0  0999 V2000
   -0.6295    4.6155   -2.8925 O   0  0  0  0  0  0  0  0  0  0  0  0
    0.4647    4.2275   -3.1278 C   0  0  0  0  0  0  0  0  0  0  0  0
    1.3539    4.9956   -4.1035 C   0  0  0  0  0  0  0  0  0  0  0  0
    0.7312    6.2006   -4.4532 O   0  0  0  0  0  0  0  0  0  0  0  0
    0.9956    2.9748   -2.4354 C   0  0  1  0  0  0  0  0  0  0  0  0
    2.1398    3.2994   -1.6967 O   0  0  0  0  0  0  0  0  0  0  0  0
   -0.0741    2.4190   -1.4987 C   0  0  2  0  0  0  0  0  0  0  0  0
   -0.1076    3.1807   -0.3242 O   0  0  0  0  0  0  0  0  0  0  0  0
    0.2543    0.9685   -1.1553 C   0  0  2  0  0  0  0  0  0  0  0  0
   -0.3392    0.1200   -2.0976 O   0  0  0  0  0  0  0  0  0  0  0  0
   -0.2839    0.6404    0.2354 C   0  0  0  0  0  0  0  0  0  0  0  0
   -0.0549   -0.7117    0.5172 O   0  0  0  0  0  0  0  0  0  0  0  0
    0.1187   -0.9789    1.8479 C   0  0  1  0  0  0  0  0  0  0  0  0
   -1.1868   -1.3448    2.4370 O   0  0  0  0  0  0  0  0  0  0  0  0
   -1.6893   -2.6346    1.9204 C   0  0  1  0  0  0  0  0  0  0  0  0
   -0.6590   -3.7564    2.0707 C   0  0  1  0  0  0  0  0  0  0  0  0
   -1.1544   -4.9333    1.4100 O   0  0  0  0  0  0  0  0  0  0  0  0
    0.6509   -3.3917    1.4803 C   0  0  2  0  0  0  0  0  0  0  0  0
    1.6224   -4.4382    1.8039 O   0  0  0  0  0  0  0  0  0  0  0  0
    1.1526   -2.0977    1.9981 C   0  0  1  0  0  0  0  0  0  0  0  0
    2.3385   -1.7347    1.2700 O   0  0  0  0  0  0  0  0  0  0  0  0
   -2.9251   -3.0086    2.6722 C   0  0  0  0  0  0  0  0  0  0  0  0
   -3.8090   -1.9224    2.6874 O   0  0  0  0  0  0  0  0  0  0  0  0
    1.5126    4.3985   -4.9951 H   0  0  0  0  0  0  0  0  0  0  0  0
    2.3091    5.2052   -3.6339 H   0  0  0  0  0  0  0  0  0  0  0  0
    1.3326    6.7332   -4.9499 H   0  0  0  0  0  0  0  0  0  0  0  0
    1.2462    2.2291   -3.1803 H   0  0  0  0  0  0  0  0  0  0  0  0
    2.8990    3.2554   -2.2567 H   0  0  0  0  0  0  0  0  0  0  0  0
   -1.0403    2.4647   -1.9865 H   0  0  0  0  0  0  0  0  0  0  0  0
   -0.9063    3.6841   -0.2982 H   0  0  0  0  0  0  0  0  0  0  0  0
    1.3284    0.8285   -1.1691 H   0  0  0  0  0  0  0  0  0  0  0  0
    0.3251   -0.2241   -2.6739 H   0  0  0  0  0  0  0  0  0  0  0  0
    0.2219    1.2541    0.9729 H   0  0  0  0  0  0  0  0  0  0  0  0
   -1.3496    0.8410    0.2674 H   0  0  0  0  0  0  0  0  0  0  0  0
    0.4898   -0.0907    2.3445 H   0  0  0  0  0  0  0  0  0  0  0  0
   -1.9315   -2.5205    0.8706 H   0  0  0  0  0  0  0  0  0  0  0  0
   -0.5222   -3.9684    3.1241 H   0  0  0  0  0  0  0  0  0  0  0  0
   -0.9488   -5.6953    1.9283 H   0  0  0  0  0  0  0  0  0  0  0  0
    0.5443   -3.3222    0.4044 H   0  0  0  0  0  0  0  0  0  0  0  0
    1.7487   -4.4721    2.7388 H   0  0  0  0  0  0  0  0  0  0  0  0
    1.3975   -2.2107    3.0473 H   0  0  0  0  0  0  0  0  0  0  0  0
    3.0879   -1.7882    1.8422 H   0  0  0  0  0  0  0  0  0  0  0  0
   -2.6621   -3.2751    3.6903 H   0  0  0  0  0  0  0  0  0  0  0  0
   -3.4006   -3.8550    2.1882 H   0  0  0  0  0  0  0  0  0  0  0  0
   -4.5918   -2.1601    3.1590 H   0  0  0  0  0  0  0  0  0  0  0  0
  4  3  1  0
  3  2  1  0
  2  5  1  0
  2  1  2  0
  6  5  1  0
  5  7  1  0
 10  9  1  0
  7  8  1  0
  7  9  1  0
  9 11  1  0
 11 12  1  0
 12 13  1  0
 19 18  1  0
 21 20  1  0
 18 20  1  0
 18 16  1  0
 17 16  1  0
 20 13  1  0
 16 15  1  0
 13 14  1  0
 15 14  1  0
 15 22  1  0
 22 23  1  0
  3 24  1  0
  3 25  1  0
  4 26  1  0
  5 27  1  6
  6 28  1  0
  7 29  1  6
  8 30  1  0
  9 31  1  1
 10 32  1  0
 11 33  1  0
 11 34  1  0
 13 35  1  1
 15 36  1  6
 16 37  1  1
 17 38  1  0
 18 39  1  6
 19 40  1  0
 20 41  1  1
 21 42  1  0
 22 43  1  0
 22 44  1  0
 23 45  1  0
M  END
