
     RDKit          3D

 26 25  0  0  0  0  0  0  0  0999 V2000
   -0.1919    0.3543   -0.3906 C   0  0  1  0  0  0  0  0  0  0  0  0
    0.8812   -0.4141    0.3697 C   0  0  0  0  0  0  0  0  0  0  0  0
    2.3082   -0.1393   -0.0270 N   0  0  1  0  0  0  0  0  0  0  0  0
   -1.8413   -0.1998    0.2114 P   0  0  1  0  0  0  0  0  0  0  0  0
    2.4955   -0.2614   -1.4987 C   0  0  0  0  0  0  0  0  0  0  0  0
    2.7682    1.2067    0.4264 C   0  0  0  0  0  0  0  0  0  0  0  0
    3.1507   -1.1683    0.6519 C   0  0  0  0  0  0  0  0  0  0  0  0
   -2.0820    0.1754    1.6230 O   0  0  0  0  0  0  0  0  0  0  0  0
   -2.7889    0.4525   -0.8962 O   0  0  0  0  0  0  0  0  0  0  0  0
   -1.9103   -1.7895    0.0291 O   0  0  0  0  0  0  0  0  0  0  0  0
   -0.1249    1.7491   -0.2719 O   0  0  0  0  0  0  0  0  0  0  0  0
   -0.1286    0.1239   -1.4570 H   0  0  0  0  0  0  0  0  0  0  0  0
    0.8180   -0.2264    1.4428 H   0  0  0  0  0  0  0  0  0  0  0  0
    0.7285   -1.4810    0.2116 H   0  0  0  0  0  0  0  0  0  0  0  0
    3.5566   -0.1905   -1.7211 H   0  0  0  0  0  0  0  0  0  0  0  0
    2.1182   -1.2251   -1.8318 H   0  0  0  0  0  0  0  0  0  0  0  0
    1.9736    0.5433   -2.0079 H   0  0  0  0  0  0  0  0  0  0  0  0
    2.5846    1.3010    1.4933 H   0  0  0  0  0  0  0  0  0  0  0  0
    3.8345    1.2861    0.2339 H   0  0  0  0  0  0  0  0  0  0  0  0
    2.2409    1.9829   -0.1139 H   0  0  0  0  0  0  0  0  0  0  0  0
    3.0068   -1.0912    1.7261 H   0  0  0  0  0  0  0  0  0  0  0  0
    2.8589   -2.1564    0.3078 H   0  0  0  0  0  0  0  0  0  0  0  0
    4.1936   -0.9859    0.4089 H   0  0  0  0  0  0  0  0  0  0  0  0
   -3.7158    0.5421   -0.6319 H   0  0  0  0  0  0  0  0  0  0  0  0
   -1.9486   -2.1181   -0.8792 H   0  0  0  0  0  0  0  0  0  0  0  0
   -0.2388    2.0072    0.6513 H   0  0  0  0  0  0  0  0  0  0  0  0
  3  7  1  1
  5  3  1  0
  3  6  1  0
  3  2  1  0
  2  1  1  0
  1 11  1  0
  1  4  1  0
  8  4  2  0
  4  9  1  6
  4 10  1  0
  1 12  1  6
  2 13  1  0
  2 14  1  0
  5 15  1  0
  5 16  1  0
  5 17  1  0
  6 18  1  0
  6 19  1  0
  6 20  1  0
  7 21  1  0
  7 22  1  0
  7 23  1  0
  9 24  1  0
 10 25  1  0
 11 26  1  0
M  CHG  1   3   1
M  END
