
     RDKit          3D

 35 36  0  0  0  0  0  0  0  0999 V2000
   -5.4093    0.9403   -1.2152 C   0  0  0  0  0  0  0  0  0  0  0  0
    0.7113   -0.7013    0.5407 N   0  0  0  0  0  0  0  0  0  0  0  0
   -4.1374    0.5535   -0.5188 C   0  0  0  0  0  0  0  0  0  0  0  0
    5.1122    0.8939   -0.4091 N   0  0  0  0  0  0  0  0  0  0  0  0
    3.7467    2.0325    0.9710 O   0  0  0  0  0  0  0  0  0  0  0  0
   -3.9579   -0.7281   -0.0068 C   0  0  0  0  0  0  0  0  0  0  0  0
   -2.7630   -1.0785    0.5994 C   0  0  0  0  0  0  0  0  0  0  0  0
   -1.7162   -0.1707    0.7233 C   0  0  0  0  0  0  0  0  0  0  0  0
   -1.8850    1.1290    0.2298 C   0  0  0  0  0  0  0  0  0  0  0  0
   -3.0920    1.4611   -0.3822 C   0  0  0  0  0  0  0  0  0  0  0  0
   -0.8123    2.1744    0.3379 C   0  0  0  0  0  0  0  0  0  0  0  0
   -0.4556   -0.6026    1.4266 C   0  0  0  0  0  0  0  0  0  0  0  0
    1.7465    0.1425    0.7042 C   0  0  0  0  0  0  0  0  0  0  0  0
    2.8641    0.1059   -0.0770 C   0  0  0  0  0  0  0  0  0  0  0  0
    2.8970   -0.8687   -1.1085 C   0  0  0  0  0  0  0  0  0  0  0  0
    1.8689   -1.7352   -1.2744 C   0  0  0  0  0  0  0  0  0  0  0  0
    0.7125   -1.7188   -0.4188 C   0  0  0  0  0  0  0  0  0  0  0  0
    3.9379    1.0912    0.2100 C   0  0  0  0  0  0  0  0  0  0  0  0
   -5.3603    0.6952   -2.2783 H   0  0  0  0  0  0  0  0  0  0  0  0
   -6.2689    0.4125   -0.8028 H   0  0  0  0  0  0  0  0  0  0  0  0
   -5.5993    2.0105   -1.1393 H   0  0  0  0  0  0  0  0  0  0  0  0
    5.8803    1.5161   -0.2170 H   0  0  0  0  0  0  0  0  0  0  0  0
    5.3268    0.0639   -0.9324 H   0  0  0  0  0  0  0  0  0  0  0  0
   -4.7546   -1.4583   -0.0834 H   0  0  0  0  0  0  0  0  0  0  0  0
   -2.6407   -2.0812    0.9891 H   0  0  0  0  0  0  0  0  0  0  0  0
   -3.2202    2.4709   -0.7581 H   0  0  0  0  0  0  0  0  0  0  0  0
    0.0037    1.9920   -0.3644 H   0  0  0  0  0  0  0  0  0  0  0  0
   -1.2112    3.1630    0.1154 H   0  0  0  0  0  0  0  0  0  0  0  0
   -0.3776    2.2190    1.3377 H   0  0  0  0  0  0  0  0  0  0  0  0
   -0.6076   -1.5712    1.9018 H   0  0  0  0  0  0  0  0  0  0  0  0
   -0.1873    0.0974    2.2179 H   0  0  0  0  0  0  0  0  0  0  0  0
    1.6502    0.8589    1.5073 H   0  0  0  0  0  0  0  0  0  0  0  0
    3.7363   -0.9320   -1.7892 H   0  0  0  0  0  0  0  0  0  0  0  0
    1.8904   -2.4820   -2.0558 H   0  0  0  0  0  0  0  0  0  0  0  0
   -0.2172   -2.5106   -0.4787 O   0  0  0  0  0  0  0  0  0  0  0  0
  3  1  1  0
  1 19  1  0
  1 20  1  0
  1 21  1  0
 13  2  1  0
 17  2  1  0
  2 12  1  0
 17 35  2  0
  6  3  2  0
  3 10  1  0
  4 18  1  0
  4 22  1  0
  4 23  1  0
 18  5  2  0
  7  6  1  0
  6 24  1  0
  7  8  2  0
  7 25  1  0
 12  8  1  0
  8  9  1  0
  9 10  2  0
  9 11  1  0
 10 26  1  0
 11 27  1  0
 11 28  1  0
 11 29  1  0
 12 30  1  0
 12 31  1  0
 14 13  2  0
 13 32  1  0
 18 14  1  0
 15 14  1  0
 15 16  2  0
 15 33  1  0
 16 17  1  0
 16 34  1  0
M  END
