
     RDKit          3D

 48 52  0  0  0  0  0  0  0  0999 V2000
   -3.4311    2.6292   -0.1386 C   0  0  0  0  0  0  0  0  0  0  0  0
   -3.5646   -1.5298   -0.3597 C   0  0  0  0  0  0  0  0  0  0  0  0
   -4.9229   -1.5516   -0.5157 C   0  0  0  0  0  0  0  0  0  0  0  0
   -5.4092   -0.2810   -0.4900 N   0  0  0  0  0  0  0  0  0  0  0  0
   -0.0962    1.6274    0.1389 C   0  0  0  0  0  0  0  0  0  0  0  0
    1.3335    1.8420    0.2483 C   0  0  0  0  0  0  0  0  0  0  0  0
   -0.6950    0.3893    0.0719 N   0  0  0  0  0  0  0  0  0  0  0  0
    2.0480    2.7580    0.9493 C   0  0  0  0  0  0  0  0  0  0  0  0
    3.4143    2.5303    0.6183 C   0  0  0  0  0  0  0  0  0  0  0  0
    3.4307    1.5009   -0.2654 C   0  0  0  0  0  0  0  0  0  0  0  0
    4.5250    0.7979   -0.9765 C   0  0  0  0  0  0  0  0  0  0  0  0
   -0.9447    2.6149    0.0851 N   0  0  0  0  0  0  0  0  0  0  0  0
    4.5434   -0.7056   -0.6570 C   0  0  0  0  0  0  0  0  0  0  0  0
    5.6430   -1.3778   -1.3300 C   0  0  0  0  0  0  0  0  0  0  0  0
   -0.0371   -0.8927    0.3219 C   0  0  2  0  0  0  0  0  0  0  0  0
    6.5178   -1.8972   -1.8669 N   0  0  0  0  0  0  0  0  0  0  0  0
    2.1688    1.0815   -0.4984 O   0  0  0  0  0  0  0  0  0  0  0  0
   -2.1716    2.0219   -0.0321 C   0  0  0  0  0  0  0  0  0  0  0  0
   -4.5312    1.9227   -0.2785 N   0  0  0  0  0  0  0  0  0  0  0  0
   -2.0372    0.6259   -0.0615 C   0  0  0  0  0  0  0  0  0  0  0  0
   -3.1895   -0.1599   -0.2284 C   0  0  0  0  0  0  0  0  0  0  0  0
   -4.3817    0.5970   -0.3225 C   0  0  0  0  0  0  0  0  0  0  0  0
    0.0089   -1.7714   -0.9243 C   0  0  0  0  0  0  0  0  0  0  0  0
    0.7525   -3.0714   -0.6312 C   0  0  0  0  0  0  0  0  0  0  0  0
    0.1569   -3.7991    0.5695 C   0  0  0  0  0  0  0  0  0  0  0  0
    0.1326   -2.9008    1.8019 C   0  0  0  0  0  0  0  0  0  0  0  0
   -0.6295   -1.6063    1.5354 C   0  0  0  0  0  0  0  0  0  0  0  0
   -3.5230    3.7096   -0.1079 H   0  0  0  0  0  0  0  0  0  0  0  0
   -2.9276   -2.3977   -0.3542 H   0  0  0  0  0  0  0  0  0  0  0  0
   -5.5832   -2.3927   -0.6482 H   0  0  0  0  0  0  0  0  0  0  0  0
   -6.3782   -0.0227   -0.5829 H   0  0  0  0  0  0  0  0  0  0  0  0
    1.6480    3.4930    1.6286 H   0  0  0  0  0  0  0  0  0  0  0  0
    4.2748    3.0617    0.9912 H   0  0  0  0  0  0  0  0  0  0  0  0
    4.4297    0.9367   -2.0564 H   0  0  0  0  0  0  0  0  0  0  0  0
    5.4696    1.2512   -0.6770 H   0  0  0  0  0  0  0  0  0  0  0  0
    4.6466   -0.8737    0.4162 H   0  0  0  0  0  0  0  0  0  0  0  0
    3.6160   -1.1845   -0.9761 H   0  0  0  0  0  0  0  0  0  0  0  0
    0.9921   -0.6540    0.5885 H   0  0  0  0  0  0  0  0  0  0  0  0
   -1.0032   -2.0022   -1.2671 H   0  0  0  0  0  0  0  0  0  0  0  0
    0.4966   -1.2236   -1.7337 H   0  0  0  0  0  0  0  0  0  0  0  0
    0.7331   -3.7114   -1.5153 H   0  0  0  0  0  0  0  0  0  0  0  0
    1.8083   -2.8536   -0.4333 H   0  0  0  0  0  0  0  0  0  0  0  0
   -0.8631   -4.1206    0.3314 H   0  0  0  0  0  0  0  0  0  0  0  0
    0.7252   -4.7080    0.7790 H   0  0  0  0  0  0  0  0  0  0  0  0
   -0.3210   -3.4228    2.6467 H   0  0  0  0  0  0  0  0  0  0  0  0
    1.1598   -2.6641    2.0990 H   0  0  0  0  0  0  0  0  0  0  0  0
   -0.5739   -0.9443    2.4027 H   0  0  0  0  0  0  0  0  0  0  0  0
   -1.6860   -1.8348    1.3828 H   0  0  0  0  0  0  0  0  0  0  0  0
 13 14  1  0
 13 11  1  0
 14 16  3  0
  9 10  2  0
  9  8  1  0
 11 10  1  0
 10 17  1  0
  8  6  2  0
 17  6  1  0
  6  5  1  0
 24 23  1  0
 24 25  1  0
 23 15  1  0
  5 12  2  0
  5  7  1  0
 25 26  1  0
 15  7  1  0
 15 27  1  0
 12 18  1  0
  7 20  1  0
 26 27  1  0
 18 20  1  0
 18  1  2  0
 20 21  2  0
  1 19  1  0
 21  2  1  0
 21 22  1  0
  2  3  2  0
 19 22  2  0
 22  4  1  0
  3  4  1  0
  1 28  1  0
  2 29  1  0
  3 30  1  0
  4 31  1  0
  8 32  1  0
  9 33  1  0
 11 34  1  0
 11 35  1  0
 13 36  1  0
 13 37  1  0
 15 38  1  1
 23 39  1  0
 23 40  1  0
 24 41  1  0
 24 42  1  0
 25 43  1  0
 25 44  1  0
 26 45  1  0
 26 46  1  0
 27 47  1  0
 27 48  1  0
M  END
