
     RDKit          3D

 85 89  0  0  0  0  0  0  0  0999 V2000
   -9.4197    2.5840   -1.2258 C   0  0  0  0  0  0  0  0  0  0  0  0
  -10.3668    3.5956   -1.1671 C   0  0  0  0  0  0  0  0  0  0  0  0
  -11.2870    3.6320   -0.1278 C   0  0  0  0  0  0  0  0  0  0  0  0
  -11.2540    2.6470    0.8507 C   0  0  0  0  0  0  0  0  0  0  0  0
  -10.3088    1.6336    0.7899 C   0  0  0  0  0  0  0  0  0  0  0  0
   -9.3765    1.5886   -0.2485 C   0  0  0  0  0  0  0  0  0  0  0  0
   -8.3667    0.5143   -0.3118 C   0  0  0  0  0  0  0  0  0  0  0  0
   -8.6835   -0.7935    0.0654 C   0  0  0  0  0  0  0  0  0  0  0  0
   -7.7413   -1.8026   -0.0100 C   0  0  0  0  0  0  0  0  0  0  0  0
   -7.0706    0.7776   -0.7558 C   0  0  0  0  0  0  0  0  0  0  0  0
   -6.1181   -0.2263   -0.8074 C   0  0  0  0  0  0  0  0  0  0  0  0
   -6.4409   -1.5294   -0.4330 C   0  0  0  0  0  0  0  0  0  0  0  0
   -5.4648   -2.6459   -0.5552 C   0  0  0  0  0  0  0  0  0  0  0  0
   -5.8506   -3.7573   -0.8707 O   0  0  0  0  0  0  0  0  0  0  0  0
   -4.0331   -2.3799   -0.3018 C   0  0  0  0  0  0  0  0  0  0  0  0
   -3.6060   -1.4008    0.5998 C   0  0  0  0  0  0  0  0  0  0  0  0
   -2.2678   -1.1820    0.8741 C   0  0  0  0  0  0  0  0  0  0  0  0
   -1.8501   -0.1071    1.8379 C   0  0  0  0  0  0  0  0  0  0  0  0
   -1.5459    1.2212    1.1412 C   0  0  0  0  0  0  0  0  0  0  0  0
   -1.1009    2.2968    2.1215 C   0  0  0  0  0  0  0  0  0  0  0  0
   -3.0705   -3.1650   -0.9301 C   0  0  0  0  0  0  0  0  0  0  0  0
   -1.7233   -2.9523   -0.6997 C   0  0  0  0  0  0  0  0  0  0  0  0
   -1.3151   -1.9616    0.1950 C   0  0  0  0  0  0  0  0  0  0  0  0
   -0.0331   -1.6919    0.4693 O   0  0  0  0  0  0  0  0  0  0  0  0
    0.9983   -2.4324   -0.1666 C   0  0  0  0  0  0  0  0  0  0  0  0
    2.3229   -1.9134    0.3481 C   0  0  0  0  0  0  0  0  0  0  0  0
    3.4949   -2.6640   -0.2865 C   0  0  0  0  0  0  0  0  0  0  0  0
    4.7912   -2.1968    0.1506 N   0  0  0  0  0  0  0  0  0  0  0  0
    5.2292   -2.6932    1.4401 C   0  0  0  0  0  0  0  0  0  0  0  0
    6.7246   -2.5184    1.5909 C   0  0  0  0  0  0  0  0  0  0  0  0
    7.0831   -1.0464    1.4904 C   0  0  0  0  0  0  0  0  0  0  0  0
    6.4052   -0.3945    0.3123 C   0  0  0  0  0  0  0  0  0  0  0  0
    5.2884   -0.9912   -0.3070 C   0  0  0  0  0  0  0  0  0  0  0  0
    4.7060   -0.3427   -1.4114 C   0  0  0  0  0  0  0  0  0  0  0  0
    5.2299    0.8450   -1.8795 C   0  0  0  0  0  0  0  0  0  0  0  0
    6.3232    1.4496   -1.2779 C   0  0  0  0  0  0  0  0  0  0  0  0
    6.8957    0.8234   -0.1749 C   0  0  0  0  0  0  0  0  0  0  0  0
    7.9532    1.3038    0.5224 O   0  0  0  0  0  0  0  0  0  0  0  0
    8.5471    2.5641    0.2824 C   0  0  1  0  0  0  0  0  0  0  0  0
    7.5966    3.7226    0.5788 C   0  0  0  0  0  0  0  0  0  0  0  0
    9.7277    2.6198    1.2573 C   0  0  0  0  0  0  0  0  0  0  0  0
    9.1586    2.5744   -1.1209 C   0  0  0  0  0  0  0  0  0  0  0  0
    9.5399    1.5832   -1.6857 O   0  0  0  0  0  0  0  0  0  0  0  0
    9.2851    3.7991   -1.6058 O   0  0  0  0  0  0  0  0  0  0  0  0
   -8.7231    2.5601   -2.0546 H   0  0  0  0  0  0  0  0  0  0  0  0
  -10.3888    4.3532   -1.9393 H   0  0  0  0  0  0  0  0  0  0  0  0
  -12.0247    4.4222   -0.0806 H   0  0  0  0  0  0  0  0  0  0  0  0
  -11.9615    2.6700    1.6691 H   0  0  0  0  0  0  0  0  0  0  0  0
  -10.2843    0.8851    1.5720 H   0  0  0  0  0  0  0  0  0  0  0  0
   -9.6861   -1.0328    0.3963 H   0  0  0  0  0  0  0  0  0  0  0  0
   -8.0179   -2.8106    0.2704 H   0  0  0  0  0  0  0  0  0  0  0  0
   -6.7902    1.7819   -1.0461 H   0  0  0  0  0  0  0  0  0  0  0  0
   -5.1236    0.0126   -1.1608 H   0  0  0  0  0  0  0  0  0  0  0  0
   -4.3366   -0.8043    1.1336 H   0  0  0  0  0  0  0  0  0  0  0  0
   -2.6531    0.0497    2.5627 H   0  0  0  0  0  0  0  0  0  0  0  0
   -0.9767   -0.4250    2.4109 H   0  0  0  0  0  0  0  0  0  0  0  0
   -0.7741    1.0704    0.3826 H   0  0  0  0  0  0  0  0  0  0  0  0
   -2.4410    1.5547    0.6088 H   0  0  0  0  0  0  0  0  0  0  0  0
   -0.1723    2.0162    2.6219 H   0  0  0  0  0  0  0  0  0  0  0  0
   -0.9298    3.2475    1.6158 H   0  0  0  0  0  0  0  0  0  0  0  0
   -1.8542    2.4638    2.8939 H   0  0  0  0  0  0  0  0  0  0  0  0
   -3.3685   -3.9408   -1.6234 H   0  0  0  0  0  0  0  0  0  0  0  0
   -1.0022   -3.5644   -1.2237 H   0  0  0  0  0  0  0  0  0  0  0  0
    0.8918   -3.5003    0.0546 H   0  0  0  0  0  0  0  0  0  0  0  0
    0.9350   -2.3119   -1.2541 H   0  0  0  0  0  0  0  0  0  0  0  0
    2.4065   -0.8454    0.1311 H   0  0  0  0  0  0  0  0  0  0  0  0
    2.3625   -2.0275    1.4346 H   0  0  0  0  0  0  0  0  0  0  0  0
    3.4282   -3.7246   -0.0340 H   0  0  0  0  0  0  0  0  0  0  0  0
    3.4292   -2.6205   -1.3760 H   0  0  0  0  0  0  0  0  0  0  0  0
    4.7139   -2.1850    2.2680 H   0  0  0  0  0  0  0  0  0  0  0  0
    4.9620   -3.7495    1.5020 H   0  0  0  0  0  0  0  0  0  0  0  0
    7.0472   -2.9228    2.5513 H   0  0  0  0  0  0  0  0  0  0  0  0
    7.2350   -3.0905    0.8119 H   0  0  0  0  0  0  0  0  0  0  0  0
    6.7902   -0.5397    2.4164 H   0  0  0  0  0  0  0  0  0  0  0  0
    8.1657   -0.9341    1.4179 H   0  0  0  0  0  0  0  0  0  0  0  0
    3.8419   -0.7535   -1.9127 H   0  0  0  0  0  0  0  0  0  0  0  0
    4.7670    1.3247   -2.7325 H   0  0  0  0  0  0  0  0  0  0  0  0
    6.6830    2.3859   -1.6770 H   0  0  0  0  0  0  0  0  0  0  0  0
    7.1668    3.5762    1.5700 H   0  0  0  0  0  0  0  0  0  0  0  0
    8.1397    4.6656    0.5957 H   0  0  0  0  0  0  0  0  0  0  0  0
    6.7786    3.8205   -0.1314 H   0  0  0  0  0  0  0  0  0  0  0  0
   10.3937    1.7682    1.1206 H   0  0  0  0  0  0  0  0  0  0  0  0
   10.3032    3.5343    1.1204 H   0  0  0  0  0  0  0  0  0  0  0  0
    9.3539    2.6071    2.2813 H   0  0  0  0  0  0  0  0  0  0  0  0
    9.7428    3.7740   -2.4605 H   0  0  0  0  0  0  0  0  0  0  0  0
  6  1  2  0
  1  2  1  0
  1 45  1  0
  2  3  2  0
  2 46  1  0
  4  3  1  0
  3 47  1  0
  5  4  2  0
  4 48  1  0
  6  5  1  0
  5 49  1  0
  7  6  1  0
  8  7  2  0
 10  7  1  0
  9  8  1  0
  8 50  1  0
 12  9  2  0
  9 51  1  0
 11 10  2  0
 10 52  1  0
 12 11  1  0
 11 53  1  0
 13 12  1  0
 15 13  1  0
 14 13  2  0
 16 15  2  0
 15 21  1  0
 17 16  1  0
 16 54  1  0
 18 17  1  0
 17 23  2  0
 19 18  1  0
 18 55  1  0
 18 56  1  0
 20 19  1  0
 19 57  1  0
 19 58  1  0
 20 59  1  0
 20 60  1  0
 20 61  1  0
 22 21  2  0
 21 62  1  0
 23 22  1  0
 22 63  1  0
 24 23  1  0
 24 25  1  0
 26 25  1  0
 25 64  1  0
 25 65  1  0
 27 26  1  0
 26 66  1  0
 26 67  1  0
 28 27  1  0
 27 68  1  0
 27 69  1  0
 33 28  1  0
 28 29  1  0
 29 30  1  0
 29 70  1  0
 29 71  1  0
 31 30  1  0
 30 72  1  0
 30 73  1  0
 32 31  1  0
 31 74  1  0
 31 75  1  0
 37 32  2  0
 32 33  1  0
 34 33  2  0
 35 34  1  0
 34 76  1  0
 36 35  2  0
 35 77  1  0
 36 37  1  0
 36 78  1  0
 37 38  1  0
 39 38  1  1
 42 39  1  0
 39 40  1  0
 39 41  1  0
 40 79  1  0
 40 80  1  0
 40 81  1  0
 41 82  1  0
 41 83  1  0
 41 84  1  0
 43 42  2  0
 44 42  1  0
 44 85  1  0
M  END
