
     RDKit          3D

 24 24  0  0  0  0  0  0  0  0999 V2000
   -3.7382    1.1895    0.8880 C   0  0  0  0  0  0  0  0  0  0  0  0
   -4.6434    0.1056    0.2922 C   0  0  0  0  0  0  0  0  0  0  0  0
   -1.4626   -0.7546   -1.0494 N   0  0  0  0  0  0  0  0  0  0  0  0
   -2.4998    0.9802    0.1453 N   0  0  0  0  0  0  0  0  0  0  0  0
   -3.6636   -0.8295   -0.2520 N   0  0  0  0  0  0  0  0  0  0  0  0
    4.5139    0.8573    0.4626 Cl  0  0  0  0  0  0  0  0  0  0  0  0
    2.9319    0.0881    0.8331 C   0  0  0  0  0  0  0  0  0  0  0  0
    2.0295    0.1795   -0.3789 C   0  0  0  0  0  0  0  0  0  0  0  0
    0.6841   -0.4479   -0.1131 C   0  0  0  0  0  0  0  0  0  0  0  0
    0.4347   -1.1632    0.8304 O   0  0  0  0  0  0  0  0  0  0  0  0
   -0.2608   -0.1216   -1.0486 N   0  0  0  0  0  0  0  0  0  0  0  0
   -2.4967   -0.2217   -0.4044 C   0  0  0  0  0  0  0  0  0  0  0  0
   -4.1255    2.1918    0.7258 H   0  0  0  0  0  0  0  0  0  0  0  0
   -3.5699    1.0410    1.9555 H   0  0  0  0  0  0  0  0  0  0  0  0
   -5.2686   -0.3749    1.0400 H   0  0  0  0  0  0  0  0  0  0  0  0
   -5.2783    0.4975   -0.5040 H   0  0  0  0  0  0  0  0  0  0  0  0
   -1.6606    1.5124    0.3136 H   0  0  0  0  0  0  0  0  0  0  0  0
    3.1383   -0.9411    1.1126 H   0  0  0  0  0  0  0  0  0  0  0  0
    2.5171    0.6133    1.6896 H   0  0  0  0  0  0  0  0  0  0  0  0
    1.8993    1.2211   -0.6801 H   0  0  0  0  0  0  0  0  0  0  0  0
    2.4834   -0.3379   -1.2289 H   0  0  0  0  0  0  0  0  0  0  0  0
   -0.0096    0.3630   -1.8989 H   0  0  0  0  0  0  0  0  0  0  0  0
   -1.5210   -1.6921   -1.4237 H   0  0  0  0  0  0  0  0  0  0  0  0
   -3.9300   -1.6400   -0.7890 H   0  0  0  0  0  0  0  0  0  0  0  0
  6  7  1  0
  8  7  1  0
  8  9  1  0
 11  9  1  0
 11  3  1  0
  5  2  1  0
  5 12  2  0
  9 10  2  0
  3 12  1  0
  2  1  1  0
 12  4  1  0
  4  1  1  0
  1 13  1  0
  1 14  1  0
  2 15  1  0
  2 16  1  0
  4 17  1  0
  7 18  1  0
  7 19  1  0
  8 20  1  0
  8 21  1  0
 11 22  1  0
  3 23  1  0
  5 24  1  0
M  CHG  1   5   1
M  END
