
     RDKit          3D

 49 49  0  0  0  0  0  0  0  0999 V2000
    1.3936   -0.1709    0.3346 C   0  0  0  0  0  0  0  0  0  0  0  0
    1.5415    2.1233    1.8538 C   0  0  0  0  0  0  0  0  0  0  0  0
    0.2362    0.5729    0.5701 C   0  0  0  0  0  0  0  0  0  0  0  0
   -2.1242    0.7543    0.2873 C   0  0  0  0  0  0  0  0  0  0  0  0
   -4.4116   -3.7306    0.3737 C   0  0  0  0  0  0  0  0  0  0  0  0
   -4.2418   -2.4239   -0.3892 C   0  0  0  0  0  0  0  0  0  0  0  0
    4.7987   -0.5765    1.5756 O   0  0  0  0  0  0  0  0  0  0  0  0
    3.8502   -0.5970    0.5328 C   0  0  2  0  0  0  0  0  0  0  0  0
    4.4447   -0.1613   -0.8063 C   0  0  0  0  0  0  0  0  0  0  0  0
    5.6011   -1.0342   -1.2729 C   0  0  0  0  0  0  0  0  0  0  0  0
    6.0762   -0.5887   -2.5764 N   0  0  0  0  0  0  0  0  0  0  0  0
    2.6173    0.2243    0.8524 C   0  0  0  0  0  0  0  0  0  0  0  0
    2.6895    1.3831    1.6233 C   0  0  0  0  0  0  0  0  0  0  0  0
    0.3113    1.7340    1.3364 C   0  0  0  0  0  0  0  0  0  0  0  0
   -0.8975    0.0912    0.0271 O   0  0  0  0  0  0  0  0  0  0  0  0
   -3.2593   -0.0543   -0.3232 C   0  0  1  0  0  0  0  0  0  0  0  0
   -3.4172   -1.4030    0.3861 C   0  0  0  0  0  0  0  0  0  0  0  0
   -4.5522    0.7681   -0.2667 C   0  0  0  0  0  0  0  0  0  0  0  0
   -4.6515    1.8789   -1.3071 C   0  0  0  0  0  0  0  0  0  0  0  0
   -5.9399    2.6790   -1.1745 C   0  0  0  0  0  0  0  0  0  0  0  0
    1.3230   -1.0767   -0.2591 H   0  0  0  0  0  0  0  0  0  0  0  0
    1.5950    3.0234    2.4531 H   0  0  0  0  0  0  0  0  0  0  0  0
   -2.2821    0.8525    1.3692 H   0  0  0  0  0  0  0  0  0  0  0  0
   -2.0948    1.7660   -0.1326 H   0  0  0  0  0  0  0  0  0  0  0  0
   -4.9958   -4.4548   -0.1951 H   0  0  0  0  0  0  0  0  0  0  0  0
   -3.4451   -4.1869    0.5964 H   0  0  0  0  0  0  0  0  0  0  0  0
   -4.9227   -3.5669    1.3244 H   0  0  0  0  0  0  0  0  0  0  0  0
   -3.7554   -2.6205   -1.3496 H   0  0  0  0  0  0  0  0  0  0  0  0
   -5.2274   -2.0164   -0.6289 H   0  0  0  0  0  0  0  0  0  0  0  0
    5.3268    0.2258    1.5079 H   0  0  0  0  0  0  0  0  0  0  0  0
    3.5389   -1.6435    0.4411 H   0  0  0  0  0  0  0  0  0  0  0  0
    3.6559   -0.1816   -1.5626 H   0  0  0  0  0  0  0  0  0  0  0  0
    4.7699    0.8845   -0.7303 H   0  0  0  0  0  0  0  0  0  0  0  0
    6.3863   -1.0494   -0.5063 H   0  0  0  0  0  0  0  0  0  0  0  0
    5.2470   -2.0644   -1.3718 H   0  0  0  0  0  0  0  0  0  0  0  0
    6.4963    0.3282   -2.4794 H   0  0  0  0  0  0  0  0  0  0  0  0
    6.8271   -1.1949   -2.8818 H   0  0  0  0  0  0  0  0  0  0  0  0
    3.6280    1.7118    2.0503 H   0  0  0  0  0  0  0  0  0  0  0  0
   -0.5625    2.3370    1.5421 H   0  0  0  0  0  0  0  0  0  0  0  0
   -3.0132   -0.2384   -1.3778 H   0  0  0  0  0  0  0  0  0  0  0  0
   -3.8714   -1.2334    1.3701 H   0  0  0  0  0  0  0  0  0  0  0  0
   -2.4333   -1.8390    0.5821 H   0  0  0  0  0  0  0  0  0  0  0  0
   -5.4098    0.1023   -0.3981 H   0  0  0  0  0  0  0  0  0  0  0  0
   -4.6633    1.1928    0.7384 H   0  0  0  0  0  0  0  0  0  0  0  0
   -3.7980    2.5567   -1.2258 H   0  0  0  0  0  0  0  0  0  0  0  0
   -4.5933    1.4367   -2.3062 H   0  0  0  0  0  0  0  0  0  0  0  0
   -6.8166    2.0363   -1.2776 H   0  0  0  0  0  0  0  0  0  0  0  0
   -6.0033    3.1641   -0.1984 H   0  0  0  0  0  0  0  0  0  0  0  0
   -6.0098    3.4573   -1.9351 H   0  0  0  0  0  0  0  0  0  0  0  0
 19 20  1  0
 19 18  1  0
 16 18  1  0
 16  4  1  0
 16 17  1  0
 11 10  1  0
  6 17  1  0
  6  5  1  0
  4 15  1  0
 10  9  1  0
  9  8  1  0
  7  8  1  0
 15  3  1  0
  1  3  2  0
  1 12  1  0
  8 12  1  0
  3 14  1  0
 12 13  2  0
 14  2  2  0
 13  2  1  0
  1 21  1  0
  2 22  1  0
  4 23  1  0
  4 24  1  0
  5 25  1  0
  5 26  1  0
  5 27  1  0
  6 28  1  0
  6 29  1  0
  7 30  1  0
  8 31  1  6
  9 32  1  0
  9 33  1  0
 10 34  1  0
 10 35  1  0
 11 36  1  0
 11 37  1  0
 13 38  1  0
 14 39  1  0
 16 40  1  6
 17 41  1  0
 17 42  1  0
 18 43  1  0
 18 44  1  0
 19 45  1  0
 19 46  1  0
 20 47  1  0
 20 48  1  0
 20 49  1  0
M  END
