
     RDKit          3D

 31 32  0  0  0  0  0  0  0  0999 V2000
   -5.7423    0.3875    0.0043 N   0  0  0  0  0  0  0  0  0  0  0  0
   -4.4811   -0.0288   -0.0048 C   0  0  0  0  0  0  0  0  0  0  0  0
   -4.0634   -1.2824    0.0092 N   0  0  0  0  0  0  0  0  0  0  0  0
   -5.0082   -2.2172    0.0353 C   0  0  0  0  0  0  0  0  0  0  0  0
   -6.3550   -1.9062    0.0475 C   0  0  0  0  0  0  0  0  0  0  0  0
   -6.6712   -0.5558    0.0305 C   0  0  0  0  0  0  0  0  0  0  0  0
   -3.3242    1.2900   -0.0403 S   0  0  0  0  0  0  0  0  0  0  0  0
   -1.7648    0.3781   -0.0328 C   0  0  0  0  0  0  0  0  0  0  0  0
   -0.6352    1.3744   -0.0491 C   0  0  0  0  0  0  0  0  0  0  0  0
   -0.8549    2.5634   -0.0814 O   0  0  0  0  0  0  0  0  0  0  0  0
    0.7590    0.8483   -0.0243 C   0  0  0  0  0  0  0  0  0  0  0  0
    1.0301   -0.5159    0.0204 C   0  0  0  0  0  0  0  0  0  0  0  0
    2.3388   -0.9737    0.0524 C   0  0  0  0  0  0  0  0  0  0  0  0
    3.3717   -0.0527    0.0331 C   0  0  0  0  0  0  0  0  0  0  0  0
    3.1243    1.3141   -0.0137 C   0  0  0  0  0  0  0  0  0  0  0  0
    1.8173    1.7589   -0.0416 C   0  0  0  0  0  0  0  0  0  0  0  0
    5.0539   -0.6188    0.0948 S   0  0  1  0  0  0  0  0  0  0  0  0
    5.8442    0.3183    0.8779 O   0  0  0  0  0  0  0  0  0  0  0  0
    5.0308   -2.0164    0.5008 O   0  0  0  0  0  0  0  0  0  0  0  0
    5.5118   -0.4061   -1.4735 N   0  0  0  0  0  0  0  0  0  0  0  0
   -4.6705   -3.2470    0.0463 H   0  0  0  0  0  0  0  0  0  0  0  0
   -7.1173   -2.6699    0.0688 H   0  0  0  0  0  0  0  0  0  0  0  0
   -7.7028   -0.2233    0.0383 H   0  0  0  0  0  0  0  0  0  0  0  0
   -1.7011   -0.2572    0.8525 H   0  0  0  0  0  0  0  0  0  0  0  0
   -1.7020   -0.2773   -0.9039 H   0  0  0  0  0  0  0  0  0  0  0  0
    0.2347   -1.2477    0.0356 H   0  0  0  0  0  0  0  0  0  0  0  0
    2.5338   -2.0359    0.0939 H   0  0  0  0  0  0  0  0  0  0  0  0
    3.9356    2.0288   -0.0254 H   0  0  0  0  0  0  0  0  0  0  0  0
    1.6209    2.8216   -0.0738 H   0  0  0  0  0  0  0  0  0  0  0  0
    6.5220   -0.3428   -1.5635 H   0  0  0  0  0  0  0  0  0  0  0  0
    5.1440   -1.1201   -2.0944 H   0  0  0  0  0  0  0  0  0  0  0  0
  2  1  2  0
  1  6  1  0
  7  2  1  0
  3  2  1  0
  3  4  2  0
  4  5  1  0
  4 21  1  0
  5  6  2  0
  5 22  1  0
  6 23  1  0
  7  8  1  0
  8  9  1  0
  8 24  1  0
  8 25  1  0
 10  9  2  0
  9 11  1  0
 11 16  1  0
 11 12  2  0
 12 13  1  0
 12 26  1  0
 13 14  2  0
 13 27  1  0
 15 14  1  0
 14 17  1  0
 16 15  2  0
 15 28  1  0
 16 29  1  0
 17 20  1  6
 19 17  2  0
 17 18  2  0
 20 30  1  0
 20 31  1  0
M  END
