
     RDKit          3D

 46 49  0  0  0  0  0  0  0  0999 V2000
   -4.7880   -0.8418   -0.1989 C   0  0  0  0  0  0  0  0  0  0  0  0
   -3.4078   -1.0417   -0.3565 C   0  0  0  0  0  0  0  0  0  0  0  0
   -2.5965    0.0425   -0.1689 C   0  0  0  0  0  0  0  0  0  0  0  0
   -3.0991    1.3257    0.1675 C   0  0  0  0  0  0  0  0  0  0  0  0
   -4.4617    1.5157    0.3188 C   0  0  0  0  0  0  0  0  0  0  0  0
   -5.3217    0.4260    0.1376 C   0  0  0  0  0  0  0  0  0  0  0  0
   -5.6980   -1.9541   -0.3829 C   0  0  0  0  0  0  0  0  0  0  0  0
   -6.6693    0.6319    0.3028 N   0  0  0  0  0  0  0  0  0  0  0  0
   -7.4633   -0.3723    0.1309 C   0  0  0  0  0  0  0  0  0  0  0  0
   -8.8033   -0.2203    0.2265 N   0  0  0  0  0  0  0  0  0  0  0  0
   -7.0238   -1.6259   -0.2008 N   0  0  0  0  0  0  0  0  0  0  0  0
   -1.2290    0.2146   -0.2335 N   0  0  0  0  0  0  0  0  0  0  0  0
   -2.0728    2.2180    0.2962 N   0  0  0  0  0  0  0  0  0  0  0  0
   -0.9800    1.5210    0.0507 C   0  0  0  0  0  0  0  0  0  0  0  0
    0.2577    2.0363    0.0522 N   0  0  0  0  0  0  0  0  0  0  0  0
    1.4591    1.2307    0.0049 C   0  0  0  0  0  0  0  0  0  0  0  0
    2.6854    2.1351   -0.0690 C   0  0  0  0  0  0  0  0  0  0  0  0
   -5.3784   -3.0969   -0.6749 O   0  0  0  0  0  0  0  0  0  0  0  0
    6.2571   -0.2623   -0.1760 C   0  0  0  0  0  0  0  0  0  0  0  0
    7.4789   -1.0990   -0.2675 C   0  0  0  0  0  0  0  0  0  0  0  0
    8.0313   -1.3283    0.9126 O   0  0  0  0  0  0  0  0  0  0  0  0
    9.2125   -2.1287    0.9473 C   0  0  0  0  0  0  0  0  0  0  0  0
    5.5991    0.0791   -1.3560 C   0  0  0  0  0  0  0  0  0  0  0  0
    4.4576    0.8605   -1.3203 C   0  0  0  0  0  0  0  0  0  0  0  0
    3.9452    1.3200   -0.1090 C   0  0  0  0  0  0  0  0  0  0  0  0
    4.6051    0.9725    1.0669 C   0  0  0  0  0  0  0  0  0  0  0  0
    5.7494    0.1925    1.0400 C   0  0  0  0  0  0  0  0  0  0  0  0
    7.9245   -1.5264   -1.3060 O   0  0  0  0  0  0  0  0  0  0  0  0
   -3.0185   -2.0176   -0.6150 H   0  0  0  0  0  0  0  0  0  0  0  0
   -4.8696    2.4844    0.5775 H   0  0  0  0  0  0  0  0  0  0  0  0
   -9.1178    0.6381    0.6478 H   0  0  0  0  0  0  0  0  0  0  0  0
   -9.3768   -1.0225    0.4295 H   0  0  0  0  0  0  0  0  0  0  0  0
   -7.6977   -2.3682   -0.3374 H   0  0  0  0  0  0  0  0  0  0  0  0
   -0.5505   -0.5032   -0.4305 H   0  0  0  0  0  0  0  0  0  0  0  0
    0.3292    2.9616    0.4459 H   0  0  0  0  0  0  0  0  0  0  0  0
    1.5370    0.5745    0.8795 H   0  0  0  0  0  0  0  0  0  0  0  0
    1.4367    0.5906   -0.8813 H   0  0  0  0  0  0  0  0  0  0  0  0
    2.6134    2.7666   -0.9571 H   0  0  0  0  0  0  0  0  0  0  0  0
    2.6988    2.7967    0.8008 H   0  0  0  0  0  0  0  0  0  0  0  0
    9.0236   -3.1329    0.5685 H   0  0  0  0  0  0  0  0  0  0  0  0
   10.0190   -1.6735    0.3732 H   0  0  0  0  0  0  0  0  0  0  0  0
    9.5016   -2.1860    1.9923 H   0  0  0  0  0  0  0  0  0  0  0  0
    5.9826   -0.2625   -2.3080 H   0  0  0  0  0  0  0  0  0  0  0  0
    3.9615    1.1204   -2.2476 H   0  0  0  0  0  0  0  0  0  0  0  0
    4.2226    1.3198    2.0190 H   0  0  0  0  0  0  0  0  0  0  0  0
    6.2380   -0.0534    1.9725 H   0  0  0  0  0  0  0  0  0  0  0  0
 28 20  2  0
 27 26  1  0
 27 19  2  0
 26 25  2  0
 20 19  1  0
 20 21  1  0
 19 23  1  0
 25 17  1  0
 25 24  1  0
 17 16  1  0
 23 24  2  0
 22 21  1  0
 16 15  1  0
 15 14  1  0
 14 13  2  0
 14 12  1  0
 13  4  1  0
 12  3  1  0
  4  3  1  0
  4  5  2  0
  3  2  2  0
  5  6  1  0
  2  1  1  0
  6  1  2  0
  6  8  1  0
  1  7  1  0
  8  9  2  0
  7 18  2  0
  7 11  1  0
  9 11  1  0
  9 10  1  0
  2 29  1  0
  5 30  1  0
 10 31  1  0
 10 32  1  0
 11 33  1  0
 12 34  1  0
 15 35  1  0
 16 36  1  0
 16 37  1  0
 17 38  1  0
 17 39  1  0
 22 40  1  0
 22 41  1  0
 22 42  1  0
 23 43  1  0
 24 44  1  0
 26 45  1  0
 27 46  1  0
M  END
