
     RDKit          3D

 44 45  0  0  0  0  0  0  0  0999 V2000
   -3.3494   -0.0924    0.2932 C   0  0  0  0  0  0  0  0  0  0  0  0
   -2.9162   -0.8637    1.3706 C   0  0  0  0  0  0  0  0  0  0  0  0
   -1.5848   -1.2430    1.4632 C   0  0  0  0  0  0  0  0  0  0  0  0
   -0.6749   -0.8671    0.4862 C   0  0  0  0  0  0  0  0  0  0  0  0
   -6.3458    2.1473   -0.0998 C   0  0  0  0  0  0  0  0  0  0  0  0
   -7.1231    0.0267    0.1552 C   0  0  0  0  0  0  0  0  0  0  0  0
   -5.8378   -0.5222    0.2705 C   0  0  0  0  0  0  0  0  0  0  0  0
   -4.7514    0.3661    0.1917 C   0  0  0  0  0  0  0  0  0  0  0  0
    7.8371    0.3975    1.0362 C   0  0  0  0  0  0  0  0  0  0  0  0
   -2.4216    0.2844   -0.6781 C   0  0  0  0  0  0  0  0  0  0  0  0
    8.9575   -0.6116    1.0826 C   0  0  0  0  0  0  0  0  0  0  0  0
    4.5595   -0.3253   -0.4934 C   0  0  0  0  0  0  0  0  0  0  0  0
    5.6139    0.4813    0.2243 C   0  0  0  0  0  0  0  0  0  0  0  0
   -1.0877   -0.0963   -0.5969 C   0  0  0  0  0  0  0  0  0  0  0  0
   -0.1268    0.3077   -1.6923 C   0  0  0  0  0  0  0  0  0  0  0  0
    6.7229   -0.2174    0.3626 O   0  0  0  0  0  0  0  0  0  0  0  0
    5.4603    1.6097    0.6201 O   0  0  0  0  0  0  0  0  0  0  0  0
    3.3628    0.4505   -0.6441 N   0  0  0  0  0  0  0  0  0  0  0  0
    2.2440   -1.2253   -1.6677 O   0  0  0  0  0  0  0  0  0  0  0  0
    1.1648    0.7286   -1.2191 N   0  0  0  0  0  0  0  0  0  0  0  0
   -7.3752    1.3115   -0.0192 N   0  0  0  0  0  0  0  0  0  0  0  0
   -5.0348    1.7141   -0.0029 C   0  0  0  0  0  0  0  0  0  0  0  0
   -3.6117   -1.1517    2.1484 H   0  0  0  0  0  0  0  0  0  0  0  0
   -1.2542   -1.8337    2.3077 H   0  0  0  0  0  0  0  0  0  0  0  0
    0.3574   -1.1813    0.5731 H   0  0  0  0  0  0  0  0  0  0  0  0
   -6.5705    3.1977   -0.2430 H   0  0  0  0  0  0  0  0  0  0  0  0
   -7.9819   -0.6373    0.2085 H   0  0  0  0  0  0  0  0  0  0  0  0
    7.5348    0.6937    2.0421 H   0  0  0  0  0  0  0  0  0  0  0  0
    8.1387    1.2955    0.4942 H   0  0  0  0  0  0  0  0  0  0  0  0
   -2.7500    0.8821   -1.5219 H   0  0  0  0  0  0  0  0  0  0  0  0
    8.6660   -1.5083    1.6294 H   0  0  0  0  0  0  0  0  0  0  0  0
    9.2810   -0.9003    0.0829 H   0  0  0  0  0  0  0  0  0  0  0  0
    9.8115   -0.1718    1.5964 H   0  0  0  0  0  0  0  0  0  0  0  0
    4.9658   -0.6356   -1.4608 H   0  0  0  0  0  0  0  0  0  0  0  0
    4.3855   -1.2443    0.0763 H   0  0  0  0  0  0  0  0  0  0  0  0
    0.0155   -0.5253   -2.3815 H   0  0  0  0  0  0  0  0  0  0  0  0
   -0.5705    1.1161   -2.2762 H   0  0  0  0  0  0  0  0  0  0  0  0
    3.3305    1.3536   -0.1981 H   0  0  0  0  0  0  0  0  0  0  0  0
    1.2114    1.6167   -0.7461 H   0  0  0  0  0  0  0  0  0  0  0  0
   -4.2268    2.4321   -0.0620 H   0  0  0  0  0  0  0  0  0  0  0  0
   -6.4730   -2.4398    0.2155 H   0  0  0  0  0  0  0  0  0  0  0  0
   -4.8144   -2.2768    0.1721 H   0  0  0  0  0  0  0  0  0  0  0  0
   -5.6840   -1.8723    0.4826 N   0  0  0  0  0  0  0  0  0  0  0  0
    2.2507   -0.0900   -1.2011 C   0  0  0  0  0  0  0  0  0  0  0  0
 19 44  2  0
 15 20  1  0
 15 14  1  0
 44 20  1  0
 44 18  1  0
  5 22  2  0
  5 21  1  0
 22  8  1  0
 14 10  2  0
 14  4  1  0
 12 18  1  0
 12 13  1  0
 10  1  1  0
 21  6  2  0
 16 13  1  0
 16  9  1  0
  4  3  2  0
 13 17  2  0
  1  8  1  0
  1  2  2  0
  8  7  2  0
 11  9  1  0
  3  2  1  0
  6  7  1  0
  7 43  1  0
  2 23  1  0
  3 24  1  0
  4 25  1  0
  5 26  1  0
  6 27  1  0
  9 28  1  0
  9 29  1  0
 10 30  1  0
 11 31  1  0
 11 32  1  0
 11 33  1  0
 12 34  1  0
 12 35  1  0
 15 36  1  0
 15 37  1  0
 18 38  1  0
 20 39  1  0
 22 40  1  0
 43 41  1  0
 43 42  1  0
M  END
