
     RDKit          3D

 23 22  0  0  0  0  0  0  0  0999 V2000
    0.8834   -0.4339    0.3895 C   0  0  1  0  0  0  0  0  0  0  0  0
   -1.5241    0.1910    0.2466 C   0  0  0  0  0  0  0  0  0  0  0  0
    3.2845   -1.1934    0.5296 C   0  0  0  0  0  0  0  0  0  0  0  0
    2.2437   -0.4866   -0.3274 C   0  0  2  0  0  0  0  0  0  0  0  0
   -2.4062   -0.6132   -0.6602 C   0  0  0  0  0  0  0  0  0  0  0  0
   -3.6129   -0.9019   -0.0259 O   0  0  0  0  0  0  0  0  0  0  0  0
   -1.8857    0.5981    1.3245 O   0  0  0  0  0  0  0  0  0  0  0  0
   -0.1259    0.5313   -0.2695 C   0  0  1  0  0  0  0  0  0  0  0  0
    0.1667    1.8737    0.0109 O   0  0  0  0  0  0  0  0  0  0  0  0
    0.3441   -1.7318    0.5099 O   0  0  0  0  0  0  0  0  0  0  0  0
    2.6915    0.7767   -0.7575 O   0  0  0  0  0  0  0  0  0  0  0  0
    1.0291   -0.0822    1.4192 H   0  0  0  0  0  0  0  0  0  0  0  0
    2.9438   -2.1822    0.8358 H   0  0  0  0  0  0  0  0  0  0  0  0
    4.2177   -1.3162   -0.0205 H   0  0  0  0  0  0  0  0  0  0  0  0
    3.4963   -0.6201    1.4356 H   0  0  0  0  0  0  0  0  0  0  0  0
    2.0972   -1.0609   -1.2513 H   0  0  0  0  0  0  0  0  0  0  0  0
   -2.5305   -0.0191   -1.5792 H   0  0  0  0  0  0  0  0  0  0  0  0
   -1.8516   -1.5104   -0.9675 H   0  0  0  0  0  0  0  0  0  0  0  0
   -4.1745   -1.3657   -0.6535 H   0  0  0  0  0  0  0  0  0  0  0  0
   -0.0996    0.4132   -1.3589 H   0  0  0  0  0  0  0  0  0  0  0  0
   -0.0635    2.0426    0.9328 H   0  0  0  0  0  0  0  0  0  0  0  0
    0.3991   -2.1798   -0.3418 H   0  0  0  0  0  0  0  0  0  0  0  0
    2.7166    1.3725   -0.0016 H   0  0  0  0  0  0  0  0  0  0  0  0
  7  2  2  0
  9  8  1  0
  2  5  1  0
  2  8  1  0
  6  5  1  0
  8  1  1  0
  1 10  1  0
  1  4  1  0
 11  4  1  0
  4  3  1  0
  1 12  1  1
  3 13  1  0
  3 14  1  0
  3 15  1  0
  4 16  1  6
  5 17  1  0
  5 18  1  0
  6 19  1  0
  8 20  1  6
  9 21  1  0
 10 22  1  0
 11 23  1  0
M  END
