
     RDKit          3D

 49 52  0  0  0  0  0  0  0  0999 V2000
   -1.8539   -3.9406   -0.6520 C   0  0  0  0  0  0  0  0  0  0  0  0
   -1.1798   -2.7293   -0.7357 C   0  0  0  0  0  0  0  0  0  0  0  0
   -1.4715   -1.6881    0.1441 C   0  0  0  0  0  0  0  0  0  0  0  0
   -2.4524   -1.8903    1.1154 C   0  0  0  0  0  0  0  0  0  0  0  0
   -3.1244   -3.0994    1.2018 C   0  0  0  0  0  0  0  0  0  0  0  0
   -2.8301   -4.1292    0.3162 C   0  0  0  0  0  0  0  0  0  0  0  0
   -0.7206   -0.4129    0.0689 C   0  0  0  0  0  0  0  0  0  0  0  0
   -1.3885    0.8472   -0.0211 C   0  0  0  0  0  0  0  0  0  0  0  0
   -0.6693    2.0278   -0.0325 C   0  0  0  0  0  0  0  0  0  0  0  0
    0.7239    1.9573    0.0365 C   0  0  0  0  0  0  0  0  0  0  0  0
    1.3908    0.7275    0.1043 C   0  0  0  0  0  0  0  0  0  0  0  0
    0.6589   -0.4612    0.1209 C   0  0  0  0  0  0  0  0  0  0  0  0
   -2.8621    0.9321   -0.1309 C   0  0  0  0  0  0  0  0  0  0  0  0
   -3.5667    0.2138   -1.0981 C   0  0  0  0  0  0  0  0  0  0  0  0
   -4.9401    0.3192   -1.2148 C   0  0  0  0  0  0  0  0  0  0  0  0
   -5.6523    1.1504   -0.3508 C   0  0  0  0  0  0  0  0  0  0  0  0
   -4.9655    1.8773    0.6167 C   0  0  0  0  0  0  0  0  0  0  0  0
   -3.5868    1.7660    0.7162 C   0  0  0  0  0  0  0  0  0  0  0  0
   -6.9900    1.2113   -0.4981 O   0  0  0  0  0  0  0  0  0  0  0  0
    1.6846    2.9041    0.0309 N   0  0  0  0  0  0  0  0  0  0  0  0
    2.9216    2.3835    0.1030 N   0  0  0  0  0  0  0  0  0  0  0  0
    2.7710    1.0857    0.1446 C   0  0  0  0  0  0  0  0  0  0  0  0
    3.8081    0.1730    0.2360 N   0  0  0  0  0  0  0  0  0  0  0  0
    5.1259    0.3805   -0.0524 C   0  0  0  0  0  0  0  0  0  0  0  0
    5.9801   -0.8529    0.1439 C   0  0  0  0  0  0  0  0  0  0  0  0
    7.4469   -0.6529   -0.1996 C   0  0  0  0  0  0  0  0  0  0  0  0
    8.2521   -1.9219    0.0431 C   0  0  0  0  0  0  0  0  0  0  0  0
    5.5618    1.4509   -0.4230 O   0  0  0  0  0  0  0  0  0  0  0  0
   -1.6178   -4.7352   -1.3482 H   0  0  0  0  0  0  0  0  0  0  0  0
   -0.4285   -2.5872   -1.5031 H   0  0  0  0  0  0  0  0  0  0  0  0
   -2.6862   -1.0979    1.8151 H   0  0  0  0  0  0  0  0  0  0  0  0
   -3.8785   -3.2387    1.9659 H   0  0  0  0  0  0  0  0  0  0  0  0
   -3.3571   -5.0723    0.3820 H   0  0  0  0  0  0  0  0  0  0  0  0
   -1.1766    2.9796   -0.1246 H   0  0  0  0  0  0  0  0  0  0  0  0
    1.1593   -1.4190    0.2045 H   0  0  0  0  0  0  0  0  0  0  0  0
   -3.0344   -0.4317   -1.7851 H   0  0  0  0  0  0  0  0  0  0  0  0
   -5.4668   -0.2377   -1.9796 H   0  0  0  0  0  0  0  0  0  0  0  0
   -5.5027    2.5256    1.2999 H   0  0  0  0  0  0  0  0  0  0  0  0
   -3.0703    2.3291    1.4842 H   0  0  0  0  0  0  0  0  0  0  0  0
   -7.3720    1.8235    0.1406 H   0  0  0  0  0  0  0  0  0  0  0  0
    3.5402   -0.7623    0.5006 H   0  0  0  0  0  0  0  0  0  0  0  0
    5.8795   -1.1749    1.1861 H   0  0  0  0  0  0  0  0  0  0  0  0
    5.5608   -1.6693   -0.4541 H   0  0  0  0  0  0  0  0  0  0  0  0
    7.5454   -0.3513   -1.2446 H   0  0  0  0  0  0  0  0  0  0  0  0
    7.8586    0.1632    0.3975 H   0  0  0  0  0  0  0  0  0  0  0  0
    9.3014   -1.7780   -0.2152 H   0  0  0  0  0  0  0  0  0  0  0  0
    8.2076   -2.2258    1.0905 H   0  0  0  0  0  0  0  0  0  0  0  0
    7.8750   -2.7528   -0.5559 H   0  0  0  0  0  0  0  0  0  0  0  0
    1.5729    3.9030   -0.0151 H   0  0  0  0  0  0  0  0  0  0  0  0
  2  1  2  0
  6  1  1  0
  1 29  1  0
  3  2  1  0
  2 30  1  0
  7  3  1  0
  4  3  2  0
  4  5  1  0
  4 31  1  0
  5  6  2  0
  5 32  1  0
  6 33  1  0
  8  7  1  0
  7 12  2  0
  9  8  2  0
 13  8  1  0
  9 10  1  0
  9 34  1  0
 20 10  1  0
 10 11  2  0
 22 11  1  0
 11 12  1  0
 12 35  1  0
 14 13  2  0
 13 18  1  0
 15 14  1  0
 14 36  1  0
 15 16  2  0
 15 37  1  0
 19 16  1  0
 16 17  1  0
 17 18  2  0
 17 38  1  0
 18 39  1  0
 19 40  1  0
 20 21  1  0
 21 22  2  0
 22 23  1  0
 23 24  1  0
 23 41  1  0
 24 25  1  0
 24 28  2  0
 25 26  1  0
 25 42  1  0
 25 43  1  0
 26 27  1  0
 26 44  1  0
 26 45  1  0
 27 46  1  0
 27 47  1  0
 27 48  1  0
 20 49  1  0
M  END
