
     RDKit          3D

 31 32  0  0  0  0  0  0  0  0999 V2000
   -5.4108    0.2221   -0.2404 C   0  0  0  0  0  0  0  0  0  0  0  0
   -4.3148    1.1773   -0.2898 C   0  0  0  0  0  0  0  0  0  0  0  0
   -0.6888    1.0122    0.7644 C   0  0  0  0  0  0  0  0  0  0  0  0
   -1.9721    1.6178    0.2464 C   0  0  0  0  0  0  0  0  0  0  0  0
   -2.6069   -0.5978   -0.5917 C   0  0  0  0  0  0  0  0  0  0  0  0
   -1.3022   -1.1471   -0.0576 C   0  0  0  0  0  0  0  0  0  0  0  0
    2.0500    0.4558   -0.2033 C   0  0  0  0  0  0  0  0  0  0  0  0
    3.3796    0.0816   -0.1937 C   0  0  0  0  0  0  0  0  0  0  0  0
    3.7759   -1.2357   -0.0154 C   0  0  0  0  0  0  0  0  0  0  0  0
    1.0526   -0.5085   -0.0105 C   0  0  0  0  0  0  0  0  0  0  0  0
    1.4409   -1.8371    0.1789 C   0  0  0  0  0  0  0  0  0  0  0  0
    2.7843   -2.1856    0.1643 C   0  0  0  0  0  0  0  0  0  0  0  0
   -0.2886   -0.1185   -0.0521 N   0  0  0  0  0  0  0  0  0  0  0  0
   -3.0527    0.5812    0.2144 N   0  0  2  0  0  0  0  0  0  0  0  0
   -6.2849   -0.5211   -0.2012 N   0  0  0  0  0  0  0  0  0  0  0  0
   -4.1599    1.5087   -1.3162 H   0  0  0  0  0  0  0  0  0  0  0  0
   -4.5619    2.0426    0.3246 H   0  0  0  0  0  0  0  0  0  0  0  0
    0.0591    1.8006    0.7376 H   0  0  0  0  0  0  0  0  0  0  0  0
   -0.8092    0.7224    1.8179 H   0  0  0  0  0  0  0  0  0  0  0  0
   -2.3084    2.4246    0.8941 H   0  0  0  0  0  0  0  0  0  0  0  0
   -1.8568    1.9902   -0.7706 H   0  0  0  0  0  0  0  0  0  0  0  0
   -2.5027   -0.2548   -1.6203 H   0  0  0  0  0  0  0  0  0  0  0  0
   -3.3809   -1.3607   -0.5402 H   0  0  0  0  0  0  0  0  0  0  0  0
   -1.4620   -1.5890    0.9370 H   0  0  0  0  0  0  0  0  0  0  0  0
   -1.0208   -1.9550   -0.7321 H   0  0  0  0  0  0  0  0  0  0  0  0
    1.7893    1.4894   -0.3866 H   0  0  0  0  0  0  0  0  0  0  0  0
    4.8215   -1.5096   -0.0152 H   0  0  0  0  0  0  0  0  0  0  0  0
    0.7097   -2.6142    0.3495 H   0  0  0  0  0  0  0  0  0  0  0  0
    3.0608   -3.2211    0.3124 H   0  0  0  0  0  0  0  0  0  0  0  0
   -3.2132    0.2736    1.1783 H   0  0  0  0  0  0  0  0  0  0  0  0
    4.5893    1.3019   -0.4375 Cl  0  0  0  0  0  0  0  0  0  0  0  0
  9 12  2  0
  9  8  1  0
 12 11  1  0
 31  8  1  0
  8  7  2  0
 11 10  2  0
  7 10  1  0
 10 13  1  0
  6 13  1  0
  6  5  1  0
 13  3  1  0
  5 14  1  0
  3  4  1  0
  4 14  1  0
 14  2  1  0
  2  1  1  0
  1 15  3  0
  2 16  1  0
  2 17  1  0
  3 18  1  0
  3 19  1  0
  4 20  1  0
  4 21  1  0
  5 22  1  0
  5 23  1  0
  6 24  1  0
  6 25  1  0
  7 26  1  0
  9 27  1  0
 11 28  1  0
 12 29  1  0
 14 30  1  1
M  CHG  1  14   1
M  END
