
     RDKit          3D

  5  4  0  0  0  0  0  0  0  0999 V2000
   -0.0271   -0.2052    1.1576 N   0  0  0  0  0  0  0  0  0  0  0  0
   -0.0343   -0.0050   -0.1495 C   0  0  0  0  0  0  0  0  0  0  0  0
   -0.0161    0.1198   -1.2999 N   0  0  0  0  0  0  0  0  0  0  0  0
   -0.8701    0.0592    1.6466 H   0  0  0  0  0  0  0  0  0  0  0  0
    0.8177    0.0752    1.6346 H   0  0  0  0  0  0  0  0  0  0  0  0
  1  2  1  0
  1  4  1  0
  1  5  1  0
  2  3  3  0
M  END
