
     RDKit          3D

 53 55  0  0  0  0  0  0  0  0999 V2000
  -10.3527    0.2461   -0.3665 F   0  0  0  0  0  0  0  0  0  0  0  0
   -9.1621   -0.3534   -0.4463 C   0  0  1  0  0  0  0  0  0  0  0  0
   -9.2035   -1.4171    0.3697 F   0  0  0  0  0  0  0  0  0  0  0  0
   -9.0500   -0.8365   -1.6924 F   0  0  0  0  0  0  0  0  0  0  0  0
   -8.0283    0.5614   -0.1024 C   0  0  0  0  0  0  0  0  0  0  0  0
   -6.7352    0.0535   -0.1530 C   0  0  0  0  0  0  0  0  0  0  0  0
   -8.2509    1.8835    0.2546 C   0  0  0  0  0  0  0  0  0  0  0  0
   -7.1662    2.6939    0.5602 C   0  0  0  0  0  0  0  0  0  0  0  0
   -5.8778    2.1906    0.5117 C   0  0  0  0  0  0  0  0  0  0  0  0
   -5.6443    0.8609    0.1549 C   0  0  0  0  0  0  0  0  0  0  0  0
   -4.2721    0.3193    0.1099 C   0  0  0  0  0  0  0  0  0  0  0  0
   -3.2114    1.0978   -0.3522 C   0  0  0  0  0  0  0  0  0  0  0  0
   -1.9222    0.5923   -0.3865 C   0  0  0  0  0  0  0  0  0  0  0  0
   -4.0042   -0.9862    0.5250 C   0  0  0  0  0  0  0  0  0  0  0  0
   -2.7191   -1.4963    0.4781 C   0  0  0  0  0  0  0  0  0  0  0  0
   -1.6596   -0.7086    0.0355 C   0  0  0  0  0  0  0  0  0  0  0  0
   -0.2928   -1.3137   -0.0061 C   0  0  0  0  0  0  0  0  0  0  0  0
   -0.1404   -2.5222   -0.1340 O   0  0  0  0  0  0  0  0  0  0  0  0
    0.7376   -0.4645    0.1068 N   0  0  0  0  0  0  0  0  0  0  0  0
    2.1178   -0.9089    0.0719 C   0  0  0  0  0  0  0  0  0  0  0  0
    3.0532    0.2742    0.2612 C   0  0  0  0  0  0  0  0  0  0  0  0
    4.5210   -0.1129    0.1091 C   0  0  2  0  0  0  0  0  0  0  0  0
    4.8562   -1.1627    1.0533 N   0  0  0  0  0  0  0  0  0  0  0  0
    5.4025    1.1481    0.2249 C   0  0  0  0  0  0  0  0  0  0  0  0
    6.8568    0.8541    0.0105 C   0  0  0  0  0  0  0  0  0  0  0  0
    7.3893    0.6935   -1.2606 C   0  0  0  0  0  0  0  0  0  0  0  0
    6.5841    0.8470   -2.3227 F   0  0  0  0  0  0  0  0  0  0  0  0
    8.7145    0.3824   -1.4970 C   0  0  0  0  0  0  0  0  0  0  0  0
    9.5477    0.2200   -0.4100 C   0  0  0  0  0  0  0  0  0  0  0  0
   10.8356   -0.0780   -0.5933 F   0  0  0  0  0  0  0  0  0  0  0  0
    9.0572    0.3688    0.8743 C   0  0  0  0  0  0  0  0  0  0  0  0
    9.8848    0.2099    1.9130 F   0  0  0  0  0  0  0  0  0  0  0  0
    7.7294    0.6783    1.0824 C   0  0  0  0  0  0  0  0  0  0  0  0
   -6.5659   -0.9741   -0.4514 H   0  0  0  0  0  0  0  0  0  0  0  0
   -9.2502    2.2928    0.3018 H   0  0  0  0  0  0  0  0  0  0  0  0
   -7.3322    3.7240    0.8451 H   0  0  0  0  0  0  0  0  0  0  0  0
   -5.0473    2.8335    0.7745 H   0  0  0  0  0  0  0  0  0  0  0  0
   -3.3920    2.1011   -0.7163 H   0  0  0  0  0  0  0  0  0  0  0  0
   -1.1331    1.2201   -0.7810 H   0  0  0  0  0  0  0  0  0  0  0  0
   -4.8039   -1.6085    0.9068 H   0  0  0  0  0  0  0  0  0  0  0  0
   -2.5358   -2.5114    0.8039 H   0  0  0  0  0  0  0  0  0  0  0  0
    0.5597    0.5002    0.3330 H   0  0  0  0  0  0  0  0  0  0  0  0
    2.2945   -1.6546    0.8481 H   0  0  0  0  0  0  0  0  0  0  0  0
    2.3232   -1.3911   -0.8879 H   0  0  0  0  0  0  0  0  0  0  0  0
    2.8185    1.0496   -0.4740 H   0  0  0  0  0  0  0  0  0  0  0  0
    2.8925    0.7175    1.2508 H   0  0  0  0  0  0  0  0  0  0  0  0
    4.6539   -0.5275   -0.8956 H   0  0  0  0  0  0  0  0  0  0  0  0
    5.7991   -1.4975    0.9004 H   0  0  0  0  0  0  0  0  0  0  0  0
    4.8313   -0.7995    1.9999 H   0  0  0  0  0  0  0  0  0  0  0  0
    5.0570    1.9028   -0.4856 H   0  0  0  0  0  0  0  0  0  0  0  0
    5.2675    1.5758    1.2219 H   0  0  0  0  0  0  0  0  0  0  0  0
    9.0912    0.2678   -2.5051 H   0  0  0  0  0  0  0  0  0  0  0  0
    7.3705    0.7978    2.0972 H   0  0  0  0  0  0  0  0  0  0  0  0
  2  4  1  6
  1  2  1  0
  3  2  1  0
  2  5  1  0
  5  7  2  0
  5  6  1  0
  7  8  1  0
  6 10  2  0
  8  9  2  0
 10  9  1  0
 10 11  1  0
 14 11  1  0
 14 15  2  0
 11 12  2  0
 15 16  1  0
 12 13  1  0
 16 13  2  0
 16 17  1  0
 18 17  2  0
 17 19  1  0
 19 20  1  0
 20 21  1  0
 21 22  1  0
 22 24  1  0
 22 23  1  0
 24 25  1  0
 33 25  1  0
 33 31  2  0
 32 31  1  0
 25 26  2  0
 31 29  1  0
 26 27  1  0
 26 28  1  0
 29 28  2  0
 29 30  1  0
  6 34  1  0
  7 35  1  0
  8 36  1  0
  9 37  1  0
 12 38  1  0
 13 39  1  0
 14 40  1  0
 15 41  1  0
 19 42  1  0
 20 43  1  0
 20 44  1  0
 21 45  1  0
 21 46  1  0
 22 47  1  6
 23 48  1  0
 23 49  1  0
 24 50  1  0
 24 51  1  0
 28 52  1  0
 33 53  1  0
M  END
