
     RDKit          3D

 70 73  0  0  0  0  0  0  0  0999 V2000
   -6.3222    1.3896   -0.1855 C   0  0  0  0  0  0  0  0  0  0  0  0
    6.2915   -0.9853   -0.4192 C   0  0  0  0  0  0  0  0  0  0  0  0
   -6.4475   -0.9914   -0.5111 C   0  0  0  0  0  0  0  0  0  0  0  0
   -4.3238    0.0308    0.0459 C   0  0  0  0  0  0  0  0  0  0  0  0
   -2.3011   -1.2468    0.4729 C   0  0  0  0  0  0  0  0  0  0  0  0
   -3.6801   -1.1274    0.5090 C   0  0  0  0  0  0  0  0  0  0  0  0
   -3.5302    1.0669   -0.4449 C   0  0  0  0  0  0  0  0  0  0  0  0
   -2.1467    0.9394   -0.4874 C   0  0  0  0  0  0  0  0  0  0  0  0
   -1.5086   -0.2019   -0.0370 C   0  0  0  0  0  0  0  0  0  0  0  0
   -5.7187    0.1066    0.1131 N   0  0  0  0  0  0  0  0  0  0  0  0
   -9.9937    0.3359   -0.0180 N   0  0  0  0  0  0  0  0  0  0  0  0
   -7.9129   -1.0010   -0.1129 C   0  0  0  0  0  0  0  0  0  0  0  0
   -0.1222   -0.3902   -0.1102 N   0  0  0  0  0  0  0  0  0  0  0  0
    4.1222    3.2297    1.2125 Cl  0  0  0  0  0  0  0  0  0  0  0  0
    7.4990    0.2816    0.0663 P   0  0  1  0  0  0  0  0  0  0  0  0
   -1.6265   -2.3292    0.9061 O   0  0  0  0  0  0  0  0  0  0  0  0
    6.8307    1.5065    0.6514 O   0  0  0  0  0  0  0  0  0  0  0  0
    4.3969    0.3965    0.1511 N   0  0  0  0  0  0  0  0  0  0  0  0
    2.0955    0.0348    0.0335 N   0  0  0  0  0  0  0  0  0  0  0  0
    0.5235    1.6961    0.6652 N   0  0  0  0  0  0  0  0  0  0  0  0
   -8.5969    0.3236   -0.4421 C   0  0  2  0  0  0  0  0  0  0  0  0
   -7.7860    1.4319    0.2247 C   0  0  0  0  0  0  0  0  0  0  0  0
    0.8533    0.4924    0.2119 C   0  0  0  0  0  0  0  0  0  0  0  0
    4.8905   -0.8141   -0.3334 C   0  0  0  0  0  0  0  0  0  0  0  0
   -2.3537   -3.4315    1.4098 C   0  0  0  0  0  0  0  0  0  0  0  0
    8.6318   -0.5206    1.2238 C   0  0  0  0  0  0  0  0  0  0  0  0
    8.4684    0.6421   -1.4156 C   0  0  0  0  0  0  0  0  0  0  0  0
    6.8120   -2.1842   -0.9034 C   0  0  0  0  0  0  0  0  0  0  0  0
    3.1201    0.8182    0.3204 C   0  0  0  0  0  0  0  0  0  0  0  0
    4.0737   -1.8762   -0.7451 C   0  0  0  0  0  0  0  0  0  0  0  0
    5.9957   -3.2244   -1.3076 C   0  0  0  0  0  0  0  0  0  0  0  0
    4.6228   -3.0540   -1.2215 C   0  0  0  0  0  0  0  0  0  0  0  0
    2.8607    2.1218    0.8128 C   0  0  0  0  0  0  0  0  0  0  0  0
    1.5468    2.4903    0.9586 C   0  0  0  0  0  0  0  0  0  0  0  0
   -5.7880    2.1696    0.3587 H   0  0  0  0  0  0  0  0  0  0  0  0
   -6.2414    1.6362   -1.2567 H   0  0  0  0  0  0  0  0  0  0  0  0
   -6.3663   -0.9279   -1.6077 H   0  0  0  0  0  0  0  0  0  0  0  0
   -6.0060   -1.9425   -0.2205 H   0  0  0  0  0  0  0  0  0  0  0  0
  -11.6938    1.5416   -0.0052 H   0  0  0  0  0  0  0  0  0  0  0  0
  -10.2036    2.4129    0.2882 H   0  0  0  0  0  0  0  0  0  0  0  0
  -10.6072    1.8924   -1.3546 H   0  0  0  0  0  0  0  0  0  0  0  0
  -10.7158   -0.7398   -1.7202 H   0  0  0  0  0  0  0  0  0  0  0  0
  -10.4265   -1.7150   -0.2718 H   0  0  0  0  0  0  0  0  0  0  0  0
  -11.8078   -0.6411   -0.3337 H   0  0  0  0  0  0  0  0  0  0  0  0
   -4.2746   -1.9235    0.9355 H   0  0  0  0  0  0  0  0  0  0  0  0
   -3.9687    1.9752   -0.8317 H   0  0  0  0  0  0  0  0  0  0  0  0
   -1.5616    1.7497   -0.8981 H   0  0  0  0  0  0  0  0  0  0  0  0
   -8.3798   -1.8365   -0.6358 H   0  0  0  0  0  0  0  0  0  0  0  0
   -8.0050   -1.1964    0.9599 H   0  0  0  0  0  0  0  0  0  0  0  0
    0.2068   -1.3146   -0.3417 H   0  0  0  0  0  0  0  0  0  0  0  0
    5.1353    1.0573    0.4219 H   0  0  0  0  0  0  0  0  0  0  0  0
   -8.5324    0.4725   -1.5394 H   0  0  0  0  0  0  0  0  0  0  0  0
   -7.8720    1.3359    1.3116 H   0  0  0  0  0  0  0  0  0  0  0  0
   -8.1596    2.4210   -0.0427 H   0  0  0  0  0  0  0  0  0  0  0  0
   -1.6194   -4.1847    1.6841 H   0  0  0  0  0  0  0  0  0  0  0  0
   -2.9335   -3.1653    2.2974 H   0  0  0  0  0  0  0  0  0  0  0  0
   -3.0289   -3.8524    0.6601 H   0  0  0  0  0  0  0  0  0  0  0  0
    9.1246   -1.3884    0.7880 H   0  0  0  0  0  0  0  0  0  0  0  0
    9.3980    0.1959    1.5214 H   0  0  0  0  0  0  0  0  0  0  0  0
    8.0808   -0.8347    2.1094 H   0  0  0  0  0  0  0  0  0  0  0  0
    7.8252    1.0988   -2.1669 H   0  0  0  0  0  0  0  0  0  0  0  0
    9.2641    1.3425   -1.1611 H   0  0  0  0  0  0  0  0  0  0  0  0
    8.9178   -0.2564   -1.8355 H   0  0  0  0  0  0  0  0  0  0  0  0
    7.8858   -2.3152   -0.9674 H   0  0  0  0  0  0  0  0  0  0  0  0
    3.0042   -1.7765   -0.6893 H   0  0  0  0  0  0  0  0  0  0  0  0
    6.4229   -4.1450   -1.6800 H   0  0  0  0  0  0  0  0  0  0  0  0
    3.9568   -3.8501   -1.5287 H   0  0  0  0  0  0  0  0  0  0  0  0
    1.3061    3.4799    1.3322 H   0  0  0  0  0  0  0  0  0  0  0  0
  -10.6436    1.6037   -0.2917 C   0  0  0  0  0  0  0  0  0  0  0  0
  -10.7604   -0.7390   -0.6195 C   0  0  0  0  0  0  0  0  0  0  0  0
 30 32  2  0
 30 24  1  0
 32 31  1  0
 14 33  1  0
 18 24  1  0
 18 29  1  0
 31 28  2  0
 24  2  2  0
 15 27  1  6
 28  2  1  0
 29 33  1  0
 29 19  2  0
 33 34  2  0
  2 15  1  0
 17 15  2  0
 22  1  1  0
 22 21  1  0
 19 23  1  0
 34 20  1  0
 69 11  1  0
 25 16  1  0
  1 10  1  0
 15 26  1  0
 16  5  1  0
 23 20  2  0
 23 13  1  0
  5  6  2  0
  5  9  1  0
  6  4  1  0
 13  9  1  0
  9  8  2  0
 70 11  1  0
  4 10  1  0
  4  7  2  0
 10  3  1  0
 11 21  1  0
  8  7  1  0
 21 12  1  0
 12  3  1  0
  1 35  1  0
  1 36  1  0
  3 37  1  0
  3 38  1  0
 69 39  1  0
 69 40  1  0
 69 41  1  0
 70 42  1  0
 70 43  1  0
 70 44  1  0
  6 45  1  0
  7 46  1  0
  8 47  1  0
 12 48  1  0
 12 49  1  0
 13 50  1  0
 18 51  1  0
 21 52  1  6
 22 53  1  0
 22 54  1  0
 25 55  1  0
 25 56  1  0
 25 57  1  0
 26 58  1  0
 26 59  1  0
 26 60  1  0
 27 61  1  0
 27 62  1  0
 27 63  1  0
 28 64  1  0
 30 65  1  0
 31 66  1  0
 32 67  1  0
 34 68  1  0
M  END
