
     RDKit          3D

 59 61  0  0  0  0  0  0  0  0999 V2000
    7.5293    4.4964   -0.4748 C   0  0  0  0  0  0  0  0  0  0  0  0
    6.3896    3.5376   -0.2826 C   0  0  0  0  0  0  0  0  0  0  0  0
    5.0718    4.0350   -0.7986 C   0  0  0  0  0  0  0  0  0  0  0  0
    6.5796    2.3556    0.3096 C   0  0  0  0  0  0  0  0  0  0  0  0
    5.5721    1.2825    0.5797 C   0  0  0  0  0  0  0  0  0  0  0  0
    5.8374    0.0194   -0.2540 C   0  0  0  0  0  0  0  0  0  0  0  0
    4.9417   -1.1213    0.1411 C   0  0  0  0  0  0  0  0  0  0  0  0
    5.2085   -1.7434    1.4888 C   0  0  0  0  0  0  0  0  0  0  0  0
    3.9580   -1.5284   -0.6623 C   0  0  0  0  0  0  0  0  0  0  0  0
    2.9701   -2.6210   -0.3681 C   0  0  0  0  0  0  0  0  0  0  0  0
    1.5504   -2.1179   -0.4412 C   0  0  0  0  0  0  0  0  0  0  0  0
    0.9564   -1.4982    0.6527 C   0  0  0  0  0  0  0  0  0  0  0  0
    1.6651   -1.3697    1.7678 O   0  0  0  0  0  0  0  0  0  0  0  0
    0.7978   -2.1984   -1.6177 C   0  0  0  0  0  0  0  0  0  0  0  0
    1.3882   -2.7618   -2.6765 O   0  0  0  0  0  0  0  0  0  0  0  0
   -0.5167   -1.7311   -1.7054 C   0  0  0  0  0  0  0  0  0  0  0  0
   -1.0943   -1.1428   -0.6006 C   0  0  0  0  0  0  0  0  0  0  0  0
   -2.3582   -0.7099   -0.7173 O   0  0  0  0  0  0  0  0  0  0  0  0
   -0.3702   -0.9971    0.5976 C   0  0  0  0  0  0  0  0  0  0  0  0
   -0.9342   -0.2633    1.7029 C   0  0  0  0  0  0  0  0  0  0  0  0
   -0.3320   -0.0866    2.7634 O   0  0  0  0  0  0  0  0  0  0  0  0
   -2.2955    0.3266    1.4675 C   0  0  0  0  0  0  0  0  0  0  0  0
   -3.0910   -0.5302    0.4975 C   0  0  1  0  0  0  0  0  0  0  0  0
   -4.4228    0.0689    0.1531 C   0  0  0  0  0  0  0  0  0  0  0  0
   -5.5811   -0.4971    0.6761 C   0  0  0  0  0  0  0  0  0  0  0  0
   -6.8258    0.0555    0.4183 C   0  0  0  0  0  0  0  0  0  0  0  0
   -7.9207   -0.5251    0.9515 O   0  0  0  0  0  0  0  0  0  0  0  0
   -6.9168    1.1942   -0.3915 C   0  0  0  0  0  0  0  0  0  0  0  0
   -8.1618    1.6726   -0.6098 O   0  0  0  0  0  0  0  0  0  0  0  0
   -5.7630    1.7565   -0.9154 C   0  0  0  0  0  0  0  0  0  0  0  0
   -4.5194    1.2028   -0.6427 C   0  0  0  0  0  0  0  0  0  0  0  0
    7.6950    4.7022   -1.5356 H   0  0  0  0  0  0  0  0  0  0  0  0
    7.3129    5.4595   -0.0045 H   0  0  0  0  0  0  0  0  0  0  0  0
    8.4613    4.1179   -0.0559 H   0  0  0  0  0  0  0  0  0  0  0  0
    4.2665    3.3089   -0.7129 H   0  0  0  0  0  0  0  0  0  0  0  0
    4.7666    4.9382   -0.2637 H   0  0  0  0  0  0  0  0  0  0  0  0
    5.1553    4.3157   -1.8515 H   0  0  0  0  0  0  0  0  0  0  0  0
    7.5917    2.1142    0.6289 H   0  0  0  0  0  0  0  0  0  0  0  0
    5.6126    1.0234    1.6432 H   0  0  0  0  0  0  0  0  0  0  0  0
    4.5529    1.6225    0.3887 H   0  0  0  0  0  0  0  0  0  0  0  0
    5.7046    0.2594   -1.3118 H   0  0  0  0  0  0  0  0  0  0  0  0
    6.8853   -0.2762   -0.1271 H   0  0  0  0  0  0  0  0  0  0  0  0
    6.0388   -1.2536    1.9978 H   0  0  0  0  0  0  0  0  0  0  0  0
    4.3383   -1.6798    2.1426 H   0  0  0  0  0  0  0  0  0  0  0  0
    5.4672   -2.8004    1.4018 H   0  0  0  0  0  0  0  0  0  0  0  0
    3.8318   -1.0307   -1.6210 H   0  0  0  0  0  0  0  0  0  0  0  0
    3.1015   -3.4361   -1.0834 H   0  0  0  0  0  0  0  0  0  0  0  0
    3.1574   -3.0520    0.6153 H   0  0  0  0  0  0  0  0  0  0  0  0
    1.1126   -0.8803    2.4225 H   0  0  0  0  0  0  0  0  0  0  0  0
    0.7934   -2.7742   -3.4357 H   0  0  0  0  0  0  0  0  0  0  0  0
   -1.0827   -1.8361   -2.6234 H   0  0  0  0  0  0  0  0  0  0  0  0
   -2.8324    0.4221    2.4118 H   0  0  0  0  0  0  0  0  0  0  0  0
   -2.1618    1.3378    1.0654 H   0  0  0  0  0  0  0  0  0  0  0  0
   -3.2460   -1.5183    0.9495 H   0  0  0  0  0  0  0  0  0  0  0  0
   -5.5232   -1.3831    1.2986 H   0  0  0  0  0  0  0  0  0  0  0  0
   -8.7164   -0.0424    0.6991 H   0  0  0  0  0  0  0  0  0  0  0  0
   -8.1377    2.4570   -1.1688 H   0  0  0  0  0  0  0  0  0  0  0  0
   -5.8353    2.6372   -1.5435 H   0  0  0  0  0  0  0  0  0  0  0  0
   -3.6348    1.6657   -1.0609 H   0  0  0  0  0  0  0  0  0  0  0  0
 13 12  1  0
 21 20  2  0
  8  7  1  0
  7  6  1  0
  7  9  2  0
 10  9  1  0
 10 11  1  0
  6  5  1  0
  3  2  1  0
  5  4  1  0
 12 11  2  0
 12 19  1  0
 20 19  1  0
 20 22  1  0
 11 14  1  0
 19 17  2  0
 22 23  1  0
  2  4  2  0
  2  1  1  0
 14 15  1  0
 14 16  2  0
 23 18  1  0
 23 24  1  0
 17 16  1  0
 17 18  1  0
 31 24  1  0
 31 30  2  0
 24 25  2  0
 30 28  1  0
 25 26  1  0
 28 26  2  0
 28 29  1  0
 26 27  1  0
  1 32  1  0
  1 33  1  0
  1 34  1  0
  3 35  1  0
  3 36  1  0
  3 37  1  0
  4 38  1  0
  5 39  1  0
  5 40  1  0
  6 41  1  0
  6 42  1  0
  8 43  1  0
  8 44  1  0
  8 45  1  0
  9 46  1  0
 10 47  1  0
 10 48  1  0
 13 49  1  0
 15 50  1  0
 16 51  1  0
 22 52  1  0
 22 53  1  0
 23 54  1  1
 25 55  1  0
 27 56  1  0
 29 57  1  0
 30 58  1  0
 31 59  1  0
M  END
