
     RDKit          3D

 58 59  0  0  0  0  0  0  0  0999 V2000
    4.8480    0.4277    2.3415 C   0  0  0  0  0  0  0  0  0  0  0  0
    5.0309   -0.8256    1.5001 C   0  0  0  0  0  0  0  0  0  0  0  0
    4.2647   -0.8146    0.1821 C   0  0  1  0  0  0  0  0  0  0  0  0
    4.5582   -2.0740   -0.6274 C   0  0  0  0  0  0  0  0  0  0  0  0
    3.9848   -2.0948   -2.0374 C   0  0  0  0  0  0  0  0  0  0  0  0
    2.8778   -0.7183    0.4817 O   0  0  0  0  0  0  0  0  0  0  0  0
    2.1053    0.1570   -0.2866 C   0  0  1  0  0  0  0  0  0  0  0  0
    0.6520   -0.3115   -0.1845 C   0  0  2  0  0  0  0  0  0  0  0  0
    0.4974   -1.7022   -0.5044 N   0  0  0  0  0  0  0  0  0  0  0  0
    0.3756   -2.6774    0.4213 C   0  0  0  0  0  0  0  0  0  0  0  0
    0.4475   -4.0802   -0.1266 C   0  0  0  0  0  0  0  0  0  0  0  0
    0.2251   -2.4549    1.6117 O   0  0  0  0  0  0  0  0  0  0  0  0
    2.2174    1.5996    0.2017 C   0  0  0  0  0  0  0  0  0  0  0  0
    1.1696    2.4807   -0.4154 C   0  0  0  0  0  0  0  0  0  0  0  0
    1.3170    3.9622   -0.3599 C   0  0  0  0  0  0  0  0  0  0  0  0
    0.5705    4.7463   -0.8944 O   0  0  0  0  0  0  0  0  0  0  0  0
    2.3644    4.3308    0.3622 O   0  0  0  0  0  0  0  0  0  0  0  0
    0.0749    1.9984   -1.0025 C   0  0  0  0  0  0  0  0  0  0  0  0
   -0.2136    0.5358   -1.1197 C   0  0  2  0  0  0  0  0  0  0  0  0
   -1.6193    0.2710   -0.8806 N   0  0  0  0  0  0  0  0  0  0  0  0
   -2.3752    0.6507    0.1655 C   0  0  0  0  0  0  0  0  0  0  0  0
   -2.3038   -0.5107   -1.6985 N   0  0  0  0  0  0  0  0  0  0  0  0
   -3.4894   -0.6416   -1.2185 N   0  0  0  0  0  0  0  0  0  0  0  0
   -3.5881    0.0574   -0.0643 C   0  0  0  0  0  0  0  0  0  0  0  0
   -4.8351    0.0861    0.7643 C   0  0  1  0  0  0  0  0  0  0  0  0
   -6.0557    0.4760   -0.0660 C   0  0  0  0  0  0  0  0  0  0  0  0
   -7.3270    0.5889    0.7626 C   0  0  0  0  0  0  0  0  0  0  0  0
   -5.0185   -1.1391    1.4473 O   0  0  0  0  0  0  0  0  0  0  0  0
    5.1729    1.3202    1.8031 H   0  0  0  0  0  0  0  0  0  0  0  0
    3.8076    0.5701    2.6314 H   0  0  0  0  0  0  0  0  0  0  0  0
    5.4389    0.3673    3.2561 H   0  0  0  0  0  0  0  0  0  0  0  0
    6.0914   -0.9588    1.2714 H   0  0  0  0  0  0  0  0  0  0  0  0
    4.7318   -1.7072    2.0757 H   0  0  0  0  0  0  0  0  0  0  0  0
    4.5864    0.0635   -0.3973 H   0  0  0  0  0  0  0  0  0  0  0  0
    5.6446   -2.1834   -0.6879 H   0  0  0  0  0  0  0  0  0  0  0  0
    4.1945   -2.9415   -0.0680 H   0  0  0  0  0  0  0  0  0  0  0  0
    4.3078   -1.2261   -2.6145 H   0  0  0  0  0  0  0  0  0  0  0  0
    4.3192   -2.9847   -2.5719 H   0  0  0  0  0  0  0  0  0  0  0  0
    2.8953   -2.1141   -2.0409 H   0  0  0  0  0  0  0  0  0  0  0  0
    2.4035    0.1250   -1.3455 H   0  0  0  0  0  0  0  0  0  0  0  0
    0.3138   -0.1675    0.8450 H   0  0  0  0  0  0  0  0  0  0  0  0
    0.6520   -1.9776   -1.4618 H   0  0  0  0  0  0  0  0  0  0  0  0
    1.4173   -4.5087    0.1324 H   0  0  0  0  0  0  0  0  0  0  0  0
   -0.3178   -4.7000    0.3374 H   0  0  0  0  0  0  0  0  0  0  0  0
    0.3344   -4.1340   -1.2080 H   0  0  0  0  0  0  0  0  0  0  0  0
    2.1228    1.6241    1.2923 H   0  0  0  0  0  0  0  0  0  0  0  0
    3.2148    1.9802   -0.0298 H   0  0  0  0  0  0  0  0  0  0  0  0
    2.4308    5.2974    0.3824 H   0  0  0  0  0  0  0  0  0  0  0  0
   -0.6526    2.6680   -1.4462 H   0  0  0  0  0  0  0  0  0  0  0  0
   -0.0383    0.2301   -2.1572 H   0  0  0  0  0  0  0  0  0  0  0  0
   -2.0179    1.2873    0.9581 H   0  0  0  0  0  0  0  0  0  0  0  0
   -4.6961    0.8373    1.5475 H   0  0  0  0  0  0  0  0  0  0  0  0
   -5.8464    1.4322   -0.5526 H   0  0  0  0  0  0  0  0  0  0  0  0
   -6.1915   -0.2513   -0.8723 H   0  0  0  0  0  0  0  0  0  0  0  0
   -7.5963   -0.3620    1.2215 H   0  0  0  0  0  0  0  0  0  0  0  0
   -7.2126    1.3248    1.5605 H   0  0  0  0  0  0  0  0  0  0  0  0
   -8.1659    0.9039    0.1418 H   0  0  0  0  0  0  0  0  0  0  0  0
   -5.2087   -1.8217    0.7941 H   0  0  0  0  0  0  0  0  0  0  0  0
 16 15  2  0
 23 22  2  0
 23 24  1  0
 22 20  1  0
 15 14  1  0
 15 17  1  0
 27 26  1  0
 14 18  2  0
 14 13  1  0
 18 19  1  0
 13  7  1  0
 24 25  1  0
 24 21  2  0
 20 19  1  0
 20 21  1  0
 25 26  1  0
 25 28  1  0
 12 10  2  0
 19  8  1  0
  8  7  1  0
  8  9  1  0
  7  6  1  0
  6  3  1  0
 10  9  1  0
 10 11  1  0
  3  2  1  0
  3  4  1  0
  1  2  1  0
  5  4  1  0
  1 29  1  0
  1 30  1  0
  1 31  1  0
  2 32  1  0
  2 33  1  0
  3 34  1  6
  4 35  1  0
  4 36  1  0
  5 37  1  0
  5 38  1  0
  5 39  1  0
  7 40  1  6
  8 41  1  1
  9 42  1  0
 11 43  1  0
 11 44  1  0
 11 45  1  0
 13 46  1  0
 13 47  1  0
 17 48  1  0
 18 49  1  0
 19 50  1  6
 21 51  1  0
 25 52  1  1
 26 53  1  0
 26 54  1  0
 27 55  1  0
 27 56  1  0
 27 57  1  0
 28 58  1  0
M  END
