
     RDKit          3D

 63 66  0  0  0  0  0  0  0  0999 V2000
    0.1359    4.0109    1.3777 C   0  0  0  0  0  0  0  0  0  0  0  0
   -0.1567    2.6574    1.4424 C   0  0  0  0  0  0  0  0  0  0  0  0
   -0.7817    1.9910    0.3942 C   0  0  0  0  0  0  0  0  0  0  0  0
   -1.0627    0.5122    0.5094 C   0  0  1  0  0  0  0  0  0  0  0  0
   -1.8246    0.5397   -1.7860 C   0  0  0  0  0  0  0  0  0  0  0  0
   -0.8656    4.0710   -0.8096 C   0  0  0  0  0  0  0  0  0  0  0  0
   -5.4060   -1.5398   -0.4495 C   0  0  0  0  0  0  0  0  0  0  0  0
    2.6168   -0.4269    0.1230 C   0  0  0  0  0  0  0  0  0  0  0  0
    4.9991   -0.0723    0.0059 C   0  0  0  0  0  0  0  0  0  0  0  0
    0.6602    6.7549    1.0982 C   0  0  0  0  0  0  0  0  0  0  0  0
   -0.2184    4.7276    0.2361 C   0  0  0  0  0  0  0  0  0  0  0  0
   -2.0884    0.1109   -0.4240 N   0  0  0  0  0  0  0  0  0  0  0  0
   -1.8976    2.0542   -1.8703 C   0  0  0  0  0  0  0  0  0  0  0  0
   -1.1500    2.7157   -0.7437 C   0  0  0  0  0  0  0  0  0  0  0  0
   -3.1908   -0.5338    0.0067 C   0  0  0  0  0  0  0  0  0  0  0  0
   -3.3767   -0.8311    1.1741 O   0  0  0  0  0  0  0  0  0  0  0  0
   -4.2331   -0.8685   -1.0533 C   0  0  0  0  0  0  0  0  0  0  0  0
   -6.6442   -1.0983   -0.1777 C   0  0  0  0  0  0  0  0  0  0  0  0
   -7.3607   -2.2096    0.4121 C   0  0  0  0  0  0  0  0  0  0  0  0
   -8.4835   -2.2975    0.8814 O   0  0  0  0  0  0  0  0  0  0  0  0
   -6.4766   -3.2639    0.3111 N   0  0  0  0  0  0  0  0  0  0  0  0
   -5.2500   -2.8315   -0.1271 O   0  0  0  0  0  0  0  0  0  0  0  0
    0.1430   -0.4351    0.3101 C   0  0  0  0  0  0  0  0  0  0  0  0
   -0.0475   -1.6341    0.2590 O   0  0  0  0  0  0  0  0  0  0  0  0
    1.3522    0.1577    0.2262 N   0  0  0  0  0  0  0  0  0  0  0  0
    3.7141    0.4306    0.1030 C   0  0  0  0  0  0  0  0  0  0  0  0
    5.2778   -1.4373   -0.0762 C   0  0  0  0  0  0  0  0  0  0  0  0
    4.1485   -2.2494   -0.0549 C   0  0  0  0  0  0  0  0  0  0  0  0
    4.2885   -3.5870   -0.1330 F   0  0  0  0  0  0  0  0  0  0  0  0
    2.8460   -1.7969    0.0404 C   0  0  0  0  0  0  0  0  0  0  0  0
    6.6989   -1.9864   -0.1774 C   0  0  1  0  0  0  0  0  0  0  0  0
    7.0056   -2.8816    1.0330 C   0  0  0  0  0  0  0  0  0  0  0  0
    6.8736   -2.7741   -1.4851 C   0  0  0  0  0  0  0  0  0  0  0  0
    7.7328   -0.8576   -0.1831 C   0  0  0  0  0  0  0  0  0  0  0  0
    0.6247    4.4813    2.2190 H   0  0  0  0  0  0  0  0  0  0  0  0
    0.1128    2.1118    2.3398 H   0  0  0  0  0  0  0  0  0  0  0  0
   -1.4173    0.3000    1.5211 H   0  0  0  0  0  0  0  0  0  0  0  0
   -0.8308    0.1874   -2.0774 H   0  0  0  0  0  0  0  0  0  0  0  0
   -2.5215    0.0829   -2.4823 H   0  0  0  0  0  0  0  0  0  0  0  0
   -1.1560    4.6373   -1.6875 H   0  0  0  0  0  0  0  0  0  0  0  0
    5.8098    0.6411   -0.0028 H   0  0  0  0  0  0  0  0  0  0  0  0
    0.0764    6.7489    2.0223 H   0  0  0  0  0  0  0  0  0  0  0  0
    1.6574    6.3599    1.3074 H   0  0  0  0  0  0  0  0  0  0  0  0
    0.7559    7.7807    0.7516 H   0  0  0  0  0  0  0  0  0  0  0  0
   -1.5060    2.3860   -2.8332 H   0  0  0  0  0  0  0  0  0  0  0  0
   -2.9450    2.3691   -1.8335 H   0  0  0  0  0  0  0  0  0  0  0  0
   -3.7991   -1.5088   -1.8261 H   0  0  0  0  0  0  0  0  0  0  0  0
   -4.5720    0.0415   -1.5518 H   0  0  0  0  0  0  0  0  0  0  0  0
   -7.0274   -0.1049   -0.3389 H   0  0  0  0  0  0  0  0  0  0  0  0
   -6.3996   -4.0189    0.9802 H   0  0  0  0  0  0  0  0  0  0  0  0
    1.3557    1.1673    0.2348 H   0  0  0  0  0  0  0  0  0  0  0  0
    3.5697    1.5024    0.1646 H   0  0  0  0  0  0  0  0  0  0  0  0
    2.0430   -2.5158    0.0452 H   0  0  0  0  0  0  0  0  0  0  0  0
    6.9211   -2.3164    1.9631 H   0  0  0  0  0  0  0  0  0  0  0  0
    6.3453   -3.7439    1.1005 H   0  0  0  0  0  0  0  0  0  0  0  0
    8.0294   -3.2560    0.9685 H   0  0  0  0  0  0  0  0  0  0  0  0
    7.8980   -3.1442   -1.5606 H   0  0  0  0  0  0  0  0  0  0  0  0
    6.2090   -3.6327   -1.5539 H   0  0  0  0  0  0  0  0  0  0  0  0
    6.6898   -2.1341   -2.3501 H   0  0  0  0  0  0  0  0  0  0  0  0
    7.7049   -0.2660    0.7336 H   0  0  0  0  0  0  0  0  0  0  0  0
    8.7316   -1.2897   -0.2596 H   0  0  0  0  0  0  0  0  0  0  0  0
    7.6036   -0.1814   -1.0298 H   0  0  0  0  0  0  0  0  0  0  0  0
    0.0151    6.0398    0.0619 O   0  0  0  0  0  0  0  0  0  0  0  0
 10 63  1  0
 31 32  1  1
  1  2  2  0
  1 11  1  0
 63 11  1  0
  9 26  2  0
  9 27  1  0
 26  8  1  0
  2  3  1  0
 11  6  2  0
 31 34  1  0
 31 27  1  0
 31 33  1  0
 27 28  2  0
  8 25  1  0
  8 30  2  0
 25 23  1  0
  3  4  1  0
  3 14  2  0
  6 14  1  0
 28 30  1  0
 28 29  1  0
  4 23  1  0
  4 12  1  0
 14 13  1  0
 23 24  2  0
 12  5  1  0
 12 15  1  0
 16 15  2  0
 13  5  1  0
 15 17  1  0
 21 22  1  0
 21 19  1  0
 20 19  2  0
 22  7  1  0
 19 18  1  0
  7 18  2  0
  7 17  1  0
  1 35  1  0
  2 36  1  0
  4 37  1  1
  5 38  1  0
  5 39  1  0
  6 40  1  0
  9 41  1  0
 10 42  1  0
 10 43  1  0
 10 44  1  0
 13 45  1  0
 13 46  1  0
 17 47  1  0
 17 48  1  0
 18 49  1  0
 21 50  1  0
 25 51  1  0
 26 52  1  0
 30 53  1  0
 32 54  1  0
 32 55  1  0
 32 56  1  0
 33 57  1  0
 33 58  1  0
 33 59  1  0
 34 60  1  0
 34 61  1  0
 34 62  1  0
M  END
