
     RDKit          3D

 30 31  0  0  0  0  0  0  0  0999 V2000
   -3.9702   -1.3269    0.0379 C   0  0  0  0  0  0  0  0  0  0  0  0
   -3.6384    0.0253    0.0111 C   0  0  0  0  0  0  0  0  0  0  0  0
   -2.3004    0.4077   -0.0078 C   0  0  0  0  0  0  0  0  0  0  0  0
   -1.2724   -0.5344   -0.0011 C   0  0  0  0  0  0  0  0  0  0  0  0
   -1.6274   -1.8887    0.0254 C   0  0  0  0  0  0  0  0  0  0  0  0
   -2.9557   -2.2749    0.0450 C   0  0  0  0  0  0  0  0  0  0  0  0
    0.1097   -0.0606   -0.0214 C   0  0  0  0  0  0  0  0  0  0  0  0
    1.2097   -0.8265   -0.0154 C   0  0  0  0  0  0  0  0  0  0  0  0
    2.5923   -0.3610   -0.0359 C   0  0  0  0  0  0  0  0  0  0  0  0
    3.6262   -1.3025   -0.0440 C   0  0  0  0  0  0  0  0  0  0  0  0
    4.9577   -0.9270   -0.0644 C   0  0  0  0  0  0  0  0  0  0  0  0
    5.2957    0.4238   -0.0762 C   0  0  0  0  0  0  0  0  0  0  0  0
    4.2800    1.3811   -0.0679 C   0  0  0  0  0  0  0  0  0  0  0  0
    2.9549    0.9899   -0.0482 C   0  0  0  0  0  0  0  0  0  0  0  0
   -4.6698    1.0935    0.0017 C   0  0  0  0  0  0  0  0  0  0  0  0
    6.6006    0.7502   -0.0938 O   0  0  0  0  0  0  0  0  0  0  0  0
   -4.4151    2.2741   -0.0171 O   0  0  0  0  0  0  0  0  0  0  0  0
   -5.9070    0.6190    0.0157 O   0  0  0  0  0  0  0  0  0  0  0  0
   -5.0014   -1.6506    0.0534 H   0  0  0  0  0  0  0  0  0  0  0  0
   -2.0496    1.4610   -0.0291 H   0  0  0  0  0  0  0  0  0  0  0  0
   -0.8627   -2.6542    0.0304 H   0  0  0  0  0  0  0  0  0  0  0  0
   -3.2054   -3.3273    0.0661 H   0  0  0  0  0  0  0  0  0  0  0  0
    0.2133    1.0199   -0.0450 H   0  0  0  0  0  0  0  0  0  0  0  0
    1.1025   -1.9071    0.0055 H   0  0  0  0  0  0  0  0  0  0  0  0
    3.3835   -2.3585   -0.0334 H   0  0  0  0  0  0  0  0  0  0  0  0
    5.7374   -1.6780   -0.0705 H   0  0  0  0  0  0  0  0  0  0  0  0
    4.5248    2.4372   -0.0765 H   0  0  0  0  0  0  0  0  0  0  0  0
    2.1954    1.7609   -0.0418 H   0  0  0  0  0  0  0  0  0  0  0  0
    6.7090    1.7080   -0.0982 H   0  0  0  0  0  0  0  0  0  0  0  0
   -6.5420    1.3505    0.0064 H   0  0  0  0  0  0  0  0  0  0  0  0
 16 12  1  0
 13 12  2  0
 13 14  1  0
 12 11  1  0
 11 10  2  0
 14  9  2  0
 10  9  1  0
  9  8  1  0
  8  7  2  0
  7  4  1  0
  4  5  2  0
  4  3  1  0
  5  6  1  0
  3  2  2  0
  6  1  2  0
  2  1  1  0
  2 15  1  0
 17 15  2  0
 15 18  1  0
  1 19  1  0
  3 20  1  0
  5 21  1  0
  6 22  1  0
  7 23  1  0
  8 24  1  0
 10 25  1  0
 11 26  1  0
 13 27  1  0
 14 28  1  0
 16 29  1  0
 18 30  1  0
M  END
