
     RDKit          3D

 55 57  0  0  0  0  0  0  0  0999 V2000
   -1.3918    0.2113    0.3711 C   0  0  0  0  0  0  0  0  0  0  0  0
   -0.9040    0.7354   -0.8215 C   0  0  0  0  0  0  0  0  0  0  0  0
   -0.4988   -0.3900    1.2550 C   0  0  0  0  0  0  0  0  0  0  0  0
    0.4438    0.6547   -1.1308 C   0  0  0  0  0  0  0  0  0  0  0  0
    0.8467   -0.4876    0.9404 C   0  0  0  0  0  0  0  0  0  0  0  0
    1.3246    0.0355   -0.2525 C   0  0  0  0  0  0  0  0  0  0  0  0
    2.7093   -0.1043   -0.5635 N   0  0  0  0  0  0  0  0  0  0  0  0
    3.6844    1.1275    0.0146 S   0  0  1  0  0  0  0  0  0  0  0  0
    3.8346    2.1815   -0.9797 O   0  0  0  0  0  0  0  0  0  0  0  0
    3.1732    1.4826    1.3275 O   0  0  0  0  0  0  0  0  0  0  0  0
    5.2322    0.2938    0.1920 C   0  0  0  0  0  0  0  0  0  0  0  0
    5.3256   -0.7324    1.1250 C   0  0  0  0  0  0  0  0  0  0  0  0
    6.3212    0.6892   -0.5695 C   0  0  0  0  0  0  0  0  0  0  0  0
    7.5325    0.0335   -0.3938 C   0  0  0  0  0  0  0  0  0  0  0  0
    6.5392   -1.3780    1.2885 C   0  0  0  0  0  0  0  0  0  0  0  0
    7.6405   -0.9957    0.5300 C   0  0  0  0  0  0  0  0  0  0  0  0
    3.0453   -0.5729   -1.9064 C   0  0  0  0  0  0  0  0  0  0  0  0
   -2.8786    0.3160    0.7098 C   0  0  2  0  0  0  0  0  0  0  0  0
   -3.7341    0.3328   -0.5323 C   0  0  0  0  0  0  0  0  0  0  0  0
   -3.0669    1.6152    1.5184 C   0  0  1  0  0  0  0  0  0  0  0  0
   -4.3366    1.7939    1.8886 F   0  0  0  0  0  0  0  0  0  0  0  0
   -2.3373    1.5841    2.6350 F   0  0  0  0  0  0  0  0  0  0  0  0
   -2.6860    2.6940    0.8301 F   0  0  0  0  0  0  0  0  0  0  0  0
   -3.3021   -0.6824    1.6087 O   0  0  0  0  0  0  0  0  0  0  0  0
   -4.5273    1.3179   -1.0761 C   0  0  0  0  0  0  0  0  0  0  0  0
   -3.7729   -0.7446   -1.3856 N   0  0  0  0  0  0  0  0  0  0  0  0
   -4.5828   -0.4509   -2.4404 C   0  0  0  0  0  0  0  0  0  0  0  0
   -5.0621    0.8212   -2.2866 C   0  0  0  0  0  0  0  0  0  0  0  0
   -3.1850   -2.0571   -1.2166 C   0  0  0  0  0  0  0  0  0  0  0  0
   -4.1723   -3.0412   -0.6030 C   0  0  0  0  0  0  0  0  0  0  0  0
   -3.4955   -4.2508   -0.3988 O   0  0  0  0  0  0  0  0  0  0  0  0
   -4.3297   -5.2547    0.1238 C   0  0  0  0  0  0  0  0  0  0  0  0
   -1.5741    1.2105   -1.5260 H   0  0  0  0  0  0  0  0  0  0  0  0
   -0.8322   -0.7975    2.2005 H   0  0  0  0  0  0  0  0  0  0  0  0
    0.7955    1.0696   -2.0664 H   0  0  0  0  0  0  0  0  0  0  0  0
    1.5255   -0.9816    1.6224 H   0  0  0  0  0  0  0  0  0  0  0  0
    4.4685   -1.0319    1.7140 H   0  0  0  0  0  0  0  0  0  0  0  0
    6.2361    1.4904   -1.2901 H   0  0  0  0  0  0  0  0  0  0  0  0
    8.3891    0.3281   -0.9846 H   0  0  0  0  0  0  0  0  0  0  0  0
    6.6251   -2.1807    2.0079 H   0  0  0  0  0  0  0  0  0  0  0  0
    8.5856   -1.5058    0.6601 H   0  0  0  0  0  0  0  0  0  0  0  0
    2.8659    0.1675   -2.6875 H   0  0  0  0  0  0  0  0  0  0  0  0
    4.0928   -0.8689   -1.9419 H   0  0  0  0  0  0  0  0  0  0  0  0
    2.4478   -1.4573   -2.1134 H   0  0  0  0  0  0  0  0  0  0  0  0
   -2.7804   -1.4830    1.4921 H   0  0  0  0  0  0  0  0  0  0  0  0
   -4.7055    2.3041   -0.6813 H   0  0  0  0  0  0  0  0  0  0  0  0
   -4.7507   -1.1767   -3.2205 H   0  0  0  0  0  0  0  0  0  0  0  0
   -5.7191    1.3417   -2.9646 H   0  0  0  0  0  0  0  0  0  0  0  0
   -2.8692   -2.4135   -2.1975 H   0  0  0  0  0  0  0  0  0  0  0  0
   -2.2762   -1.9920   -0.6186 H   0  0  0  0  0  0  0  0  0  0  0  0
   -4.5748   -2.6425    0.3381 H   0  0  0  0  0  0  0  0  0  0  0  0
   -5.0269   -3.1710   -1.2813 H   0  0  0  0  0  0  0  0  0  0  0  0
   -4.7452   -4.9751    1.0989 H   0  0  0  0  0  0  0  0  0  0  0  0
   -5.1671   -5.4817   -0.5463 H   0  0  0  0  0  0  0  0  0  0  0  0
   -3.7324   -6.1569    0.2486 H   0  0  0  0  0  0  0  0  0  0  0  0
 28 27  2  0
 28 25  1  0
 27 26  1  0
 25 19  2  0
 26 19  1  0
 26 29  1  0
 19 18  1  0
 20 22  1  1
 21 20  1  0
 29 30  1  0
  2  4  2  0
  2  1  1  0
 20 18  1  0
 20 23  1  0
 30 31  1  0
 18  1  1  0
 18 24  1  1
  4  6  1  0
 31 32  1  0
  1  3  2  0
 10  8  2  0
  6  7  1  0
  6  5  2  0
  8  7  1  6
  7 17  1  0
  3  5  1  0
  8  9  2  0
  8 11  1  0
 12 11  2  0
 12 15  1  0
 11 13  1  0
 15 16  2  0
 13 14  2  0
 16 14  1  0
  2 33  1  0
  3 34  1  0
  4 35  1  0
  5 36  1  0
 12 37  1  0
 13 38  1  0
 14 39  1  0
 15 40  1  0
 16 41  1  0
 17 42  1  0
 17 43  1  0
 17 44  1  0
 24 45  1  0
 25 46  1  0
 27 47  1  0
 28 48  1  0
 29 49  1  0
 29 50  1  0
 30 51  1  0
 30 52  1  0
 32 53  1  0
 32 54  1  0
 32 55  1  0
M  END
