
     RDKit          3D

 37 39  0  0  0  0  0  0  0  0999 V2000
   -5.4168    0.3209   -0.1361 C   0  0  0  0  0  0  0  0  0  0  0  0
   -4.8498   -0.5525   -1.0579 C   0  0  0  0  0  0  0  0  0  0  0  0
   -3.4957   -0.8282   -0.9812 C   0  0  0  0  0  0  0  0  0  0  0  0
   -2.6800   -0.2610   -0.0018 C   0  0  0  0  0  0  0  0  0  0  0  0
   -3.2574    0.6132    0.9351 C   0  0  0  0  0  0  0  0  0  0  0  0
   -4.6162    0.8902    0.8504 C   0  0  0  0  0  0  0  0  0  0  0  0
   -1.2619   -0.6413    0.0202 C   0  0  0  0  0  0  0  0  0  0  0  0
    0.0129    0.5232   -0.0002 S   0  0  0  0  0  0  0  0  0  0  0  0
    1.2417   -0.6894   -0.0756 C   0  0  0  0  0  0  0  0  0  0  0  0
    0.6715   -1.9325   -0.0815 C   0  0  0  0  0  0  0  0  0  0  0  0
   -0.7443   -1.9051   -0.0329 C   0  0  0  0  0  0  0  0  0  0  0  0
    2.6743   -0.3745   -0.0267 C   0  0  0  0  0  0  0  0  0  0  0  0
    3.4656   -1.0737    0.8889 C   0  0  0  0  0  0  0  0  0  0  0  0
    4.8283   -0.8682    0.9916 C   0  0  0  0  0  0  0  0  0  0  0  0
    5.4358    0.0696    0.1627 C   0  0  0  0  0  0  0  0  0  0  0  0
    4.6628    0.7706   -0.7580 C   0  0  0  0  0  0  0  0  0  0  0  0
    3.2919    0.5632   -0.8698 C   0  0  0  0  0  0  0  0  0  0  0  0
    6.7632    0.2587    0.2856 O   0  0  0  0  0  0  0  0  0  0  0  0
   -6.7236    0.6460   -0.1475 O   0  0  0  0  0  0  0  0  0  0  0  0
    2.5274    1.3376   -1.9054 C   0  0  0  0  0  0  0  0  0  0  0  0
   -2.4582    1.2505    2.0352 C   0  0  0  0  0  0  0  0  0  0  0  0
   -5.4536   -1.0094   -1.8332 H   0  0  0  0  0  0  0  0  0  0  0  0
   -3.0543   -1.4952   -1.7109 H   0  0  0  0  0  0  0  0  0  0  0  0
   -5.0715    1.5557    1.5750 H   0  0  0  0  0  0  0  0  0  0  0  0
    1.2550   -2.8421   -0.1226 H   0  0  0  0  0  0  0  0  0  0  0  0
   -1.3650   -2.7907   -0.0325 H   0  0  0  0  0  0  0  0  0  0  0  0
    2.9936   -1.7909    1.5489 H   0  0  0  0  0  0  0  0  0  0  0  0
    5.4161   -1.4191    1.7146 H   0  0  0  0  0  0  0  0  0  0  0  0
    5.1392    1.4900   -1.4165 H   0  0  0  0  0  0  0  0  0  0  0  0
    7.0638    0.9409   -0.3254 H   0  0  0  0  0  0  0  0  0  0  0  0
   -7.1735    0.2004   -0.8737 H   0  0  0  0  0  0  0  0  0  0  0  0
    1.9557    2.1539   -1.4603 H   0  0  0  0  0  0  0  0  0  0  0  0
    3.2043    1.7816   -2.6339 H   0  0  0  0  0  0  0  0  0  0  0  0
    1.8214    0.7053   -2.4436 H   0  0  0  0  0  0  0  0  0  0  0  0
   -1.8735    2.0969    1.6695 H   0  0  0  0  0  0  0  0  0  0  0  0
   -3.1137    1.6290    2.8183 H   0  0  0  0  0  0  0  0  0  0  0  0
   -1.7588    0.5499    2.4915 H   0  0  0  0  0  0  0  0  0  0  0  0
 19  1  1  0
  1  6  2  0
  1  2  1  0
  6  5  1  0
 21  5  1  0
  2  3  2  0
  5  4  2  0
  3  4  1  0
  4  7  1  0
  7  8  1  0
  7 11  2  0
  8  9  1  0
 11 10  1  0
 20 17  1  0
 10  9  2  0
  9 12  1  0
 17 12  1  0
 17 16  2  0
 12 13  2  0
 16 15  1  0
 13 14  1  0
 15 14  2  0
 15 18  1  0
  2 22  1  0
  3 23  1  0
  6 24  1  0
 10 25  1  0
 11 26  1  0
 13 27  1  0
 14 28  1  0
 16 29  1  0
 18 30  1  0
 19 31  1  0
 20 32  1  0
 20 33  1  0
 20 34  1  0
 21 35  1  0
 21 36  1  0
 21 37  1  0
M  END
