
     RDKit          3D

 53 57  0  0  0  0  0  0  0  0999 V2000
    1.7417   -1.6762    1.5563 O   0  0  0  0  0  0  0  0  0  0  0  0
    1.1889   -0.7190    1.0717 C   0  0  0  0  0  0  0  0  0  0  0  0
    1.4241   -0.1405   -0.2998 C   0  0  1  0  0  0  0  0  0  0  0  0
    1.0902   -1.1766   -1.4021 C   0  0  1  0  0  0  0  0  0  0  0  0
   -0.3642   -1.5179   -1.2406 C   0  0  0  0  0  0  0  0  0  0  0  0
   -1.2196   -0.4204   -1.3645 C   0  0  0  0  0  0  0  0  0  0  0  0
   -2.5823   -0.5904   -1.1726 C   0  0  0  0  0  0  0  0  0  0  0  0
   -3.0820   -1.8546   -0.8740 C   0  0  0  0  0  0  0  0  0  0  0  0
   -2.2289   -2.9428   -0.7588 C   0  0  0  0  0  0  0  0  0  0  0  0
   -0.8602   -2.7742   -0.9371 C   0  0  0  0  0  0  0  0  0  0  0  0
    1.2595   -0.4348   -2.6951 C   0  0  0  0  0  0  0  0  0  0  0  0
    0.4294    0.6803   -2.8139 C   0  0  0  0  0  0  0  0  0  0  0  0
    0.5421    1.4938   -3.9322 C   0  0  0  0  0  0  0  0  0  0  0  0
    1.4618    1.1748   -4.9276 C   0  0  0  0  0  0  0  0  0  0  0  0
    2.2719    0.0547   -4.8096 C   0  0  0  0  0  0  0  0  0  0  0  0
    2.1763   -0.7526   -3.6813 C   0  0  0  0  0  0  0  0  0  0  0  0
    0.4733    1.0590   -0.3989 C   0  0  1  0  0  0  0  0  0  0  0  0
   -0.4959    0.8910   -1.6208 C   0  0  2  0  0  0  0  0  0  0  0  0
   -1.4037    2.1007   -1.7677 C   0  0  0  0  0  0  0  0  0  0  0  0
   -2.2223    1.9243   -2.8991 O   0  0  0  0  0  0  0  0  0  0  0  0
   -0.2363    1.0773    0.9422 C   0  0  0  0  0  0  0  0  0  0  0  0
   -1.0522    1.8778    1.3313 O   0  0  0  0  0  0  0  0  0  0  0  0
    0.2105    0.0165    1.6962 N   0  0  0  0  0  0  0  0  0  0  0  0
   -0.2622   -0.2671    3.0387 C   0  0  0  0  0  0  0  0  0  0  0  0
    0.5229    0.4785    4.1090 C   0  0  0  0  0  0  0  0  0  0  0  0
    0.0593    0.0945    5.5080 C   0  0  0  0  0  0  0  0  0  0  0  0
    0.8067    0.8396    6.6068 C   0  0  0  0  0  0  0  0  0  0  0  0
    0.3561    0.4322    8.0026 C   0  0  0  0  0  0  0  0  0  0  0  0
    2.4708    0.1566   -0.3839 H   0  0  0  0  0  0  0  0  0  0  0  0
    1.7413   -2.0481   -1.3332 H   0  0  0  0  0  0  0  0  0  0  0  0
   -3.2661    0.2425   -1.2574 H   0  0  0  0  0  0  0  0  0  0  0  0
   -4.1469   -1.9867   -0.7320 H   0  0  0  0  0  0  0  0  0  0  0  0
   -2.6269   -3.9218   -0.5257 H   0  0  0  0  0  0  0  0  0  0  0  0
   -0.1844   -3.6150   -0.8364 H   0  0  0  0  0  0  0  0  0  0  0  0
   -0.0825    2.3672   -4.0514 H   0  0  0  0  0  0  0  0  0  0  0  0
    1.5388    1.8078   -5.8023 H   0  0  0  0  0  0  0  0  0  0  0  0
    2.9805   -0.1881   -5.5908 H   0  0  0  0  0  0  0  0  0  0  0  0
    2.8159   -1.6199   -3.5706 H   0  0  0  0  0  0  0  0  0  0  0  0
    1.0205    1.9996   -0.5061 H   0  0  0  0  0  0  0  0  0  0  0  0
   -2.0037    2.2239   -0.8622 H   0  0  0  0  0  0  0  0  0  0  0  0
   -0.7755    2.9984   -1.8539 H   0  0  0  0  0  0  0  0  0  0  0  0
   -2.8160    2.6786   -2.9559 H   0  0  0  0  0  0  0  0  0  0  0  0
   -0.1884   -1.3440    3.1915 H   0  0  0  0  0  0  0  0  0  0  0  0
   -1.3200   -0.0081    3.0858 H   0  0  0  0  0  0  0  0  0  0  0  0
    0.4092    1.5563    3.9642 H   0  0  0  0  0  0  0  0  0  0  0  0
    1.5878    0.2549    4.0001 H   0  0  0  0  0  0  0  0  0  0  0  0
    0.1875   -0.9844    5.6471 H   0  0  0  0  0  0  0  0  0  0  0  0
   -1.0143    0.2890    5.6045 H   0  0  0  0  0  0  0  0  0  0  0  0
    0.6647    1.9166    6.4744 H   0  0  0  0  0  0  0  0  0  0  0  0
    1.8807    0.6595    6.5002 H   0  0  0  0  0  0  0  0  0  0  0  0
    0.9018    0.9755    8.7746 H   0  0  0  0  0  0  0  0  0  0  0  0
   -0.7074    0.6311    8.1472 H   0  0  0  0  0  0  0  0  0  0  0  0
    0.5170   -0.6340    8.1716 H   0  0  0  0  0  0  0  0  0  0  0  0
  1  2  2  0
  2  3  1  0
  2 23  1  0
  3  4  1  0
  3 17  1  0
  3 29  1  1
  4  5  1  0
  4 11  1  0
  4 30  1  6
  5  6  2  0
  5 10  1  0
  6  7  1  0
  6 18  1  0
  7  8  2  0
  7 31  1  0
  8  9  1  0
  8 32  1  0
  9 10  2  0
  9 33  1  0
 10 34  1  0
 11 12  2  0
 11 16  1  0
 12 13  1  0
 12 18  1  0
 13 14  2  0
 13 35  1  0
 14 15  1  0
 14 36  1  0
 15 16  2  0
 15 37  1  0
 16 38  1  0
 17 18  1  0
 17 21  1  0
 17 39  1  6
 18 19  1  6
 19 20  1  0
 19 40  1  0
 19 41  1  0
 20 42  1  0
 21 22  2  0
 21 23  1  0
 23 24  1  0
 24 25  1  0
 24 43  1  0
 24 44  1  0
 25 26  1  0
 25 45  1  0
 25 46  1  0
 26 27  1  0
 26 47  1  0
 26 48  1  0
 27 28  1  0
 27 49  1  0
 27 50  1  0
 28 51  1  0
 28 52  1  0
 28 53  1  0
M  END
