
     RDKit          3D

 50 53  0  0  0  0  0  0  0  0999 V2000
    6.1521    3.4858    0.8734 N   0  0  0  0  0  0  0  0  0  0  0  0
    5.9932    2.5418    0.0252 C   0  0  0  0  0  0  0  0  0  0  0  0
    6.8719    2.3918   -1.0067 N   0  0  0  0  0  0  0  0  0  0  0  0
    4.9150    1.5190    0.0846 C   0  0  0  0  0  0  0  0  0  0  0  0
    3.6625    1.8483    0.6065 C   0  0  0  0  0  0  0  0  0  0  0  0
    2.6521    0.9119    0.6792 C   0  0  0  0  0  0  0  0  0  0  0  0
    2.8711   -0.3952    0.2390 C   0  0  0  0  0  0  0  0  0  0  0  0
    1.8305   -1.2381    0.3701 O   0  0  0  0  0  0  0  0  0  0  0  0
    1.9240   -2.5684   -0.0971 C   0  0  2  0  0  0  0  0  0  0  0  0
    1.7480   -2.6674   -1.6033 C   0  0  0  0  0  0  0  0  0  0  0  0
    0.3552   -2.5104   -1.8426 O   0  0  0  0  0  0  0  0  0  0  0  0
   -0.3642   -2.8998   -0.6982 C   0  0  2  0  0  0  0  0  0  0  0  0
   -1.1373   -1.7639   -0.0333 C   0  0  1  0  0  0  0  0  0  0  0  0
   -2.4717   -1.7712   -0.4980 O   0  0  0  0  0  0  0  0  0  0  0  0
   -3.2646   -0.7043   -0.2765 C   0  0  0  0  0  0  0  0  0  0  0  0
   -2.8989    0.4174    0.4652 C   0  0  0  0  0  0  0  0  0  0  0  0
   -3.7980    1.4602    0.6253 C   0  0  0  0  0  0  0  0  0  0  0  0
   -5.0730    1.4145    0.0729 C   0  0  0  0  0  0  0  0  0  0  0  0
   -6.0049    2.5546    0.2747 C   0  0  0  0  0  0  0  0  0  0  0  0
   -5.5194    3.7077    0.5376 N   0  0  0  0  0  0  0  0  0  0  0  0
   -7.3305    2.2638    0.1083 N   0  0  0  0  0  0  0  0  0  0  0  0
   -5.4241    0.2862   -0.6705 C   0  0  0  0  0  0  0  0  0  0  0  0
   -4.5361   -0.7576   -0.8478 C   0  0  0  0  0  0  0  0  0  0  0  0
   -1.0074   -2.0899    1.4604 C   0  0  0  0  0  0  0  0  0  0  0  0
    0.1640   -2.8749    1.6152 O   0  0  0  0  0  0  0  0  0  0  0  0
    0.6543   -3.2899    0.3733 C   0  0  2  0  0  0  0  0  0  0  0  0
    4.1148   -0.7406   -0.2828 C   0  0  0  0  0  0  0  0  0  0  0  0
    5.1179    0.2164   -0.3578 C   0  0  0  0  0  0  0  0  0  0  0  0
    5.4924    3.3979    1.6373 H   0  0  0  0  0  0  0  0  0  0  0  0
    7.5312    3.1418   -1.1414 H   0  0  0  0  0  0  0  0  0  0  0  0
    6.5428    1.9726   -1.8602 H   0  0  0  0  0  0  0  0  0  0  0  0
    3.4602    2.8578    0.9430 H   0  0  0  0  0  0  0  0  0  0  0  0
    1.6821    1.1856    1.0749 H   0  0  0  0  0  0  0  0  0  0  0  0
    2.8380   -3.0527    0.2576 H   0  0  0  0  0  0  0  0  0  0  0  0
    2.2921   -1.9043   -2.1619 H   0  0  0  0  0  0  0  0  0  0  0  0
    2.0978   -3.6484   -1.9454 H   0  0  0  0  0  0  0  0  0  0  0  0
   -1.0472   -3.7224   -0.9372 H   0  0  0  0  0  0  0  0  0  0  0  0
   -0.6587   -0.8108   -0.2781 H   0  0  0  0  0  0  0  0  0  0  0  0
   -1.9282    0.5005    0.9345 H   0  0  0  0  0  0  0  0  0  0  0  0
   -3.5021    2.3240    1.2050 H   0  0  0  0  0  0  0  0  0  0  0  0
   -6.2570    4.3904    0.6893 H   0  0  0  0  0  0  0  0  0  0  0  0
   -7.6427    1.3281    0.3106 H   0  0  0  0  0  0  0  0  0  0  0  0
   -7.9916    2.9718    0.3862 H   0  0  0  0  0  0  0  0  0  0  0  0
   -6.3951    0.2182   -1.1444 H   0  0  0  0  0  0  0  0  0  0  0  0
   -4.8210   -1.6205   -1.4363 H   0  0  0  0  0  0  0  0  0  0  0  0
   -0.9199   -1.1973    2.0821 H   0  0  0  0  0  0  0  0  0  0  0  0
   -1.8863   -2.6509    1.7976 H   0  0  0  0  0  0  0  0  0  0  0  0
    0.8502   -4.3657    0.3876 H   0  0  0  0  0  0  0  0  0  0  0  0
    4.3315   -1.7416   -0.6296 H   0  0  0  0  0  0  0  0  0  0  0  0
    6.0795   -0.0808   -0.7561 H   0  0  0  0  0  0  0  0  0  0  0  0
  1  2  2  0
  1 29  1  0
  2  3  1  0
  2  4  1  0
  3 30  1  0
  3 31  1  0
  4  5  2  0
  4 28  1  0
  5  6  1  0
  5 32  1  0
  6  7  2  0
  6 33  1  0
  7  8  1  0
  7 27  1  0
  8  9  1  0
  9 10  1  0
  9 26  1  0
  9 34  1  6
 10 11  1  0
 10 35  1  0
 10 36  1  0
 11 12  1  0
 12 13  1  0
 12 26  1  0
 12 37  1  6
 13 14  1  0
 13 24  1  0
 13 38  1  1
 14 15  1  0
 15 16  2  0
 15 23  1  0
 16 17  1  0
 16 39  1  0
 17 18  2  0
 17 40  1  0
 18 19  1  0
 18 22  1  0
 19 20  2  0
 19 21  1  0
 20 41  1  0
 21 42  1  0
 21 43  1  0
 22 23  2  0
 22 44  1  0
 23 45  1  0
 24 25  1  0
 24 46  1  0
 24 47  1  0
 25 26  1  0
 26 48  1  1
 27 28  2  0
 27 49  1  0
 28 50  1  0
M  END
