
     RDKit          3D

 45 48  0  0  0  0  0  0  0  0999 V2000
    5.6580   -1.8916   -1.0129 O   0  0  0  0  0  0  0  0  0  0  0  0
    5.3342   -0.8099   -0.5295 C   0  0  0  0  0  0  0  0  0  0  0  0
    6.2772    0.1216   -0.2245 N   0  0  0  0  0  0  0  0  0  0  0  0
    3.9191   -0.4887   -0.2695 C   0  0  0  0  0  0  0  0  0  0  0  0
    3.6057    0.7615    0.2822 C   0  0  0  0  0  0  0  0  0  0  0  0
    4.6518    1.6215    0.5533 N   0  0  0  0  0  0  0  0  0  0  0  0
    5.9287    1.2739    0.2939 C   0  0  0  0  0  0  0  0  0  0  0  0
    6.8797    2.1602    0.6190 N   0  0  0  0  0  0  0  0  0  0  0  0
    2.2932    1.1424    0.5543 C   0  0  0  0  0  0  0  0  0  0  0  0
    1.3188    0.2169    0.2498 C   0  0  0  0  0  0  0  0  0  0  0  0
    1.5959   -1.0537   -0.3059 C   0  0  0  0  0  0  0  0  0  0  0  0
    2.9050   -1.4040   -0.5656 C   0  0  0  0  0  0  0  0  0  0  0  0
   -0.0436    0.2501    0.3748 N   0  0  0  0  0  0  0  0  0  0  0  0
   -0.5211   -0.9482   -0.0857 C   0  0  0  0  0  0  0  0  0  0  0  0
    0.4257   -1.7510   -0.5029 N   0  0  0  0  0  0  0  0  0  0  0  0
   -1.8345   -1.2464   -0.0663 N   0  0  0  0  0  0  0  0  0  0  0  0
   -2.8666   -0.2359    0.0583 C   0  0  0  0  0  0  0  0  0  0  0  0
   -4.2253   -0.9164    0.1670 C   0  0  0  0  0  0  0  0  0  0  0  0
   -5.3076    0.0453    0.1951 N   0  0  0  0  0  0  0  0  0  0  0  0
   -6.4902   -0.4995    0.8461 C   0  0  0  0  0  0  0  0  0  0  0  0
   -7.5862    0.5479    0.9679 C   0  0  0  0  0  0  0  0  0  0  0  0
   -7.9485    1.1179   -0.3974 C   0  0  0  0  0  0  0  0  0  0  0  0
   -6.6904    1.6233   -1.0909 C   0  0  0  0  0  0  0  0  0  0  0  0
   -5.6303    0.5342   -1.1377 C   0  0  0  0  0  0  0  0  0  0  0  0
    4.4478    2.5210    0.9628 H   0  0  0  0  0  0  0  0  0  0  0  0
    6.6546    3.1145    0.8433 H   0  0  0  0  0  0  0  0  0  0  0  0
    7.8180    1.9742    0.3100 H   0  0  0  0  0  0  0  0  0  0  0  0
    2.0597    2.1107    0.9784 H   0  0  0  0  0  0  0  0  0  0  0  0
    3.1554   -2.3663   -0.9919 H   0  0  0  0  0  0  0  0  0  0  0  0
   -0.5844    1.0154    0.7443 H   0  0  0  0  0  0  0  0  0  0  0  0
   -2.0724   -2.0633   -0.6086 H   0  0  0  0  0  0  0  0  0  0  0  0
   -2.7074    0.3469    0.9681 H   0  0  0  0  0  0  0  0  0  0  0  0
   -2.8402    0.4619   -0.7856 H   0  0  0  0  0  0  0  0  0  0  0  0
   -4.3450   -1.6424   -0.6559 H   0  0  0  0  0  0  0  0  0  0  0  0
   -4.2398   -1.4938    1.0943 H   0  0  0  0  0  0  0  0  0  0  0  0
   -6.8819   -1.3735    0.2955 H   0  0  0  0  0  0  0  0  0  0  0  0
   -6.2064   -0.8547    1.8394 H   0  0  0  0  0  0  0  0  0  0  0  0
   -8.4585    0.1013    1.4500 H   0  0  0  0  0  0  0  0  0  0  0  0
   -7.2378    1.3545    1.6205 H   0  0  0  0  0  0  0  0  0  0  0  0
   -8.4118    0.3364   -1.0092 H   0  0  0  0  0  0  0  0  0  0  0  0
   -8.6858    1.9176   -0.2989 H   0  0  0  0  0  0  0  0  0  0  0  0
   -6.9111    1.9536   -2.1082 H   0  0  0  0  0  0  0  0  0  0  0  0
   -6.2950    2.4894   -0.5518 H   0  0  0  0  0  0  0  0  0  0  0  0
   -4.7274    0.9265   -1.6092 H   0  0  0  0  0  0  0  0  0  0  0  0
   -5.9851   -0.2927   -1.7797 H   0  0  0  0  0  0  0  0  0  0  0  0
 22 21  1  0
 22 23  1  0
 21 20  1  0
 23 24  1  0
 20 19  1  0
 24 19  1  0
 19 18  1  0
 18 17  1  0
 17 16  1  0
 16 14  1  0
 14 13  1  0
 14 15  2  0
 13 10  1  0
 15 11  1  0
 10 11  2  0
 10  9  1  0
 11 12  1  0
  9  5  2  0
 12  4  2  0
  5  4  1  0
  5  6  1  0
  4  2  1  0
  6  7  1  0
  2  1  2  0
  2  3  1  0
  7  3  2  0
  7  8  1  0
  6 25  1  0
  8 26  1  0
  8 27  1  0
  9 28  1  0
 12 29  1  0
 13 30  1  0
 16 31  1  0
 17 32  1  0
 17 33  1  0
 18 34  1  0
 18 35  1  0
 20 36  1  0
 20 37  1  0
 21 38  1  0
 21 39  1  0
 22 40  1  0
 22 41  1  0
 23 42  1  0
 23 43  1  0
 24 44  1  0
 24 45  1  0
M  END
