
     RDKit          3D

 33 35  0  0  0  0  0  0  0  0999 V2000
   -4.6626    1.0759    0.2382 C   0  0  0  0  0  0  0  0  0  0  0  0
   -3.6309    1.8575    0.8205 C   0  0  0  0  0  0  0  0  0  0  0  0
    4.3196   -0.2978    0.8414 C   0  0  0  0  0  0  0  0  0  0  0  0
    3.2612   -1.1922    0.8178 C   0  0  0  0  0  0  0  0  0  0  0  0
    2.1031   -0.8812    0.1101 C   0  0  0  0  0  0  0  0  0  0  0  0
   -2.0011    0.1502    0.3379 C   0  0  0  0  0  0  0  0  0  0  0  0
   -2.3406    1.4156    0.8716 C   0  0  0  0  0  0  0  0  0  0  0  0
   -4.3456   -0.1523   -0.2826 C   0  0  0  0  0  0  0  0  0  0  0  0
   -0.4084   -1.4353   -0.0878 C   0  0  0  0  0  0  0  0  0  0  0  0
    4.2223    0.8804    0.1341 C   0  0  0  0  0  0  0  0  0  0  0  0
   -3.0216   -0.6424   -0.2437 C   0  0  0  0  0  0  0  0  0  0  0  0
   -2.6509   -1.9018   -0.7610 C   0  0  0  0  0  0  0  0  0  0  0  0
   -1.3505   -2.3096   -0.6744 C   0  0  0  0  0  0  0  0  0  0  0  0
    2.0230    0.3198   -0.5956 C   0  0  0  0  0  0  0  0  0  0  0  0
    1.2490   -3.0713    0.1681 O   0  0  0  0  0  0  0  0  0  0  0  0
    3.0868    1.2094   -0.6034 C   0  0  0  0  0  0  0  0  0  0  0  0
    5.2404    1.7480    0.1421 F   0  0  0  0  0  0  0  0  0  0  0  0
    3.0917    2.3729   -1.2733 O   0  0  0  0  0  0  0  0  0  0  0  0
   -0.7173   -0.2584    0.3940 N   0  0  0  0  0  0  0  0  0  0  0  0
   -6.0624    1.6081    0.2097 C   0  0  0  0  0  0  0  0  0  0  0  0
   -3.8803    2.8287    1.2309 H   0  0  0  0  0  0  0  0  0  0  0  0
    3.3364   -2.1214    1.3654 H   0  0  0  0  0  0  0  0  0  0  0  0
   -1.5587    2.0194    1.3141 H   0  0  0  0  0  0  0  0  0  0  0  0
   -5.1158   -0.7675   -0.7341 H   0  0  0  0  0  0  0  0  0  0  0  0
   -3.4001   -2.5361   -1.2186 H   0  0  0  0  0  0  0  0  0  0  0  0
   -1.0414   -3.2723   -1.0560 H   0  0  0  0  0  0  0  0  0  0  0  0
    1.1350    0.5663   -1.1636 H   0  0  0  0  0  0  0  0  0  0  0  0
    2.2659    2.4822   -1.7582 H   0  0  0  0  0  0  0  0  0  0  0  0
   -6.4453    1.7539    1.2215 H   0  0  0  0  0  0  0  0  0  0  0  0
   -6.1019    2.5783   -0.2879 H   0  0  0  0  0  0  0  0  0  0  0  0
   -6.7386    0.9326   -0.3112 H   0  0  0  0  0  0  0  0  0  0  0  0
    1.0115   -1.8858    0.0653 C   0  0  0  0  0  0  0  0  0  0  0  0
    5.2188   -0.5125    1.4039 H   0  0  0  0  0  0  0  0  0  0  0  0
 20  1  1  0
  1  8  2  0
  1  2  1  0
  8 11  1  0
  2  7  2  0
 11 12  2  0
 11  6  1  0
 12 13  1  0
  7  6  1  0
 15 32  2  0
  6 19  2  0
 13  9  2  0
 19  9  1  0
  9 32  1  0
 32  5  1  0
  5 14  2  0
  5  4  1  0
 14 16  1  0
  4  3  2  0
 16 18  1  0
 16 10  2  0
  3 10  1  0
 10 17  1  0
  2 21  1  0
  3 33  1  0
  4 22  1  0
  7 23  1  0
  8 24  1  0
 12 25  1  0
 13 26  1  0
 14 27  1  0
 18 28  1  0
 20 29  1  0
 20 30  1  0
 20 31  1  0
M  END
