
     RDKit          3D

 88 91  0  0  0  0  0  0  0  0999 V2000
  -13.9715    0.5748    0.4671 F   0  0  0  0  0  0  0  0  0  0  0  0
  -12.7672    0.5722    1.0302 C   0  0  1  0  0  0  0  0  0  0  0  0
  -12.6782    1.6380    1.8232 F   0  0  0  0  0  0  0  0  0  0  0  0
  -12.6654   -0.5197    1.7853 F   0  0  0  0  0  0  0  0  0  0  0  0
  -11.6554    0.5974   -0.0342 C   0  0  1  0  0  0  0  0  0  0  0  0
  -11.8576   -0.4815   -0.8322 F   0  0  0  0  0  0  0  0  0  0  0  0
  -11.8759    1.6961   -0.8001 F   0  0  0  0  0  0  0  0  0  0  0  0
  -10.2565    0.6020    0.5312 C   0  0  0  0  0  0  0  0  0  0  0  0
   -9.1787    0.6070   -0.5492 C   0  0  0  0  0  0  0  0  0  0  0  0
   -7.8012    0.6247    0.0947 C   0  0  0  0  0  0  0  0  0  0  0  0
   -6.5254    0.6185   -1.1955 S   0  0  0  0  0  0  0  0  0  0  0  0
   -6.6646   -0.6946   -1.9338 O   0  0  0  0  0  0  0  0  0  0  0  0
   -5.0823    0.4648   -0.1093 C   0  0  0  0  0  0  0  0  0  0  0  0
   -3.8220    0.2958   -0.9419 C   0  0  0  0  0  0  0  0  0  0  0  0
   -2.5720    0.2186   -0.0725 C   0  0  0  0  0  0  0  0  0  0  0  0
   -1.3015    0.0561   -0.8966 C   0  0  0  0  0  0  0  0  0  0  0  0
   -0.0340    0.0170   -0.0521 C   0  0  0  0  0  0  0  0  0  0  0  0
    1.2293   -0.1361   -0.8892 C   0  0  0  0  0  0  0  0  0  0  0  0
    2.5128   -0.1102   -0.0687 C   0  0  0  0  0  0  0  0  0  0  0  0
    3.7633   -0.2574   -0.9259 C   0  0  0  0  0  0  0  0  0  0  0  0
    5.0591   -0.1461   -0.1306 C   0  0  0  0  0  0  0  0  0  0  0  0
    6.3109   -0.2650   -1.0046 C   0  0  1  0  0  0  0  0  0  0  0  0
    7.5868    0.2711   -0.3525 C   0  0  1  0  0  0  0  0  0  0  0  0
    7.5577    1.7555   -0.0388 C   0  0  2  0  0  0  0  0  0  0  0  0
    7.1643    2.7524   -1.1294 C   0  0  0  0  0  0  0  0  0  0  0  0
    7.7343    4.0958   -0.6185 C   0  0  0  0  0  0  0  0  0  0  0  0
    8.5321    3.7564    0.6610 C   0  0  2  0  0  0  0  0  0  0  0  0
    9.6612    4.5649    0.8848 O   0  0  0  0  0  0  0  0  0  0  0  0
    8.9015    2.2808    0.4840 C   0  0  2  0  0  0  0  0  0  0  0  0
   10.0329    2.1465   -0.5406 C   0  0  0  0  0  0  0  0  0  0  0  0
    9.2476    1.5277    1.7645 C   0  0  0  0  0  0  0  0  0  0  0  0
    9.2283    0.0093    1.5540 C   0  0  0  0  0  0  0  0  0  0  0  0
    7.9087   -0.4864    0.9438 C   0  0  2  0  0  0  0  0  0  0  0  0
    7.8596   -1.9879    0.7389 C   0  0  0  0  0  0  0  0  0  0  0  0
    8.4116   -2.8611    1.6786 C   0  0  0  0  0  0  0  0  0  0  0  0
    8.3563   -4.2369    1.5402 C   0  0  0  0  0  0  0  0  0  0  0  0
    7.7241   -4.7849    0.4279 C   0  0  0  0  0  0  0  0  0  0  0  0
    7.6883   -6.1318    0.3159 O   0  0  0  0  0  0  0  0  0  0  0  0
    7.1552   -3.9361   -0.5101 C   0  0  0  0  0  0  0  0  0  0  0  0
    7.2128   -2.5501   -0.3670 C   0  0  0  0  0  0  0  0  0  0  0  0
    6.5847   -1.7005   -1.4427 C   0  0  0  0  0  0  0  0  0  0  0  0
  -10.1433    1.4775    1.1741 H   0  0  0  0  0  0  0  0  0  0  0  0
  -10.1344   -0.2741    1.1717 H   0  0  0  0  0  0  0  0  0  0  0  0
   -9.2673   -0.2782   -1.1801 H   0  0  0  0  0  0  0  0  0  0  0  0
   -9.2898    1.4817   -1.1932 H   0  0  0  0  0  0  0  0  0  0  0  0
   -7.6495    1.5281    0.6897 H   0  0  0  0  0  0  0  0  0  0  0  0
   -7.6458   -0.2471    0.7352 H   0  0  0  0  0  0  0  0  0  0  0  0
   -5.0439    1.3769    0.4916 H   0  0  0  0  0  0  0  0  0  0  0  0
   -5.2418   -0.3866    0.5573 H   0  0  0  0  0  0  0  0  0  0  0  0
   -3.9045   -0.6105   -1.5472 H   0  0  0  0  0  0  0  0  0  0  0  0
   -3.7255    1.1334   -1.6394 H   0  0  0  0  0  0  0  0  0  0  0  0
   -2.4975    1.1243    0.5386 H   0  0  0  0  0  0  0  0  0  0  0  0
   -2.6656   -0.6168    0.6291 H   0  0  0  0  0  0  0  0  0  0  0  0
   -1.3698   -0.8599   -1.4938 H   0  0  0  0  0  0  0  0  0  0  0  0
   -1.2286    0.8804   -1.6146 H   0  0  0  0  0  0  0  0  0  0  0  0
    0.0326    0.9349    0.5428 H   0  0  0  0  0  0  0  0  0  0  0  0
   -0.0991   -0.8063    0.6677 H   0  0  0  0  0  0  0  0  0  0  0  0
    1.1788   -1.0730   -1.4554 H   0  0  0  0  0  0  0  0  0  0  0  0
    1.2662    0.6653   -1.6358 H   0  0  0  0  0  0  0  0  0  0  0  0
    2.5644    0.8302    0.4918 H   0  0  0  0  0  0  0  0  0  0  0  0
    2.4856   -0.9085    0.6811 H   0  0  0  0  0  0  0  0  0  0  0  0
    3.7227   -1.2163   -1.4531 H   0  0  0  0  0  0  0  0  0  0  0  0
    3.7569    0.5135   -1.7049 H   0  0  0  0  0  0  0  0  0  0  0  0
    5.0605    0.8199    0.3848 H   0  0  0  0  0  0  0  0  0  0  0  0
    5.0678   -0.9042    0.6607 H   0  0  0  0  0  0  0  0  0  0  0  0
    6.1319    0.3218   -1.9131 H   0  0  0  0  0  0  0  0  0  0  0  0
    8.3960    0.0831   -1.0728 H   0  0  0  0  0  0  0  0  0  0  0  0
    6.8397    1.8935    0.7834 H   0  0  0  0  0  0  0  0  0  0  0  0
    7.6054    2.4769   -2.0905 H   0  0  0  0  0  0  0  0  0  0  0  0
    6.0845    2.7892   -1.2799 H   0  0  0  0  0  0  0  0  0  0  0  0
    8.3956    4.5530   -1.3578 H   0  0  0  0  0  0  0  0  0  0  0  0
    6.9475    4.8236   -0.4135 H   0  0  0  0  0  0  0  0  0  0  0  0
    7.8507    3.8216    1.5231 H   0  0  0  0  0  0  0  0  0  0  0  0
    9.3593    5.4673    1.0226 H   0  0  0  0  0  0  0  0  0  0  0  0
    9.7998    2.6385   -1.4857 H   0  0  0  0  0  0  0  0  0  0  0  0
   10.9511    2.5923   -0.1578 H   0  0  0  0  0  0  0  0  0  0  0  0
   10.2577    1.1069   -0.7745 H   0  0  0  0  0  0  0  0  0  0  0  0
   10.2237    1.8321    2.1536 H   0  0  0  0  0  0  0  0  0  0  0  0
    8.5102    1.7814    2.5355 H   0  0  0  0  0  0  0  0  0  0  0  0
   10.0624   -0.3052    0.9188 H   0  0  0  0  0  0  0  0  0  0  0  0
    9.3998   -0.4653    2.5224 H   0  0  0  0  0  0  0  0  0  0  0  0
    7.1174   -0.2344    1.6664 H   0  0  0  0  0  0  0  0  0  0  0  0
    8.8992   -2.4641    2.5599 H   0  0  0  0  0  0  0  0  0  0  0  0
    8.7965   -4.8822    2.2906 H   0  0  0  0  0  0  0  0  0  0  0  0
    7.2270   -6.3876   -0.4897 H   0  0  0  0  0  0  0  0  0  0  0  0
    6.6504   -4.3526   -1.3770 H   0  0  0  0  0  0  0  0  0  0  0  0
    5.6696   -2.1836   -1.7957 H   0  0  0  0  0  0  0  0  0  0  0  0
    7.2572   -1.6830   -2.3076 H   0  0  0  0  0  0  0  0  0  0  0  0
  5  6  1  6
  2  1  1  6
  5  7  1  0
  5  2  1  0
  5  8  1  0
  4  2  1  0
  2  3  1  0
  8  9  1  0
  9 10  1  0
 11 10  1  1
 11 12  2  0
 11 13  1  0
 13 14  1  0
 14 15  1  0
 17 16  1  0
 17 18  1  0
 16 15  1  0
 18 19  1  0
 19 20  1  0
 20 21  1  0
 26 25  1  0
 26 27  1  0
 25 24  1  0
 21 22  1  0
 28 27  1  0
 29 30  1  6
 27 29  1  0
 24 29  1  0
 24 23  1  0
 22 23  1  0
 22 41  1  0
 29 31  1  0
 23 33  1  0
 41 40  1  0
 31 32  1  0
 33 32  1  0
 33 34  1  0
 40 39  2  0
 40 34  1  0
 39 37  1  0
 34 35  2  0
 37 38  1  0
 37 36  2  0
 35 36  1  0
  8 42  1  0
  8 43  1  0
  9 44  1  0
  9 45  1  0
 10 46  1  0
 10 47  1  0
 13 48  1  0
 13 49  1  0
 14 50  1  0
 14 51  1  0
 15 52  1  0
 15 53  1  0
 16 54  1  0
 16 55  1  0
 17 56  1  0
 17 57  1  0
 18 58  1  0
 18 59  1  0
 19 60  1  0
 19 61  1  0
 20 62  1  0
 20 63  1  0
 21 64  1  0
 21 65  1  0
 22 66  1  6
 23 67  1  6
 24 68  1  1
 25 69  1  0
 25 70  1  0
 26 71  1  0
 26 72  1  0
 27 73  1  1
 28 74  1  0
 30 75  1  0
 30 76  1  0
 30 77  1  0
 31 78  1  0
 31 79  1  0
 32 80  1  0
 32 81  1  0
 33 82  1  1
 35 83  1  0
 36 84  1  0
 38 85  1  0
 39 86  1  0
 41 87  1  0
 41 88  1  0
M  END
