
     RDKit          3D

 20 19  0  0  0  0  0  0  0  0999 V2000
    1.2178    2.8691   -1.1313 O   0  0  0  0  0  0  0  0  0  0  0  0
    1.9756    1.6929   -1.6362 P   0  0  2  0  0  0  0  0  0  0  0  0
    1.2495    0.1960   -1.6427 N   0  0  0  0  0  0  0  0  0  0  0  0
    0.7855   -0.3422   -0.3745 C   0  0  0  0  0  0  0  0  0  0  0  0
    0.4364   -0.1810   -2.7849 C   0  0  0  0  0  0  0  0  0  0  0  0
    3.3045    1.5060   -0.7498 O   0  0  0  0  0  0  0  0  0  0  0  0
    4.2678    0.4929   -1.0699 C   0  0  0  0  0  0  0  0  0  0  0  0
    5.4204    0.6057   -0.1018 C   0  0  0  0  0  0  0  0  0  0  0  0
   -0.2150    0.0129   -0.1109 H   0  0  0  0  0  0  0  0  0  0  0  0
    1.4679   -0.0755    0.4319 H   0  0  0  0  0  0  0  0  0  0  0  0
    0.7559   -1.4306   -0.4339 H   0  0  0  0  0  0  0  0  0  0  0  0
    0.8389    0.2463   -3.7030 H   0  0  0  0  0  0  0  0  0  0  0  0
   -0.6048    0.1400   -2.6855 H   0  0  0  0  0  0  0  0  0  0  0  0
    0.4486   -1.2661   -2.8959 H   0  0  0  0  0  0  0  0  0  0  0  0
    3.8044   -0.4940   -1.0026 H   0  0  0  0  0  0  0  0  0  0  0  0
    4.6177    0.6242   -2.0986 H   0  0  0  0  0  0  0  0  0  0  0  0
    6.1584   -0.1636   -0.3278 H   0  0  0  0  0  0  0  0  0  0  0  0
    5.9132    1.5751   -0.1757 H   0  0  0  0  0  0  0  0  0  0  0  0
    5.0889    0.4611    0.9266 H   0  0  0  0  0  0  0  0  0  0  0  0
    2.4092    1.7890   -2.9705 H   0  0  0  0  0  0  0  0  0  0  0  0
  1  2  2  0
  2  3  1  0
  2  6  1  0
  3  4  1  0
  3  5  1  0
  4  9  1  0
  4 10  1  0
  4 11  1  0
  5 12  1  0
  5 13  1  0
  5 14  1  0
  6  7  1  0
  7  8  1  0
  7 15  1  0
  7 16  1  0
  8 17  1  0
  8 18  1  0
  8 19  1  0
  2 20  1  6
M  END
