
     RDKit          3D

 50 52  0  0  0  0  0  0  0  0999 V2000
   -3.9434    2.1948   -1.7380 C   0  0  0  0  0  0  0  0  0  0  0  0
   -3.9066    1.0372   -0.7811 C   0  0  0  0  0  0  0  0  0  0  0  0
   -2.7426    0.2771   -0.7309 C   0  0  0  0  0  0  0  0  0  0  0  0
   -4.9644    0.6785    0.0746 C   0  0  0  0  0  0  0  0  0  0  0  0
   -6.2457    1.4293    0.0801 C   0  0  0  0  0  0  0  0  0  0  0  0
   -6.6067    2.1924   -0.7835 O   0  0  0  0  0  0  0  0  0  0  0  0
   -6.9834    1.1719    1.1552 O   0  0  0  0  0  0  0  0  0  0  0  0
   -4.8169   -0.4158    0.9288 C   0  0  0  0  0  0  0  0  0  0  0  0
   -3.6605   -1.1716    0.9398 C   0  0  0  0  0  0  0  0  0  0  0  0
   -2.6018   -0.8301    0.1016 C   0  0  0  0  0  0  0  0  0  0  0  0
   -1.3240   -1.5706    0.1179 C   0  0  0  0  0  0  0  0  0  0  0  0
   -0.2218   -0.8563    0.0565 N   0  0  0  0  0  0  0  0  0  0  0  0
   -1.2465   -2.9887    0.1763 C   0  0  0  0  0  0  0  0  0  0  0  0
   -2.3374   -3.7914    0.1632 N   0  0  0  0  0  0  0  0  0  0  0  0
   -0.0593   -3.5772    0.2728 N   0  0  0  0  0  0  0  0  0  0  0  0
    1.0267   -2.8249    0.2568 C   0  0  0  0  0  0  0  0  0  0  0  0
    0.9731   -1.4430    0.1064 C   0  0  0  0  0  0  0  0  0  0  0  0
    2.1692   -0.5835    0.0349 C   0  0  0  0  0  0  0  0  0  0  0  0
    3.4247   -1.1286   -0.2274 C   0  0  0  0  0  0  0  0  0  0  0  0
    2.0317    0.7895    0.2245 C   0  0  0  0  0  0  0  0  0  0  0  0
    3.1481    1.6167    0.1631 C   0  0  0  0  0  0  0  0  0  0  0  0
    3.1143    2.9488    0.3363 O   0  0  0  0  0  0  0  0  0  0  0  0
    1.8659    3.5652    0.5811 C   0  0  0  0  0  0  0  0  0  0  0  0
    4.4098    1.0758   -0.0992 C   0  0  0  0  0  0  0  0  0  0  0  0
    5.4960    1.8850   -0.1968 O   0  0  0  0  0  0  0  0  0  0  0  0
    6.1737    2.1076    1.0331 C   0  0  0  0  0  0  0  0  0  0  0  0
    4.5434   -0.3023   -0.2853 C   0  0  0  0  0  0  0  0  0  0  0  0
    5.7918   -0.7340   -0.5326 O   0  0  0  0  0  0  0  0  0  0  0  0
    5.9976   -2.1166   -0.7458 C   0  0  0  0  0  0  0  0  0  0  0  0
   -4.6684    2.0351   -2.5349 H   0  0  0  0  0  0  0  0  0  0  0  0
   -4.2100    3.1292   -1.2461 H   0  0  0  0  0  0  0  0  0  0  0  0
   -2.9645    2.3240   -2.1965 H   0  0  0  0  0  0  0  0  0  0  0  0
   -1.9154    0.5530   -1.3732 H   0  0  0  0  0  0  0  0  0  0  0  0
   -5.6168   -0.6949    1.5991 H   0  0  0  0  0  0  0  0  0  0  0  0
   -7.8189    1.6587    1.0998 H   0  0  0  0  0  0  0  0  0  0  0  0
   -3.5827   -2.0065    1.6232 H   0  0  0  0  0  0  0  0  0  0  0  0
   -3.1984   -3.4449   -0.2256 H   0  0  0  0  0  0  0  0  0  0  0  0
   -2.1661   -4.7706    0.0008 H   0  0  0  0  0  0  0  0  0  0  0  0
    1.9674   -3.3495    0.3750 H   0  0  0  0  0  0  0  0  0  0  0  0
    3.5303   -2.1893   -0.4036 H   0  0  0  0  0  0  0  0  0  0  0  0
    1.0489    1.1908    0.4262 H   0  0  0  0  0  0  0  0  0  0  0  0
    2.0618    4.6307    0.6709 H   0  0  0  0  0  0  0  0  0  0  0  0
    1.1620    3.4044   -0.2394 H   0  0  0  0  0  0  0  0  0  0  0  0
    1.4093    3.2126    1.5095 H   0  0  0  0  0  0  0  0  0  0  0  0
    5.5304    2.6002    1.7661 H   0  0  0  0  0  0  0  0  0  0  0  0
    6.5486    1.1761    1.4639 H   0  0  0  0  0  0  0  0  0  0  0  0
    7.0202    2.7579    0.8196 H   0  0  0  0  0  0  0  0  0  0  0  0
    5.7127   -2.7112    0.1259 H   0  0  0  0  0  0  0  0  0  0  0  0
    5.4476   -2.4809   -1.6170 H   0  0  0  0  0  0  0  0  0  0  0  0
    7.0621   -2.2450   -0.9248 H   0  0  0  0  0  0  0  0  0  0  0  0
  1  2  1  0
  2  3  2  0
  2  4  1  0
  3 10  1  0
  4  5  1  0
  4  8  2  0
  5  6  2  0
  5  7  1  0
  8  9  1  0
  9 10  2  0
 10 11  1  0
 11 12  2  0
 11 13  1  0
 12 17  1  0
 13 14  1  0
 13 15  2  0
 15 16  1  0
 16 17  2  0
 17 18  1  0
 18 19  2  0
 18 20  1  0
 19 27  1  0
 20 21  2  0
 21 22  1  0
 21 24  1  0
 22 23  1  0
 24 25  1  0
 24 27  2  0
 25 26  1  0
 27 28  1  0
 28 29  1  0
  1 30  1  0
  1 31  1  0
  1 32  1  0
  3 33  1  0
  8 34  1  0
  7 35  1  0
  9 36  1  0
 14 37  1  0
 14 38  1  0
 16 39  1  0
 19 40  1  0
 20 41  1  0
 23 42  1  0
 23 43  1  0
 23 44  1  0
 26 45  1  0
 26 46  1  0
 26 47  1  0
 29 48  1  0
 29 49  1  0
 29 50  1  0
M  END
