
     RDKit          3D

 27 27  0  0  0  0  0  0  0  0999 V2000
   -3.3129    0.3134   -0.4600 C   0  0  0  0  0  0  0  0  0  0  0  0
   -1.9436   -1.7129   -0.0242 N   0  0  0  0  0  0  0  0  0  0  0  0
   -4.3507    0.8430    0.2415 O   0  0  0  0  0  0  0  0  0  0  0  0
    0.2022   -0.2143    0.9276 C   0  0  0  0  0  0  0  0  0  0  0  0
    2.0816   -1.9619   -0.4731 N   0  0  0  0  0  0  0  0  0  0  0  0
    0.0782   -1.1650    1.7124 O   0  0  0  0  0  0  0  0  0  0  0  0
   -2.2473   -0.3674    0.3925 C   0  0  1  0  0  0  0  0  0  0  0  0
   -1.0054    0.5360    0.4239 C   0  0  0  0  0  0  0  0  0  0  0  0
    2.3967   -0.6371   -0.2497 C   0  0  0  0  0  0  0  0  0  0  0  0
    3.1080    2.0641    0.1704 C   0  0  0  0  0  0  0  0  0  0  0  0
    3.6444   -0.1222   -0.7064 C   0  0  0  0  0  0  0  0  0  0  0  0
    1.5098    0.2474    0.4259 C   0  0  0  0  0  0  0  0  0  0  0  0
    3.9840    1.2006   -0.4961 C   0  0  0  0  0  0  0  0  0  0  0  0
    1.8888    1.5838    0.6225 C   0  0  0  0  0  0  0  0  0  0  0  0
   -3.3462    0.4392   -1.6881 O   0  0  0  0  0  0  0  0  0  0  0  0
   -2.7733   -2.2722   -0.0503 H   0  0  0  0  0  0  0  0  0  0  0  0
   -1.5041   -1.7279   -0.9235 H   0  0  0  0  0  0  0  0  0  0  0  0
   -4.9830    1.2561   -0.3703 H   0  0  0  0  0  0  0  0  0  0  0  0
    2.2778   -2.6410    0.2230 H   0  0  0  0  0  0  0  0  0  0  0  0
    1.6580   -2.2491   -1.3264 H   0  0  0  0  0  0  0  0  0  0  0  0
   -2.6650   -0.4210    1.4476 H   0  0  0  0  0  0  0  0  0  0  0  0
   -1.2039    1.3906    1.1265 H   0  0  0  0  0  0  0  0  0  0  0  0
   -0.7995    0.9570   -0.5944 H   0  0  0  0  0  0  0  0  0  0  0  0
    3.3867    3.1147    0.3331 H   0  0  0  0  0  0  0  0  0  0  0  0
    4.3458   -0.7866   -1.2324 H   0  0  0  0  0  0  0  0  0  0  0  0
    4.9531    1.5792   -0.8563 H   0  0  0  0  0  0  0  0  0  0  0  0
    1.2030    2.2685    1.1471 H   0  0  0  0  0  0  0  0  0  0  0  0
  7  1  1  0
 15  1  2  0
  1  3  1  0
  2  7  1  0
  2 16  1  0
  2 17  1  0
  3 18  1  0
 12  4  1  0
  6  4  2  0
  4  8  1  0
  9  5  1  0
  5 19  1  0
  5 20  1  0
  8  7  1  0
  7 21  1  1
  8 22  1  0
  8 23  1  0
 11  9  2  0
 12  9  1  0
 10 13  2  0
 10 14  1  0
 10 24  1  0
 13 11  1  0
 11 25  1  0
 14 12  2  0
 13 26  1  0
 14 27  1  0
M  END
