
     RDKit          3D

 29 30  0  0  0  0  0  0  0  0999 V2000
    8.1718   -0.6326    0.0768 N   0  0  0  0  0  0  0  0  0  0  0  0
   -3.3005   -2.5452    0.1610 Br  0  0  0  0  0  0  0  0  0  0  0  0
   -2.3577    3.0302   -0.0483 Br  0  0  0  0  0  0  0  0  0  0  0  0
    2.5903    0.3249    0.0447 C   0  0  0  0  0  0  0  0  0  0  0  0
    1.5892   -0.5678    0.0528 C   0  0  0  0  0  0  0  0  0  0  0  0
    6.2961    0.8881    0.0497 C   0  0  0  0  0  0  0  0  0  0  0  0
    5.9115   -1.4823    0.0192 C   0  0  0  0  0  0  0  0  0  0  0  0
    4.9298    1.0966    0.0542 C   0  0  0  0  0  0  0  0  0  0  0  0
    4.5506   -1.2589    0.0237 C   0  0  0  0  0  0  0  0  0  0  0  0
   -0.7518   -1.3135    0.0960 C   0  0  0  0  0  0  0  0  0  0  0  0
   -0.3482    1.0401    0.0094 C   0  0  0  0  0  0  0  0  0  0  0  0
    6.8196   -0.4107    0.0324 C   0  0  0  0  0  0  0  0  0  0  0  0
   -2.6386    0.2178    0.0603 C   0  0  0  0  0  0  0  0  0  0  0  0
   -2.1160   -1.0755    0.1003 C   0  0  0  0  0  0  0  0  0  0  0  0
   -1.7087    1.2643    0.0132 C   0  0  0  0  0  0  0  0  0  0  0  0
    4.0175    0.0365    0.0422 C   0  0  0  0  0  0  0  0  0  0  0  0
    0.1617   -0.2614    0.0527 C   0  0  0  0  0  0  0  0  0  0  0  0
    8.7626    0.1246   -0.2255 H   0  0  0  0  0  0  0  0  0  0  0  0
    8.4937   -1.5281   -0.2524 H   0  0  0  0  0  0  0  0  0  0  0  0
   -4.4992   -0.2544    0.0959 H   0  0  0  0  0  0  0  0  0  0  0  0
    2.3506    1.3845    0.0405 H   0  0  0  0  0  0  0  0  0  0  0  0
    1.8203   -1.6283    0.0634 H   0  0  0  0  0  0  0  0  0  0  0  0
    6.9694    1.7371    0.0600 H   0  0  0  0  0  0  0  0  0  0  0  0
    6.2857   -2.4994    0.0033 H   0  0  0  0  0  0  0  0  0  0  0  0
    4.5590    2.1154    0.0661 H   0  0  0  0  0  0  0  0  0  0  0  0
    3.8918   -2.1188    0.0082 H   0  0  0  0  0  0  0  0  0  0  0  0
   -0.3875   -2.3326    0.1277 H   0  0  0  0  0  0  0  0  0  0  0  0
    0.3241    1.8870   -0.0278 H   0  0  0  0  0  0  0  0  0  0  0  0
   -3.9345    0.5286    0.0638 O   0  0  0  0  0  0  0  0  0  0  0  0
  1 12  1  0
  1 18  1  0
  1 19  1  0
 13 29  1  0
 29 20  1  0
 14  2  1  0
 15  3  1  0
 16  4  1  0
  4  5  2  0
  4 21  1  0
  5 17  1  0
  5 22  1  0
 12  6  2  0
  6  8  1  0
  6 23  1  0
 12  7  1  0
  7  9  2  0
  7 24  1  0
  8 16  2  0
  8 25  1  0
  9 16  1  0
  9 26  1  0
 17 10  2  0
 10 14  1  0
 10 27  1  0
 17 11  1  0
 11 15  2  0
 11 28  1  0
 14 13  2  0
 15 13  1  0
M  END
