
     RDKit          3D

 21 22  0  0  0  0  0  0  0  0999 V2000
    3.3621    1.1402   -0.2442 N   0  0  0  0  0  0  0  0  0  0  0  0
    1.9904    1.2775   -0.1503 N   0  0  0  0  0  0  0  0  0  0  0  0
    1.2827    0.2054   -0.1327 C   0  0  0  0  0  0  0  0  0  0  0  0
    1.7826   -1.1559   -0.1757 C   0  0  0  0  0  0  0  0  0  0  0  0
    0.9352   -2.2046   -0.1157 C   0  0  0  0  0  0  0  0  0  0  0  0
   -0.4057   -2.0549   -0.0146 N   0  0  0  0  0  0  0  0  0  0  0  0
   -0.9907   -0.8094    0.0011 C   0  0  0  0  0  0  0  0  0  0  0  0
   -2.3827   -0.6948    0.0769 C   0  0  0  0  0  0  0  0  0  0  0  0
   -2.9742    0.5509    0.0864 C   0  0  0  0  0  0  0  0  0  0  0  0
   -2.1869    1.7008    0.0218 C   0  0  0  0  0  0  0  0  0  0  0  0
   -0.8129    1.5856   -0.0502 C   0  0  0  0  0  0  0  0  0  0  0  0
   -0.1837    0.3369   -0.0631 C   0  0  0  0  0  0  0  0  0  0  0  0
    3.7756    2.0201    0.0277 H   0  0  0  0  0  0  0  0  0  0  0  0
    3.7347    0.4291    0.3785 H   0  0  0  0  0  0  0  0  0  0  0  0
    2.8368   -1.3634   -0.2814 H   0  0  0  0  0  0  0  0  0  0  0  0
    1.2849   -3.2266   -0.1522 H   0  0  0  0  0  0  0  0  0  0  0  0
   -2.9900   -1.5904    0.1270 H   0  0  0  0  0  0  0  0  0  0  0  0
   -4.0518    0.6302    0.1443 H   0  0  0  0  0  0  0  0  0  0  0  0
   -2.6492    2.6789    0.0306 H   0  0  0  0  0  0  0  0  0  0  0  0
   -0.1953    2.4725   -0.0961 H   0  0  0  0  0  0  0  0  0  0  0  0
   -0.9915   -2.8721    0.0371 H   0  0  0  0  0  0  0  0  0  0  0  0
  1  2  1  0
  2  3  2  0
 11 10  2  0
 11 12  1  0
  3 12  1  0
  3  4  1  0
 10  9  1  0
 12  7  2  0
  4  5  2  0
  9  8  2  0
  7  8  1  0
  7  6  1  0
  5  6  1  0
  1 13  1  0
  1 14  1  0
  4 15  1  0
  5 16  1  0
  8 17  1  0
  9 18  1  0
 10 19  1  0
 11 20  1  0
  6 21  1  0
M  END
