
     RDKit          3D

 30 31  0  0  0  0  0  0  0  0999 V2000
   -2.2784   -1.1461    0.0157 N   0  0  0  0  0  0  0  0  0  0  0  0
    5.4045    0.4085   -0.1184 N   0  0  0  0  0  0  0  0  0  0  0  0
   -3.4538   -0.5366   -0.0183 C   0  0  0  0  0  0  0  0  0  0  0  0
   -4.6701   -1.4062   -0.0050 C   0  0  0  0  0  0  0  0  0  0  0  0
   -1.1895   -0.3685    0.0094 C   0  0  0  0  0  0  0  0  0  0  0  0
    1.3110   -0.6074    0.0038 C   0  0  0  0  0  0  0  0  0  0  0  0
    2.2922   -1.5673   -0.2595 C   0  0  0  0  0  0  0  0  0  0  0  0
    4.0645    0.0660   -0.0404 C   0  0  0  0  0  0  0  0  0  0  0  0
   -2.3492    3.0649   -0.0772 C   0  0  0  0  0  0  0  0  0  0  0  0
   -2.3617    1.5702   -0.0592 C   0  0  0  0  0  0  0  0  0  0  0  0
   -3.5482    0.8518   -0.0637 C   0  0  0  0  0  0  0  0  0  0  0  0
   -0.0155   -1.0498    0.0295 N   0  0  0  0  0  0  0  0  0  0  0  0
    3.6359   -1.2435   -0.2797 C   0  0  0  0  0  0  0  0  0  0  0  0
    3.0820    1.0212    0.2246 C   0  0  0  0  0  0  0  0  0  0  0  0
    1.7325    0.6990    0.2518 C   0  0  0  0  0  0  0  0  0  0  0  0
   -1.1804    0.9600   -0.0204 N   0  0  0  0  0  0  0  0  0  0  0  0
    6.0486   -0.3418    0.0747 H   0  0  0  0  0  0  0  0  0  0  0  0
    5.6593    1.2431    0.3854 H   0  0  0  0  0  0  0  0  0  0  0  0
   -4.7122   -1.9831    0.9200 H   0  0  0  0  0  0  0  0  0  0  0  0
   -5.5850   -0.8227   -0.0868 H   0  0  0  0  0  0  0  0  0  0  0  0
   -4.6391   -2.1196   -0.8288 H   0  0  0  0  0  0  0  0  0  0  0  0
    1.9987   -2.5920   -0.4583 H   0  0  0  0  0  0  0  0  0  0  0  0
   -1.6100    3.4351   -0.7868 H   0  0  0  0  0  0  0  0  0  0  0  0
   -3.3242    3.4728   -0.3361 H   0  0  0  0  0  0  0  0  0  0  0  0
   -2.0727    3.4478    0.9071 H   0  0  0  0  0  0  0  0  0  0  0  0
   -4.5067    1.3502   -0.0940 H   0  0  0  0  0  0  0  0  0  0  0  0
   -0.1369   -2.0508    0.0380 H   0  0  0  0  0  0  0  0  0  0  0  0
    4.3626   -2.0200   -0.4886 H   0  0  0  0  0  0  0  0  0  0  0  0
    3.3752    2.0447    0.4287 H   0  0  0  0  0  0  0  0  0  0  0  0
    1.0121    1.4761    0.4503 H   0  0  0  0  0  0  0  0  0  0  0  0
  9 10  1  0
 14 15  2  0
 14  8  1  0
  2  8  1  0
 15  6  1  0
  8 13  2  0
 10 16  2  0
 10 11  1  0
 16  5  1  0
 11  3  2  0
  6 12  1  0
  6  7  2  0
 13  7  1  0
  5 12  1  0
  5  1  2  0
  3  1  1  0
  3  4  1  0
  2 17  1  0
  2 18  1  0
  4 19  1  0
  4 20  1  0
  4 21  1  0
  7 22  1  0
  9 23  1  0
  9 24  1  0
  9 25  1  0
 11 26  1  0
 12 27  1  0
 13 28  1  0
 14 29  1  0
 15 30  1  0
M  END
