
     RDKit          3D

 69 72  0  0  0  0  0  0  0  0999 V2000
    4.0755    0.4648    1.4659 C   0  0  0  0  0  0  0  0  0  0  0  0
    3.0534    0.3773    0.6167 C   0  0  0  0  0  0  0  0  0  0  0  0
    3.3465    0.0728   -0.8125 C   0  0  0  0  0  0  0  0  0  0  0  0
    2.9792   -1.1354   -1.4049 C   0  0  0  0  0  0  0  0  0  0  0  0
    3.2602   -1.3840   -2.7411 C   0  0  0  0  0  0  0  0  0  0  0  0
    3.9111   -0.4292   -3.5114 C   0  0  0  0  0  0  0  0  0  0  0  0
    4.2916    0.7725   -2.9308 C   0  0  0  0  0  0  0  0  0  0  0  0
    4.0125    1.0180   -1.5928 C   0  0  0  0  0  0  0  0  0  0  0  0
    1.5978    0.6751    0.9593 C   0  0  1  0  0  0  0  0  0  0  0  0
    1.0906    1.8391    0.0427 C   0  0  1  0  0  0  0  0  0  0  0  0
    0.3199    1.1741   -1.0911 C   0  0  0  0  0  0  0  0  0  0  0  0
   -0.0520   -0.1715   -0.5342 C   0  0  0  0  0  0  0  0  0  0  0  0
   -1.0542   -1.0095   -1.2575 C   0  0  0  0  0  0  0  0  0  0  0  0
   -2.4899   -0.5077   -1.0771 C   0  0  0  0  0  0  0  0  0  0  0  0
   -3.4883   -1.2206   -1.9786 C   0  0  0  0  0  0  0  0  0  0  0  0
   -4.9196   -0.7441   -1.7683 C   0  0  0  0  0  0  0  0  0  0  0  0
   -5.9273   -1.4431   -2.6728 C   0  0  0  0  0  0  0  0  0  0  0  0
   -7.3560   -0.9723   -2.4394 C   0  0  0  0  0  0  0  0  0  0  0  0
    0.6500   -0.4567    0.5739 C   0  0  0  0  0  0  0  0  0  0  0  0
    0.5382   -1.6769    1.3895 C   0  0  0  0  0  0  0  0  0  0  0  0
   -0.7146   -2.1883    1.7409 C   0  0  0  0  0  0  0  0  0  0  0  0
   -0.8347   -3.3415    2.5026 C   0  0  0  0  0  0  0  0  0  0  0  0
    0.2999   -4.0078    2.9453 C   0  0  0  0  0  0  0  0  0  0  0  0
    1.5524   -3.5009    2.6259 C   0  0  0  0  0  0  0  0  0  0  0  0
    1.6702   -2.3472    1.8639 C   0  0  0  0  0  0  0  0  0  0  0  0
    0.2749    2.7565    0.9676 C   0  0  2  0  0  0  0  0  0  0  0  0
   -3.5037    2.4699    1.2451 C   0  0  0  0  0  0  0  0  0  0  0  0
    1.0377    2.6481    2.2871 C   0  0  0  0  0  0  0  0  0  0  0  0
    1.3447    1.1579    2.4096 C   0  0  0  0  0  0  0  0  0  0  0  0
   -1.1011    2.3194    1.0970 N   0  0  0  0  0  0  0  0  0  0  0  0
   -2.0578    4.3674    1.1263 O   0  0  0  0  0  0  0  0  0  0  0  0
    5.0886    0.2817    1.1308 H   0  0  0  0  0  0  0  0  0  0  0  0
    3.9589    0.7065    2.5132 H   0  0  0  0  0  0  0  0  0  0  0  0
    2.4780   -1.8989   -0.8255 H   0  0  0  0  0  0  0  0  0  0  0  0
    2.9706   -2.3303   -3.1802 H   0  0  0  0  0  0  0  0  0  0  0  0
    4.1259   -0.6239   -4.5542 H   0  0  0  0  0  0  0  0  0  0  0  0
    4.8068    1.5222   -3.5177 H   0  0  0  0  0  0  0  0  0  0  0  0
    4.3086    1.9603   -1.1477 H   0  0  0  0  0  0  0  0  0  0  0  0
    1.9280    2.4314   -0.3306 H   0  0  0  0  0  0  0  0  0  0  0  0
   -0.5509    1.7541   -1.4126 H   0  0  0  0  0  0  0  0  0  0  0  0
    0.9462    1.0452   -1.9801 H   0  0  0  0  0  0  0  0  0  0  0  0
   -0.8078   -0.9816   -2.3253 H   0  0  0  0  0  0  0  0  0  0  0  0
   -0.9895   -2.0564   -0.9529 H   0  0  0  0  0  0  0  0  0  0  0  0
   -2.7951   -0.6419   -0.0333 H   0  0  0  0  0  0  0  0  0  0  0  0
   -2.5351    0.5692   -1.2687 H   0  0  0  0  0  0  0  0  0  0  0  0
   -3.2023   -1.0686   -3.0251 H   0  0  0  0  0  0  0  0  0  0  0  0
   -3.4317   -2.3000   -1.8003 H   0  0  0  0  0  0  0  0  0  0  0  0
   -5.2043   -0.8995   -0.7215 H   0  0  0  0  0  0  0  0  0  0  0  0
   -4.9722    0.3373   -1.9383 H   0  0  0  0  0  0  0  0  0  0  0  0
   -5.6530   -1.2738   -3.7188 H   0  0  0  0  0  0  0  0  0  0  0  0
   -5.8656   -2.5242   -2.5145 H   0  0  0  0  0  0  0  0  0  0  0  0
   -8.0610   -1.4863   -3.0939 H   0  0  0  0  0  0  0  0  0  0  0  0
   -7.6691   -1.1537   -1.4093 H   0  0  0  0  0  0  0  0  0  0  0  0
   -7.4543    0.0986   -2.6277 H   0  0  0  0  0  0  0  0  0  0  0  0
   -1.6116   -1.6651    1.4359 H   0  0  0  0  0  0  0  0  0  0  0  0
   -1.8189   -3.7133    2.7568 H   0  0  0  0  0  0  0  0  0  0  0  0
    0.2089   -4.9068    3.5410 H   0  0  0  0  0  0  0  0  0  0  0  0
    2.4464   -4.0053    2.9699 H   0  0  0  0  0  0  0  0  0  0  0  0
    2.6574   -1.9696    1.6353 H   0  0  0  0  0  0  0  0  0  0  0  0
    0.2568    3.7768    0.5863 H   0  0  0  0  0  0  0  0  0  0  0  0
   -4.0784    2.6934    0.3456 H   0  0  0  0  0  0  0  0  0  0  0  0
   -3.4484    1.3880    1.3511 H   0  0  0  0  0  0  0  0  0  0  0  0
   -4.0581    2.8715    2.0927 H   0  0  0  0  0  0  0  0  0  0  0  0
    1.9642    3.2240    2.2101 H   0  0  0  0  0  0  0  0  0  0  0  0
    0.4765    3.0461    3.1337 H   0  0  0  0  0  0  0  0  0  0  0  0
    0.4824    0.6300    2.8243 H   0  0  0  0  0  0  0  0  0  0  0  0
    2.1635    0.9615    3.0984 H   0  0  0  0  0  0  0  0  0  0  0  0
   -1.2713    1.3272    1.1404 H   0  0  0  0  0  0  0  0  0  0  0  0
   -2.1578    3.1474    1.1559 C   0  0  0  0  0  0  0  0  0  0  0  0
 23 24  2  0
 23 22  1  0
 24 25  1  0
 22 21  2  0
 25 20  2  0
 21 20  1  0
 20 19  1  0
  1  2  2  0
 19  9  1  0
 19 12  2  0
 14 13  1  0
 14 15  1  0
  9  2  1  1
  2  3  1  0
 16 15  1  0
 16 17  1  0
  8  3  1  0
  8  7  2  0
 13 12  1  0
 29  9  1  0
 29 28  1  0
  9 10  1  0
  3  4  2  0
 12 11  1  0
  7  6  1  0
 18 17  1  0
  4  5  1  0
  6  5  2  0
 28 26  1  0
 11 10  1  0
 10 26  1  0
 26 30  1  0
 30 69  1  0
 69 27  1  0
 69 31  2  0
  1 32  1  0
  1 33  1  0
  4 34  1  0
  5 35  1  0
  6 36  1  0
  7 37  1  0
  8 38  1  0
 10 39  1  6
 11 40  1  0
 11 41  1  0
 13 42  1  0
 13 43  1  0
 14 44  1  0
 14 45  1  0
 15 46  1  0
 15 47  1  0
 16 48  1  0
 16 49  1  0
 17 50  1  0
 17 51  1  0
 18 52  1  0
 18 53  1  0
 18 54  1  0
 21 55  1  0
 22 56  1  0
 23 57  1  0
 24 58  1  0
 25 59  1  0
 26 60  1  6
 27 61  1  0
 27 62  1  0
 27 63  1  0
 28 64  1  0
 28 65  1  0
 29 66  1  0
 29 67  1  0
 30 68  1  0
M  END
