
     RDKit          3D

 18 19  0  0  0  0  0  0  0  0999 V2000
   -2.8087   -0.2256   -0.0120 C   0  0  0  0  0  0  0  0  0  0  0  0
   -2.3009    1.0346    0.0043 O   0  0  0  0  0  0  0  0  0  0  0  0
   -1.8369   -1.1664   -0.0277 C   0  0  0  0  0  0  0  0  0  0  0  0
   -0.6037   -0.4443   -0.0205 C   0  0  0  0  0  0  0  0  0  0  0  0
   -4.2635   -0.4064   -0.0120 C   0  0  0  0  0  0  0  0  0  0  0  0
   -0.9621    0.9056   -0.0004 C   0  0  0  0  0  0  0  0  0  0  0  0
    0.7454   -0.8062   -0.0289 C   0  0  0  0  0  0  0  0  0  0  0  0
   -4.9157    0.7414    0.0007 O   0  0  0  0  0  0  0  0  0  0  0  0
   -0.0366    1.9357    0.0130 C   0  0  0  0  0  0  0  0  0  0  0  0
    1.6692    0.2177   -0.0154 C   0  0  0  0  0  0  0  0  0  0  0  0
   -4.7754   -1.4984   -0.0225 O   0  0  0  0  0  0  0  0  0  0  0  0
    1.2965    1.5706    0.0050 C   0  0  0  0  0  0  0  0  0  0  0  0
    3.5110   -0.2052   -0.0255 Br  0  0  0  0  0  0  0  0  0  0  0  0
   -1.9773   -2.2349   -0.0411 H   0  0  0  0  0  0  0  0  0  0  0  0
    1.0410   -1.8465   -0.0457 H   0  0  0  0  0  0  0  0  0  0  0  0
   -5.8718    0.5818   -0.0012 H   0  0  0  0  0  0  0  0  0  0  0  0
   -0.3308    2.9761    0.0294 H   0  0  0  0  0  0  0  0  0  0  0  0
    2.0532    2.3428    0.0150 H   0  0  0  0  0  0  0  0  0  0  0  0
  2  1  1  0
  5  1  1  0
  1  3  2  0
  2  6  1  0
  4  3  1  0
  3 14  1  0
  6  4  2  0
  4  7  1  0
 11  5  2  0
  5  8  1  0
  9  6  1  0
 10  7  2  0
  7 15  1  0
  8 16  1  0
  9 12  2  0
  9 17  1  0
 12 10  1  0
 10 13  1  0
 12 18  1  0
M  END
