
     RDKit          3D

 39 40  0  0  0  0  0  0  0  0999 V2000
   -6.8229   -1.6092   -1.2522 F   0  0  0  0  0  0  0  0  0  0  0  0
   -6.1945   -0.7246   -0.4611 C   0  0  0  0  0  0  0  0  0  0  0  0
   -4.8499   -0.9017   -0.2048 C   0  0  0  0  0  0  0  0  0  0  0  0
   -6.9177    0.3280    0.0670 C   0  0  0  0  0  0  0  0  0  0  0  0
   -6.2566    1.2337    0.8841 C   0  0  0  0  0  0  0  0  0  0  0  0
   -4.9036    1.0809    1.1559 C   0  0  0  0  0  0  0  0  0  0  0  0
   -4.1961    0.0122    0.6163 C   0  0  0  0  0  0  0  0  0  0  0  0
   -2.7280   -0.1395    0.8772 C   0  0  0  0  0  0  0  0  0  0  0  0
   -2.0472    0.4270   -0.2361 O   0  0  0  0  0  0  0  0  0  0  0  0
   -0.7033    0.4281   -0.2427 C   0  0  0  0  0  0  0  0  0  0  0  0
   -0.0935    0.9908   -1.3659 C   0  0  0  0  0  0  0  0  0  0  0  0
    1.2837    1.0394   -1.4512 C   0  0  0  0  0  0  0  0  0  0  0  0
    0.0904   -0.0874    0.7848 C   0  0  0  0  0  0  0  0  0  0  0  0
    1.4697   -0.0305    0.6825 C   0  0  0  0  0  0  0  0  0  0  0  0
    2.0898    0.5317   -0.4308 C   0  0  0  0  0  0  0  0  0  0  0  0
    3.5452    0.6144   -0.5559 C   0  0  0  0  0  0  0  0  0  0  0  0
    4.3379    0.1744    0.3249 N   0  0  0  0  0  0  0  0  0  0  0  0
    5.7489    0.3467    0.1030 C   0  0  1  0  0  0  0  0  0  0  0  0
    6.3409    1.1609    1.2559 C   0  0  0  0  0  0  0  0  0  0  0  0
    6.4231   -1.0237    0.0224 C   0  0  0  0  0  0  0  0  0  0  0  0
    5.8574   -2.0575    0.3358 O   0  0  0  0  0  0  0  0  0  0  0  0
    7.6917   -0.9829   -0.4127 N   0  0  0  0  0  0  0  0  0  0  0  0
   -4.3212   -1.7448   -0.6328 H   0  0  0  0  0  0  0  0  0  0  0  0
   -7.9715    0.4370   -0.1527 H   0  0  0  0  0  0  0  0  0  0  0  0
   -6.8036    2.0638    1.3103 H   0  0  0  0  0  0  0  0  0  0  0  0
   -4.3976    1.7948    1.7937 H   0  0  0  0  0  0  0  0  0  0  0  0
   -2.4504    0.3772    1.8011 H   0  0  0  0  0  0  0  0  0  0  0  0
   -2.4606   -1.1952    0.9888 H   0  0  0  0  0  0  0  0  0  0  0  0
   -0.7069    1.3900   -2.1638 H   0  0  0  0  0  0  0  0  0  0  0  0
   -0.3467   -0.5304    1.6688 H   0  0  0  0  0  0  0  0  0  0  0  0
    1.7425    1.4815   -2.3276 H   0  0  0  0  0  0  0  0  0  0  0  0
    2.0746   -0.4301    1.4862 H   0  0  0  0  0  0  0  0  0  0  0  0
    3.9057    1.0926   -1.4753 H   0  0  0  0  0  0  0  0  0  0  0  0
    5.9549    0.8763   -0.8397 H   0  0  0  0  0  0  0  0  0  0  0  0
    6.1853    0.6525    2.2077 H   0  0  0  0  0  0  0  0  0  0  0  0
    7.4100    1.3238    1.1238 H   0  0  0  0  0  0  0  0  0  0  0  0
    5.8588    2.1368    1.3059 H   0  0  0  0  0  0  0  0  0  0  0  0
    8.1295   -0.1262   -0.7053 H   0  0  0  0  0  0  0  0  0  0  0  0
    8.2237   -1.8319   -0.5123 H   0  0  0  0  0  0  0  0  0  0  0  0
  1  2  1  0
  2  3  2  0
  2  4  1  0
  3  7  1  0
  3 23  1  0
  4  5  2  0
  4 24  1  0
  5  6  1  0
  5 25  1  0
  6  7  2  0
  6 26  1  0
  7  8  1  0
  8  9  1  0
  8 27  1  0
  8 28  1  0
  9 10  1  0
 10 11  2  0
 10 13  1  0
 11 12  1  0
 11 29  1  0
 12 15  2  0
 12 31  1  0
 13 14  2  0
 13 30  1  0
 14 15  1  0
 14 32  1  0
 15 16  1  0
 16 17  2  0
 16 33  1  0
 17 18  1  0
 18 19  1  0
 18 20  1  0
 18 34  1  6
 19 35  1  0
 19 36  1  0
 19 37  1  0
 20 21  2  0
 20 22  1  0
 22 38  1  0
 22 39  1  0
M  END
