
     RDKit          3D

 31 33  0  0  0  0  0  0  0  0999 V2000
    3.3131    0.0393    0.0174 C   0  0  0  0  0  0  0  0  0  0  0  0
    3.0950   -1.3348    0.2278 C   0  0  0  0  0  0  0  0  0  0  0  0
    1.8162   -1.8469    0.3373 C   0  0  0  0  0  0  0  0  0  0  0  0
    0.7616   -0.9512    0.2201 C   0  0  0  0  0  0  0  0  0  0  0  0
    0.9599    0.4327    0.0052 C   0  0  0  0  0  0  0  0  0  0  0  0
    2.2498    0.9348   -0.0924 C   0  0  0  0  0  0  0  0  0  0  0  0
    4.6864    0.5390   -0.0869 C   0  0  0  0  0  0  0  0  0  0  0  0
    4.9803    1.7306    0.3811 N   0  0  0  0  0  0  0  0  0  0  0  0
    5.6101   -0.2074   -0.6480 N   0  0  0  0  0  0  0  0  0  0  0  0
   -0.5854   -1.0978    0.2619 N   0  0  0  0  0  0  0  0  0  0  0  0
   -0.2414    1.0759   -0.0815 N   0  0  0  0  0  0  0  0  0  0  0  0
   -1.1490    0.1313    0.0777 C   0  0  0  0  0  0  0  0  0  0  0  0
   -2.5844    0.2987    0.0657 C   0  0  0  0  0  0  0  0  0  0  0  0
   -3.1173    1.5774   -0.1431 C   0  0  0  0  0  0  0  0  0  0  0  0
   -4.4763    1.8036   -0.1680 C   0  0  0  0  0  0  0  0  0  0  0  0
   -5.3361    0.7122    0.0225 C   0  0  0  0  0  0  0  0  0  0  0  0
   -4.8452   -0.5552    0.2286 C   0  0  0  0  0  0  0  0  0  0  0  0
   -3.4433   -0.8412    0.2623 C   0  0  0  0  0  0  0  0  0  0  0  0
   -3.0103   -2.0207    0.4528 O   0  0  0  0  0  0  0  0  0  0  0  0
    3.9352   -2.0068    0.3413 H   0  0  0  0  0  0  0  0  0  0  0  0
    1.6535   -2.9019    0.5113 H   0  0  0  0  0  0  0  0  0  0  0  0
    2.4105    1.9888   -0.2811 H   0  0  0  0  0  0  0  0  0  0  0  0
    4.3152    2.2440    0.9356 H   0  0  0  0  0  0  0  0  0  0  0  0
    5.8973    2.1374    0.2759 H   0  0  0  0  0  0  0  0  0  0  0  0
    6.5795    0.0700   -0.6759 H   0  0  0  0  0  0  0  0  0  0  0  0
    5.3660   -1.0577   -1.1280 H   0  0  0  0  0  0  0  0  0  0  0  0
   -1.1927   -1.9090    0.4028 H   0  0  0  0  0  0  0  0  0  0  0  0
   -2.4311    2.4036   -0.2885 H   0  0  0  0  0  0  0  0  0  0  0  0
   -4.8693    2.7980   -0.3318 H   0  0  0  0  0  0  0  0  0  0  0  0
   -6.4092    0.8670    0.0073 H   0  0  0  0  0  0  0  0  0  0  0  0
   -5.5308   -1.3834    0.3715 H   0  0  0  0  0  0  0  0  0  0  0  0
  1  2  2  0
  1  6  1  0
  1  7  1  0
  2  3  1  0
  2 20  1  0
  3  4  2  0
  3 21  1  0
  4  5  1  0
  4 10  1  0
  5  6  2  0
  5 11  1  0
  6 22  1  0
  7  8  1  0
  7  9  2  0
  8 23  1  0
  8 24  1  0
  9 25  1  0
  9 26  1  0
 10 12  1  0
 10 27  1  0
 11 12  2  0
 12 13  1  0
 13 14  2  0
 13 18  1  0
 14 15  1  0
 14 28  1  0
 15 16  2  0
 15 29  1  0
 16 17  1  0
 16 30  1  0
 17 18  2  0
 17 31  1  0
 18 19  1  0
M  CHG  2   9   1  19  -1
M  END
