
     RDKit          3D

 19 18  0  0  0  0  0  0  0  0999 V2000
    0.1363    0.2495   -2.4545 N   0  0  0  0  0  0  0  0  0  0  0  0
    0.6930   -0.2886   -1.2209 C   0  0  0  0  0  0  0  0  0  0  0  0
   -0.0537    0.1999    0.0188 C   0  0  2  0  0  0  0  0  0  0  0  0
    0.6784   -0.2704    1.2772 C   0  0  0  0  0  0  0  0  0  0  0  0
   -1.5105   -0.2528    0.0041 C   0  0  0  0  0  0  0  0  0  0  0  0
    0.1246    0.2901    2.5806 C   0  0  0  0  0  0  0  0  0  0  0  0
   -0.7455   -0.2038   -2.6585 H   0  0  0  0  0  0  0  0  0  0  0  0
    0.7431    0.0022   -3.2256 H   0  0  0  0  0  0  0  0  0  0  0  0
    1.7326    0.0433   -1.1507 H   0  0  0  0  0  0  0  0  0  0  0  0
    0.7223   -1.3895   -1.1987 H   0  0  0  0  0  0  0  0  0  0  0  0
   -0.0301    1.2969    0.0022 H   0  0  0  0  0  0  0  0  0  0  0  0
    1.7326    0.0109    1.1909 H   0  0  0  0  0  0  0  0  0  0  0  0
    0.6621   -1.3653    1.3151 H   0  0  0  0  0  0  0  0  0  0  0  0
   -1.5777   -1.3442    0.0018 H   0  0  0  0  0  0  0  0  0  0  0  0
   -2.0576    0.1083    0.8755 H   0  0  0  0  0  0  0  0  0  0  0  0
   -2.0426    0.1151   -0.8748 H   0  0  0  0  0  0  0  0  0  0  0  0
    0.7423   -0.0123    3.4270 H   0  0  0  0  0  0  0  0  0  0  0  0
    0.1029    1.3818    2.5628 H   0  0  0  0  0  0  0  0  0  0  0  0
   -0.8895   -0.0570    2.7803 H   0  0  0  0  0  0  0  0  0  0  0  0
  1  2  1  0
  1  7  1  0
  1  8  1  0
  2  3  1  0
  2  9  1  0
  2 10  1  0
  3  4  1  0
  3  5  1  0
  3 11  1  6
  4  6  1  0
  4 12  1  0
  4 13  1  0
  5 14  1  0
  5 15  1  0
  5 16  1  0
  6 17  1  0
  6 18  1  0
  6 19  1  0
M  END
