
     RDKit          3D

 41 42  0  0  0  0  0  0  0  0999 V2000
   -1.8476    0.0224    0.7652 C   0  0  0  0  0  0  0  0  0  0  0  0
   -0.7035    0.2845    0.0236 C   0  0  0  0  0  0  0  0  0  0  0  0
    0.4972    0.5729    0.6824 C   0  0  0  0  0  0  0  0  0  0  0  0
    0.5256    0.5588    2.0730 C   0  0  0  0  0  0  0  0  0  0  0  0
   -0.6131    0.2526    2.8062 C   0  0  0  0  0  0  0  0  0  0  0  0
   -1.8120   -0.0090    2.1464 C   0  0  0  0  0  0  0  0  0  0  0  0
   -0.5053    0.2504    4.2878 C   0  0  0  0  0  0  0  0  0  0  0  0
   -1.6627    0.0195    4.8884 O   0  0  0  0  0  0  0  0  0  0  0  0
    1.6476    0.9144   -0.0395 N   0  0  0  0  0  0  0  0  0  0  0  0
    2.8337    0.2013   -0.0381 C   0  0  0  0  0  0  0  0  0  0  0  0
    2.9121   -0.8308    0.8506 N   0  0  0  0  0  0  0  0  0  0  0  0
   -0.7851    0.3049   -1.3881 N   0  0  0  0  0  0  0  0  0  0  0  0
   -0.6347   -0.8698   -2.2601 C   0  0  1  0  0  0  0  0  0  0  0  0
   -1.2125   -0.3402   -3.5883 C   0  0  0  0  0  0  0  0  0  0  0  0
   -1.0746    1.1746   -3.5256 C   0  0  0  0  0  0  0  0  0  0  0  0
   -0.9647    1.4753   -2.0540 C   0  0  0  0  0  0  0  0  0  0  0  0
    0.8336   -1.2689   -2.4003 C   0  0  0  0  0  0  0  0  0  0  0  0
    1.5552   -0.2016   -2.9658 O   0  0  0  0  0  0  0  0  0  0  0  0
   -1.4594   -2.0618   -1.7964 C   0  0  0  0  0  0  0  0  0  0  0  0
   -0.8788   -2.6501   -0.6611 O   0  0  0  0  0  0  0  0  0  0  0  0
    0.5265    0.4409    4.8854 O   0  0  0  0  0  0  0  0  0  0  0  0
    3.8349    0.4904   -0.7870 N   0  0  0  0  0  0  0  0  0  0  0  0
   -1.0183    2.5683   -1.5214 O   0  0  0  0  0  0  0  0  0  0  0  0
   -2.7762   -0.1731    0.2460 H   0  0  0  0  0  0  0  0  0  0  0  0
    1.4460    0.8071    2.5836 H   0  0  0  0  0  0  0  0  0  0  0  0
   -2.7168   -0.2326    2.6931 H   0  0  0  0  0  0  0  0  0  0  0  0
   -1.5449    0.0292    5.8499 H   0  0  0  0  0  0  0  0  0  0  0  0
    1.4898    1.4305   -0.8912 H   0  0  0  0  0  0  0  0  0  0  0  0
    3.7357   -1.4015    0.7488 H   0  0  0  0  0  0  0  0  0  0  0  0
    2.0796   -1.3599    1.0579 H   0  0  0  0  0  0  0  0  0  0  0  0
   -2.2696   -0.6092   -3.6512 H   0  0  0  0  0  0  0  0  0  0  0  0
   -0.7166   -0.7861   -4.4486 H   0  0  0  0  0  0  0  0  0  0  0  0
   -1.9250    1.7051   -3.9534 H   0  0  0  0  0  0  0  0  0  0  0  0
   -0.1769    1.5401   -4.0260 H   0  0  0  0  0  0  0  0  0  0  0  0
    1.2376   -1.5578   -1.4255 H   0  0  0  0  0  0  0  0  0  0  0  0
    0.8777   -2.1621   -3.0385 H   0  0  0  0  0  0  0  0  0  0  0  0
    2.4764   -0.2745   -2.6933 H   0  0  0  0  0  0  0  0  0  0  0  0
   -2.4850   -1.7202   -1.6079 H   0  0  0  0  0  0  0  0  0  0  0  0
   -1.5111   -2.7704   -2.6352 H   0  0  0  0  0  0  0  0  0  0  0  0
   -1.4831   -3.3176   -0.3239 H   0  0  0  0  0  0  0  0  0  0  0  0
    3.6798    1.3573   -1.2887 H   0  0  0  0  0  0  0  0  0  0  0  0
  1  2  2  0
  1  6  1  0
  1 24  1  0
  2  3  1  0
  2 12  1  0
  3  4  2  0
  3  9  1  0
  4  5  1  0
  4 25  1  0
  5  6  2  0
  5  7  1  0
  6 26  1  0
  7  8  1  0
  7 21  2  0
  8 27  1  0
  9 10  1  0
  9 28  1  0
 10 11  1  0
 10 22  2  0
 11 29  1  0
 11 30  1  0
 12 13  1  0
 12 16  1  0
 13 14  1  0
 13 17  1  6
 13 19  1  0
 14 15  1  0
 14 31  1  0
 14 32  1  0
 15 16  1  0
 15 33  1  0
 15 34  1  0
 16 23  2  0
 17 18  1  0
 17 35  1  0
 17 36  1  0
 18 37  1  0
 19 20  1  0
 19 38  1  0
 19 39  1  0
 20 40  1  0
 22 41  1  0
M  END
