
     RDKit          3D

 22 22  0  0  0  0  0  0  0  0999 V2000
   -1.6423    1.8819   -0.0890 O   0  0  0  0  0  0  0  0  0  0  0  0
   -0.9316    0.7808   -0.5159 C   0  0  1  0  0  0  0  0  0  0  0  0
    0.3020    0.7641    0.1906 O   0  0  0  0  0  0  0  0  0  0  0  0
   -1.7323   -0.4865   -0.2510 C   0  0  2  0  0  0  0  0  0  0  0  0
   -1.9953   -0.6161    1.1718 N   0  0  0  0  0  0  0  0  0  0  0  0
   -0.9046   -1.6701   -0.7466 C   0  0  0  0  0  0  0  0  0  0  0  0
    0.5337   -1.5216   -0.3608 C   0  0  0  0  0  0  0  0  0  0  0  0
    1.0363   -0.3729    0.0888 C   0  0  0  0  0  0  0  0  0  0  0  0
    2.4434   -0.1750    0.5575 C   0  0  0  0  0  0  0  0  0  0  0  0
    3.1376    0.8205   -0.2526 N   0  0  0  0  0  0  0  0  0  0  0  0
   -1.2700    2.6807   -0.4775 H   0  0  0  0  0  0  0  0  0  0  0  0
   -0.7029    0.8368   -1.5912 H   0  0  0  0  0  0  0  0  0  0  0  0
   -2.6455   -0.4227   -0.8603 H   0  0  0  0  0  0  0  0  0  0  0  0
   -2.6222    0.1183    1.4755 H   0  0  0  0  0  0  0  0  0  0  0  0
   -2.4928   -1.4824    1.3349 H   0  0  0  0  0  0  0  0  0  0  0  0
   -1.3166   -2.5980   -0.3394 H   0  0  0  0  0  0  0  0  0  0  0  0
   -1.0063   -1.7590   -1.8327 H   0  0  0  0  0  0  0  0  0  0  0  0
    1.1913   -2.3786   -0.4309 H   0  0  0  0  0  0  0  0  0  0  0  0
    2.4272    0.0698    1.6299 H   0  0  0  0  0  0  0  0  0  0  0  0
    2.9692   -1.1262    0.4672 H   0  0  0  0  0  0  0  0  0  0  0  0
    2.7748    1.7409   -0.0400 H   0  0  0  0  0  0  0  0  0  0  0  0
    4.1103    0.8438    0.0257 H   0  0  0  0  0  0  0  0  0  0  0  0
 10  9  1  0
  3  8  1  0
  3  2  1  0
  6  7  1  0
  6  4  1  0
  8  7  2  0
  8  9  1  0
  1  2  1  0
  2  4  1  0
  5  4  1  0
  1 11  1  0
  2 12  1  6
  4 13  1  6
  5 14  1  0
  5 15  1  0
  6 16  1  0
  6 17  1  0
  7 18  1  0
  9 19  1  0
  9 20  1  0
 10 21  1  0
 10 22  1  0
M  END
