
     RDKit          3D

 66 70  0  0  0  0  0  0  0  0999 V2000
   -7.0678   -1.5674    1.1395 C   0  0  0  0  0  0  0  0  0  0  0  0
   -8.3078   -1.0282    1.8253 C   0  0  0  0  0  0  0  0  0  0  0  0
   -9.4983   -1.6875    1.3282 N   0  0  0  0  0  0  0  0  0  0  0  0
  -10.6880   -1.2168    1.9978 C   0  0  0  0  0  0  0  0  0  0  0  0
   -9.5967   -1.5384   -0.1095 C   0  0  0  0  0  0  0  0  0  0  0  0
   -8.3571   -2.0843   -0.7920 C   0  0  0  0  0  0  0  0  0  0  0  0
   -7.1782   -1.4038   -0.2963 N   0  0  0  0  0  0  0  0  0  0  0  0
   -5.9733   -1.7734   -0.9966 C   0  0  0  0  0  0  0  0  0  0  0  0
   -4.8673   -0.7615   -0.8325 C   0  0  0  0  0  0  0  0  0  0  0  0
   -3.5361   -1.1525   -0.9337 C   0  0  0  0  0  0  0  0  0  0  0  0
   -2.5103   -0.2247   -0.8425 C   0  0  0  0  0  0  0  0  0  0  0  0
   -5.1492    0.5884   -0.6361 C   0  0  0  0  0  0  0  0  0  0  0  0
   -4.1291    1.5191   -0.5477 C   0  0  0  0  0  0  0  0  0  0  0  0
   -2.7952    1.1245   -0.6400 C   0  0  0  0  0  0  0  0  0  0  0  0
   -1.7472    2.1837   -0.5570 C   0  0  0  0  0  0  0  0  0  0  0  0
   -1.9984    3.3416   -0.8456 O   0  0  0  0  0  0  0  0  0  0  0  0
   -0.5294    1.7610   -0.1311 N   0  0  0  0  0  0  0  0  0  0  0  0
    0.6596    2.4860   -0.0048 C   0  0  0  0  0  0  0  0  0  0  0  0
    1.7888    1.7592    0.3745 C   0  0  0  0  0  0  0  0  0  0  0  0
    0.7804    3.8598   -0.2028 C   0  0  0  0  0  0  0  0  0  0  0  0
    2.0175    4.4630   -0.0230 C   0  0  0  0  0  0  0  0  0  0  0  0
    3.1603    3.7573    0.3263 C   0  0  0  0  0  0  0  0  0  0  0  0
    4.4845    4.4412    0.4881 C   0  0  0  0  0  0  0  0  0  0  0  0
    3.0231    2.3770    0.5172 C   0  0  0  0  0  0  0  0  0  0  0  0
    4.1472    1.6210    0.8779 N   0  0  0  0  0  0  0  0  0  0  0  0
    4.5761    0.4845    0.2780 C   0  0  0  0  0  0  0  0  0  0  0  0
    5.6386   -0.1507    0.6587 N   0  0  0  0  0  0  0  0  0  0  0  0
    3.7771   -0.2094   -1.1073 S   0  0  0  0  0  0  0  0  0  0  0  0
    4.9924   -1.4325   -1.1445 C   0  0  0  0  0  0  0  0  0  0  0  0
    5.8879   -1.2358   -0.1417 C   0  0  0  0  0  0  0  0  0  0  0  0
    7.0629   -2.0638    0.1480 C   0  0  0  0  0  0  0  0  0  0  0  0
    7.9302   -1.7393    1.1890 C   0  0  0  0  0  0  0  0  0  0  0  0
    9.0320   -2.5430    1.4293 C   0  0  0  0  0  0  0  0  0  0  0  0
    9.2361   -3.6506    0.6224 C   0  0  0  0  0  0  0  0  0  0  0  0
    8.4185   -3.9760   -0.3742 N   0  0  0  0  0  0  0  0  0  0  0  0
    7.3678   -3.2034   -0.5989 C   0  0  0  0  0  0  0  0  0  0  0  0
   -6.1952   -1.0225    1.5057 H   0  0  0  0  0  0  0  0  0  0  0  0
   -6.9265   -2.6272    1.4137 H   0  0  0  0  0  0  0  0  0  0  0  0
   -8.2286   -1.1992    2.9019 H   0  0  0  0  0  0  0  0  0  0  0  0
   -8.3529    0.0650    1.6737 H   0  0  0  0  0  0  0  0  0  0  0  0
  -10.8741   -0.1414    1.8477 H   0  0  0  0  0  0  0  0  0  0  0  0
  -11.5625   -1.7595    1.6345 H   0  0  0  0  0  0  0  0  0  0  0  0
  -10.6073   -1.3919    3.0718 H   0  0  0  0  0  0  0  0  0  0  0  0
  -10.4738   -2.0836   -0.4669 H   0  0  0  0  0  0  0  0  0  0  0  0
   -9.7298   -0.4817   -0.4017 H   0  0  0  0  0  0  0  0  0  0  0  0
   -8.3035   -3.1746   -0.6325 H   0  0  0  0  0  0  0  0  0  0  0  0
   -8.4389   -1.9194   -1.8690 H   0  0  0  0  0  0  0  0  0  0  0  0
   -5.6010   -2.7706   -0.7078 H   0  0  0  0  0  0  0  0  0  0  0  0
   -6.2085   -1.8414   -2.0640 H   0  0  0  0  0  0  0  0  0  0  0  0
   -3.2928   -2.1962   -1.0938 H   0  0  0  0  0  0  0  0  0  0  0  0
   -1.4918   -0.5745   -0.9590 H   0  0  0  0  0  0  0  0  0  0  0  0
   -6.1802    0.9050   -0.5439 H   0  0  0  0  0  0  0  0  0  0  0  0
   -4.3715    2.5625   -0.3958 H   0  0  0  0  0  0  0  0  0  0  0  0
   -0.4616    0.7979    0.1587 H   0  0  0  0  0  0  0  0  0  0  0  0
    1.6932    0.7002    0.5845 H   0  0  0  0  0  0  0  0  0  0  0  0
   -0.0668    4.4625   -0.4819 H   0  0  0  0  0  0  0  0  0  0  0  0
    2.0938    5.5327   -0.1760 H   0  0  0  0  0  0  0  0  0  0  0  0
    4.8315    4.4232    1.5241 H   0  0  0  0  0  0  0  0  0  0  0  0
    5.2594    3.9708   -0.1196 H   0  0  0  0  0  0  0  0  0  0  0  0
    4.4153    5.4861    0.1914 H   0  0  0  0  0  0  0  0  0  0  0  0
    4.8139    2.0360    1.5123 H   0  0  0  0  0  0  0  0  0  0  0  0
    4.9540   -2.2089   -1.8909 H   0  0  0  0  0  0  0  0  0  0  0  0
    7.7451   -0.8672    1.8013 H   0  0  0  0  0  0  0  0  0  0  0  0
    9.7236   -2.3147    2.2285 H   0  0  0  0  0  0  0  0  0  0  0  0
   10.0889   -4.3004    0.7833 H   0  0  0  0  0  0  0  0  0  0  0  0
    6.7286   -3.5089   -1.4211 H   0  0  0  0  0  0  0  0  0  0  0  0
  6  5  1  0
  6  7  1  0
  5  3  1  0
  8  7  1  0
  8  9  1  0
 12  9  1  0
 12 13  2  0
  3  4  1  0
  3  2  1  0
  7  1  1  0
  9 10  2  0
 13 14  1  0
  1  2  1  0
 10 11  1  0
 14 11  2  0
 14 15  1  0
 16 15  2  0
 15 17  1  0
 29 28  1  0
 29 30  2  0
 17 18  1  0
 28 26  1  0
 35 36  2  0
 35 34  1  0
 36 31  1  0
 31 30  1  0
 31 32  2  0
 34 33  2  0
 30 27  1  0
 33 32  1  0
 19 18  2  0
 19 24  1  0
 26 27  2  0
 26 25  1  0
 18 20  1  0
 25 24  1  0
 24 22  2  0
 20 21  2  0
 22 21  1  0
 22 23  1  0
  1 37  1  0
  1 38  1  0
  2 39  1  0
  2 40  1  0
  4 41  1  0
  4 42  1  0
  4 43  1  0
  5 44  1  0
  5 45  1  0
  6 46  1  0
  6 47  1  0
  8 48  1  0
  8 49  1  0
 10 50  1  0
 11 51  1  0
 12 52  1  0
 13 53  1  0
 17 54  1  0
 19 55  1  0
 20 56  1  0
 21 57  1  0
 23 58  1  0
 23 59  1  0
 23 60  1  0
 25 61  1  0
 29 62  1  0
 32 63  1  0
 33 64  1  0
 34 65  1  0
 36 66  1  0
M  END
