
     RDKit          3D

 32 32  0  0  0  0  0  0  0  0999 V2000
    2.6497   -0.9642    5.9255 N   0  0  0  0  0  0  0  0  0  0  0  0
    2.2591   -0.7327    4.5505 C   0  0  2  0  0  0  0  0  0  0  0  0
    2.8864   -1.8085    3.6756 C   0  0  0  0  0  0  0  0  0  0  0  0
    4.0730   -1.9665    3.3759 O   0  0  0  0  0  0  0  0  0  0  0  0
    1.9933   -2.7003    3.1717 O   0  0  0  0  0  0  0  0  0  0  0  0
    2.6597    0.6435    3.9791 C   0  0  0  0  0  0  0  0  0  0  0  0
    2.1198    0.8674    2.6238 C   0  0  0  0  0  0  0  0  0  0  0  0
    0.7509    0.9701    2.3264 N   0  0  0  0  0  0  0  0  0  0  0  0
    2.8725    1.0098    1.4416 C   0  0  0  0  0  0  0  0  0  0  0  0
    0.6737    1.1702    0.9975 C   0  0  0  0  0  0  0  0  0  0  0  0
    1.9507    1.2042    0.4069 N   0  0  0  0  0  0  0  0  0  0  0  0
    0.1099    1.8436   -2.0556 O   0  0  0  0  0  0  0  0  0  0  0  0
    3.5792    1.9828   -1.1168 O   0  0  0  0  0  0  0  0  0  0  0  0
    3.3711   -0.7569   -1.3693 O   0  0  0  0  0  0  0  0  0  0  0  0
    1.3543    2.4113   -1.7256 C   0  0  0  0  0  0  0  0  0  0  0  0
    2.2881    1.3963   -0.9977 C   0  0  2  0  0  0  0  0  0  0  0  0
    2.2817    0.0402   -1.7730 C   0  0  0  0  0  0  0  0  0  0  0  0
    2.1533   -0.3438    6.5327 H   0  0  0  0  0  0  0  0  0  0  0  0
    3.6356   -0.8404    6.0470 H   0  0  0  0  0  0  0  0  0  0  0  0
    1.1329   -0.8423    4.4920 H   0  0  0  0  0  0  0  0  0  0  0  0
    2.4585   -3.3551    2.6261 H   0  0  0  0  0  0  0  0  0  0  0  0
    3.7795    0.7227    3.9493 H   0  0  0  0  0  0  0  0  0  0  0  0
    2.2724    1.4469    4.6648 H   0  0  0  0  0  0  0  0  0  0  0  0
    3.9471    0.9892    1.2729 H   0  0  0  0  0  0  0  0  0  0  0  0
   -0.2491    1.2956    0.4161 H   0  0  0  0  0  0  0  0  0  0  0  0
    0.0136    1.8782   -3.0152 H   0  0  0  0  0  0  0  0  0  0  0  0
    4.2371    1.2712   -1.0769 H   0  0  0  0  0  0  0  0  0  0  0  0
    3.1435   -1.1628   -0.5217 H   0  0  0  0  0  0  0  0  0  0  0  0
    1.1180    3.2759   -1.0490 H   0  0  0  0  0  0  0  0  0  0  0  0
    1.8972    2.7788   -2.6349 H   0  0  0  0  0  0  0  0  0  0  0  0
    1.3052   -0.4899   -1.6396 H   0  0  0  0  0  0  0  0  0  0  0  0
    2.4670    0.2557   -2.8594 H   0  0  0  0  0  0  0  0  0  0  0  0
  1  2  1  0
  1 18  1  0
  1 19  1  0
  2  3  1  0
  2  6  1  0
  2 20  1  1
  3  4  2  0
  3  5  1  0
  5 21  1  0
  6  7  1  0
  6 22  1  0
  6 23  1  0
  7  8  1  0
  7  9  2  0
  8 10  2  0
  9 11  1  0
  9 24  1  0
 10 11  1  0
 10 25  1  0
 11 16  1  0
 12 15  1  0
 12 26  1  0
 16 13  1  1
 13 27  1  0
 14 17  1  0
 14 28  1  0
 15 16  1  0
 15 29  1  0
 15 30  1  0
 16 17  1  0
 17 31  1  0
 17 32  1  0
M  END
