
     RDKit          3D

 50 52  0  0  0  0  0  0  0  0999 V2000
    3.3019    2.4173    2.7704 C   0  0  0  0  0  0  0  0  0  0  0  0
    3.3633    1.5533    1.6370 O   0  0  0  0  0  0  0  0  0  0  0  0
    3.5019    2.1192    0.4420 C   0  0  0  0  0  0  0  0  0  0  0  0
    3.5916    3.3180    0.2862 O   0  0  0  0  0  0  0  0  0  0  0  0
    3.5329    1.1158   -0.6281 C   0  0  0  0  0  0  0  0  0  0  0  0
    3.6976    1.5662   -1.8860 C   0  0  0  0  0  0  0  0  0  0  0  0
    3.7247    0.7474   -2.9200 O   0  0  0  0  0  0  0  0  0  0  0  0
    3.9653    1.3427   -4.1942 C   0  0  0  0  0  0  0  0  0  0  0  0
    3.4216   -0.3330   -0.3325 C   0  0  0  0  0  0  0  0  0  0  0  0
    4.5627   -1.1276   -0.4144 C   0  0  0  0  0  0  0  0  0  0  0  0
    4.5073   -2.4888   -0.1565 C   0  0  0  0  0  0  0  0  0  0  0  0
    3.2962   -3.0688    0.1907 C   0  0  0  0  0  0  0  0  0  0  0  0
    2.1518   -2.2889    0.2752 C   0  0  0  0  0  0  0  0  0  0  0  0
    2.1991   -0.9229    0.0097 C   0  0  0  0  0  0  0  0  0  0  0  0
    0.9740   -0.0620    0.1269 C   0  0  0  0  0  0  0  0  0  0  0  0
   -0.1758   -0.8748   -0.0900 O   0  0  0  0  0  0  0  0  0  0  0  0
   -1.3677   -0.3200    0.0462 C   0  0  0  0  0  0  0  0  0  0  0  0
   -2.5018   -1.1822   -0.1130 C   0  0  0  0  0  0  0  0  0  0  0  0
   -2.3205   -2.6503   -0.4072 C   0  0  1  0  0  0  0  0  0  0  0  0
   -1.6443   -3.2599    0.5743 F   0  0  0  0  0  0  0  0  0  0  0  0
   -3.4891   -3.2688   -0.5294 F   0  0  0  0  0  0  0  0  0  0  0  0
   -1.6406   -2.8441   -1.5411 F   0  0  0  0  0  0  0  0  0  0  0  0
   -3.7082   -0.7375    0.0012 N   0  0  0  0  0  0  0  0  0  0  0  0
   -3.8864    0.5756    0.2796 C   0  0  0  0  0  0  0  0  0  0  0  0
   -5.1912    1.0892    0.4157 C   0  0  0  0  0  0  0  0  0  0  0  0
   -5.3923    2.4163    0.7013 C   0  0  0  0  0  0  0  0  0  0  0  0
   -6.7671    2.9925    0.8555 C   0  0  0  0  0  0  0  0  0  0  0  0
   -4.2606    3.2551    0.8546 C   0  0  0  0  0  0  0  0  0  0  0  0
   -2.9823    2.7811    0.7292 C   0  0  0  0  0  0  0  0  0  0  0  0
   -2.7674    1.4209    0.4373 C   0  0  0  0  0  0  0  0  0  0  0  0
   -1.5088    0.9371    0.3112 N   0  0  0  0  0  0  0  0  0  0  0  0
    2.4445    3.0877    2.7150 H   0  0  0  0  0  0  0  0  0  0  0  0
    3.1946    1.7674    3.6341 H   0  0  0  0  0  0  0  0  0  0  0  0
    4.2133    3.0061    2.8732 H   0  0  0  0  0  0  0  0  0  0  0  0
    3.8061    2.6298   -2.0862 H   0  0  0  0  0  0  0  0  0  0  0  0
    3.2247    2.1128   -4.4143 H   0  0  0  0  0  0  0  0  0  0  0  0
    4.9646    1.7769   -4.2383 H   0  0  0  0  0  0  0  0  0  0  0  0
    3.8850    0.5488   -4.9310 H   0  0  0  0  0  0  0  0  0  0  0  0
    5.5062   -0.6680   -0.6813 H   0  0  0  0  0  0  0  0  0  0  0  0
    5.4034   -3.0917   -0.2251 H   0  0  0  0  0  0  0  0  0  0  0  0
    3.2379   -4.1299    0.3957 H   0  0  0  0  0  0  0  0  0  0  0  0
    1.2163   -2.7593    0.5461 H   0  0  0  0  0  0  0  0  0  0  0  0
    0.9176    0.3933    1.1204 H   0  0  0  0  0  0  0  0  0  0  0  0
    0.9947    0.7523   -0.6015 H   0  0  0  0  0  0  0  0  0  0  0  0
   -6.0268    0.4109    0.2920 H   0  0  0  0  0  0  0  0  0  0  0  0
   -6.8935    3.4412    1.8421 H   0  0  0  0  0  0  0  0  0  0  0  0
   -6.9467    3.7798    0.1214 H   0  0  0  0  0  0  0  0  0  0  0  0
   -7.5361    2.2322    0.7293 H   0  0  0  0  0  0  0  0  0  0  0  0
   -4.4161    4.3041    1.0775 H   0  0  0  0  0  0  0  0  0  0  0  0
   -2.1282    3.4348    0.8483 H   0  0  0  0  0  0  0  0  0  0  0  0
  2  1  1  0
  1 32  1  0
  1 33  1  0
  1 34  1  0
  2  3  1  0
  5  3  1  0
  3  4  2  0
  6  5  2  0
  9  5  1  0
  7  6  1  0
  6 35  1  0
  8  7  1  0
  8 36  1  0
  8 37  1  0
  8 38  1  0
 14  9  2  0
  9 10  1  0
 11 10  2  0
 10 39  1  0
 12 11  1  0
 11 40  1  0
 13 12  2  0
 12 41  1  0
 13 14  1  0
 13 42  1  0
 15 14  1  0
 15 16  1  0
 15 43  1  0
 15 44  1  0
 17 16  1  0
 31 17  1  0
 18 17  2  0
 23 18  1  0
 18 19  1  0
 19 22  1  6
 21 19  1  0
 19 20  1  0
 24 23  2  0
 25 24  1  0
 24 30  1  0
 26 25  2  0
 25 45  1  0
 27 26  1  0
 26 28  1  0
 27 46  1  0
 27 47  1  0
 27 48  1  0
 28 29  2  0
 28 49  1  0
 29 30  1  0
 29 50  1  0
 30 31  2  0
M  END
