
     RDKit          3D

 42 42  0  0  0  0  0  0  0  0999 V2000
    3.9025   -1.6267    1.2694 C   0  0  0  0  0  0  0  0  0  0  0  0
    4.7319   -1.5229   -1.8783 C   0  0  0  0  0  0  0  0  0  0  0  0
   -1.4379    3.3363    0.5020 N   0  0  0  0  0  0  0  0  0  0  0  0
   -0.1177    3.3929    0.5468 C   0  0  0  0  0  0  0  0  0  0  0  0
    0.5315    4.7111    0.8363 C   0  0  0  0  0  0  0  0  0  0  0  0
    0.6685    2.2523    0.3201 C   0  0  0  0  0  0  0  0  0  0  0  0
    2.0007    2.3821    0.3690 O   0  0  0  0  0  0  0  0  0  0  0  0
    0.0451    1.0352    0.0387 C   0  0  0  0  0  0  0  0  0  0  0  0
    0.8802   -0.1771   -0.2912 C   0  0  0  0  0  0  0  0  0  0  0  0
   -1.3523    1.0007    0.0112 C   0  0  0  0  0  0  0  0  0  0  0  0
   -2.0558   -0.2948   -0.2798 C   0  0  0  0  0  0  0  0  0  0  0  0
   -2.0414    2.1789    0.2484 C   0  0  0  0  0  0  0  0  0  0  0  0
   -4.4307   -1.2343   -0.7853 P   0  0  1  0  0  0  0  0  0  0  0  0
   -4.0841   -2.6298   -0.4603 O   0  0  0  0  0  0  0  0  0  0  0  0
   -4.4383   -1.0370   -2.3701 O   0  0  0  0  0  0  0  0  0  0  0  0
   -5.7911   -0.6418   -0.2090 O   0  0  0  0  0  0  0  0  0  0  0  0
   -3.4648   -0.1099   -0.1859 O   0  0  0  0  0  0  0  0  0  0  0  0
    2.0815   -0.2255    0.5345 N   0  0  0  0  0  0  0  0  0  0  0  0
    3.0718   -1.1897    0.0798 C   0  0  1  0  0  0  0  0  0  0  0  0
    3.9471   -0.5428   -1.0224 C   0  0  1  0  0  0  0  0  0  0  0  0
    4.7560    0.4758   -0.4804 O   0  0  0  0  0  0  0  0  0  0  0  0
    4.7363   -2.6039    0.9554 O   0  0  0  0  0  0  0  0  0  0  0  0
    3.8177   -1.1512    2.3727 O   0  0  0  0  0  0  0  0  0  0  0  0
    4.0856   -2.3155   -2.2551 H   0  0  0  0  0  0  0  0  0  0  0  0
    5.1515   -1.0000   -2.7376 H   0  0  0  0  0  0  0  0  0  0  0  0
    5.5532   -1.9904   -1.3362 H   0  0  0  0  0  0  0  0  0  0  0  0
    1.1467    4.6676    1.7371 H   0  0  0  0  0  0  0  0  0  0  0  0
    1.1855    5.0280    0.0218 H   0  0  0  0  0  0  0  0  0  0  0  0
   -0.2297    5.4754    0.9790 H   0  0  0  0  0  0  0  0  0  0  0  0
    2.3756    1.4600    0.4495 H   0  0  0  0  0  0  0  0  0  0  0  0
    0.3005   -1.1021   -0.2064 H   0  0  0  0  0  0  0  0  0  0  0  0
    1.1764   -0.1059   -1.3423 H   0  0  0  0  0  0  0  0  0  0  0  0
   -1.7786   -0.6502   -1.2782 H   0  0  0  0  0  0  0  0  0  0  0  0
   -1.7473   -1.0625    0.4356 H   0  0  0  0  0  0  0  0  0  0  0  0
   -3.1232    2.2036    0.2335 H   0  0  0  0  0  0  0  0  0  0  0  0
   -4.7094   -0.1640   -2.6852 H   0  0  0  0  0  0  0  0  0  0  0  0
   -6.5609   -1.2057   -0.3650 H   0  0  0  0  0  0  0  0  0  0  0  0
    1.8142   -0.4176    1.4930 H   0  0  0  0  0  0  0  0  0  0  0  0
    2.5939   -2.0880   -0.3390 H   0  0  0  0  0  0  0  0  0  0  0  0
    3.2432   -0.0347   -1.6884 H   0  0  0  0  0  0  0  0  0  0  0  0
    5.5939    0.0973   -0.1930 H   0  0  0  0  0  0  0  0  0  0  0  0
    5.2761   -2.8429    1.7245 H   0  0  0  0  0  0  0  0  0  0  0  0
 23  1  2  0
 14 13  2  0
  1 22  1  0
  1 19  1  0
 13 15  1  6
 13 17  1  0
 13 16  1  0
 19 18  1  0
 19 20  1  0
 18  9  1  0
 17 11  1  0
  9  8  1  0
  7  6  1  0
 20 21  1  0
 20  2  1  0
  8  6  2  0
  8 10  1  0
  6  4  1  0
 11 10  1  0
 10 12  2  0
  4  5  1  0
  4  3  2  0
 12  3  1  0
  2 24  1  0
  2 25  1  0
  2 26  1  0
  5 27  1  0
  5 28  1  0
  5 29  1  0
  7 30  1  0
  9 31  1  0
  9 32  1  0
 11 33  1  0
 11 34  1  0
 12 35  1  0
 15 36  1  0
 16 37  1  0
 18 38  1  0
 19 39  1  6
 20 40  1  6
 21 41  1  0
 22 42  1  0
M  END
