
     RDKit          3D

105109  0  0  0  0  0  0  0  0999 V2000
   -2.3660   -2.0391    1.3210 C   0  0  0  0  0  0  0  0  0  0  0  0
   -3.3254   -0.9981    1.8882 C   0  0  0  0  0  0  0  0  0  0  0  0
   -4.7078   -1.5844    2.1368 C   0  0  0  0  0  0  0  0  0  0  0  0
   -5.2540   -2.1999    0.8570 C   0  0  0  0  0  0  0  0  0  0  0  0
   -4.3022   -3.2423    0.2785 C   0  0  0  0  0  0  0  0  0  0  0  0
   -2.9006   -2.6734    0.0333 C   0  0  2  0  0  0  0  0  0  0  0  0
   -1.9345   -3.7539   -0.4875 C   0  0  1  0  0  0  0  0  0  0  0  0
   -2.4543   -4.5242   -1.7231 C   0  0  1  0  0  0  0  0  0  0  0  0
   -2.8015   -3.6756   -2.9314 C   0  0  0  0  0  0  0  0  0  0  0  0
   -1.5020   -5.4830   -2.1483 O   0  0  0  0  0  0  0  0  0  0  0  0
   -0.5794   -3.1331   -0.7901 C   0  0  0  0  0  0  0  0  0  0  0  0
   -0.5154   -2.1709   -1.5467 O   0  0  0  0  0  0  0  0  0  0  0  0
    0.5429   -3.5968   -0.1890 N   0  0  0  0  0  0  0  0  0  0  0  0
    0.7019   -4.8760    0.4920 C   0  0  0  0  0  0  0  0  0  0  0  0
    1.4432   -5.8774   -0.3873 C   0  0  0  0  0  0  0  0  0  0  0  0
    2.7579   -5.3062   -0.9045 C   0  0  0  0  0  0  0  0  0  0  0  0
    2.5510   -3.9389   -1.5501 C   0  0  0  0  0  0  0  0  0  0  0  0
    1.8397   -3.0308   -0.5553 C   0  0  1  0  0  0  0  0  0  0  0  0
    1.7900   -1.5768   -0.9990 C   0  0  0  0  0  0  0  0  0  0  0  0
    2.1566   -1.1832   -2.0758 O   0  0  0  0  0  0  0  0  0  0  0  0
    1.4713   -0.7946    0.0264 O   0  0  0  0  0  0  0  0  0  0  0  0
    1.3442    0.6242   -0.1647 C   0  0  2  0  0  0  0  0  0  0  0  0
    2.6438    1.3556    0.1631 C   0  0  0  0  0  0  0  0  0  0  0  0
    3.8161    1.1362   -0.7956 C   0  0  0  0  0  0  0  0  0  0  0  0
    4.9744    2.0242   -0.4309 C   0  0  0  0  0  0  0  0  0  0  0  0
    5.8548    1.6419    0.5876 C   0  0  0  0  0  0  0  0  0  0  0  0
    5.1756    3.2410   -1.0541 C   0  0  0  0  0  0  0  0  0  0  0  0
    6.2330    4.0713   -0.6805 C   0  0  0  0  0  0  0  0  0  0  0  0
    7.1038    3.6928    0.3261 C   0  0  0  0  0  0  0  0  0  0  0  0
    8.1537    4.4195    0.7605 O   0  0  0  0  0  0  0  0  0  0  0  0
    8.3940    5.6674    0.1455 C   0  0  0  0  0  0  0  0  0  0  0  0
    6.9094    2.4529    0.9701 C   0  0  0  0  0  0  0  0  0  0  0  0
    7.8016    2.1529    1.9343 O   0  0  0  0  0  0  0  0  0  0  0  0
    7.6456    0.9346    2.6310 C   0  0  0  0  0  0  0  0  0  0  0  0
    0.2452    1.0891    0.7556 C   0  0  0  0  0  0  0  0  0  0  0  0
   -0.8441    1.7629    0.2343 C   0  0  0  0  0  0  0  0  0  0  0  0
    0.3382    0.8928    2.1348 C   0  0  0  0  0  0  0  0  0  0  0  0
   -0.6445    1.4016    2.9629 C   0  0  0  0  0  0  0  0  0  0  0  0
   -1.7345    2.0958    2.4479 C   0  0  0  0  0  0  0  0  0  0  0  0
   -1.8454    2.2603    1.0722 C   0  0  0  0  0  0  0  0  0  0  0  0
   -2.8772    2.8733    0.4605 O   0  0  0  0  0  0  0  0  0  0  0  0
   -4.0177    3.2073    1.2291 C   0  0  0  0  0  0  0  0  0  0  0  0
   -5.0865    3.7307    0.2954 C   0  0  0  0  0  0  0  0  0  0  0  0
   -5.5313    2.7669   -0.6900 N   0  0  0  0  0  0  0  0  0  0  0  0
   -6.2845    3.4128   -1.7506 C   0  0  0  0  0  0  0  0  0  0  0  0
   -6.7018    2.3952   -2.7939 C   0  0  0  0  0  0  0  0  0  0  0  0
   -7.4667    1.3561   -2.2235 O   0  0  0  0  0  0  0  0  0  0  0  0
   -6.7467    0.7180   -1.1952 C   0  0  0  0  0  0  0  0  0  0  0  0
   -6.3200    1.6934   -0.1137 C   0  0  0  0  0  0  0  0  0  0  0  0
   -1.3944   -1.5715    1.1430 H   0  0  0  0  0  0  0  0  0  0  0  0
   -2.2115   -2.8279    2.0683 H   0  0  0  0  0  0  0  0  0  0  0  0
   -2.9118   -0.5729    2.8042 H   0  0  0  0  0  0  0  0  0  0  0  0
   -3.4061   -0.1652    1.1811 H   0  0  0  0  0  0  0  0  0  0  0  0
   -4.6447   -2.3535    2.9143 H   0  0  0  0  0  0  0  0  0  0  0  0
   -5.3870   -0.8139    2.5122 H   0  0  0  0  0  0  0  0  0  0  0  0
   -6.2355   -2.6488    1.0269 H   0  0  0  0  0  0  0  0  0  0  0  0
   -5.3997   -1.4085    0.1134 H   0  0  0  0  0  0  0  0  0  0  0  0
   -4.2300   -4.0929    0.9675 H   0  0  0  0  0  0  0  0  0  0  0  0
   -4.7338   -3.6281   -0.6474 H   0  0  0  0  0  0  0  0  0  0  0  0
   -2.9823   -1.8807   -0.7184 H   0  0  0  0  0  0  0  0  0  0  0  0
   -1.8513   -4.4947    0.3126 H   0  0  0  0  0  0  0  0  0  0  0  0
   -3.3671   -5.0397   -1.4039 H   0  0  0  0  0  0  0  0  0  0  0  0
   -1.9242   -3.1981   -3.3626 H   0  0  0  0  0  0  0  0  0  0  0  0
   -3.2632   -4.3019   -3.6959 H   0  0  0  0  0  0  0  0  0  0  0  0
   -3.5176   -2.8942   -2.6791 H   0  0  0  0  0  0  0  0  0  0  0  0
   -1.4826   -6.1998   -1.5073 H   0  0  0  0  0  0  0  0  0  0  0  0
    1.2669   -4.6965    1.4112 H   0  0  0  0  0  0  0  0  0  0  0  0
   -0.2616   -5.2728    0.7961 H   0  0  0  0  0  0  0  0  0  0  0  0
    1.6178   -6.7902    0.1860 H   0  0  0  0  0  0  0  0  0  0  0  0
    0.8105   -6.1456   -1.2353 H   0  0  0  0  0  0  0  0  0  0  0  0
    3.4636   -5.2002   -0.0740 H   0  0  0  0  0  0  0  0  0  0  0  0
    3.2150   -5.9956   -1.6165 H   0  0  0  0  0  0  0  0  0  0  0  0
    3.5140   -3.5058   -1.8253 H   0  0  0  0  0  0  0  0  0  0  0  0
    1.9589   -4.0251   -2.4652 H   0  0  0  0  0  0  0  0  0  0  0  0
    2.4338   -3.0283    0.3681 H   0  0  0  0  0  0  0  0  0  0  0  0
    1.0607    0.8279   -1.2011 H   0  0  0  0  0  0  0  0  0  0  0  0
    2.4044    2.4226    0.1752 H   0  0  0  0  0  0  0  0  0  0  0  0
    2.9550    1.1051    1.1821 H   0  0  0  0  0  0  0  0  0  0  0  0
    4.1394    0.0942   -0.7711 H   0  0  0  0  0  0  0  0  0  0  0  0
    3.4972    1.3472   -1.8183 H   0  0  0  0  0  0  0  0  0  0  0  0
    5.6985    0.6858    1.0723 H   0  0  0  0  0  0  0  0  0  0  0  0
    4.5101    3.5629   -1.8462 H   0  0  0  0  0  0  0  0  0  0  0  0
    6.3583    5.0164   -1.1913 H   0  0  0  0  0  0  0  0  0  0  0  0
    8.6070    5.5648   -0.9221 H   0  0  0  0  0  0  0  0  0  0  0  0
    7.5528    6.3552    0.2690 H   0  0  0  0  0  0  0  0  0  0  0  0
    9.2664    6.0916    0.6367 H   0  0  0  0  0  0  0  0  0  0  0  0
    8.4566    0.8857    3.3534 H   0  0  0  0  0  0  0  0  0  0  0  0
    6.6936    0.8881    3.1669 H   0  0  0  0  0  0  0  0  0  0  0  0
    7.7155    0.0688    1.9670 H   0  0  0  0  0  0  0  0  0  0  0  0
   -0.9360    1.9065   -0.8362 H   0  0  0  0  0  0  0  0  0  0  0  0
    1.1741    0.3547    2.5628 H   0  0  0  0  0  0  0  0  0  0  0  0
   -0.5719    1.2599    4.0336 H   0  0  0  0  0  0  0  0  0  0  0  0
   -2.4855    2.4776    3.1259 H   0  0  0  0  0  0  0  0  0  0  0  0
   -4.3650    2.3330    1.7915 H   0  0  0  0  0  0  0  0  0  0  0  0
   -3.7847    3.9879    1.9620 H   0  0  0  0  0  0  0  0  0  0  0  0
   -5.9176    4.1016    0.9185 H   0  0  0  0  0  0  0  0  0  0  0  0
   -4.6897    4.6015   -0.2332 H   0  0  0  0  0  0  0  0  0  0  0  0
   -7.1816    3.9277   -1.3636 H   0  0  0  0  0  0  0  0  0  0  0  0
   -5.6585    4.1706   -2.2280 H   0  0  0  0  0  0  0  0  0  0  0  0
   -7.3157    2.8733   -3.5585 H   0  0  0  0  0  0  0  0  0  0  0  0
   -5.8058    1.9874   -3.2840 H   0  0  0  0  0  0  0  0  0  0  0  0
   -7.3936   -0.0510   -0.7698 H   0  0  0  0  0  0  0  0  0  0  0  0
   -5.8545    0.2207   -1.6046 H   0  0  0  0  0  0  0  0  0  0  0  0
   -5.7317    1.1410    0.6239 H   0  0  0  0  0  0  0  0  0  0  0  0
   -7.2122    2.0796    0.4102 H   0  0  0  0  0  0  0  0  0  0  0  0
 47 46  1  0
 47 48  1  0
 46 45  1  0
 48 49  1  0
 45 44  1  0
 49 44  1  0
 44 43  1  0
 39 38  2  0
 39 40  1  0
 38 37  1  0
 42 41  1  0
 42 43  1  0
 41 40  1  0
 40 36  2  0
 37 35  2  0
 24 25  1  0
 24 23  1  0
 36 35  1  0
 35 22  1  0
 27 25  1  0
 27 28  2  0
 25 26  2  0
 23 22  1  0
  9  8  1  0
 28 29  1  0
 10  8  1  0
 26 32  1  0
 22 21  1  0
  8  7  1  0
 29 32  2  0
 29 30  1  0
 32 33  1  0
 34 33  1  0
 30 31  1  0
 21 19  1  0
  7 11  1  0
  7  6  1  0
 14 13  1  0
 14 15  1  0
 19 20  2  0
 19 18  1  0
 11 13  1  0
 11 12  2  0
  6  1  1  0
  6  5  1  0
 13 18  1  0
  1  2  1  0
 15 16  1  0
 18 17  1  0
  2  3  1  0
 16 17  1  0
  5  4  1  0
  3  4  1  0
  1 50  1  0
  1 51  1  0
  2 52  1  0
  2 53  1  0
  3 54  1  0
  3 55  1  0
  4 56  1  0
  4 57  1  0
  5 58  1  0
  5 59  1  0
  6 60  1  6
  7 61  1  1
  8 62  1  1
  9 63  1  0
  9 64  1  0
  9 65  1  0
 10 66  1  0
 14 67  1  0
 14 68  1  0
 15 69  1  0
 15 70  1  0
 16 71  1  0
 16 72  1  0
 17 73  1  0
 17 74  1  0
 18 75  1  1
 22 76  1  6
 23 77  1  0
 23 78  1  0
 24 79  1  0
 24 80  1  0
 26 81  1  0
 27 82  1  0
 28 83  1  0
 31 84  1  0
 31 85  1  0
 31 86  1  0
 34 87  1  0
 34 88  1  0
 34 89  1  0
 36 90  1  0
 37 91  1  0
 38 92  1  0
 39 93  1  0
 42 94  1  0
 42 95  1  0
 43 96  1  0
 43 97  1  0
 45 98  1  0
 45 99  1  0
 46100  1  0
 46101  1  0
 48102  1  0
 48103  1  0
 49104  1  0
 49105  1  0
M  END
