
     RDKit          3D

 45 48  0  0  0  0  0  0  0  0999 V2000
    1.9005    3.6032   -1.7176 C   0  0  0  0  0  0  0  0  0  0  0  0
    2.2583    3.8245   -0.3937 C   0  0  0  0  0  0  0  0  0  0  0  0
    2.1121    2.3558   -2.2913 C   0  0  0  0  0  0  0  0  0  0  0  0
   -1.9118    2.6235    0.1243 C   0  0  0  0  0  0  0  0  0  0  0  0
   -3.2236    2.2962    0.4437 C   0  0  0  0  0  0  0  0  0  0  0  0
    2.8153    2.8022    0.3615 C   0  0  0  0  0  0  0  0  0  0  0  0
    2.6799    1.3319   -1.5473 C   0  0  0  0  0  0  0  0  0  0  0  0
   -0.9521    1.6398   -0.0192 C   0  0  0  0  0  0  0  0  0  0  0  0
    4.1585   -1.3930    1.4511 C   0  0  0  0  0  0  0  0  0  0  0  0
   -2.6072   -0.0355    0.5024 C   0  0  0  0  0  0  0  0  0  0  0  0
    5.1320   -0.4094    1.6706 C   0  0  0  0  0  0  0  0  0  0  0  0
   -3.5644    0.9659    0.6292 C   0  0  0  0  0  0  0  0  0  0  0  0
    3.0196    1.5594   -0.2204 C   0  0  0  0  0  0  0  0  0  0  0  0
   -1.3084    0.3088    0.1702 C   0  0  0  0  0  0  0  0  0  0  0  0
    3.1752   -0.7540    0.7275 C   0  0  0  0  0  0  0  0  0  0  0  0
   -0.6168   -1.9240   -0.4934 C   0  0  0  0  0  0  0  0  0  0  0  0
    1.8588   -1.2244    0.3043 C   0  0  0  0  0  0  0  0  0  0  0  0
    0.3443   -2.8814   -0.5936 C   0  0  0  0  0  0  0  0  0  0  0  0
    1.7015   -2.5895   -0.1757 C   0  0  0  0  0  0  0  0  0  0  0  0
   -1.1473   -4.4689   -1.4934 C   0  0  0  0  0  0  0  0  0  0  0  0
    4.7935    0.7373    1.1154 N   0  0  0  0  0  0  0  0  0  0  0  0
    0.8849   -0.3681    0.4111 N   0  0  0  0  0  0  0  0  0  0  0  0
    3.6086    0.5236    0.5459 N   0  0  0  0  0  0  0  0  0  0  0  0
   -0.3174   -0.7004    0.0255 N   0  0  0  0  0  0  0  0  0  0  0  0
    2.6141   -3.4050   -0.2356 O   0  0  0  0  0  0  0  0  0  0  0  0
    0.1599   -4.1048   -1.0829 O   0  0  0  0  0  0  0  0  0  0  0  0
   -5.0015   -0.1511    2.1139 F   0  0  0  0  0  0  0  0  0  0  0  0
   -5.7775    1.6031    1.1385 F   0  0  0  0  0  0  0  0  0  0  0  0
   -5.4990   -0.2173    0.0255 F   0  0  0  0  0  0  0  0  0  0  0  0
    1.4592    4.4013   -2.2999 H   0  0  0  0  0  0  0  0  0  0  0  0
    2.0962    4.7945    0.0576 H   0  0  0  0  0  0  0  0  0  0  0  0
    1.8437    2.1781   -3.3241 H   0  0  0  0  0  0  0  0  0  0  0  0
   -1.6397    3.6592   -0.0245 H   0  0  0  0  0  0  0  0  0  0  0  0
   -3.9569    3.0835    0.5425 H   0  0  0  0  0  0  0  0  0  0  0  0
    3.0846    2.9666    1.3963 H   0  0  0  0  0  0  0  0  0  0  0  0
    2.8638    0.3658   -1.9995 H   0  0  0  0  0  0  0  0  0  0  0  0
    0.0635    1.9010   -0.2798 H   0  0  0  0  0  0  0  0  0  0  0  0
    4.1552   -2.4111    1.7988 H   0  0  0  0  0  0  0  0  0  0  0  0
   -2.8703   -1.0695    0.6861 H   0  0  0  0  0  0  0  0  0  0  0  0
    6.0648   -0.4997    2.2058 H   0  0  0  0  0  0  0  0  0  0  0  0
   -1.6314   -2.0615   -0.8345 H   0  0  0  0  0  0  0  0  0  0  0  0
   -1.8620   -4.3855   -0.6708 H   0  0  0  0  0  0  0  0  0  0  0  0
   -1.4916   -3.8552   -2.3296 H   0  0  0  0  0  0  0  0  0  0  0  0
   -1.0939   -5.5052   -1.8142 H   0  0  0  0  0  0  0  0  0  0  0  0
   -4.9635    0.5588    0.9781 C   0  0  1  0  0  0  0  0  0  0  0  0
 45 27  1  1
 29 45  1  0
 45 28  1  0
 45 12  1  0
  5 12  1  0
  5  4  2  0
 12 10  2  0
  4  8  1  0
 10 14  1  0
  8 14  2  0
 14 24  1  0
 20 26  1  0
 16 24  1  0
 16 18  2  0
 24 22  1  0
  1  3  2  0
  1  2  1  0
 18 26  1  0
 18 19  1  0
 22 17  2  0
  3  7  1  0
  2  6  2  0
  7 13  2  0
 17 19  1  0
 17 15  1  0
 19 25  2  0
  6 13  1  0
 13 23  1  0
 15 23  1  0
 15  9  2  0
 23 21  1  0
  9 11  1  0
 21 11  2  0
  1 30  1  0
  2 31  1  0
  3 32  1  0
  4 33  1  0
  5 34  1  0
  6 35  1  0
  7 36  1  0
  8 37  1  0
  9 38  1  0
 10 39  1  0
 11 40  1  0
 16 41  1  0
 20 42  1  0
 20 43  1  0
 20 44  1  0
M  END
