
     RDKit          3D

 25 25  0  0  0  0  0  0  0  0999 V2000
    4.2213   -0.4483   -1.4379 C   0  0  0  0  0  0  0  0  0  0  0  0
    4.1650    0.0268    0.9184 O   0  0  0  0  0  0  0  0  0  0  0  0
    3.5490   -0.1032   -0.1317 C   0  0  0  0  0  0  0  0  0  0  0  0
    1.3991    0.2976    0.9741 C   0  0  0  0  0  0  0  0  0  0  0  0
   -0.0517    0.3548    0.5853 C   0  0  0  0  0  0  0  0  0  0  0  0
   -0.6961    1.5719    0.4060 C   0  0  0  0  0  0  0  0  0  0  0  0
   -2.0276    1.6127    0.0136 C   0  0  0  0  0  0  0  0  0  0  0  0
   -2.6918    0.4235   -0.1991 C   0  0  0  0  0  0  0  0  0  0  0  0
   -3.9801    0.4635   -0.5841 F   0  0  0  0  0  0  0  0  0  0  0  0
   -2.0956   -0.8198   -0.0345 C   0  0  0  0  0  0  0  0  0  0  0  0
   -2.8605   -2.0871   -0.2695 C   0  0  0  0  0  0  0  0  0  0  0  0
   -0.7630   -0.8224    0.3614 C   0  0  0  0  0  0  0  0  0  0  0  0
    2.2134    0.0228   -0.1957 N   0  0  0  0  0  0  0  0  0  0  0  0
    5.2736   -0.1774   -1.4041 H   0  0  0  0  0  0  0  0  0  0  0  0
    4.1546   -1.5242   -1.6098 H   0  0  0  0  0  0  0  0  0  0  0  0
    3.7536    0.0489   -2.2868 H   0  0  0  0  0  0  0  0  0  0  0  0
    1.7025    1.2446    1.4268 H   0  0  0  0  0  0  0  0  0  0  0  0
    1.5565   -0.4799    1.7260 H   0  0  0  0  0  0  0  0  0  0  0  0
   -0.1639    2.4995    0.5754 H   0  0  0  0  0  0  0  0  0  0  0  0
   -2.5388    2.5562   -0.1270 H   0  0  0  0  0  0  0  0  0  0  0  0
   -3.2705   -2.1290   -1.2792 H   0  0  0  0  0  0  0  0  0  0  0  0
   -2.2150   -2.9533   -0.1361 H   0  0  0  0  0  0  0  0  0  0  0  0
   -3.6970   -2.1861    0.4236 H   0  0  0  0  0  0  0  0  0  0  0  0
   -0.2686   -1.7769    0.5056 H   0  0  0  0  0  0  0  0  0  0  0  0
    1.7500   -0.0872   -1.0831 H   0  0  0  0  0  0  0  0  0  0  0  0
  2  3  2  0
  1  3  1  0
  3 13  1  0
 13  4  1  0
  4  5  1  0
  5 12  2  0
  5  6  1  0
 12 10  1  0
  6  7  2  0
 10 11  1  0
 10  8  2  0
  7  8  1  0
  8  9  1  0
  1 14  1  0
  1 15  1  0
  1 16  1  0
  4 17  1  0
  4 18  1  0
  6 19  1  0
  7 20  1  0
 11 21  1  0
 11 22  1  0
 11 23  1  0
 12 24  1  0
 13 25  1  0
M  END
