
     RDKit          3D

 36 36  0  0  0  0  0  0  0  0999 V2000
   33.0735   58.8648   23.3831 Be  0  0  1  0  0  0  0  0  0  0  0  0
   32.3112   58.3418   24.5495 F   0  0  0  0  0  0  0  0  0  0  0  0
   32.1403   58.9056   22.0555 F   0  0  0  0  0  0  0  0  0  0  0  0
   33.8714   60.1109   23.5270 F   0  0  0  0  0  0  0  0  0  0  0  0
   34.1280   56.7380   21.6986 P   0  0  1  0  0  0  0  0  0  0  0  0
   33.7590   55.2800   22.2397 O   0  0  0  0  0  0  0  0  0  0  0  0
   33.0906   57.2742   20.6942 O   0  0  0  0  0  0  0  0  0  0  0  0
   34.3011   57.5497   22.9506 O   0  0  0  0  0  0  0  0  0  0  0  0
   35.4744   56.4749   20.8779 O   0  0  0  0  0  0  0  0  0  0  0  0
   36.1168   57.4949   19.7607 P   0  0  1  0  0  0  0  0  0  0  0  0
   35.5617   56.9504   18.3874 O   0  0  0  0  0  0  0  0  0  0  0  0
   35.8881   58.9028   20.1146 O   0  0  0  0  0  0  0  0  0  0  0  0
   37.5935   56.9435   19.6871 O   0  0  0  0  0  0  0  0  0  0  0  0
   40.8303   56.7861   21.3406 N   0  0  0  0  0  0  0  0  0  0  0  0
   39.8751   56.6804   20.2664 C   0  0  0  0  0  0  0  0  0  0  0  0
   38.5137   57.1084   20.7760 C   0  0  0  0  0  0  0  0  0  0  0  0
   42.1429   56.4335   21.1714 C   0  0  0  0  0  0  0  0  0  0  0  0
   43.0850   56.7844   22.1534 C   0  0  0  0  0  0  0  0  0  0  0  0
   44.4103   56.4210   22.0307 C   0  0  0  0  0  0  0  0  0  0  0  0
   44.8593   55.6942   20.9349 C   0  0  0  0  0  0  0  0  0  0  0  0
   43.9241   55.3561   19.9733 C   0  0  0  0  0  0  0  0  0  0  0  0
   42.5848   55.7115   20.0599 C   0  0  0  0  0  0  0  0  0  0  0  0
   44.3610   54.5972   18.8069 N   0  0  0  0  0  0  0  0  0  0  0  0
   43.5305   54.2721   17.9908 O   0  0  0  0  0  0  0  0  0  0  0  0
   45.5352   54.3270   18.7112 O   0  0  0  0  0  0  0  0  0  0  0  0
   32.5340   58.0596   21.2155 H   0  0  0  0  0  0  0  0  0  0  0  0
   34.9309   57.5349   17.9438 H   0  0  0  0  0  0  0  0  0  0  0  0
   40.6859   57.5545   21.9779 H   0  0  0  0  0  0  0  0  0  0  0  0
   40.1550   57.2897   19.3976 H   0  0  0  0  0  0  0  0  0  0  0  0
   39.8106   55.6416   19.9335 H   0  0  0  0  0  0  0  0  0  0  0  0
   38.5308   58.1521   21.0991 H   0  0  0  0  0  0  0  0  0  0  0  0
   38.2095   56.4855   21.6196 H   0  0  0  0  0  0  0  0  0  0  0  0
   42.7620   57.3474   23.0208 H   0  0  0  0  0  0  0  0  0  0  0  0
   45.1125   56.7069   22.8021 H   0  0  0  0  0  0  0  0  0  0  0  0
   45.8974   55.4122   20.8495 H   0  0  0  0  0  0  0  0  0  0  0  0
   41.9009   55.4340   19.2720 H   0  0  0  0  0  0  0  0  0  0  0  0
  1  2  1  1
  1  3  1  0
  1  4  1  0
  1  8  1  0
  5  6  2  0
  5  7  1  6
  5  8  1  0
  5  9  1  0
  7 26  1  0
 10  9  1  1
 10 11  1  0
 10 12  2  0
 10 13  1  0
 11 27  1  0
 13 16  1  0
 14 15  1  0
 14 17  1  0
 14 28  1  0
 15 16  1  0
 15 29  1  0
 15 30  1  0
 16 31  1  0
 16 32  1  0
 17 18  2  0
 17 22  1  0
 18 19  1  0
 18 33  1  0
 19 20  2  0
 19 34  1  0
 20 21  1  0
 20 35  1  0
 21 22  2  0
 21 23  1  0
 22 36  1  0
 23 24  1  0
 23 25  2  0
M  CHG  3   1  -2  23   1  24  -1
M  END
