
     RDKit          3D

 40 43  0  0  0  0  0  0  0  0999 V2000
   -1.7838    2.4986   -0.2007 C   0  0  0  0  0  0  0  0  0  0  0  0
   -0.8493    1.4379   -0.1160 C   0  0  0  0  0  0  0  0  0  0  0  0
   -2.5988   -0.0073   -0.0568 C   0  0  0  0  0  0  0  0  0  0  0  0
   -4.1113   -3.2177    0.0893 C   0  0  0  0  0  0  0  0  0  0  0  0
    5.1207   -1.3203    0.1078 N   0  0  0  0  0  0  0  0  0  0  0  0
    1.5615    0.7982   -0.0405 C   0  0  0  0  0  0  0  0  0  0  0  0
    2.6158   -1.3743    0.1664 C   0  0  0  0  0  0  0  0  0  0  0  0
    3.9558    0.6190   -0.0714 C   0  0  0  0  0  0  0  0  0  0  0  0
    5.4078    0.9684   -0.1406 C   0  0  0  0  0  0  0  0  0  0  0  0
   -4.2737   -1.8682   -0.0524 C   0  0  0  0  0  0  0  0  0  0  0  0
   -3.5423    0.9072   -0.1324 N   0  0  0  0  0  0  0  0  0  0  0  0
    3.8473   -0.7630    0.0755 C   0  0  0  0  0  0  0  0  0  0  0  0
   -3.0071   -1.3403    0.0272 N   0  0  0  0  0  0  0  0  0  0  0  0
    2.8275    1.3993   -0.1293 C   0  0  0  0  0  0  0  0  0  0  0  0
   -2.0718   -2.2944    0.2101 N   0  0  0  0  0  0  0  0  0  0  0  0
   -2.7214   -3.4296    0.2510 C   0  0  0  0  0  0  0  0  0  0  0  0
    6.1000   -0.3812   -0.0084 C   0  0  0  0  0  0  0  0  0  0  0  0
    1.4667   -0.5867    0.1087 C   0  0  0  0  0  0  0  0  0  0  0  0
   -1.2965    0.1937   -0.0495 N   0  0  0  0  0  0  0  0  0  0  0  0
   -1.2760    4.1425   -0.2916 Cl  0  0  0  0  0  0  0  0  0  0  0  0
    7.2941   -0.5968   -0.0066 O   0  0  0  0  0  0  0  0  0  0  0  0
    0.4732    1.6809   -0.1053 N   0  0  0  0  0  0  0  0  0  0  0  0
   -3.1127    2.1669   -0.2084 C   0  0  0  0  0  0  0  0  0  0  0  0
   -2.0131   -4.7230    0.4490 C   0  0  0  0  0  0  0  0  0  0  0  0
   -4.8931   -3.9599    0.0767 H   0  0  0  0  0  0  0  0  0  0  0  0
    2.5236   -2.4464    0.2800 H   0  0  0  0  0  0  0  0  0  0  0  0
    5.6941    1.4400   -1.0836 H   0  0  0  0  0  0  0  0  0  0  0  0
    5.7326    1.6359    0.6610 H   0  0  0  0  0  0  0  0  0  0  0  0
    2.9147    2.4742   -0.2415 H   0  0  0  0  0  0  0  0  0  0  0  0
    0.5031   -1.0660    0.1794 H   0  0  0  0  0  0  0  0  0  0  0  0
    0.7358    2.6528   -0.1770 H   0  0  0  0  0  0  0  0  0  0  0  0
   -3.8677    2.9415   -0.2742 H   0  0  0  0  0  0  0  0  0  0  0  0
   -2.1992   -5.4030   -0.3831 H   0  0  0  0  0  0  0  0  0  0  0  0
   -0.9386   -4.5694    0.5307 H   0  0  0  0  0  0  0  0  0  0  0  0
   -2.3573   -5.2232    1.3551 H   0  0  0  0  0  0  0  0  0  0  0  0
   -5.5440   -1.1257   -0.2639 C   0  0  0  0  0  0  0  0  0  0  0  0
    5.3102   -2.3068    0.2021 H   0  0  0  0  0  0  0  0  0  0  0  0
   -5.7473   -0.4201    0.5393 H   0  0  0  0  0  0  0  0  0  0  0  0
   -5.5383   -0.5603   -1.1946 H   0  0  0  0  0  0  0  0  0  0  0  0
   -6.3586   -1.8463   -0.3050 H   0  0  0  0  0  0  0  0  0  0  0  0
 21 17  2  0
  5 17  1  0
  5 12  1  0
 17  9  1  0
 12  7  1  0
 12  8  2  0
  7 18  2  0
  9  8  1  0
  8 14  1  0
 36 10  1  0
 18  6  1  0
  4 10  2  0
  4 16  1  0
 14  6  2  0
 10 13  1  0
  6 22  1  0
 16 24  1  0
 16 15  2  0
 22  2  1  0
 19  2  1  0
 19  3  2  0
 13  3  1  0
 13 15  1  0
  2  1  2  0
  3 11  1  0
 11 23  2  0
  1 23  1  0
  1 20  1  0
  4 25  1  0
  5 37  1  0
  7 26  1  0
  9 27  1  0
  9 28  1  0
 14 29  1  0
 36 38  1  0
 36 39  1  0
 36 40  1  0
 18 30  1  0
 22 31  1  0
 23 32  1  0
 24 33  1  0
 24 34  1  0
 24 35  1  0
M  END
