
     RDKit          3D

 46 48  0  0  0  0  0  0  0  0999 V2000
    4.5616    3.1038   -0.0801 C   0  0  0  0  0  0  0  0  0  0  0  0
    3.0347    3.0173   -0.0886 C   0  0  0  0  0  0  0  0  0  0  0  0
    2.5355    2.1809    1.0843 C   0  0  0  0  0  0  0  0  0  0  0  0
    4.6299    0.9723    1.2240 C   0  0  0  0  0  0  0  0  0  0  0  0
    2.5678   -0.2457    0.7046 C   0  0  0  0  0  0  0  0  0  0  0  0
    1.3185   -2.5167   -0.0710 C   0  0  0  0  0  0  0  0  0  0  0  0
    0.6402   -1.2651    0.0176 C   0  0  0  0  0  0  0  0  0  0  0  0
    5.0964    1.0136   -1.2413 N   0  0  0  0  0  0  0  0  0  0  0  0
    5.2185    1.7263    0.0217 C   0  0  1  0  0  0  0  0  0  0  0  0
   -0.5760   -3.8332   -0.6052 O   0  0  0  0  0  0  0  0  0  0  0  0
   -1.5223   -0.0869   -0.2880 C   0  0  0  0  0  0  0  0  0  0  0  0
   -1.1086    1.2252   -0.5356 C   0  0  0  0  0  0  0  0  0  0  0  0
   -2.0407    2.2485   -0.5618 C   0  0  0  0  0  0  0  0  0  0  0  0
   -3.3913    2.0036   -0.3584 C   0  0  0  0  0  0  0  0  0  0  0  0
   -3.8028    0.6984   -0.1308 C   0  0  0  0  0  0  0  0  0  0  0  0
   -2.8794   -0.3371   -0.0901 C   0  0  0  0  0  0  0  0  0  0  0  0
   -5.2450    0.3636    0.0896 C   0  0  1  0  0  0  0  0  0  0  0  0
    2.6541   -2.4635    0.3091 C   0  0  0  0  0  0  0  0  0  0  0  0
    0.6528   -3.7603   -0.4937 C   0  0  0  0  0  0  0  0  0  0  0  0
   -5.6847   -0.5411   -0.7976 F   0  0  0  0  0  0  0  0  0  0  0  0
   -5.4515   -0.1676    1.3042 F   0  0  0  0  0  0  0  0  0  0  0  0
   -6.0437    1.4290   -0.0107 F   0  0  0  0  0  0  0  0  0  0  0  0
    3.1876    0.8821    1.0955 N   0  0  0  0  0  0  0  0  0  0  0  0
    3.2925   -1.3789    0.6885 N   0  0  0  0  0  0  0  0  0  0  0  0
    1.4262   -4.8288   -0.7422 N   0  0  0  0  0  0  0  0  0  0  0  0
   -0.6758   -1.1913   -0.2812 N   0  0  0  0  0  0  0  0  0  0  0  0
    1.2737   -0.1680    0.3910 N   0  0  0  0  0  0  0  0  0  0  0  0
    4.9219    3.6184   -0.9735 H   0  0  0  0  0  0  0  0  0  0  0  0
    4.8775    3.7042    0.7783 H   0  0  0  0  0  0  0  0  0  0  0  0
    2.6048    4.0187   -0.0233 H   0  0  0  0  0  0  0  0  0  0  0  0
    2.6701    2.5859   -1.0259 H   0  0  0  0  0  0  0  0  0  0  0  0
    2.7835    2.6820    2.0252 H   0  0  0  0  0  0  0  0  0  0  0  0
    1.4577    2.0521    1.0565 H   0  0  0  0  0  0  0  0  0  0  0  0
    5.0561   -0.0237    1.3073 H   0  0  0  0  0  0  0  0  0  0  0  0
    4.8596    1.5083    2.1506 H   0  0  0  0  0  0  0  0  0  0  0  0
    5.4534    0.0710   -1.1407 H   0  0  0  0  0  0  0  0  0  0  0  0
    4.1224    0.9092   -1.4993 H   0  0  0  0  0  0  0  0  0  0  0  0
    6.2857    1.8632    0.2214 H   0  0  0  0  0  0  0  0  0  0  0  0
   -0.0694    1.4444   -0.7179 H   0  0  0  0  0  0  0  0  0  0  0  0
   -1.7067    3.2589   -0.7559 H   0  0  0  0  0  0  0  0  0  0  0  0
   -4.0957    2.8222   -0.3870 H   0  0  0  0  0  0  0  0  0  0  0  0
   -3.2032   -1.3541    0.0989 H   0  0  0  0  0  0  0  0  0  0  0  0
    3.2543   -3.3677    0.3263 H   0  0  0  0  0  0  0  0  0  0  0  0
    0.9895   -5.6764   -1.0652 H   0  0  0  0  0  0  0  0  0  0  0  0
    2.4253   -4.7805   -0.8298 H   0  0  0  0  0  0  0  0  0  0  0  0
   -1.0974   -2.1048   -0.4425 H   0  0  0  0  0  0  0  0  0  0  0  0
 17 21  1  1
 20 17  1  0
 17 15  1  0
 17 22  1  0
 15 14  2  0
 15 16  1  0
 14 13  1  0
 16 11  2  0
 13 12  2  0
 10 19  2  0
 11 12  1  0
 11 26  1  0
 26  7  1  0
 25 19  1  0
 19  6  1  0
  7  6  2  0
  7 27  1  0
  6 18  1  0
 27  5  2  0
  2  3  1  0
  2  1  1  0
 18 24  2  0
  5 24  1  0
  5 23  1  0
  3 23  1  0
 23  4  1  0
  1  9  1  0
  9  4  1  0
  9  8  1  0
  1 28  1  0
  1 29  1  0
  2 30  1  0
  2 31  1  0
  3 32  1  0
  3 33  1  0
  4 34  1  0
  4 35  1  0
  8 36  1  0
  8 37  1  0
  9 38  1  1
 12 39  1  0
 13 40  1  0
 14 41  1  0
 16 42  1  0
 18 43  1  0
 25 44  1  0
 25 45  1  0
 26 46  1  0
M  END
