
     RDKit          3D

 59 62  0  0  0  0  0  0  0  0999 V2000
   -0.1952   -4.2058    0.2885 O   0  0  0  0  0  0  0  0  0  0  0  0
   -0.6793   -3.1082    0.0815 C   0  0  0  0  0  0  0  0  0  0  0  0
   -2.1515   -2.9182   -0.1456 C   0  0  0  0  0  0  0  0  0  0  0  0
   -2.5385   -1.7009   -0.5043 N   0  0  0  0  0  0  0  0  0  0  0  0
   -3.8205   -1.4478   -0.7232 C   0  0  0  0  0  0  0  0  0  0  0  0
   -4.1841   -0.0636   -1.1818 C   0  0  0  0  0  0  0  0  0  0  0  0
   -3.4262    1.0583   -0.4741 C   0  0  1  0  0  0  0  0  0  0  0  0
   -3.6934    2.4036   -1.1469 C   0  0  0  0  0  0  0  0  0  0  0  0
   -2.9293    3.5321   -0.4623 C   0  0  0  0  0  0  0  0  0  0  0  0
   -3.2582    3.6003    1.0254 C   0  0  0  0  0  0  0  0  0  0  0  0
   -3.0189    2.2591    1.7102 C   0  0  0  0  0  0  0  0  0  0  0  0
   -3.7670    1.1272    1.0135 C   0  0  0  0  0  0  0  0  0  0  0  0
   -4.7801   -2.4490   -0.5643 C   0  0  0  0  0  0  0  0  0  0  0  0
   -4.3792   -3.7208   -0.1937 C   0  0  0  0  0  0  0  0  0  0  0  0
   -3.0310   -3.9751    0.0180 C   0  0  0  0  0  0  0  0  0  0  0  0
    0.0015   -1.9406    0.0400 N   0  0  0  0  0  0  0  0  0  0  0  0
    1.3598   -1.7008    0.1406 C   0  0  0  0  0  0  0  0  0  0  0  0
    2.3450   -2.6776   -0.0035 C   0  0  0  0  0  0  0  0  0  0  0  0
    3.6827   -2.3264    0.0299 C   0  0  0  0  0  0  0  0  0  0  0  0
    4.0651   -0.9997    0.2116 C   0  0  0  0  0  0  0  0  0  0  0  0
    5.4813   -0.5736    0.2493 C   0  0  0  0  0  0  0  0  0  0  0  0
    5.8362    0.5735    0.3898 O   0  0  0  0  0  0  0  0  0  0  0  0
    6.3318   -1.5824    0.1125 O   0  0  0  0  0  0  0  0  0  0  0  0
    3.0821   -0.0293    0.3869 C   0  0  0  0  0  0  0  0  0  0  0  0
    1.7404   -0.3623    0.3627 C   0  0  0  0  0  0  0  0  0  0  0  0
    0.7194    0.5894    0.5729 N   0  0  0  0  0  0  0  0  0  0  0  0
    0.8728    1.9151    0.1507 C   0  0  0  0  0  0  0  0  0  0  0  0
    1.2111    2.1989   -1.1732 C   0  0  0  0  0  0  0  0  0  0  0  0
    1.3147    3.5136   -1.5976 C   0  0  0  0  0  0  0  0  0  0  0  0
    1.0691    4.5645   -0.7207 C   0  0  0  0  0  0  0  0  0  0  0  0
    0.7276    4.2825    0.5938 C   0  0  0  0  0  0  0  0  0  0  0  0
    0.6426    2.9687    1.0329 C   0  0  0  0  0  0  0  0  0  0  0  0
   -3.9823   -0.0053   -2.2578 H   0  0  0  0  0  0  0  0  0  0  0  0
   -5.2624    0.0820   -1.0710 H   0  0  0  0  0  0  0  0  0  0  0  0
   -2.3528    0.8542   -0.5654 H   0  0  0  0  0  0  0  0  0  0  0  0
   -3.4174    2.3475   -2.2042 H   0  0  0  0  0  0  0  0  0  0  0  0
   -4.7690    2.6173   -1.1185 H   0  0  0  0  0  0  0  0  0  0  0  0
   -1.8522    3.3718   -0.5865 H   0  0  0  0  0  0  0  0  0  0  0  0
   -3.1589    4.4870   -0.9425 H   0  0  0  0  0  0  0  0  0  0  0  0
   -2.6633    4.3809    1.5065 H   0  0  0  0  0  0  0  0  0  0  0  0
   -4.3082    3.8879    1.1516 H   0  0  0  0  0  0  0  0  0  0  0  0
   -1.9467    2.0377    1.6972 H   0  0  0  0  0  0  0  0  0  0  0  0
   -3.3099    2.3129    2.7622 H   0  0  0  0  0  0  0  0  0  0  0  0
   -4.8479    1.2773    1.1258 H   0  0  0  0  0  0  0  0  0  0  0  0
   -3.5326    0.1758    1.4992 H   0  0  0  0  0  0  0  0  0  0  0  0
   -5.8256   -2.2273   -0.7317 H   0  0  0  0  0  0  0  0  0  0  0  0
   -5.1101   -4.5082   -0.0675 H   0  0  0  0  0  0  0  0  0  0  0  0
   -2.6808   -4.9547    0.3090 H   0  0  0  0  0  0  0  0  0  0  0  0
   -0.5776   -1.1170   -0.1032 H   0  0  0  0  0  0  0  0  0  0  0  0
    2.0757   -3.7085   -0.1658 H   0  0  0  0  0  0  0  0  0  0  0  0
    4.4211   -3.1051   -0.0981 H   0  0  0  0  0  0  0  0  0  0  0  0
    7.2420   -1.2523    0.1391 H   0  0  0  0  0  0  0  0  0  0  0  0
    3.3662    1.0009    0.5586 H   0  0  0  0  0  0  0  0  0  0  0  0
    0.2943    0.5100    1.4877 H   0  0  0  0  0  0  0  0  0  0  0  0
    1.3806    1.3896   -1.8730 H   0  0  0  0  0  0  0  0  0  0  0  0
    1.5773    3.7188   -2.6276 H   0  0  0  0  0  0  0  0  0  0  0  0
    1.1444    5.5891   -1.0597 H   0  0  0  0  0  0  0  0  0  0  0  0
    0.5390    5.0880    1.2917 H   0  0  0  0  0  0  0  0  0  0  0  0
    0.3960    2.7617    2.0678 H   0  0  0  0  0  0  0  0  0  0  0  0
 11 10  1  0
 11 12  1  0
 10  9  1  0
 12  7  1  0
  9  8  1  0
  7  8  1  0
  7  6  1  0
 29 30  1  0
 29 28  2  0
 30 31  2  0
 14 15  2  0
 14 13  1  0
 15  3  1  0
  1  2  2  0
 13  5  2  0
 28 27  1  0
  3  2  1  0
  3  4  2  0
  2 16  1  0
  5  4  1  0
  5  6  1  0
 18 19  2  0
 18 17  1  0
 16 17  1  0
 19 20  1  0
 17 25  2  0
 31 32  1  0
 27 32  2  0
 27 26  1  0
 20 21  1  0
 20 24  2  0
 22 21  2  0
 25 24  1  0
 25 26  1  0
 21 23  1  0
  6 33  1  0
  6 34  1  0
  7 35  1  1
  8 36  1  0
  8 37  1  0
  9 38  1  0
  9 39  1  0
 10 40  1  0
 10 41  1  0
 11 42  1  0
 11 43  1  0
 12 44  1  0
 12 45  1  0
 13 46  1  0
 14 47  1  0
 15 48  1  0
 16 49  1  0
 18 50  1  0
 19 51  1  0
 23 52  1  0
 24 53  1  0
 26 54  1  0
 28 55  1  0
 29 56  1  0
 30 57  1  0
 31 58  1  0
 32 59  1  0
M  END
