
     RDKit          3D

 19 20  0  0  0  0  0  0  0  0999 V2000
    2.7965    1.1149    0.1384 C   0  0  0  0  0  0  0  0  0  0  0  0
    3.0089   -0.2584    0.0780 C   0  0  0  0  0  0  0  0  0  0  0  0
    1.5121    1.6259    0.0646 C   0  0  0  0  0  0  0  0  0  0  0  0
    1.9217   -1.1112   -0.0341 C   0  0  0  0  0  0  0  0  0  0  0  0
    0.3984    0.7888   -0.0711 C   0  0  0  0  0  0  0  0  0  0  0  0
    0.6308   -0.5987   -0.1009 C   0  0  0  0  0  0  0  0  0  0  0  0
   -1.9185    0.7150    0.0356 C   0  0  0  0  0  0  0  0  0  0  0  0
   -1.9141   -0.6609    0.6475 C   0  0  0  0  0  0  0  0  0  0  0  0
   -0.8433    1.3737   -0.2334 N   0  0  0  0  0  0  0  0  0  0  0  0
   -3.1192    1.2533   -0.1961 N   0  0  0  0  0  0  0  0  0  0  0  0
   -0.7443   -1.6820   -0.2719 S   0  0  0  0  0  0  0  0  0  0  0  0
    3.6357    1.7909    0.2394 H   0  0  0  0  0  0  0  0  0  0  0  0
    4.0109   -0.6636    0.1287 H   0  0  0  0  0  0  0  0  0  0  0  0
    1.3468    2.6959    0.0965 H   0  0  0  0  0  0  0  0  0  0  0  0
    2.0727   -2.1836   -0.0608 H   0  0  0  0  0  0  0  0  0  0  0  0
   -1.6216   -0.6051    1.6983 H   0  0  0  0  0  0  0  0  0  0  0  0
   -2.8886   -1.1418    0.5884 H   0  0  0  0  0  0  0  0  0  0  0  0
   -3.1935    2.1781   -0.5861 H   0  0  0  0  0  0  0  0  0  0  0  0
   -3.9690    0.7684    0.0284 H   0  0  0  0  0  0  0  0  0  0  0  0
 10  7  1  0
  7  9  2  0
  7  8  1  0
  9  5  1  0
 11  8  1  0
 11  6  1  0
  5  6  2  0
  5  3  1  0
  6  4  1  0
  3  1  2  0
  4  2  2  0
  1  2  1  0
  1 12  1  0
  2 13  1  0
  3 14  1  0
  4 15  1  0
  8 16  1  0
  8 17  1  0
 10 18  1  0
 10 19  1  0
M  END
