
     RDKit          3D

 84 88  0  0  0  0  0  0  0  0999 V2000
   11.0209   -0.2202   -1.2963 C   0  0  0  0  0  0  0  0  0  0  0  0
    9.7039   -0.4029   -2.0508 C   0  0  1  0  0  0  0  0  0  0  0  0
    9.3027   -1.8782   -2.0338 C   0  0  0  0  0  0  0  0  0  0  0  0
    8.6118    0.4318   -1.3799 C   0  0  0  0  0  0  0  0  0  0  0  0
   10.8553   -0.6796    0.1537 C   0  0  2  0  0  0  0  0  0  0  0  0
   10.4509   -2.1553    0.1702 C   0  0  0  0  0  0  0  0  0  0  0  0
    9.7591    0.1475    0.8216 C   0  0  0  0  0  0  0  0  0  0  0  0
    9.1347   -2.3406   -0.5859 C   0  0  1  0  0  0  0  0  0  0  0  0
    8.4264   -0.0225    0.0807 C   0  0  2  0  0  0  0  0  0  0  0  0
    8.0426   -1.5147    0.0938 C   0  0  0  0  0  0  0  0  0  0  0  0
   -8.0003   -2.4062    1.8204 C   0  0  0  0  0  0  0  0  0  0  0  0
   -7.6086   -1.1898    2.4012 C   0  0  0  0  0  0  0  0  0  0  0  0
   -7.2933   -0.1000    1.6387 C   0  0  0  0  0  0  0  0  0  0  0  0
   -8.0626   -2.5410    0.4535 C   0  0  0  0  0  0  0  0  0  0  0  0
   -7.6522   -1.4414   -0.3694 C   0  0  0  0  0  0  0  0  0  0  0  0
   -7.2949   -0.1978    0.2265 C   0  0  0  0  0  0  0  0  0  0  0  0
   -6.9205    0.8630   -0.6514 C   0  0  0  0  0  0  0  0  0  0  0  0
   -6.8703    0.6919   -2.0103 C   0  0  0  0  0  0  0  0  0  0  0  0
   -7.1750   -0.5558   -2.5745 C   0  0  0  0  0  0  0  0  0  0  0  0
   -7.5497   -1.5946   -1.7706 C   0  0  0  0  0  0  0  0  0  0  0  0
   -8.3389   -4.9451    0.5866 C   0  0  0  0  0  0  0  0  0  0  0  0
   -9.7819   -3.6463   -0.8244 C   0  0  0  0  0  0  0  0  0  0  0  0
    7.3476    0.8135    0.7696 C   0  0  0  0  0  0  0  0  0  0  0  0
    6.1129    0.7209    0.2496 N   0  0  0  0  0  0  0  0  0  0  0  0
    4.9694    1.4197    0.7995 C   0  0  0  0  0  0  0  0  0  0  0  0
    3.6749    0.9033    0.1934 C   0  0  0  0  0  0  0  0  0  0  0  0
    2.4566    1.6012    0.7830 C   0  0  0  0  0  0  0  0  0  0  0  0
    1.1419    1.1063    0.1947 C   0  0  0  0  0  0  0  0  0  0  0  0
   -0.0743    1.7958    0.7987 C   0  0  0  0  0  0  0  0  0  0  0  0
   -1.3915    1.3263    0.1948 C   0  0  0  0  0  0  0  0  0  0  0  0
   -2.5999    2.0183    0.8115 C   0  0  0  0  0  0  0  0  0  0  0  0
   -3.8967    1.6092    0.1326 C   0  0  0  0  0  0  0  0  0  0  0  0
   -5.0316    2.2504    0.7933 N   0  0  0  0  0  0  0  0  0  0  0  0
   -6.4365    2.4602   -0.0304 S   0  0  2  0  0  0  0  0  0  0  0  0
   -7.4157    2.9301    0.9377 O   0  0  0  0  0  0  0  0  0  0  0  0
    7.5793    1.5221    1.7411 O   0  0  0  0  0  0  0  0  0  0  0  0
   12.0380   -0.4613    0.9019 O   0  0  0  0  0  0  0  0  0  0  0  0
   11.8164   -0.7980   -1.7809 H   0  0  0  0  0  0  0  0  0  0  0  0
   11.3295    0.8302   -1.3174 H   0  0  0  0  0  0  0  0  0  0  0  0
    9.8267   -0.0649   -3.0834 H   0  0  0  0  0  0  0  0  0  0  0  0
    8.3706   -2.0224   -2.5886 H   0  0  0  0  0  0  0  0  0  0  0  0
   10.0648   -2.4822   -2.5357 H   0  0  0  0  0  0  0  0  0  0  0  0
    8.8770    1.4938   -1.4072 H   0  0  0  0  0  0  0  0  0  0  0  0
    7.6820    0.3292   -1.9478 H   0  0  0  0  0  0  0  0  0  0  0  0
   11.2389   -2.7658   -0.2868 H   0  0  0  0  0  0  0  0  0  0  0  0
   10.3427   -2.4944    1.2059 H   0  0  0  0  0  0  0  0  0  0  0  0
    9.6513   -0.1695    1.8633 H   0  0  0  0  0  0  0  0  0  0  0  0
   10.0545    1.2007    0.8322 H   0  0  0  0  0  0  0  0  0  0  0  0
    8.8476   -3.3953   -0.5651 H   0  0  0  0  0  0  0  0  0  0  0  0
    7.0900   -1.6833   -0.4169 H   0  0  0  0  0  0  0  0  0  0  0  0
    7.9047   -1.8515    1.1265 H   0  0  0  0  0  0  0  0  0  0  0  0
   -8.2813   -3.2254    2.4683 H   0  0  0  0  0  0  0  0  0  0  0  0
   -7.5886   -1.1068    3.4799 H   0  0  0  0  0  0  0  0  0  0  0  0
   -7.0582    0.8247    2.1419 H   0  0  0  0  0  0  0  0  0  0  0  0
   -6.5791    1.5058   -2.6586 H   0  0  0  0  0  0  0  0  0  0  0  0
   -7.0950   -0.6899   -3.6443 H   0  0  0  0  0  0  0  0  0  0  0  0
   -7.7480   -2.5632   -2.2075 H   0  0  0  0  0  0  0  0  0  0  0  0
   -9.0694   -5.0483    1.4000 H   0  0  0  0  0  0  0  0  0  0  0  0
   -8.4771   -5.7921   -0.0859 H   0  0  0  0  0  0  0  0  0  0  0  0
   -7.3383   -5.0147    1.0115 H   0  0  0  0  0  0  0  0  0  0  0  0
   -9.8950   -2.7143   -1.3735 H   0  0  0  0  0  0  0  0  0  0  0  0
   -9.8862   -4.4670   -1.5350 H   0  0  0  0  0  0  0  0  0  0  0  0
  -10.6057   -3.7117   -0.1020 H   0  0  0  0  0  0  0  0  0  0  0  0
    5.9647    0.1532   -0.5682 H   0  0  0  0  0  0  0  0  0  0  0  0
    4.9485    1.2795    1.8830 H   0  0  0  0  0  0  0  0  0  0  0  0
    5.0584    2.4964    0.6230 H   0  0  0  0  0  0  0  0  0  0  0  0
    3.6910    1.0493   -0.8918 H   0  0  0  0  0  0  0  0  0  0  0  0
    3.5974   -0.1752    0.3642 H   0  0  0  0  0  0  0  0  0  0  0  0
    2.4460    1.4553    1.8684 H   0  0  0  0  0  0  0  0  0  0  0  0
    2.5414    2.6814    0.6231 H   0  0  0  0  0  0  0  0  0  0  0  0
    1.1469    1.2616   -0.8897 H   0  0  0  0  0  0  0  0  0  0  0  0
    1.0596    0.0244    0.3452 H   0  0  0  0  0  0  0  0  0  0  0  0
   -0.0879    1.6262    1.8809 H   0  0  0  0  0  0  0  0  0  0  0  0
    0.0182    2.8790    0.6638 H   0  0  0  0  0  0  0  0  0  0  0  0
   -1.3786    1.5076   -0.8853 H   0  0  0  0  0  0  0  0  0  0  0  0
   -1.4855    0.2427    0.3203 H   0  0  0  0  0  0  0  0  0  0  0  0
   -2.6528    1.7807    1.8789 H   0  0  0  0  0  0  0  0  0  0  0  0
   -2.4885    3.1035    0.7368 H   0  0  0  0  0  0  0  0  0  0  0  0
   -3.8758    1.9271   -0.9105 H   0  0  0  0  0  0  0  0  0  0  0  0
   -4.0044    0.5194    0.1378 H   0  0  0  0  0  0  0  0  0  0  0  0
   -5.1765    1.9508    1.7511 H   0  0  0  0  0  0  0  0  0  0  0  0
   12.7459   -0.9744    0.4974 H   0  0  0  0  0  0  0  0  0  0  0  0
   -8.4811   -3.7220   -0.1733 N   0  0  0  0  0  0  0  0  0  0  0  0
   -6.1355    3.2930   -1.1835 O   0  0  0  0  0  0  0  0  0  0  0  0
  1  2  1  0
  1  5  1  0
  2  3  1  0
  2  4  1  0
  3  8  1  0
  4  9  1  0
  5  6  1  0
  5  7  1  0
  5 37  1  1
  6  8  1  0
  7  9  1  0
  8 10  1  0
  9 10  1  0
  9 23  1  1
 11 12  2  0
 11 14  1  0
 12 13  1  0
 13 16  2  0
 14 15  2  0
 14 83  1  0
 15 16  1  0
 15 20  1  0
 16 17  1  0
 17 18  2  0
 17 34  1  0
 18 19  1  0
 19 20  2  0
 83 21  1  0
 83 22  1  0
 23 24  1  0
 23 36  2  0
 24 25  1  0
 25 26  1  0
 26 27  1  0
 27 28  1  0
 28 29  1  0
 29 30  1  0
 30 31  1  0
 31 32  1  0
 32 33  1  0
 34 33  1  1
 84 34  2  0
 34 35  2  0
  1 38  1  0
  1 39  1  0
  2 40  1  6
  3 41  1  0
  3 42  1  0
  4 43  1  0
  4 44  1  0
  6 45  1  0
  6 46  1  0
  7 47  1  0
  7 48  1  0
  8 49  1  6
 10 50  1  0
 10 51  1  0
 11 52  1  0
 12 53  1  0
 13 54  1  0
 18 55  1  0
 19 56  1  0
 20 57  1  0
 21 58  1  0
 21 59  1  0
 21 60  1  0
 22 61  1  0
 22 62  1  0
 22 63  1  0
 24 64  1  0
 25 65  1  0
 25 66  1  0
 26 67  1  0
 26 68  1  0
 27 69  1  0
 27 70  1  0
 28 71  1  0
 28 72  1  0
 29 73  1  0
 29 74  1  0
 30 75  1  0
 30 76  1  0
 31 77  1  0
 31 78  1  0
 32 79  1  0
 32 80  1  0
 33 81  1  0
 37 82  1  0
M  END
