
     RDKit          3D

 85 88  0  0  0  0  0  0  0  0999 V2000
    6.3175    2.5417   -1.1369 C   0  0  0  0  0  0  0  0  0  0  0  0
    6.0331    0.1038   -0.6718 C   0  0  1  0  0  0  0  0  0  0  0  0
    5.1121    0.1340    0.5374 C   0  0  0  0  0  0  0  0  0  0  0  0
    5.6266    0.2776    1.8240 C   0  0  0  0  0  0  0  0  0  0  0  0
    4.7682    0.2880    2.9117 C   0  0  0  0  0  0  0  0  0  0  0  0
    6.9535    1.3039   -0.6885 C   0  0  0  0  0  0  0  0  0  0  0  0
    8.2335    1.1925   -0.2567 C   0  0  0  0  0  0  0  0  0  0  0  0
    9.2493    2.2800   -0.0706 C   0  0  0  0  0  0  0  0  0  0  0  0
    8.0974   -1.2331   -0.2780 C   0  0  0  0  0  0  0  0  0  0  0  0
    8.9906   -2.4276   -0.1126 C   0  0  0  0  0  0  0  0  0  0  0  0
    6.8150   -1.1934   -0.7187 C   0  0  0  0  0  0  0  0  0  0  0  0
    6.0674   -2.3400   -1.2335 C   0  0  0  0  0  0  0  0  0  0  0  0
    6.0590   -4.6423   -1.7314 C   0  0  0  0  0  0  0  0  0  0  0  0
   -0.7565    0.1244    1.4010 N   0  0  0  0  0  0  0  0  0  0  0  0
    5.1514    2.5992   -1.4691 O   0  0  0  0  0  0  0  0  0  0  0  0
    4.9310   -2.2563   -1.6527 O   0  0  0  0  0  0  0  0  0  0  0  0
    6.7302   -3.4935   -1.2247 O   0  0  0  0  0  0  0  0  0  0  0  0
    0.6073    1.0058    2.9736 O   0  0  0  0  0  0  0  0  0  0  0  0
    0.4610    0.3840    1.9304 C   0  0  0  0  0  0  0  0  0  0  0  0
    2.8686    0.0305    1.4662 C   0  0  0  0  0  0  0  0  0  0  0  0
    3.3951    0.1593    2.7515 C   0  0  0  0  0  0  0  0  0  0  0  0
    3.7402    0.0175    0.3750 C   0  0  0  0  0  0  0  0  0  0  0  0
    8.7128   -0.0538    0.0525 N   0  0  0  0  0  0  0  0  0  0  0  0
    7.1145    3.6062   -1.1671 O   0  0  0  0  0  0  0  0  0  0  0  0
    6.5471    4.8414   -1.5912 C   0  0  0  0  0  0  0  0  0  0  0  0
   -1.9607    0.6999    1.9592 C   0  0  0  0  0  0  0  0  0  0  0  0
   -3.1920    0.1242    1.2778 C   0  0  0  0  0  0  0  0  0  0  0  0
   -4.4595    0.7403    1.8552 C   0  0  0  0  0  0  0  0  0  0  0  0
   -5.6802    0.1748    1.3129 N   0  0  0  0  0  0  0  0  0  0  0  0
   -6.8253    0.5178    2.1386 C   0  0  0  0  0  0  0  0  0  0  0  0
   -8.0919   -0.1672    1.6499 C   0  0  0  0  0  0  0  0  0  0  0  0
   -8.3785    0.1959    0.1931 C   0  0  1  0  0  0  0  0  0  0  0  0
   -7.1374   -0.1144   -0.6450 C   0  0  0  0  0  0  0  0  0  0  0  0
   -5.9090    0.5701   -0.0663 C   0  0  0  0  0  0  0  0  0  0  0  0
   -9.6177   -0.4738   -0.3422 C   0  0  0  0  0  0  0  0  0  0  0  0
  -10.6678    0.2920   -0.8251 C   0  0  0  0  0  0  0  0  0  0  0  0
  -11.8269   -0.3028   -1.3313 C   0  0  0  0  0  0  0  0  0  0  0  0
  -12.7810    0.5423   -1.7712 O   0  0  0  0  0  0  0  0  0  0  0  0
  -13.9682   -0.0037   -2.3089 C   0  0  0  0  0  0  0  0  0  0  0  0
  -11.9351   -1.6895   -1.3540 C   0  0  0  0  0  0  0  0  0  0  0  0
  -10.8797   -2.4564   -0.8687 C   0  0  0  0  0  0  0  0  0  0  0  0
   -9.7330   -1.8668   -0.3683 C   0  0  0  0  0  0  0  0  0  0  0  0
    5.3987    0.1515   -1.5583 H   0  0  0  0  0  0  0  0  0  0  0  0
    6.6927    0.3809    1.9830 H   0  0  0  0  0  0  0  0  0  0  0  0
    5.1702    0.3919    3.9118 H   0  0  0  0  0  0  0  0  0  0  0  0
    8.8678    3.0883    0.5476 H   0  0  0  0  0  0  0  0  0  0  0  0
   10.1444    1.8881    0.4105 H   0  0  0  0  0  0  0  0  0  0  0  0
    9.5481    2.7079   -1.0261 H   0  0  0  0  0  0  0  0  0  0  0  0
    9.9250   -2.1363    0.3649 H   0  0  0  0  0  0  0  0  0  0  0  0
    8.5286   -3.1968    0.5001 H   0  0  0  0  0  0  0  0  0  0  0  0
    9.2370   -2.8731   -1.0750 H   0  0  0  0  0  0  0  0  0  0  0  0
    6.7687   -5.4606   -1.6485 H   0  0  0  0  0  0  0  0  0  0  0  0
    5.1692   -4.8808   -1.1485 H   0  0  0  0  0  0  0  0  0  0  0  0
    5.7770   -4.5171   -2.7768 H   0  0  0  0  0  0  0  0  0  0  0  0
    1.2916   -0.4917    0.2850 H   0  0  0  0  0  0  0  0  0  0  0  0
   -0.8247   -0.3051    0.4921 H   0  0  0  0  0  0  0  0  0  0  0  0
    2.7539    0.1520    3.6182 H   0  0  0  0  0  0  0  0  0  0  0  0
    3.3365   -0.0851   -0.6258 H   0  0  0  0  0  0  0  0  0  0  0  0
    6.1913    4.7883   -2.6202 H   0  0  0  0  0  0  0  0  0  0  0  0
    5.7251    5.1522   -0.9461 H   0  0  0  0  0  0  0  0  0  0  0  0
    7.3478    5.5724   -1.5267 H   0  0  0  0  0  0  0  0  0  0  0  0
   -2.0030    0.4903    3.0301 H   0  0  0  0  0  0  0  0  0  0  0  0
   -1.9583    1.7903    1.8508 H   0  0  0  0  0  0  0  0  0  0  0  0
   -3.1242    0.3100    0.2020 H   0  0  0  0  0  0  0  0  0  0  0  0
   -3.2225   -0.9598    1.4156 H   0  0  0  0  0  0  0  0  0  0  0  0
   -4.4612    0.5642    2.9350 H   0  0  0  0  0  0  0  0  0  0  0  0
   -4.4257    1.8366    1.7249 H   0  0  0  0  0  0  0  0  0  0  0  0
   -6.6204    0.2106    3.1670 H   0  0  0  0  0  0  0  0  0  0  0  0
   -6.9912    1.6104    2.1635 H   0  0  0  0  0  0  0  0  0  0  0  0
   -7.9739   -1.2501    1.7492 H   0  0  0  0  0  0  0  0  0  0  0  0
   -8.9301    0.1253    2.2869 H   0  0  0  0  0  0  0  0  0  0  0  0
   -8.5385    1.2799    0.1501 H   0  0  0  0  0  0  0  0  0  0  0  0
   -6.9671   -1.1947   -0.6760 H   0  0  0  0  0  0  0  0  0  0  0  0
   -7.2835    0.2157   -1.6761 H   0  0  0  0  0  0  0  0  0  0  0  0
   -6.0315    1.6659   -0.1504 H   0  0  0  0  0  0  0  0  0  0  0  0
   -5.0384    0.3079   -0.6694 H   0  0  0  0  0  0  0  0  0  0  0  0
  -10.5971    1.3744   -0.8140 H   0  0  0  0  0  0  0  0  0  0  0  0
  -14.5923    0.8379   -2.5994 H   0  0  0  0  0  0  0  0  0  0  0  0
  -13.7730   -0.6166   -3.1928 H   0  0  0  0  0  0  0  0  0  0  0  0
  -14.5108   -0.6070   -1.5761 H   0  0  0  0  0  0  0  0  0  0  0  0
  -12.8155   -2.1858   -1.7384 H   0  0  0  0  0  0  0  0  0  0  0  0
  -10.9661   -3.5355   -0.8869 H   0  0  0  0  0  0  0  0  0  0  0  0
   -8.9290   -2.4899    0.0038 H   0  0  0  0  0  0  0  0  0  0  0  0
    9.6605   -0.1097    0.3886 H   0  0  0  0  0  0  0  0  0  0  0  0
    1.5065   -0.1339    1.2029 N   0  0  0  0  0  0  0  0  0  0  0  0
 39 38  1  0
 38 37  1  0
 37 40  1  0
 37 36  2  0
 40 41  2  0
 36 35  1  0
 41 42  1  0
 35 42  2  0
 35 32  1  0
 33 32  1  0
 33 34  1  0
 32 31  1  0
 34 29  1  0
 31 30  1  0
 27 26  1  0
 27 28  1  0
 29 30  1  0
 29 28  1  0
 26 14  1  0
 14 19  1  0
 19 18  2  0
 19 85  1  0
 85 20  1  0
 20 21  2  0
 20 22  1  0
 21  5  1  0
 22  3  2  0
  5  4  2  0
 25 24  1  0
 24  1  1  0
  3  4  1  0
  3  2  1  0
 15  1  2  0
  6  2  1  0
  6  7  2  0
  2 11  1  0
  8  7  1  0
  7 23  1  0
 11  9  2  0
 23  9  1  0
 16 12  2  0
  9 10  1  0
 12 17  1  0
 17 13  1  0
  2 43  1  6
  4 44  1  0
  5 45  1  0
  8 46  1  0
  8 47  1  0
  8 48  1  0
 10 49  1  0
 10 50  1  0
 10 51  1  0
 13 52  1  0
 13 53  1  0
 13 54  1  0
 85 55  1  0
 14 56  1  0
 21 57  1  0
 22 58  1  0
 25 59  1  0
 25 60  1  0
 25 61  1  0
 26 62  1  0
 26 63  1  0
 27 64  1  0
 27 65  1  0
 28 66  1  0
 28 67  1  0
 30 68  1  0
 30 69  1  0
 31 70  1  0
 31 71  1  0
 32 72  1  1
 33 73  1  0
 33 74  1  0
 34 75  1  0
 34 76  1  0
 36 77  1  0
 39 78  1  0
 39 79  1  0
 39 80  1  0
 40 81  1  0
 41 82  1  0
 42 83  1  0
 23 84  1  0
  1  6  1  0
 11 12  1  0
M  END
