
     RDKit          3D

 68 72  0  0  0  0  0  0  0  0999 V2000
    2.9703    1.0323   -1.1780 C   0  0  0  0  0  0  0  0  0  0  0  0
    1.8103    1.5380   -0.7493 N   0  0  0  0  0  0  0  0  0  0  0  0
    1.3153    1.1525    0.4072 C   0  0  0  0  0  0  0  0  0  0  0  0
   -0.8793    5.1416   -0.3796 C   0  0  0  0  0  0  0  0  0  0  0  0
   -2.8075    3.7260   -0.3441 C   0  0  0  0  0  0  0  0  0  0  0  0
    3.2738   -1.7879    2.7184 C   0  0  0  0  0  0  0  0  0  0  0  0
    3.8254   -1.3383    1.5712 C   0  0  0  0  0  0  0  0  0  0  0  0
    3.2035   -0.3357    0.7547 C   0  0  0  0  0  0  0  0  0  0  0  0
    3.7348    0.1324   -0.4730 C   0  0  0  0  0  0  0  0  0  0  0  0
    0.1302    1.6726    0.8377 N   0  0  0  0  0  0  0  0  0  0  0  0
   -0.5794    2.6844    0.0822 C   0  0  2  0  0  0  0  0  0  0  0  0
   -0.0461    4.0946    0.3429 C   0  0  0  0  0  0  0  0  0  0  0  0
   -2.2668    5.0170    0.0271 N   0  0  0  0  0  0  0  0  0  0  0  0
   -2.0684    2.6190    0.4067 C   0  0  2  0  0  0  0  0  0  0  0  0
   -2.5518    1.3514    0.0357 O   0  0  0  0  0  0  0  0  0  0  0  0
   -3.6465    0.8982    0.7930 C   0  0  0  0  0  0  0  0  0  0  0  0
   -4.2048   -0.3687    0.1667 C   0  0  1  0  0  0  0  0  0  0  0  0
   -5.3119   -0.9217    1.0678 C   0  0  0  0  0  0  0  0  0  0  0  0
   -5.8805   -2.2448    0.5733 C   0  0  0  0  0  0  0  0  0  0  0  0
   -6.5906   -2.0600   -1.0555 S   0  0  2  0  0  0  0  0  0  0  0  0
   -7.6554   -1.0544   -0.9872 O   0  0  0  0  0  0  0  0  0  0  0  0
   -6.9275   -3.3766   -1.6001 O   0  0  0  0  0  0  0  0  0  0  0  0
   -5.2152   -1.3581   -1.9538 C   0  0  0  0  0  0  0  0  0  0  0  0
   -4.6963   -0.1061   -1.2586 C   0  0  0  0  0  0  0  0  0  0  0  0
    1.9781    0.1590    1.1817 C   0  0  0  0  0  0  0  0  0  0  0  0
    1.4175   -0.3348    2.3326 N   0  0  0  0  0  0  0  0  0  0  0  0
    1.9733   -1.2796    3.1508 C   0  0  0  0  0  0  0  0  0  0  0  0
    1.3920   -1.6676    4.1558 O   0  0  0  0  0  0  0  0  0  0  0  0
    5.0391   -0.3089   -0.9989 C   0  0  0  0  0  0  0  0  0  0  0  0
    6.2086   -0.1496   -0.2542 C   0  0  0  0  0  0  0  0  0  0  0  0
    7.4000   -0.5076   -0.7090 N   0  0  0  0  0  0  0  0  0  0  0  0
    7.4961   -1.0339   -1.9182 C   0  0  0  0  0  0  0  0  0  0  0  0
    6.3959   -1.2381   -2.7623 C   0  0  0  0  0  0  0  0  0  0  0  0
    6.5405   -1.8381   -3.9878 N   0  0  0  0  0  0  0  0  0  0  0  0
    5.1452   -0.8599   -2.2689 C   0  0  0  0  0  0  0  0  0  0  0  0
    3.3207    1.4070   -2.1337 H   0  0  0  0  0  0  0  0  0  0  0  0
   -0.7452    5.0211   -1.4673 H   0  0  0  0  0  0  0  0  0  0  0  0
   -3.8699    3.6977   -0.0922 H   0  0  0  0  0  0  0  0  0  0  0  0
   -2.7275    3.5207   -1.4249 H   0  0  0  0  0  0  0  0  0  0  0  0
    4.1000   -2.4405    4.5828 H   0  0  0  0  0  0  0  0  0  0  0  0
    3.2762   -3.7015    3.6866 H   0  0  0  0  0  0  0  0  0  0  0  0
    4.8667   -3.1435    3.1574 H   0  0  0  0  0  0  0  0  0  0  0  0
    4.7712   -1.7562    1.2506 H   0  0  0  0  0  0  0  0  0  0  0  0
    0.0127    1.7558    1.8367 H   0  0  0  0  0  0  0  0  0  0  0  0
   -0.4522    2.4495   -0.9779 H   0  0  0  0  0  0  0  0  0  0  0  0
    0.9954    4.1546    0.0222 H   0  0  0  0  0  0  0  0  0  0  0  0
   -0.0675    4.2953    1.4187 H   0  0  0  0  0  0  0  0  0  0  0  0
   -2.8200    5.7503   -0.3956 H   0  0  0  0  0  0  0  0  0  0  0  0
   -2.2002    2.7838    1.4881 H   0  0  0  0  0  0  0  0  0  0  0  0
   -3.3353    0.6939    1.8272 H   0  0  0  0  0  0  0  0  0  0  0  0
   -4.4426    1.6554    0.8436 H   0  0  0  0  0  0  0  0  0  0  0  0
   -3.3997   -1.1135    0.1251 H   0  0  0  0  0  0  0  0  0  0  0  0
   -4.9182   -1.0923    2.0723 H   0  0  0  0  0  0  0  0  0  0  0  0
   -6.1178   -0.1895    1.1698 H   0  0  0  0  0  0  0  0  0  0  0  0
   -5.1095   -3.0134    0.4944 H   0  0  0  0  0  0  0  0  0  0  0  0
   -6.6802   -2.6185    1.2159 H   0  0  0  0  0  0  0  0  0  0  0  0
   -4.4498   -2.1341   -2.0210 H   0  0  0  0  0  0  0  0  0  0  0  0
   -5.5836   -1.1482   -2.9600 H   0  0  0  0  0  0  0  0  0  0  0  0
   -5.4777    0.6593   -1.2477 H   0  0  0  0  0  0  0  0  0  0  0  0
   -3.8822    0.2885   -1.8670 H   0  0  0  0  0  0  0  0  0  0  0  0
    0.4800   -0.0514    2.5818 H   0  0  0  0  0  0  0  0  0  0  0  0
    6.1741    0.2994    0.7330 H   0  0  0  0  0  0  0  0  0  0  0  0
    8.4901   -1.3129   -2.2558 H   0  0  0  0  0  0  0  0  0  0  0  0
    7.4659   -1.8163   -4.3849 H   0  0  0  0  0  0  0  0  0  0  0  0
    5.8295   -1.6317   -4.6706 H   0  0  0  0  0  0  0  0  0  0  0  0
    4.2566   -1.0086   -2.8721 H   0  0  0  0  0  0  0  0  0  0  0  0
    3.9155   -2.8243    3.5782 C   0  0  0  0  0  0  0  0  0  0  0  0
   -0.5210    6.1404   -0.1242 H   0  0  0  0  0  0  0  0  0  0  0  0
 22 20  2  0
 20 23  1  6
 20 21  2  0
 20 19  1  0
 23 24  1  0
 19 18  1  0
 24 17  1  0
 18 17  1  0
 17 16  1  0
 16 15  1  0
 15 14  1  0
 13  5  1  0
 13  4  1  0
  5 14  1  0
 14 11  1  0
  4 12  1  0
 12 11  1  0
 11 10  1  0
 10  3  1  0
  2  3  1  0
  2  1  2  0
  3 25  2  0
  1  9  1  0
 30 31  2  0
 30 29  1  0
 25 26  1  0
 25  8  1  0
  9  8  2  0
  9 29  1  0
 31 32  1  0
 26 27  1  0
  8  7  1  0
 29 35  2  0
 27 28  2  0
 27  6  1  0
 32 33  2  0
  7  6  2  0
 35 33  1  0
  6 67  1  0
 33 34  1  0
  1 36  1  0
  4 68  1  0
  4 37  1  0
  5 38  1  0
  5 39  1  0
 67 40  1  0
 67 41  1  0
 67 42  1  0
  7 43  1  0
 10 44  1  0
 11 45  1  6
 12 46  1  0
 12 47  1  0
 13 48  1  0
 14 49  1  1
 16 50  1  0
 16 51  1  0
 17 52  1  6
 18 53  1  0
 18 54  1  0
 19 55  1  0
 19 56  1  0
 23 57  1  0
 23 58  1  0
 24 59  1  0
 24 60  1  0
 26 61  1  0
 30 62  1  0
 32 63  1  0
 34 64  1  0
 34 65  1  0
 35 66  1  0
M  END
