
     RDKit          3D

 36 37  0  0  0  0  0  0  0  0999 V2000
   -1.8243    1.0185    0.9153 C   0  0  0  0  0  0  0  0  0  0  0  0
   -0.6034   -0.3414   -1.1501 C   0  0  0  0  0  0  0  0  0  0  0  0
    3.3245   -1.5938    1.7571 C   0  0  0  0  0  0  0  0  0  0  0  0
    4.3741   -0.5654    2.1328 C   0  0  0  0  0  0  0  0  0  0  0  0
    5.0153   -0.0110    0.8737 C   0  0  0  0  0  0  0  0  0  0  0  0
    4.0160    0.6234   -0.0638 C   0  0  0  0  0  0  0  0  0  0  0  0
    2.6204    0.1512    0.0318 C   0  0  0  0  0  0  0  0  0  0  0  0
    2.2990   -1.0762    0.7810 C   0  0  0  0  0  0  0  0  0  0  0  0
    1.6017    0.8256   -0.5830 C   0  0  0  0  0  0  0  0  0  0  0  0
    0.1589    0.5137   -0.3599 C   0  0  0  0  0  0  0  0  0  0  0  0
   -0.4700    1.1928    0.6733 C   0  0  0  0  0  0  0  0  0  0  0  0
   -2.5502    0.1608    0.1077 C   0  0  0  0  0  0  0  0  0  0  0  0
   -1.9499   -0.5396   -0.9252 C   0  0  0  0  0  0  0  0  0  0  0  0
    1.2517   -1.6767    0.6161 O   0  0  0  0  0  0  0  0  0  0  0  0
    1.8145    1.9154   -1.2797 O   0  0  0  0  0  0  0  0  0  0  0  0
    0.0345   -1.0837   -2.2233 N   0  0  0  0  0  0  0  0  0  0  0  0
    1.1049   -0.6810   -2.6128 O   0  0  0  0  0  0  0  0  0  0  0  0
   -0.5356   -2.0492   -2.6641 O   0  0  0  0  0  0  0  0  0  0  0  0
   -4.2922   -0.0687    0.4098 S   0  0  1  0  0  0  0  0  0  0  0  0
   -4.6596   -1.3907   -0.0868 O   0  0  0  0  0  0  0  0  0  0  0  0
   -4.5464    0.2631    1.8073 O   0  0  0  0  0  0  0  0  0  0  0  0
   -5.0527    1.1617   -0.6193 C   0  0  0  0  0  0  0  0  0  0  0  0
   -2.2928    1.5524    1.7306 H   0  0  0  0  0  0  0  0  0  0  0  0
    3.8061   -2.4604    1.2894 H   0  0  0  0  0  0  0  0  0  0  0  0
    2.7931   -1.9748    2.6311 H   0  0  0  0  0  0  0  0  0  0  0  0
    3.9241    0.2427    2.7153 H   0  0  0  0  0  0  0  0  0  0  0  0
    5.1321   -1.0239    2.7679 H   0  0  0  0  0  0  0  0  0  0  0  0
    5.7884    0.7263    1.0952 H   0  0  0  0  0  0  0  0  0  0  0  0
    5.5090   -0.8227    0.3253 H   0  0  0  0  0  0  0  0  0  0  0  0
    0.1046    1.8507    1.3114 H   0  0  0  0  0  0  0  0  0  0  0  0
   -2.5186   -1.2229   -1.5408 H   0  0  0  0  0  0  0  0  0  0  0  0
    0.9876    2.3210   -1.5761 H   0  0  0  0  0  0  0  0  0  0  0  0
   -4.7130    2.1486   -0.3138 H   0  0  0  0  0  0  0  0  0  0  0  0
   -4.7947    0.9737   -1.6588 H   0  0  0  0  0  0  0  0  0  0  0  0
   -6.1301    1.0765   -0.4792 H   0  0  0  0  0  0  0  0  0  0  0  0
    4.3716    1.4713   -0.8591 O   0  0  0  0  0  0  0  0  0  0  0  0
 19 22  1  6
 20 19  2  0
 19 21  2  0
 19 12  1  0
  1 12  2  0
  1 11  1  0
 12 13  1  0
 11 10  2  0
 13  2  2  0
 15  9  1  0
 10  2  1  0
 10  9  1  0
  2 16  1  0
  9  7  2  0
 16 18  1  0
 16 17  2  0
 36  6  2  0
  7  6  1  0
  7  8  1  0
 14  8  2  0
  6  5  1  0
  8  3  1  0
  5  4  1  0
  4  3  1  0
  1 23  1  0
  3 24  1  0
  3 25  1  0
  4 26  1  0
  4 27  1  0
  5 28  1  0
  5 29  1  0
 11 30  1  0
 13 31  1  0
 15 32  1  0
 22 33  1  0
 22 34  1  0
 22 35  1  0
M  CHG  2  16   1  18  -1
M  END
