
     RDKit          3D

104103  0  0  0  0  0  0  0  0999 V2000
    3.0760   -4.9190   -3.4810 C   0  0  0  0  0  0  0  0  0  0  0  0
    1.6480   -4.5230   -3.1370 C   0  0  0  0  0  0  0  0  0  0  0  0
    0.8480   -5.6400   -2.4640 C   0  0  0  0  0  0  0  0  0  0  0  0
   -0.5810   -5.2780   -2.0480 C   0  0  0  0  0  0  0  0  0  0  0  0
   -1.3240   -6.4260   -1.3610 C   0  0  0  0  0  0  0  0  0  0  0  0
   -2.7330   -5.9990   -0.9400 C   0  0  0  0  0  0  0  0  0  0  0  0
   -3.4630   -7.1350   -0.2190 C   0  0  0  0  0  0  0  0  0  0  0  0
   -4.8850   -6.7650    0.2140 C   0  0  0  0  0  0  0  0  0  0  0  0
   -5.6230   -7.9110    0.9120 C   0  0  0  0  0  0  0  0  0  0  0  0
   -7.0230   -7.5250    1.4060 C   0  0  0  0  0  0  0  0  0  0  0  0
   -7.7290   -8.6530    2.1690 C   0  0  0  0  0  0  0  0  0  0  0  0
   -7.9610   -9.9320    1.3280 C   0  0  1  0  0  0  0  0  0  0  0  0
   -8.6100  -11.0520    2.1780 C   0  0  0  0  0  0  0  0  0  0  0  0
   -7.7880  -11.4310    3.4160 C   0  0  0  0  0  0  0  0  0  0  0  0
   -8.4220  -12.5950    4.1820 C   0  0  0  0  0  0  0  0  0  0  0  0
   -7.5640  -12.9850    5.3880 C   0  0  0  0  0  0  0  0  0  0  0  0
   -8.1490  -14.1360    6.2110 C   0  0  0  0  0  0  0  0  0  0  0  0
   -7.3730  -14.5110    7.4780 C   0  0  0  0  0  0  0  0  0  0  0  0
   -7.9210  -15.7040    8.2670 C   0  0  0  0  0  0  0  0  0  0  0  0
   -7.1020  -16.1220    9.4930 C   0  0  0  0  0  0  0  0  0  0  0  0
   -7.7410  -17.2650   10.2840 C   0  0  0  0  0  0  0  0  0  0  0  0
   -6.9270  -17.6820   11.5140 C   0  0  0  0  0  0  0  0  0  0  0  0
   -7.5780  -18.8120   12.3170 C   0  0  0  0  0  0  0  0  0  0  0  0
   -6.7300  -19.2760   13.5040 C   0  0  0  0  0  0  0  0  0  0  0  0
   -7.4010  -20.3490   14.3490 C   0  0  0  0  0  0  0  0  0  0  0  0
   -8.8160   -9.6090    0.0780 C   0  0  0  0  0  0  0  0  0  0  0  0
   -9.0870  -10.7880   -0.8700 C   0  0  0  0  0  0  0  0  0  0  0  0
   -7.8410  -11.4910   -1.4240 C   0  0  0  0  0  0  0  0  0  0  0  0
   -6.9510  -10.5680   -2.2620 C   0  0  0  0  0  0  0  0  0  0  0  0
   -5.7480  -11.2820   -2.8860 C   0  0  0  0  0  0  0  0  0  0  0  0
   -4.8130  -10.4010   -3.7210 C   0  0  0  0  0  0  0  0  0  0  0  0
   -3.5730  -11.0950   -4.2960 C   0  0  0  0  0  0  0  0  0  0  0  0
   -2.7020  -10.1810   -5.1580 C   0  0  0  0  0  0  0  0  0  0  0  0
   -1.4830  -10.9190   -5.6910 C   0  0  0  0  0  0  0  0  0  0  0  0
    3.6040   -5.2910   -2.5980 H   0  0  0  0  0  0  0  0  0  0  0  0
    3.6240   -4.0520   -3.8630 H   0  0  0  0  0  0  0  0  0  0  0  0
    3.1020   -5.6930   -4.2530 H   0  0  0  0  0  0  0  0  0  0  0  0
    1.6810   -3.6640   -2.4540 H   0  0  0  0  0  0  0  0  0  0  0  0
    1.1360   -4.1770   -4.0410 H   0  0  0  0  0  0  0  0  0  0  0  0
    0.8020   -6.5010   -3.1430 H   0  0  0  0  0  0  0  0  0  0  0  0
    1.4010   -5.9780   -1.5780 H   0  0  0  0  0  0  0  0  0  0  0  0
   -1.1310   -4.9850   -2.9510 H   0  0  0  0  0  0  0  0  0  0  0  0
   -0.5710   -4.3970   -1.3950 H   0  0  0  0  0  0  0  0  0  0  0  0
   -1.3880   -7.2820   -2.0430 H   0  0  0  0  0  0  0  0  0  0  0  0
   -0.7700   -6.7550   -0.4750 H   0  0  0  0  0  0  0  0  0  0  0  0
   -3.2970   -5.6960   -1.8290 H   0  0  0  0  0  0  0  0  0  0  0  0
   -2.6690   -5.1260   -0.2790 H   0  0  0  0  0  0  0  0  0  0  0  0
   -2.8950   -7.4150    0.6770 H   0  0  0  0  0  0  0  0  0  0  0  0
   -3.4940   -8.0230   -0.8620 H   0  0  0  0  0  0  0  0  0  0  0  0
   -4.8220   -5.9090    0.8980 H   0  0  0  0  0  0  0  0  0  0  0  0
   -5.4480   -6.4290   -0.6640 H   0  0  0  0  0  0  0  0  0  0  0  0
   -5.7040   -8.7740    0.2410 H   0  0  0  0  0  0  0  0  0  0  0  0
   -5.0350   -8.2370    1.7790 H   0  0  0  0  0  0  0  0  0  0  0  0
   -7.6380   -7.2090    0.5550 H   0  0  0  0  0  0  0  0  0  0  0  0
   -6.9060   -6.6530    2.0570 H   0  0  0  0  0  0  0  0  0  0  0  0
   -7.1170   -8.9090    3.0380 H   0  0  0  0  0  0  0  0  0  0  0  0
   -8.6880   -8.2860    2.5550 H   0  0  0  0  0  0  0  0  0  0  0  0
   -6.9830  -10.3030    1.0030 H   0  0  0  0  0  0  0  0  0  0  0  0
   -9.6200  -10.7530    2.4850 H   0  0  0  0  0  0  0  0  0  0  0  0
   -8.7210  -11.9530    1.5650 H   0  0  0  0  0  0  0  0  0  0  0  0
   -7.7020  -10.5710    4.0890 H   0  0  0  0  0  0  0  0  0  0  0  0
   -6.7730  -11.7120    3.1110 H   0  0  0  0  0  0  0  0  0  0  0  0
   -8.5310  -13.4500    3.5060 H   0  0  0  0  0  0  0  0  0  0  0  0
   -9.4270  -12.3130    4.5180 H   0  0  0  0  0  0  0  0  0  0  0  0
   -6.5510  -13.2390    5.0560 H   0  0  0  0  0  0  0  0  0  0  0  0
   -7.4600  -12.1140    6.0480 H   0  0  0  0  0  0  0  0  0  0  0  0
   -9.1800  -13.8800    6.4820 H   0  0  0  0  0  0  0  0  0  0  0  0
   -8.2190  -15.0270    5.5740 H   0  0  0  0  0  0  0  0  0  0  0  0
   -7.3340  -13.6430    8.1470 H   0  0  0  0  0  0  0  0  0  0  0  0
   -6.3310  -14.7090    7.1980 H   0  0  0  0  0  0  0  0  0  0  0  0
   -8.0160  -16.5690    7.6000 H   0  0  0  0  0  0  0  0  0  0  0  0
   -8.9420  -15.4630    8.5890 H   0  0  0  0  0  0  0  0  0  0  0  0
   -6.1100  -16.4370    9.1460 H   0  0  0  0  0  0  0  0  0  0  0  0
   -6.9410  -15.2540   10.1400 H   0  0  0  0  0  0  0  0  0  0  0  0
   -7.8410  -18.1390    9.6290 H   0  0  0  0  0  0  0  0  0  0  0  0
   -8.7530  -16.9890   10.6010 H   0  0  0  0  0  0  0  0  0  0  0  0
   -6.7650  -16.8120   12.1610 H   0  0  0  0  0  0  0  0  0  0  0  0
   -5.9400  -18.0040   11.1630 H   0  0  0  0  0  0  0  0  0  0  0  0
   -7.7860  -19.6630   11.6580 H   0  0  0  0  0  0  0  0  0  0  0  0
   -8.5430  -18.4730   12.7110 H   0  0  0  0  0  0  0  0  0  0  0  0
   -6.5270  -18.4090   14.1440 H   0  0  0  0  0  0  0  0  0  0  0  0
   -5.7600  -19.6430   13.1500 H   0  0  0  0  0  0  0  0  0  0  0  0
   -7.5160  -21.2840   13.7950 H   0  0  0  0  0  0  0  0  0  0  0  0
   -8.3890  -20.0220   14.6880 H   0  0  0  0  0  0  0  0  0  0  0  0
   -6.7930  -20.5620   15.2350 H   0  0  0  0  0  0  0  0  0  0  0  0
   -9.7810   -9.1970    0.4010 H   0  0  0  0  0  0  0  0  0  0  0  0
   -8.3430   -8.8200   -0.5140 H   0  0  0  0  0  0  0  0  0  0  0  0
   -9.6820  -10.4150   -1.7130 H   0  0  0  0  0  0  0  0  0  0  0  0
   -9.7180  -11.5320   -0.3710 H   0  0  0  0  0  0  0  0  0  0  0  0
   -7.2700  -11.9300   -0.6000 H   0  0  0  0  0  0  0  0  0  0  0  0
   -8.1720  -12.3300   -2.0490 H   0  0  0  0  0  0  0  0  0  0  0  0
   -7.5510  -10.1400   -3.0750 H   0  0  0  0  0  0  0  0  0  0  0  0
   -6.6000   -9.7230   -1.6610 H   0  0  0  0  0  0  0  0  0  0  0  0
   -6.1170  -12.1070   -3.5070 H   0  0  0  0  0  0  0  0  0  0  0  0
   -5.1590  -11.7500   -2.0870 H   0  0  0  0  0  0  0  0  0  0  0  0
   -4.4870   -9.5610   -3.0960 H   0  0  0  0  0  0  0  0  0  0  0  0
   -5.3770   -9.9560   -4.5490 H   0  0  0  0  0  0  0  0  0  0  0  0
   -3.9120  -11.9440   -4.9020 H   0  0  0  0  0  0  0  0  0  0  0  0
   -2.9720  -11.5200   -3.4850 H   0  0  0  0  0  0  0  0  0  0  0  0
   -2.3620   -9.3190   -4.5760 H   0  0  0  0  0  0  0  0  0  0  0  0
   -3.2870   -9.7960   -6.0020 H   0  0  0  0  0  0  0  0  0  0  0  0
   -1.7790  -11.7580   -6.3280 H   0  0  0  0  0  0  0  0  0  0  0  0
   -0.8710  -11.3090   -4.8720 H   0  0  0  0  0  0  0  0  0  0  0  0
   -0.8610  -10.2430   -6.2880 H   0  0  0  0  0  0  0  0  0  0  0  0
  1  2  1  0
  1 35  1  0
  1 36  1  0
  1 37  1  0
  2  3  1  0
  2 38  1  0
  2 39  1  0
  3  4  1  0
  3 40  1  0
  3 41  1  0
  4  5  1  0
  4 42  1  0
  4 43  1  0
  5  6  1  0
  5 44  1  0
  5 45  1  0
  6  7  1  0
  6 46  1  0
  6 47  1  0
  7  8  1  0
  7 48  1  0
  7 49  1  0
  8  9  1  0
  8 50  1  0
  8 51  1  0
  9 10  1  0
  9 52  1  0
  9 53  1  0
 10 11  1  0
 10 54  1  0
 10 55  1  0
 11 12  1  0
 11 56  1  0
 11 57  1  0
 12 13  1  0
 12 26  1  0
 12 58  1  6
 13 14  1  0
 13 59  1  0
 13 60  1  0
 14 15  1  0
 14 61  1  0
 14 62  1  0
 15 16  1  0
 15 63  1  0
 15 64  1  0
 16 17  1  0
 16 65  1  0
 16 66  1  0
 17 18  1  0
 17 67  1  0
 17 68  1  0
 18 19  1  0
 18 69  1  0
 18 70  1  0
 19 20  1  0
 19 71  1  0
 19 72  1  0
 20 21  1  0
 20 73  1  0
 20 74  1  0
 21 22  1  0
 21 75  1  0
 21 76  1  0
 22 23  1  0
 22 77  1  0
 22 78  1  0
 23 24  1  0
 23 79  1  0
 23 80  1  0
 24 25  1  0
 24 81  1  0
 24 82  1  0
 25 83  1  0
 25 84  1  0
 25 85  1  0
 26 27  1  0
 26 86  1  0
 26 87  1  0
 27 28  1  0
 27 88  1  0
 27 89  1  0
 28 29  1  0
 28 90  1  0
 28 91  1  0
 29 30  1  0
 29 92  1  0
 29 93  1  0
 30 31  1  0
 30 94  1  0
 30 95  1  0
 31 32  1  0
 31 96  1  0
 31 97  1  0
 32 33  1  0
 32 98  1  0
 32 99  1  0
 33 34  1  0
 33100  1  0
 33101  1  0
 34102  1  0
 34103  1  0
 34104  1  0
M  END
