
     RDKit          3D

 33 34  0  0  0  0  0  0  0  0999 V2000
    1.1751    2.7280    0.7820 O   0  0  0  0  0  0  0  0  0  0  0  0
    2.2392    2.1500    0.6516 C   0  0  0  0  0  0  0  0  0  0  0  0
    3.3933    2.7923    0.7739 O   0  0  0  0  0  0  0  0  0  0  0  0
    2.3893    0.7174    0.3571 C   0  0  0  0  0  0  0  0  0  0  0  0
    3.6673    0.1394    0.3593 C   0  0  0  0  0  0  0  0  0  0  0  0
    3.8612   -1.2002    0.1085 C   0  0  0  0  0  0  0  0  0  0  0  0
    2.7464   -2.0011   -0.1377 C   0  0  0  0  0  0  0  0  0  0  0  0
    1.4775   -1.4680   -0.1491 C   0  0  0  0  0  0  0  0  0  0  0  0
    1.2578   -0.0960    0.0806 C   0  0  0  0  0  0  0  0  0  0  0  0
   -0.0021    0.4216    0.0675 N   0  0  0  0  0  0  0  0  0  0  0  0
   -1.1649   -0.1987   -0.4145 C   0  0  0  0  0  0  0  0  0  0  0  0
   -2.3369   -0.1183    0.3492 C   0  0  0  0  0  0  0  0  0  0  0  0
   -2.3160    0.5650    1.6865 C   0  0  0  0  0  0  0  0  0  0  0  0
   -1.1687   -0.8295   -1.6580 C   0  0  0  0  0  0  0  0  0  0  0  0
   -2.3341   -1.3965   -2.1391 C   0  0  0  0  0  0  0  0  0  0  0  0
   -3.5038   -1.3080   -1.3978 C   0  0  0  0  0  0  0  0  0  0  0  0
   -3.5222   -0.6648   -0.1642 C   0  0  0  0  0  0  0  0  0  0  0  0
   -4.8083   -0.5764    0.6078 C   0  0  0  0  0  0  0  0  0  0  0  0
    3.2265    3.7235    0.9809 H   0  0  0  0  0  0  0  0  0  0  0  0
    4.5283    0.7588    0.5670 H   0  0  0  0  0  0  0  0  0  0  0  0
    4.8569   -1.6212    0.1142 H   0  0  0  0  0  0  0  0  0  0  0  0
    2.8697   -3.0625   -0.3116 H   0  0  0  0  0  0  0  0  0  0  0  0
    0.6340   -2.1216   -0.3209 H   0  0  0  0  0  0  0  0  0  0  0  0
   -0.0823    1.3752    0.3925 H   0  0  0  0  0  0  0  0  0  0  0  0
   -0.2635   -0.8613   -2.2507 H   0  0  0  0  0  0  0  0  0  0  0  0
   -2.4641    1.6441    1.5895 H   0  0  0  0  0  0  0  0  0  0  0  0
   -3.1010    0.1950    2.3425 H   0  0  0  0  0  0  0  0  0  0  0  0
   -1.3654    0.4159    2.1976 H   0  0  0  0  0  0  0  0  0  0  0  0
   -2.3359   -1.8898   -3.1025 H   0  0  0  0  0  0  0  0  0  0  0  0
   -4.4189   -1.7378   -1.7869 H   0  0  0  0  0  0  0  0  0  0  0  0
   -5.0452    0.4517    0.8858 H   0  0  0  0  0  0  0  0  0  0  0  0
   -5.6415   -0.9627    0.0227 H   0  0  0  0  0  0  0  0  0  0  0  0
   -4.7641   -1.1539    1.5341 H   0  0  0  0  0  0  0  0  0  0  0  0
  1  2  2  0
  2  3  1  0
  2  4  1  0
  4  5  2  0
  4  9  1  0
  5  6  1  0
  6  7  2  0
  7  8  1  0
  8  9  2  0
  9 10  1  0
 10 11  1  0
 11 12  2  0
 11 14  1  0
 12 13  1  0
 12 17  1  0
 14 15  2  0
 15 16  1  0
 16 17  2  0
 17 18  1  0
  3 19  1  0
  5 20  1  0
  6 21  1  0
  7 22  1  0
  8 23  1  0
 10 24  1  0
 14 25  1  0
 13 26  1  0
 13 27  1  0
 13 28  1  0
 15 29  1  0
 16 30  1  0
 18 31  1  0
 18 32  1  0
 18 33  1  0
M  END
