
     RDKit          3D

 41 43  0  0  0  0  0  0  0  0999 V2000
   -4.3048   -1.2069    0.4681 C   0  0  1  0  0  0  0  0  0  0  0  0
   -3.6580    2.3127   -0.8122 C   0  0  0  0  0  0  0  0  0  0  0  0
    0.2486   -0.6162   -0.0198 C   0  0  0  0  0  0  0  0  0  0  0  0
   -1.0603    1.2183   -0.0642 C   0  0  0  0  0  0  0  0  0  0  0  0
    4.4016    0.9980    0.1112 C   0  0  0  0  0  0  0  0  0  0  0  0
    2.7524   -0.7284    0.0258 C   0  0  0  0  0  0  0  0  0  0  0  0
    3.7950   -1.6616   -0.0168 C   0  0  0  0  0  0  0  0  0  0  0  0
    5.1014   -1.2352    0.0056 C   0  0  0  0  0  0  0  0  0  0  0  0
    5.4614    0.1061    0.0691 C   0  0  0  0  0  0  0  0  0  0  0  0
    3.0722    0.6273    0.0917 C   0  0  0  0  0  0  0  0  0  0  0  0
   -5.5191   -2.0906    0.2436 C   0  0  0  0  0  0  0  0  0  0  0  0
   -3.0867   -1.7575   -0.1320 N   0  0  0  0  0  0  0  0  0  0  0  0
   -3.4812    0.9478   -0.3483 N   0  0  0  0  0  0  0  0  0  0  0  0
   -4.5775    0.2006   -0.0575 C   0  0  0  0  0  0  0  0  0  0  0  0
   -0.7841   -1.4635   -0.0541 N   0  0  0  0  0  0  0  0  0  0  0  0
   -1.9978   -0.9530   -0.1036 C   0  0  0  0  0  0  0  0  0  0  0  0
   -2.1907    0.4474   -0.1485 C   0  0  0  0  0  0  0  0  0  0  0  0
    0.1706    0.7005    0.0058 N   0  0  0  0  0  0  0  0  0  0  0  0
    1.4644   -1.2386    0.0026 N   0  0  0  0  0  0  0  0  0  0  0  0
   -5.7042    0.6392   -0.1723 O   0  0  0  0  0  0  0  0  0  0  0  0
   -3.6644    3.2785    0.2833 C   0  0  0  0  0  0  0  0  0  0  0  0
   -3.6657    4.0667    1.1895 C   0  0  0  0  0  0  0  0  0  0  0  0
   -2.8865   -3.1929   -0.0758 C   0  0  0  0  0  0  0  0  0  0  0  0
    6.7649    0.4416    0.0853 O   0  0  0  0  0  0  0  0  0  0  0  0
    6.0861   -2.1415   -0.0361 F   0  0  0  0  0  0  0  0  0  0  0  0
   -4.1582   -1.1036    1.5554 H   0  0  0  0  0  0  0  0  0  0  0  0
   -2.8608    2.5476   -1.5197 H   0  0  0  0  0  0  0  0  0  0  0  0
   -4.5941    2.3756   -1.3655 H   0  0  0  0  0  0  0  0  0  0  0  0
   -1.1173    2.3009   -0.0629 H   0  0  0  0  0  0  0  0  0  0  0  0
    3.5909   -2.7238   -0.0695 H   0  0  0  0  0  0  0  0  0  0  0  0
    2.3066    1.3853    0.1259 H   0  0  0  0  0  0  0  0  0  0  0  0
   -5.4149   -3.0405    0.7635 H   0  0  0  0  0  0  0  0  0  0  0  0
   -6.4021   -1.6019    0.6461 H   0  0  0  0  0  0  0  0  0  0  0  0
   -5.6848   -2.2852   -0.8161 H   0  0  0  0  0  0  0  0  0  0  0  0
    1.3957   -2.2446   -0.0170 H   0  0  0  0  0  0  0  0  0  0  0  0
   -3.6723    4.7649    1.9954 H   0  0  0  0  0  0  0  0  0  0  0  0
   -3.7382   -3.7037   -0.5148 H   0  0  0  0  0  0  0  0  0  0  0  0
   -2.0048   -3.4576   -0.6503 H   0  0  0  0  0  0  0  0  0  0  0  0
   -2.7501   -3.5522    0.9484 H   0  0  0  0  0  0  0  0  0  0  0  0
    6.8719    1.3989    0.1188 H   0  0  0  0  0  0  0  0  0  0  0  0
    4.7026    2.3079    0.1767 F   0  0  0  0  0  0  0  0  0  0  0  0
 22 21  3  0
 18  4  2  0
 18  3  1  0
 21  2  1  0
  4 17  1  0
 19  3  1  0
 19  6  1  0
 10  6  1  0
 10  5  2  0
  2 13  1  0
  3 15  2  0
 41  5  1  0
  6  7  2  0
 17 13  1  0
 17 16  2  0
  5  9  1  0
 13 14  1  0
 15 16  1  0
 16 12  1  0
  7  8  1  0
  9  8  2  0
  9 24  1  0
 14 20  2  0
 14  1  1  0
  8 25  1  0
 12  1  1  0
 12 23  1  0
  1 11  1  0
  1 26  1  1
  2 27  1  0
  2 28  1  0
  4 29  1  0
  7 30  1  0
 10 31  1  0
 11 32  1  0
 11 33  1  0
 11 34  1  0
 19 35  1  0
 22 36  1  0
 23 37  1  0
 23 38  1  0
 23 39  1  0
 24 40  1  0
M  END
