
     RDKit          3D

 20 20  0  0  0  0  0  0  0  0999 V2000
    0.0656    2.9522   -0.5638 O   0  0  0  0  0  0  0  0  0  0  0  0
    0.0512    1.9314    0.3491 C   0  0  1  0  0  0  0  0  0  0  0  0
   -1.0871    1.1511    0.1465 O   0  0  0  0  0  0  0  0  0  0  0  0
    1.1528    1.0950    0.1414 O   0  0  0  0  0  0  0  0  0  0  0  0
    0.7342   -0.2486    0.2441 C   0  0  2  0  0  0  0  0  0  0  0  0
    1.6023   -1.1320   -0.6190 C   0  0  0  0  0  0  0  0  0  0  0  0
    3.3405   -0.9675   -0.0923 S   0  0  0  0  0  0  0  0  0  0  0  0
   -0.7235   -0.1693   -0.2105 C   0  0  1  0  0  0  0  0  0  0  0  0
   -1.6238   -1.1685    0.4777 C   0  0  0  0  0  0  0  0  0  0  0  0
   -3.3545   -0.8686   -0.0120 S   0  0  0  0  0  0  0  0  0  0  0  0
    0.4130    3.7519   -0.1547 H   0  0  0  0  0  0  0  0  0  0  0  0
    0.0478    2.3203    1.3767 H   0  0  0  0  0  0  0  0  0  0  0  0
    0.7909   -0.5907    1.2876 H   0  0  0  0  0  0  0  0  0  0  0  0
    1.2900   -2.1684   -0.4914 H   0  0  0  0  0  0  0  0  0  0  0  0
    1.4983   -0.8651   -1.6710 H   0  0  0  0  0  0  0  0  0  0  0  0
    3.7791   -2.1252   -0.5960 H   0  0  0  0  0  0  0  0  0  0  0  0
   -0.7965   -0.3008   -1.2986 H   0  0  0  0  0  0  0  0  0  0  0  0
   -1.3364   -2.1731    0.1673 H   0  0  0  0  0  0  0  0  0  0  0  0
   -1.5203   -1.0967    1.5610 H   0  0  0  0  0  0  0  0  0  0  0  0
   -3.8369   -2.0624    0.3473 H   0  0  0  0  0  0  0  0  0  0  0  0
  1  2  1  0
  1 11  1  0
  2  3  1  0
  2  4  1  0
  2 12  1  1
  3  8  1  0
  4  5  1  0
  5  6  1  0
  5  8  1  0
  5 13  1  1
  6  7  1  0
  6 14  1  0
  6 15  1  0
  7 16  1  0
  8  9  1  0
  8 17  1  6
  9 10  1  0
  9 18  1  0
  9 19  1  0
 10 20  1  0
M  END
