
     RDKit          3D

 95 98  0  0  0  0  0  0  0  0999 V2000
    8.0045   -3.4348    0.3372 C   0  0  0  0  0  0  0  0  0  0  0  0
    9.2042   -4.0230    0.3428 O   0  0  0  0  0  0  0  0  0  0  0  0
    9.8582   -4.2655   -0.8912 C   0  0  0  0  0  0  0  0  0  0  0  0
    7.4292   -3.1929    1.5885 C   0  0  0  0  0  0  0  0  0  0  0  0
    6.1926   -2.5881    1.6822 C   0  0  0  0  0  0  0  0  0  0  0  0
    5.5210   -2.2125    0.5240 C   0  0  0  0  0  0  0  0  0  0  0  0
    6.0809   -2.4532   -0.7223 C   0  0  0  0  0  0  0  0  0  0  0  0
    7.3183   -3.0628   -0.8219 C   0  0  0  0  0  0  0  0  0  0  0  0
    3.9540   -1.4155    0.6112 S   0  0  1  0  0  0  0  0  0  0  0  0
    3.0896   -1.9438   -0.4377 O   0  0  0  0  0  0  0  0  0  0  0  0
    3.4874   -1.4988    1.9911 O   0  0  0  0  0  0  0  0  0  0  0  0
    4.3058    0.1391    0.1891 N   0  0  0  0  0  0  0  0  0  0  0  0
    5.1376    0.8998    1.1230 C   0  0  0  0  0  0  0  0  0  0  0  0
    6.1839    1.7648    0.4236 C   0  0  1  0  0  0  0  0  0  0  0  0
    6.9745    2.5243    1.4845 C   0  0  0  0  0  0  0  0  0  0  0  0
    7.1052    0.9314   -0.4581 C   0  0  0  0  0  0  0  0  0  0  0  0
    3.3587    0.8484   -0.6617 C   0  0  0  0  0  0  0  0  0  0  0  0
    1.9992    1.1421   -0.0269 C   0  0  1  0  0  0  0  0  0  0  0  0
    2.0846    2.0195    1.0740 O   0  0  0  0  0  0  0  0  0  0  0  0
    0.9831    1.6245   -1.0721 C   0  0  1  0  0  0  0  0  0  0  0  0
   -0.3074    1.7741   -0.4408 N   0  0  0  0  0  0  0  0  0  0  0  0
   -1.4453    1.2371   -0.9143 C   0  0  0  0  0  0  0  0  0  0  0  0
   -1.4809    0.4520   -1.8506 O   0  0  0  0  0  0  0  0  0  0  0  0
    1.3883    2.9320   -1.7750 C   0  0  0  0  0  0  0  0  0  0  0  0
   -0.6486    4.2556   -2.4383 C   0  0  0  0  0  0  0  0  0  0  0  0
   -1.6316    4.6077   -3.3538 C   0  0  0  0  0  0  0  0  0  0  0  0
   -1.6167    4.0673   -4.6325 C   0  0  0  0  0  0  0  0  0  0  0  0
   -0.6143    3.1732   -4.9873 C   0  0  0  0  0  0  0  0  0  0  0  0
    0.3625    2.8216   -4.0666 C   0  0  0  0  0  0  0  0  0  0  0  0
    0.3581    3.3579   -2.7814 C   0  0  0  0  0  0  0  0  0  0  0  0
   -2.7029    1.6403   -0.2073 C   0  0  0  0  0  0  0  0  0  0  0  0
   -2.8309    2.8520    0.4693 C   0  0  0  0  0  0  0  0  0  0  0  0
   -4.0250    3.2159    1.0807 C   0  0  0  0  0  0  0  0  0  0  0  0
   -5.0942    2.3257    1.0260 C   0  0  0  0  0  0  0  0  0  0  0  0
   -4.9834    1.1147    0.3531 C   0  0  0  0  0  0  0  0  0  0  0  0
   -3.7950    0.7865   -0.2866 C   0  0  0  0  0  0  0  0  0  0  0  0
   -4.1742    4.5438    1.7628 C   0  0  0  0  0  0  0  0  0  0  0  0
   -6.1606    0.2058    0.1781 C   0  0  0  0  0  0  0  0  0  0  0  0
   -6.4517   -0.1815   -0.9470 O   0  0  0  0  0  0  0  0  0  0  0  0
   -6.8813   -0.1241    1.2661 N   0  0  0  0  0  0  0  0  0  0  0  0
   -6.4541    0.0582    2.6408 C   0  0  0  0  0  0  0  0  0  0  0  0
   -8.1106   -0.8825    1.0713 C   0  0  0  0  0  0  0  0  0  0  0  0
   -7.8823   -2.3522    0.9753 C   0  0  0  0  0  0  0  0  0  0  0  0
   -7.5318   -3.1104    2.0810 N   0  0  0  0  0  0  0  0  0  0  0  0
   -7.4020   -4.3120    1.6413 C   0  0  0  0  0  0  0  0  0  0  0  0
   -7.6436   -4.4169    0.3246 O   0  0  0  0  0  0  0  0  0  0  0  0
   -7.9504   -3.1609   -0.1045 C   0  0  0  0  0  0  0  0  0  0  0  0
   -8.2647   -2.9684   -1.5354 C   0  0  0  0  0  0  0  0  0  0  0  0
   -7.0448   -5.5383    2.3889 C   0  0  0  0  0  0  0  0  0  0  0  0
    9.2836   -4.9391   -1.5310 H   0  0  0  0  0  0  0  0  0  0  0  0
   10.0541   -3.3379   -1.4337 H   0  0  0  0  0  0  0  0  0  0  0  0
   10.8059   -4.7374   -0.6469 H   0  0  0  0  0  0  0  0  0  0  0  0
    7.9598   -3.4837    2.4859 H   0  0  0  0  0  0  0  0  0  0  0  0
    5.7617   -2.4075    2.6574 H   0  0  0  0  0  0  0  0  0  0  0  0
    5.5664   -2.1648   -1.6296 H   0  0  0  0  0  0  0  0  0  0  0  0
    7.7307   -3.2385   -1.8053 H   0  0  0  0  0  0  0  0  0  0  0  0
    4.5145    1.5065    1.7839 H   0  0  0  0  0  0  0  0  0  0  0  0
    5.6730    0.1958    1.7662 H   0  0  0  0  0  0  0  0  0  0  0  0
    5.6765    2.5072   -0.2023 H   0  0  0  0  0  0  0  0  0  0  0  0
    7.5331    1.8358    2.1227 H   0  0  0  0  0  0  0  0  0  0  0  0
    7.6917    3.2030    1.0216 H   0  0  0  0  0  0  0  0  0  0  0  0
    6.3201    3.1173    2.1255 H   0  0  0  0  0  0  0  0  0  0  0  0
    7.8802    1.5556   -0.9050 H   0  0  0  0  0  0  0  0  0  0  0  0
    7.5996    0.1508    0.1259 H   0  0  0  0  0  0  0  0  0  0  0  0
    6.5651    0.4430   -1.2691 H   0  0  0  0  0  0  0  0  0  0  0  0
    3.8543    1.7762   -0.9538 H   0  0  0  0  0  0  0  0  0  0  0  0
    3.2137    0.2869   -1.5855 H   0  0  0  0  0  0  0  0  0  0  0  0
    1.5960    0.2105    0.3791 H   0  0  0  0  0  0  0  0  0  0  0  0
    2.5049    2.8413    0.7988 H   0  0  0  0  0  0  0  0  0  0  0  0
    0.8874    0.8414   -1.8258 H   0  0  0  0  0  0  0  0  0  0  0  0
   -0.3407    2.3518    0.3844 H   0  0  0  0  0  0  0  0  0  0  0  0
    1.5265    3.7263   -1.0351 H   0  0  0  0  0  0  0  0  0  0  0  0
    2.3504    2.7877   -2.2722 H   0  0  0  0  0  0  0  0  0  0  0  0
   -2.4082    5.3060   -3.0686 H   0  0  0  0  0  0  0  0  0  0  0  0
   -2.3782    4.3441   -5.3502 H   0  0  0  0  0  0  0  0  0  0  0  0
   -0.5925    2.7503   -5.9837 H   0  0  0  0  0  0  0  0  0  0  0  0
    1.1409    2.1220   -4.3502 H   0  0  0  0  0  0  0  0  0  0  0  0
   -2.0052    3.5533    0.5020 H   0  0  0  0  0  0  0  0  0  0  0  0
   -6.0304    2.5987    1.5004 H   0  0  0  0  0  0  0  0  0  0  0  0
   -3.7157   -0.1437   -0.8336 H   0  0  0  0  0  0  0  0  0  0  0  0
   -4.7899    5.2203    1.1676 H   0  0  0  0  0  0  0  0  0  0  0  0
   -4.6583    4.4381    2.7339 H   0  0  0  0  0  0  0  0  0  0  0  0
   -3.2095    5.0251    1.9160 H   0  0  0  0  0  0  0  0  0  0  0  0
   -7.0302    0.8412    3.1370 H   0  0  0  0  0  0  0  0  0  0  0  0
   -6.5978   -0.8719    3.1890 H   0  0  0  0  0  0  0  0  0  0  0  0
   -5.4004    0.3126    2.6975 H   0  0  0  0  0  0  0  0  0  0  0  0
   -8.7633   -0.6651    1.9191 H   0  0  0  0  0  0  0  0  0  0  0  0
   -8.6183   -0.5198    0.1789 H   0  0  0  0  0  0  0  0  0  0  0  0
   -7.4135   -3.2220   -2.1696 H   0  0  0  0  0  0  0  0  0  0  0  0
   -9.1085   -3.5856   -1.8472 H   0  0  0  0  0  0  0  0  0  0  0  0
   -8.5164   -1.9282   -1.7216 H   0  0  0  0  0  0  0  0  0  0  0  0
   -6.1407   -5.9985    1.9883 H   0  0  0  0  0  0  0  0  0  0  0  0
   -6.8730   -5.2893    3.4326 H   0  0  0  0  0  0  0  0  0  0  0  0
   -7.8437   -6.2788    2.3367 H   0  0  0  0  0  0  0  0  0  0  0  0
   -0.6628    4.6870   -1.4441 H   0  0  0  0  0  0  0  0  0  0  0  0
 49 45  1  0
 45 46  1  0
 45 44  2  0
 46 47  1  0
 44 43  1  0
 27 28  2  0
 27 26  1  0
 28 29  1  0
 47 48  1  0
 47 43  2  0
 43 42  1  0
 26 25  2  0
 29 30  2  0
  8  7  1  0
  8  1  2  0
  2  1  1  0
  2  3  1  0
 25 30  1  0
 30 24  1  0
  7  6  2  0
 10  9  2  0
  1  4  1  0
 42 40  1  0
  6  5  1  0
  6  9  1  0
  4  5  2  0
 24 20  1  0
 41 40  1  0
  9 11  2  0
  9 12  1  6
 40 38  1  0
 20 21  1  0
 20 18  1  0
 12 17  1  0
 12 13  1  0
 17 18  1  0
 38 39  2  0
 38 35  1  0
 21 22  1  0
 36 35  2  0
 36 31  1  0
 18 19  1  0
 22 23  2  0
 22 31  1  0
 35 34  1  0
 13 14  1  0
 31 32  2  0
 34 33  2  0
 15 14  1  0
 32 33  1  0
 14 16  1  0
 33 37  1  0
  3 50  1  0
  3 51  1  0
  3 52  1  0
  4 53  1  0
  5 54  1  0
  7 55  1  0
  8 56  1  0
 13 57  1  0
 13 58  1  0
 14 59  1  6
 15 60  1  0
 15 61  1  0
 15 62  1  0
 16 63  1  0
 16 64  1  0
 16 65  1  0
 17 66  1  0
 17 67  1  0
 18 68  1  1
 19 69  1  0
 20 70  1  6
 21 71  1  0
 24 72  1  0
 24 73  1  0
 25 95  1  0
 26 74  1  0
 27 75  1  0
 28 76  1  0
 29 77  1  0
 32 78  1  0
 34 79  1  0
 36 80  1  0
 37 81  1  0
 37 82  1  0
 37 83  1  0
 41 84  1  0
 41 85  1  0
 41 86  1  0
 42 87  1  0
 42 88  1  0
 48 89  1  0
 48 90  1  0
 48 91  1  0
 49 92  1  0
 49 93  1  0
 49 94  1  0
M  END
