
     RDKit          3D

 47 50  0  0  0  0  0  0  0  0999 V2000
    3.0350    2.2010    0.1882 C   0  0  0  0  0  0  0  0  0  0  0  0
    3.9790    1.4040   -0.4851 C   0  0  0  0  0  0  0  0  0  0  0  0
    4.8344    3.4458   -0.2273 C   0  0  0  0  0  0  0  0  0  0  0  0
   -1.6220    0.2733    2.9440 C   0  0  0  0  0  0  0  0  0  0  0  0
   -2.5192    0.9075    0.8052 C   0  0  0  0  0  0  0  0  0  0  0  0
   -5.5289    0.7777   -1.4575 C   0  0  0  0  0  0  0  0  0  0  0  0
   -7.0042    0.4294   -1.3901 C   0  0  0  0  0  0  0  0  0  0  0  0
    1.1730   -3.7658   -0.9186 C   0  0  0  0  0  0  0  0  0  0  0  0
   -0.6478   -5.4624   -0.7053 C   0  0  0  0  0  0  0  0  0  0  0  0
    2.6548   -0.3777   -0.4593 C   0  0  0  0  0  0  0  0  0  0  0  0
    1.6727    0.2692    0.1851 N   0  0  0  0  0  0  0  0  0  0  0  0
    1.8584    1.5260    0.4994 C   0  0  0  0  0  0  0  0  0  0  0  0
    3.8276    0.1274   -0.8221 N   0  0  0  0  0  0  0  0  0  0  0  0
    5.0590    2.1789   -0.7247 N   0  0  0  0  0  0  0  0  0  0  0  0
    3.6011    3.5041    0.3438 C   0  0  0  0  0  0  0  0  0  0  0  0
    0.8897    2.1933    1.1405 O   0  0  0  0  0  0  0  0  0  0  0  0
   -0.2809    1.5218    1.4363 C   0  0  0  0  0  0  0  0  0  0  0  0
   -0.4150    0.8936    2.6618 C   0  0  0  0  0  0  0  0  0  0  0  0
   -2.6722    0.2665    2.0365 C   0  0  0  0  0  0  0  0  0  0  0  0
   -1.3072    1.5391    0.5141 C   0  0  0  0  0  0  0  0  0  0  0  0
   -4.7902    0.5308   -0.1587 C   0  0  0  0  0  0  0  0  0  0  0  0
   -5.3036   -0.0042    0.8054 O   0  0  0  0  0  0  0  0  0  0  0  0
    2.4375   -1.6786   -0.7768 N   0  0  0  0  0  0  0  0  0  0  0  0
    1.3015   -2.4426   -0.5430 C   0  0  0  0  0  0  0  0  0  0  0  0
   -0.0547   -4.1597   -0.5268 N   0  0  0  0  0  0  0  0  0  0  0  0
   -0.7270   -3.1937    0.0710 N   0  0  0  0  0  0  0  0  0  0  0  0
    0.0720   -2.1365    0.0767 C   0  0  0  0  0  0  0  0  0  0  0  0
    5.5871    4.2098   -0.3272 H   0  0  0  0  0  0  0  0  0  0  0  0
   -1.7525   -0.2256    3.8954 H   0  0  0  0  0  0  0  0  0  0  0  0
   -5.0366    0.1963   -2.2432 H   0  0  0  0  0  0  0  0  0  0  0  0
   -5.3974    1.8252   -1.7430 H   0  0  0  0  0  0  0  0  0  0  0  0
   -7.4734    0.6274   -2.3531 H   0  0  0  0  0  0  0  0  0  0  0  0
   -7.1607   -0.6220   -1.1537 H   0  0  0  0  0  0  0  0  0  0  0  0
   -7.5236    1.0244   -0.6398 H   0  0  0  0  0  0  0  0  0  0  0  0
    1.8587   -4.4257   -1.4258 H   0  0  0  0  0  0  0  0  0  0  0  0
   -0.9096   -5.8964    0.2578 H   0  0  0  0  0  0  0  0  0  0  0  0
   -1.5428   -5.3930   -1.3210 H   0  0  0  0  0  0  0  0  0  0  0  0
    0.0691   -6.1116   -1.1990 H   0  0  0  0  0  0  0  0  0  0  0  0
    5.8951    1.8804   -1.2002 H   0  0  0  0  0  0  0  0  0  0  0  0
    3.1557    4.3661    0.8122 H   0  0  0  0  0  0  0  0  0  0  0  0
    0.3984    0.8893    3.3748 H   0  0  0  0  0  0  0  0  0  0  0  0
   -3.5917   -0.2305    2.2948 H   0  0  0  0  0  0  0  0  0  0  0  0
   -1.1690    2.0437   -0.4354 H   0  0  0  0  0  0  0  0  0  0  0  0
   -3.2037    1.4045   -1.0446 H   0  0  0  0  0  0  0  0  0  0  0  0
    3.1945   -2.1316   -1.2634 H   0  0  0  0  0  0  0  0  0  0  0  0
   -0.2511   -1.2075    0.5132 H   0  0  0  0  0  0  0  0  0  0  0  0
   -3.4986    0.9634   -0.1862 N   0  0  0  0  0  0  0  0  0  0  0  0
 14  3  1  0
 14  2  1  0
  3 15  2  0
 18  4  2  0
 18 17  1  0
  2 13  2  0
  2  1  1  0
 13 10  1  0
 15  1  1  0
  1 12  2  0
 10 23  1  0
 10 11  2  0
 23 24  1  0
 12 11  1  0
 12 16  1  0
  4 19  1  0
 24 27  1  0
 24  8  2  0
 16 17  1  0
 27 26  2  0
  8 25  1  0
 26 25  1  0
 25  9  1  0
 17 20  2  0
 19  5  2  0
 20  5  1  0
  5 47  1  0
 47 21  1  0
 22 21  2  0
 21  6  1  0
  6  7  1  0
  3 28  1  0
  4 29  1  0
  6 30  1  0
  6 31  1  0
  7 32  1  0
  7 33  1  0
  7 34  1  0
  8 35  1  0
  9 36  1  0
  9 37  1  0
  9 38  1  0
 14 39  1  0
 15 40  1  0
 18 41  1  0
 19 42  1  0
 20 43  1  0
 47 44  1  0
 23 45  1  0
 27 46  1  0
M  END
