
     RDKit          3D

 25 26  0  0  0  0  0  0  0  0999 V2000
    0.0153    2.4053   -0.0720 O   0  0  0  0  0  0  0  0  0  0  0  0
   -0.6993    1.2630    0.0163 C   0  0  0  0  0  0  0  0  0  0  0  0
    0.1395    0.1973    0.3457 C   0  0  0  0  0  0  0  0  0  0  0  0
    1.4604    0.7627    0.4590 C   0  0  0  0  0  0  0  0  0  0  0  0
    1.3097    2.0759    0.2014 C   0  0  0  0  0  0  0  0  0  0  0  0
    2.7163    0.0584    0.8236 C   0  0  0  0  0  0  0  0  0  0  0  0
    3.1578   -0.9379   -0.2203 C   0  0  0  0  0  0  0  0  0  0  0  0
    4.2437   -1.5954    0.1695 O   0  0  0  0  0  0  0  0  0  0  0  0
    2.6103   -1.1226   -1.2761 O   0  0  0  0  0  0  0  0  0  0  0  0
   -0.4188   -1.0686    0.4795 C   0  0  0  0  0  0  0  0  0  0  0  0
   -1.7815   -1.2304    0.2861 C   0  0  0  0  0  0  0  0  0  0  0  0
   -2.5986   -0.1364   -0.0478 C   0  0  0  0  0  0  0  0  0  0  0  0
   -2.0587    1.1408   -0.1878 C   0  0  0  0  0  0  0  0  0  0  0  0
   -3.9276   -0.2337   -0.2526 O   0  0  0  0  0  0  0  0  0  0  0  0
   -4.5407   -1.5037   -0.1590 C   0  0  0  0  0  0  0  0  0  0  0  0
    2.0208    2.8870    0.1784 H   0  0  0  0  0  0  0  0  0  0  0  0
    3.5282    0.7748    0.9772 H   0  0  0  0  0  0  0  0  0  0  0  0
    2.6033   -0.4686    1.7766 H   0  0  0  0  0  0  0  0  0  0  0  0
    4.5121   -2.2268   -0.5145 H   0  0  0  0  0  0  0  0  0  0  0  0
    0.1888   -1.9270    0.7353 H   0  0  0  0  0  0  0  0  0  0  0  0
   -2.2043   -2.2197    0.3948 H   0  0  0  0  0  0  0  0  0  0  0  0
   -2.6827    1.9872   -0.4448 H   0  0  0  0  0  0  0  0  0  0  0  0
   -4.1307   -2.2101   -0.8853 H   0  0  0  0  0  0  0  0  0  0  0  0
   -4.4464   -1.9322    0.8422 H   0  0  0  0  0  0  0  0  0  0  0  0
   -5.5956   -1.3532   -0.3754 H   0  0  0  0  0  0  0  0  0  0  0  0
  5  1  1  0
  2  1  1  0
  3  2  2  0
  2 13  1  0
  4  3  1  0
 10  3  1  0
  6  4  1  0
  4  5  2  0
  5 16  1  0
  7  6  1  0
  6 17  1  0
  6 18  1  0
  9  7  2  0
  8  7  1  0
  8 19  1  0
 10 11  2  0
 10 20  1  0
 11 12  1  0
 11 21  1  0
 12 13  2  0
 12 14  1  0
 13 22  1  0
 14 15  1  0
 15 23  1  0
 15 24  1  0
 15 25  1  0
M  END
