
     RDKit          3D

 16 15  0  0  0  0  0  0  0  0999 V2000
   -3.3347   -0.3295   -0.0786 C   0  0  0  0  0  0  0  0  0  0  0  0
   -4.5045   -0.0041   -0.0708 O   0  0  0  0  0  0  0  0  0  0  0  0
   -2.2178    0.5950    0.0002 C   0  0  0  0  0  0  0  0  0  0  0  0
   -0.9578    0.1158   -0.0201 C   0  0  0  0  0  0  0  0  0  0  0  0
    0.1898    0.9745    0.0510 C   0  0  0  0  0  0  0  0  0  0  0  0
    1.4963    0.6356    0.0239 C   0  0  0  0  0  0  0  0  0  0  0  0
    2.4056    1.6136    0.0875 O   0  0  0  0  0  0  0  0  0  0  0  0
    2.0064   -0.7684   -0.0810 C   0  0  0  0  0  0  0  0  0  0  0  0
    3.3282   -0.7758   -0.1455 O   0  0  0  0  0  0  0  0  0  0  0  0
    1.3209   -1.7562   -0.1025 O   0  0  0  0  0  0  0  0  0  0  0  0
   -3.0447   -1.3938   -0.1498 H   0  0  0  0  0  0  0  0  0  0  0  0
   -2.4237    1.6578    0.0734 H   0  0  0  0  0  0  0  0  0  0  0  0
   -0.8156   -0.9545   -0.0934 H   0  0  0  0  0  0  0  0  0  0  0  0
   -0.0132    2.0382    0.1288 H   0  0  0  0  0  0  0  0  0  0  0  0
    3.3062    1.2660    0.0727 H   0  0  0  0  0  0  0  0  0  0  0  0
    3.6717   -1.6805   -0.2086 H   0  0  0  0  0  0  0  0  0  0  0  0
  1  2  2  0
  1  3  1  0
  3  4  2  0
  4  5  1  0
 10  8  2  0
  5  6  2  0
  8  6  1  0
  8  9  1  0
  6  7  1  0
  1 11  1  0
  3 12  1  0
  4 13  1  0
  5 14  1  0
  7 15  1  0
  9 16  1  0
M  END
