
     RDKit          3D

 18 17  0  0  0  0  0  0  0  0999 V2000
   -1.0515   -0.5461   -0.0094 C   0  0  0  0  0  0  0  0  0  0  0  0
    1.4551   -0.2163   -0.0255 C   0  0  0  0  0  0  0  0  0  0  0  0
    1.5982   -1.4164   -0.0454 O   0  0  0  0  0  0  0  0  0  0  0  0
    2.6303    0.7324   -0.0540 C   0  0  0  0  0  0  0  0  0  0  0  0
    3.8963    0.0465    0.0517 N   0  0  0  0  0  0  0  0  0  0  0  0
    0.0983    0.4419    0.0053 C   0  0  0  0  0  0  0  0  0  0  0  0
   -2.3961    0.1263    0.0217 C   0  0  0  0  0  0  0  0  0  0  0  0
   -2.5818    1.3174    0.0438 O   0  0  0  0  0  0  0  0  0  0  0  0
   -3.3856   -0.7614    0.0216 O   0  0  0  0  0  0  0  0  0  0  0  0
   -1.0103   -1.1827   -0.8973 H   0  0  0  0  0  0  0  0  0  0  0  0
   -0.9921   -1.2269    0.8439 H   0  0  0  0  0  0  0  0  0  0  0  0
    2.5085    1.3553   -0.9543 H   0  0  0  0  0  0  0  0  0  0  0  0
    2.5187    1.4235    0.7866 H   0  0  0  0  0  0  0  0  0  0  0  0
    4.0683   -0.4928   -0.7866 H   0  0  0  0  0  0  0  0  0  0  0  0
    4.6380    0.7320    0.0993 H   0  0  0  0  0  0  0  0  0  0  0  0
    0.0361    1.1312   -0.8422 H   0  0  0  0  0  0  0  0  0  0  0  0
    0.0551    1.0784    0.8948 H   0  0  0  0  0  0  0  0  0  0  0  0
   -4.2398   -0.3046    0.0404 H   0  0  0  0  0  0  0  0  0  0  0  0
  5  4  1  0
  3  2  2  0
  4  2  1  0
  1  7  1  0
  1  6  1  0
  2  6  1  0
  8  7  2  0
  7  9  1  0
  1 10  1  0
  1 11  1  0
  4 12  1  0
  4 13  1  0
  5 14  1  0
  5 15  1  0
  6 16  1  0
  6 17  1  0
  9 18  1  0
M  END
