
     RDKit          3D

 57 60  0  0  0  0  0  0  0  0999 V2000
   -2.6922   -0.8885    0.9767 N   0  0  0  0  0  0  0  0  0  0  0  0
   -2.2980   -2.2854    1.0095 C   0  0  0  0  0  0  0  0  0  0  0  0
   -1.1271   -2.5147    0.0552 C   0  0  0  0  0  0  0  0  0  0  0  0
    0.0543   -1.5734    0.3019 C   0  0  1  0  0  0  0  0  0  0  0  0
    0.7224   -2.0037    1.5837 N   0  0  0  0  0  0  0  0  0  0  0  0
    1.0851   -1.7167   -0.8289 C   0  0  0  0  0  0  0  0  0  0  0  0
    2.3521   -0.9305   -0.6323 C   0  0  0  0  0  0  0  0  0  0  0  0
    3.4600   -1.5002   -0.0058 C   0  0  0  0  0  0  0  0  0  0  0  0
    4.6157   -0.7667    0.2099 C   0  0  0  0  0  0  0  0  0  0  0  0
    4.7228    0.5649   -0.1959 C   0  0  0  0  0  0  0  0  0  0  0  0
    3.6186    1.1223   -0.8371 C   0  0  0  0  0  0  0  0  0  0  0  0
    2.4576    0.3909   -1.0517 C   0  0  0  0  0  0  0  0  0  0  0  0
    6.0100    1.3391    0.0649 C   0  0  1  0  0  0  0  0  0  0  0  0
    7.1772    0.6455   -0.6503 C   0  0  0  0  0  0  0  0  0  0  0  0
    5.9321    2.7812   -0.4359 C   0  0  0  0  0  0  0  0  0  0  0  0
    6.2812    1.3664    1.5753 C   0  0  0  0  0  0  0  0  0  0  0  0
   -0.4184   -0.1292    0.4846 C   0  0  0  0  0  0  0  0  0  0  0  0
   -1.6188   -0.0303    1.4210 C   0  0  0  0  0  0  0  0  0  0  0  0
   -3.6954   -0.4731    0.1578 C   0  0  0  0  0  0  0  0  0  0  0  0
   -4.5815   -1.4027   -0.2082 N   0  0  0  0  0  0  0  0  0  0  0  0
   -5.6246   -1.0688   -0.9577 C   0  0  0  0  0  0  0  0  0  0  0  0
   -5.9291    0.1208   -1.4288 N   0  0  0  0  0  0  0  0  0  0  0  0
   -5.0310    1.0465   -1.0895 C   0  0  0  0  0  0  0  0  0  0  0  0
   -5.0674    2.3403   -1.4770 N   0  0  0  0  0  0  0  0  0  0  0  0
   -3.9695    2.9928   -0.9870 C   0  0  0  0  0  0  0  0  0  0  0  0
   -3.2084    2.1257   -0.2638 C   0  0  0  0  0  0  0  0  0  0  0  0
   -3.8755    0.8547   -0.3046 C   0  0  0  0  0  0  0  0  0  0  0  0
    1.0567   -2.9675    1.5350 H   0  0  0  0  0  0  0  0  0  0  0  0
    1.5272   -1.4168    1.8143 H   0  0  0  0  0  0  0  0  0  0  0  0
    0.1001   -1.9641    2.3918 H   0  0  0  0  0  0  0  0  0  0  0  0
   -5.7842    2.7494   -2.0545 H   0  0  0  0  0  0  0  0  0  0  0  0
   -2.0364   -2.5455    2.0397 H   0  0  0  0  0  0  0  0  0  0  0  0
   -3.1340   -2.9176    0.7291 H   0  0  0  0  0  0  0  0  0  0  0  0
   -0.7945   -3.5550    0.1082 H   0  0  0  0  0  0  0  0  0  0  0  0
   -1.4695   -2.3488   -0.9688 H   0  0  0  0  0  0  0  0  0  0  0  0
    1.3167   -2.7784   -0.9547 H   0  0  0  0  0  0  0  0  0  0  0  0
    0.5843   -1.4025   -1.7461 H   0  0  0  0  0  0  0  0  0  0  0  0
    3.4318   -2.5389    0.3062 H   0  0  0  0  0  0  0  0  0  0  0  0
    5.4472   -1.2561    0.7015 H   0  0  0  0  0  0  0  0  0  0  0  0
    3.6460    2.1456   -1.1855 H   0  0  0  0  0  0  0  0  0  0  0  0
    1.6267    0.8628   -1.5627 H   0  0  0  0  0  0  0  0  0  0  0  0
    7.0114    0.6059   -1.7283 H   0  0  0  0  0  0  0  0  0  0  0  0
    8.1048    1.1939   -0.4743 H   0  0  0  0  0  0  0  0  0  0  0  0
    7.3282   -0.3754   -0.2972 H   0  0  0  0  0  0  0  0  0  0  0  0
    5.1340    3.3435    0.0526 H   0  0  0  0  0  0  0  0  0  0  0  0
    6.8708    3.2934   -0.2192 H   0  0  0  0  0  0  0  0  0  0  0  0
    5.7734    2.8347   -1.5147 H   0  0  0  0  0  0  0  0  0  0  0  0
    6.4046    0.3636    1.9869 H   0  0  0  0  0  0  0  0  0  0  0  0
    7.1974    1.9215    1.7866 H   0  0  0  0  0  0  0  0  0  0  0  0
    5.4648    1.8505    2.1143 H   0  0  0  0  0  0  0  0  0  0  0  0
    0.3962    0.5022    0.8480 H   0  0  0  0  0  0  0  0  0  0  0  0
   -0.7007    0.2564   -0.4984 H   0  0  0  0  0  0  0  0  0  0  0  0
   -1.9519    0.9960    1.5207 H   0  0  0  0  0  0  0  0  0  0  0  0
   -1.3529   -0.3336    2.4388 H   0  0  0  0  0  0  0  0  0  0  0  0
   -6.3028   -1.8788   -1.2062 H   0  0  0  0  0  0  0  0  0  0  0  0
   -3.8087    4.0370   -1.1974 H   0  0  0  0  0  0  0  0  0  0  0  0
   -2.2824    2.3958    0.2133 H   0  0  0  0  0  0  0  0  0  0  0  0
  1  2  1  0
  1 18  1  0
  1 19  1  0
  2  3  1  0
  2 32  1  0
  2 33  1  0
  3  4  1  0
  3 34  1  0
  3 35  1  0
  4  5  1  0
  4  6  1  6
  4 17  1  0
  5 28  1  0
  5 29  1  0
  5 30  1  0
  6  7  1  0
  6 36  1  0
  6 37  1  0
  7  8  2  0
  7 12  1  0
  8  9  1  0
  8 38  1  0
  9 10  2  0
  9 39  1  0
 10 11  1  0
 10 13  1  0
 11 12  2  0
 11 40  1  0
 12 41  1  0
 13 14  1  6
 13 15  1  0
 13 16  1  0
 14 42  1  0
 14 43  1  0
 14 44  1  0
 15 45  1  0
 15 46  1  0
 15 47  1  0
 16 48  1  0
 16 49  1  0
 16 50  1  0
 17 18  1  0
 17 51  1  0
 17 52  1  0
 18 53  1  0
 18 54  1  0
 19 20  2  0
 19 27  1  0
 20 21  1  0
 21 22  2  0
 21 55  1  0
 22 23  1  0
 23 24  1  0
 23 27  2  0
 24 25  1  0
 24 31  1  0
 25 26  2  0
 25 56  1  0
 26 27  1  0
 26 57  1  0
M  CHG  1   5   1
M  END
