
     RDKit          3D

 57 60  0  0  0  0  0  0  0  0999 V2000
    5.2239    3.3501   -0.5332 C   0  0  0  0  0  0  0  0  0  0  0  0
    4.3195    2.2059   -0.2205 C   0  0  0  0  0  0  0  0  0  0  0  0
    4.5187    1.3690    0.8195 C   0  0  0  0  0  0  0  0  0  0  0  0
    3.6365    0.2746    1.1012 C   0  0  0  0  0  0  0  0  0  0  0  0
    3.7938   -0.5872    2.2023 C   0  0  0  0  0  0  0  0  0  0  0  0
    2.8615   -1.5728    2.3831 C   0  0  0  0  0  0  0  0  0  0  0  0
    1.8414   -1.7959    1.5421 N   0  0  0  0  0  0  0  0  0  0  0  0
    1.6823   -1.0217    0.4885 C   0  0  0  0  0  0  0  0  0  0  0  0
    0.6395   -1.2416   -0.3609 N   0  0  0  0  0  0  0  0  0  0  0  0
   -0.3237   -2.3041   -0.1647 C   0  0  2  0  0  0  0  0  0  0  0  0
    0.1397   -3.6366   -0.7559 C   0  0  0  0  0  0  0  0  0  0  0  0
   -0.9490   -4.6994   -0.6430 C   0  0  0  0  0  0  0  0  0  0  0  0
   -2.2221   -4.2913   -1.2132 N   0  0  0  0  0  0  0  0  0  0  0  0
   -2.6767   -3.0320   -0.6566 C   0  0  0  0  0  0  0  0  0  0  0  0
   -1.6599   -1.8893   -0.7761 C   0  0  1  0  0  0  0  0  0  0  0  0
   -2.1070   -0.7323   -0.1162 O   0  0  0  0  0  0  0  0  0  0  0  0
   -2.9607    0.0919   -0.8736 C   0  0  0  0  0  0  0  0  0  0  0  0
   -3.2797    1.3548   -0.0937 C   0  0  1  0  0  0  0  0  0  0  0  0
   -4.1282    2.2918   -0.9535 C   0  0  0  0  0  0  0  0  0  0  0  0
   -4.4823    3.5783   -0.2146 C   0  0  0  0  0  0  0  0  0  0  0  0
   -5.1785    3.2819    1.1096 C   0  0  0  0  0  0  0  0  0  0  0  0
   -4.3380    2.3490    1.9740 C   0  0  0  0  0  0  0  0  0  0  0  0
   -3.9855    1.0633    1.2313 C   0  0  0  0  0  0  0  0  0  0  0  0
    2.5570    0.0779    0.2535 C   0  0  0  0  0  0  0  0  0  0  0  0
    2.3544    0.9563   -0.7818 N   0  0  0  0  0  0  0  0  0  0  0  0
    3.1538    2.0238   -1.0872 C   0  0  0  0  0  0  0  0  0  0  0  0
    2.8830    2.7671   -2.0223 O   0  0  0  0  0  0  0  0  0  0  0  0
    5.6537    3.2523   -1.5313 H   0  0  0  0  0  0  0  0  0  0  0  0
    4.6837    4.2977   -0.5129 H   0  0  0  0  0  0  0  0  0  0  0  0
    6.0401    3.4072    0.1844 H   0  0  0  0  0  0  0  0  0  0  0  0
    5.3704    1.5152    1.4744 H   0  0  0  0  0  0  0  0  0  0  0  0
    4.6188   -0.4608    2.8896 H   0  0  0  0  0  0  0  0  0  0  0  0
    2.9257   -2.2424    3.2328 H   0  0  0  0  0  0  0  0  0  0  0  0
    0.7860   -0.9991   -1.3290 H   0  0  0  0  0  0  0  0  0  0  0  0
   -0.4631   -2.4273    0.9128 H   0  0  0  0  0  0  0  0  0  0  0  0
    0.3998   -3.4938   -1.8107 H   0  0  0  0  0  0  0  0  0  0  0  0
    1.0481   -3.9648   -0.2455 H   0  0  0  0  0  0  0  0  0  0  0  0
   -1.4996   -1.6781   -1.8477 H   0  0  0  0  0  0  0  0  0  0  0  0
   -0.6250   -5.6222   -1.1271 H   0  0  0  0  0  0  0  0  0  0  0  0
   -1.1124   -4.9418    0.4125 H   0  0  0  0  0  0  0  0  0  0  0  0
   -2.1268   -4.2018   -2.2182 H   0  0  0  0  0  0  0  0  0  0  0  0
   -3.6133   -2.7485   -1.1423 H   0  0  0  0  0  0  0  0  0  0  0  0
   -2.9044   -3.1821    0.4048 H   0  0  0  0  0  0  0  0  0  0  0  0
   -2.4795    0.3585   -1.8266 H   0  0  0  0  0  0  0  0  0  0  0  0
   -3.8986   -0.4241   -1.1279 H   0  0  0  0  0  0  0  0  0  0  0  0
   -2.3315    1.8642    0.1260 H   0  0  0  0  0  0  0  0  0  0  0  0
   -3.6016    2.5258   -1.8835 H   0  0  0  0  0  0  0  0  0  0  0  0
   -5.0522    1.7760   -1.2418 H   0  0  0  0  0  0  0  0  0  0  0  0
   -4.9037    0.4978    1.0285 H   0  0  0  0  0  0  0  0  0  0  0  0
   -3.3616    0.4277    1.8628 H   0  0  0  0  0  0  0  0  0  0  0  0
   -3.5678    4.1507   -0.0247 H   0  0  0  0  0  0  0  0  0  0  0  0
   -5.1163    4.2073   -0.8445 H   0  0  0  0  0  0  0  0  0  0  0  0
   -5.3889    4.2116    1.6443 H   0  0  0  0  0  0  0  0  0  0  0  0
   -6.1479    2.8122    0.9089 H   0  0  0  0  0  0  0  0  0  0  0  0
   -3.4144    2.8607    2.2666 H   0  0  0  0  0  0  0  0  0  0  0  0
   -4.8659    2.1115    2.9010 H   0  0  0  0  0  0  0  0  0  0  0  0
    1.5151    0.8816   -1.3397 H   0  0  0  0  0  0  0  0  0  0  0  0
  1  2  1  0
  2  3  2  0
  2 26  1  0
  3  4  1  0
  4  5  1  0
  4 24  2  0
  5  6  2  0
  6  7  1  0
  7  8  2  0
  8  9  1  0
  8 24  1  0
  9 10  1  0
 10 11  1  0
 10 15  1  0
 11 12  1  0
 12 13  1  0
 13 14  1  0
 14 15  1  0
 15 16  1  0
 16 17  1  0
 17 18  1  0
 18 19  1  0
 18 23  1  0
 19 20  1  0
 20 21  1  0
 21 22  1  0
 22 23  1  0
 24 25  1  0
 25 26  1  0
 26 27  2  0
  1 28  1  0
  1 29  1  0
  1 30  1  0
  3 31  1  0
  5 32  1  0
  6 33  1  0
  9 34  1  0
 10 35  1  1
 11 36  1  0
 11 37  1  0
 15 38  1  6
 12 39  1  0
 12 40  1  0
 13 41  1  0
 14 42  1  0
 14 43  1  0
 17 44  1  0
 17 45  1  0
 18 46  1  1
 19 47  1  0
 19 48  1  0
 23 49  1  0
 23 50  1  0
 20 51  1  0
 20 52  1  0
 21 53  1  0
 21 54  1  0
 22 55  1  0
 22 56  1  0
 25 57  1  0
M  END
