
     RDKit          3D

 22 21  0  0  0  0  0  0  0  0999 V2000
    3.6164   -0.2007   -0.7853 C   0  0  0  0  0  0  0  0  0  0  0  0
    2.6471    0.5339    0.1079 C   0  0  0  0  0  0  0  0  0  0  0  0
    1.4025   -0.1849    0.0864 O   0  0  0  0  0  0  0  0  0  0  0  0
    0.4200    0.2449    0.8518 C   0  0  0  0  0  0  0  0  0  0  0  0
    0.4974    1.2077    1.5751 O   0  0  0  0  0  0  0  0  0  0  0  0
   -0.8410   -0.5816    0.7198 C   0  0  2  0  0  0  0  0  0  0  0  0
   -0.6239   -2.0190    0.2372 C   0  0  0  0  0  0  0  0  0  0  0  0
   -1.7895    0.1363   -0.2309 C   0  0  0  0  0  0  0  0  0  0  0  0
   -1.3697    0.8926   -1.0753 O   0  0  0  0  0  0  0  0  0  0  0  0
   -3.2495   -0.1471   -0.0426 C   0  0  0  0  0  0  0  0  0  0  0  0
    3.8071   -1.2109   -0.4237 H   0  0  0  0  0  0  0  0  0  0  0  0
    3.2524   -0.2593   -1.8109 H   0  0  0  0  0  0  0  0  0  0  0  0
    4.5654    0.3346   -0.7984 H   0  0  0  0  0  0  0  0  0  0  0  0
    3.0222    0.5881    1.1315 H   0  0  0  0  0  0  0  0  0  0  0  0
    2.4827    1.5538   -0.2452 H   0  0  0  0  0  0  0  0  0  0  0  0
   -1.3084   -0.6134    1.7083 H   0  0  0  0  0  0  0  0  0  0  0  0
   -1.5613   -2.5731    0.2572 H   0  0  0  0  0  0  0  0  0  0  0  0
   -0.2318   -2.0552   -0.7777 H   0  0  0  0  0  0  0  0  0  0  0  0
    0.0720   -2.5393    0.8934 H   0  0  0  0  0  0  0  0  0  0  0  0
   -3.4372   -1.1920    0.2006 H   0  0  0  0  0  0  0  0  0  0  0  0
   -3.5986    0.4396    0.8115 H   0  0  0  0  0  0  0  0  0  0  0  0
   -3.8285    0.1384   -0.9180 H   0  0  0  0  0  0  0  0  0  0  0  0
  1  2  1  0
  2  3  1  0
  3  4  1  0
  7  6  1  0
  4  6  1  0
  4  5  2  0
  6  8  1  0
  8  9  2  0
  8 10  1  0
  1 11  1  0
  1 12  1  0
  1 13  1  0
  2 14  1  0
  2 15  1  0
  6 16  1  1
  7 17  1  0
  7 18  1  0
  7 19  1  0
 10 20  1  0
 10 21  1  0
 10 22  1  0
M  END
