
     RDKit          3D

 30 30  0  0  0  0  0  0  0  0999 V2000
   -5.1203    0.5981   -1.3157 C   0  0  0  0  0  0  0  0  0  0  0  0
    2.3552   -0.1430   -0.0363 C   0  0  0  0  0  0  0  0  0  0  0  0
    1.7173    1.1032    0.0864 C   0  0  0  0  0  0  0  0  0  0  0  0
    3.7367   -0.1802   -0.0419 C   0  0  0  0  0  0  0  0  0  0  0  0
    4.4621    1.0029    0.0858 C   0  0  0  0  0  0  0  0  0  0  0  0
    3.7361    2.1739    0.2158 C   0  0  0  0  0  0  0  0  0  0  0  0
    4.3983   -1.5097   -0.1890 C   0  0  0  0  0  0  0  0  0  0  0  0
   -0.5668    0.1514    0.1815 C   0  0  0  0  0  0  0  0  0  0  0  0
   -1.9466    0.6175   -0.2587 C   0  0  0  0  0  0  0  0  0  0  0  0
    2.4134    2.2348    0.2173 N   0  0  0  0  0  0  0  0  0  0  0  0
    0.3653    1.2429    0.0561 N   0  0  0  0  0  0  0  0  0  0  0  0
   -2.8961   -0.4753   -0.0970 N   0  0  0  0  0  0  0  0  0  0  0  0
   -4.5504    0.8391    1.2343 O   0  0  0  0  0  0  0  0  0  0  0  0
    3.7938   -2.5480   -0.2915 O   0  0  0  0  0  0  0  0  0  0  0  0
    5.7176   -1.4240   -0.1992 O   0  0  0  0  0  0  0  0  0  0  0  0
   -5.1464   -1.4341    0.3472 O   0  0  0  0  0  0  0  0  0  0  0  0
   -4.4876   -0.1500    0.1685 S   0  0  1  0  0  0  0  0  0  0  0  0
   -6.1664    0.8498   -1.1490 H   0  0  0  0  0  0  0  0  0  0  0  0
   -4.5573    1.5016   -1.5407 H   0  0  0  0  0  0  0  0  0  0  0  0
   -5.0346   -0.1115   -2.1353 H   0  0  0  0  0  0  0  0  0  0  0  0
    5.5410    1.0309    0.0918 H   0  0  0  0  0  0  0  0  0  0  0  0
    4.2552    3.1198    0.3260 H   0  0  0  0  0  0  0  0  0  0  0  0
   -0.6218   -0.2367    1.2050 H   0  0  0  0  0  0  0  0  0  0  0  0
   -0.2516   -0.6725   -0.4615 H   0  0  0  0  0  0  0  0  0  0  0  0
   -2.2653    1.4512    0.3677 H   0  0  0  0  0  0  0  0  0  0  0  0
   -1.9049    0.9745   -1.2912 H   0  0  0  0  0  0  0  0  0  0  0  0
    0.0424    2.1474    0.3658 H   0  0  0  0  0  0  0  0  0  0  0  0
   -2.7689   -1.2399   -0.7518 H   0  0  0  0  0  0  0  0  0  0  0  0
    6.1079   -2.3046   -0.3054 H   0  0  0  0  0  0  0  0  0  0  0  0
    1.7869   -1.0573   -0.1279 H   0  0  0  0  0  0  0  0  0  0  0  0
 16 17  2  0
  6  5  2  0
  6 10  1  0
  5  4  1  0
 10  3  2  0
 14  7  2  0
  4  7  1  0
  4  2  2  0
  7 15  1  0
  3  2  1  0
  3 11  1  0
  9 12  1  0
  9  8  1  0
 17  1  1  0
 17 13  2  0
 17 12  1  6
 11  8  1  0
  1 18  1  0
  1 19  1  0
  1 20  1  0
  2 30  1  0
  5 21  1  0
  6 22  1  0
  8 23  1  0
  8 24  1  0
  9 25  1  0
  9 26  1  0
 11 27  1  0
 12 28  1  0
 15 29  1  0
M  END
