
     RDKit          3D

 35 36  0  0  0  0  0  0  0  0999 V2000
    2.3986    1.1877    2.8526 C   0  0  0  0  0  0  0  0  0  0  0  0
    2.7334    0.1897    3.7585 C   0  0  0  0  0  0  0  0  0  0  0  0
    2.0829   -1.0351    3.6999 C   0  0  0  0  0  0  0  0  0  0  0  0
    1.1048   -1.2573    2.7405 C   0  0  0  0  0  0  0  0  0  0  0  0
    0.7682   -0.2653    1.8235 C   0  0  0  0  0  0  0  0  0  0  0  0
    1.4193    0.9643    1.8946 C   0  0  0  0  0  0  0  0  0  0  0  0
   -0.3129   -0.5219    0.7985 C   0  0  1  0  0  0  0  0  0  0  0  0
    0.0427   -0.2929   -2.9360 C   0  0  0  0  0  0  0  0  0  0  0  0
    1.4266   -0.4088   -3.0569 C   0  0  0  0  0  0  0  0  0  0  0  0
    2.0566   -0.1254   -4.2597 C   0  0  0  0  0  0  0  0  0  0  0  0
    1.3124    0.2829   -5.3612 C   0  0  0  0  0  0  0  0  0  0  0  0
   -0.0650    0.4052   -5.2491 C   0  0  0  0  0  0  0  0  0  0  0  0
   -0.6928    0.1211   -4.0417 C   0  0  0  0  0  0  0  0  0  0  0  0
   -1.8656    0.2263    1.4330 P   0  0  2  0  0  0  0  0  0  0  0  0
   -1.8961    1.7062    1.3078 O   0  0  0  0  0  0  0  0  0  0  0  0
   -2.0726   -0.3376    2.9287 O   0  0  0  0  0  0  0  0  0  0  0  0
   -3.0108   -0.5746    0.6473 O   0  0  0  0  0  0  0  0  0  0  0  0
    0.0508   -0.0358   -0.5147 N   0  0  0  0  0  0  0  0  0  0  0  0
   -0.6485   -0.6289   -1.6396 C   0  0  0  0  0  0  0  0  0  0  0  0
    2.9002    2.1460    2.8921 H   0  0  0  0  0  0  0  0  0  0  0  0
    3.4982    0.3640    4.5042 H   0  0  0  0  0  0  0  0  0  0  0  0
    2.3390   -1.8216    4.3980 H   0  0  0  0  0  0  0  0  0  0  0  0
    0.6070   -2.2187    2.6970 H   0  0  0  0  0  0  0  0  0  0  0  0
    1.1762    1.7593    1.2013 H   0  0  0  0  0  0  0  0  0  0  0  0
   -0.4705   -1.6028    0.7325 H   0  0  0  0  0  0  0  0  0  0  0  0
    2.0106   -0.7167   -2.1986 H   0  0  0  0  0  0  0  0  0  0  0  0
    3.1321   -0.2211   -4.3396 H   0  0  0  0  0  0  0  0  0  0  0  0
    1.8048    0.5080   -6.2985 H   0  0  0  0  0  0  0  0  0  0  0  0
   -0.6526    0.7285   -6.0989 H   0  0  0  0  0  0  0  0  0  0  0  0
   -1.7686    0.2257   -3.9598 H   0  0  0  0  0  0  0  0  0  0  0  0
   -1.5810    0.1475    3.6039 H   0  0  0  0  0  0  0  0  0  0  0  0
   -3.8529   -0.1013    0.5927 H   0  0  0  0  0  0  0  0  0  0  0  0
   -0.0002    0.9738   -0.5660 H   0  0  0  0  0  0  0  0  0  0  0  0
   -0.6375   -1.7143   -1.4992 H   0  0  0  0  0  0  0  0  0  0  0  0
   -1.7045   -0.3419   -1.7161 H   0  0  0  0  0  0  0  0  0  0  0  0
  1  2  2  0
  1  6  1  0
  1 20  1  0
  2  3  1  0
  2 21  1  0
  3  4  2  0
  3 22  1  0
  4  5  1  0
  4 23  1  0
  5  6  2  0
  5  7  1  0
  6 24  1  0
  7 14  1  0
  7 18  1  0
  7 25  1  6
  8  9  2  0
  8 13  1  0
  8 19  1  0
  9 10  1  0
  9 26  1  0
 10 11  2  0
 10 27  1  0
 11 12  1  0
 11 28  1  0
 12 13  2  0
 12 29  1  0
 13 30  1  0
 14 15  2  0
 14 16  1  1
 14 17  1  0
 16 31  1  0
 17 32  1  0
 18 19  1  0
 18 33  1  0
 19 34  1  0
 19 35  1  0
M  END
