
     RDKit          3D

 64 66  0  0  0  0  0  0  0  0999 V2000
   -4.8157    2.8134    0.7896 C   0  0  0  0  0  0  0  0  0  0  0  0
   -3.7213    1.7553    0.7470 C   0  0  0  0  0  0  0  0  0  0  0  0
   -3.3246    1.4485   -0.6916 C   0  0  0  0  0  0  0  0  0  0  0  0
   -2.4482   -0.8127   -0.4522 C   0  0  0  0  0  0  0  0  0  0  0  0
   -1.4329   -2.9922    0.3893 C   0  0  2  0  0  0  0  0  0  0  0  0
   -1.4733    0.7340   -2.0574 C   0  0  0  0  0  0  0  0  0  0  0  0
    0.4619    1.9417   -3.1985 C   0  0  2  0  0  0  0  0  0  0  0  0
    2.3855   -1.4660   -1.3558 C   0  0  0  0  0  0  0  0  0  0  0  0
    3.0334   -1.5815    0.6519 C   0  0  0  0  0  0  0  0  0  0  0  0
   -4.4267    3.5380    3.0561 C   0  0  0  0  0  0  0  0  0  0  0  0
   -5.3886    3.0178    2.1077 N   0  0  0  0  0  0  0  0  0  0  0  0
   -6.5454    3.8836    2.0322 C   0  0  0  0  0  0  0  0  0  0  0  0
   -2.1774    0.5678   -0.8005 N   0  0  0  0  0  0  0  0  0  0  0  0
   -1.1791   -1.5358   -0.0224 C   0  0  0  0  0  0  0  0  0  0  0  0
   -2.2545   -3.0507    1.5749 N   0  0  0  0  0  0  0  0  0  0  0  0
   -0.0700   -3.6487    0.5363 C   0  0  0  0  0  0  0  0  0  0  0  0
    0.5233   -3.7652    1.5801 O   0  0  0  0  0  0  0  0  0  0  0  0
    0.4252   -4.0329   -0.6349 O   0  0  0  0  0  0  0  0  0  0  0  0
   -0.3583    1.7632   -1.9282 C   0  0  2  0  0  0  0  0  0  0  0  0
    0.5783    1.3533   -0.9262 O   0  0  0  0  0  0  0  0  0  0  0  0
    1.8069    1.0152   -1.5014 C   0  0  2  0  0  0  0  0  0  0  0  0
    1.5481    0.8813   -2.9994 C   0  0  2  0  0  0  0  0  0  0  0  0
    2.7296    1.0904   -3.7127 O   0  0  0  0  0  0  0  0  0  0  0  0
    1.0136    3.2334   -3.2077 O   0  0  0  0  0  0  0  0  0  0  0  0
    2.3146   -0.1865   -0.8763 N   0  0  0  0  0  0  0  0  0  0  0  0
    2.8164   -2.3249   -0.4793 N   0  0  0  0  0  0  0  0  0  0  0  0
    3.4663   -1.9122    1.9481 C   0  0  0  0  0  0  0  0  0  0  0  0
    3.7855   -3.1613    2.3072 N   0  0  0  0  0  0  0  0  0  0  0  0
    3.5878   -0.9224    2.8371 N   0  0  0  0  0  0  0  0  0  0  0  0
    3.2879    0.3214    2.4692 C   0  0  0  0  0  0  0  0  0  0  0  0
    2.8490    0.7473    1.2981 N   0  0  0  0  0  0  0  0  0  0  0  0
    2.7359   -0.2486    0.4234 C   0  0  0  0  0  0  0  0  0  0  0  0
   -4.4209    3.7578    0.3717 H   0  0  0  0  0  0  0  0  0  0  0  0
   -2.8276    2.0898    1.2787 H   0  0  0  0  0  0  0  0  0  0  0  0
   -4.1966    1.0606   -1.2463 H   0  0  0  0  0  0  0  0  0  0  0  0
   -3.0625    2.3951   -1.1736 H   0  0  0  0  0  0  0  0  0  0  0  0
   -3.1515   -0.8361    0.3797 H   0  0  0  0  0  0  0  0  0  0  0  0
   -2.9265   -1.3668   -1.2784 H   0  0  0  0  0  0  0  0  0  0  0  0
   -1.9653   -3.4935   -0.4253 H   0  0  0  0  0  0  0  0  0  0  0  0
   -1.0558   -0.2238   -2.3800 H   0  0  0  0  0  0  0  0  0  0  0  0
   -2.1497    1.0459   -2.8667 H   0  0  0  0  0  0  0  0  0  0  0  0
   -0.1322    1.7484   -4.1011 H   0  0  0  0  0  0  0  0  0  0  0  0
    2.1216   -1.7183   -2.3705 H   0  0  0  0  0  0  0  0  0  0  0  0
   -4.0063    4.5119    2.7553 H   0  0  0  0  0  0  0  0  0  0  0  0
   -4.9018    3.6689    4.0293 H   0  0  0  0  0  0  0  0  0  0  0  0
   -3.5963    2.8456    3.1895 H   0  0  0  0  0  0  0  0  0  0  0  0
   -7.2958    3.4549    1.3661 H   0  0  0  0  0  0  0  0  0  0  0  0
   -6.9986    3.9913    3.0190 H   0  0  0  0  0  0  0  0  0  0  0  0
   -6.3092    4.8947    1.6632 H   0  0  0  0  0  0  0  0  0  0  0  0
   -0.4528   -1.5159   -0.8366 H   0  0  0  0  0  0  0  0  0  0  0  0
   -0.7204   -0.9937    0.8095 H   0  0  0  0  0  0  0  0  0  0  0  0
   -2.4497   -4.0122    1.8228 H   0  0  0  0  0  0  0  0  0  0  0  0
   -1.7592   -2.6478    2.3611 H   0  0  0  0  0  0  0  0  0  0  0  0
    1.3808   -4.1889   -0.5529 H   0  0  0  0  0  0  0  0  0  0  0  0
   -0.7901    2.7209   -1.6187 H   0  0  0  0  0  0  0  0  0  0  0  0
    2.5486    1.8004   -1.3177 H   0  0  0  0  0  0  0  0  0  0  0  0
    1.1060   -0.0961   -3.2264 H   0  0  0  0  0  0  0  0  0  0  0  0
    2.6187    0.7510   -4.6066 H   0  0  0  0  0  0  0  0  0  0  0  0
    1.7676    3.2332   -3.8090 H   0  0  0  0  0  0  0  0  0  0  0  0
    3.4808   -3.9294    1.7343 H   0  0  0  0  0  0  0  0  0  0  0  0
    3.9335   -3.3595    3.2826 H   0  0  0  0  0  0  0  0  0  0  0  0
    3.4160    1.0779    3.2359 H   0  0  0  0  0  0  0  0  0  0  0  0
   -5.6274    2.5018    0.1241 H   0  0  0  0  0  0  0  0  0  0  0  0
   -4.0814    0.8568    1.2554 H   0  0  0  0  0  0  0  0  0  0  0  0
 29 30  2  0
 29 27  1  0
 28 27  1  0
 30 31  1  0
 27  9  2  0
 31 32  2  0
  9 32  1  0
  9 26  1  0
 32 25  1  0
 26  8  2  0
 25  8  1  0
 25 21  1  0
 21 22  1  0
 21 20  1  0
 15  5  1  0
 22 23  1  0
 22  7  1  0
 20 19  1  0
 17 16  2  0
  5 14  1  0
  5 16  1  0
  7 19  1  0
  7 24  1  0
 19  6  1  0
 14  4  1  0
 16 18  1  0
  4 13  1  0
  6 13  1  0
 13  3  1  0
  3  2  1  0
  2  1  1  0
 12 11  1  0
  1 11  1  0
 11 10  1  0
  1 33  1  0
  2 34  1  0
  3 35  1  0
  3 36  1  0
  4 37  1  0
  4 38  1  0
  5 39  1  6
  6 40  1  0
  6 41  1  0
  7 42  1  6
  8 43  1  0
 10 44  1  0
 10 45  1  0
 10 46  1  0
 12 47  1  0
 12 48  1  0
 12 49  1  0
 14 50  1  0
 14 51  1  0
 15 52  1  0
 15 53  1  0
 18 54  1  0
 19 55  1  1
 21 56  1  6
 22 57  1  1
 23 58  1  0
 24 59  1  0
 28 60  1  0
 28 61  1  0
 30 62  1  0
  1 63  1  0
  2 64  1  0
M  END
