
     RDKit          3D

 41 44  0  0  0  0  0  0  0  0999 V2000
    4.0809    1.2310    0.0577 N   0  0  0  0  0  0  0  0  0  0  0  0
    2.8476    0.6486    0.1012 C   0  0  0  0  0  0  0  0  0  0  0  0
    2.8990   -0.6530    0.0963 N   0  0  0  0  0  0  0  0  0  0  0  0
    4.2394   -0.9441    0.0453 C   0  0  0  0  0  0  0  0  0  0  0  0
    4.9078   -2.1829    0.0147 C   0  0  0  0  0  0  0  0  0  0  0  0
    6.2088   -2.2595   -0.0365 N   0  0  0  0  0  0  0  0  0  0  0  0
    6.9551   -1.1181   -0.0602 C   0  0  0  0  0  0  0  0  0  0  0  0
    6.3994    0.1899   -0.0328 C   0  0  0  0  0  0  0  0  0  0  0  0
    4.9918    0.2197    0.0211 C   0  0  0  0  0  0  0  0  0  0  0  0
    8.3595   -1.2452   -0.1152 C   0  0  0  0  0  0  0  0  0  0  0  0
    9.1642   -0.1357   -0.1426 C   0  0  0  0  0  0  0  0  0  0  0  0
    8.6027    1.1546   -0.1156 C   0  0  0  0  0  0  0  0  0  0  0  0
    7.2427    1.3176   -0.0609 C   0  0  0  0  0  0  0  0  0  0  0  0
    1.4255    1.6497    0.1502 S   0  0  0  0  0  0  0  0  0  0  0  0
    0.1775    0.3418    0.1579 C   0  0  0  0  0  0  0  0  0  0  0  0
   -1.1728    1.0084    0.1275 C   0  0  0  0  0  0  0  0  0  0  0  0
   -1.2650    2.2148    0.1202 O   0  0  0  0  0  0  0  0  0  0  0  0
   -2.3745    0.1376    0.0987 C   0  0  0  0  0  0  0  0  0  0  0  0
   -3.6267    0.7401    0.0057 C   0  0  0  0  0  0  0  0  0  0  0  0
   -4.7754   -0.0274   -0.0331 C   0  0  0  0  0  0  0  0  0  0  0  0
   -4.6809   -1.4189    0.0276 C   0  0  0  0  0  0  0  0  0  0  0  0
   -3.4392   -2.0249    0.1243 C   0  0  0  0  0  0  0  0  0  0  0  0
   -2.2931   -1.2498    0.1589 C   0  0  0  0  0  0  0  0  0  0  0  0
   -6.3456    0.8120   -0.1356 S   0  0  1  0  0  0  0  0  0  0  0  0
   -7.2191    0.2975    0.9027 O   0  0  0  0  0  0  0  0  0  0  0  0
   -6.0711   -2.4233   -0.0306 Cl  0  0  0  0  0  0  0  0  0  0  0  0
   -6.0462    2.2337   -0.1721 O   0  0  0  0  0  0  0  0  0  0  0  0
   -6.9228    0.2895   -1.5763 N   0  0  0  0  0  0  0  0  0  0  0  0
    4.3459   -3.1118    0.0329 H   0  0  0  0  0  0  0  0  0  0  0  0
    8.7830   -2.2413   -0.1360 H   0  0  0  0  0  0  0  0  0  0  0  0
   10.2394   -0.2492   -0.1848 H   0  0  0  0  0  0  0  0  0  0  0  0
    9.2502    2.0209   -0.1386 H   0  0  0  0  0  0  0  0  0  0  0  0
    6.8175    2.3135   -0.0392 H   0  0  0  0  0  0  0  0  0  0  0  0
    0.3044   -0.3092   -0.7092 H   0  0  0  0  0  0  0  0  0  0  0  0
    0.2807   -0.2786    1.0505 H   0  0  0  0  0  0  0  0  0  0  0  0
   -3.6993    1.8177   -0.0412 H   0  0  0  0  0  0  0  0  0  0  0  0
   -3.3665   -3.1022    0.1707 H   0  0  0  0  0  0  0  0  0  0  0  0
   -1.3396   -1.7548    0.2368 H   0  0  0  0  0  0  0  0  0  0  0  0
   -7.9014    0.0294   -1.5503 H   0  0  0  0  0  0  0  0  0  0  0  0
   -6.7006    0.8977   -2.3559 H   0  0  0  0  0  0  0  0  0  0  0  0
    4.2722    2.2218    0.0506 H   0  0  0  0  0  0  0  0  0  0  0  0
  2  1  1  0
  1  9  1  0
 14  2  1  0
  3  2  2  0
  3  4  1  0
  5  4  1  0
  4  9  2  0
  5  6  2  0
  5 29  1  0
  6  7  1  0
  7  8  2  0
  7 10  1  0
  9  8  1  0
  8 13  1  0
 10 11  2  0
 10 30  1  0
 11 12  1  0
 11 31  1  0
 13 12  2  0
 12 32  1  0
 13 33  1  0
 14 15  1  0
 15 16  1  0
 15 34  1  0
 15 35  1  0
 16 17  2  0
 16 18  1  0
 18 23  1  0
 18 19  2  0
 19 20  1  0
 19 36  1  0
 20 21  2  0
 20 24  1  0
 22 21  1  0
 21 26  1  0
 23 22  2  0
 22 37  1  0
 23 38  1  0
 24 28  1  6
 25 24  2  0
 24 27  2  0
 28 39  1  0
 28 40  1  0
  1 41  1  0
M  END
