
     RDKit          3D

 31 32  0  0  0  0  0  0  0  0999 V2000
   -3.5598    0.1077   -0.5133 C   0  0  0  0  0  0  0  0  0  0  0  0
   -5.0580    0.0758   -0.3889 C   0  0  0  0  0  0  0  0  0  0  0  0
   -5.6668   -0.0989    0.6373 O   0  0  0  0  0  0  0  0  0  0  0  0
   -2.8378   -0.1594    0.8030 C   0  0  0  0  0  0  0  0  0  0  0  0
   -0.6213    1.0453    0.7924 C   0  0  0  0  0  0  0  0  0  0  0  0
    0.7487    1.0793    0.5821 C   0  0  0  0  0  0  0  0  0  0  0  0
    1.4424   -0.0634    0.1821 C   0  0  0  0  0  0  0  0  0  0  0  0
   -1.3469   -0.1290    0.6127 C   0  0  0  0  0  0  0  0  0  0  0  0
    2.9027   -0.0283   -0.0347 C   0  0  0  0  0  0  0  0  0  0  0  0
    3.7068   -1.1134    0.3203 C   0  0  0  0  0  0  0  0  0  0  0  0
    5.0792   -1.0778    0.1210 C   0  0  0  0  0  0  0  0  0  0  0  0
    4.8880    1.1307   -0.7951 C   0  0  0  0  0  0  0  0  0  0  0  0
    3.5155    1.0938   -0.5962 C   0  0  0  0  0  0  0  0  0  0  0  0
    5.6764    0.0449   -0.4371 C   0  0  0  0  0  0  0  0  0  0  0  0
    0.7141   -1.2402    0.0011 C   0  0  0  0  0  0  0  0  0  0  0  0
   -0.6553   -1.2695    0.2125 C   0  0  0  0  0  0  0  0  0  0  0  0
   -3.2615   -0.6229   -1.2711 H   0  0  0  0  0  0  0  0  0  0  0  0
   -3.2722    1.0833   -0.9173 H   0  0  0  0  0  0  0  0  0  0  0  0
   -3.1312    0.5872    1.5432 H   0  0  0  0  0  0  0  0  0  0  0  0
   -3.1385   -1.1329    1.1955 H   0  0  0  0  0  0  0  0  0  0  0  0
   -1.1299    1.9460    1.1158 H   0  0  0  0  0  0  0  0  0  0  0  0
    1.2865    2.0034    0.7556 H   0  0  0  0  0  0  0  0  0  0  0  0
    3.2611   -1.9887    0.7762 H   0  0  0  0  0  0  0  0  0  0  0  0
    5.6840   -1.9271    0.4118 H   0  0  0  0  0  0  0  0  0  0  0  0
    5.3408    2.0086   -1.2372 H   0  0  0  0  0  0  0  0  0  0  0  0
    2.9137    1.9415   -0.9002 H   0  0  0  0  0  0  0  0  0  0  0  0
    6.7472    0.0734   -0.5919 H   0  0  0  0  0  0  0  0  0  0  0  0
    1.2162   -2.1424   -0.3255 H   0  0  0  0  0  0  0  0  0  0  0  0
   -1.1955   -2.1970    0.0603 H   0  0  0  0  0  0  0  0  0  0  0  0
   -5.6540    0.2677   -1.5616 O   0  0  0  0  0  0  0  0  0  0  0  0
   -6.6161    0.2426   -1.4513 H   0  0  0  0  0  0  0  0  0  0  0  0
  1  2  1  0
  1  4  1  0
  2  3  2  0
  4  8  1  0
 16  8  1  0
 16 15  2  0
  8  5  2  0
 15  7  1  0
  5  6  1  0
 13 12  2  0
 13  9  1  0
  7  6  2  0
  7  9  1  0
 12 14  1  0
  9 10  2  0
 14 11  2  0
 10 11  1  0
  1 17  1  0
  1 18  1  0
  4 19  1  0
  4 20  1  0
  5 21  1  0
  6 22  1  0
 10 23  1  0
 11 24  1  0
 12 25  1  0
 13 26  1  0
 14 27  1  0
 15 28  1  0
 16 29  1  0
  2 30  1  0
 30 31  1  0
M  END
