
     RDKit          3D

 26 27  0  0  0  0  0  0  0  0999 V2000
   -4.0352   -3.3235    0.0456 N   0  0  0  0  0  0  0  0  0  0  0  0
   -3.5890   -2.2603    0.0258 C   0  0  0  0  0  0  0  0  0  0  0  0
   -3.0489   -0.9440    0.0011 C   0  0  0  0  0  0  0  0  0  0  0  0
   -1.6732   -0.7593   -0.0061 C   0  0  0  0  0  0  0  0  0  0  0  0
   -1.1056    0.5111   -0.0297 C   0  0  0  0  0  0  0  0  0  0  0  0
   -1.9778    1.6292   -0.0486 C   0  0  0  0  0  0  0  0  0  0  0  0
   -1.5480    2.8789   -0.0728 O   0  0  0  0  0  0  0  0  0  0  0  0
   -3.3655    1.4303   -0.0402 C   0  0  0  0  0  0  0  0  0  0  0  0
   -3.9003    0.1667   -0.0158 C   0  0  0  0  0  0  0  0  0  0  0  0
    0.3605    0.6835   -0.0344 C   0  0  0  0  0  0  0  0  0  0  0  0
    0.8143    1.9395   -0.0719 N   0  0  0  0  0  0  0  0  0  0  0  0
    2.1155    2.1872   -0.0793 C   0  0  0  0  0  0  0  0  0  0  0  0
    3.0666    1.1849   -0.0487 C   0  0  0  0  0  0  0  0  0  0  0  0
    2.6171   -0.1305   -0.0078 C   0  0  0  0  0  0  0  0  0  0  0  0
    1.2566   -0.3853   -0.0005 C   0  0  0  0  0  0  0  0  0  0  0  0
    3.5514   -1.2965    0.0307 C   0  0  0  0  0  0  0  0  0  0  0  0
    3.1760   -2.4406    0.0595 O   0  0  0  0  0  0  0  0  0  0  0  0
    4.8178   -0.9272    0.0307 O   0  0  0  0  0  0  0  0  0  0  0  0
   -1.0419   -1.6363    0.0067 H   0  0  0  0  0  0  0  0  0  0  0  0
   -4.9733    0.0322   -0.0095 H   0  0  0  0  0  0  0  0  0  0  0  0
   -4.0139    2.2963   -0.0536 H   0  0  0  0  0  0  0  0  0  0  0  0
    0.9125   -1.4081    0.0338 H   0  0  0  0  0  0  0  0  0  0  0  0
    2.4082    3.2285   -0.1107 H   0  0  0  0  0  0  0  0  0  0  0  0
    4.1156    1.4400   -0.0570 H   0  0  0  0  0  0  0  0  0  0  0  0
    5.3980   -1.7035    0.0589 H   0  0  0  0  0  0  0  0  0  0  0  0
   -0.5488    2.8546   -0.0799 H   0  0  0  0  0  0  0  0  0  0  0  0
  1  2  3  0
  2  3  1  0
  3  4  2  0
  3  9  1  0
  4  5  1  0
  5  6  2  0
  5 10  1  0
  6  7  1  0
  6  8  1  0
  8  9  2  0
 10 11  2  0
 10 15  1  0
 11 12  1  0
 12 13  2  0
 13 14  1  0
 14 15  2  0
 14 16  1  0
 16 17  2  0
 16 18  1  0
  4 19  1  0
  9 20  1  0
  8 21  1  0
 15 22  1  0
 12 23  1  0
 13 24  1  0
 18 25  1  0
  7 26  1  0
M  END
