
     RDKit          3D

 62 65  0  0  0  0  0  0  0  0999 V2000
    7.4076    3.8598   -1.4776 C   0  0  0  0  0  0  0  0  0  0  0  0
   -9.6914    3.1481    0.6622 C   0  0  0  0  0  0  0  0  0  0  0  0
  -10.0498    1.9818   -0.0011 C   0  0  0  0  0  0  0  0  0  0  0  0
   -8.3891    3.3031    1.1186 C   0  0  0  0  0  0  0  0  0  0  0  0
   -6.2427   -2.2992   -0.0612 C   0  0  0  0  0  0  0  0  0  0  0  0
    7.0765    1.4458   -1.3947 C   0  0  0  0  0  0  0  0  0  0  0  0
    6.4701    2.8114    0.5149 C   0  0  0  0  0  0  0  0  0  0  0  0
   -9.1146    0.9777   -0.2039 C   0  0  0  0  0  0  0  0  0  0  0  0
   -7.4541    2.2989    0.9150 C   0  0  0  0  0  0  0  0  0  0  0  0
   -7.1770   -1.2951    0.1333 C   0  0  0  0  0  0  0  0  0  0  0  0
   -4.9200   -1.9824   -0.3322 C   0  0  0  0  0  0  0  0  0  0  0  0
    6.6656    0.3126   -0.7136 C   0  0  0  0  0  0  0  0  0  0  0  0
    6.0598    1.6794    1.1942 C   0  0  0  0  0  0  0  0  0  0  0  0
   -5.4818    0.3550   -0.2474 C   0  0  0  0  0  0  0  0  0  0  0  0
    6.9779    2.6905   -0.7782 C   0  0  0  0  0  0  0  0  0  0  0  0
   -7.8031    1.1212    0.2520 C   0  0  0  0  0  0  0  0  0  0  0  0
   -6.8091    0.0489    0.0433 C   0  0  0  0  0  0  0  0  0  0  0  0
   -4.5332   -0.6477   -0.4190 C   0  0  0  0  0  0  0  0  0  0  0  0
    6.1614    0.4412    0.5727 C   0  0  0  0  0  0  0  0  0  0  0  0
   -3.1298   -0.2403   -0.7364 C   0  0  0  0  0  0  0  0  0  0  0  0
   -0.7618   -0.8874   -0.5186 C   0  0  2  0  0  0  0  0  0  0  0  0
   -0.1434   -2.0448   -1.3081 C   0  0  2  0  0  0  0  0  0  0  0  0
    1.3600   -1.8313   -1.4416 C   0  0  1  0  0  0  0  0  0  0  0  0
    1.9731   -1.6153   -0.0615 C   0  0  1  0  0  0  0  0  0  0  0  0
   -0.0432   -0.6850    0.8153 C   0  0  2  0  0  0  0  0  0  0  0  0
    3.4461   -1.2586   -0.1494 C   0  0  0  0  0  0  0  0  0  0  0  0
    7.7550    4.8024   -2.0402 N   0  0  0  0  0  0  0  0  0  0  0  0
   -2.1740   -1.0952   -0.3188 N   0  0  0  0  0  0  0  0  0  0  0  0
    3.9697   -1.0720    1.1976 N   0  0  0  0  0  0  0  0  0  0  0  0
   -2.8921    0.8015   -1.3280 O   0  0  0  0  0  0  0  0  0  0  0  0
    6.1761   -2.1615    0.7847 O   0  0  0  0  0  0  0  0  0  0  0  0
    5.7843   -0.7824    2.8582 O   0  0  0  0  0  0  0  0  0  0  0  0
    1.3335   -0.5321    0.5900 O   0  0  0  0  0  0  0  0  0  0  0  0
   -0.6757   -2.1139   -2.6089 O   0  0  0  0  0  0  0  0  0  0  0  0
    1.9968   -2.9381   -2.0250 O   0  0  0  0  0  0  0  0  0  0  0  0
   -0.3371   -1.7681    1.6338 O   0  0  0  0  0  0  0  0  0  0  0  0
    5.5888   -1.0058    1.4376 S   0  0  1  0  0  0  0  0  0  0  0  0
  -10.4226    3.9294    0.8233 H   0  0  0  0  0  0  0  0  0  0  0  0
  -11.0599    1.8546   -0.3685 H   0  0  0  0  0  0  0  0  0  0  0  0
   -8.1003    4.2046    1.6432 H   0  0  0  0  0  0  0  0  0  0  0  0
   -6.5448   -3.3358    0.0049 H   0  0  0  0  0  0  0  0  0  0  0  0
    6.3994    3.7812    0.9869 H   0  0  0  0  0  0  0  0  0  0  0  0
   -9.4064    0.0825   -0.7391 H   0  0  0  0  0  0  0  0  0  0  0  0
   -6.4485    2.4254    1.2966 H   0  0  0  0  0  0  0  0  0  0  0  0
   -8.1986   -1.5606    0.3743 H   0  0  0  0  0  0  0  0  0  0  0  0
   -4.2105   -2.7829   -0.4983 H   0  0  0  0  0  0  0  0  0  0  0  0
    6.7532   -0.6543   -1.1888 H   0  0  0  0  0  0  0  0  0  0  0  0
    5.6739    1.7748    2.1998 H   0  0  0  0  0  0  0  0  0  0  0  0
   -5.1798    1.3896   -0.3504 H   0  0  0  0  0  0  0  0  0  0  0  0
   -0.6416    0.0284   -1.1002 H   0  0  0  0  0  0  0  0  0  0  0  0
   -0.3129   -2.9889   -0.7710 H   0  0  0  0  0  0  0  0  0  0  0  0
    1.5215   -0.9187   -2.0380 H   0  0  0  0  0  0  0  0  0  0  0  0
    1.8752   -2.5359    0.5279 H   0  0  0  0  0  0  0  0  0  0  0  0
   -0.3616    0.2596    1.2676 H   0  0  0  0  0  0  0  0  0  0  0  0
    3.9784   -2.0808   -0.6236 H   0  0  0  0  0  0  0  0  0  0  0  0
    3.5756   -0.3650   -0.7714 H   0  0  0  0  0  0  0  0  0  0  0  0
   -2.4379   -1.8525    0.2931 H   0  0  0  0  0  0  0  0  0  0  0  0
    3.4707   -0.3801    1.7478 H   0  0  0  0  0  0  0  0  0  0  0  0
   -1.5485   -2.5155   -2.5662 H   0  0  0  0  0  0  0  0  0  0  0  0
    1.6292   -3.0676   -2.9053 H   0  0  0  0  0  0  0  0  0  0  0  0
   -0.1346   -1.5457    2.5486 H   0  0  0  0  0  0  0  0  0  0  0  0
    7.4755    1.3603   -2.3956 H   0  0  0  0  0  0  0  0  0  0  0  0
  2  3  2  0
  2  4  1  0
  3  8  1  0
  4  9  2  0
  8 16  2  0
  9 16  1  0
 16 17  1  0
 17 10  1  0
 17 14  2  0
 10  5  2  0
 34 22  1  0
 14 18  1  0
 35 23  1  0
  5 11  1  0
 18 11  2  0
 18 20  1  0
 22 23  1  0
 22 21  1  0
 23 24  1  0
 27  1  3  0
 28 20  1  0
 28 21  1  0
  7 13  2  0
  7 15  1  0
 20 30  2  0
 21 25  1  0
  1 15  1  0
 13 19  1  0
 15  6  2  0
 26 24  1  0
 26 29  1  0
 24 33  1  0
 25 33  1  0
 25 36  1  0
 19 37  1  0
 19 12  2  0
 31 37  2  0
  6 12  1  0
 37 29  1  1
 37 32  2  0
  2 38  1  0
  3 39  1  0
  4 40  1  0
  5 41  1  0
  6 62  1  0
  7 42  1  0
  8 43  1  0
  9 44  1  0
 10 45  1  0
 11 46  1  0
 12 47  1  0
 13 48  1  0
 14 49  1  0
 21 50  1  6
 22 51  1  1
 23 52  1  6
 24 53  1  1
 25 54  1  1
 26 55  1  0
 26 56  1  0
 28 57  1  0
 29 58  1  0
 34 59  1  0
 35 60  1  0
 36 61  1  0
M  END
