
     RDKit          3D

 87 86  0  0  0  0  0  0  0  0999 V2000
    0.9076   -4.4608    2.2966 O   0  0  0  0  0  0  0  0  0  0  0  0
    1.8984   -2.2448    3.1822 O   0  0  0  0  0  0  0  0  0  0  0  0
    1.0481   -2.9723    2.1832 P   0  0  1  0  0  0  0  0  0  0  0  0
    1.4712   -2.5706    0.6482 O   0  0  0  0  0  0  0  0  0  0  0  0
    2.7021   -3.0602    0.1723 C   0  0  0  0  0  0  0  0  0  0  0  0
    3.0280   -2.3594   -1.1477 C   0  0  1  0  0  0  0  0  0  0  0  0
    4.4403   -2.7391   -1.5850 C   0  0  0  0  0  0  0  0  0  0  0  0
    4.6996   -3.3697   -2.5780 O   0  0  0  0  0  0  0  0  0  0  0  0
    5.3635   -2.2884   -0.7438 O   0  0  0  0  0  0  0  0  0  0  0  0
    2.0203   -2.6376   -2.1380 N   0  0  0  0  0  0  0  0  0  0  0  0
   -0.4313   -2.2762    2.0545 O   0  0  0  0  0  0  0  0  0  0  0  0
   -1.1839   -2.0723    3.2282 C   0  0  0  0  0  0  0  0  0  0  0  0
   -1.4799   -0.6046    3.4854 C   0  0  1  0  0  0  0  0  0  0  0  0
   -0.2730    0.2602    3.7734 C   0  0  0  0  0  0  0  0  0  0  0  0
    0.5171    0.3869    2.5991 O   0  0  0  0  0  0  0  0  0  0  0  0
    1.7737    0.7847    2.7390 C   0  0  0  0  0  0  0  0  0  0  0  0
    2.2295    1.1912    3.7808 O   0  0  0  0  0  0  0  0  0  0  0  0
    2.5486    0.6565    1.4597 C   0  0  0  0  0  0  0  0  0  0  0  0
    3.6823    1.6600    1.3107 C   0  0  0  0  0  0  0  0  0  0  0  0
    4.4579    1.4265    0.0209 C   0  0  0  0  0  0  0  0  0  0  0  0
    5.6031    2.4093   -0.1842 C   0  0  0  0  0  0  0  0  0  0  0  0
    6.3620    2.1695   -1.4832 C   0  0  0  0  0  0  0  0  0  0  0  0
    7.5182    3.1386   -1.6962 C   0  0  0  0  0  0  0  0  0  0  0  0
    8.2680    2.9009   -3.0008 C   0  0  0  0  0  0  0  0  0  0  0  0
    9.4211    3.8727   -3.2208 C   0  0  0  0  0  0  0  0  0  0  0  0
   10.1649    3.6220   -4.5252 C   0  0  0  0  0  0  0  0  0  0  0  0
   -2.1684   -0.0073    2.3804 O   0  0  0  0  0  0  0  0  0  0  0  0
   -3.4902   -0.1366    2.2879 C   0  0  0  0  0  0  0  0  0  0  0  0
   -4.1567   -0.7613    3.0741 O   0  0  0  0  0  0  0  0  0  0  0  0
   -4.0236    0.6024    1.0914 C   0  0  0  0  0  0  0  0  0  0  0  0
   -5.5301    0.4938    0.9203 C   0  0  0  0  0  0  0  0  0  0  0  0
   -6.0238    1.3178   -0.2621 C   0  0  0  0  0  0  0  0  0  0  0  0
   -7.5312    1.2288   -0.4638 C   0  0  0  0  0  0  0  0  0  0  0  0
   -8.0314    2.0985   -1.6102 C   0  0  0  0  0  0  0  0  0  0  0  0
   -9.5387    2.0172   -1.8185 C   0  0  0  0  0  0  0  0  0  0  0  0
  -10.0369    2.9090   -2.9489 C   0  0  0  0  0  0  0  0  0  0  0  0
  -11.5448    2.8367   -3.1570 C   0  0  0  0  0  0  0  0  0  0  0  0
  -12.0305    3.7333   -4.2876 C   0  0  0  0  0  0  0  0  0  0  0  0
    3.5049   -2.8796    0.8942 H   0  0  0  0  0  0  0  0  0  0  0  0
    2.6549   -4.1435    0.0028 H   0  0  0  0  0  0  0  0  0  0  0  0
    3.0364   -1.2795   -0.9597 H   0  0  0  0  0  0  0  0  0  0  0  0
    6.2476   -2.5470   -1.0451 H   0  0  0  0  0  0  0  0  0  0  0  0
    2.2156   -2.1233   -2.9871 H   0  0  0  0  0  0  0  0  0  0  0  0
    2.0374   -3.6180   -2.3917 H   0  0  0  0  0  0  0  0  0  0  0  0
   -0.6877   -2.4584    4.1251 H   0  0  0  0  0  0  0  0  0  0  0  0
   -2.1277   -2.6165    3.1383 H   0  0  0  0  0  0  0  0  0  0  0  0
   -2.1030   -0.5651    4.3849 H   0  0  0  0  0  0  0  0  0  0  0  0
    0.2965   -0.1983    4.5832 H   0  0  0  0  0  0  0  0  0  0  0  0
   -0.5989    1.2482    4.1095 H   0  0  0  0  0  0  0  0  0  0  0  0
    1.8715    0.7032    0.6050 H   0  0  0  0  0  0  0  0  0  0  0  0
    2.9525   -0.3603    1.4683 H   0  0  0  0  0  0  0  0  0  0  0  0
    4.3601    1.5834    2.1643 H   0  0  0  0  0  0  0  0  0  0  0  0
    3.2835    2.6789    1.3200 H   0  0  0  0  0  0  0  0  0  0  0  0
    3.7738    1.4854   -0.8332 H   0  0  0  0  0  0  0  0  0  0  0  0
    4.8563    0.4062    0.0179 H   0  0  0  0  0  0  0  0  0  0  0  0
    6.2955    2.3399    0.6617 H   0  0  0  0  0  0  0  0  0  0  0  0
    5.2124    3.4329   -0.1741 H   0  0  0  0  0  0  0  0  0  0  0  0
    5.6679    2.2443   -2.3274 H   0  0  0  0  0  0  0  0  0  0  0  0
    6.7422    1.1417   -1.4964 H   0  0  0  0  0  0  0  0  0  0  0  0
    8.2163    3.0602   -0.8556 H   0  0  0  0  0  0  0  0  0  0  0  0
    7.1377    4.1661   -1.6784 H   0  0  0  0  0  0  0  0  0  0  0  0
    7.5689    2.9756   -3.8412 H   0  0  0  0  0  0  0  0  0  0  0  0
    8.6514    1.8743   -3.0179 H   0  0  0  0  0  0  0  0  0  0  0  0
   10.1185    3.8011   -2.3806 H   0  0  0  0  0  0  0  0  0  0  0  0
    9.0363    4.8974   -3.2081 H   0  0  0  0  0  0  0  0  0  0  0  0
   10.9811    4.3314   -4.6664 H   0  0  0  0  0  0  0  0  0  0  0  0
   10.5925    2.6177   -4.5479 H   0  0  0  0  0  0  0  0  0  0  0  0
    9.4967    3.7126   -5.3840 H   0  0  0  0  0  0  0  0  0  0  0  0
   -3.7237    1.6513    1.1844 H   0  0  0  0  0  0  0  0  0  0  0  0
   -3.5069    0.2306    0.2009 H   0  0  0  0  0  0  0  0  0  0  0  0
   -5.8136   -0.5530    0.7815 H   0  0  0  0  0  0  0  0  0  0  0  0
   -6.0320    0.8321    1.8308 H   0  0  0  0  0  0  0  0  0  0  0  0
   -5.7400    2.3656   -0.1147 H   0  0  0  0  0  0  0  0  0  0  0  0
   -5.5151    0.9923   -1.1761 H   0  0  0  0  0  0  0  0  0  0  0  0
   -7.8138    0.1863   -0.6463 H   0  0  0  0  0  0  0  0  0  0  0  0
   -8.0379    1.5228    0.4621 H   0  0  0  0  0  0  0  0  0  0  0  0
   -7.7479    3.1399   -1.4217 H   0  0  0  0  0  0  0  0  0  0  0  0
   -7.5217    1.8095   -2.5362 H   0  0  0  0  0  0  0  0  0  0  0  0
   -9.8226    0.9790   -2.0230 H   0  0  0  0  0  0  0  0  0  0  0  0
  -10.0477    2.2925   -0.8879 H   0  0  0  0  0  0  0  0  0  0  0  0
   -9.7495    3.9465   -2.7448 H   0  0  0  0  0  0  0  0  0  0  0  0
   -9.5300    2.6330   -3.8805 H   0  0  0  0  0  0  0  0  0  0  0  0
  -11.8327    1.8011   -3.3629 H   0  0  0  0  0  0  0  0  0  0  0  0
  -12.0513    3.1123   -2.2267 H   0  0  0  0  0  0  0  0  0  0  0  0
  -13.1131    3.6764   -4.4079 H   0  0  0  0  0  0  0  0  0  0  0  0
  -11.7727    4.7778   -4.1021 H   0  0  0  0  0  0  0  0  0  0  0  0
  -11.5773    3.4483   -5.2390 H   0  0  0  0  0  0  0  0  0  0  0  0
  3  1  1  6
  2  3  2  0
  3  4  1  0
  3 11  1  0
  4  5  1  0
  5  6  1  0
  5 39  1  0
  5 40  1  0
  6  7  1  0
  6 10  1  0
  6 41  1  1
  7  8  2  0
  7  9  1  0
  9 42  1  0
 10 43  1  0
 10 44  1  0
 11 12  1  0
 12 13  1  0
 12 45  1  0
 12 46  1  0
 13 14  1  0
 13 27  1  0
 13 47  1  1
 14 15  1  0
 14 48  1  0
 14 49  1  0
 15 16  1  0
 16 17  2  0
 16 18  1  0
 18 19  1  0
 18 50  1  0
 18 51  1  0
 19 20  1  0
 19 52  1  0
 19 53  1  0
 20 21  1  0
 20 54  1  0
 20 55  1  0
 21 22  1  0
 21 56  1  0
 21 57  1  0
 22 23  1  0
 22 58  1  0
 22 59  1  0
 23 24  1  0
 23 60  1  0
 23 61  1  0
 24 25  1  0
 24 62  1  0
 24 63  1  0
 25 26  1  0
 25 64  1  0
 25 65  1  0
 26 66  1  0
 26 67  1  0
 26 68  1  0
 27 28  1  0
 28 29  2  0
 28 30  1  0
 30 31  1  0
 30 69  1  0
 30 70  1  0
 31 32  1  0
 31 71  1  0
 31 72  1  0
 32 33  1  0
 32 73  1  0
 32 74  1  0
 33 34  1  0
 33 75  1  0
 33 76  1  0
 34 35  1  0
 34 77  1  0
 34 78  1  0
 35 36  1  0
 35 79  1  0
 35 80  1  0
 36 37  1  0
 36 81  1  0
 36 82  1  0
 37 38  1  0
 37 83  1  0
 37 84  1  0
 38 85  1  0
 38 86  1  0
 38 87  1  0
M  CHG  1   1  -1
M  END
