
     RDKit          3D

 35 37  0  0  0  0  0  0  0  0999 V2000
   -2.3502   -0.0549   -0.0962 C   0  0  0  0  0  0  0  0  0  0  0  0
   -1.8074    0.9710   -0.8653 C   0  0  0  0  0  0  0  0  0  0  0  0
   -1.7886    2.2781   -0.3979 C   0  0  0  0  0  0  0  0  0  0  0  0
   -2.2652   -1.4836   -0.5481 C   0  0  0  0  0  0  0  0  0  0  0  0
   -0.9775   -2.1584   -0.0374 C   0  0  1  0  0  0  0  0  0  0  0  0
   -0.8895   -3.6174   -0.4478 C   0  0  0  0  0  0  0  0  0  0  0  0
    0.2022   -1.4487   -0.4848 N   0  0  0  0  0  0  0  0  0  0  0  0
    0.8072   -0.4683    0.2025 C   0  0  0  0  0  0  0  0  0  0  0  0
    2.3090    1.3617    0.4000 C   0  0  0  0  0  0  0  0  0  0  0  0
    1.1374    0.7188    2.1415 C   0  0  0  0  0  0  0  0  0  0  0  0
   -2.3272    2.5802    0.8453 C   0  0  0  0  0  0  0  0  0  0  0  0
   -2.8901    1.5683    1.6128 C   0  0  0  0  0  0  0  0  0  0  0  0
   -2.8975    0.2629    1.1441 C   0  0  0  0  0  0  0  0  0  0  0  0
   -0.8143   -3.6932   -1.8536 O   0  0  0  0  0  0  0  0  0  0  0  0
    1.7617    0.3712   -0.4020 C   0  0  0  0  0  0  0  0  0  0  0  0
    3.1622    2.0364   -0.4183 N   0  0  0  0  0  0  0  0  0  0  0  0
    3.0934    1.4410   -1.6406 C   0  0  0  0  0  0  0  0  0  0  0  0
    2.2629    0.4382   -1.6760 N   0  0  0  0  0  0  0  0  0  0  0  0
    2.0273    1.5823    1.6843 N   0  0  0  0  0  0  0  0  0  0  0  0
    0.5332   -0.2724    1.4931 N   0  0  0  0  0  0  0  0  0  0  0  0
   -1.3839    0.7424   -1.8364 H   0  0  0  0  0  0  0  0  0  0  0  0
   -1.3526    3.0613   -1.0051 H   0  0  0  0  0  0  0  0  0  0  0  0
   -3.1178   -2.0516   -0.1666 H   0  0  0  0  0  0  0  0  0  0  0  0
   -2.3032   -1.5429   -1.6383 H   0  0  0  0  0  0  0  0  0  0  0  0
   -0.9826   -2.1275    1.0525 H   0  0  0  0  0  0  0  0  0  0  0  0
   -0.0071   -4.0622    0.0272 H   0  0  0  0  0  0  0  0  0  0  0  0
   -1.7703   -4.1433   -0.0577 H   0  0  0  0  0  0  0  0  0  0  0  0
    0.4193   -1.5051   -1.4684 H   0  0  0  0  0  0  0  0  0  0  0  0
    0.8611    0.8273    3.1853 H   0  0  0  0  0  0  0  0  0  0  0  0
   -2.3153    3.5989    1.2113 H   0  0  0  0  0  0  0  0  0  0  0  0
   -3.3197    1.7973    2.5799 H   0  0  0  0  0  0  0  0  0  0  0  0
   -3.3279   -0.5234    1.7541 H   0  0  0  0  0  0  0  0  0  0  0  0
   -0.6219   -4.6020   -2.1002 H   0  0  0  0  0  0  0  0  0  0  0  0
    3.7373    2.8278   -0.1733 H   0  0  0  0  0  0  0  0  0  0  0  0
    3.6852    1.7937   -2.4713 H   0  0  0  0  0  0  0  0  0  0  0  0
 12 13  2  0
 12 11  1  0
 13  1  1  0
 11  3  2  0
  1  4  1  0
  1  2  2  0
  4  5  1  0
  3  2  1  0
 14  6  1  0
 18 17  2  0
 18 15  1  0
  7  5  1  0
  7  8  1  0
  5  6  1  0
 17 16  1  0
 15  8  2  0
 15  9  1  0
  8 20  1  0
 16  9  1  0
  9 19  2  0
 20 10  2  0
 19 10  1  0
  2 21  1  0
  3 22  1  0
  4 23  1  0
  4 24  1  0
  5 25  1  1
  6 26  1  0
  6 27  1  0
  7 28  1  0
 10 29  1  0
 11 30  1  0
 12 31  1  0
 13 32  1  0
 14 33  1  0
 16 34  1  0
 17 35  1  0
M  END
