
     RDKit          3D

 32 32  0  0  0  0  0  0  0  0999 V2000
   -0.7415    0.6797    0.7244 C   0  0  1  0  0  0  0  0  0  0  0  0
   -1.7498   -0.4447    0.9756 C   0  0  2  0  0  0  0  0  0  0  0  0
   -2.0035   -1.0175   -0.4043 C   0  0  0  0  0  0  0  0  0  0  0  0
   -1.0035   -0.5963   -1.2057 N   0  0  0  0  0  0  0  0  0  0  0  0
    0.0014    0.2215   -0.5590 C   0  0  1  0  0  0  0  0  0  0  0  0
    0.2616    1.4239   -1.4587 C   0  0  0  0  0  0  0  0  0  0  0  0
    1.3324    1.9532   -1.5978 O   0  0  0  0  0  0  0  0  0  0  0  0
   -1.3547    1.9131    0.4441 O   0  0  0  0  0  0  0  0  0  0  0  0
   -3.0109   -0.0532    1.7242 C   0  0  0  0  0  0  0  0  0  0  0  0
   -2.9236   -1.7421   -0.7320 O   0  0  0  0  0  0  0  0  0  0  0  0
    1.2738   -0.6059   -0.2606 C   0  0  1  0  0  0  0  0  0  0  0  0
    1.7839   -1.1287   -1.4645 O   0  0  0  0  0  0  0  0  0  0  0  0
    2.3214    0.1075    0.6457 C   0  0  1  0  0  0  0  0  0  0  0  0
    2.4402   -0.6310    1.9783 C   0  0  0  0  0  0  0  0  0  0  0  0
    3.7021    0.2394    0.0086 C   0  0  0  0  0  0  0  0  0  0  0  0
   -0.6229    1.7613   -2.0246 H   0  0  0  0  0  0  0  0  0  0  0  0
   -0.0443    0.7784    1.5595 H   0  0  0  0  0  0  0  0  0  0  0  0
   -1.2354   -1.2313    1.5424 H   0  0  0  0  0  0  0  0  0  0  0  0
   -0.8659   -0.9791   -2.1299 H   0  0  0  0  0  0  0  0  0  0  0  0
   -1.6214    2.3230    1.2732 H   0  0  0  0  0  0  0  0  0  0  0  0
   -3.6327   -0.9298    1.9000 H   0  0  0  0  0  0  0  0  0  0  0  0
   -2.7684    0.3747    2.6975 H   0  0  0  0  0  0  0  0  0  0  0  0
   -3.6064    0.6721    1.1708 H   0  0  0  0  0  0  0  0  0  0  0  0
    0.9232   -1.4903    0.2832 H   0  0  0  0  0  0  0  0  0  0  0  0
    2.2583   -0.4380   -1.9387 H   0  0  0  0  0  0  0  0  0  0  0  0
    1.9746    1.1211    0.8646 H   0  0  0  0  0  0  0  0  0  0  0  0
    2.8130   -1.6472    1.8294 H   0  0  0  0  0  0  0  0  0  0  0  0
    3.1280   -0.1173    2.6514 H   0  0  0  0  0  0  0  0  0  0  0  0
    1.4796   -0.7095    2.4925 H   0  0  0  0  0  0  0  0  0  0  0  0
    3.6894    0.8313   -0.9071 H   0  0  0  0  0  0  0  0  0  0  0  0
    4.3711    0.7493    0.7028 H   0  0  0  0  0  0  0  0  0  0  0  0
    4.1426   -0.7330   -0.2156 H   0  0  0  0  0  0  0  0  0  0  0  0
 12 11  1  0
 10  3  2  0
  2  9  1  0
  2  3  1  0
  2  1  1  0
 14 13  1  0
  3  4  1  0
 11 13  1  0
 11  5  1  0
 15 13  1  0
  4  5  1  0
  1  5  1  0
  1  8  1  0
  5  6  1  6
  6  7  2  0
  6 16  1  0
  1 17  1  1
  2 18  1  1
  4 19  1  0
  8 20  1  0
  9 21  1  0
  9 22  1  0
  9 23  1  0
 11 24  1  1
 12 25  1  0
 13 26  1  1
 14 27  1  0
 14 28  1  0
 14 29  1  0
 15 30  1  0
 15 31  1  0
 15 32  1  0
M  END
