
     RDKit          3D

 19 20  0  0  0  0  0  0  0  0999 V2000
    1.9051   -0.3667    0.4368 C   0  0  0  0  0  0  0  0  0  0  0  0
    1.2346   -1.2842   -0.5758 C   0  0  0  0  0  0  0  0  0  0  0  0
    1.6857    0.9461   -0.0725 O   0  0  0  0  0  0  0  0  0  0  0  0
   -1.7264    0.7837   -0.0514 C   0  0  0  0  0  0  0  0  0  0  0  0
   -0.5331    1.5079    0.1687 O   0  0  0  0  0  0  0  0  0  0  0  0
    0.4487    0.9881   -0.6985 C   0  0  2  0  0  0  0  0  0  0  0  0
    0.0243   -0.4644   -1.0218 C   0  0  2  0  0  0  0  0  0  0  0  0
   -1.2843   -0.6616   -0.2434 C   0  0  1  0  0  0  0  0  0  0  0  0
   -1.0297   -1.3134    0.9781 O   0  0  0  0  0  0  0  0  0  0  0  0
    1.4680   -0.4812    1.4332 H   0  0  0  0  0  0  0  0  0  0  0  0
    2.9814   -0.5220    0.5181 H   0  0  0  0  0  0  0  0  0  0  0  0
    1.8997   -1.4508   -1.4252 H   0  0  0  0  0  0  0  0  0  0  0  0
    0.9796   -2.2572   -0.1607 H   0  0  0  0  0  0  0  0  0  0  0  0
   -2.3957    0.9277    0.7996 H   0  0  0  0  0  0  0  0  0  0  0  0
   -2.2470    1.1366   -0.9520 H   0  0  0  0  0  0  0  0  0  0  0  0
    0.5393    1.6316   -1.5814 H   0  0  0  0  0  0  0  0  0  0  0  0
   -0.1737   -0.5872   -2.0867 H   0  0  0  0  0  0  0  0  0  0  0  0
   -2.0183   -1.2173   -0.8373 H   0  0  0  0  0  0  0  0  0  0  0  0
   -1.8646   -1.4114    1.4466 H   0  0  0  0  0  0  0  0  0  0  0  0
  1  2  1  0
  1  3  1  0
  2  7  1  0
  3  6  1  0
  4  5  1  0
  4  8  1  0
  5  6  1  0
  6  7  1  0
  7  8  1  0
  8  9  1  0
  1 10  1  0
  1 11  1  0
  2 12  1  0
  2 13  1  0
  4 14  1  0
  4 15  1  0
  6 16  1  6
  7 17  1  6
  8 18  1  6
  9 19  1  0
M  END
