
     RDKit          3D

 48 52  0  0  0  0  0  0  0  0999 V2000
   -3.2473   -2.7828   -0.1851 C   0  0  0  0  0  0  0  0  0  0  0  0
   -3.0187   -4.1306   -0.0570 C   0  0  0  0  0  0  0  0  0  0  0  0
   -1.7069   -4.6103    0.0879 C   0  0  0  0  0  0  0  0  0  0  0  0
   -0.6440   -3.7435    0.1030 C   0  0  0  0  0  0  0  0  0  0  0  0
   -0.8548   -2.3564   -0.0278 C   0  0  0  0  0  0  0  0  0  0  0  0
   -2.1723   -1.8781   -0.1731 C   0  0  0  0  0  0  0  0  0  0  0  0
   -2.3052   -0.4482   -0.2927 C   0  0  0  0  0  0  0  0  0  0  0  0
   -0.0085   -0.2520   -0.1316 C   0  0  0  0  0  0  0  0  0  0  0  0
   -1.2266    0.3178   -0.2721 N   0  0  0  0  0  0  0  0  0  0  0  0
    0.2207   -1.5279   -0.0079 N   0  0  0  0  0  0  0  0  0  0  0  0
   -3.7085    1.5657   -0.5319 C   0  0  2  0  0  0  0  0  0  0  0  0
   -3.5355    2.2603    0.8288 C   0  0  0  0  0  0  0  0  0  0  0  0
   -5.8346    2.0317    0.5656 C   0  0  0  0  0  0  0  0  0  0  0  0
   -5.1812    1.8480   -0.8285 C   0  0  0  0  0  0  0  0  0  0  0  0
   -3.4969    0.1297   -0.4265 N   0  0  0  0  0  0  0  0  0  0  0  0
   -4.7605    1.9886    1.5605 N   0  0  0  0  0  0  0  0  0  0  0  0
    1.1422    0.6740   -0.1162 C   0  0  0  0  0  0  0  0  0  0  0  0
    0.9896    2.0682   -0.2574 C   0  0  0  0  0  0  0  0  0  0  0  0
    2.1280    2.8819   -0.2379 C   0  0  0  0  0  0  0  0  0  0  0  0
    3.3827    2.3396   -0.0790 C   0  0  0  0  0  0  0  0  0  0  0  0
    3.5573    0.9573    0.0604 C   0  0  0  0  0  0  0  0  0  0  0  0
    2.4285    0.1531    0.0334 C   0  0  0  0  0  0  0  0  0  0  0  0
    4.8964    0.4003    0.2210 C   0  0  0  0  0  0  0  0  0  0  0  0
    6.1380    0.9092   -0.1138 C   0  0  0  0  0  0  0  0  0  0  0  0
    7.0473   -0.0863    0.2729 C   0  0  0  0  0  0  0  0  0  0  0  0
    5.1402   -0.8122    0.7612 N   0  0  0  0  0  0  0  0  0  0  0  0
    6.4303   -1.1261    0.8037 N   0  0  0  0  0  0  0  0  0  0  0  0
   -0.1919    2.6630   -0.4125 O   0  0  0  0  0  0  0  0  0  0  0  0
   -4.2685   -2.4406   -0.2948 H   0  0  0  0  0  0  0  0  0  0  0  0
   -3.8487   -4.8233   -0.0668 H   0  0  0  0  0  0  0  0  0  0  0  0
   -1.5359   -5.6741    0.1876 H   0  0  0  0  0  0  0  0  0  0  0  0
    0.3708   -4.1025    0.2152 H   0  0  0  0  0  0  0  0  0  0  0  0
   -4.3072   -0.4626   -0.4969 H   0  0  0  0  0  0  0  0  0  0  0  0
   -3.0541    1.9715   -1.3060 H   0  0  0  0  0  0  0  0  0  0  0  0
   -2.6610    1.9257    1.3865 H   0  0  0  0  0  0  0  0  0  0  0  0
   -3.4283    3.3363    0.6591 H   0  0  0  0  0  0  0  0  0  0  0  0
   -5.2528    2.7638   -1.4148 H   0  0  0  0  0  0  0  0  0  0  0  0
   -5.6480    1.0588   -1.4200 H   0  0  0  0  0  0  0  0  0  0  0  0
   -4.7033    1.0539    1.9442 H   0  0  0  0  0  0  0  0  0  0  0  0
   -6.3500    2.9936    0.6073 H   0  0  0  0  0  0  0  0  0  0  0  0
   -6.5761    1.2625    0.7812 H   0  0  0  0  0  0  0  0  0  0  0  0
    2.5172   -0.9228    0.1130 H   0  0  0  0  0  0  0  0  0  0  0  0
    2.0069    3.9529   -0.3403 H   0  0  0  0  0  0  0  0  0  0  0  0
   -0.8772    1.9421   -0.4077 H   0  0  0  0  0  0  0  0  0  0  0  0
    4.2395    3.0007   -0.0524 H   0  0  0  0  0  0  0  0  0  0  0  0
    6.3535    1.8532   -0.5858 H   0  0  0  0  0  0  0  0  0  0  0  0
    4.4663   -1.4540    1.1478 H   0  0  0  0  0  0  0  0  0  0  0  0
    8.1227   -0.0813    0.1778 H   0  0  0  0  0  0  0  0  0  0  0  0
  1  2  2  0
  1  6  1  0
  2  3  1  0
  3  4  2  0
  4  5  1  0
  5  6  2  0
  5 10  1  0
  6  7  1  0
  7  9  2  0
  7 15  1  0
  8  9  1  0
  8 10  2  0
  8 17  1  0
 11 12  1  0
 11 14  1  0
 11 15  1  0
 12 16  1  0
 13 14  1  0
 13 16  1  0
 17 18  2  0
 17 22  1  0
 18 19  1  0
 18 28  1  0
 19 20  2  0
 20 21  1  0
 21 22  2  0
 21 23  1  0
 23 24  2  0
 23 26  1  0
 24 25  1  0
 25 27  2  0
 26 27  1  0
  1 29  1  0
  2 30  1  0
  3 31  1  0
  4 32  1  0
 15 33  1  0
 11 34  1  6
 12 35  1  0
 12 36  1  0
 14 37  1  0
 14 38  1  0
 16 39  1  0
 13 40  1  0
 13 41  1  0
 22 42  1  0
 19 43  1  0
 28 44  1  0
 20 45  1  0
 24 46  1  0
 26 47  1  0
 25 48  1  0
M  END
