
     RDKit          3D

 80 83  0  0  0  0  0  0  0  0999 V2000
    2.3408   -2.1695   -2.6065 C   0  0  0  0  0  0  0  0  0  0  0  0
    1.3283   -2.2445   -1.4708 C   0  0  1  0  0  0  0  0  0  0  0  0
   -0.0602   -1.8009   -1.9145 C   0  0  0  0  0  0  0  0  0  0  0  0
    1.2634   -3.6699   -0.9349 C   0  0  0  0  0  0  0  0  0  0  0  0
    1.9604   -0.1609   -0.3524 C   0  0  0  0  0  0  0  0  0  0  0  0
    2.6512    1.6566    1.1855 C   0  0  2  0  0  0  0  0  0  0  0  0
    1.4905    2.6266    0.9599 C   0  0  0  0  0  0  0  0  0  0  0  0
   -1.1027    1.6134    0.5565 C   0  0  2  0  0  0  0  0  0  0  0  0
   -1.6979    2.7944   -0.2259 C   0  0  0  0  0  0  0  0  0  0  0  0
   -2.5390    2.3212   -1.3790 C   0  0  0  0  0  0  0  0  0  0  0  0
   -3.9271    2.3976   -1.3370 C   0  0  0  0  0  0  0  0  0  0  0  0
   -4.6984    1.9025   -2.3809 C   0  0  0  0  0  0  0  0  0  0  0  0
   -4.0877    1.3160   -3.4805 C   0  0  0  0  0  0  0  0  0  0  0  0
   -2.7012    1.2348   -3.5338 C   0  0  0  0  0  0  0  0  0  0  0  0
   -1.9344    1.7366   -2.4920 C   0  0  0  0  0  0  0  0  0  0  0  0
   -2.2022    0.8074    1.2248 C   0  0  0  0  0  0  0  0  0  0  0  0
   -3.7103   -1.1105    0.9684 C   0  0  0  0  0  0  0  0  0  0  0  0
   -5.0709   -0.5820    0.5059 C   0  0  0  0  0  0  0  0  0  0  0  0
   -6.1726   -1.5076    0.9266 C   0  0  0  0  0  0  0  0  0  0  0  0
   -6.8395   -1.3336    2.1363 C   0  0  0  0  0  0  0  0  0  0  0  0
   -8.1360   -3.1770    1.8298 C   0  0  0  0  0  0  0  0  0  0  0  0
   -7.5421   -3.4499    0.6066 C   0  0  0  0  0  0  0  0  0  0  0  0
   -6.5449   -2.6014    0.1528 C   0  0  0  0  0  0  0  0  0  0  0  0
    3.9276    2.1861    0.5100 C   0  0  0  0  0  0  0  0  0  0  0  0
    5.1497    1.4045    0.9138 C   0  0  0  0  0  0  0  0  0  0  0  0
    5.7534    0.4174    0.0810 C   0  0  0  0  0  0  0  0  0  0  0  0
    5.2926    0.1199   -1.2260 C   0  0  0  0  0  0  0  0  0  0  0  0
    5.9044   -0.8312   -1.9966 C   0  0  0  0  0  0  0  0  0  0  0  0
    7.0176   -1.5436   -1.5078 C   0  0  0  0  0  0  0  0  0  0  0  0
    7.4947   -1.2795   -0.2546 C   0  0  0  0  0  0  0  0  0  0  0  0
    6.8848   -0.3001    0.5659 C   0  0  0  0  0  0  0  0  0  0  0  0
    7.3887   -0.0271    1.8575 C   0  0  0  0  0  0  0  0  0  0  0  0
    6.7998    0.9277    2.6375 C   0  0  0  0  0  0  0  0  0  0  0  0
    5.6854    1.6389    2.1574 C   0  0  0  0  0  0  0  0  0  0  0  0
    2.3552    0.2798    0.8570 N   0  0  0  0  0  0  0  0  0  0  0  0
   -2.6059   -0.2784    0.5481 N   0  0  0  0  0  0  0  0  0  0  0  0
   -7.7950   -2.1386    2.5839 N   0  0  0  0  0  0  0  0  0  0  0  0
    1.7742   -1.4809   -0.3193 O   0  0  0  0  0  0  0  0  0  0  0  0
    1.7915    0.5509   -1.3260 O   0  0  0  0  0  0  0  0  0  0  0  0
   -2.6700    1.1486    2.2999 O   0  0  0  0  0  0  0  0  0  0  0  0
   -0.0009    2.1748    1.8924 S   0  0  0  0  0  0  0  0  0  0  0  0
    3.3398   -2.4289   -2.2530 H   0  0  0  0  0  0  0  0  0  0  0  0
    2.0662   -2.8892   -3.3788 H   0  0  0  0  0  0  0  0  0  0  0  0
    2.3808   -1.1854   -3.0673 H   0  0  0  0  0  0  0  0  0  0  0  0
   -0.4339   -2.4856   -2.6761 H   0  0  0  0  0  0  0  0  0  0  0  0
   -0.7575   -1.8375   -1.0753 H   0  0  0  0  0  0  0  0  0  0  0  0
   -0.0635   -0.7997   -2.3396 H   0  0  0  0  0  0  0  0  0  0  0  0
    2.2428   -4.0121   -0.5977 H   0  0  0  0  0  0  0  0  0  0  0  0
    0.5627   -3.7522   -0.1022 H   0  0  0  0  0  0  0  0  0  0  0  0
    0.9255   -4.3434   -1.7224 H   0  0  0  0  0  0  0  0  0  0  0  0
    2.8427    1.6424    2.2604 H   0  0  0  0  0  0  0  0  0  0  0  0
    1.7991    3.6118    1.3114 H   0  0  0  0  0  0  0  0  0  0  0  0
    1.2448    2.7311   -0.0965 H   0  0  0  0  0  0  0  0  0  0  0  0
   -0.5279    0.9886   -0.1292 H   0  0  0  0  0  0  0  0  0  0  0  0
   -2.2815    3.4177    0.4539 H   0  0  0  0  0  0  0  0  0  0  0  0
   -0.8720    3.4066   -0.5951 H   0  0  0  0  0  0  0  0  0  0  0  0
   -4.4113    2.8453   -0.4772 H   0  0  0  0  0  0  0  0  0  0  0  0
   -5.7775    1.9709   -2.3310 H   0  0  0  0  0  0  0  0  0  0  0  0
   -4.6861    0.9256   -4.2935 H   0  0  0  0  0  0  0  0  0  0  0  0
   -2.2165    0.7831   -4.3896 H   0  0  0  0  0  0  0  0  0  0  0  0
   -0.8521    1.6730   -2.5441 H   0  0  0  0  0  0  0  0  0  0  0  0
   -3.6898   -1.1983    2.0545 H   0  0  0  0  0  0  0  0  0  0  0  0
   -3.5427   -2.1096    0.5642 H   0  0  0  0  0  0  0  0  0  0  0  0
   -5.2347    0.4152    0.9199 H   0  0  0  0  0  0  0  0  0  0  0  0
   -5.0651   -0.4774   -0.5813 H   0  0  0  0  0  0  0  0  0  0  0  0
   -6.5852   -0.4899    2.7719 H   0  0  0  0  0  0  0  0  0  0  0  0
   -8.9202   -3.8200    2.2141 H   0  0  0  0  0  0  0  0  0  0  0  0
   -7.8592   -4.3047    0.0250 H   0  0  0  0  0  0  0  0  0  0  0  0
   -6.0642   -2.7837   -0.8013 H   0  0  0  0  0  0  0  0  0  0  0  0
    3.7903    2.2225   -0.5694 H   0  0  0  0  0  0  0  0  0  0  0  0
    4.0581    3.2228    0.8297 H   0  0  0  0  0  0  0  0  0  0  0  0
    4.4433    0.6492   -1.6329 H   0  0  0  0  0  0  0  0  0  0  0  0
    5.5316   -1.0366   -2.9916 H   0  0  0  0  0  0  0  0  0  0  0  0
    7.4925   -2.2931   -2.1272 H   0  0  0  0  0  0  0  0  0  0  0  0
    8.3537   -1.8175    0.1288 H   0  0  0  0  0  0  0  0  0  0  0  0
    8.2489   -0.5801    2.2153 H   0  0  0  0  0  0  0  0  0  0  0  0
    7.1861    1.1444    3.6249 H   0  0  0  0  0  0  0  0  0  0  0  0
    5.2377    2.3961    2.7914 H   0  0  0  0  0  0  0  0  0  0  0  0
    2.4277   -0.3947    1.6000 H   0  0  0  0  0  0  0  0  0  0  0  0
   -2.2546   -0.4173   -0.3860 H   0  0  0  0  0  0  0  0  0  0  0  0
 29 28  1  0
 29 30  2  0
 28 27  2  0
  4  2  1  0
 30 31  1  0
 27 26  1  0
  1  2  1  0
 21 22  2  0
 21 37  1  0
  2 38  1  1
  2  3  1  0
 22 23  1  0
 31 26  2  0
 31 32  1  0
 26 25  1  0
 38  5  1  0
 37 20  2  0
 32 33  2  0
 23 19  2  0
 25 24  1  0
 25 34  2  0
 24  6  1  0
  5 35  1  0
  5 39  2  0
 35  6  1  0
 20 19  1  0
  6  7  1  0
 19 18  1  0
 33 34  1  0
 18 17  1  0
  7 41  1  0
 36 17  1  0
 36 16  1  0
  8  9  1  0
  8 16  1  0
  8 41  1  0
 15 14  2  0
 15 10  1  0
  9 10  1  0
 16 40  2  0
 14 13  1  0
 10 11  2  0
 13 12  2  0
 11 12  1  0
  1 42  1  0
  1 43  1  0
  1 44  1  0
  3 45  1  0
  3 46  1  0
  3 47  1  0
  4 48  1  0
  4 49  1  0
  4 50  1  0
  6 51  1  1
  7 52  1  0
  7 53  1  0
  8 54  1  6
  9 55  1  0
  9 56  1  0
 11 57  1  0
 12 58  1  0
 13 59  1  0
 14 60  1  0
 15 61  1  0
 17 62  1  0
 17 63  1  0
 18 64  1  0
 18 65  1  0
 20 66  1  0
 21 67  1  0
 22 68  1  0
 23 69  1  0
 24 70  1  0
 24 71  1  0
 27 72  1  0
 28 73  1  0
 29 74  1  0
 30 75  1  0
 32 76  1  0
 33 77  1  0
 34 78  1  0
 35 79  1  0
 36 80  1  0
M  END
