
     RDKit          3D

 33 35  0  0  0  0  0  0  0  0999 V2000
    3.9038   -0.1702   -1.3965 C   0  0  0  0  0  0  0  0  0  0  0  0
    2.5452    0.1197    0.5405 N   0  0  0  0  0  0  0  0  0  0  0  0
   -0.3051    2.1201    1.5678 O   0  0  0  0  0  0  0  0  0  0  0  0
    2.5419    0.3438   -0.9072 C   0  0  0  0  0  0  0  0  0  0  0  0
   -0.3210    0.2245    0.5030 N   0  0  0  0  0  0  0  0  0  0  0  0
    4.0171   -2.2506   -0.1082 O   0  0  0  0  0  0  0  0  0  0  0  0
    1.8804    1.1187    1.3204 C   0  0  0  0  0  0  0  0  0  0  0  0
   -1.6143    1.8780    1.2563 N   0  0  0  0  0  0  0  0  0  0  0  0
    0.4080    1.1052    1.0967 C   0  0  0  0  0  0  0  0  0  0  0  0
   -1.5795    0.7442    0.6221 C   0  0  0  0  0  0  0  0  0  0  0  0
   -2.7703    0.0898    0.0819 C   0  0  0  0  0  0  0  0  0  0  0  0
   -4.0365    0.6469    0.2653 C   0  0  0  0  0  0  0  0  0  0  0  0
   -5.1544    0.0167   -0.2550 C   0  0  0  0  0  0  0  0  0  0  0  0
   -5.0211   -1.1728   -0.9624 C   0  0  0  0  0  0  0  0  0  0  0  0
   -3.7630   -1.7292   -1.1475 C   0  0  0  0  0  0  0  0  0  0  0  0
   -2.6401   -1.1022   -0.6276 C   0  0  0  0  0  0  0  0  0  0  0  0
    3.9155   -0.1302    0.9570 C   0  0  0  0  0  0  0  0  0  0  0  0
    4.4882   -0.9226   -0.2002 C   0  0  2  0  0  0  0  0  0  0  0  0
    3.8315   -0.7938   -2.2890 H   0  0  0  0  0  0  0  0  0  0  0  0
    4.5574    0.6676   -1.6453 H   0  0  0  0  0  0  0  0  0  0  0  0
    2.4231    1.4069   -1.1541 H   0  0  0  0  0  0  0  0  0  0  0  0
    1.7069   -0.1848   -1.3697 H   0  0  0  0  0  0  0  0  0  0  0  0
    4.3167   -2.7256   -0.8892 H   0  0  0  0  0  0  0  0  0  0  0  0
    2.0526    0.9219    2.3840 H   0  0  0  0  0  0  0  0  0  0  0  0
    2.2495    2.1420    1.1352 H   0  0  0  0  0  0  0  0  0  0  0  0
   -4.1502    1.5714    0.8163 H   0  0  0  0  0  0  0  0  0  0  0  0
   -6.1329    0.4541   -0.1080 H   0  0  0  0  0  0  0  0  0  0  0  0
   -5.8969   -1.6633   -1.3666 H   0  0  0  0  0  0  0  0  0  0  0  0
   -3.6530   -2.6535   -1.6990 H   0  0  0  0  0  0  0  0  0  0  0  0
   -1.6610   -1.5383   -0.7744 H   0  0  0  0  0  0  0  0  0  0  0  0
    4.5019    0.7938    1.0796 H   0  0  0  0  0  0  0  0  0  0  0  0
    3.9483   -0.6711    1.9063 H   0  0  0  0  0  0  0  0  0  0  0  0
    5.5841   -0.8914   -0.2007 H   0  0  0  0  0  0  0  0  0  0  0  0
  1  4  1  0
  1 18  1  0
  2  4  1  0
  2  7  1  0
  2 17  1  0
  3  8  1  0
  3  9  1  0
  5  9  2  0
  5 10  1  0
  6 18  1  0
  7  9  1  0
  8 10  2  0
 10 11  1  0
 11 12  2  0
 11 16  1  0
 12 13  1  0
 13 14  2  0
 14 15  1  0
 15 16  2  0
 17 18  1  0
  1 19  1  0
  1 20  1  0
  4 21  1  0
  4 22  1  0
  6 23  1  0
  7 24  1  0
  7 25  1  0
 12 26  1  0
 13 27  1  0
 14 28  1  0
 15 29  1  0
 16 30  1  0
 17 31  1  0
 17 32  1  0
 18 33  1  6
M  END
