
     RDKit          3D

 43 44  0  0  0  0  0  0  0  0999 V2000
   -4.4016    0.5729   -0.3688 C   0  0  2  0  0  0  0  0  0  0  0  0
   -4.8436   -0.6948    0.3797 C   0  0  0  0  0  0  0  0  0  0  0  0
   -3.9170   -1.8696    0.0782 C   0  0  1  0  0  0  0  0  0  0  0  0
   -2.4714   -1.5362    0.4431 C   0  0  1  0  0  0  0  0  0  0  0  0
   -2.0451   -0.2952   -0.3308 C   0  0  2  0  0  0  0  0  0  0  0  0
    1.5816    0.0619   -0.0242 C   0  0  0  0  0  0  0  0  0  0  0  0
    2.7590   -0.4131   -0.4534 C   0  0  0  0  0  0  0  0  0  0  0  0
    4.0808    0.0270   -0.0384 C   0  0  0  0  0  0  0  0  0  0  0  0
    4.2931    1.0925    0.8378 C   0  0  0  0  0  0  0  0  0  0  0  0
    5.5762    1.4622    1.1983 C   0  0  0  0  0  0  0  0  0  0  0  0
    6.6793    0.7809    0.6984 C   0  0  0  0  0  0  0  0  0  0  0  0
   -4.4729    0.4039   -1.7606 O   0  0  0  0  0  0  0  0  0  0  0  0
   -4.2652   -3.0131    0.8276 O   0  0  0  0  0  0  0  0  0  0  0  0
   -2.3223   -1.2737    1.8157 O   0  0  0  0  0  0  0  0  0  0  0  0
   -0.7219    0.0996    0.0411 O   0  0  0  0  0  0  0  0  0  0  0  0
    0.2257   -1.3538   -1.3809 O   0  0  0  0  0  0  0  0  0  0  0  0
    7.9102    1.1684    1.0717 O   0  0  0  0  0  0  0  0  0  0  0  0
   -2.9430    0.8985   -0.0366 C   0  0  0  0  0  0  0  0  0  0  0  0
   -5.2817    1.7290    0.1155 C   0  0  0  0  0  0  0  0  0  0  0  0
   -6.1061    2.1778   -0.8143 O   0  0  0  0  0  0  0  0  0  0  0  0
    5.1959   -0.6525   -0.5438 C   0  0  0  0  0  0  0  0  0  0  0  0
    6.4800   -0.2903   -0.1843 C   0  0  0  0  0  0  0  0  0  0  0  0
   -4.8485   -0.5029    1.4538 H   0  0  0  0  0  0  0  0  0  0  0  0
   -5.8709   -0.9502    0.0956 H   0  0  0  0  0  0  0  0  0  0  0  0
   -3.9494   -2.0900   -0.9966 H   0  0  0  0  0  0  0  0  0  0  0  0
   -1.8413   -2.3838    0.1369 H   0  0  0  0  0  0  0  0  0  0  0  0
   -2.0749   -0.5279   -1.3976 H   0  0  0  0  0  0  0  0  0  0  0  0
    1.5140    0.8518    0.7133 H   0  0  0  0  0  0  0  0  0  0  0  0
    2.7457   -1.2155   -1.1849 H   0  0  0  0  0  0  0  0  0  0  0  0
    3.4586    1.6486    1.2437 H   0  0  0  0  0  0  0  0  0  0  0  0
    5.7343    2.2907    1.8770 H   0  0  0  0  0  0  0  0  0  0  0  0
   -5.3336    0.0451   -2.0035 H   0  0  0  0  0  0  0  0  0  0  0  0
   -5.1978   -3.2059    0.6882 H   0  0  0  0  0  0  0  0  0  0  0  0
   -2.6951   -2.0171    2.3018 H   0  0  0  0  0  0  0  0  0  0  0  0
    8.5821    0.6016    0.6737 H   0  0  0  0  0  0  0  0  0  0  0  0
    7.3794   -1.6520   -1.1993 H   0  0  0  0  0  0  0  0  0  0  0  0
   -2.6168    1.7568   -0.6300 H   0  0  0  0  0  0  0  0  0  0  0  0
   -2.8634    1.1791    1.0135 H   0  0  0  0  0  0  0  0  0  0  0  0
   -6.6602    2.8836   -0.4471 H   0  0  0  0  0  0  0  0  0  0  0  0
    5.0515   -1.4803   -1.2303 H   0  0  0  0  0  0  0  0  0  0  0  0
    0.3230   -0.4880   -0.5408 C   0  0  0  0  0  0  0  0  0  0  0  0
   -5.2417    2.1620    1.2402 O   0  0  0  0  0  0  0  0  0  0  0  0
    7.5970   -0.9039   -0.6323 O   0  0  0  0  0  0  0  0  0  0  0  0
 13  3  1  0
  3  2  1  0
  3  4  1  0
  2  1  1  0
 14  4  1  0
  4  5  1  0
 42 19  2  0
  1 12  1  6
  1 19  1  0
  1 18  1  0
 19 20  1  0
  5 18  1  0
  5 15  1  0
 15 41  1  0
 41 16  2  0
 41  6  1  0
  6  7  2  0
  7  8  1  0
  9  8  2  0
  9 10  1  0
  8 21  1  0
 10 11  2  0
 21 22  2  0
 11 22  1  0
 11 17  1  0
 22 43  1  0
  2 23  1  0
  2 24  1  0
  3 25  1  6
  4 26  1  6
  5 27  1  6
  6 28  1  0
  7 29  1  0
  9 30  1  0
 10 31  1  0
 12 32  1  0
 13 33  1  0
 14 34  1  0
 17 35  1  0
 43 36  1  0
 18 37  1  0
 18 38  1  0
 20 39  1  0
 21 40  1  0
M  END
