
     RDKit          3D

 78 83  0  0  0  0  0  0  0  0999 V2000
   -5.0729   -1.3341   -0.9400 C   0  0  1  0  0  0  0  0  0  0  0  0
   -4.7091   -1.2063   -2.4298 C   0  0  0  0  0  0  0  0  0  0  0  0
   -4.4697   -2.6490   -2.8615 C   0  0  0  0  0  0  0  0  0  0  0  0
   -4.4141   -2.6505   -0.4429 C   0  0  0  0  0  0  0  0  0  0  0  0
   -2.5034   -0.3418   -0.4574 N   0  0  0  0  0  0  0  0  0  0  0  0
   -1.2905    0.1929   -0.3082 C   0  0  0  0  0  0  0  0  0  0  0  0
    1.0899   -0.4731   -0.7125 C   0  0  0  0  0  0  0  0  0  0  0  0
    3.1727    0.6342   -0.1935 C   0  0  0  0  0  0  0  0  0  0  0  0
    1.8354   -1.5376   -1.2745 C   0  0  0  0  0  0  0  0  0  0  0  0
    7.4733    0.4559    0.1760 C   0  0  1  0  0  0  0  0  0  0  0  0
    9.4711    1.7237   -0.6417 C   0  0  0  0  0  0  0  0  0  0  0  0
   -7.3350   -1.5024    1.4522 C   0  0  0  0  0  0  0  0  0  0  0  0
   -5.7568    0.4187    0.8319 C   0  0  1  0  0  0  0  0  0  0  0  0
   -4.8043   -0.1282   -0.1618 N   0  0  0  0  0  0  0  0  0  0  0  0
   -3.7267   -3.2556   -1.6711 C   0  0  0  0  0  0  0  0  0  0  0  0
   -3.5482    0.3720   -0.0826 C   0  0  0  0  0  0  0  0  0  0  0  0
    1.7838    0.6100   -0.1851 C   0  0  0  0  0  0  0  0  0  0  0  0
    3.9018   -0.4135   -0.7333 C   0  0  0  0  0  0  0  0  0  0  0  0
    3.2143   -1.4948   -1.2912 C   0  0  0  0  0  0  0  0  0  0  0  0
    1.0970   -2.5507   -1.7693 O   0  0  0  0  0  0  0  0  0  0  0  0
    5.3931   -0.4368   -0.7861 C   0  0  0  0  0  0  0  0  0  0  0  0
    5.9858   -1.1150   -1.6183 O   0  0  0  0  0  0  0  0  0  0  0  0
    6.0326    0.3039    0.1337 N   0  0  0  0  0  0  0  0  0  0  0  0
    7.9668    1.5459   -0.7723 C   0  0  0  0  0  0  0  0  0  0  0  0
    9.8448    2.0369    0.7250 N   0  0  0  0  0  0  0  0  0  0  0  0
   11.2605    2.3022    0.8365 C   0  0  0  0  0  0  0  0  0  0  0  0
    9.4315    0.9864    1.6353 C   0  0  0  0  0  0  0  0  0  0  0  0
    7.9258    0.7748    1.5952 C   0  0  0  0  0  0  0  0  0  0  0  0
   -1.0150    1.3821    0.2113 N   0  0  0  0  0  0  0  0  0  0  0  0
   -2.0641    2.1288    0.5439 C   0  0  0  0  0  0  0  0  0  0  0  0
   -3.3534    1.6908    0.3933 C   0  0  0  0  0  0  0  0  0  0  0  0
   -4.4946    2.4795    0.5728 N   0  0  0  0  0  0  0  0  0  0  0  0
   -4.6554    3.8292    0.4996 C   0  0  0  0  0  0  0  0  0  0  0  0
   -5.9079    4.1576    0.5860 N   0  0  0  0  0  0  0  0  0  0  0  0
   -6.5913    2.9745    0.7044 C   0  0  0  0  0  0  0  0  0  0  0  0
   -8.0027    2.9816    0.8113 C   0  0  0  0  0  0  0  0  0  0  0  0
   -9.1515    3.0230    0.9020 N   0  0  0  0  0  0  0  0  0  0  0  0
   -5.7205    1.9088    0.6943 C   0  0  0  0  0  0  0  0  0  0  0  0
   -6.1499   -1.4666   -0.9068 H   0  0  0  0  0  0  0  0  0  0  0  0
   -5.5035   -0.7116   -2.9903 H   0  0  0  0  0  0  0  0  0  0  0  0
   -3.7982   -0.6245   -2.5680 H   0  0  0  0  0  0  0  0  0  0  0  0
   -5.4244   -3.1614   -3.0129 H   0  0  0  0  0  0  0  0  0  0  0  0
   -3.9114   -2.7207   -3.7959 H   0  0  0  0  0  0  0  0  0  0  0  0
   -3.7190   -2.4828    0.3773 H   0  0  0  0  0  0  0  0  0  0  0  0
   -5.1889   -3.3235   -0.0699 H   0  0  0  0  0  0  0  0  0  0  0  0
    3.6616    1.5105    0.2120 H   0  0  0  0  0  0  0  0  0  0  0  0
    2.3468   -3.3733   -3.2187 H   0  0  0  0  0  0  0  0  0  0  0  0
    2.4050   -4.1651   -1.6267 H   0  0  0  0  0  0  0  0  0  0  0  0
    0.9753   -4.3501   -2.6613 H   0  0  0  0  0  0  0  0  0  0  0  0
    7.9207   -0.4966   -0.1234 H   0  0  0  0  0  0  0  0  0  0  0  0
    9.8036    2.5374   -1.2908 H   0  0  0  0  0  0  0  0  0  0  0  0
   -6.7796   -2.3002    0.9637 H   0  0  0  0  0  0  0  0  0  0  0  0
   -7.0032   -1.4574    2.4901 H   0  0  0  0  0  0  0  0  0  0  0  0
   -8.3852   -1.7920    1.4530 H   0  0  0  0  0  0  0  0  0  0  0  0
   -5.3642    0.1910    1.8340 H   0  0  0  0  0  0  0  0  0  0  0  0
   -3.7452   -4.3461   -1.6688 H   0  0  0  0  0  0  0  0  0  0  0  0
   -2.6798   -2.9471   -1.7020 H   0  0  0  0  0  0  0  0  0  0  0  0
    1.2401    1.4408    0.2322 H   0  0  0  0  0  0  0  0  0  0  0  0
    3.7810   -2.3042   -1.7304 H   0  0  0  0  0  0  0  0  0  0  0  0
    5.4964    0.7985    0.8285 H   0  0  0  0  0  0  0  0  0  0  0  0
    7.7132    1.2950   -1.8041 H   0  0  0  0  0  0  0  0  0  0  0  0
    7.4660    2.4871   -0.5279 H   0  0  0  0  0  0  0  0  0  0  0  0
   11.5392    3.1313    0.1839 H   0  0  0  0  0  0  0  0  0  0  0  0
   11.5106    2.5834    1.8606 H   0  0  0  0  0  0  0  0  0  0  0  0
   11.8883    1.4390    0.5635 H   0  0  0  0  0  0  0  0  0  0  0  0
    9.9346    0.0303    1.4012 H   0  0  0  0  0  0  0  0  0  0  0  0
    9.7352    1.2588    2.6488 H   0  0  0  0  0  0  0  0  0  0  0  0
    7.4199    1.6800    1.9474 H   0  0  0  0  0  0  0  0  0  0  0  0
    7.6550   -0.0371    2.2736 H   0  0  0  0  0  0  0  0  0  0  0  0
   -1.8519    3.1201    0.9303 H   0  0  0  0  0  0  0  0  0  0  0  0
   -3.8282    4.5086    0.3701 H   0  0  0  0  0  0  0  0  0  0  0  0
   -0.2855   -0.6192   -0.7394 N   0  0  0  0  0  0  0  0  0  0  0  0
   -7.1744   -0.1414    0.7859 C   0  0  0  0  0  0  0  0  0  0  0  0
    9.9823    0.8104   -0.9974 H   0  0  0  0  0  0  0  0  0  0  0  0
    1.7550   -3.6618   -2.3466 C   0  0  0  0  0  0  0  0  0  0  0  0
   -7.5636   -0.1363   -0.2340 H   0  0  0  0  0  0  0  0  0  0  0  0
   -7.8000    0.5514    1.3489 H   0  0  0  0  0  0  0  0  0  0  0  0
   -0.6199   -1.4876   -1.1292 H   0  0  0  0  0  0  0  0  0  0  0  0
 75 20  1  0
 20  9  1  0
 22 21  2  0
 19  9  2  0
 19 18  1  0
  9  7  1  0
 21 18  1  0
 21 23  1  0
 18  8  2  0
  7 72  1  0
  7 17  2  0
 72  6  1  0
 29  6  1  0
 29 30  2  0
  8 17  1  0
 10 23  1  0
 10 24  1  0
 10 28  1  0
  6  5  2  0
 24 11  1  0
 11 25  1  0
 30 31  1  0
 28 27  1  0
 27 25  1  0
  5 16  1  0
 26 25  1  0
 31 16  2  0
 31 32  1  0
 16 14  1  0
 33 32  1  0
 33 34  2  0
 32 38  1  0
 14  1  1  0
 14 13  1  0
  1  4  1  0
  1  2  1  0
 34 35  1  0
 38 13  1  0
 38 35  2  0
  4 15  1  0
  2  3  1  0
  3 15  1  0
 13 73  1  0
 35 36  1  0
 12 73  1  0
 36 37  3  0
  1 39  1  6
  2 40  1  0
  2 41  1  0
  3 42  1  0
  3 43  1  0
  4 44  1  0
  4 45  1  0
  8 46  1  0
 75 47  1  0
 75 48  1  0
 75 49  1  0
 10 50  1  6
 11 74  1  0
 11 51  1  0
 12 52  1  0
 12 53  1  0
 12 54  1  0
 73 76  1  0
 73 77  1  0
 13 55  1  1
 15 56  1  0
 15 57  1  0
 72 78  1  0
 17 58  1  0
 19 59  1  0
 23 60  1  0
 24 61  1  0
 24 62  1  0
 26 63  1  0
 26 64  1  0
 26 65  1  0
 27 66  1  0
 27 67  1  0
 28 68  1  0
 28 69  1  0
 30 70  1  0
 33 71  1  0
M  END
