
     RDKit          3D

 23 23  0  0  0  0  0  0  0  0999 V2000
   -2.1440   -3.6509   -4.6716 C   0  0  0  0  0  0  0  0  0  0  0  0
   -2.8463   -3.7241   -5.7980 O   0  0  0  0  0  0  0  0  0  0  0  0
   -2.1827   -4.5027   -3.8183 O   0  0  0  0  0  0  0  0  0  0  0  0
   -1.2838   -2.4164   -4.6268 C   0  0  0  0  0  0  0  0  0  0  0  0
   -0.7715   -2.0600   -3.2382 C   0  0  2  0  0  0  0  0  0  0  0  0
   -1.9181   -1.6100   -2.3197 C   0  0  0  0  0  0  0  0  0  0  0  0
   -1.4160   -1.1819   -0.9636 C   0  0  0  0  0  0  0  0  0  0  0  0
   -0.3084   -0.1627   -0.9959 C   0  0  0  0  0  0  0  0  0  0  0  0
    0.8194   -0.6048   -1.9334 C   0  0  0  0  0  0  0  0  0  0  0  0
    0.2947   -0.9704   -3.3156 C   0  0  0  0  0  0  0  0  0  0  0  0
   -1.8744   -1.6225    0.0680 O   0  0  0  0  0  0  0  0  0  0  0  0
   -0.1237   -0.0803   -3.7994 H   0  0  0  0  0  0  0  0  0  0  0  0
    1.1214   -1.3085   -3.9457 H   0  0  0  0  0  0  0  0  0  0  0  0
    1.5591    0.1936   -2.0077 H   0  0  0  0  0  0  0  0  0  0  0  0
    1.3346   -1.4662   -1.4987 H   0  0  0  0  0  0  0  0  0  0  0  0
   -0.3109   -2.9530   -2.8023 H   0  0  0  0  0  0  0  0  0  0  0  0
   -0.7347    0.7753   -1.3706 H   0  0  0  0  0  0  0  0  0  0  0  0
    0.0601    0.0253    0.0132 H   0  0  0  0  0  0  0  0  0  0  0  0
   -2.6717   -2.3888   -2.1991 H   0  0  0  0  0  0  0  0  0  0  0  0
   -2.4097   -0.7411   -2.7757 H   0  0  0  0  0  0  0  0  0  0  0  0
   -1.8245   -1.5757   -5.0699 H   0  0  0  0  0  0  0  0  0  0  0  0
   -0.4352   -2.6069   -5.2948 H   0  0  0  0  0  0  0  0  0  0  0  0
   -3.3566   -4.5480   -5.8152 H   0  0  0  0  0  0  0  0  0  0  0  0
  1  4  1  0
  1  2  1  0
  1  3  2  0
  2 23  1  0
  4  5  1  0
  4 21  1  0
  4 22  1  0
  5 10  1  0
  5  6  1  0
  5 16  1  1
  6  7  1  0
  6 19  1  0
  6 20  1  0
  7  8  1  0
  7 11  2  0
  8  9  1  0
  8 17  1  0
  8 18  1  0
  9 10  1  0
  9 14  1  0
  9 15  1  0
 10 12  1  0
 10 13  1  0
M  END
