
     RDKit          3D

 84 86  0  0  0  0  0  0  0  0999 V2000
  -12.7583    3.4744    1.4274 C   0  0  0  0  0  0  0  0  0  0  0  0
  -11.9053    2.5407    0.5796 C   0  0  0  0  0  0  0  0  0  0  0  0
  -10.4132    2.6859    0.8534 C   0  0  0  0  0  0  0  0  0  0  0  0
   -9.5509    1.7572    0.0072 C   0  0  0  0  0  0  0  0  0  0  0  0
   -8.0593    1.9069    0.2799 C   0  0  0  0  0  0  0  0  0  0  0  0
   -7.1959    0.9857   -0.5738 C   0  0  0  0  0  0  0  0  0  0  0  0
   -5.7051    1.1645   -0.3173 C   0  0  0  0  0  0  0  0  0  0  0  0
   -4.8534    0.2529   -1.1934 C   0  0  0  0  0  0  0  0  0  0  0  0
   -3.4322    0.4642   -1.0175 N   0  0  0  0  0  0  0  0  0  0  0  0
   -2.7100   -0.1371   -0.0647 C   0  0  0  0  0  0  0  0  0  0  0  0
   -3.1727   -0.9653    0.7047 O   0  0  0  0  0  0  0  0  0  0  0  0
   -1.2531    0.3235    0.0845 C   0  0  1  0  0  0  0  0  0  0  0  0
   -0.4209   -0.8007    0.4238 N   0  0  0  0  0  0  0  0  0  0  0  0
   -0.3068   -1.8845   -0.3615 C   0  0  0  0  0  0  0  0  0  0  0  0
   -0.9779   -2.0258   -1.3756 O   0  0  0  0  0  0  0  0  0  0  0  0
    0.6939   -2.9191    0.1067 C   0  0  2  0  0  0  0  0  0  0  0  0
    1.5866   -3.3859   -1.0416 C   0  0  0  0  0  0  0  0  0  0  0  0
    2.5889   -4.4279   -0.5601 C   0  0  0  0  0  0  0  0  0  0  0  0
    1.9068   -5.6257    0.0981 C   0  0  1  0  0  0  0  0  0  0  0  0
    2.9468   -6.6317    0.5791 C   0  0  0  0  0  0  0  0  0  0  0  0
    2.3411   -7.8411    1.1186 N   0  0  0  0  0  0  0  0  0  0  0  0
    0.9820   -5.1579    1.2212 C   0  0  0  0  0  0  0  0  0  0  0  0
   -0.0227   -4.1148    0.7412 C   0  0  0  0  0  0  0  0  0  0  0  0
   -0.6725    1.1477   -1.0805 C   0  0  0  0  0  0  0  0  0  0  0  0
    0.7760    1.4686   -0.8476 C   0  0  0  0  0  0  0  0  0  0  0  0
    1.1566    2.5124   -0.0042 C   0  0  0  0  0  0  0  0  0  0  0  0
    2.4875    2.7706    0.2673 C   0  0  0  0  0  0  0  0  0  0  0  0
    1.7817    0.6995   -1.4153 C   0  0  0  0  0  0  0  0  0  0  0  0
    3.1268    0.9419   -1.1581 C   0  0  0  0  0  0  0  0  0  0  0  0
    3.4848    1.9810   -0.3059 C   0  0  0  0  0  0  0  0  0  0  0  0
    4.7572    2.3013    0.0167 O   0  0  0  0  0  0  0  0  0  0  0  0
    5.8034    1.5147   -0.4981 C   0  0  0  0  0  0  0  0  0  0  0  0
    7.1064    1.9951    0.0683 C   0  0  0  0  0  0  0  0  0  0  0  0
    7.1953    2.7478    1.2322 C   0  0  0  0  0  0  0  0  0  0  0  0
    8.4511    3.1134    1.6964 C   0  0  0  0  0  0  0  0  0  0  0  0
    9.5875    2.7844    1.0954 N   0  0  0  0  0  0  0  0  0  0  0  0
    9.4973    2.0621   -0.0163 C   0  0  0  0  0  0  0  0  0  0  0  0
    8.2950    1.6490   -0.5654 C   0  0  0  0  0  0  0  0  0  0  0  0
  -13.8217    3.3432    1.2231 H   0  0  0  0  0  0  0  0  0  0  0  0
  -12.6031    3.2939    2.4928 H   0  0  0  0  0  0  0  0  0  0  0  0
  -12.5124    4.5199    1.2324 H   0  0  0  0  0  0  0  0  0  0  0  0
  -12.2070    1.5042    0.7606 H   0  0  0  0  0  0  0  0  0  0  0  0
  -12.0982    2.7314   -0.4807 H   0  0  0  0  0  0  0  0  0  0  0  0
  -10.1117    3.7240    0.6733 H   0  0  0  0  0  0  0  0  0  0  0  0
  -10.2202    2.4938    1.9147 H   0  0  0  0  0  0  0  0  0  0  0  0
   -9.8512    0.7190    0.1881 H   0  0  0  0  0  0  0  0  0  0  0  0
   -9.7455    1.9493   -1.0537 H   0  0  0  0  0  0  0  0  0  0  0  0
   -7.7614    2.9462    0.1022 H   0  0  0  0  0  0  0  0  0  0  0  0
   -7.8619    1.7106    1.3393 H   0  0  0  0  0  0  0  0  0  0  0  0
   -7.4790   -0.0556   -0.3852 H   0  0  0  0  0  0  0  0  0  0  0  0
   -7.4066    1.1723   -1.6325 H   0  0  0  0  0  0  0  0  0  0  0  0
   -5.4229    2.2051   -0.5056 H   0  0  0  0  0  0  0  0  0  0  0  0
   -5.4826    0.9633    0.7346 H   0  0  0  0  0  0  0  0  0  0  0  0
   -5.0846   -0.7933   -0.9897 H   0  0  0  0  0  0  0  0  0  0  0  0
   -5.0802    0.4302   -2.2458 H   0  0  0  0  0  0  0  0  0  0  0  0
   -2.9988    1.1529   -1.6084 H   0  0  0  0  0  0  0  0  0  0  0  0
   -1.2573    0.9689    0.9682 H   0  0  0  0  0  0  0  0  0  0  0  0
    0.1937   -0.7087    1.2145 H   0  0  0  0  0  0  0  0  0  0  0  0
    1.3333   -2.4677    0.8748 H   0  0  0  0  0  0  0  0  0  0  0  0
    0.9653   -3.8132   -1.8334 H   0  0  0  0  0  0  0  0  0  0  0  0
    2.1151   -2.5354   -1.4808 H   0  0  0  0  0  0  0  0  0  0  0  0
    3.1974   -4.7664   -1.4034 H   0  0  0  0  0  0  0  0  0  0  0  0
    3.2790   -3.9625    0.1536 H   0  0  0  0  0  0  0  0  0  0  0  0
    1.2878   -6.1229   -0.6607 H   0  0  0  0  0  0  0  0  0  0  0  0
    3.5651   -6.9204   -0.2757 H   0  0  0  0  0  0  0  0  0  0  0  0
    3.6212   -6.1261    1.2882 H   0  0  0  0  0  0  0  0  0  0  0  0
    3.0640   -8.5291    1.2861 H   0  0  0  0  0  0  0  0  0  0  0  0
    1.9414   -7.6490    2.0281 H   0  0  0  0  0  0  0  0  0  0  0  0
    0.4396   -6.0060    1.6461 H   0  0  0  0  0  0  0  0  0  0  0  0
    1.5843   -4.7318    2.0327 H   0  0  0  0  0  0  0  0  0  0  0  0
   -0.6417   -3.7811    1.5779 H   0  0  0  0  0  0  0  0  0  0  0  0
   -0.6975   -4.5659    0.0069 H   0  0  0  0  0  0  0  0  0  0  0  0
   -0.7858    0.6033   -2.0190 H   0  0  0  0  0  0  0  0  0  0  0  0
   -1.2360    2.0802   -1.1676 H   0  0  0  0  0  0  0  0  0  0  0  0
    0.3995    3.1392    0.4536 H   0  0  0  0  0  0  0  0  0  0  0  0
    2.7630    3.5879    0.9225 H   0  0  0  0  0  0  0  0  0  0  0  0
    1.5218   -0.1141   -2.0824 H   0  0  0  0  0  0  0  0  0  0  0  0
    3.8681    0.3133   -1.6326 H   0  0  0  0  0  0  0  0  0  0  0  0
    5.6690    0.4590   -0.2304 H   0  0  0  0  0  0  0  0  0  0  0  0
    5.8361    1.5666   -1.5925 H   0  0  0  0  0  0  0  0  0  0  0  0
    6.3166    3.0547    1.7815 H   0  0  0  0  0  0  0  0  0  0  0  0
    8.5354    3.7025    2.6030 H   0  0  0  0  0  0  0  0  0  0  0  0
   10.4305    1.8010   -0.5029 H   0  0  0  0  0  0  0  0  0  0  0  0
    8.2929    1.0677   -1.4790 H   0  0  0  0  0  0  0  0  0  0  0  0
 22 23  1  0
 22 19  1  0
 21 20  1  0
 20 19  1  0
 23 16  1  0
 16 14  1  0
 16 17  1  0
 19 18  1  0
 24 25  1  0
 24 12  1  0
 18 17  1  0
 26 25  2  0
 26 27  1  0
 13 14  1  0
 13 12  1  0
 25 28  1  0
 14 15  2  0
 27 30  2  0
 12 10  1  0
 28 29  2  0
 30 29  1  0
 30 31  1  0
 31 32  1  0
 38 37  2  0
 38 33  1  0
 10 11  2  0
 10  9  1  0
 37 36  1  0
 32 33  1  0
 33 34  2  0
  9  8  1  0
 36 35  2  0
 34 35  1  0
  8  7  1  0
  7  6  1  0
  4  5  1  0
  4  3  1  0
  6  5  1  0
  2  3  1  0
  2  1  1  0
  1 39  1  0
  1 40  1  0
  1 41  1  0
  2 42  1  0
  2 43  1  0
  3 44  1  0
  3 45  1  0
  4 46  1  0
  4 47  1  0
  5 48  1  0
  5 49  1  0
  6 50  1  0
  6 51  1  0
  7 52  1  0
  7 53  1  0
  8 54  1  0
  8 55  1  0
  9 56  1  0
 12 57  1  1
 13 58  1  0
 16 59  1  1
 17 60  1  0
 17 61  1  0
 18 62  1  0
 18 63  1  0
 19 64  1  6
 20 65  1  0
 20 66  1  0
 21 67  1  0
 21 68  1  0
 22 69  1  0
 22 70  1  0
 23 71  1  0
 23 72  1  0
 24 73  1  0
 24 74  1  0
 26 75  1  0
 27 76  1  0
 28 77  1  0
 29 78  1  0
 32 79  1  0
 32 80  1  0
 34 81  1  0
 35 82  1  0
 37 83  1  0
 38 84  1  0
M  END
