
     RDKit          3D

 32 33  0  0  0  0  0  0  0  0999 V2000
    0.9768    0.1653    0.2825 N   0  0  0  0  0  0  0  0  0  0  0  0
    3.1045   -0.9218    0.1404 C   0  0  0  0  0  0  0  0  0  0  0  0
    2.4878   -2.1949   -0.0763 C   0  0  0  0  0  0  0  0  0  0  0  0
    0.3977   -0.9803    0.0820 C   0  0  0  0  0  0  0  0  0  0  0  0
   -1.9355   -0.1315    0.1377 C   0  0  0  0  0  0  0  0  0  0  0  0
   -1.7226    1.2398    0.2817 C   0  0  0  0  0  0  0  0  0  0  0  0
   -4.1053    1.6498    0.2949 C   0  0  0  0  0  0  0  0  0  0  0  0
   -3.2622   -0.5653    0.0767 C   0  0  0  0  0  0  0  0  0  0  0  0
   -4.3376    0.2877    0.1510 C   0  0  0  0  0  0  0  0  0  0  0  0
   -2.8012    2.1122    0.3582 C   0  0  0  0  0  0  0  0  0  0  0  0
   -0.9494   -1.1119    0.0407 N   0  0  0  0  0  0  0  0  0  0  0  0
    1.0978   -2.1302   -0.0964 N   0  0  0  0  0  0  0  0  0  0  0  0
    3.0499   -3.2685   -0.2407 O   0  0  0  0  0  0  0  0  0  0  0  0
    2.3339    0.1901    0.3039 C   0  0  0  0  0  0  0  0  0  0  0  0
    2.9395    1.5447    0.5003 C   0  0  0  0  0  0  0  0  0  0  0  0
    2.6432    2.4892   -0.6664 C   0  0  0  0  0  0  0  0  0  0  0  0
    3.2399    3.8712   -0.4458 C   0  0  0  0  0  0  0  0  0  0  0  0
    4.1833   -0.8641    0.1646 H   0  0  0  0  0  0  0  0  0  0  0  0
   -0.7151    1.6172    0.3351 H   0  0  0  0  0  0  0  0  0  0  0  0
   -4.9390    2.3353    0.3555 H   0  0  0  0  0  0  0  0  0  0  0  0
   -5.3418   -0.1118    0.0954 H   0  0  0  0  0  0  0  0  0  0  0  0
   -2.6072    3.1708    0.4677 H   0  0  0  0  0  0  0  0  0  0  0  0
   -1.2948   -2.0503   -0.0933 H   0  0  0  0  0  0  0  0  0  0  0  0
    0.6084   -2.9999   -0.2690 H   0  0  0  0  0  0  0  0  0  0  0  0
    2.5368    1.9765    1.4218 H   0  0  0  0  0  0  0  0  0  0  0  0
    4.0188    1.4494    0.6343 H   0  0  0  0  0  0  0  0  0  0  0  0
    3.0401    2.0571   -1.5891 H   0  0  0  0  0  0  0  0  0  0  0  0
    1.5623    2.5690   -0.8011 H   0  0  0  0  0  0  0  0  0  0  0  0
    2.8329    4.3389    0.4527 H   0  0  0  0  0  0  0  0  0  0  0  0
    4.3238    3.8215   -0.3290 H   0  0  0  0  0  0  0  0  0  0  0  0
    3.0277    4.5313   -1.2870 H   0  0  0  0  0  0  0  0  0  0  0  0
   -3.4822   -1.8873   -0.0657 F   0  0  0  0  0  0  0  0  0  0  0  0
 17 16  1  0
 16 15  1  0
 15 14  1  0
  2 14  2  0
  2  3  1  0
 13  3  2  0
 14  1  1  0
  3 12  1  0
  1  4  2  0
 12  4  1  0
  4 11  1  0
 11  5  1  0
  6  5  2  0
  6 10  1  0
  5  8  1  0
 10  7  2  0
  8 32  1  0
  8  9  2  0
  7  9  1  0
  2 18  1  0
  6 19  1  0
  7 20  1  0
  9 21  1  0
 10 22  1  0
 11 23  1  0
 12 24  1  0
 15 25  1  0
 15 26  1  0
 16 27  1  0
 16 28  1  0
 17 29  1  0
 17 30  1  0
 17 31  1  0
M  END
