
     RDKit          3D

 33 35  0  0  0  0  0  0  0  0999 V2000
    1.4028    1.6321   -0.1965 N   0  0  0  0  0  0  0  0  0  0  0  0
    0.8728    0.3842   -0.0494 C   0  0  0  0  0  0  0  0  0  0  0  0
    1.5939   -0.6718    0.0711 N   0  0  0  0  0  0  0  0  0  0  0  0
    2.9592   -0.5389    0.0498 C   0  0  0  0  0  0  0  0  0  0  0  0
    3.5843    0.7116   -0.0793 C   0  0  0  0  0  0  0  0  0  0  0  0
    2.7542    1.9020   -0.2142 C   0  0  0  0  0  0  0  0  0  0  0  0
    3.1649    3.0406   -0.3446 O   0  0  0  0  0  0  0  0  0  0  0  0
   -5.3263   -0.2037    1.2372 F   0  0  0  0  0  0  0  0  0  0  0  0
   -5.2780   -1.3071   -0.6094 F   0  0  0  0  0  0  0  0  0  0  0  0
   -5.4562    0.8373   -0.6375 F   0  0  0  0  0  0  0  0  0  0  0  0
   -1.1726   -0.9481   -0.4233 C   0  0  0  0  0  0  0  0  0  0  0  0
   -1.4248    1.3095    0.3592 C   0  0  0  0  0  0  0  0  0  0  0  0
   -2.5481   -1.1026   -0.4307 C   0  0  0  0  0  0  0  0  0  0  0  0
   -2.7998    1.1559    0.3601 C   0  0  0  0  0  0  0  0  0  0  0  0
    3.7427   -1.7067    0.1669 C   0  0  0  0  0  0  0  0  0  0  0  0
    4.9772    0.8156   -0.0961 C   0  0  0  0  0  0  0  0  0  0  0  0
   -0.5980    0.2599   -0.0370 C   0  0  0  0  0  0  0  0  0  0  0  0
   -3.3648   -0.0487   -0.0417 C   0  0  0  0  0  0  0  0  0  0  0  0
   -4.8557   -0.1873   -0.0183 C   0  0  1  0  0  0  0  0  0  0  0  0
    5.1178   -1.5723    0.1447 C   0  0  0  0  0  0  0  0  0  0  0  0
    5.7385   -0.3252    0.0151 C   0  0  0  0  0  0  0  0  0  0  0  0
    0.7881    2.4224   -0.3448 H   0  0  0  0  0  0  0  0  0  0  0  0
    5.4445    1.7856   -0.1997 H   0  0  0  0  0  0  0  0  0  0  0  0
   -0.5398   -1.7695   -0.7292 H   0  0  0  0  0  0  0  0  0  0  0  0
   -2.9648   -2.0476   -0.7494 H   0  0  0  0  0  0  0  0  0  0  0  0
   -1.0163    2.2518    0.6996 H   0  0  0  0  0  0  0  0  0  0  0  0
   -3.4175    1.9846    0.6804 H   0  0  0  0  0  0  0  0  0  0  0  0
    2.4054   -3.2515   -0.5092 H   0  0  0  0  0  0  0  0  0  0  0  0
    3.8320   -3.8389    0.3497 H   0  0  0  0  0  0  0  0  0  0  0  0
    2.4967   -3.0962    1.2314 H   0  0  0  0  0  0  0  0  0  0  0  0
    5.7340   -2.4590    0.2312 H   0  0  0  0  0  0  0  0  0  0  0  0
    6.8183   -0.2631    0.0027 H   0  0  0  0  0  0  0  0  0  0  0  0
    3.0875   -3.0452    0.3159 C   0  0  0  0  0  0  0  0  0  0  0  0
  1  2  1  0
  1  6  1  0
  2  3  2  0
  2 17  1  0
  3  4  1  0
  4  5  2  0
  4 15  1  0
  5  6  1  0
  5 16  1  0
  6  7  2  0
 19  8  1  1
  9 19  1  0
 10 19  1  0
 11 13  2  0
 11 17  1  0
 12 14  1  0
 12 17  2  0
 13 18  1  0
 14 18  2  0
 33 15  1  0
 15 20  2  0
 16 21  2  0
 18 19  1  0
 20 21  1  0
  1 22  1  0
 16 23  1  0
 11 24  1  0
 13 25  1  0
 12 26  1  0
 14 27  1  0
 33 28  1  0
 33 29  1  0
 33 30  1  0
 20 31  1  0
 21 32  1  0
M  END
