
     RDKit          3D

 12 12  0  0  0  0  0  0  0  0999 V2000
    2.3872   -1.4687    0.0079 O   0  0  0  0  0  0  0  0  0  0  0  0
    1.5802   -0.5608    0.0093 C   0  0  0  0  0  0  0  0  0  0  0  0
    1.8845    0.8500    0.0101 C   0  0  0  0  0  0  0  0  0  0  0  0
    0.8782    1.7403    0.0108 C   0  0  0  0  0  0  0  0  0  0  0  0
   -0.4245    1.3456    0.0113 N   0  0  0  0  0  0  0  0  0  0  0  0
   -0.8084    0.0493    0.0103 C   0  0  0  0  0  0  0  0  0  0  0  0
   -2.4040   -0.4100    0.0088 S   0  0  0  0  0  0  0  0  0  0  0  0
    0.2125   -0.8395    0.0102 N   0  0  0  0  0  0  0  0  0  0  0  0
    2.9138    1.1729    0.0095 H   0  0  0  0  0  0  0  0  0  0  0  0
    1.0364    2.8084    0.0110 H   0  0  0  0  0  0  0  0  0  0  0  0
   -0.0515   -1.8174    0.0092 H   0  0  0  0  0  0  0  0  0  0  0  0
   -1.1545    2.0426    0.0099 H   0  0  0  0  0  0  0  0  0  0  0  0
  7  6  2  0
  8  6  1  0
  8  2  1  0
  6  5  1  0
  1  2  2  0
  2  3  1  0
  5  4  1  0
  3  4  2  0
  3  9  1  0
  4 10  1  0
  8 11  1  0
  5 12  1  0
M  END
