
     RDKit          3D

 32 34  0  0  0  0  0  0  0  0999 V2000
   -3.4808    0.3527    0.0457 N   0  0  0  0  0  0  0  0  0  0  0  0
   -2.6791    1.4267   -0.1288 C   0  0  0  0  0  0  0  0  0  0  0  0
   -1.3658    1.3916   -0.3584 N   0  0  0  0  0  0  0  0  0  0  0  0
   -0.8784    0.1670   -0.3992 C   0  0  0  0  0  0  0  0  0  0  0  0
   -1.5960   -1.0232   -0.2372 C   0  0  0  0  0  0  0  0  0  0  0  0
   -2.9473   -0.8364   -0.0093 C   0  0  0  0  0  0  0  0  0  0  0  0
   -0.7712   -2.1091   -0.3596 N   0  0  0  0  0  0  0  0  0  0  0  0
    0.3994   -1.5968   -0.5868 C   0  0  0  0  0  0  0  0  0  0  0  0
    0.4073   -0.2227   -0.6113 N   0  0  0  0  0  0  0  0  0  0  0  0
    1.5300    0.6697   -0.9051 C   0  0  1  0  0  0  0  0  0  0  0  0
   -3.9802   -2.1978    0.2093 Cl  0  0  0  0  0  0  0  0  0  0  0  0
    1.9028    1.5159    0.3094 C   0  0  2  0  0  0  0  0  0  0  0  0
    2.5449    2.6670   -0.1643 O   0  0  0  0  0  0  0  0  0  0  0  0
   -3.2696    2.6303   -0.0318 N   0  0  0  0  0  0  0  0  0  0  0  0
    2.8927    0.5843    1.0163 C   0  0  2  0  0  0  0  0  0  0  0  0
    3.8108    1.2520    1.8349 O   0  0  0  0  0  0  0  0  0  0  0  0
    3.6123   -0.0665   -0.1616 C   0  0  2  0  0  0  0  0  0  0  0  0
    2.6484   -0.0980   -1.2177 O   0  0  0  0  0  0  0  0  0  0  0  0
    4.1177   -1.4536    0.1506 C   0  0  0  0  0  0  0  0  0  0  0  0
    4.7696   -1.9706   -0.9819 O   0  0  0  0  0  0  0  0  0  0  0  0
    1.2964   -2.1709   -0.7544 H   0  0  0  0  0  0  0  0  0  0  0  0
    1.2424    1.2876   -1.7601 H   0  0  0  0  0  0  0  0  0  0  0  0
    1.0344    1.7597    0.9322 H   0  0  0  0  0  0  0  0  0  0  0  0
    3.1877    2.9392    0.5024 H   0  0  0  0  0  0  0  0  0  0  0  0
   -4.2729    2.6856   -0.0413 H   0  0  0  0  0  0  0  0  0  0  0  0
   -2.7593    3.4484   -0.3154 H   0  0  0  0  0  0  0  0  0  0  0  0
    2.3309   -0.1744    1.5774 H   0  0  0  0  0  0  0  0  0  0  0  0
    3.4116    1.3921    2.6996 H   0  0  0  0  0  0  0  0  0  0  0  0
    4.4553    0.5616   -0.4751 H   0  0  0  0  0  0  0  0  0  0  0  0
    4.7929   -1.3657    1.0118 H   0  0  0  0  0  0  0  0  0  0  0  0
    3.2796   -2.0889    0.4699 H   0  0  0  0  0  0  0  0  0  0  0  0
    5.1153   -2.8397   -0.7596 H   0  0  0  0  0  0  0  0  0  0  0  0
  2  1  2  0
  1  6  1  0
  3  2  1  0
 14  2  1  0
  3  4  2  0
  9  4  1  0
  4  5  1  0
  5  7  1  0
  5  6  2  0
  6 11  1  0
  8  7  2  0
  9  8  1  0
  8 21  1  0
 10  9  1  0
 12 10  1  0
 10 18  1  0
 10 22  1  6
 13 12  1  0
 15 12  1  0
 12 23  1  1
 13 24  1  0
 14 25  1  0
 14 26  1  0
 16 15  1  0
 15 17  1  0
 15 27  1  1
 16 28  1  0
 17 18  1  0
 17 19  1  0
 17 29  1  6
 19 20  1  0
 19 30  1  0
 19 31  1  0
 20 32  1  0
M  END
