
     RDKit          3D

 39 39  0  0  0  0  0  0  0  0999 V2000
   -2.2185    0.4707    0.0938 C   0  0  0  0  0  0  0  0  0  0  0  0
   -3.3807    0.6934   -0.6560 C   0  0  0  0  0  0  0  0  0  0  0  0
   -4.2178    1.7805   -0.3457 C   0  0  0  0  0  0  0  0  0  0  0  0
   -3.8799    2.6326    0.6862 C   0  0  0  0  0  0  0  0  0  0  0  0
   -2.7142    2.4222    1.4215 C   0  0  0  0  0  0  0  0  0  0  0  0
   -1.8928    1.3556    1.1313 C   0  0  0  0  0  0  0  0  0  0  0  0
   -1.3834   -0.6966   -0.2703 C   0  0  0  0  0  0  0  0  0  0  0  0
   -1.6395   -1.3703   -1.2793 O   0  0  0  0  0  0  0  0  0  0  0  0
   -0.3483   -1.0062    0.5165 N   0  0  0  0  0  0  0  0  0  0  0  0
   -3.7685   -0.0795   -1.6751 O   0  0  0  0  0  0  0  0  0  0  0  0
   -5.3448    2.0016   -1.0496 O   0  0  0  0  0  0  0  0  0  0  0  0
    0.5285   -2.1130    0.2343 C   0  0  2  0  0  0  0  0  0  0  0  0
    1.1779   -2.5580    1.5349 C   0  0  0  0  0  0  0  0  0  0  0  0
    1.5812   -1.7567   -0.8081 C   0  0  0  0  0  0  0  0  0  0  0  0
    2.3649   -0.7130   -0.2361 O   0  0  0  0  0  0  0  0  0  0  0  0
    1.9427   -3.6149    1.3464 O   0  0  0  0  0  0  0  0  0  0  0  0
    1.0120   -2.0116    2.5938 O   0  0  0  0  0  0  0  0  0  0  0  0
    3.2856   -0.1267   -0.9943 C   0  0  0  0  0  0  0  0  0  0  0  0
    3.5319   -0.4674   -2.1216 O   0  0  0  0  0  0  0  0  0  0  0  0
    3.9642    1.0258   -0.2620 C   0  0  1  0  0  0  0  0  0  0  0  0
    5.1781    1.4768   -0.8925 N   0  0  0  0  0  0  0  0  0  0  0  0
    2.9590    2.1715   -0.1251 C   0  0  0  0  0  0  0  0  0  0  0  0
    3.5278    3.1681    0.6832 O   0  0  0  0  0  0  0  0  0  0  0  0
   -4.5281    3.4693    0.9154 H   0  0  0  0  0  0  0  0  0  0  0  0
   -2.4556    3.1045    2.2191 H   0  0  0  0  0  0  0  0  0  0  0  0
   -0.9901    1.2313    1.7145 H   0  0  0  0  0  0  0  0  0  0  0  0
   -0.1862   -0.4958    1.3698 H   0  0  0  0  0  0  0  0  0  0  0  0
   -3.0566   -0.7579   -1.8009 H   0  0  0  0  0  0  0  0  0  0  0  0
   -5.4456    1.3363   -1.7415 H   0  0  0  0  0  0  0  0  0  0  0  0
   -0.0491   -2.9547   -0.1598 H   0  0  0  0  0  0  0  0  0  0  0  0
    2.1982   -2.6235   -1.0501 H   0  0  0  0  0  0  0  0  0  0  0  0
    1.0931   -1.4203   -1.7237 H   0  0  0  0  0  0  0  0  0  0  0  0
    2.3668   -3.8814    2.1766 H   0  0  0  0  0  0  0  0  0  0  0  0
    4.2051    0.6713    0.7459 H   0  0  0  0  0  0  0  0  0  0  0  0
    5.8685    0.7373   -0.8938 H   0  0  0  0  0  0  0  0  0  0  0  0
    5.0080    1.7109   -1.8632 H   0  0  0  0  0  0  0  0  0  0  0  0
    2.7145    2.5487   -1.1283 H   0  0  0  0  0  0  0  0  0  0  0  0
    2.0281    1.7873    0.3068 H   0  0  0  0  0  0  0  0  0  0  0  0
    2.8702    3.8588    0.8054 H   0  0  0  0  0  0  0  0  0  0  0  0
  7  1  1  0
  1  2  2  0
  1  6  1  0
 10  2  1  0
  2  3  1  0
  3 11  1  0
  3  4  2  0
  5  4  1  0
  4 24  1  0
  6  5  2  0
  5 25  1  0
  6 26  1  0
  9  7  1  0
  8  7  2  0
 12  9  1  0
  9 27  1  0
 10 28  1  0
 11 29  1  0
 13 12  1  0
 12 14  1  0
 12 30  1  6
 17 13  2  0
 13 16  1  0
 14 15  1  0
 14 31  1  0
 14 32  1  0
 15 18  1  0
 16 33  1  0
 20 18  1  0
 18 19  2  0
 22 20  1  0
 20 21  1  0
 20 34  1  1
 21 35  1  0
 21 36  1  0
 23 22  1  0
 22 37  1  0
 22 38  1  0
 23 39  1  0
M  END
