
     RDKit          3D

 54 55  0  0  0  0  0  0  0  0999 V2000
   -1.1431    0.3819    0.1863 P   0  0  2  0  0  0  0  0  0  0  0  0
   -3.9047    0.8512    0.1695 C   0  0  0  0  0  0  0  0  0  0  0  0
   -2.5857    1.3896    0.7260 C   0  0  2  0  0  0  0  0  0  0  0  0
   -4.2834   -0.5657    0.6051 C   0  0  0  0  0  0  0  0  0  0  0  0
   -5.6960   -0.8906    0.2041 C   0  0  0  0  0  0  0  0  0  0  0  0
   -2.4351    2.7792    0.3231 N   0  0  0  0  0  0  0  0  0  0  0  0
    0.3522    1.2695    0.7158 C   0  0  0  0  0  0  0  0  0  0  0  0
   -1.1452    0.0501   -1.2697 O   0  0  0  0  0  0  0  0  0  0  0  0
    1.6258    0.5100    0.3388 C   0  0  1  0  0  0  0  0  0  0  0  0
   -1.1324   -0.9922    1.0513 O   0  0  0  0  0  0  0  0  0  0  0  0
    1.8150    0.4939   -1.1636 C   0  0  0  0  0  0  0  0  0  0  0  0
    2.8488    1.1904    0.9831 C   0  0  0  0  0  0  0  0  0  0  0  0
   -5.9659   -1.5386   -0.9988 C   0  0  0  0  0  0  0  0  0  0  0  0
    4.1489    0.5289    0.6225 C   0  0  0  0  0  0  0  0  0  0  0  0
   -7.2727   -1.8039   -1.3880 C   0  0  0  0  0  0  0  0  0  0  0  0
   -8.3327   -1.4239   -0.5757 C   0  0  0  0  0  0  0  0  0  0  0  0
   -8.0762   -0.7786    0.6279 C   0  0  0  0  0  0  0  0  0  0  0  0
   -6.7685   -0.5143    1.0110 C   0  0  0  0  0  0  0  0  0  0  0  0
    1.8039    1.4878   -1.8470 O   0  0  0  0  0  0  0  0  0  0  0  0
    2.0559   -0.7181   -1.6381 O   0  0  0  0  0  0  0  0  0  0  0  0
    8.5395   -1.9945    0.6603 N   0  0  0  0  0  0  0  0  0  0  0  0
    4.9913    1.0766   -0.3382 C   0  0  0  0  0  0  0  0  0  0  0  0
    6.1823    0.4495   -0.6828 C   0  0  0  0  0  0  0  0  0  0  0  0
    6.5634   -0.7451   -0.0829 C   0  0  0  0  0  0  0  0  0  0  0  0
    5.7219   -1.2918    0.8854 C   0  0  0  0  0  0  0  0  0  0  0  0
    4.5348   -0.6658    1.2289 C   0  0  0  0  0  0  0  0  0  0  0  0
   -4.6804    1.5463    0.5005 H   0  0  0  0  0  0  0  0  0  0  0  0
   -3.8872    0.9037   -0.9230 H   0  0  0  0  0  0  0  0  0  0  0  0
   -2.6257    1.3600    1.8199 H   0  0  0  0  0  0  0  0  0  0  0  0
   -3.6075   -1.2970    0.1599 H   0  0  0  0  0  0  0  0  0  0  0  0
   -4.1792   -0.6551    1.6901 H   0  0  0  0  0  0  0  0  0  0  0  0
   -1.6758    3.2337    0.8116 H   0  0  0  0  0  0  0  0  0  0  0  0
   -2.2493    2.8597   -0.6694 H   0  0  0  0  0  0  0  0  0  0  0  0
    0.3649    2.2632    0.2651 H   0  0  0  0  0  0  0  0  0  0  0  0
    0.3134    1.4125    1.7994 H   0  0  0  0  0  0  0  0  0  0  0  0
    1.5693   -0.5168    0.7057 H   0  0  0  0  0  0  0  0  0  0  0  0
    2.8670    2.2421    0.6884 H   0  0  0  0  0  0  0  0  0  0  0  0
    2.7033    1.1681    2.0655 H   0  0  0  0  0  0  0  0  0  0  0  0
   -5.1440   -1.8429   -1.6373 H   0  0  0  0  0  0  0  0  0  0  0  0
   -7.4632   -2.3117   -2.3251 H   0  0  0  0  0  0  0  0  0  0  0  0
   -9.3514   -1.6307   -0.8770 H   0  0  0  0  0  0  0  0  0  0  0  0
   -8.8961   -0.4836    1.2706 H   0  0  0  0  0  0  0  0  0  0  0  0
   -6.5753   -0.0112    1.9519 H   0  0  0  0  0  0  0  0  0  0  0  0
    8.4448   -0.7376   -1.0794 H   0  0  0  0  0  0  0  0  0  0  0  0
    7.5945   -2.2632   -1.1585 H   0  0  0  0  0  0  0  0  0  0  0  0
    2.2107   -0.6732   -2.5939 H   0  0  0  0  0  0  0  0  0  0  0  0
    9.3367   -2.5281    0.3387 H   0  0  0  0  0  0  0  0  0  0  0  0
    8.9161   -1.2430    1.2247 H   0  0  0  0  0  0  0  0  0  0  0  0
    4.7229    2.0113   -0.8166 H   0  0  0  0  0  0  0  0  0  0  0  0
    6.8268    0.9052   -1.4260 H   0  0  0  0  0  0  0  0  0  0  0  0
    6.0077   -2.2118    1.3792 H   0  0  0  0  0  0  0  0  0  0  0  0
    3.8996   -1.1105    1.9871 H   0  0  0  0  0  0  0  0  0  0  0  0
   -1.1484   -0.8765    2.0098 H   0  0  0  0  0  0  0  0  0  0  0  0
    7.8409   -1.4364   -0.4854 C   0  0  0  0  0  0  0  0  0  0  0  0
  1  3  1  0
  1  7  1  0
  1  8  2  0
  1 10  1  1
  2  3  1  0
  2  4  1  0
  3  6  1  0
  4  5  1  0
  5 13  2  0
  5 18  1  0
  7  9  1  0
  9 11  1  0
  9 12  1  0
 11 19  2  0
 11 20  1  0
 12 14  1  0
 13 15  1  0
 14 22  2  0
 14 26  1  0
 15 16  2  0
 16 17  1  0
 17 18  2  0
 54 21  1  0
 54 24  1  0
 22 23  1  0
 23 24  2  0
 24 25  1  0
 25 26  2  0
  2 27  1  0
  2 28  1  0
  3 29  1  1
  4 30  1  0
  4 31  1  0
  6 32  1  0
  6 33  1  0
  7 34  1  0
  7 35  1  0
  9 36  1  1
 12 37  1  0
 12 38  1  0
 13 39  1  0
 15 40  1  0
 16 41  1  0
 17 42  1  0
 18 43  1  0
 54 44  1  0
 54 45  1  0
 20 46  1  0
 21 47  1  0
 21 48  1  0
 22 49  1  0
 23 50  1  0
 25 51  1  0
 26 52  1  0
 10 53  1  0
M  END
