
     RDKit          3D

 28 29  0  0  0  0  0  0  0  0999 V2000
   -3.9054   -2.1798    0.5959 N   0  0  0  0  0  0  0  0  0  0  0  0
   -3.4719   -1.1417    0.3391 C   0  0  0  0  0  0  0  0  0  0  0  0
   -3.0082    0.1667    0.0350 C   0  0  0  0  0  0  0  0  0  0  0  0
   -4.0091    1.2909    0.0338 C   0  0  0  0  0  0  0  0  0  0  0  0
   -5.2728    0.9521    0.3082 N   0  0  0  0  0  0  0  0  0  0  0  0
   -3.6554    2.4342   -0.2054 O   0  0  0  0  0  0  0  0  0  0  0  0
   -1.7147    0.4568   -0.2077 C   0  0  0  0  0  0  0  0  0  0  0  0
   -0.5428   -0.3978   -0.2678 C   0  0  0  0  0  0  0  0  0  0  0  0
   -0.5747   -1.7838   -0.4539 C   0  0  0  0  0  0  0  0  0  0  0  0
    0.6118   -2.4955   -0.4851 C   0  0  0  0  0  0  0  0  0  0  0  0
    1.8305   -1.8532   -0.3256 C   0  0  0  0  0  0  0  0  0  0  0  0
    1.8937   -0.4680   -0.1580 C   0  0  0  0  0  0  0  0  0  0  0  0
    3.1705    0.2227   -0.0046 C   0  0  0  0  0  0  0  0  0  0  0  0
    4.4382   -0.2602   -0.2730 C   0  0  0  0  0  0  0  0  0  0  0  0
    5.2914    0.7284    0.0195 N   0  0  0  0  0  0  0  0  0  0  0  0
    4.6918    1.8271    0.4618 N   0  0  0  0  0  0  0  0  0  0  0  0
    3.4061    1.5384    0.4517 C   0  0  0  0  0  0  0  0  0  0  0  0
    0.6954    0.2408   -0.1475 C   0  0  0  0  0  0  0  0  0  0  0  0
   -5.5735    0.0103    0.4927 H   0  0  0  0  0  0  0  0  0  0  0  0
   -5.9851    1.6644    0.3132 H   0  0  0  0  0  0  0  0  0  0  0  0
   -1.5156    1.5123   -0.3601 H   0  0  0  0  0  0  0  0  0  0  0  0
   -1.5045   -2.3122   -0.6034 H   0  0  0  0  0  0  0  0  0  0  0  0
    0.5887   -3.5667   -0.6328 H   0  0  0  0  0  0  0  0  0  0  0  0
    2.7390   -2.4418   -0.3340 H   0  0  0  0  0  0  0  0  0  0  0  0
    4.7817   -1.2091   -0.6507 H   0  0  0  0  0  0  0  0  0  0  0  0
    6.2950    0.7050   -0.0677 H   0  0  0  0  0  0  0  0  0  0  0  0
    2.6852    2.2721    0.7799 H   0  0  0  0  0  0  0  0  0  0  0  0
    0.7128    1.3192   -0.0440 H   0  0  0  0  0  0  0  0  0  0  0  0
 10 11  2  0
 10  9  1  0
 11 12  1  0
  9  8  2  0
  1  2  3  0
 17 13  1  0
 17 16  2  0
 12 13  1  0
 12 18  2  0
  2  3  1  0
  8 18  1  0
  8  7  1  0
 13 14  2  0
 16 15  1  0
  3  7  2  0
  3  4  1  0
 14 15  1  0
  4  5  1  0
  4  6  2  0
  5 19  1  0
  5 20  1  0
  7 21  1  0
  9 22  1  0
 10 23  1  0
 11 24  1  0
 14 25  1  0
 15 26  1  0
 17 27  1  0
 18 28  1  0
M  END
