
     RDKit          3D

 19 19  0  0  0  0  0  0  0  0999 V2000
    2.1348    0.1871   -1.1361 N   0  0  0  0  0  0  0  0  0  0  0  0
    3.2575   -0.2423   -0.6272 N   0  0  0  0  0  0  0  0  0  0  0  0
    3.2915   -0.2498    0.6692 N   0  0  0  0  0  0  0  0  0  0  0  0
    2.1412    0.1919    1.0603 N   0  0  0  0  0  0  0  0  0  0  0  0
    1.4365    0.4558   -0.0522 C   0  0  0  0  0  0  0  0  0  0  0  0
    0.0488    0.9733   -0.0598 C   0  0  0  0  0  0  0  0  0  0  0  0
   -0.9647   -0.1466    0.0135 C   0  0  0  0  0  0  0  0  0  0  0  0
   -0.6838   -1.3150    0.0854 O   0  0  0  0  0  0  0  0  0  0  0  0
   -2.1955    0.3291   -0.0115 O   0  0  0  0  0  0  0  0  0  0  0  0
   -3.2875   -0.6075    0.0427 C   0  0  0  0  0  0  0  0  0  0  0  0
   -4.5707    0.1798   -0.0576 C   0  0  0  0  0  0  0  0  0  0  0  0
    4.0429   -0.5382   -1.1924 H   0  0  0  0  0  0  0  0  0  0  0  0
   -0.1039    1.6458    0.7872 H   0  0  0  0  0  0  0  0  0  0  0  0
   -0.1303    1.5603   -0.9626 H   0  0  0  0  0  0  0  0  0  0  0  0
   -3.1996   -1.3188   -0.7803 H   0  0  0  0  0  0  0  0  0  0  0  0
   -3.2413   -1.1661    0.9796 H   0  0  0  0  0  0  0  0  0  0  0  0
   -5.4150   -0.5077   -0.0204 H   0  0  0  0  0  0  0  0  0  0  0  0
   -4.6765    0.8837    0.7679 H   0  0  0  0  0  0  0  0  0  0  0  0
   -4.6297    0.7299   -0.9968 H   0  0  0  0  0  0  0  0  0  0  0  0
  2  3  1  0
  2  1  1  0
  3  4  2  0
  8  7  2  0
  1  5  2  0
  4  5  1  0
  5  6  1  0
  7  6  1  0
  7  9  1  0
 10  9  1  0
 10 11  1  0
  2 12  1  0
  6 13  1  0
  6 14  1  0
 10 15  1  0
 10 16  1  0
 11 17  1  0
 11 18  1  0
 11 19  1  0
M  END
