
     RDKit          3D

140140  0  0  0  0  0  0  0  0999 V2000
   12.9794    5.0055    2.0317 C   0  0  0  0  0  0  0  0  0  0  0  0
   12.3812    3.7910    1.3852 C   0  0  0  0  0  0  0  0  0  0  0  0
   13.3017    2.6059    1.3301 C   0  0  0  0  0  0  0  0  0  0  0  0
   11.1458    3.7308    0.8814 C   0  0  0  0  0  0  0  0  0  0  0  0
   10.1261    4.8253    0.8256 C   0  0  0  0  0  0  0  0  0  0  0  0
    9.9617    5.3790   -0.5997 C   0  0  0  0  0  0  0  0  0  0  0  0
    8.9478    6.4913   -0.6623 C   0  0  0  0  0  0  0  0  0  0  0  0
    9.4939    7.8645   -0.3992 C   0  0  0  0  0  0  0  0  0  0  0  0
    7.6466    6.2920   -0.8868 C   0  0  0  0  0  0  0  0  0  0  0  0
    6.9574    4.9808   -1.0989 C   0  0  0  0  0  0  0  0  0  0  0  0
    6.0380    4.6327    0.0828 C   0  0  0  0  0  0  0  0  0  0  0  0
    5.3044    3.3304   -0.0980 C   0  0  0  0  0  0  0  0  0  0  0  0
    4.2752    3.3209   -1.1909 C   0  0  0  0  0  0  0  0  0  0  0  0
    5.5944    2.2819    0.6770 C   0  0  0  0  0  0  0  0  0  0  0  0
    5.0101    0.9052    0.6300 C   0  0  0  0  0  0  0  0  0  0  0  0
    6.0642   -0.1387    0.2296 C   0  0  0  0  0  0  0  0  0  0  0  0
    5.5397   -1.5505    0.2069 C   0  0  0  0  0  0  0  0  0  0  0  0
    5.0674   -2.0800    1.5304 C   0  0  0  0  0  0  0  0  0  0  0  0
    5.5183   -2.2467   -0.9336 C   0  0  0  0  0  0  0  0  0  0  0  0
    5.0300   -3.6453   -1.1453 C   0  0  0  0  0  0  0  0  0  0  0  0
    3.7021   -3.6843   -1.9191 C   0  0  0  0  0  0  0  0  0  0  0  0
    3.2250   -5.0925   -2.1622 C   0  0  0  0  0  0  0  0  0  0  0  0
    3.9480   -5.8379   -3.2455 C   0  0  0  0  0  0  0  0  0  0  0  0
    2.2373   -5.6010   -1.4212 C   0  0  0  0  0  0  0  0  0  0  0  0
    1.6789   -6.9887   -1.4433 C   0  0  0  0  0  0  0  0  0  0  0  0
    1.9913   -7.7345   -0.1354 C   0  0  0  0  0  0  0  0  0  0  0  0
    1.3964   -9.1183   -0.1053 C   0  0  0  0  0  0  0  0  0  0  0  0
    2.2801  -10.2063   -0.6419 C   0  0  0  0  0  0  0  0  0  0  0  0
    0.1594   -9.3769    0.3268 C   0  0  0  0  0  0  0  0  0  0  0  0
   -0.8410   -8.3818    0.8248 C   0  0  0  0  0  0  0  0  0  0  0  0
   -2.0092   -8.2132   -0.1634 C   0  0  0  0  0  0  0  0  0  0  0  0
   -2.9356   -7.0889    0.2172 C   0  0  0  0  0  0  0  0  0  0  0  0
   -3.7341   -7.3045    1.4694 C   0  0  0  0  0  0  0  0  0  0  0  0
   -2.9787   -5.9850   -0.5333 C   0  0  0  0  0  0  0  0  0  0  0  0
   -3.7528   -4.7256   -0.3057 C   0  0  0  0  0  0  0  0  0  0  0  0
   -2.8051   -3.5306   -0.1196 C   0  0  0  0  0  0  0  0  0  0  0  0
   -3.5130   -2.2118    0.0428 C   0  0  0  0  0  0  0  0  0  0  0  0
   -4.2281   -1.7101   -1.1775 C   0  0  0  0  0  0  0  0  0  0  0  0
   -3.4750   -1.5672    1.2126 C   0  0  0  0  0  0  0  0  0  0  0  0
   -4.1197   -0.2640    1.5656 C   0  0  0  0  0  0  0  0  0  0  0  0
   -5.3289   -0.4540    2.4968 C   0  0  0  0  0  0  0  0  0  0  0  0
   -5.9859    0.8516    2.8606 C   0  0  0  0  0  0  0  0  0  0  0  0
   -5.1791    1.7544    3.7440 C   0  0  0  0  0  0  0  0  0  0  0  0
   -7.1975    1.1379    2.3791 C   0  0  0  0  0  0  0  0  0  0  0  0
   -7.9897    2.4036    2.5542 C   0  0  0  0  0  0  0  0  0  0  0  0
   -8.1436    3.0586    1.2105 C   0  0  0  0  0  0  0  0  0  0  0  0
   -9.1771    2.8455    0.3770 C   0  0  0  0  0  0  0  0  0  0  0  0
  -10.3532    1.9727    0.6711 C   0  0  0  0  0  0  0  0  0  0  0  0
   -9.1996    3.4874   -0.9644 C   0  0  0  0  0  0  0  0  0  0  0  0
  -10.1388    3.3304   -1.7151 O   0  0  0  0  0  0  0  0  0  0  0  0
   -8.0404    4.3023   -1.4036 C   0  0  0  0  0  0  0  0  0  0  0  0
   -8.0612    4.7780   -2.6578 O   0  0  0  0  0  0  0  0  0  0  0  0
   -8.7593    6.0106   -2.8321 C   0  0  0  0  0  0  0  0  0  0  0  0
   -7.0110    4.5171   -0.5736 C   0  0  0  0  0  0  0  0  0  0  0  0
   -5.9813    5.3022   -0.9205 O   0  0  0  0  0  0  0  0  0  0  0  0
   -4.7710    4.6216   -1.2553 C   0  0  0  0  0  0  0  0  0  0  0  0
   -7.0152    3.9352    0.7939 C   0  0  0  0  0  0  0  0  0  0  0  0
   -6.1096    4.2023    1.5530 O   0  0  0  0  0  0  0  0  0  0  0  0
   13.8753    5.3203    1.4907 H   0  0  0  0  0  0  0  0  0  0  0  0
   12.3023    5.8562    2.0752 H   0  0  0  0  0  0  0  0  0  0  0  0
   13.2993    4.7812    3.0524 H   0  0  0  0  0  0  0  0  0  0  0  0
   13.6007    2.2942    2.3343 H   0  0  0  0  0  0  0  0  0  0  0  0
   12.8459    1.7501    0.8328 H   0  0  0  0  0  0  0  0  0  0  0  0
   14.2234    2.8551    0.7973 H   0  0  0  0  0  0  0  0  0  0  0  0
   10.8341    2.7944    0.4231 H   0  0  0  0  0  0  0  0  0  0  0  0
    9.1582    4.4360    1.1562 H   0  0  0  0  0  0  0  0  0  0  0  0
   10.3738    5.6400    1.5091 H   0  0  0  0  0  0  0  0  0  0  0  0
   10.9317    5.7499   -0.9430 H   0  0  0  0  0  0  0  0  0  0  0  0
    9.6952    4.5586   -1.2700 H   0  0  0  0  0  0  0  0  0  0  0  0
   10.2326    8.1450   -1.1545 H   0  0  0  0  0  0  0  0  0  0  0  0
    8.7128    8.6242   -0.3904 H   0  0  0  0  0  0  0  0  0  0  0  0
   10.0109    7.9035    0.5637 H   0  0  0  0  0  0  0  0  0  0  0  0
    6.9898    7.1596   -0.8780 H   0  0  0  0  0  0  0  0  0  0  0  0
    6.3630    5.0292   -2.0167 H   0  0  0  0  0  0  0  0  0  0  0  0
    7.6746    4.1688   -1.2355 H   0  0  0  0  0  0  0  0  0  0  0  0
    6.6390    4.5980    0.9951 H   0  0  0  0  0  0  0  0  0  0  0  0
    5.3136    5.4451    0.2154 H   0  0  0  0  0  0  0  0  0  0  0  0
    4.7431    3.3808   -2.1765 H   0  0  0  0  0  0  0  0  0  0  0  0
    3.6506    2.4308   -1.1822 H   0  0  0  0  0  0  0  0  0  0  0  0
    3.6198    4.1906   -1.1065 H   0  0  0  0  0  0  0  0  0  0  0  0
    6.3706    2.4172    1.4284 H   0  0  0  0  0  0  0  0  0  0  0  0
    4.6151    0.6550    1.6192 H   0  0  0  0  0  0  0  0  0  0  0  0
    4.1681    0.8462   -0.0628 H   0  0  0  0  0  0  0  0  0  0  0  0
    6.4659    0.1271   -0.7513 H   0  0  0  0  0  0  0  0  0  0  0  0
    6.9005   -0.0777    0.9369 H   0  0  0  0  0  0  0  0  0  0  0  0
    4.1899   -1.5329    1.8826 H   0  0  0  0  0  0  0  0  0  0  0  0
    4.7985   -3.1338    1.5014 H   0  0  0  0  0  0  0  0  0  0  0  0
    5.8391   -1.9526    2.2934 H   0  0  0  0  0  0  0  0  0  0  0  0
    5.8763   -1.7484   -1.8322 H   0  0  0  0  0  0  0  0  0  0  0  0
    5.7888   -4.2035   -1.7022 H   0  0  0  0  0  0  0  0  0  0  0  0
    4.8961   -4.1727   -0.1995 H   0  0  0  0  0  0  0  0  0  0  0  0
    2.9535   -3.1270   -1.3513 H   0  0  0  0  0  0  0  0  0  0  0  0
    3.8288   -3.1596   -2.8728 H   0  0  0  0  0  0  0  0  0  0  0  0
    5.0306   -5.7730   -3.1174 H   0  0  0  0  0  0  0  0  0  0  0  0
    3.6873   -6.8932   -3.2924 H   0  0  0  0  0  0  0  0  0  0  0  0
    3.7272   -5.3992   -4.2222 H   0  0  0  0  0  0  0  0  0  0  0  0
    1.7924   -4.9483   -0.6717 H   0  0  0  0  0  0  0  0  0  0  0  0
    0.5917   -6.9431   -1.5647 H   0  0  0  0  0  0  0  0  0  0  0  0
    2.0559   -7.5622   -2.2923 H   0  0  0  0  0  0  0  0  0  0  0  0
    3.0773   -7.7995   -0.0228 H   0  0  0  0  0  0  0  0  0  0  0  0
    1.6356   -7.1356    0.7056 H   0  0  0  0  0  0  0  0  0  0  0  0
    3.1752  -10.3239   -0.0255 H   0  0  0  0  0  0  0  0  0  0  0  0
    1.7695  -11.1683   -0.6845 H   0  0  0  0  0  0  0  0  0  0  0  0
    2.6308   -9.9661   -1.6494 H   0  0  0  0  0  0  0  0  0  0  0  0
   -0.1898  -10.4067    0.2835 H   0  0  0  0  0  0  0  0  0  0  0  0
   -1.2286   -8.7076    1.7949 H   0  0  0  0  0  0  0  0  0  0  0  0
   -0.3808   -7.4048    0.9861 H   0  0  0  0  0  0  0  0  0  0  0  0
   -1.5967   -8.0268   -1.1583 H   0  0  0  0  0  0  0  0  0  0  0  0
   -2.5643   -9.1560   -0.2232 H   0  0  0  0  0  0  0  0  0  0  0  0
   -3.0920   -7.3181    2.3536 H   0  0  0  0  0  0  0  0  0  0  0  0
   -4.4949   -6.5434    1.6316 H   0  0  0  0  0  0  0  0  0  0  0  0
   -4.2365   -8.2744    1.4389 H   0  0  0  0  0  0  0  0  0  0  0  0
   -2.3418   -5.9618   -1.4160 H   0  0  0  0  0  0  0  0  0  0  0  0
   -4.4015   -4.5439   -1.1686 H   0  0  0  0  0  0  0  0  0  0  0  0
   -4.4087   -4.7994    0.5632 H   0  0  0  0  0  0  0  0  0  0  0  0
   -2.1681   -3.7207    0.7478 H   0  0  0  0  0  0  0  0  0  0  0  0
   -2.1373   -3.4768   -0.9877 H   0  0  0  0  0  0  0  0  0  0  0  0
   -3.5580   -1.7028   -2.0408 H   0  0  0  0  0  0  0  0  0  0  0  0
   -5.0660   -2.3592   -1.4432 H   0  0  0  0  0  0  0  0  0  0  0  0
   -4.6274   -0.7047   -1.0588 H   0  0  0  0  0  0  0  0  0  0  0  0
   -2.9300   -2.0421    2.0262 H   0  0  0  0  0  0  0  0  0  0  0  0
   -3.3792    0.3700    2.0612 H   0  0  0  0  0  0  0  0  0  0  0  0
   -4.4453    0.2802    0.6768 H   0  0  0  0  0  0  0  0  0  0  0  0
   -6.0498   -1.1092    2.0023 H   0  0  0  0  0  0  0  0  0  0  0  0
   -4.9997   -0.9719    3.4047 H   0  0  0  0  0  0  0  0  0  0  0  0
   -4.2655    2.0805    3.2429 H   0  0  0  0  0  0  0  0  0  0  0  0
   -5.7133    2.6480    4.0549 H   0  0  0  0  0  0  0  0  0  0  0  0
   -4.8669    1.2188    4.6436 H   0  0  0  0  0  0  0  0  0  0  0  0
   -7.6816    0.3951    1.7493 H   0  0  0  0  0  0  0  0  0  0  0  0
   -8.9701    2.1759    2.9745 H   0  0  0  0  0  0  0  0  0  0  0  0
   -7.5084    3.0896    3.2485 H   0  0  0  0  0  0  0  0  0  0  0  0
  -11.2815    2.5446    0.6372 H   0  0  0  0  0  0  0  0  0  0  0  0
  -10.4399    1.1816   -0.0748 H   0  0  0  0  0  0  0  0  0  0  0  0
  -10.2873    1.4997    1.6461 H   0  0  0  0  0  0  0  0  0  0  0  0
   -8.2827    6.8153   -2.2690 H   0  0  0  0  0  0  0  0  0  0  0  0
   -8.7172    6.2474   -3.8925 H   0  0  0  0  0  0  0  0  0  0  0  0
   -9.8048    5.9321   -2.5300 H   0  0  0  0  0  0  0  0  0  0  0  0
   -4.3341    4.1167   -0.3934 H   0  0  0  0  0  0  0  0  0  0  0  0
   -4.9387    3.8946   -2.0522 H   0  0  0  0  0  0  0  0  0  0  0  0
   -4.0758    5.3792   -1.6085 H   0  0  0  0  0  0  0  0  0  0  0  0
  1  2  1  0
  1 59  1  0
  1 60  1  0
  1 61  1  0
  2  3  1  0
  2  4  2  0
  3 62  1  0
  3 63  1  0
  3 64  1  0
  4  5  1  0
  4 65  1  0
  5  6  1  0
  5 66  1  0
  5 67  1  0
  6  7  1  0
  6 68  1  0
  6 69  1  0
  7  9  2  0
  7  8  1  0
  8 70  1  0
  8 71  1  0
  8 72  1  0
 10  9  1  0
  9 73  1  0
 10 11  1  0
 10 74  1  0
 10 75  1  0
 11 12  1  0
 11 76  1  0
 11 77  1  0
 13 12  1  0
 12 14  2  0
 13 78  1  0
 13 79  1  0
 13 80  1  0
 14 15  1  0
 14 81  1  0
 15 16  1  0
 15 82  1  0
 15 83  1  0
 17 16  1  0
 16 84  1  0
 16 85  1  0
 19 17  2  0
 17 18  1  0
 18 86  1  0
 18 87  1  0
 18 88  1  0
 20 19  1  0
 19 89  1  0
 20 21  1  0
 20 90  1  0
 20 91  1  0
 22 21  1  0
 21 92  1  0
 21 93  1  0
 23 22  1  0
 22 24  2  0
 23 94  1  0
 23 95  1  0
 23 96  1  0
 25 24  1  0
 24 97  1  0
 25 26  1  0
 25 98  1  0
 25 99  1  0
 27 26  1  0
 26100  1  0
 26101  1  0
 29 27  2  0
 27 28  1  0
 28102  1  0
 28103  1  0
 28104  1  0
 30 29  1  0
 29105  1  0
 31 30  1  0
 30106  1  0
 30107  1  0
 32 31  1  0
 31108  1  0
 31109  1  0
 33 32  1  0
 32 34  2  0
 33110  1  0
 33111  1  0
 33112  1  0
 35 34  1  0
 34113  1  0
 35 36  1  0
 35114  1  0
 35115  1  0
 37 36  1  0
 36116  1  0
 36117  1  0
 39 37  2  0
 37 38  1  0
 38118  1  0
 38119  1  0
 38120  1  0
 40 39  1  0
 39121  1  0
 41 40  1  0
 40122  1  0
 40123  1  0
 41 42  1  0
 41124  1  0
 41125  1  0
 43 42  1  0
 42 44  2  0
 43126  1  0
 43127  1  0
 43128  1  0
 44 45  1  0
 44129  1  0
 45 46  1  0
 45130  1  0
 45131  1  0
 57 46  1  0
 46 47  2  0
 47 49  1  0
 47 48  1  0
 48132  1  0
 48133  1  0
 48134  1  0
 51 49  1  0
 49 50  2  0
 54 51  2  0
 51 52  1  0
 52 53  1  0
 53135  1  0
 53136  1  0
 53137  1  0
 55 54  1  0
 57 54  1  0
 55 56  1  0
 56138  1  0
 56139  1  0
 56140  1  0
 58 57  2  0
M  END
