
     RDKit          3D

 11 10  0  0  0  0  0  0  0  0999 V2000
   -1.5189    0.5467    0.0555 C   0  0  0  0  0  0  0  0  0  0  0  0
   -0.6080   -0.6445    0.0836 C   0  0  0  0  0  0  0  0  0  0  0  0
    0.7291   -0.5882    0.0812 C   0  0  0  0  0  0  0  0  0  0  0  0
    1.5143    0.5502    0.1044 N   0  0  0  0  0  0  0  0  0  0  0  0
   -2.4999    0.2789   -0.3367 H   0  0  0  0  0  0  0  0  0  0  0  0
   -1.6836    0.9741    1.0490 H   0  0  0  0  0  0  0  0  0  0  0  0
   -1.1340    1.3529   -0.5747 H   0  0  0  0  0  0  0  0  0  0  0  0
    2.3746    0.4803   -0.4155 H   0  0  0  0  0  0  0  0  0  0  0  0
   -1.0612   -1.6254    0.1563 H   0  0  0  0  0  0  0  0  0  0  0  0
    1.2992   -1.5103    0.1132 H   0  0  0  0  0  0  0  0  0  0  0  0
    1.0354    1.4134   -0.1028 H   0  0  0  0  0  0  0  0  0  0  0  0
  1  5  1  0
  1  6  1  0
  1  7  1  0
  2  1  1  0
  3  2  2  0
  4  3  1  0
  4  8  1  0
  2  9  1  0
  3 10  1  0
  4 11  1  0
M  END
