
     RDKit          3D

 21 20  0  0  0  0  0  0  0  0999 V2000
    2.0601   -0.1861   -1.6754 O   0  0  0  0  0  0  0  0  0  0  0  0
   -0.7410   -0.1534   -0.2660 C   0  0  0  0  0  0  0  0  0  0  0  0
    0.5027   -0.3808    0.4167 O   0  0  0  0  0  0  0  0  0  0  0  0
    1.8627    0.1216   -0.2465 P   0  0  1  0  0  0  0  0  0  0  0  0
   -1.8642   -0.3061    0.7450 C   0  0  0  0  0  0  0  0  0  0  0  0
    2.8507   -0.5547    0.8063 O   0  0  0  0  0  0  0  0  0  0  0  0
   -3.2126   -0.0955    0.1070 C   0  0  0  0  0  0  0  0  0  0  0  0
    1.9289    1.7046   -0.0302 O   0  0  0  0  0  0  0  0  0  0  0  0
   -3.5695    1.3148   -0.2579 C   0  0  0  0  0  0  0  0  0  0  0  0
   -4.0363   -1.1169   -0.1170 C   0  0  0  0  0  0  0  0  0  0  0  0
   -0.7556    0.8451   -0.7111 H   0  0  0  0  0  0  0  0  0  0  0  0
   -0.8499   -0.8838   -1.0699 H   0  0  0  0  0  0  0  0  0  0  0  0
   -1.8121   -1.3026    1.1890 H   0  0  0  0  0  0  0  0  0  0  0  0
   -1.7201    0.4232    1.5481 H   0  0  0  0  0  0  0  0  0  0  0  0
    3.7860   -0.4706    0.5773 H   0  0  0  0  0  0  0  0  0  0  0  0
    1.8504    2.0053    0.8851 H   0  0  0  0  0  0  0  0  0  0  0  0
   -3.4972    1.9701    0.6128 H   0  0  0  0  0  0  0  0  0  0  0  0
   -2.8900    1.7231   -1.0098 H   0  0  0  0  0  0  0  0  0  0  0  0
   -4.5809    1.3857   -0.6552 H   0  0  0  0  0  0  0  0  0  0  0  0
   -5.0055   -0.9759   -0.5800 H   0  0  0  0  0  0  0  0  0  0  0  0
   -3.7692   -2.1311    0.1542 H   0  0  0  0  0  0  0  0  0  0  0  0
  1  4  2  0
  2  5  1  0
  2  3  1  0
  2 11  1  0
  2 12  1  0
  4  3  1  1
  8  4  1  0
  4  6  1  0
  7  5  1  0
  5 13  1  0
  5 14  1  0
  6 15  1  0
 10  7  2  0
  7  9  1  0
  8 16  1  0
  9 17  1  0
  9 18  1  0
  9 19  1  0
 10 20  1  0
 10 21  1  0
M  END
