
     RDKit          3D

 35 36  0  0  0  0  0  0  0  0999 V2000
    6.9205   -1.4717    0.5790 O   0  0  0  0  0  0  0  0  0  0  0  0
    6.1558   -1.0615   -0.2570 C   0  0  0  0  0  0  0  0  0  0  0  0
    6.5226   -0.7366   -1.4904 O   0  0  0  0  0  0  0  0  0  0  0  0
    4.6646   -0.8410   -0.0279 C   0  0  1  0  0  0  0  0  0  0  0  0
    4.1552   -1.4847    1.1537 N   0  0  0  0  0  0  0  0  0  0  0  0
    4.3861    0.6741    0.0263 C   0  0  0  0  0  0  0  0  0  0  0  0
    2.9134    0.9616    0.0446 C   0  0  0  0  0  0  0  0  0  0  0  0
    2.2215    1.0958   -1.1539 C   0  0  0  0  0  0  0  0  0  0  0  0
    0.8589    1.3392   -1.1474 C   0  0  0  0  0  0  0  0  0  0  0  0
   -0.0054    1.5028   -2.6285 Cl  0  0  0  0  0  0  0  0  0  0  0  0
    2.2223    1.0716    1.2453 C   0  0  0  0  0  0  0  0  0  0  0  0
    0.8607    1.3193    1.2405 C   0  0  0  0  0  0  0  0  0  0  0  0
   -0.0056    1.4540    2.7236 Cl  0  0  0  0  0  0  0  0  0  0  0  0
    0.1629    1.4665    0.0478 C   0  0  0  0  0  0  0  0  0  0  0  0
   -1.1600    1.7671    0.0518 O   0  0  0  0  0  0  0  0  0  0  0  0
   -2.0688    0.7463    0.0334 C   0  0  0  0  0  0  0  0  0  0  0  0
   -3.4049    1.1207    0.0258 C   0  0  0  0  0  0  0  0  0  0  0  0
   -4.3797    0.1429    0.0074 C   0  0  0  0  0  0  0  0  0  0  0  0
   -6.0421    0.5979   -0.0020 Cl  0  0  0  0  0  0  0  0  0  0  0  0
   -1.7131   -0.5906    0.0230 C   0  0  0  0  0  0  0  0  0  0  0  0
   -2.7163   -1.5474    0.0040 C   0  0  0  0  0  0  0  0  0  0  0  0
   -2.2824   -3.2222   -0.0103 Cl  0  0  0  0  0  0  0  0  0  0  0  0
   -4.0682   -1.2179   -0.0041 C   0  0  0  0  0  0  0  0  0  0  0  0
   -5.0665   -2.1055   -0.0216 O   0  0  0  0  0  0  0  0  0  0  0  0
    7.4776   -0.8607   -1.6013 H   0  0  0  0  0  0  0  0  0  0  0  0
    4.1385   -1.2481   -0.8974 H   0  0  0  0  0  0  0  0  0  0  0  0
    4.2530   -2.4890    1.0810 H   0  0  0  0  0  0  0  0  0  0  0  0
    4.6867   -1.2021    1.9682 H   0  0  0  0  0  0  0  0  0  0  0  0
    4.8609    1.0917    0.9184 H   0  0  0  0  0  0  0  0  0  0  0  0
    4.8390    1.1667   -0.8351 H   0  0  0  0  0  0  0  0  0  0  0  0
    2.7452    1.0108   -2.0975 H   0  0  0  0  0  0  0  0  0  0  0  0
    2.7443    0.9672    2.1864 H   0  0  0  0  0  0  0  0  0  0  0  0
   -3.6807    2.1669    0.0347 H   0  0  0  0  0  0  0  0  0  0  0  0
   -0.6789   -0.9083    0.0296 H   0  0  0  0  0  0  0  0  0  0  0  0
   -4.7277   -3.0103   -0.0251 H   0  0  0  0  0  0  0  0  0  0  0  0
 22 21  1  0
 21 23  2  0
 21 20  1  0
 24 23  1  0
 23 18  1  0
 20 16  2  0
 10  9  1  0
 18 19  1  0
 18 17  2  0
 16 17  1  0
 16 15  1  0
 15 14  1  0
  9 14  2  0
  9  8  1  0
 14 12  1  0
  8  7  2  0
 12 13  1  0
 12 11  2  0
  7 11  1  0
  7  6  1  0
  6  4  1  0
  4  5  1  0
  4  2  1  0
  1  2  2  0
  2  3  1  0
  3 25  1  0
  4 26  1  6
  5 27  1  0
  5 28  1  0
  6 29  1  0
  6 30  1  0
  8 31  1  0
 11 32  1  0
 17 33  1  0
 20 34  1  0
 24 35  1  0
M  END
