
     RDKit          3D

 48 48  0  0  0  0  0  0  0  0999 V2000
   -0.3097    3.6753    1.0547 C   0  0  0  0  0  0  0  0  0  0  0  0
   -0.8779    2.5009    0.3110 C   0  0  0  0  0  0  0  0  0  0  0  0
   -0.1750    1.7429   -0.5328 C   0  0  0  0  0  0  0  0  0  0  0  0
    1.2616    1.9418   -0.9337 C   0  0  2  0  0  0  0  0  0  0  0  0
    1.4722    1.4970   -2.3800 C   0  0  0  0  0  0  0  0  0  0  0  0
    2.2476    1.2955    0.0483 C   0  0  2  0  0  0  0  0  0  0  0  0
    3.5194    1.8426   -0.2266 O   0  0  0  0  0  0  0  0  0  0  0  0
    2.3163   -0.2322   -0.0185 C   0  0  1  0  0  0  0  0  0  0  0  0
    3.3897   -0.5816    0.8544 O   0  0  0  0  0  0  0  0  0  0  0  0
    3.9348   -1.8563    0.6222 C   0  0  0  0  0  0  0  0  0  0  0  0
    1.0762   -0.9442    0.4286 C   0  0  0  0  0  0  0  0  0  0  0  0
    0.6212   -2.0483   -0.1599 C   0  0  0  0  0  0  0  0  0  0  0  0
   -0.4133   -2.9769    0.3937 C   0  0  0  0  0  0  0  0  0  0  0  0
   -1.4885   -3.4462   -0.5981 C   0  0  0  0  0  0  0  0  0  0  0  0
   -2.8281   -2.7163   -0.5435 C   0  0  0  0  0  0  0  0  0  0  0  0
   -2.8216   -1.2409   -0.9317 C   0  0  0  0  0  0  0  0  0  0  0  0
   -2.6915   -0.2330    0.1809 C   0  0  0  0  0  0  0  0  0  0  0  0
   -2.4132   -0.5256    1.3216 O   0  0  0  0  0  0  0  0  0  0  0  0
   -3.0250    1.1887   -0.2139 C   0  0  0  0  0  0  0  0  0  0  0  0
   -2.3381    2.2711    0.5979 C   0  0  0  0  0  0  0  0  0  0  0  0
    0.7464    3.8477    0.8584 H   0  0  0  0  0  0  0  0  0  0  0  0
   -0.8506    4.5908    0.8013 H   0  0  0  0  0  0  0  0  0  0  0  0
   -0.4250    3.5370    2.1328 H   0  0  0  0  0  0  0  0  0  0  0  0
   -0.6643    0.9054   -1.0197 H   0  0  0  0  0  0  0  0  0  0  0  0
    1.4858    3.0124   -0.8898 H   0  0  0  0  0  0  0  0  0  0  0  0
    0.8765    2.1134   -3.0542 H   0  0  0  0  0  0  0  0  0  0  0  0
    2.5154    1.5875   -2.6827 H   0  0  0  0  0  0  0  0  0  0  0  0
    1.1645    0.4611   -2.5344 H   0  0  0  0  0  0  0  0  0  0  0  0
    1.9284    1.5691    1.0667 H   0  0  0  0  0  0  0  0  0  0  0  0
    4.1597    1.3482    0.2980 H   0  0  0  0  0  0  0  0  0  0  0  0
    2.5732   -0.5417   -1.0430 H   0  0  0  0  0  0  0  0  0  0  0  0
    3.2099   -2.6586    0.7941 H   0  0  0  0  0  0  0  0  0  0  0  0
    4.3122   -1.9570   -0.4020 H   0  0  0  0  0  0  0  0  0  0  0  0
    4.7664   -1.9907    1.3129 H   0  0  0  0  0  0  0  0  0  0  0  0
    0.6154   -0.6011    1.3515 H   0  0  0  0  0  0  0  0  0  0  0  0
    1.0969   -2.3744   -1.0845 H   0  0  0  0  0  0  0  0  0  0  0  0
    0.1316   -3.8639    0.7350 H   0  0  0  0  0  0  0  0  0  0  0  0
   -0.8729   -2.5465    1.2847 H   0  0  0  0  0  0  0  0  0  0  0  0
   -1.0937   -3.4037   -1.6187 H   0  0  0  0  0  0  0  0  0  0  0  0
   -1.6955   -4.5020   -0.4083 H   0  0  0  0  0  0  0  0  0  0  0  0
   -3.5051   -3.2345   -1.2264 H   0  0  0  0  0  0  0  0  0  0  0  0
   -3.2629   -2.8357    0.4520 H   0  0  0  0  0  0  0  0  0  0  0  0
   -2.0294   -1.0273   -1.6602 H   0  0  0  0  0  0  0  0  0  0  0  0
   -3.7450   -0.9871   -1.4637 H   0  0  0  0  0  0  0  0  0  0  0  0
   -2.8641    1.3306   -1.2853 H   0  0  0  0  0  0  0  0  0  0  0  0
   -4.1098    1.2738   -0.0756 H   0  0  0  0  0  0  0  0  0  0  0  0
   -2.4683    2.0686    1.6659 H   0  0  0  0  0  0  0  0  0  0  0  0
   -2.8646    3.2157    0.4257 H   0  0  0  0  0  0  0  0  0  0  0  0
  1  2  1  0
  2  3  2  0
  2 20  1  0
  3  4  1  0
  4  5  1  0
  4  6  1  0
  6  7  1  0
  6  8  1  0
  8  9  1  0
  8 11  1  0
  9 10  1  0
 11 12  2  0
 12 13  1  0
 13 14  1  0
 14 15  1  0
 15 16  1  0
 16 17  1  0
 17 18  2  0
 17 19  1  0
 19 20  1  0
  1 21  1  0
  1 22  1  0
  1 23  1  0
  3 24  1  0
  4 25  1  6
  5 26  1  0
  5 27  1  0
  5 28  1  0
  6 29  1  1
  7 30  1  0
  8 31  1  6
 10 32  1  0
 10 33  1  0
 10 34  1  0
 11 35  1  0
 12 36  1  0
 13 37  1  0
 13 38  1  0
 14 39  1  0
 14 40  1  0
 15 41  1  0
 15 42  1  0
 16 43  1  0
 16 44  1  0
 19 45  1  0
 19 46  1  0
 20 47  1  0
 20 48  1  0
M  END
