
     RDKit          3D

 33 32  0  0  0  0  0  0  0  0999 V2000
    0.0128    0.1492   -4.7178 C   0  0  0  0  0  0  0  0  0  0  0  0
   -0.8516    0.9821   -4.8359 O   0  0  0  0  0  0  0  0  0  0  0  0
    0.6147   -0.4191   -5.7595 O   0  0  0  0  0  0  0  0  0  0  0  0
    0.5426   -0.3739   -3.4122 C   0  0  0  0  0  0  0  0  0  0  0  0
   -0.1242    0.2283   -2.1868 C   0  0  0  0  0  0  0  0  0  0  0  0
    0.4494   -0.3383   -0.8943 C   0  0  0  0  0  0  0  0  0  0  0  0
   -0.2336    0.2146    0.3498 C   0  0  0  0  0  0  0  0  0  0  0  0
    0.3680   -0.3134    1.6450 C   0  0  0  0  0  0  0  0  0  0  0  0
   -0.4164    0.0894    2.8931 C   0  0  2  0  0  0  0  0  0  0  0  0
    0.4241   -0.1017    4.1721 C   0  0  2  0  0  0  0  0  0  0  0  0
   -0.4051    0.0725    5.4441 C   0  0  0  0  0  0  0  0  0  0  0  0
   -1.6937   -0.6114    2.8907 N   0  0  0  0  0  0  0  0  0  0  0  0
    1.5678    0.8051    4.1203 N   0  0  0  0  0  0  0  0  0  0  0  0
    0.2561   -0.0601   -6.5848 H   0  0  0  0  0  0  0  0  0  0  0  0
    1.6225   -0.1953   -3.3882 H   0  0  0  0  0  0  0  0  0  0  0  0
    0.4307   -1.4631   -3.4120 H   0  0  0  0  0  0  0  0  0  0  0  0
   -1.2006    0.0391   -2.2201 H   0  0  0  0  0  0  0  0  0  0  0  0
   -0.0024    1.3149   -2.1932 H   0  0  0  0  0  0  0  0  0  0  0  0
    1.5239   -0.1291   -0.8485 H   0  0  0  0  0  0  0  0  0  0  0  0
    0.3559   -1.4300   -0.9020 H   0  0  0  0  0  0  0  0  0  0  0  0
   -1.2994   -0.0277    0.3167 H   0  0  0  0  0  0  0  0  0  0  0  0
   -0.1690    1.3086    0.3421 H   0  0  0  0  0  0  0  0  0  0  0  0
    1.3981    0.0345    1.7420 H   0  0  0  0  0  0  0  0  0  0  0  0
    0.4176   -1.4093    1.6067 H   0  0  0  0  0  0  0  0  0  0  0  0
   -0.6480    1.1622    2.8253 H   0  0  0  0  0  0  0  0  0  0  0  0
    0.8238   -1.1239    4.1597 H   0  0  0  0  0  0  0  0  0  0  0  0
    0.2382    0.0204    6.3246 H   0  0  0  0  0  0  0  0  0  0  0  0
   -0.9015    1.0473    5.4540 H   0  0  0  0  0  0  0  0  0  0  0  0
   -1.1711   -0.6950    5.5620 H   0  0  0  0  0  0  0  0  0  0  0  0
   -1.5436   -1.5939    3.0929 H   0  0  0  0  0  0  0  0  0  0  0  0
   -2.2906   -0.2630    3.6294 H   0  0  0  0  0  0  0  0  0  0  0  0
    1.2326    1.7592    4.2052 H   0  0  0  0  0  0  0  0  0  0  0  0
    2.1530    0.6545    4.9332 H   0  0  0  0  0  0  0  0  0  0  0  0
  1  2  2  0
  1  3  1  0
  1  4  1  0
  3 14  1  0
  4  5  1  0
  4 15  1  0
  4 16  1  0
  5  6  1  0
  5 17  1  0
  5 18  1  0
  6  7  1  0
  6 19  1  0
  6 20  1  0
  7  8  1  0
  7 21  1  0
  7 22  1  0
  8  9  1  0
  8 23  1  0
  8 24  1  0
  9 10  1  0
  9 12  1  0
  9 25  1  6
 10 11  1  0
 10 13  1  0
 10 26  1  6
 11 27  1  0
 11 28  1  0
 11 29  1  0
 12 30  1  0
 12 31  1  0
 13 32  1  0
 13 33  1  0
M  END
