
     RDKit          3D

 57 62  0  0  0  0  0  0  0  0999 V2000
   -1.4316   -4.4922   -0.1943 C   0  0  0  0  0  0  0  0  0  0  0  0
   -1.0845   -3.1408   -0.1487 C   0  0  0  0  0  0  0  0  0  0  0  0
    0.2775   -2.7770   -0.1180 C   0  0  0  0  0  0  0  0  0  0  0  0
    1.2391   -3.7880   -0.1458 C   0  0  0  0  0  0  0  0  0  0  0  0
    0.8890   -5.1243   -0.2183 C   0  0  0  0  0  0  0  0  0  0  0  0
   -0.4538   -5.4723   -0.2357 C   0  0  0  0  0  0  0  0  0  0  0  0
   -4.1759    1.2496    0.2559 C   0  0  0  0  0  0  0  0  0  0  0  0
   -5.4552    1.3814   -0.3392 C   0  0  0  0  0  0  0  0  0  0  0  0
   -6.0086    0.3537   -1.0228 N   0  0  0  0  0  0  0  0  0  0  0  0
   -5.3236   -0.7504   -1.1114 C   0  0  0  0  0  0  0  0  0  0  0  0
   -4.0414   -0.8808   -0.5195 C   0  0  0  0  0  0  0  0  0  0  0  0
   -3.4910    0.0953    0.1441 N   0  0  0  0  0  0  0  0  0  0  0  0
   -4.3151    3.5032    1.0743 C   0  0  0  0  0  0  0  0  0  0  0  0
   -5.5896    3.6371    0.4791 C   0  0  0  0  0  0  0  0  0  0  0  0
   -6.1532    2.6004   -0.2140 C   0  0  0  0  0  0  0  0  0  0  0  0
   -3.6167    2.3327    0.9672 C   0  0  0  0  0  0  0  0  0  0  0  0
    6.3767    1.5650   -0.7691 C   0  0  0  0  0  0  0  0  0  0  0  0
    7.5125    1.6186    0.2424 C   0  0  0  0  0  0  0  0  0  0  0  0
    7.4888    0.5240    1.1969 N   0  0  0  0  0  0  0  0  0  0  0  0
    6.1782    0.4227    1.8129 C   0  0  0  0  0  0  0  0  0  0  0  0
    5.0322    0.3676    0.8114 C   0  0  0  0  0  0  0  0  0  0  0  0
    5.0898    1.5036   -0.0936 N   0  0  0  0  0  0  0  0  0  0  0  0
    1.8631    0.4634   -0.2592 N   0  0  0  0  0  0  0  0  0  0  0  0
    0.6708    0.6956    0.3491 C   0  0  0  0  0  0  0  0  0  0  0  0
   -0.0422   -0.3860    0.4837 N   0  0  0  0  0  0  0  0  0  0  0  0
    0.7246   -1.3830   -0.0711 C   0  0  0  0  0  0  0  0  0  0  0  0
    1.9138   -0.8769   -0.5405 C   0  0  0  0  0  0  0  0  0  0  0  0
    0.4893    2.3656    0.7406 S   0  0  0  0  0  0  0  0  0  0  0  0
    2.0578    2.6810    0.0487 C   0  0  0  0  0  0  0  0  0  0  0  0
    2.6641    1.5838   -0.4368 C   0  0  0  0  0  0  0  0  0  0  0  0
   -2.0566   -2.1344   -0.1165 N   0  0  0  0  0  0  0  0  0  0  0  0
   -3.2881   -2.1724   -0.6610 C   0  0  0  0  0  0  0  0  0  0  0  0
   -3.7971   -3.1211   -1.2332 O   0  0  0  0  0  0  0  0  0  0  0  0
    4.0160    1.4933   -1.0679 C   0  0  0  0  0  0  0  0  0  0  0  0
   -2.4693   -4.7857   -0.1892 H   0  0  0  0  0  0  0  0  0  0  0  0
    2.2865   -3.5180   -0.0965 H   0  0  0  0  0  0  0  0  0  0  0  0
    1.6569   -5.8854   -0.2413 H   0  0  0  0  0  0  0  0  0  0  0  0
   -0.7481   -6.5131   -0.2690 H   0  0  0  0  0  0  0  0  0  0  0  0
   -3.8932    4.3374    1.6184 H   0  0  0  0  0  0  0  0  0  0  0  0
   -6.1222    4.5737    0.5754 H   0  0  0  0  0  0  0  0  0  0  0  0
   -7.1289    2.6937   -0.6725 H   0  0  0  0  0  0  0  0  0  0  0  0
   -2.6413    2.2101    1.4196 H   0  0  0  0  0  0  0  0  0  0  0  0
    6.4021    2.4577   -1.4001 H   0  0  0  0  0  0  0  0  0  0  0  0
    6.5235    0.6970   -1.4373 H   0  0  0  0  0  0  0  0  0  0  0  0
    8.4686    1.6190   -0.2840 H   0  0  0  0  0  0  0  0  0  0  0  0
    7.4521    2.5600    0.7982 H   0  0  0  0  0  0  0  0  0  0  0  0
    7.6948   -0.3430    0.7133 H   0  0  0  0  0  0  0  0  0  0  0  0
    6.1449   -0.4627    2.4499 H   0  0  0  0  0  0  0  0  0  0  0  0
    6.0376    1.2917    2.4634 H   0  0  0  0  0  0  0  0  0  0  0  0
    5.0701   -0.5903    0.2602 H   0  0  0  0  0  0  0  0  0  0  0  0
    4.0878    0.3842    1.3616 H   0  0  0  0  0  0  0  0  0  0  0  0
    2.7439   -1.3353   -1.0490 H   0  0  0  0  0  0  0  0  0  0  0  0
    2.4500    3.6854    0.0416 H   0  0  0  0  0  0  0  0  0  0  0  0
   -1.7487   -1.2303    0.2466 H   0  0  0  0  0  0  0  0  0  0  0  0
    4.1446    2.3546   -1.7263 H   0  0  0  0  0  0  0  0  0  0  0  0
    4.0516    0.6026   -1.7170 H   0  0  0  0  0  0  0  0  0  0  0  0
   -5.7635   -1.5747   -1.6581 H   0  0  0  0  0  0  0  0  0  0  0  0
  2  1  2  0
  6  1  1  0
  1 35  1  0
  3  2  1  0
  2 31  1  0
 26  3  1  0
  4  3  2  0
  4  5  1  0
  4 36  1  0
  5  6  2  0
  5 37  1  0
  6 38  1  0
  8  7  1  0
  7 12  2  0
  7 16  1  0
  9  8  2  0
 15  8  1  0
  9 10  1  0
 10 11  2  0
 10 57  1  0
 32 11  1  0
 11 12  1  0
 14 13  1  0
 13 16  2  0
 13 39  1  0
 15 14  2  0
 14 40  1  0
 15 41  1  0
 16 42  1  0
 18 17  1  0
 17 22  1  0
 17 43  1  0
 17 44  1  0
 18 19  1  0
 18 45  1  0
 18 46  1  0
 19 20  1  0
 19 47  1  0
 20 21  1  0
 20 48  1  0
 20 49  1  0
 21 22  1  0
 21 50  1  0
 21 51  1  0
 22 34  1  0
 30 23  1  0
 23 27  1  0
 23 24  1  0
 28 24  1  0
 24 25  2  0
 26 25  1  0
 27 26  2  0
 27 52  1  0
 29 28  1  0
 30 29  2  0
 29 53  1  0
 34 30  1  0
 31 32  1  0
 31 54  1  0
 32 33  2  0
 34 55  1  0
 34 56  1  0
M  END
