
     RDKit          3D

 73 76  0  0  0  0  0  0  0  0999 V2000
   -1.0148   -0.3763   -0.2299 N   0  0  0  0  0  0  0  0  0  0  0  0
   -2.3544   -0.5072   -0.1293 C   0  0  0  0  0  0  0  0  0  0  0  0
   -3.2324    0.4609    0.0113 N   0  0  0  0  0  0  0  0  0  0  0  0
   -2.7321    1.7200    0.0186 C   0  0  0  0  0  0  0  0  0  0  0  0
   -1.3611    1.9935   -0.0951 C   0  0  0  0  0  0  0  0  0  0  0  0
   -0.5098    0.8383   -0.2058 C   0  0  0  0  0  0  0  0  0  0  0  0
   -3.6298    2.8041    0.1443 C   0  0  0  0  0  0  0  0  0  0  0  0
   -3.1785    4.1001    0.1459 C   0  0  0  0  0  0  0  0  0  0  0  0
   -1.7830    4.3728    0.0197 C   0  0  0  0  0  0  0  0  0  0  0  0
   -0.9042    3.3296   -0.0983 C   0  0  0  0  0  0  0  0  0  0  0  0
   -1.4549    5.6788    0.0240 O   0  0  0  0  0  0  0  0  0  0  0  0
   -3.9545    5.1849    0.2548 O   0  0  0  0  0  0  0  0  0  0  0  0
    0.8214    0.9797   -0.3061 N   0  0  0  0  0  0  0  0  0  0  0  0
   -2.8050   -1.7827   -0.1919 N   0  0  0  0  0  0  0  0  0  0  0  0
   -4.1664   -2.1463    0.1188 C   0  0  0  0  0  0  0  0  0  0  0  0
   -4.4035   -3.6214   -0.1689 C   0  0  0  0  0  0  0  0  0  0  0  0
   -5.8264   -4.0227    0.1939 C   0  0  0  0  0  0  0  0  0  0  0  0
   -6.0831   -5.4438    0.0489 N   0  0  0  0  0  0  0  0  0  0  0  0
   -7.3367   -5.8073    0.6740 C   0  0  0  0  0  0  0  0  0  0  0  0
   -6.0627   -5.8720   -1.3340 C   0  0  0  0  0  0  0  0  0  0  0  0
    1.7634   -0.1205   -0.3348 C   0  0  2  0  0  0  0  0  0  0  0  0
    2.0349   -0.6969    1.0527 C   0  0  0  0  0  0  0  0  0  0  0  0
    3.1053   -1.7749    0.9879 C   0  0  0  0  0  0  0  0  0  0  0  0
    4.3328   -1.2527    0.4151 N   0  0  0  0  0  0  0  0  0  0  0  0
    4.1086   -0.7605   -0.9322 C   0  0  0  0  0  0  0  0  0  0  0  0
    3.0735    0.3515   -0.9519 C   0  0  0  0  0  0  0  0  0  0  0  0
    5.4040   -2.2255    0.4548 C   0  0  0  0  0  0  0  0  0  0  0  0
    6.7561   -1.6082    0.2017 C   0  0  0  0  0  0  0  0  0  0  0  0
    7.1137   -0.4078    0.8130 C   0  0  0  0  0  0  0  0  0  0  0  0
    8.3720    0.1408    0.6128 C   0  0  0  0  0  0  0  0  0  0  0  0
    9.2950   -0.5028   -0.2043 C   0  0  0  0  0  0  0  0  0  0  0  0
    8.9462   -1.6958   -0.8211 C   0  0  0  0  0  0  0  0  0  0  0  0
    7.6832   -2.2406   -0.6198 C   0  0  0  0  0  0  0  0  0  0  0  0
   -5.3543    5.0014    0.3516 C   0  0  0  0  0  0  0  0  0  0  0  0
   -0.0873    6.0148   -0.0727 C   0  0  0  0  0  0  0  0  0  0  0  0
   -4.6827    2.5736    0.2367 H   0  0  0  0  0  0  0  0  0  0  0  0
    0.1515    3.5386   -0.2080 H   0  0  0  0  0  0  0  0  0  0  0  0
    1.2139    1.8909   -0.1394 H   0  0  0  0  0  0  0  0  0  0  0  0
   -2.0993   -2.4958   -0.1043 H   0  0  0  0  0  0  0  0  0  0  0  0
   -4.4055   -1.9297    1.1678 H   0  0  0  0  0  0  0  0  0  0  0  0
   -4.8445   -1.5394   -0.4838 H   0  0  0  0  0  0  0  0  0  0  0  0
   -4.1975   -3.8129   -1.2246 H   0  0  0  0  0  0  0  0  0  0  0  0
   -3.7054   -4.2312    0.4128 H   0  0  0  0  0  0  0  0  0  0  0  0
   -5.9995   -3.7593    1.2416 H   0  0  0  0  0  0  0  0  0  0  0  0
   -6.5398   -3.4218   -0.3985 H   0  0  0  0  0  0  0  0  0  0  0  0
   -8.2108   -5.3157    0.2178 H   0  0  0  0  0  0  0  0  0  0  0  0
   -7.4908   -6.8852    0.6023 H   0  0  0  0  0  0  0  0  0  0  0  0
   -7.3216   -5.5431    1.7325 H   0  0  0  0  0  0  0  0  0  0  0  0
   -5.0879   -5.6902   -1.7855 H   0  0  0  0  0  0  0  0  0  0  0  0
   -6.2537   -6.9445   -1.3922 H   0  0  0  0  0  0  0  0  0  0  0  0
   -6.8201   -5.3643   -1.9535 H   0  0  0  0  0  0  0  0  0  0  0  0
    1.3403   -0.9074   -0.9651 H   0  0  0  0  0  0  0  0  0  0  0  0
    2.3698    0.1082    1.7139 H   0  0  0  0  0  0  0  0  0  0  0  0
    1.1182   -1.1128    1.4740 H   0  0  0  0  0  0  0  0  0  0  0  0
    3.3156   -2.1413    1.9954 H   0  0  0  0  0  0  0  0  0  0  0  0
    2.7250   -2.6368    0.4109 H   0  0  0  0  0  0  0  0  0  0  0  0
    5.0497   -0.3827   -1.3360 H   0  0  0  0  0  0  0  0  0  0  0  0
    3.7836   -1.5782   -1.6011 H   0  0  0  0  0  0  0  0  0  0  0  0
    2.9132    0.6824   -1.9803 H   0  0  0  0  0  0  0  0  0  0  0  0
    3.4553    1.2088   -0.3868 H   0  0  0  0  0  0  0  0  0  0  0  0
    5.4082   -2.6810    1.4505 H   0  0  0  0  0  0  0  0  0  0  0  0
    5.2431   -3.0521   -0.2578 H   0  0  0  0  0  0  0  0  0  0  0  0
    6.3941    0.1021    1.4413 H   0  0  0  0  0  0  0  0  0  0  0  0
    8.6347    1.0742    1.0943 H   0  0  0  0  0  0  0  0  0  0  0  0
   10.2766   -0.0743   -0.3611 H   0  0  0  0  0  0  0  0  0  0  0  0
    9.6529   -2.2010   -1.4669 H   0  0  0  0  0  0  0  0  0  0  0  0
    7.4151   -3.1694   -1.1105 H   0  0  0  0  0  0  0  0  0  0  0  0
   -5.7916    5.9952    0.4031 H   0  0  0  0  0  0  0  0  0  0  0  0
   -5.7549    4.4805   -0.5216 H   0  0  0  0  0  0  0  0  0  0  0  0
   -5.6300    4.4459    1.2516 H   0  0  0  0  0  0  0  0  0  0  0  0
    0.4914    5.6126    0.7635 H   0  0  0  0  0  0  0  0  0  0  0  0
    0.3562    5.6616   -1.0082 H   0  0  0  0  0  0  0  0  0  0  0  0
   -0.0313    7.1003   -0.0474 H   0  0  0  0  0  0  0  0  0  0  0  0
  6  1  2  0
  1  2  1  0
  3  2  2  0
  2 14  1  0
  4  3  1  0
  7  4  1  0
  5  4  2  0
 10  5  1  0
  5  6  1  0
 13  6  1  0
  8  7  2  0
  7 36  1  0
 12  8  1  0
  9  8  1  0
 11  9  1  0
  9 10  2  0
 10 37  1  0
 11 35  1  0
 34 12  1  0
 13 21  1  0
 13 38  1  0
 14 15  1  0
 14 39  1  0
 15 16  1  0
 15 40  1  0
 15 41  1  0
 17 16  1  0
 16 42  1  0
 16 43  1  0
 17 18  1  0
 17 44  1  0
 17 45  1  0
 19 18  1  0
 20 18  1  0
 19 46  1  0
 19 47  1  0
 19 48  1  0
 20 49  1  0
 20 50  1  0
 20 51  1  0
 22 21  1  0
 21 26  1  0
 21 52  1  6
 22 23  1  0
 22 53  1  0
 22 54  1  0
 23 24  1  0
 23 55  1  0
 23 56  1  0
 24 25  1  0
 24 27  1  0
 26 25  1  0
 25 57  1  0
 25 58  1  0
 26 59  1  0
 26 60  1  0
 27 28  1  0
 27 61  1  0
 27 62  1  0
 33 28  1  0
 28 29  2  0
 29 30  1  0
 29 63  1  0
 31 30  2  0
 30 64  1  0
 32 31  1  0
 31 65  1  0
 33 32  2  0
 32 66  1  0
 33 67  1  0
 34 68  1  0
 34 69  1  0
 34 70  1  0
 35 71  1  0
 35 72  1  0
 35 73  1  0
M  END
