
     RDKit          3D

 49 51  0  0  0  0  0  0  0  0999 V2000
    0.6894   -2.3074   -1.8290 C   0  0  0  0  0  0  0  0  0  0  0  0
   -0.0712   -1.2140   -1.0914 C   0  0  2  0  0  0  0  0  0  0  0  0
    0.7540    0.0525   -0.8884 C   0  0  0  0  0  0  0  0  0  0  0  0
    1.8366   -0.1956    0.0483 N   0  0  0  0  0  0  0  0  0  0  0  0
    1.3282   -0.5846    1.3557 C   0  0  0  0  0  0  0  0  0  0  0  0
    0.4864   -1.8409    1.2449 C   0  0  0  0  0  0  0  0  0  0  0  0
   -0.5435   -1.6371    0.2328 N   0  0  0  0  0  0  0  0  0  0  0  0
   -2.0232   -2.3101    0.3532 S   0  0  1  0  0  0  0  0  0  0  0  0
   -2.2669   -3.2583   -0.7241 O   0  0  0  0  0  0  0  0  0  0  0  0
   -2.2157   -2.7586    1.7203 O   0  0  0  0  0  0  0  0  0  0  0  0
   -3.1014   -0.9241    0.0296 C   0  0  0  0  0  0  0  0  0  0  0  0
   -3.9189   -0.9711   -1.0924 C   0  0  0  0  0  0  0  0  0  0  0  0
   -4.7770    0.0754   -1.3792 C   0  0  0  0  0  0  0  0  0  0  0  0
   -4.8117    1.1941   -0.5568 C   0  0  0  0  0  0  0  0  0  0  0  0
   -4.0033    1.2405    0.5731 C   0  0  0  0  0  0  0  0  0  0  0  0
   -3.1558    0.1860    0.8680 C   0  0  0  0  0  0  0  0  0  0  0  0
   -2.1927    0.3045    2.2901 Cl  0  0  0  0  0  0  0  0  0  0  0  0
   -5.7617    2.3042   -0.9015 C   0  0  0  0  0  0  0  0  0  0  0  0
   -6.7742    2.0717   -1.5432 O   0  0  0  0  0  0  0  0  0  0  0  0
   -5.4261    3.5231   -0.4615 N   0  0  0  0  0  0  0  0  0  0  0  0
    2.7977    0.8448    0.1173 C   0  0  0  0  0  0  0  0  0  0  0  0
    2.4406    2.1493    0.4465 C   0  0  0  0  0  0  0  0  0  0  0  0
    3.3856    3.1589    0.5287 C   0  0  0  0  0  0  0  0  0  0  0  0
    4.7050    2.8408    0.2822 C   0  0  0  0  0  0  0  0  0  0  0  0
    5.1046    1.5616   -0.0468 C   0  0  0  0  0  0  0  0  0  0  0  0
    4.1431    0.5621   -0.1311 C   0  0  0  0  0  0  0  0  0  0  0  0
    4.5525   -0.8279   -0.5275 C   0  0  1  0  0  0  0  0  0  0  0  0
    4.0053   -1.1931   -1.6923 F   0  0  0  0  0  0  0  0  0  0  0  0
    5.8796   -0.9289   -0.6851 F   0  0  0  0  0  0  0  0  0  0  0  0
    4.2127   -1.7473    0.3819 F   0  0  0  0  0  0  0  0  0  0  0  0
    5.6344    3.8027    0.3595 F   0  0  0  0  0  0  0  0  0  0  0  0
    0.0684   -3.1906   -1.9623 H   0  0  0  0  0  0  0  0  0  0  0  0
    0.9837   -1.9476   -2.8150 H   0  0  0  0  0  0  0  0  0  0  0  0
    1.5940   -2.5962   -1.2983 H   0  0  0  0  0  0  0  0  0  0  0  0
   -0.9394   -0.9189   -1.6873 H   0  0  0  0  0  0  0  0  0  0  0  0
    1.1722    0.3549   -1.8494 H   0  0  0  0  0  0  0  0  0  0  0  0
    0.0823    0.8565   -0.5511 H   0  0  0  0  0  0  0  0  0  0  0  0
    2.1630   -0.7874    2.0272 H   0  0  0  0  0  0  0  0  0  0  0  0
    0.7239    0.2133    1.8109 H   0  0  0  0  0  0  0  0  0  0  0  0
    1.1176   -2.6968    0.9916 H   0  0  0  0  0  0  0  0  0  0  0  0
    0.0257   -2.0424    2.2089 H   0  0  0  0  0  0  0  0  0  0  0  0
   -3.8845   -1.8279   -1.7495 H   0  0  0  0  0  0  0  0  0  0  0  0
   -5.4098    0.0206   -2.2537 H   0  0  0  0  0  0  0  0  0  0  0  0
   -4.0382    2.0838    1.2495 H   0  0  0  0  0  0  0  0  0  0  0  0
   -4.5241    3.7292   -0.0682 H   0  0  0  0  0  0  0  0  0  0  0  0
   -6.0134    4.3104   -0.6857 H   0  0  0  0  0  0  0  0  0  0  0  0
    1.4040    2.3876    0.6470 H   0  0  0  0  0  0  0  0  0  0  0  0
    3.0991    4.1706    0.7833 H   0  0  0  0  0  0  0  0  0  0  0  0
    6.1513    1.3677   -0.2354 H   0  0  0  0  0  0  0  0  0  0  0  0
  2  1  1  0
  1 32  1  0
  1 33  1  0
  1 34  1  0
  3  2  1  0
  2  7  1  0
  2 35  1  6
  3  4  1  0
  3 36  1  0
  3 37  1  0
 21  4  1  0
  4  5  1  0
  5  6  1  0
  5 38  1  0
  5 39  1  0
  7  6  1  0
  6 40  1  0
  6 41  1  0
  7  8  1  0
 10  8  2  0
  8  9  2  0
  8 11  1  6
 12 11  2  0
 11 16  1  0
 12 13  1  0
 12 42  1  0
 13 14  2  0
 13 43  1  0
 14 15  1  0
 14 18  1  0
 16 15  2  0
 15 44  1  0
 16 17  1  0
 19 18  2  0
 18 20  1  0
 20 45  1  0
 20 46  1  0
 22 21  2  0
 21 26  1  0
 23 22  1  0
 22 47  1  0
 23 24  2  0
 23 48  1  0
 31 24  1  0
 24 25  1  0
 25 26  2  0
 25 49  1  0
 26 27  1  0
 27 29  1  6
 27 28  1  0
 27 30  1  0
M  END
