
     RDKit          3D

 24 24  0  0  0  0  0  0  0  0999 V2000
   -1.4265   -1.5298   -0.0406 C   0  0  0  0  0  0  0  0  0  0  0  0
   -0.4339    0.7731    0.4297 N   0  0  0  0  0  0  0  0  0  0  0  0
   -2.3672   -2.1462   -0.4787 O   0  0  0  0  0  0  0  0  0  0  0  0
   -1.4124   -0.0615   -0.0122 C   0  0  0  0  0  0  0  0  0  0  0  0
   -0.7809    2.0389    0.2891 N   0  0  0  0  0  0  0  0  0  0  0  0
   -0.3366   -2.0985    0.4470 O   0  0  0  0  0  0  0  0  0  0  0  0
   -2.4497    0.7417   -0.4466 C   0  0  0  0  0  0  0  0  0  0  0  0
   -1.9975    2.0421   -0.2339 C   0  0  0  0  0  0  0  0  0  0  0  0
    1.9010    0.2899   -0.2338 C   0  0  0  0  0  0  0  0  0  0  0  0
    3.3055    0.0111    0.2866 C   0  0  0  0  0  0  0  0  0  0  0  0
    4.3229   -0.1402   -0.8353 C   0  0  0  0  0  0  0  0  0  0  0  0
   -0.4117   -3.0638    0.3931 H   0  0  0  0  0  0  0  0  0  0  0  0
   -3.3944    0.4203   -0.8514 H   0  0  0  0  0  0  0  0  0  0  0  0
   -2.5032    2.9737   -0.4337 H   0  0  0  0  0  0  0  0  0  0  0  0
    1.1992    1.3496    1.5093 H   0  0  0  0  0  0  0  0  0  0  0  0
    0.8876   -0.3747    1.5647 H   0  0  0  0  0  0  0  0  0  0  0  0
    1.5733   -0.5376   -0.8675 H   0  0  0  0  0  0  0  0  0  0  0  0
    1.9065    1.1865   -0.8608 H   0  0  0  0  0  0  0  0  0  0  0  0
    3.6147    0.8233    0.9508 H   0  0  0  0  0  0  0  0  0  0  0  0
    3.2946   -0.8958    0.8986 H   0  0  0  0  0  0  0  0  0  0  0  0
    4.0752   -0.9786   -1.4886 H   0  0  0  0  0  0  0  0  0  0  0  0
    4.3633    0.7591   -1.4527 H   0  0  0  0  0  0  0  0  0  0  0  0
    5.3241   -0.3150   -0.4402 H   0  0  0  0  0  0  0  0  0  0  0  0
    0.9123    0.4896    0.9065 C   0  0  0  0  0  0  0  0  0  0  0  0
  1  3  2  0
  1  4  1  0
  1  6  1  0
  2  4  1  0
  2  5  1  0
  2 24  1  0
  4  7  2  0
  5  8  2  0
  7  8  1  0
 24  9  1  0
  9 10  1  0
 10 11  1  0
  6 12  1  0
  7 13  1  0
  8 14  1  0
 24 15  1  0
 24 16  1  0
  9 17  1  0
  9 18  1  0
 10 19  1  0
 10 20  1  0
 11 21  1  0
 11 22  1  0
 11 23  1  0
M  END
