
     RDKit          3D

 21 21  0  0  0  0  0  0  0  0999 V2000
    0.9995   -0.0050    0.9719 C   0  0  0  0  0  0  0  0  0  0  0  0
    1.3511    0.0001   -0.3713 C   0  0  0  0  0  0  0  0  0  0  0  0
    0.3707    0.0006   -1.3554 C   0  0  0  0  0  0  0  0  0  0  0  0
   -0.9700   -0.0044   -0.9906 C   0  0  0  0  0  0  0  0  0  0  0  0
   -1.3281   -0.0099    0.3528 C   0  0  0  0  0  0  0  0  0  0  0  0
   -0.3436   -0.0101    1.3348 C   0  0  0  0  0  0  0  0  0  0  0  0
    2.0915   -0.0052    1.9821 C   0  0  0  0  0  0  0  0  0  0  0  0
    0.8068    0.0063   -2.7777 C   0  0  0  0  0  0  0  0  0  0  0  0
   -2.7775   -0.0153    0.6885 C   0  0  0  0  0  0  0  0  0  0  0  0
    3.2625   -0.0047    1.6931 O   0  0  0  0  0  0  0  0  0  0  0  0
    1.6399   -0.0062    3.2246 O   0  0  0  0  0  0  0  0  0  0  0  0
    1.9648    0.0103   -3.1149 O   0  0  0  0  0  0  0  0  0  0  0  0
   -0.2072    0.0066   -3.6259 O   0  0  0  0  0  0  0  0  0  0  0  0
   -3.6507   -0.0141   -0.1436 O   0  0  0  0  0  0  0  0  0  0  0  0
   -3.0033   -0.0213    1.9914 O   0  0  0  0  0  0  0  0  0  0  0  0
    2.3953    0.0042   -0.6538 H   0  0  0  0  0  0  0  0  0  0  0  0
   -1.7463   -0.0041   -1.7427 H   0  0  0  0  0  0  0  0  0  0  0  0
   -0.6217   -0.0147    2.3788 H   0  0  0  0  0  0  0  0  0  0  0  0
    2.3796   -0.0076    3.8508 H   0  0  0  0  0  0  0  0  0  0  0  0
    0.1183    0.0095   -4.5387 H   0  0  0  0  0  0  0  0  0  0  0  0
   -3.9567   -0.0248    2.1660 H   0  0  0  0  0  0  0  0  0  0  0  0
  1  2  2  0
  1  6  1  0
  1  7  1  0
  2  3  1  0
  2 16  1  0
  3  4  2  0
  3  8  1  0
  4  5  1  0
  4 17  1  0
  5  6  2  0
  5  9  1  0
  6 18  1  0
  7 10  2  0
  7 11  1  0
  8 12  2  0
  8 13  1  0
  9 14  2  0
  9 15  1  0
 11 19  1  0
 13 20  1  0
 15 21  1  0
M  END
