
     RDKit          3D

 14 13  0  0  0  0  0  0  0  0999 V2000
   -0.0229    0.0149    2.8766 C   0  0  0  0  0  0  0  0  0  0  0  0
    0.6275    0.0046    1.5033 C   0  0  0  0  0  0  0  0  0  0  0  0
   -0.6767    0.0871    0.2460 S   0  0  0  0  0  0  0  0  0  0  0  0
    0.2574    0.0645   -1.2618 C   0  0  0  0  0  0  0  0  0  0  0  0
   -0.5534    0.1508   -2.3557 N   0  0  0  0  0  0  0  0  0  0  0  0
    1.5271    0.0293   -1.2300 N   0  0  0  0  0  0  0  0  0  0  0  0
   -0.6877   -0.8377    3.0150 H   0  0  0  0  0  0  0  0  0  0  0  0
    0.7491   -0.0375    3.6436 H   0  0  0  0  0  0  0  0  0  0  0  0
   -0.5977    0.9258    3.0440 H   0  0  0  0  0  0  0  0  0  0  0  0
    1.2925    0.8569    1.3754 H   0  0  0  0  0  0  0  0  0  0  0  0
    1.2092   -0.9027    1.3492 H   0  0  0  0  0  0  0  0  0  0  0  0
   -0.1430   -0.0818   -3.2468 H   0  0  0  0  0  0  0  0  0  0  0  0
   -1.5165   -0.1319   -2.2707 H   0  0  0  0  0  0  0  0  0  0  0  0
    1.9138    0.0173   -2.1702 H   0  0  0  0  0  0  0  0  0  0  0  0
  1  2  1  0
  1  7  1  0
  1  8  1  0
  1  9  1  0
  2  3  1  0
  2 10  1  0
  2 11  1  0
  3  4  1  0
  4  5  1  0
  4  6  2  0
  5 12  1  0
  5 13  1  0
  6 14  1  0
M  END
