
     RDKit          3D

 29 30  0  0  0  0  0  0  0  0999 V2000
    1.8631   -0.1382   -0.0018 C   0  0  0  0  0  0  0  0  0  0  0  0
    2.0753    1.1438   -0.5097 C   0  0  0  0  0  0  0  0  0  0  0  0
    3.3626    1.6522   -0.5351 C   0  0  0  0  0  0  0  0  0  0  0  0
    4.4012    0.8711   -0.0531 C   0  0  0  0  0  0  0  0  0  0  0  0
    4.2155   -0.3526    0.4325 N   0  0  0  0  0  0  0  0  0  0  0  0
    2.9855   -0.8371    0.4534 C   0  0  0  0  0  0  0  0  0  0  0  0
    0.5454   -0.7396    0.0696 C   0  0  0  0  0  0  0  0  0  0  0  0
    0.0805   -1.9062    0.5983 C   0  0  0  0  0  0  0  0  0  0  0  0
   -1.3207   -1.9219    0.3593 C   0  0  0  0  0  0  0  0  0  0  0  0
   -1.6156   -0.7705   -0.2965 C   0  0  0  0  0  0  0  0  0  0  0  0
   -0.4837   -0.0541   -0.4736 O   0  0  0  0  0  0  0  0  0  0  0  0
   -2.8995   -0.1996   -0.7873 C   0  0  0  0  0  0  0  0  0  0  0  0
   -3.7090    0.3581    0.2847 N   0  0  0  0  0  0  0  0  0  0  0  0
   -3.0910    1.5178    0.8916 C   0  0  0  0  0  0  0  0  0  0  0  0
   -5.0394    0.6705   -0.1935 C   0  0  0  0  0  0  0  0  0  0  0  0
    1.2522    1.7425   -0.8768 H   0  0  0  0  0  0  0  0  0  0  0  0
    3.5599    2.6428   -0.9208 H   0  0  0  0  0  0  0  0  0  0  0  0
    5.4190    1.2438   -0.0584 H   0  0  0  0  0  0  0  0  0  0  0  0
    2.8754   -1.8403    0.8528 H   0  0  0  0  0  0  0  0  0  0  0  0
    0.6583   -2.6645    1.1017 H   0  0  0  0  0  0  0  0  0  0  0  0
   -2.0228   -2.6911    0.6381 H   0  0  0  0  0  0  0  0  0  0  0  0
   -3.4709   -1.0061   -1.2524 H   0  0  0  0  0  0  0  0  0  0  0  0
   -2.6949    0.5383   -1.5813 H   0  0  0  0  0  0  0  0  0  0  0  0
   -2.1205    1.2647    1.3189 H   0  0  0  0  0  0  0  0  0  0  0  0
   -2.9436    2.3486    0.1836 H   0  0  0  0  0  0  0  0  0  0  0  0
   -3.7175    1.8821    1.7064 H   0  0  0  0  0  0  0  0  0  0  0  0
   -5.0508    1.4351   -0.9858 H   0  0  0  0  0  0  0  0  0  0  0  0
   -5.5175   -0.2267   -0.5894 H   0  0  0  0  0  0  0  0  0  0  0  0
   -5.6507    1.0387    0.6314 H   0  0  0  0  0  0  0  0  0  0  0  0
  1  2  2  0
  1  6  1  0
  1  7  1  0
  2  3  1  0
  2 16  1  0
  3  4  2  0
  3 17  1  0
  4  5  1  0
  4 18  1  0
  5  6  2  0
  6 19  1  0
  7  8  2  0
  7 11  1  0
  8  9  1  0
  8 20  1  0
  9 10  2  0
  9 21  1  0
 10 11  1  0
 10 12  1  0
 12 13  1  0
 12 22  1  0
 12 23  1  0
 13 14  1  0
 13 15  1  0
 14 24  1  0
 14 25  1  0
 14 26  1  0
 15 27  1  0
 15 28  1  0
 15 29  1  0
M  END
