
     RDKit          3D

 52 53  0  0  0  0  0  0  0  0999 V2000
    7.1227    1.1604   -0.5046 C   0  0  0  0  0  0  0  0  0  0  0  0
    5.6596    1.5135   -0.2539 C   0  0  1  0  0  0  0  0  0  0  0  0
    5.4733    1.9001    1.2191 C   0  0  0  0  0  0  0  0  0  0  0  0
    5.2623    2.6871   -1.1595 C   0  0  0  0  0  0  0  0  0  0  0  0
    4.7825    0.3002   -0.5641 C   0  0  0  0  0  0  0  0  0  0  0  0
    5.2292   -0.7833   -0.9117 O   0  0  0  0  0  0  0  0  0  0  0  0
    3.4549    0.4789   -0.4247 N   0  0  0  0  0  0  0  0  0  0  0  0
    2.5308   -0.5913   -0.6881 C   0  0  1  0  0  0  0  0  0  0  0  0
    2.8658   -1.8068    0.1877 C   0  0  0  0  0  0  0  0  0  0  0  0
    3.1506   -1.7083    1.3619 O   0  0  0  0  0  0  0  0  0  0  0  0
    2.6883   -2.9702   -0.4634 N   0  0  0  0  0  0  0  0  0  0  0  0
    3.0138   -4.1387    0.1577 O   0  0  0  0  0  0  0  0  0  0  0  0
    1.1159   -0.1683   -0.3785 C   0  0  0  0  0  0  0  0  0  0  0  0
    0.7931    0.4325    0.8359 C   0  0  0  0  0  0  0  0  0  0  0  0
   -0.5135    0.7983    1.1119 C   0  0  0  0  0  0  0  0  0  0  0  0
    0.1021   -0.4045   -1.2990 C   0  0  0  0  0  0  0  0  0  0  0  0
   -1.2068   -0.0450   -1.0185 C   0  0  0  0  0  0  0  0  0  0  0  0
   -1.5362    0.5661    0.1908 C   0  0  0  0  0  0  0  0  0  0  0  0
   -2.9270    0.9609    0.4907 C   0  0  0  0  0  0  0  0  0  0  0  0
   -3.9924    0.1542    0.1006 C   0  0  0  0  0  0  0  0  0  0  0  0
   -3.1982    2.1461    1.1777 C   0  0  0  0  0  0  0  0  0  0  0  0
   -4.5045    2.5083    1.4611 C   0  0  0  0  0  0  0  0  0  0  0  0
   -5.5597    1.6990    1.0664 C   0  0  0  0  0  0  0  0  0  0  0  0
   -5.3090    0.5117    0.3811 C   0  0  0  0  0  0  0  0  0  0  0  0
   -6.4246   -0.3591   -0.0485 C   0  0  0  0  0  0  0  0  0  0  0  0
   -7.5783   -0.3079    0.6766 N   0  0  0  0  0  0  0  0  0  0  0  0
   -6.2401   -1.0524   -1.1107 N   0  0  0  0  0  0  0  0  0  0  0  0
   -7.3418   -1.8421   -1.3931 O   0  0  0  0  0  0  0  0  0  0  0  0
    7.4573    0.3371    0.1263 H   0  0  0  0  0  0  0  0  0  0  0  0
    7.3008    0.8838   -1.5440 H   0  0  0  0  0  0  0  0  0  0  0  0
    7.7475    2.0257   -0.2790 H   0  0  0  0  0  0  0  0  0  0  0  0
    6.1370    2.7291    1.4699 H   0  0  0  0  0  0  0  0  0  0  0  0
    4.4543    2.2188    1.4413 H   0  0  0  0  0  0  0  0  0  0  0  0
    5.7164    1.0688    1.8830 H   0  0  0  0  0  0  0  0  0  0  0  0
    5.3356    2.4187   -2.2148 H   0  0  0  0  0  0  0  0  0  0  0  0
    4.2481    3.0451   -0.9736 H   0  0  0  0  0  0  0  0  0  0  0  0
    5.9343    3.5283   -0.9836 H   0  0  0  0  0  0  0  0  0  0  0  0
    3.0839    1.3833   -0.1847 H   0  0  0  0  0  0  0  0  0  0  0  0
    2.5816   -0.8764   -1.7443 H   0  0  0  0  0  0  0  0  0  0  0  0
    2.6965   -3.0199   -1.4726 H   0  0  0  0  0  0  0  0  0  0  0  0
    2.1777   -4.5287    0.4429 H   0  0  0  0  0  0  0  0  0  0  0  0
    1.5583    0.6063    1.5823 H   0  0  0  0  0  0  0  0  0  0  0  0
   -0.7417    1.2501    2.0689 H   0  0  0  0  0  0  0  0  0  0  0  0
    0.3366   -0.8632   -2.2520 H   0  0  0  0  0  0  0  0  0  0  0  0
   -1.9719   -0.2199   -1.7644 H   0  0  0  0  0  0  0  0  0  0  0  0
   -3.7987   -0.7834   -0.4039 H   0  0  0  0  0  0  0  0  0  0  0  0
   -2.3863    2.7973    1.4768 H   0  0  0  0  0  0  0  0  0  0  0  0
   -4.7058    3.4346    1.9827 H   0  0  0  0  0  0  0  0  0  0  0  0
   -6.5746    2.0083    1.2791 H   0  0  0  0  0  0  0  0  0  0  0  0
   -7.4948   -0.0885    1.6553 H   0  0  0  0  0  0  0  0  0  0  0  0
   -7.1025   -2.2838   -2.2127 H   0  0  0  0  0  0  0  0  0  0  0  0
   -8.2779   -1.0047    0.4800 H   0  0  0  0  0  0  0  0  0  0  0  0
  6  5  2  0
 22 21  2  0
 22 23  1  0
 21 19  1  0
 23 24  2  0
 15 14  1  0
 15 18  2  0
  4  2  1  0
 14 13  2  0
 19 18  1  0
 19 20  2  0
 18 17  1  0
  2  5  1  6
  5  7  1  0
 24 20  1  0
 24 25  1  0
 13  8  1  0
 13 16  1  0
 25 26  1  0
 25 27  2  0
  8  7  1  0
  8  9  1  0
  2  1  1  0
  2  3  1  0
 17 16  2  0
 27 28  1  0
 11  9  1  0
 11 12  1  0
  9 10  2  0
  1 29  1  0
  1 30  1  0
  1 31  1  0
  3 32  1  0
  3 33  1  0
  3 34  1  0
  4 35  1  0
  4 36  1  0
  4 37  1  0
  7 38  1  0
  8 39  1  6
 11 40  1  0
 12 41  1  0
 14 42  1  0
 15 43  1  0
 16 44  1  0
 17 45  1  0
 20 46  1  0
 21 47  1  0
 22 48  1  0
 23 49  1  0
 26 50  1  0
 28 51  1  0
 26 52  1  0
M  END
