
     RDKit          3D

 46 48  0  0  0  0  0  0  0  0999 V2000
    0.2272    1.1616   -5.0417 C   0  0  0  0  0  0  0  0  0  0  0  0
    0.1226   -0.9689   -4.2205 C   0  0  0  0  0  0  0  0  0  0  0  0
   -0.2512   -0.4496   -2.9280 C   0  0  0  0  0  0  0  0  0  0  0  0
   -0.4977   -1.2506   -1.7997 C   0  0  0  0  0  0  0  0  0  0  0  0
   -0.8675   -0.6892   -0.5841 C   0  0  0  0  0  0  0  0  0  0  0  0
   -0.9593    0.7276   -0.5275 C   0  0  0  0  0  0  0  0  0  0  0  0
   -0.3537    0.9496   -2.8647 C   0  0  0  0  0  0  0  0  0  0  0  0
   -2.5777    1.0501    5.2813 C   0  0  0  0  0  0  0  0  0  0  0  0
   -1.5814   -0.8851    1.7565 C   0  0  0  0  0  0  0  0  0  0  0  0
   -0.8496   -2.8797    0.4788 C   0  0  0  0  0  0  0  0  0  0  0  0
   -0.4875   -0.3193    2.6389 C   0  0  0  0  0  0  0  0  0  0  0  0
   -0.8375    0.3288    3.8352 C   0  0  0  0  0  0  0  0  0  0  0  0
    0.1544    0.8448    4.6522 C   0  0  0  0  0  0  0  0  0  0  0  0
    1.5000    0.7268    4.3025 C   0  0  0  0  0  0  0  0  0  0  0  0
    1.8525    0.0880    3.1251 C   0  0  0  0  0  0  0  0  0  0  0  0
    4.1682    0.4514    3.4715 C   0  0  0  0  0  0  0  0  0  0  0  0
    0.8469   -0.4300    2.3036 C   0  0  0  0  0  0  0  0  0  0  0  0
   -0.1104    1.7610   -3.9258 N   0  0  0  0  0  0  0  0  0  0  0  0
    0.4361    1.9284   -6.1481 N   0  0  0  0  0  0  0  0  0  0  0  0
    0.3521   -0.1683   -5.2375 N   0  0  0  0  0  0  0  0  0  0  0  0
    0.2686   -2.2857   -4.4221 N   0  0  0  0  0  0  0  0  0  0  0  0
   -0.7162    1.5102   -1.6232 C   0  0  0  0  0  0  0  0  0  0  0  0
   -2.1625    0.3970    4.1011 O   0  0  0  0  0  0  0  0  0  0  0  0
    3.1218   -0.0822    2.6894 O   0  0  0  0  0  0  0  0  0  0  0  0
   -1.1292   -1.4654    0.5208 N   0  0  0  0  0  0  0  0  0  0  0  0
   -0.3998   -2.3239   -1.8798 H   0  0  0  0  0  0  0  0  0  0  0  0
   -1.2122    1.2223    0.4000 H   0  0  0  0  0  0  0  0  0  0  0  0
   -3.6634    0.9936    5.3022 H   0  0  0  0  0  0  0  0  0  0  0  0
   -2.1842    0.5651    6.1789 H   0  0  0  0  0  0  0  0  0  0  0  0
   -2.2804    2.1024    5.2932 H   0  0  0  0  0  0  0  0  0  0  0  0
   -2.1252   -1.6546    2.3096 H   0  0  0  0  0  0  0  0  0  0  0  0
   -2.3284   -0.1120    1.5558 H   0  0  0  0  0  0  0  0  0  0  0  0
   -1.0333   -3.3122    1.4588 H   0  0  0  0  0  0  0  0  0  0  0  0
   -1.4866   -3.4057   -0.2389 H   0  0  0  0  0  0  0  0  0  0  0  0
    0.1918   -3.0870    0.2150 H   0  0  0  0  0  0  0  0  0  0  0  0
   -0.0899    1.3469    5.5785 H   0  0  0  0  0  0  0  0  0  0  0  0
    2.2427    1.1432    4.9694 H   0  0  0  0  0  0  0  0  0  0  0  0
    5.0950    0.2258    2.9490 H   0  0  0  0  0  0  0  0  0  0  0  0
    4.0833    1.5361    3.5840 H   0  0  0  0  0  0  0  0  0  0  0  0
    4.2080   -0.0004    4.4668 H   0  0  0  0  0  0  0  0  0  0  0  0
    1.1343   -0.9236    1.3832 H   0  0  0  0  0  0  0  0  0  0  0  0
    0.9726    1.5162   -6.8922 H   0  0  0  0  0  0  0  0  0  0  0  0
    0.6029    2.9086   -5.9945 H   0  0  0  0  0  0  0  0  0  0  0  0
    0.4423   -2.6155   -5.3563 H   0  0  0  0  0  0  0  0  0  0  0  0
   -0.0375   -2.9673   -3.7524 H   0  0  0  0  0  0  0  0  0  0  0  0
   -0.7905    2.5873   -1.5413 H   0  0  0  0  0  0  0  0  0  0  0  0
  1 18  2  0
  1 19  1  0
  1 20  1  0
  2  3  1  0
  2 20  2  0
  2 21  1  0
  3  4  1  0
  3  7  2  0
  4  5  2  0
  4 26  1  0
  5  6  1  0
  5 25  1  0
  6 22  2  0
  6 27  1  0
  7 18  1  0
  7 22  1  0
  8 23  1  0
  8 28  1  0
  8 29  1  0
  8 30  1  0
  9 11  1  0
  9 25  1  0
  9 31  1  0
  9 32  1  0
 10 25  1  0
 10 33  1  0
 10 34  1  0
 10 35  1  0
 11 12  2  0
 11 17  1  0
 12 13  1  0
 12 23  1  0
 13 14  2  0
 13 36  1  0
 14 15  1  0
 14 37  1  0
 15 17  2  0
 15 24  1  0
 16 24  1  0
 16 38  1  0
 16 39  1  0
 16 40  1  0
 17 41  1  0
 19 42  1  0
 19 43  1  0
 21 44  1  0
 21 45  1  0
 22 46  1  0
M  END
