
     RDKit          3D

 24 23  0  0  0  0  0  0  0  0999 V2000
    0.5749   -0.0000   -2.0044 C   0  0  0  0  0  0  0  0  0  0  0  0
    1.0182   -0.3692   -0.5925 C   0  0  1  0  0  0  0  0  0  0  0  0
    0.1238    0.3208    0.4643 C   0  0  1  0  0  0  0  0  0  0  0  0
   -1.3215   -0.0291    0.1979 C   0  0  0  0  0  0  0  0  0  0  0  0
    0.5091   -0.0785    1.9074 C   0  0  1  0  0  0  0  0  0  0  0  0
    1.9670    0.2693    2.1921 C   0  0  0  0  0  0  0  0  0  0  0  0
   -0.3955    0.6103    2.9269 C   0  0  0  0  0  0  0  0  0  0  0  0
    1.1088   -1.7493   -0.4462 O   0  0  0  0  0  0  0  0  0  0  0  0
    0.6395    1.3079   -2.2078 O   0  0  0  0  0  0  0  0  0  0  0  0
    0.2089   -0.7956   -2.8290 O   0  0  0  0  0  0  0  0  0  0  0  0
   -1.7003   -1.1601   -0.0109 O   0  0  0  0  0  0  0  0  0  0  0  0
   -2.1305    1.0151    0.2097 O   0  0  0  0  0  0  0  0  0  0  0  0
    2.0289    0.0315   -0.4699 H   0  0  0  0  0  0  0  0  0  0  0  0
    0.2563    1.4018    0.3702 H   0  0  0  0  0  0  0  0  0  0  0  0
    0.3838   -1.1596    2.0116 H   0  0  0  0  0  0  0  0  0  0  0  0
    2.2045    0.0611    3.2358 H   0  0  0  0  0  0  0  0  0  0  0  0
    2.6650   -0.3070    1.5855 H   0  0  0  0  0  0  0  0  0  0  0  0
    2.1589    1.3296    2.0136 H   0  0  0  0  0  0  0  0  0  0  0  0
   -0.3277    1.6970    2.8429 H   0  0  0  0  0  0  0  0  0  0  0  0
   -1.4445    0.3314    2.8233 H   0  0  0  0  0  0  0  0  0  0  0  0
   -0.0947    0.3361    3.9382 H   0  0  0  0  0  0  0  0  0  0  0  0
    0.2154   -2.1149   -0.4489 H   0  0  0  0  0  0  0  0  0  0  0  0
    0.3427    1.5273   -3.1043 H   0  0  0  0  0  0  0  0  0  0  0  0
   -3.0468    0.7338    0.0583 H   0  0  0  0  0  0  0  0  0  0  0  0
  1  2  1  0
  1  9  1  0
  1 10  2  0
  2  3  1  0
  2  8  1  0
  2 13  1  1
  3  4  1  0
  3  5  1  0
  3 14  1  1
  4 11  2  0
  4 12  1  0
  5  6  1  0
  5  7  1  0
  5 15  1  6
  6 16  1  0
  6 17  1  0
  6 18  1  0
  7 19  1  0
  7 20  1  0
  7 21  1  0
  8 22  1  0
  9 23  1  0
 12 24  1  0
M  END
