
     RDKit          3D

 43 42  0  0  0  0  0  0  0  0999 V2000
   -0.1750   -0.0207   -6.2145 S   0  0  1  0  0  0  0  0  0  0  0  0
   -1.3226    0.1894   -7.0517 O   0  0  0  0  0  0  0  0  0  0  0  0
   -0.7038    0.1999   -4.7475 O   0  0  0  0  0  0  0  0  0  0  0  0
    0.1326   -1.5804   -6.1777 O   0  0  0  0  0  0  0  0  0  0  0  0
    1.0520    0.7017   -6.4434 O   0  0  0  0  0  0  0  0  0  0  0  0
    0.2334    0.1981   -3.6360 C   0  0  0  0  0  0  0  0  0  0  0  0
   -0.2888   -0.1568   10.3192 C   0  0  0  0  0  0  0  0  0  0  0  0
    0.5347   -0.0076    9.0474 C   0  0  0  0  0  0  0  0  0  0  0  0
   -0.3082   -0.1129    7.7824 C   0  0  0  0  0  0  0  0  0  0  0  0
    0.5019    0.0303    6.5001 C   0  0  0  0  0  0  0  0  0  0  0  0
   -0.3506   -0.0519    5.2400 C   0  0  0  0  0  0  0  0  0  0  0  0
    0.4589    0.0501    3.9533 C   0  0  0  0  0  0  0  0  0  0  0  0
   -0.4031   -0.0115    2.6984 C   0  0  0  0  0  0  0  0  0  0  0  0
    0.3993    0.0823    1.4068 C   0  0  0  0  0  0  0  0  0  0  0  0
   -0.4757    0.0389    0.1604 C   0  0  0  0  0  0  0  0  0  0  0  0
    0.3197    0.1308   -1.1356 C   0  0  0  0  0  0  0  0  0  0  0  0
   -0.5803    0.1008   -2.3668 C   0  0  0  0  0  0  0  0  0  0  0  0
    1.0304   -1.7874   -6.4856 H   0  0  0  0  0  0  0  0  0  0  0  0
    0.8142    1.1211   -3.6661 H   0  0  0  0  0  0  0  0  0  0  0  0
    0.9153   -0.6509   -3.7244 H   0  0  0  0  0  0  0  0  0  0  0  0
    0.3327   -0.0880   11.2129 H   0  0  0  0  0  0  0  0  0  0  0  0
   -1.0536    0.6194   10.3880 H   0  0  0  0  0  0  0  0  0  0  0  0
   -0.7986   -1.1220   10.3459 H   0  0  0  0  0  0  0  0  0  0  0  0
    1.0550    0.9555    9.0564 H   0  0  0  0  0  0  0  0  0  0  0  0
    1.3167   -0.7730    9.0257 H   0  0  0  0  0  0  0  0  0  0  0  0
   -0.8299   -1.0769    7.7757 H   0  0  0  0  0  0  0  0  0  0  0  0
   -1.0918    0.6531    7.8053 H   0  0  0  0  0  0  0  0  0  0  0  0
    1.0379    0.9861    6.5132 H   0  0  0  0  0  0  0  0  0  0  0  0
    1.2729   -0.7479    6.4687 H   0  0  0  0  0  0  0  0  0  0  0  0
   -0.9110   -0.9939    5.2415 H   0  0  0  0  0  0  0  0  0  0  0  0
   -1.1020    0.7456    5.2595 H   0  0  0  0  0  0  0  0  0  0  0  0
    1.0301    0.9856    3.9557 H   0  0  0  0  0  0  0  0  0  0  0  0
    1.1999   -0.7566    3.9251 H   0  0  0  0  0  0  0  0  0  0  0  0
   -0.9790   -0.9440    2.6999 H   0  0  0  0  0  0  0  0  0  0  0  0
   -1.1406    0.7986    2.7267 H   0  0  0  0  0  0  0  0  0  0  0  0
    0.9850    1.0085    1.4077 H   0  0  0  0  0  0  0  0  0  0  0  0
    1.1263   -0.7365    1.3695 H   0  0  0  0  0  0  0  0  0  0  0  0
   -1.0618   -0.8868    0.1603 H   0  0  0  0  0  0  0  0  0  0  0  0
   -1.2015    0.8583    0.1991 H   0  0  0  0  0  0  0  0  0  0  0  0
    0.9126    1.0516   -1.1355 H   0  0  0  0  0  0  0  0  0  0  0  0
    1.0356   -0.6962   -1.1834 H   0  0  0  0  0  0  0  0  0  0  0  0
   -1.1617   -0.8252   -2.3751 H   0  0  0  0  0  0  0  0  0  0  0  0
   -1.2908    0.9304   -2.3209 H   0  0  0  0  0  0  0  0  0  0  0  0
  1  2  2  0
  1  3  1  1
  1  4  1  0
  1  5  2  0
  3  6  1  0
  4 18  1  0
  6 17  1  0
  6 19  1  0
  6 20  1  0
  7  8  1  0
  7 21  1  0
  7 22  1  0
  7 23  1  0
  8  9  1  0
  8 24  1  0
  8 25  1  0
  9 10  1  0
  9 26  1  0
  9 27  1  0
 10 11  1  0
 10 28  1  0
 10 29  1  0
 11 12  1  0
 11 30  1  0
 11 31  1  0
 12 13  1  0
 12 32  1  0
 12 33  1  0
 13 14  1  0
 13 34  1  0
 13 35  1  0
 14 15  1  0
 14 36  1  0
 14 37  1  0
 15 16  1  0
 15 38  1  0
 15 39  1  0
 16 17  1  0
 16 40  1  0
 16 41  1  0
 17 42  1  0
 17 43  1  0
M  END
