
     RDKit          3D

 36 37  0  0  0  0  0  0  0  0999 V2000
    1.7634    0.0398    0.1383 N   0  0  0  0  0  0  0  0  0  0  0  0
    3.9496    1.0886   -0.1752 C   0  0  0  0  0  0  0  0  0  0  0  0
    0.3689    0.0966    0.0678 C   0  0  0  0  0  0  0  0  0  0  0  0
   -0.3016    1.2958    0.3468 C   0  0  0  0  0  0  0  0  0  0  0  0
   -1.6782    1.3714    0.3154 C   0  0  0  0  0  0  0  0  0  0  0  0
   -2.4636    0.2544    0.0173 C   0  0  0  0  0  0  0  0  0  0  0  0
   -6.2287    0.1351   -0.2327 C   0  0  0  0  0  0  0  0  0  0  0  0
    4.5664   -0.2120   -0.3292 N   0  0  0  0  0  0  0  0  0  0  0  0
    5.9689   -0.1834    0.0158 C   0  0  0  0  0  0  0  0  0  0  0  0
   -4.6236   -1.5381   -0.8025 O   0  0  0  0  0  0  0  0  0  0  0  0
    3.8415   -1.1927    0.4498 C   0  0  0  0  0  0  0  0  0  0  0  0
   -1.8126   -0.9441   -0.2551 C   0  0  0  0  0  0  0  0  0  0  0  0
   -0.4237   -1.0109   -0.2377 C   0  0  0  0  0  0  0  0  0  0  0  0
    2.3872   -1.2621    0.0222 C   0  0  0  0  0  0  0  0  0  0  0  0
    2.4977    1.0529   -0.6078 C   0  0  0  0  0  0  0  0  0  0  0  0
   -4.8318   -0.4198   -0.3598 C   0  0  0  0  0  0  0  0  0  0  0  0
   -3.8547    0.4295    0.0377 N   0  0  0  0  0  0  0  0  0  0  0  0
    4.0068    1.4459    0.8681 H   0  0  0  0  0  0  0  0  0  0  0  0
    4.4807    1.8157   -0.7941 H   0  0  0  0  0  0  0  0  0  0  0  0
    0.2554    2.1843    0.6145 H   0  0  0  0  0  0  0  0  0  0  0  0
   -2.1544    2.3182    0.5442 H   0  0  0  0  0  0  0  0  0  0  0  0
   -6.8756   -0.6119    0.2247 H   0  0  0  0  0  0  0  0  0  0  0  0
   -6.2848    1.0513    0.3517 H   0  0  0  0  0  0  0  0  0  0  0  0
   -6.6238    0.3426   -1.2282 H   0  0  0  0  0  0  0  0  0  0  0  0
    6.1512    0.0887    1.0670 H   0  0  0  0  0  0  0  0  0  0  0  0
    6.4180   -1.1624   -0.1589 H   0  0  0  0  0  0  0  0  0  0  0  0
    6.4920    0.5411   -0.6103 H   0  0  0  0  0  0  0  0  0  0  0  0
    4.2926   -2.1765    0.3017 H   0  0  0  0  0  0  0  0  0  0  0  0
    3.8904   -0.9715    1.5308 H   0  0  0  0  0  0  0  0  0  0  0  0
   -2.3681   -1.8359   -0.4943 H   0  0  0  0  0  0  0  0  0  0  0  0
    0.0293   -1.9629   -0.4788 H   0  0  0  0  0  0  0  0  0  0  0  0
    1.8734   -1.9711    0.6730 H   0  0  0  0  0  0  0  0  0  0  0  0
    2.3293   -1.6536   -1.0051 H   0  0  0  0  0  0  0  0  0  0  0  0
    2.4409    0.8564   -1.6892 H   0  0  0  0  0  0  0  0  0  0  0  0
    2.0657    2.0368   -0.4337 H   0  0  0  0  0  0  0  0  0  0  0  0
   -4.1593    1.3318    0.3693 H   0  0  0  0  0  0  0  0  0  0  0  0
 10 16  2  0
 16  7  1  0
 16 17  1  0
 17  6  1  0
  6 12  2  0
  6  5  1  0
 12 13  1  0
  5  4  2  0
 13  3  2  0
  4  3  1  0
  3  1  1  0
  1 14  1  0
  1 15  1  0
 14 11  1  0
 15  2  1  0
 11  8  1  0
  2  8  1  0
  8  9  1  0
  2 18  1  0
  2 19  1  0
  4 20  1  0
  5 21  1  0
  7 22  1  0
  7 23  1  0
  7 24  1  0
  9 25  1  0
  9 26  1  0
  9 27  1  0
 11 28  1  0
 11 29  1  0
 12 30  1  0
 13 31  1  0
 14 32  1  0
 14 33  1  0
 15 34  1  0
 15 35  1  0
 17 36  1  0
M  END
