
     RDKit          3D

 42 44  0  0  0  0  0  0  0  0999 V2000
    2.9326    0.3051    0.2067 C   0  0  0  0  0  0  0  0  0  0  0  0
    4.2250    0.8301    0.2262 C   0  0  0  0  0  0  0  0  0  0  0  0
    4.4099    2.1092    0.5667 O   0  0  0  0  0  0  0  0  0  0  0  0
    5.3325    0.0335   -0.1117 C   0  0  0  0  0  0  0  0  0  0  0  0
    6.7058    0.5637   -0.1028 C   0  0  0  0  0  0  0  0  0  0  0  0
    7.0301    1.6840    0.2166 O   0  0  0  0  0  0  0  0  0  0  0  0
    7.6024   -0.3422   -0.4969 O   0  0  0  0  0  0  0  0  0  0  0  0
    5.0798   -1.3006   -0.4596 C   0  0  0  0  0  0  0  0  0  0  0  0
    3.8128   -1.8276   -0.4767 C   0  0  0  0  0  0  0  0  0  0  0  0
    2.7126   -1.0223   -0.1421 C   0  0  0  0  0  0  0  0  0  0  0  0
    1.4704   -1.6304   -0.1820 N   0  0  0  0  0  0  0  0  0  0  0  0
    0.2383   -1.0817    0.0830 C   0  0  0  0  0  0  0  0  0  0  0  0
    0.0648    0.0850    0.3792 O   0  0  0  0  0  0  0  0  0  0  0  0
   -0.7683   -1.9988   -0.0307 N   0  0  0  0  0  0  0  0  0  0  0  0
   -2.1273   -1.7712    0.2115 C   0  0  0  0  0  0  0  0  0  0  0  0
   -2.7493   -0.5493   -0.0333 C   0  0  0  0  0  0  0  0  0  0  0  0
   -2.8898   -2.8488    0.6633 C   0  0  0  0  0  0  0  0  0  0  0  0
   -4.2503   -2.6964    0.8701 C   0  0  0  0  0  0  0  0  0  0  0  0
   -4.8670   -1.4750    0.6464 C   0  0  0  0  0  0  0  0  0  0  0  0
   -4.1164   -0.3910    0.1930 C   0  0  0  0  0  0  0  0  0  0  0  0
   -4.7525    0.9194   -0.0563 C   0  0  0  0  0  0  0  0  0  0  0  0
   -4.0891    2.1053    0.2650 C   0  0  0  0  0  0  0  0  0  0  0  0
   -4.6825    3.3373    0.0319 C   0  0  0  0  0  0  0  0  0  0  0  0
   -5.9517    3.4069   -0.5275 C   0  0  0  0  0  0  0  0  0  0  0  0
   -6.6219    2.2344   -0.8518 C   0  0  0  0  0  0  0  0  0  0  0  0
   -6.0283    1.0025   -0.6174 C   0  0  0  0  0  0  0  0  0  0  0  0
    2.1067    0.9504    0.4650 H   0  0  0  0  0  0  0  0  0  0  0  0
    3.5613    2.5178    0.7770 H   0  0  0  0  0  0  0  0  0  0  0  0
    8.4865    0.0515   -0.4666 H   0  0  0  0  0  0  0  0  0  0  0  0
    5.9026   -1.9504   -0.7214 H   0  0  0  0  0  0  0  0  0  0  0  0
    3.6652   -2.8660   -0.7447 H   0  0  0  0  0  0  0  0  0  0  0  0
    1.4922   -2.6036   -0.4468 H   0  0  0  0  0  0  0  0  0  0  0  0
   -0.5108   -2.9689   -0.1330 H   0  0  0  0  0  0  0  0  0  0  0  0
   -2.1842    0.2787   -0.4325 H   0  0  0  0  0  0  0  0  0  0  0  0
   -2.4157   -3.8043    0.8536 H   0  0  0  0  0  0  0  0  0  0  0  0
   -4.8308   -3.5380    1.2246 H   0  0  0  0  0  0  0  0  0  0  0  0
   -5.9257   -1.3636    0.8420 H   0  0  0  0  0  0  0  0  0  0  0  0
   -3.1069    2.0660    0.7206 H   0  0  0  0  0  0  0  0  0  0  0  0
   -4.1541    4.2450    0.2933 H   0  0  0  0  0  0  0  0  0  0  0  0
   -6.4147    4.3678   -0.7103 H   0  0  0  0  0  0  0  0  0  0  0  0
   -7.6078    2.2778   -1.2967 H   0  0  0  0  0  0  0  0  0  0  0  0
   -6.5555    0.0976   -0.8934 H   0  0  0  0  0  0  0  0  0  0  0  0
 23 24  1  0
 23 22  2  0
 24 25  2  0
 22 21  1  0
 25 26  1  0
 21 26  2  0
 21 20  1  0
  9  8  2  0
  9 10  1  0
  8  4  1  0
 16 20  2  0
 16 15  1  0
  6  5  2  0
 11 10  1  0
 11 12  1  0
 20 19  1  0
 14 15  1  0
 14 12  1  0
 10  1  2  0
  4  5  1  0
  4  2  2  0
 15 17  2  0
 12 13  2  0
  5  7  1  0
 19 18  2  0
  1  2  1  0
  2  3  1  0
 17 18  1  0
  1 27  1  0
  3 28  1  0
  7 29  1  0
  8 30  1  0
  9 31  1  0
 11 32  1  0
 14 33  1  0
 16 34  1  0
 17 35  1  0
 18 36  1  0
 19 37  1  0
 22 38  1  0
 23 39  1  0
 24 40  1  0
 25 41  1  0
 26 42  1  0
M  END
