
     RDKit          3D

 38 38  0  0  0  0  0  0  0  0999 V2000
   33.3756   59.2503   21.7253 Be  0  0  1  0  0  0  0  0  0  0  0  0
   32.5302   59.4781   22.9285 F   0  0  0  0  0  0  0  0  0  0  0  0
   32.6198   58.2922   20.6536 F   0  0  0  0  0  0  0  0  0  0  0  0
   34.0225   60.4079   21.0534 F   0  0  0  0  0  0  0  0  0  0  0  0
   34.8338   56.7351   21.8482 P   0  0  1  0  0  0  0  0  0  0  0  0
   34.5255   55.9124   23.1833 O   0  0  0  0  0  0  0  0  0  0  0  0
   33.8973   56.3447   20.6910 O   0  0  0  0  0  0  0  0  0  0  0  0
   34.7680   58.1697   22.2876 O   0  0  0  0  0  0  0  0  0  0  0  0
   36.3037   56.2292   21.4678 O   0  0  0  0  0  0  0  0  0  0  0  0
   37.0710   56.4875   20.0465 P   0  0  1  0  0  0  0  0  0  0  0  0
   36.9525   55.0575   19.3916 O   0  0  0  0  0  0  0  0  0  0  0  0
   36.5620   57.6622   19.3251 O   0  0  0  0  0  0  0  0  0  0  0  0
   38.5782   56.5165   20.5329 O   0  0  0  0  0  0  0  0  0  0  0  0
   41.3563   57.0218   20.4107 N   0  0  0  0  0  0  0  0  0  0  0  0
   40.5493   57.3891   21.5536 C   0  0  0  0  0  0  0  0  0  0  0  0
   39.1373   57.6999   21.1295 C   0  0  0  0  0  0  0  0  0  0  0  0
   42.6576   56.7488   20.4687 C   0  0  0  0  0  0  0  0  0  0  0  0
   43.3476   56.8569   21.7062 C   0  0  0  0  0  0  0  0  0  0  0  0
   44.6811   56.5956   21.8248 C   0  0  0  0  0  0  0  0  0  0  0  0
   45.4180   56.2038   20.7008 C   0  0  0  0  0  0  0  0  0  0  0  0
   44.8036   56.0808   19.4771 C   0  0  0  0  0  0  0  0  0  0  0  0
   43.4481   56.3444   19.3492 C   0  0  0  0  0  0  0  0  0  0  0  0
   46.8243   55.9267   20.8204 N   0  0  0  0  0  0  0  0  0  0  0  0
   47.4334   55.5916   19.8287 O   0  0  0  0  0  0  0  0  0  0  0  0
   47.3331   56.0429   21.9134 O   0  0  0  0  0  0  0  0  0  0  0  0
   42.8889   56.1855   18.0340 N   0  0  0  0  0  0  0  0  0  0  0  0
   41.6997   56.3959   17.8757 O   0  0  0  0  0  0  0  0  0  0  0  0
   43.6142   55.8482   17.1279 O   0  0  0  0  0  0  0  0  0  0  0  0
   33.2077   57.1839   20.5597 H   0  0  0  0  0  0  0  0  0  0  0  0
   36.9296   55.0556   18.4240 H   0  0  0  0  0  0  0  0  0  0  0  0
   40.9007   56.8881   19.5213 H   0  0  0  0  0  0  0  0  0  0  0  0
   40.5485   56.5929   22.3034 H   0  0  0  0  0  0  0  0  0  0  0  0
   40.9418   58.2899   22.0321 H   0  0  0  0  0  0  0  0  0  0  0  0
   39.1161   58.5214   20.4112 H   0  0  0  0  0  0  0  0  0  0  0  0
   38.5676   57.9928   22.0134 H   0  0  0  0  0  0  0  0  0  0  0  0
   42.8053   57.1536   22.5910 H   0  0  0  0  0  0  0  0  0  0  0  0
   45.1512   56.6957   22.7925 H   0  0  0  0  0  0  0  0  0  0  0  0
   45.3695   55.7791   18.6085 H   0  0  0  0  0  0  0  0  0  0  0  0
  1  2  1  1
  1  3  1  0
  1  4  1  0
  1  8  1  0
  5  6  2  0
  5  7  1  6
  5  8  1  0
  5  9  1  0
  7 29  1  0
 10  9  1  1
 10 11  1  0
 10 12  2  0
 10 13  1  0
 11 30  1  0
 13 16  1  0
 14 15  1  0
 14 17  1  0
 14 31  1  0
 15 16  1  0
 15 32  1  0
 15 33  1  0
 16 34  1  0
 16 35  1  0
 17 18  2  0
 17 22  1  0
 18 19  1  0
 18 36  1  0
 19 20  2  0
 19 37  1  0
 20 21  1  0
 20 23  1  0
 21 22  2  0
 21 38  1  0
 22 26  1  0
 23 24  2  0
 23 25  1  0
 26 27  2  0
 26 28  1  0
M  CHG  5   1  -2  23   1  25  -1  26   1  28  -1
M  END
