
     RDKit          3D

 51 52  0  0  0  0  0  0  0  0999 V2000
    3.2363   -0.9770    0.5597 C   0  0  0  0  0  0  0  0  0  0  0  0
    3.1128   -2.1938   -0.1038 C   0  0  0  0  0  0  0  0  0  0  0  0
    4.2091   -2.8552   -0.6366 C   0  0  0  0  0  0  0  0  0  0  0  0
    5.4682   -2.2837   -0.5093 C   0  0  0  0  0  0  0  0  0  0  0  0
    5.6197   -1.0669    0.1363 C   0  0  0  0  0  0  0  0  0  0  0  0
    4.5095   -0.4099    0.6654 C   0  0  0  0  0  0  0  0  0  0  0  0
    4.6218    0.7860    1.2821 O   0  0  0  0  0  0  0  0  0  0  0  0
    2.0025   -0.3045    1.1052 C   0  0  0  0  0  0  0  0  0  0  0  0
    1.2512    0.3653    0.0545 N   0  0  0  0  0  0  0  0  0  0  0  0
   -0.1327    0.6740    0.3651 C   0  0  0  0  0  0  0  0  0  0  0  0
   -1.0443    0.3254   -0.8067 C   0  0  0  0  0  0  0  0  0  0  0  0
   -2.4134    0.7394   -0.5537 N   0  0  0  0  0  0  0  0  0  0  0  0
   -3.3924   -0.1282   -1.1785 C   0  0  0  0  0  0  0  0  0  0  0  0
   -3.4741   -1.4659   -0.4900 C   0  0  0  0  0  0  0  0  0  0  0  0
   -3.5485   -1.5349    0.9002 C   0  0  0  0  0  0  0  0  0  0  0  0
   -3.6515   -2.7610    1.5403 C   0  0  0  0  0  0  0  0  0  0  0  0
   -3.6794   -3.9385    0.8005 C   0  0  0  0  0  0  0  0  0  0  0  0
   -3.6018   -3.8788   -0.5835 C   0  0  0  0  0  0  0  0  0  0  0  0
   -3.4970   -2.6479   -1.2218 C   0  0  0  0  0  0  0  0  0  0  0  0
    1.9552    1.3883   -0.6572 C   0  0  0  0  0  0  0  0  0  0  0  0
    2.3467    2.6212    0.1390 C   0  0  0  0  0  0  0  0  0  0  0  0
    1.9793    2.8869    1.2553 O   0  0  0  0  0  0  0  0  0  0  0  0
   -2.6401    2.1299   -0.8350 C   0  0  0  0  0  0  0  0  0  0  0  0
    3.1399    3.4148   -0.5753 O   0  0  0  0  0  0  0  0  0  0  0  0
   -3.7604    2.7126   -0.0026 C   0  0  0  0  0  0  0  0  0  0  0  0
   -4.2954    2.1725    0.9304 O   0  0  0  0  0  0  0  0  0  0  0  0
   -4.0736    3.9351   -0.4209 O   0  0  0  0  0  0  0  0  0  0  0  0
    2.1248   -2.6301   -0.1980 H   0  0  0  0  0  0  0  0  0  0  0  0
    4.0829   -3.8032   -1.1424 H   0  0  0  0  0  0  0  0  0  0  0  0
    6.3398   -2.7829   -0.9126 H   0  0  0  0  0  0  0  0  0  0  0  0
    6.6048   -0.6230    0.2305 H   0  0  0  0  0  0  0  0  0  0  0  0
    5.5366    1.0878    1.2633 H   0  0  0  0  0  0  0  0  0  0  0  0
    1.3543   -1.0827    1.5133 H   0  0  0  0  0  0  0  0  0  0  0  0
    2.2557    0.3530    1.9438 H   0  0  0  0  0  0  0  0  0  0  0  0
   -0.4500    0.0748    1.2207 H   0  0  0  0  0  0  0  0  0  0  0  0
   -0.2748    1.7181    0.6698 H   0  0  0  0  0  0  0  0  0  0  0  0
   -0.6568    0.7461   -1.7485 H   0  0  0  0  0  0  0  0  0  0  0  0
   -1.0214   -0.7585   -0.9329 H   0  0  0  0  0  0  0  0  0  0  0  0
   -4.3726    0.3529   -1.1198 H   0  0  0  0  0  0  0  0  0  0  0  0
   -3.1964   -0.2762   -2.2527 H   0  0  0  0  0  0  0  0  0  0  0  0
   -3.5207   -0.6187    1.4763 H   0  0  0  0  0  0  0  0  0  0  0  0
   -3.7091   -2.8003    2.6207 H   0  0  0  0  0  0  0  0  0  0  0  0
   -3.7583   -4.8948    1.3018 H   0  0  0  0  0  0  0  0  0  0  0  0
   -3.6155   -4.7889   -1.1697 H   0  0  0  0  0  0  0  0  0  0  0  0
   -3.4282   -2.6075   -2.3029 H   0  0  0  0  0  0  0  0  0  0  0  0
    2.8584    0.9792   -1.1193 H   0  0  0  0  0  0  0  0  0  0  0  0
    1.3481    1.7327   -1.5019 H   0  0  0  0  0  0  0  0  0  0  0  0
   -1.7449    2.7091   -0.5861 H   0  0  0  0  0  0  0  0  0  0  0  0
   -2.8368    2.3393   -1.8981 H   0  0  0  0  0  0  0  0  0  0  0  0
    3.3581    4.2100   -0.0667 H   0  0  0  0  0  0  0  0  0  0  0  0
   -4.7683    4.3106    0.1404 H   0  0  0  0  0  0  0  0  0  0  0  0
  1  2  2  0
  1  6  1  0
  1  8  1  0
  2  3  1  0
  3  4  2  0
  4  5  1  0
  5  6  2  0
  6  7  1  0
  8  9  1  0
  9 10  1  0
  9 20  1  0
 10 11  1  0
 11 12  1  0
 12 13  1  0
 12 23  1  0
 13 14  1  0
 14 15  2  0
 14 19  1  0
 15 16  1  0
 16 17  2  0
 17 18  1  0
 18 19  2  0
 20 21  1  0
 21 22  2  0
 21 24  1  0
 23 25  1  0
 25 26  2  0
 25 27  1  0
  2 28  1  0
  3 29  1  0
  4 30  1  0
  5 31  1  0
  7 32  1  0
  8 33  1  0
  8 34  1  0
 10 35  1  0
 10 36  1  0
 11 37  1  0
 11 38  1  0
 13 39  1  0
 13 40  1  0
 15 41  1  0
 16 42  1  0
 17 43  1  0
 18 44  1  0
 19 45  1  0
 20 46  1  0
 20 47  1  0
 23 48  1  0
 23 49  1  0
 24 50  1  0
 27 51  1  0
M  END
