
     RDKit          3D

 44 43  0  0  0  0  0  0  0  0999 V2000
    8.8452   -1.1566    0.4538 C   0  0  0  0  0  0  0  0  0  0  0  0
    7.5176   -1.2654   -0.2836 C   0  0  0  0  0  0  0  0  0  0  0  0
    6.4289   -0.3928    0.3297 C   0  0  0  0  0  0  0  0  0  0  0  0
    5.0915   -0.4952   -0.3928 C   0  0  0  0  0  0  0  0  0  0  0  0
    4.0070    0.3783    0.2262 C   0  0  0  0  0  0  0  0  0  0  0  0
    2.6575    0.2520   -0.4702 C   0  0  0  0  0  0  0  0  0  0  0  0
    1.5755    1.1179    0.1632 C   0  0  0  0  0  0  0  0  0  0  0  0
    0.2044    0.9317   -0.4746 C   0  0  0  0  0  0  0  0  0  0  0  0
   -0.8758    1.7843    0.1965 C   0  0  0  0  0  0  0  0  0  0  0  0
   -2.2332    1.5453   -0.3780 C   0  0  0  0  0  0  0  0  0  0  0  0
   -3.2447    0.9731    0.2823 C   0  0  0  0  0  0  0  0  0  0  0  0
   -4.5540    0.7118   -0.2902 C   0  0  0  0  0  0  0  0  0  0  0  0
   -5.5562    0.1333    0.3780 C   0  0  0  0  0  0  0  0  0  0  0  0
   -6.9086   -0.1649   -0.1936 C   0  0  0  0  0  0  0  0  0  0  0  0
   -7.1702   -1.6431   -0.2264 C   0  0  0  0  0  0  0  0  0  0  0  0
   -8.1164   -2.2628    0.4691 C   0  0  0  0  0  0  0  0  0  0  0  0
    8.7410   -1.4578    1.4979 H   0  0  0  0  0  0  0  0  0  0  0  0
    9.6102   -1.7896    0.0029 H   0  0  0  0  0  0  0  0  0  0  0  0
    9.2182   -0.1305    0.4436 H   0  0  0  0  0  0  0  0  0  0  0  0
    7.6568   -0.9870   -1.3329 H   0  0  0  0  0  0  0  0  0  0  0  0
    7.1858   -2.3083   -0.2884 H   0  0  0  0  0  0  0  0  0  0  0  0
    6.2933   -0.6705    1.3810 H   0  0  0  0  0  0  0  0  0  0  0  0
    6.7615    0.6513    0.3332 H   0  0  0  0  0  0  0  0  0  0  0  0
    5.2247   -0.2194   -1.4448 H   0  0  0  0  0  0  0  0  0  0  0  0
    4.7594   -1.5394   -0.3927 H   0  0  0  0  0  0  0  0  0  0  0  0
    3.8907    0.1149    1.2834 H   0  0  0  0  0  0  0  0  0  0  0  0
    4.3295    1.4253    0.2082 H   0  0  0  0  0  0  0  0  0  0  0  0
    2.7669    0.5175   -1.5274 H   0  0  0  0  0  0  0  0  0  0  0  0
    2.3390   -0.7960   -0.4514 H   0  0  0  0  0  0  0  0  0  0  0  0
    1.5056    0.8837    1.2313 H   0  0  0  0  0  0  0  0  0  0  0  0
    1.8682    2.1718    0.1017 H   0  0  0  0  0  0  0  0  0  0  0  0
    0.2558    1.1741   -1.5411 H   0  0  0  0  0  0  0  0  0  0  0  0
   -0.0852   -0.1221   -0.4123 H   0  0  0  0  0  0  0  0  0  0  0  0
   -0.8863    1.5739    1.2700 H   0  0  0  0  0  0  0  0  0  0  0  0
   -0.6105    2.8414    0.0862 H   0  0  0  0  0  0  0  0  0  0  0  0
   -2.3831    1.8409   -1.4147 H   0  0  0  0  0  0  0  0  0  0  0  0
   -3.0968    0.6723    1.3171 H   0  0  0  0  0  0  0  0  0  0  0  0
   -4.7085    1.0130   -1.3241 H   0  0  0  0  0  0  0  0  0  0  0  0
   -5.3978   -0.1706    1.4103 H   0  0  0  0  0  0  0  0  0  0  0  0
   -7.6825    0.3272    0.4035 H   0  0  0  0  0  0  0  0  0  0  0  0
   -6.9765    0.2423   -1.2069 H   0  0  0  0  0  0  0  0  0  0  0  0
   -6.5102   -2.2245   -0.8642 H   0  0  0  0  0  0  0  0  0  0  0  0
   -8.2521   -3.3350    0.4119 H   0  0  0  0  0  0  0  0  0  0  0  0
   -8.7943   -1.7207    1.1190 H   0  0  0  0  0  0  0  0  0  0  0  0
  1  2  1  0
  2  3  1  0
  3  4  1  0
  4  5  1  0
  5  6  1  0
  6  7  1  0
  7  8  1  0
  8  9  1  0
  9 10  1  0
 10 11  2  0
 11 12  1  0
 12 13  2  0
 13 14  1  0
 14 15  1  0
 15 16  2  0
  1 17  1  0
  1 18  1  0
  1 19  1  0
  2 20  1  0
  2 21  1  0
  3 22  1  0
  3 23  1  0
  4 24  1  0
  4 25  1  0
  5 26  1  0
  5 27  1  0
  6 28  1  0
  6 29  1  0
  7 30  1  0
  7 31  1  0
  8 32  1  0
  8 33  1  0
  9 34  1  0
  9 35  1  0
 10 36  1  0
 11 37  1  0
 12 38  1  0
 13 39  1  0
 14 40  1  0
 14 41  1  0
 15 42  1  0
 16 43  1  0
 16 44  1  0
M  END
