
     RDKit          3D

 61 60  0  0  0  0  0  0  0  0999 V2000
    4.0298    0.2015    0.0244 C   0  0  0  0  0  0  0  0  0  0  0  0
    5.2743   -0.6744   -0.0451 C   0  0  0  0  0  0  0  0  0  0  0  0
    6.5699    0.1216    0.0487 C   0  0  0  0  0  0  0  0  0  0  0  0
    7.7953   -0.7884   -0.0322 C   0  0  0  0  0  0  0  0  0  0  0  0
  -13.7795    0.5118    0.0133 C   0  0  0  0  0  0  0  0  0  0  0  0
  -12.5305   -0.3586   -0.0197 C   0  0  0  0  0  0  0  0  0  0  0  0
  -11.2436    0.4576    0.0018 C   0  0  0  0  0  0  0  0  0  0  0  0
   -9.9834   -0.3983   -0.0341 C   0  0  0  0  0  0  0  0  0  0  0  0
   -8.6995    0.4220   -0.0082 C   0  0  0  0  0  0  0  0  0  0  0  0
   -7.4378   -0.4313   -0.0499 C   0  0  0  0  0  0  0  0  0  0  0  0
   -6.1544    0.3895   -0.0155 C   0  0  0  0  0  0  0  0  0  0  0  0
   -4.8928   -0.4638   -0.0612 C   0  0  0  0  0  0  0  0  0  0  0  0
   -3.6088    0.3555   -0.0175 C   0  0  0  0  0  0  0  0  0  0  0  0
   -2.3487   -0.4996   -0.0688 C   0  0  0  0  0  0  0  0  0  0  0  0
   -1.0626    0.3155   -0.0113 C   0  0  0  0  0  0  0  0  0  0  0  0
    0.1947   -0.5435   -0.0702 C   0  0  0  0  0  0  0  0  0  0  0  0
    1.4838    0.2655    0.0022 C   0  0  0  0  0  0  0  0  0  0  0  0
    2.7367   -0.5992   -0.0636 C   0  0  0  0  0  0  0  0  0  0  0  0
    9.3419    0.1142    0.1349 P   0  0  1  0  0  0  0  0  0  0  0  0
    9.5151    0.8973    1.3827 O   0  0  0  0  0  0  0  0  0  0  0  0
   10.4205   -1.0545   -0.1129 O   0  0  0  0  0  0  0  0  0  0  0  0
    9.4479    1.1155   -1.1240 O   0  0  0  0  0  0  0  0  0  0  0  0
    4.0400    0.7745    0.9584 H   0  0  0  0  0  0  0  0  0  0  0  0
    4.0584    0.9388   -0.7853 H   0  0  0  0  0  0  0  0  0  0  0  0
    5.2446   -1.4132    0.7631 H   0  0  0  0  0  0  0  0  0  0  0  0
    5.2663   -1.2452   -0.9801 H   0  0  0  0  0  0  0  0  0  0  0  0
    6.6018    0.8611   -0.7562 H   0  0  0  0  0  0  0  0  0  0  0  0
    6.5863    0.6818    0.9878 H   0  0  0  0  0  0  0  0  0  0  0  0
    7.7640   -1.5346    0.7663 H   0  0  0  0  0  0  0  0  0  0  0  0
    7.8012   -1.3388   -0.9773 H   0  0  0  0  0  0  0  0  0  0  0  0
  -13.8045    1.1279    0.9143 H   0  0  0  0  0  0  0  0  0  0  0  0
  -13.8125    1.1846   -0.8458 H   0  0  0  0  0  0  0  0  0  0  0  0
  -14.6905   -0.0877   -0.0018 H   0  0  0  0  0  0  0  0  0  0  0  0
  -12.5379   -1.0447    0.8328 H   0  0  0  0  0  0  0  0  0  0  0  0
  -12.5444   -0.9884   -0.9149 H   0  0  0  0  0  0  0  0  0  0  0  0
  -11.2385    1.1471   -0.8501 H   0  0  0  0  0  0  0  0  0  0  0  0
  -11.2297    1.0869    0.8991 H   0  0  0  0  0  0  0  0  0  0  0  0
   -9.9897   -1.0892    0.8165 H   0  0  0  0  0  0  0  0  0  0  0  0
   -9.9957   -1.0252   -0.9330 H   0  0  0  0  0  0  0  0  0  0  0  0
   -8.6953    1.1167   -0.8557 H   0  0  0  0  0  0  0  0  0  0  0  0
   -8.6863    1.0454    0.8932 H   0  0  0  0  0  0  0  0  0  0  0  0
   -7.4442   -1.1298    0.7946 H   0  0  0  0  0  0  0  0  0  0  0  0
   -7.4486   -1.0503   -0.9543 H   0  0  0  0  0  0  0  0  0  0  0  0
   -6.1489    1.0904   -0.8578 H   0  0  0  0  0  0  0  0  0  0  0  0
   -6.1427    1.0059    0.8908 H   0  0  0  0  0  0  0  0  0  0  0  0
   -4.9014   -1.1685    0.7779 H   0  0  0  0  0  0  0  0  0  0  0  0
   -4.9020   -1.0764   -0.9700 H   0  0  0  0  0  0  0  0  0  0  0  0
   -3.6009    1.0639   -0.8535 H   0  0  0  0  0  0  0  0  0  0  0  0
   -3.5978    0.9640    0.8941 H   0  0  0  0  0  0  0  0  0  0  0  0
   -2.3617   -1.2138    0.7622 H   0  0  0  0  0  0  0  0  0  0  0  0
   -2.3563   -1.1017   -0.9847 H   0  0  0  0  0  0  0  0  0  0  0  0
   -1.0502    1.0345   -0.8381 H   0  0  0  0  0  0  0  0  0  0  0  0
   -1.0521    0.9120    0.9081 H   0  0  0  0  0  0  0  0  0  0  0  0
    0.1762   -1.2683    0.7514 H   0  0  0  0  0  0  0  0  0  0  0  0
    0.1875   -1.1338   -0.9937 H   0  0  0  0  0  0  0  0  0  0  0  0
    1.5025    0.9947   -0.8156 H   0  0  0  0  0  0  0  0  0  0  0  0
    1.4938    0.8502    0.9292 H   0  0  0  0  0  0  0  0  0  0  0  0
    2.7298   -1.1764   -0.9952 H   0  0  0  0  0  0  0  0  0  0  0  0
    2.7109   -1.3351    0.7478 H   0  0  0  0  0  0  0  0  0  0  0  0
   11.3347   -0.7910    0.0595 H   0  0  0  0  0  0  0  0  0  0  0  0
    9.3772    0.6972   -1.9919 H   0  0  0  0  0  0  0  0  0  0  0  0
 19 21  1  6
 19 22  1  0
 19 20  2  0
 19  4  1  0
  4  3  1  0
  3  2  1  0
  5  6  1  0
  2  1  1  0
  6  7  1  0
  1 18  1  0
  7  8  1  0
 18 17  1  0
  9  8  1  0
  9 10  1  0
 17 16  1  0
 11 10  1  0
 11 12  1  0
 14 13  1  0
 14 15  1  0
 16 15  1  0
 12 13  1  0
  1 23  1  0
  1 24  1  0
  2 25  1  0
  2 26  1  0
  3 27  1  0
  3 28  1  0
  4 29  1  0
  4 30  1  0
  5 31  1  0
  5 32  1  0
  5 33  1  0
  6 34  1  0
  6 35  1  0
  7 36  1  0
  7 37  1  0
  8 38  1  0
  8 39  1  0
  9 40  1  0
  9 41  1  0
 10 42  1  0
 10 43  1  0
 11 44  1  0
 11 45  1  0
 12 46  1  0
 12 47  1  0
 13 48  1  0
 13 49  1  0
 14 50  1  0
 14 51  1  0
 15 52  1  0
 15 53  1  0
 16 54  1  0
 16 55  1  0
 17 56  1  0
 17 57  1  0
 18 58  1  0
 18 59  1  0
 21 60  1  0
 22 61  1  0
M  END
