
     RDKit          3D

 35 36  0  0  0  0  0  0  0  0999 V2000
   -9.3909    1.8805   -0.1772 C   0  0  0  0  0  0  0  0  0  0  0  0
   -8.9092    0.5844    0.1309 O   0  0  0  0  0  0  0  0  0  0  0  0
   -7.5924    0.3529    0.0690 C   0  0  0  0  0  0  0  0  0  0  0  0
   -7.1774   -0.9505    0.3652 C   0  0  0  0  0  0  0  0  0  0  0  0
   -5.8410   -1.2807    0.3179 C   0  0  0  0  0  0  0  0  0  0  0  0
   -6.6399    1.3120   -0.2722 C   0  0  0  0  0  0  0  0  0  0  0  0
   -5.2973    0.9676   -0.3044 C   0  0  0  0  0  0  0  0  0  0  0  0
   -4.8742   -0.3240   -0.0051 C   0  0  0  0  0  0  0  0  0  0  0  0
   -3.4557   -0.7512   -0.0546 C   0  0  0  0  0  0  0  0  0  0  0  0
   -3.1230   -1.9109   -0.2151 O   0  0  0  0  0  0  0  0  0  0  0  0
   -2.5395    0.2475    0.1026 N   0  0  0  0  0  0  0  0  0  0  0  0
   -1.2346   -0.0415    0.0140 N   0  0  0  0  0  0  0  0  0  0  0  0
   -0.3652    0.8682    0.2220 C   0  0  0  0  0  0  0  0  0  0  0  0
    1.0478    0.5561    0.1236 C   0  0  0  0  0  0  0  0  0  0  0  0
    1.9835    1.5649    0.3394 C   0  0  0  0  0  0  0  0  0  0  0  0
    3.3350    1.3169    0.2579 C   0  0  0  0  0  0  0  0  0  0  0  0
    4.5718    2.7027    0.5514 Br  0  0  0  0  0  0  0  0  0  0  0  0
    3.8107    0.0343   -0.0449 C   0  0  0  0  0  0  0  0  0  0  0  0
    5.1259   -0.1381   -0.1056 O   0  0  0  0  0  0  0  0  0  0  0  0
    2.8728   -0.9775   -0.2623 C   0  0  0  0  0  0  0  0  0  0  0  0
    3.4532   -2.7178   -0.6758 Br  0  0  0  0  0  0  0  0  0  0  0  0
    1.4992   -0.7430   -0.1842 C   0  0  0  0  0  0  0  0  0  0  0  0
    0.6729   -1.7541   -0.4014 O   0  0  0  0  0  0  0  0  0  0  0  0
   -9.1448    2.1726   -1.2008 H   0  0  0  0  0  0  0  0  0  0  0  0
  -10.4720    1.8387   -0.0739 H   0  0  0  0  0  0  0  0  0  0  0  0
   -9.0001    2.6334    0.5111 H   0  0  0  0  0  0  0  0  0  0  0  0
   -7.9161   -1.6973    0.6278 H   0  0  0  0  0  0  0  0  0  0  0  0
   -5.5404   -2.2946    0.5455 H   0  0  0  0  0  0  0  0  0  0  0  0
   -6.9212    2.3240   -0.5266 H   0  0  0  0  0  0  0  0  0  0  0  0
   -4.5920    1.7343   -0.5995 H   0  0  0  0  0  0  0  0  0  0  0  0
   -2.8212    1.1832    0.3672 H   0  0  0  0  0  0  0  0  0  0  0  0
   -0.6409    1.8920    0.4776 H   0  0  0  0  0  0  0  0  0  0  0  0
    1.6298    2.5603    0.5768 H   0  0  0  0  0  0  0  0  0  0  0  0
    5.3712   -1.0468   -0.3254 H   0  0  0  0  0  0  0  0  0  0  0  0
   -0.2579   -1.4307   -0.3135 H   0  0  0  0  0  0  0  0  0  0  0  0
  1  2  1  0
  2  3  1  0
  3  4  2  0
  3  6  1  0
  4  5  1  0
  5  8  2  0
  6  7  2  0
  7  8  1  0
  8  9  1  0
  9 10  2  0
  9 11  1  0
 11 12  1  0
 12 13  2  0
 13 14  1  0
 14 15  2  0
 14 22  1  0
 15 16  1  0
 16 17  1  0
 16 18  2  0
 18 19  1  0
 18 20  1  0
 20 21  1  0
 20 22  2  0
 22 23  1  0
  1 24  1  0
  1 25  1  0
  1 26  1  0
  4 27  1  0
  5 28  1  0
  6 29  1  0
  7 30  1  0
 11 31  1  0
 13 32  1  0
 15 33  1  0
 19 34  1  0
 23 35  1  0
M  END
