
     RDKit          3D

 37 40  0  0  0  0  0  0  0  0999 V2000
    2.0497  -27.6885   24.7774 N   0  0  0  0  0  0  0  0  0  0  0  0
    2.4205  -26.3964   24.8211 C   0  0  0  0  0  0  0  0  0  0  0  0
    1.5310  -25.5547   25.4123 N   0  0  0  0  0  0  0  0  0  0  0  0
    1.8689  -24.2935   25.4464 C   0  0  0  0  0  0  0  0  0  0  0  0
    3.0654  -23.8100   24.9027 C   0  0  0  0  0  0  0  0  0  0  0  0
    3.5141  -22.4780   24.9625 C   0  0  0  0  0  0  0  0  0  0  0  0
    3.5776  -26.0634   24.2778 N   0  0  0  0  0  0  0  0  0  0  0  0
    3.9153  -24.7644   24.3018 C   0  0  0  0  0  0  0  0  0  0  0  0
    5.0694  -24.4123   23.7302 N   0  0  0  0  0  0  0  0  0  0  0  0
    5.4568  -23.1430   23.7271 C   0  0  0  0  0  0  0  0  0  0  0  0
    6.5820  -22.8920   23.0276 N   0  0  0  0  0  0  0  0  0  0  0  0
    7.0856  -21.5867   22.6029 C   0  0  0  0  0  0  0  0  0  0  0  0
    8.1415  -21.9521   21.6110 C   0  0  0  0  0  0  0  0  0  0  0  0
    8.2522  -23.2645   21.4795 C   0  0  0  0  0  0  0  0  0  0  0  0
    7.2650  -23.9847   22.3357 C   0  0  0  0  0  0  0  0  0  0  0  0
    4.7140  -22.1138   24.4238 C   0  0  0  0  0  0  0  0  0  0  0  0
    5.1998  -20.7360   24.6734 C   0  0  0  0  0  0  0  0  0  0  0  0
    4.5576  -19.6367   24.1096 C   0  0  0  0  0  0  0  0  0  0  0  0
    4.9834  -18.3469   24.3982 C   0  0  0  0  0  0  0  0  0  0  0  0
    6.0542  -18.1412   25.2576 C   0  0  0  0  0  0  0  0  0  0  0  0
    6.6929  -19.2322   25.8336 C   0  0  0  0  0  0  0  0  0  0  0  0
    6.2655  -20.5204   25.5461 C   0  0  0  0  0  0  0  0  0  0  0  0
    2.7248  -28.3834   24.5101 H   0  0  0  0  0  0  0  0  0  0  0  0
    1.2626  -27.9915   25.3235 H   0  0  0  0  0  0  0  0  0  0  0  0
    1.1754  -23.6073   25.9256 H   0  0  0  0  0  0  0  0  0  0  0  0
    2.9179  -21.7396   25.4870 H   0  0  0  0  0  0  0  0  0  0  0  0
    6.2967  -20.9722   22.1590 H   0  0  0  0  0  0  0  0  0  0  0  0
    7.5095  -21.0124   23.4295 H   0  0  0  0  0  0  0  0  0  0  0  0
    7.7408  -24.6719   23.0429 H   0  0  0  0  0  0  0  0  0  0  0  0
    6.5674  -24.5825   21.7421 H   0  0  0  0  0  0  0  0  0  0  0  0
    8.7294  -21.2012   21.1027 H   0  0  0  0  0  0  0  0  0  0  0  0
    8.9460  -23.7886   20.8376 H   0  0  0  0  0  0  0  0  0  0  0  0
    3.7302  -19.7914   23.4280 H   0  0  0  0  0  0  0  0  0  0  0  0
    6.7636  -21.3678   26.0017 H   0  0  0  0  0  0  0  0  0  0  0  0
    4.4788  -17.5019   23.9476 H   0  0  0  0  0  0  0  0  0  0  0  0
    6.3886  -17.1361   25.4787 H   0  0  0  0  0  0  0  0  0  0  0  0
    7.5244  -19.0820   26.5099 H   0  0  0  0  0  0  0  0  0  0  0  0
  1  2  1  0
  2  3  2  0
  2  7  1  0
  3  4  1  0
  4  5  2  0
  5  6  1  0
  5  8  1  0
  6 16  2  0
  7  8  2  0
  8  9  1  0
  9 10  2  0
 10 11  1  0
 10 16  1  0
 11 12  1  0
 11 15  1  0
 12 13  1  0
 13 14  2  0
 14 15  1  0
 16 17  1  0
 17 18  2  0
 17 22  1  0
 18 19  1  0
 19 20  2  0
 20 21  1  0
 21 22  2  0
  1 23  1  0
  1 24  1  0
  4 25  1  0
  6 26  1  0
 12 27  1  0
 12 28  1  0
 15 29  1  0
 15 30  1  0
 13 31  1  0
 14 32  1  0
 18 33  1  0
 22 34  1  0
 19 35  1  0
 20 36  1  0
 21 37  1  0
M  END
