
     RDKit          3D

 51 53  0  0  0  0  0  0  0  0999 V2000
    6.7358    2.6958   -0.7123 C   0  0  0  0  0  0  0  0  0  0  0  0
    5.4988    3.2280   -0.3704 C   0  0  0  0  0  0  0  0  0  0  0  0
    4.4479    2.3834   -0.0461 C   0  0  0  0  0  0  0  0  0  0  0  0
    6.9251    1.3221   -0.7082 C   0  0  0  0  0  0  0  0  0  0  0  0
    5.8789    0.4715   -0.3743 C   0  0  0  0  0  0  0  0  0  0  0  0
    4.6304    1.0070   -0.0490 C   0  0  0  0  0  0  0  0  0  0  0  0
    3.5796    0.2108    0.2683 O   0  0  0  0  0  0  0  0  0  0  0  0
    3.7290   -1.1593   -0.0870 C   0  0  1  0  0  0  0  0  0  0  0  0
    5.1171   -1.6284    0.3006 C   0  0  0  0  0  0  0  0  0  0  0  0
    6.0999   -0.8655   -0.3757 O   0  0  0  0  0  0  0  0  0  0  0  0
    2.6530   -1.9379    0.6369 C   0  0  0  0  0  0  0  0  0  0  0  0
    1.3425   -1.4501    0.2739 N   0  0  0  0  0  0  0  0  0  0  0  0
    0.2247   -2.1617    0.4980 C   0  0  0  0  0  0  0  0  0  0  0  0
   -1.0711   -1.4857    0.1977 C   0  0  0  0  0  0  0  0  0  0  0  0
    0.2568   -3.3121    0.9173 O   0  0  0  0  0  0  0  0  0  0  0  0
   -2.2074   -2.2797    0.0284 C   0  0  0  0  0  0  0  0  0  0  0  0
   -3.4390   -1.7165   -0.2321 C   0  0  0  0  0  0  0  0  0  0  0  0
   -3.5678   -0.3293   -0.3165 C   0  0  0  0  0  0  0  0  0  0  0  0
   -2.4495    0.4787   -0.1381 C   0  0  0  0  0  0  0  0  0  0  0  0
   -1.2171   -0.1054    0.1171 C   0  0  0  0  0  0  0  0  0  0  0  0
   -4.8048    0.1410   -0.5715 O   0  0  0  0  0  0  0  0  0  0  0  0
   -5.0047    1.5379   -0.6435 C   0  0  0  0  0  0  0  0  0  0  0  0
   -6.4657    1.7740   -0.9300 C   0  0  0  0  0  0  0  0  0  0  0  0
   -7.3794    1.1453    0.0710 N   0  0  1  0  0  0  0  0  0  0  0  0
   -7.1010    1.5630    1.4680 C   0  0  0  0  0  0  0  0  0  0  0  0
   -8.7951    1.4140   -0.2914 C   0  0  0  0  0  0  0  0  0  0  0  0
    7.5589    3.3475   -0.9732 H   0  0  0  0  0  0  0  0  0  0  0  0
    5.3456    4.2988   -0.3648 H   0  0  0  0  0  0  0  0  0  0  0  0
    3.4755    2.7828    0.2142 H   0  0  0  0  0  0  0  0  0  0  0  0
    7.8869    0.8956   -0.9649 H   0  0  0  0  0  0  0  0  0  0  0  0
    3.5982   -1.2680   -1.1718 H   0  0  0  0  0  0  0  0  0  0  0  0
    5.2517   -1.5486    1.3855 H   0  0  0  0  0  0  0  0  0  0  0  0
    5.2661   -2.6673    0.0101 H   0  0  0  0  0  0  0  0  0  0  0  0
    2.7424   -2.9889    0.3601 H   0  0  0  0  0  0  0  0  0  0  0  0
    2.8095   -1.8721    1.7191 H   0  0  0  0  0  0  0  0  0  0  0  0
    1.2737   -0.5048   -0.0641 H   0  0  0  0  0  0  0  0  0  0  0  0
   -2.1252   -3.3560    0.0961 H   0  0  0  0  0  0  0  0  0  0  0  0
   -4.3098   -2.3446   -0.3697 H   0  0  0  0  0  0  0  0  0  0  0  0
   -2.5102    1.5570   -0.1856 H   0  0  0  0  0  0  0  0  0  0  0  0
   -0.3797    0.5619    0.2764 H   0  0  0  0  0  0  0  0  0  0  0  0
   -4.6916    2.0321    0.2810 H   0  0  0  0  0  0  0  0  0  0  0  0
   -4.4348    1.9846   -1.4640 H   0  0  0  0  0  0  0  0  0  0  0  0
   -6.6661    2.8448   -0.9309 H   0  0  0  0  0  0  0  0  0  0  0  0
   -6.7417    1.3675   -1.9017 H   0  0  0  0  0  0  0  0  0  0  0  0
   -7.2421    0.1340    0.0197 H   0  0  0  0  0  0  0  0  0  0  0  0
   -7.1426    2.6472    1.5270 H   0  0  0  0  0  0  0  0  0  0  0  0
   -7.8563    1.1270    2.1143 H   0  0  0  0  0  0  0  0  0  0  0  0
   -6.1233    1.2066    1.7745 H   0  0  0  0  0  0  0  0  0  0  0  0
   -8.9783    2.4818   -0.2106 H   0  0  0  0  0  0  0  0  0  0  0  0
   -8.9685    1.0806   -1.3098 H   0  0  0  0  0  0  0  0  0  0  0  0
   -9.4399    0.8698    0.3913 H   0  0  0  0  0  0  0  0  0  0  0  0
  2  3  1  0
  2  1  2  0
  3  6  2  0
  1  4  1  0
  7  8  1  0
  7  6  1  0
  8 11  1  0
  8  9  1  0
  6  5  1  0
 11 12  1  0
  4  5  2  0
  5 10  1  0
 10  9  1  0
 12 13  1  0
 20 19  2  0
 20 14  1  0
 13 14  1  0
 13 15  2  0
 19 18  1  0
 14 16  2  0
 22 23  1  0
 22 21  1  0
 26 24  1  0
 18 21  1  0
 18 17  2  0
 16 17  1  0
 23 24  1  0
 24 25  1  0
  1 27  1  0
  2 28  1  0
  3 29  1  0
  4 30  1  0
  8 31  1  6
  9 32  1  0
  9 33  1  0
 11 34  1  0
 11 35  1  0
 12 36  1  0
 16 37  1  0
 17 38  1  0
 19 39  1  0
 20 40  1  0
 22 41  1  0
 22 42  1  0
 23 43  1  0
 23 44  1  0
 24 45  1  1
 25 46  1  0
 25 47  1  0
 25 48  1  0
 26 49  1  0
 26 50  1  0
 26 51  1  0
M  CHG  1  24   1
M  END
