
     RDKit          3D

 68 69  0  0  0  0  0  0  0  0999 V2000
   -0.0063   -2.4802    0.0040 C   0  0  0  0  0  0  0  0  0  0  0  0
   -1.2772   -1.6688   -0.0471 C   0  0  0  0  0  0  0  0  0  0  0  0
    1.2676   -1.6741    0.0612 C   0  0  0  0  0  0  0  0  0  0  0  0
   -2.5549   -2.4977   -0.1362 C   0  0  0  0  0  0  0  0  0  0  0  0
   -3.7563   -1.5984   -0.1851 C   0  0  0  0  0  0  0  0  0  0  0  0
   -4.2466   -1.1222   -1.3982 C   0  0  0  0  0  0  0  0  0  0  0  0
   -5.3175   -0.2484   -1.4476 C   0  0  0  0  0  0  0  0  0  0  0  0
   -5.9225    0.1731   -0.2694 C   0  0  0  0  0  0  0  0  0  0  0  0
   -5.4602   -0.2972    0.9481 C   0  0  0  0  0  0  0  0  0  0  0  0
    7.0407    1.1258    0.3871 N   0  0  2  0  0  0  0  0  0  0  0  0
   -7.0597    1.1290   -0.3687 N   0  0  1  0  0  0  0  0  0  0  0  0
   -4.3841   -1.1751    0.9783 C   0  0  0  0  0  0  0  0  0  0  0  0
    2.5425   -2.5080    0.1470 C   0  0  0  0  0  0  0  0  0  0  0  0
    3.7459   -1.6115    0.1991 C   0  0  0  0  0  0  0  0  0  0  0  0
    4.2323   -1.1334    1.4130 C   0  0  0  0  0  0  0  0  0  0  0  0
    5.3016   -0.2577    1.4642 C   0  0  0  0  0  0  0  0  0  0  0  0
    5.9077    0.1649    0.2870 C   0  0  0  0  0  0  0  0  0  0  0  0
    5.4521   -0.3108   -0.9309 C   0  0  0  0  0  0  0  0  0  0  0  0
    4.3779   -1.1908   -0.9629 C   0  0  0  0  0  0  0  0  0  0  0  0
    8.1491    0.4950    1.1711 C   0  0  0  0  0  0  0  0  0  0  0  0
    6.5669    2.3643    1.0824 C   0  0  0  0  0  0  0  0  0  0  0  0
    7.5703    1.5101   -0.9831 C   0  0  0  0  0  0  0  0  0  0  0  0
    8.6671    2.5232   -0.9444 C   0  0  0  0  0  0  0  0  0  0  0  0
   -7.5997    1.4992    1.0011 C   0  0  0  0  0  0  0  0  0  0  0  0
   -6.5868    2.3752   -1.0509 C   0  0  0  0  0  0  0  0  0  0  0  0
   -8.1612    0.5001   -1.1641 C   0  0  0  0  0  0  0  0  0  0  0  0
   -8.7032    2.5051    0.9640 C   0  0  0  0  0  0  0  0  0  0  0  0
   -9.9537    2.2020    1.2883 C   0  0  0  0  0  0  0  0  0  0  0  0
    9.9194    2.2296   -1.2703 C   0  0  0  0  0  0  0  0  0  0  0  0
   -0.0086   -3.6895   -0.0017 O   0  0  0  0  0  0  0  0  0  0  0  0
   -1.2043   -0.9804   -0.8958 H   0  0  0  0  0  0  0  0  0  0  0  0
   -1.2999   -1.0241    0.8385 H   0  0  0  0  0  0  0  0  0  0  0  0
    1.2936   -1.0256   -0.8216 H   0  0  0  0  0  0  0  0  0  0  0  0
    1.1967   -0.9891    0.9128 H   0  0  0  0  0  0  0  0  0  0  0  0
   -2.6258   -3.1635    0.7254 H   0  0  0  0  0  0  0  0  0  0  0  0
   -2.5284   -3.1283   -1.0266 H   0  0  0  0  0  0  0  0  0  0  0  0
   -3.7887   -1.4359   -2.3278 H   0  0  0  0  0  0  0  0  0  0  0  0
   -5.6590    0.0871   -2.4173 H   0  0  0  0  0  0  0  0  0  0  0  0
   -5.9014   -0.0116    1.8899 H   0  0  0  0  0  0  0  0  0  0  0  0
   -4.0352   -1.5300    1.9400 H   0  0  0  0  0  0  0  0  0  0  0  0
    2.5137   -3.1423    1.0346 H   0  0  0  0  0  0  0  0  0  0  0  0
    2.6113   -3.1701   -0.7176 H   0  0  0  0  0  0  0  0  0  0  0  0
    3.7719   -1.4462    2.3418 H   0  0  0  0  0  0  0  0  0  0  0  0
    5.6401    0.0791    2.4346 H   0  0  0  0  0  0  0  0  0  0  0  0
    5.8967   -0.0261   -1.8714 H   0  0  0  0  0  0  0  0  0  0  0  0
    4.0327   -1.5484   -1.9250 H   0  0  0  0  0  0  0  0  0  0  0  0
    8.9767    1.1938    1.2422 H   0  0  0  0  0  0  0  0  0  0  0  0
    8.4665   -0.4082    0.6575 H   0  0  0  0  0  0  0  0  0  0  0  0
    7.7959    0.2514    2.1672 H   0  0  0  0  0  0  0  0  0  0  0  0
    6.1769    2.1095    2.0611 H   0  0  0  0  0  0  0  0  0  0  0  0
    5.7866    2.8236    0.4818 H   0  0  0  0  0  0  0  0  0  0  0  0
    7.4000    3.0487    1.2071 H   0  0  0  0  0  0  0  0  0  0  0  0
    6.7222    1.9040   -1.5429 H   0  0  0  0  0  0  0  0  0  0  0  0
    7.9147    0.5923   -1.4566 H   0  0  0  0  0  0  0  0  0  0  0  0
    8.3960    3.5458   -0.7100 H   0  0  0  0  0  0  0  0  0  0  0  0
   -6.7584    1.8968    1.5683 H   0  0  0  0  0  0  0  0  0  0  0  0
   -7.9397    0.5757    1.4668 H   0  0  0  0  0  0  0  0  0  0  0  0
   -5.8170    2.8365   -0.4383 H   0  0  0  0  0  0  0  0  0  0  0  0
   -7.4232    3.0544   -1.1819 H   0  0  0  0  0  0  0  0  0  0  0  0
   -6.1828    2.1282   -2.0260 H   0  0  0  0  0  0  0  0  0  0  0  0
   -7.8028    0.2660   -2.1607 H   0  0  0  0  0  0  0  0  0  0  0  0
   -8.9911    1.1963   -1.2336 H   0  0  0  0  0  0  0  0  0  0  0  0
   -8.4777   -0.4083   -0.6595 H   0  0  0  0  0  0  0  0  0  0  0  0
   -8.4388    3.5302    0.7331 H   0  0  0  0  0  0  0  0  0  0  0  0
  -10.7250    2.9594    1.3122 H   0  0  0  0  0  0  0  0  0  0  0  0
  -10.2507    1.1926    1.5457 H   0  0  0  0  0  0  0  0  0  0  0  0
   10.6857    2.9923   -1.2918 H   0  0  0  0  0  0  0  0  0  0  0  0
   10.2232    1.2233   -1.5317 H   0  0  0  0  0  0  0  0  0  0  0  0
  1  2  1  0
  1  3  1  0
  1 30  2  0
  2  4  1  0
  2 31  1  0
  2 32  1  0
  3 13  1  0
  3 33  1  0
  3 34  1  0
  4  5  1  0
  4 35  1  0
  4 36  1  0
  5  6  2  0
  5 12  1  0
  6  7  1  0
  6 37  1  0
  7  8  2  0
  7 38  1  0
  8  9  1  0
  8 11  1  0
  9 12  2  0
  9 39  1  0
 10 17  1  0
 10 20  1  1
 10 21  1  0
 10 22  1  0
 11 24  1  1
 11 25  1  0
 11 26  1  0
 12 40  1  0
 13 14  1  0
 13 41  1  0
 13 42  1  0
 14 15  2  0
 14 19  1  0
 15 16  1  0
 15 43  1  0
 16 17  2  0
 16 44  1  0
 17 18  1  0
 18 19  2  0
 18 45  1  0
 19 46  1  0
 20 47  1  0
 20 48  1  0
 20 49  1  0
 21 50  1  0
 21 51  1  0
 21 52  1  0
 22 23  1  0
 22 53  1  0
 22 54  1  0
 23 29  2  0
 23 55  1  0
 24 27  1  0
 24 56  1  0
 24 57  1  0
 25 58  1  0
 25 59  1  0
 25 60  1  0
 26 61  1  0
 26 62  1  0
 26 63  1  0
 27 28  2  0
 27 64  1  0
 28 65  1  0
 28 66  1  0
 29 67  1  0
 29 68  1  0
M  CHG  2  10   1  11   1
M  END
