
     RDKit          3D

 39 41  0  0  0  0  0  0  0  0999 V2000
    6.6579    1.4409    1.4539 O   0  0  0  0  0  0  0  0  0  0  0  0
    5.8293    2.1165    0.5374 C   0  0  0  0  0  0  0  0  0  0  0  0
    5.7073    1.2735   -0.7190 C   0  0  0  0  0  0  0  0  0  0  0  0
    5.1134   -0.0298   -0.5028 N   0  0  0  0  0  0  0  0  0  0  0  0
    5.9955   -1.1420   -0.2237 C   0  0  0  0  0  0  0  0  0  0  0  0
    3.7706   -0.1877   -0.3795 C   0  0  0  0  0  0  0  0  0  0  0  0
    2.8616    0.8769   -0.5800 C   0  0  0  0  0  0  0  0  0  0  0  0
    1.5035    0.6837   -0.4858 C   0  0  0  0  0  0  0  0  0  0  0  0
    3.2119   -1.4423   -0.0518 C   0  0  0  0  0  0  0  0  0  0  0  0
    1.8475   -1.6196    0.0315 C   0  0  0  0  0  0  0  0  0  0  0  0
    0.9545   -0.5686   -0.1895 C   0  0  0  0  0  0  0  0  0  0  0  0
   -0.4959   -0.7196   -0.1052 C   0  0  0  0  0  0  0  0  0  0  0  0
   -1.2491    0.3247    0.0187 N   0  0  0  0  0  0  0  0  0  0  0  0
   -2.6012    0.1436    0.0922 C   0  0  0  0  0  0  0  0  0  0  0  0
   -3.4182    1.2785    0.2149 C   0  0  0  0  0  0  0  0  0  0  0  0
   -4.7811    1.1211    0.3028 C   0  0  0  0  0  0  0  0  0  0  0  0
   -5.7830    2.5222    0.4572 Cl  0  0  0  0  0  0  0  0  0  0  0  0
   -5.3887   -0.1382    0.2737 C   0  0  0  0  0  0  0  0  0  0  0  0
   -4.5909   -1.2527    0.1521 C   0  0  0  0  0  0  0  0  0  0  0  0
   -3.2034   -1.1247    0.0612 C   0  0  0  0  0  0  0  0  0  0  0  0
   -2.3510   -2.2953   -0.0829 C   0  0  0  0  0  0  0  0  0  0  0  0
   -2.7354   -3.4494   -0.1394 O   0  0  0  0  0  0  0  0  0  0  0  0
   -1.0125   -1.9843   -0.1687 N   0  0  0  0  0  0  0  0  0  0  0  0
    6.6533    1.9296    2.2817 H   0  0  0  0  0  0  0  0  0  0  0  0
    4.8336    2.3044    0.9581 H   0  0  0  0  0  0  0  0  0  0  0  0
    6.2417    3.0925    0.2496 H   0  0  0  0  0  0  0  0  0  0  0  0
    5.1446    1.8317   -1.4695 H   0  0  0  0  0  0  0  0  0  0  0  0
    6.6978    1.1224   -1.1508 H   0  0  0  0  0  0  0  0  0  0  0  0
    5.9382   -1.4715    0.8168 H   0  0  0  0  0  0  0  0  0  0  0  0
    5.7728   -1.9965   -0.8662 H   0  0  0  0  0  0  0  0  0  0  0  0
    7.0204   -0.8427   -0.4202 H   0  0  0  0  0  0  0  0  0  0  0  0
    3.2126    1.8702   -0.8181 H   0  0  0  0  0  0  0  0  0  0  0  0
    0.8443    1.5248   -0.6529 H   0  0  0  0  0  0  0  0  0  0  0  0
    3.8452   -2.2944    0.1453 H   0  0  0  0  0  0  0  0  0  0  0  0
    1.4990   -2.6069    0.3094 H   0  0  0  0  0  0  0  0  0  0  0  0
   -2.9604    2.2581    0.2399 H   0  0  0  0  0  0  0  0  0  0  0  0
   -6.4630   -0.2316    0.3451 H   0  0  0  0  0  0  0  0  0  0  0  0
   -5.0421   -2.2355    0.1262 H   0  0  0  0  0  0  0  0  0  0  0  0
   -0.3894   -2.7662   -0.3221 H   0  0  0  0  0  0  0  0  0  0  0  0
  1  2  1  0
  2  3  1  0
  3  4  1  0
  5  4  1  0
  4  6  1  0
  6  9  2  0
  6  7  1  0
  9 10  1  0
  7  8  2  0
 10 11  2  0
  8 11  1  0
 11 12  1  0
 12 13  2  0
 12 23  1  0
 13 14  1  0
 23 21  1  0
 14 15  2  0
 14 20  1  0
 15 16  1  0
 21 20  1  0
 21 22  2  0
 20 19  2  0
 16 17  1  0
 16 18  2  0
 19 18  1  0
  1 24  1  0
  2 25  1  0
  2 26  1  0
  3 27  1  0
  3 28  1  0
  5 29  1  0
  5 30  1  0
  5 31  1  0
  7 32  1  0
  8 33  1  0
  9 34  1  0
 10 35  1  0
 15 36  1  0
 18 37  1  0
 19 38  1  0
 23 39  1  0
M  END
