
     RDKit          3D

 47 50  0  0  0  0  0  0  0  0999 V2000
   -6.9920    0.4355    0.3178 C   0  0  0  0  0  0  0  0  0  0  0  0
   -6.8033    1.3955   -0.6689 C   0  0  0  0  0  0  0  0  0  0  0  0
   -5.5449    1.5979   -1.2125 C   0  0  0  0  0  0  0  0  0  0  0  0
   -4.4632    0.8424   -0.7732 C   0  0  0  0  0  0  0  0  0  0  0  0
   -4.6543   -0.1232    0.2211 C   0  0  0  0  0  0  0  0  0  0  0  0
   -5.9211   -0.3219    0.7623 C   0  0  0  0  0  0  0  0  0  0  0  0
   -3.1252    1.0777   -1.3703 C   0  0  0  0  0  0  0  0  0  0  0  0
   -2.0032    0.2508   -0.8842 C   0  0  0  0  0  0  0  0  0  0  0  0
   -2.2056   -0.7225    0.1135 C   0  0  0  0  0  0  0  0  0  0  0  0
   -3.5256   -0.9399    0.7061 C   0  0  0  0  0  0  0  0  0  0  0  0
   -0.7502    0.4293   -1.4322 C   0  0  0  0  0  0  0  0  0  0  0  0
    0.3249   -0.3420   -0.9967 C   0  0  0  0  0  0  0  0  0  0  0  0
    0.1457   -1.3072   -0.0141 C   0  0  0  0  0  0  0  0  0  0  0  0
   -1.1334   -1.5038    0.5430 C   0  0  0  0  0  0  0  0  0  0  0  0
   -3.6922   -1.7815    1.5842 O   0  0  0  0  0  0  0  0  0  0  0  0
   -2.9654    1.9205   -2.2304 O   0  0  0  0  0  0  0  0  0  0  0  0
   -1.2169   -2.4451    1.4776 O   0  0  0  0  0  0  0  0  0  0  0  0
    1.1907   -2.0364    0.3721 O   0  0  0  0  0  0  0  0  0  0  0  0
    1.6035   -0.1584   -1.5681 N   0  0  0  0  0  0  0  0  0  0  0  0
    2.4995    1.1597   -1.0850 S   0  0  1  0  0  0  0  0  0  0  0  0
    1.6821    2.3362   -1.3031 O   0  0  0  0  0  0  0  0  0  0  0  0
    2.7121    0.9851    0.6673 C   0  0  0  0  0  0  0  0  0  0  0  0
    3.7786    1.0323   -1.7566 O   0  0  0  0  0  0  0  0  0  0  0  0
    3.5038   -0.0402    1.1755 C   0  0  0  0  0  0  0  0  0  0  0  0
    3.6508   -0.1913    2.5403 C   0  0  0  0  0  0  0  0  0  0  0  0
    2.9958    0.6821    3.3976 C   0  0  0  0  0  0  0  0  0  0  0  0
    2.2002    1.7017    2.8953 C   0  0  0  0  0  0  0  0  0  0  0  0
    2.0515    1.8540    1.5255 C   0  0  0  0  0  0  0  0  0  0  0  0
    4.0831   -0.9271    0.3076 O   0  0  0  0  0  0  0  0  0  0  0  0
    5.3879   -0.7353   -0.0271 C   0  0  0  0  0  0  0  0  0  0  0  0
    5.8091   -1.7096   -1.0753 C   0  0  0  0  0  0  0  0  0  0  0  0
    6.0555    0.1195    0.4765 O   0  0  0  0  0  0  0  0  0  0  0  0
   -7.9748    0.2788    0.7412 H   0  0  0  0  0  0  0  0  0  0  0  0
   -7.6390    1.9892   -1.0140 H   0  0  0  0  0  0  0  0  0  0  0  0
   -5.4035    2.3454   -1.9807 H   0  0  0  0  0  0  0  0  0  0  0  0
   -6.0688   -1.0682    1.5307 H   0  0  0  0  0  0  0  0  0  0  0  0
   -0.5969    1.1550   -2.2175 H   0  0  0  0  0  0  0  0  0  0  0  0
   -2.1465   -2.4709    1.8003 H   0  0  0  0  0  0  0  0  0  0  0  0
    0.9416   -2.6831    1.0460 H   0  0  0  0  0  0  0  0  0  0  0  0
    2.1710   -0.9981   -1.6400 H   0  0  0  0  0  0  0  0  0  0  0  0
    4.2596   -0.9952    2.9322 H   0  0  0  0  0  0  0  0  0  0  0  0
    3.1095    0.5603    4.4663 H   0  0  0  0  0  0  0  0  0  0  0  0
    1.6882    2.3768    3.5665 H   0  0  0  0  0  0  0  0  0  0  0  0
    1.4292    2.6456    1.1330 H   0  0  0  0  0  0  0  0  0  0  0  0
    5.3568   -1.4261   -2.0271 H   0  0  0  0  0  0  0  0  0  0  0  0
    6.8893   -1.7013   -1.1871 H   0  0  0  0  0  0  0  0  0  0  0  0
    5.4713   -2.7171   -0.8384 H   0  0  0  0  0  0  0  0  0  0  0  0
 23 20  2  0
 20 21  2  0
 20 19  1  6
 20 22  1  0
 19 12  1  0
 31 30  1  0
 29 24  1  0
 29 30  1  0
 22 24  2  0
 22 28  1  0
 18 13  1  0
 24 25  1  0
 30 32  2  0
 28 27  2  0
 12 13  2  0
 12 11  1  0
 13 14  1  0
 25 26  2  0
 11  8  2  0
 27 26  1  0
 14 17  1  0
 14  9  2  0
  8  9  1  0
  8  7  1  0
 16  7  2  0
  9 10  1  0
  7  4  1  0
 10 15  2  0
 10  5  1  0
  4  5  2  0
  4  3  1  0
  5  6  1  0
  3  2  2  0
  6  1  2  0
  2  1  1  0
  1 33  1  0
  2 34  1  0
  3 35  1  0
  6 36  1  0
 11 37  1  0
 17 38  1  0
 18 39  1  0
 19 40  1  0
 25 41  1  0
 26 42  1  0
 27 43  1  0
 28 44  1  0
 31 45  1  0
 31 46  1  0
 31 47  1  0
M  END
