
     RDKit          3D

 43 44  0  0  0  0  0  0  0  0999 V2000
   -2.7422   -0.2040   -0.3981 C   0  0  2  0  0  0  0  0  0  0  0  0
   -3.8754    0.5281   -1.1189 C   0  0  0  0  0  0  0  0  0  0  0  0
   -5.2529    0.0027   -0.7297 C   0  0  0  0  0  0  0  0  0  0  0  0
   -5.4589    0.0551    0.7799 C   0  0  0  0  0  0  0  0  0  0  0  0
   -4.3478   -0.6953    1.5047 C   0  0  0  0  0  0  0  0  0  0  0  0
   -2.9690   -0.1704    1.1151 C   0  0  0  0  0  0  0  0  0  0  0  0
    1.5388    1.4162   -0.0409 C   0  0  1  0  0  0  0  0  0  0  0  0
    3.0475    1.2586   -0.0496 C   0  0  2  0  0  0  0  0  0  0  0  0
    3.2262   -0.1984    0.3634 C   0  0  1  0  0  0  0  0  0  0  0  0
    2.1723   -0.9222   -0.4777 C   0  0  1  0  0  0  0  0  0  0  0  0
    1.6886   -2.2411    0.0963 C   0  0  0  0  0  0  0  0  0  0  0  0
    1.0630    2.5548   -0.7130 O   0  0  0  0  0  0  0  0  0  0  0  0
    3.6558    2.2024    0.8008 O   0  0  0  0  0  0  0  0  0  0  0  0
    4.5162   -0.7059    0.1295 O   0  0  0  0  0  0  0  0  0  0  0  0
    2.7766   -3.1358    0.1798 O   0  0  0  0  0  0  0  0  0  0  0  0
    1.0265    0.1222   -0.6944 C   0  0  1  0  0  0  0  0  0  0  0  0
   -0.2750   -0.3333   -0.2491 N   0  0  0  0  0  0  0  0  0  0  0  0
   -1.4014    0.4045   -0.7943 C   0  0  0  0  0  0  0  0  0  0  0  0
   -2.7482   -1.2531   -0.7218 H   0  0  0  0  0  0  0  0  0  0  0  0
   -3.8166    1.5969   -0.8786 H   0  0  0  0  0  0  0  0  0  0  0  0
   -3.7358    0.4495   -2.2013 H   0  0  0  0  0  0  0  0  0  0  0  0
   -2.2058   -0.7579    1.6331 H   0  0  0  0  0  0  0  0  0  0  0  0
   -2.8593    0.8632    1.4666 H   0  0  0  0  0  0  0  0  0  0  0  0
   -1.3124    0.3821   -1.8856 H   0  0  0  0  0  0  0  0  0  0  0  0
   -1.4053    1.4676   -0.5111 H   0  0  0  0  0  0  0  0  0  0  0  0
   -6.0298    0.5769   -1.2403 H   0  0  0  0  0  0  0  0  0  0  0  0
   -5.3587   -1.0326   -1.0724 H   0  0  0  0  0  0  0  0  0  0  0  0
   -5.4650    1.1003    1.1085 H   0  0  0  0  0  0  0  0  0  0  0  0
   -6.4339   -0.3603    1.0462 H   0  0  0  0  0  0  0  0  0  0  0  0
   -4.4809   -0.6232    2.5872 H   0  0  0  0  0  0  0  0  0  0  0  0
   -4.4105   -1.7606    1.2563 H   0  0  0  0  0  0  0  0  0  0  0  0
    1.2106    1.4226    1.0129 H   0  0  0  0  0  0  0  0  0  0  0  0
    3.4062    1.3723   -1.0841 H   0  0  0  0  0  0  0  0  0  0  0  0
    1.3733    3.3328   -0.2384 H   0  0  0  0  0  0  0  0  0  0  0  0
    0.9416    0.3057   -1.7696 H   0  0  0  0  0  0  0  0  0  0  0  0
    2.9602   -0.2854    1.4300 H   0  0  0  0  0  0  0  0  0  0  0  0
    4.5629    2.3427    0.5160 H   0  0  0  0  0  0  0  0  0  0  0  0
    2.6220   -1.1295   -1.4553 H   0  0  0  0  0  0  0  0  0  0  0  0
    5.1220   -0.2838    0.7463 H   0  0  0  0  0  0  0  0  0  0  0  0
    1.2405   -2.0744    1.0856 H   0  0  0  0  0  0  0  0  0  0  0  0
    0.8923   -2.6371   -0.5439 H   0  0  0  0  0  0  0  0  0  0  0  0
    2.4439   -3.9654    0.5338 H   0  0  0  0  0  0  0  0  0  0  0  0
   -0.3116   -0.3083    0.7623 H   0  0  0  0  0  0  0  0  0  0  0  0
  1  2  1  0
  1  6  1  0
  1 18  1  0
  2  3  1  0
  3  4  1  0
  4  5  1  0
  5  6  1  0
  7  8  1  0
  7 12  1  0
  7 16  1  0
  8  9  1  0
  8 13  1  0
  9 10  1  0
  9 14  1  0
 10 11  1  0
 10 16  1  0
 11 15  1  0
 17 18  1  0
 17 16  1  0
  1 19  1  6
  2 20  1  0
  2 21  1  0
  6 22  1  0
  6 23  1  0
 18 24  1  0
 18 25  1  0
  3 26  1  0
  3 27  1  0
  4 28  1  0
  4 29  1  0
  5 30  1  0
  5 31  1  0
  7 32  1  1
  8 33  1  6
 12 34  1  0
 16 35  1  6
  9 36  1  1
 13 37  1  0
 10 38  1  6
 14 39  1  0
 11 40  1  0
 11 41  1  0
 15 42  1  0
 17 43  1  0
M  END
