
     RDKit          3D

 52 55  0  0  0  0  0  0  0  0999 V2000
   -4.9944    1.2144    2.3934 Cl  0  0  0  0  0  0  0  0  0  0  0  0
   -3.5586    0.9927    1.4539 C   0  0  0  0  0  0  0  0  0  0  0  0
   -3.6740    0.6088    0.1280 C   0  0  0  0  0  0  0  0  0  0  0  0
   -2.5169    0.4356   -0.6133 C   0  0  0  0  0  0  0  0  0  0  0  0
   -2.6926   -0.0471   -2.2679 Cl  0  0  0  0  0  0  0  0  0  0  0  0
   -2.3190    1.2026    2.0314 C   0  0  0  0  0  0  0  0  0  0  0  0
   -1.1828    1.0187    1.2595 C   0  0  0  0  0  0  0  0  0  0  0  0
   -1.2474    0.6302   -0.0725 C   0  0  0  0  0  0  0  0  0  0  0  0
   -0.0017    0.4062   -0.9006 C   0  0  1  0  0  0  0  0  0  0  0  0
    1.2637    0.9683   -0.3149 C   0  0  0  0  0  0  0  0  0  0  0  0
    1.5442    2.3516   -0.6451 C   0  0  0  0  0  0  0  0  0  0  0  0
    0.7372    3.0270   -1.2755 O   0  0  0  0  0  0  0  0  0  0  0  0
    2.8338    2.9662   -0.1637 C   0  0  0  0  0  0  0  0  0  0  0  0
    0.1433   -1.0217   -1.1830 N   0  0  0  0  0  0  0  0  0  0  0  0
    0.7274   -1.4177   -2.3498 C   0  0  0  0  0  0  0  0  0  0  0  0
    0.9788   -2.8954   -2.5092 C   0  0  0  0  0  0  0  0  0  0  0  0
    1.0243   -0.6126   -3.2156 O   0  0  0  0  0  0  0  0  0  0  0  0
   -0.0598   -1.8933   -0.0936 C   0  0  0  0  0  0  0  0  0  0  0  0
   -1.1637   -2.7321   -0.0321 C   0  0  0  0  0  0  0  0  0  0  0  0
   -1.3248   -3.5655    1.0600 C   0  0  0  0  0  0  0  0  0  0  0  0
   -0.4058   -3.5419    2.1010 C   0  0  0  0  0  0  0  0  0  0  0  0
    0.6769   -2.6768    2.0592 C   0  0  0  0  0  0  0  0  0  0  0  0
    1.5997   -2.5957    3.0364 O   0  0  0  0  0  0  0  0  0  0  0  0
    0.8562   -1.8371    0.9492 C   0  0  0  0  0  0  0  0  0  0  0  0
    1.9804   -1.0105    0.9154 N   0  0  0  0  0  0  0  0  0  0  0  0
    2.1499    0.2466    0.4354 C   0  0  0  0  0  0  0  0  0  0  0  0
    3.4723    0.8292    0.8560 C   0  0  0  0  0  0  0  0  0  0  0  0
    3.9709    1.9578   -0.0403 C   0  0  1  0  0  0  0  0  0  0  0  0
    4.3771    1.4255   -1.4168 C   0  0  0  0  0  0  0  0  0  0  0  0
    5.1820    2.6185    0.6119 C   0  0  0  0  0  0  0  0  0  0  0  0
   -4.6443    0.4485   -0.3210 H   0  0  0  0  0  0  0  0  0  0  0  0
   -2.2331    1.5034    3.0661 H   0  0  0  0  0  0  0  0  0  0  0  0
   -0.2150    1.1884    1.7133 H   0  0  0  0  0  0  0  0  0  0  0  0
   -0.1583    0.9013   -1.8604 H   0  0  0  0  0  0  0  0  0  0  0  0
    3.1027    3.7881   -0.8319 H   0  0  0  0  0  0  0  0  0  0  0  0
    2.6376    3.4144    0.8187 H   0  0  0  0  0  0  0  0  0  0  0  0
    0.0413   -3.4469   -2.5868 H   0  0  0  0  0  0  0  0  0  0  0  0
    1.5533   -3.0643   -3.4164 H   0  0  0  0  0  0  0  0  0  0  0  0
    1.5257   -3.3081   -1.6613 H   0  0  0  0  0  0  0  0  0  0  0  0
   -1.8793   -2.7268   -0.8428 H   0  0  0  0  0  0  0  0  0  0  0  0
   -2.1729   -4.2343    1.1126 H   0  0  0  0  0  0  0  0  0  0  0  0
   -0.5392   -4.1919    2.9579 H   0  0  0  0  0  0  0  0  0  0  0  0
    1.4236   -3.2463    3.7256 H   0  0  0  0  0  0  0  0  0  0  0  0
    2.7533   -1.3474    1.4701 H   0  0  0  0  0  0  0  0  0  0  0  0
    3.3642    1.1965    1.8839 H   0  0  0  0  0  0  0  0  0  0  0  0
    4.2184    0.0291    0.8971 H   0  0  0  0  0  0  0  0  0  0  0  0
    4.7458    2.2391   -2.0445 H   0  0  0  0  0  0  0  0  0  0  0  0
    5.1791    0.6914   -1.3212 H   0  0  0  0  0  0  0  0  0  0  0  0
    3.5517    0.9473   -1.9465 H   0  0  0  0  0  0  0  0  0  0  0  0
    4.9398    3.0063    1.6034 H   0  0  0  0  0  0  0  0  0  0  0  0
    6.0061    1.9099    0.7192 H   0  0  0  0  0  0  0  0  0  0  0  0
    5.5395    3.4525    0.0052 H   0  0  0  0  0  0  0  0  0  0  0  0
  1  2  1  0
  2  3  2  0
  2  6  1  0
  3  4  1  0
  4  5  1  0
  4  8  2  0
  6  7  2  0
  7  8  1  0
  8  9  1  0
  9 10  1  0
  9 14  1  0
 10 11  1  0
 10 26  2  0
 11 12  2  0
 11 13  1  0
 13 28  1  0
 14 15  1  0
 14 18  1  0
 15 16  1  0
 15 17  2  0
 18 19  1  0
 18 24  2  0
 19 20  2  0
 20 21  1  0
 21 22  2  0
 22 23  1  0
 22 24  1  0
 24 25  1  0
 25 26  1  0
 26 27  1  0
 27 28  1  0
 28 29  1  6
 28 30  1  0
  3 31  1  0
  6 32  1  0
  7 33  1  0
  9 34  1  6
 13 35  1  0
 13 36  1  0
 16 37  1  0
 16 38  1  0
 16 39  1  0
 19 40  1  0
 20 41  1  0
 21 42  1  0
 23 43  1  0
 25 44  1  0
 27 45  1  0
 27 46  1  0
 29 47  1  0
 29 48  1  0
 29 49  1  0
 30 50  1  0
 30 51  1  0
 30 52  1  0
M  END
