
     RDKit          3D

 13 12  0  0  0  0  0  0  0  0999 V2000
   -1.5258    0.0191   -0.0409 Br  0  0  0  0  0  0  0  0  0  0  0  0
    0.2565   -0.8205    0.0417 C   0  0  0  0  0  0  0  0  0  0  0  0
    1.3607    0.2119   -0.0164 C   0  0  0  0  0  0  0  0  0  0  0  0
    2.7260   -0.4676    0.0483 C   0  0  0  0  0  0  0  0  0  0  0  0
    3.7854    0.5273   -0.0176 N   0  0  0  0  0  0  0  0  0  0  0  0
    0.2786   -1.3903    0.9699 H   0  0  0  0  0  0  0  0  0  0  0  0
    0.3031   -1.5133   -0.7977 H   0  0  0  0  0  0  0  0  0  0  0  0
    1.2939    0.7927   -0.9387 H   0  0  0  0  0  0  0  0  0  0  0  0
    1.2626    0.9105    0.8190 H   0  0  0  0  0  0  0  0  0  0  0  0
    2.7700   -1.0997    0.9468 H   0  0  0  0  0  0  0  0  0  0  0  0
    2.8325   -1.1407   -0.8063 H   0  0  0  0  0  0  0  0  0  0  0  0
    3.7785    1.0762    0.8333 H   0  0  0  0  0  0  0  0  0  0  0  0
    4.6825    0.0596   -0.0314 H   0  0  0  0  0  0  0  0  0  0  0  0
  1  2  1  0
  2  3  1  0
  3  4  1  0
  4  5  1  0
  2  6  1  0
  2  7  1  0
  3  8  1  0
  3  9  1  0
  4 10  1  0
  4 11  1  0
  5 12  1  0
  5 13  1  0
M  END
