
     RDKit          3D

 20 20  0  0  0  0  0  0  0  0999 V2000
    2.2934   -0.3199   -0.2796 C   0  0  0  0  0  0  0  0  0  0  0  0
    1.4373   -0.4212    0.9614 C   0  0  0  0  0  0  0  0  0  0  0  0
   -0.0054   -0.1888    0.6459 C   0  0  0  0  0  0  0  0  0  0  0  0
   -0.8945   -1.1821    0.5739 C   0  0  0  0  0  0  0  0  0  0  0  0
   -2.3006   -0.9527    0.2175 C   0  0  0  0  0  0  0  0  0  0  0  0
   -3.1120   -1.8641    0.2035 O   0  0  0  0  0  0  0  0  0  0  0  0
   -2.6748    0.4202   -0.1496 C   0  0  0  0  0  0  0  0  0  0  0  0
   -1.7968    1.4181   -0.0655 C   0  0  0  0  0  0  0  0  0  0  0  0
   -0.4078    1.2439    0.4603 C   0  0  2  0  0  0  0  0  0  0  0  0
    0.5503    1.8860   -0.3479 O   0  0  0  0  0  0  0  0  0  0  0  0
    3.4857    0.2002   -0.0235 O   0  0  0  0  0  0  0  0  0  0  0  0
    1.9575   -0.7194   -1.3648 O   0  0  0  0  0  0  0  0  0  0  0  0
    1.5745   -1.4306    1.3592 H   0  0  0  0  0  0  0  0  0  0  0  0
    1.7888    0.2729    1.7266 H   0  0  0  0  0  0  0  0  0  0  0  0
    4.0249    0.2025   -0.8291 H   0  0  0  0  0  0  0  0  0  0  0  0
   -0.5974   -2.2070    0.7658 H   0  0  0  0  0  0  0  0  0  0  0  0
   -3.6863    0.5874   -0.4993 H   0  0  0  0  0  0  0  0  0  0  0  0
   -2.0837    2.4275   -0.3384 H   0  0  0  0  0  0  0  0  0  0  0  0
   -0.4082    1.6809    1.4733 H   0  0  0  0  0  0  0  0  0  0  0  0
    0.6192    2.8068   -0.0773 H   0  0  0  0  0  0  0  0  0  0  0  0
  1  2  1  0
  1 11  1  0
  1 12  2  0
  2  3  1  0
  3  4  2  0
  3  9  1  0
  4  5  1  0
  5  6  2  0
  5  7  1  0
  7  8  2  0
  8  9  1  0
  9 10  1  0
  2 13  1  0
  2 14  1  0
 11 15  1  0
  4 16  1  0
  7 17  1  0
  8 18  1  0
  9 19  1  1
 10 20  1  0
M  END
