
     RDKit          3D

 44 46  0  0  0  0  0  0  0  0999 V2000
    4.7145   -1.1720    0.4681 C   0  0  0  0  0  0  0  0  0  0  0  0
    5.8684   -1.9364    0.3671 C   0  0  0  0  0  0  0  0  0  0  0  0
    6.7582   -1.7253   -0.6791 C   0  0  0  0  0  0  0  0  0  0  0  0
    6.4839   -0.7435   -1.6207 C   0  0  0  0  0  0  0  0  0  0  0  0
    5.3278    0.0197   -1.5145 C   0  0  0  0  0  0  0  0  0  0  0  0
    2.0685    2.4230    0.9321 N   0  0  0  0  0  0  0  0  0  0  0  0
    0.8542    1.6428    1.0261 C   0  0  0  0  0  0  0  0  0  0  0  0
    0.6947    0.7436   -0.1992 C   0  0  1  0  0  0  0  0  0  0  0  0
    1.9057   -0.1671   -0.3449 C   0  0  0  0  0  0  0  0  0  0  0  0
    3.1869    0.6677   -0.3644 C   0  0  1  0  0  0  0  0  0  0  0  0
    3.2413    1.5748    0.8656 C   0  0  0  0  0  0  0  0  0  0  0  0
    4.4268   -0.1823   -0.4721 C   0  0  0  0  0  0  0  0  0  0  0  0
   -0.5065   -0.0649   -0.1080 N   0  0  0  0  0  0  0  0  0  0  0  0
   -1.7579    0.3692   -0.3183 C   0  0  0  0  0  0  0  0  0  0  0  0
   -2.0013    1.6864   -0.8430 C   0  0  0  0  0  0  0  0  0  0  0  0
   -3.1772    2.1557   -1.0763 N   0  0  0  0  0  0  0  0  0  0  0  0
   -4.2412    1.4197   -0.8347 N   0  0  0  0  0  0  0  0  0  0  0  0
   -5.5313    2.0271   -1.1166 C   0  0  0  0  0  0  0  0  0  0  0  0
   -4.2111    0.1253   -0.3382 C   0  0  0  0  0  0  0  0  0  0  0  0
   -5.2564   -0.4859   -0.1508 O   0  0  0  0  0  0  0  0  0  0  0  0
   -2.8955   -0.3756   -0.0839 C   0  0  0  0  0  0  0  0  0  0  0  0
   -2.8047   -2.1198    0.5935 Br  0  0  0  0  0  0  0  0  0  0  0  0
    4.0328   -1.3506    1.2914 H   0  0  0  0  0  0  0  0  0  0  0  0
    6.0728   -2.6987    1.1081 H   0  0  0  0  0  0  0  0  0  0  0  0
    7.6577   -2.3221   -0.7579 H   0  0  0  0  0  0  0  0  0  0  0  0
    7.1709   -0.5694   -2.4390 H   0  0  0  0  0  0  0  0  0  0  0  0
    5.1243    0.7857   -2.2540 H   0  0  0  0  0  0  0  0  0  0  0  0
    2.2090    2.9215    3.0045 H   0  0  0  0  0  0  0  0  0  0  0  0
    3.0568    3.9978    1.8842 H   0  0  0  0  0  0  0  0  0  0  0  0
    1.2975    4.0493    1.9889 H   0  0  0  0  0  0  0  0  0  0  0  0
    0.0042    2.3277    1.1001 H   0  0  0  0  0  0  0  0  0  0  0  0
    0.6389    1.3695   -1.0940 H   0  0  0  0  0  0  0  0  0  0  0  0
    1.9312   -0.8679    0.4975 H   0  0  0  0  0  0  0  0  0  0  0  0
    1.8244   -0.7613   -1.2578 H   0  0  0  0  0  0  0  0  0  0  0  0
    3.1506    1.3204   -1.2432 H   0  0  0  0  0  0  0  0  0  0  0  0
    4.1295    2.2091    0.8087 H   0  0  0  0  0  0  0  0  0  0  0  0
    3.3472    0.9552    1.7747 H   0  0  0  0  0  0  0  0  0  0  0  0
   -1.1861    2.3578   -1.0730 H   0  0  0  0  0  0  0  0  0  0  0  0
   -5.3513    3.0403   -1.4593 H   0  0  0  0  0  0  0  0  0  0  0  0
   -6.0600    1.4732   -1.8904 H   0  0  0  0  0  0  0  0  0  0  0  0
   -6.1477    2.0541   -0.2204 H   0  0  0  0  0  0  0  0  0  0  0  0
   -0.3966   -0.9654    0.3344 H   0  0  0  0  0  0  0  0  0  0  0  0
    0.8325    1.0096    1.9321 H   0  0  0  0  0  0  0  0  0  0  0  0
    2.1626    3.3855    2.0073 C   0  0  0  0  0  0  0  0  0  0  0  0
 22 21  1  0
 20 19  2  0
 19 21  1  0
 19 17  1  0
 21 14  2  0
 14 13  1  0
 14 15  1  0
 17 18  1  0
 17 16  1  0
 13  8  1  0
  9  8  1  0
  9 10  1  0
 15 16  2  0
  8  7  1  0
  4  5  2  0
  4  3  1  0
  5 12  1  0
  7  6  1  0
  3  2  2  0
 12 10  1  0
 12  1  2  0
 10 11  1  0
 11  6  1  0
  2  1  1  0
  6 44  1  0
  1 23  1  0
  2 24  1  0
  3 25  1  0
  4 26  1  0
  5 27  1  0
 44 28  1  0
 44 29  1  0
 44 30  1  0
  7 43  1  0
  7 31  1  0
  8 32  1  6
  9 33  1  0
  9 34  1  0
 10 35  1  6
 11 36  1  0
 11 37  1  0
 15 38  1  0
 18 39  1  0
 18 40  1  0
 18 41  1  0
 13 42  1  0
M  END
