
     RDKit          3D

 53 55  0  0  0  0  0  0  0  0999 V2000
   -6.0913   -0.3922    0.7519 C   0  0  0  0  0  0  0  0  0  0  0  0
   -7.5848   -0.2829    1.0481 C   0  0  0  0  0  0  0  0  0  0  0  0
   -8.2540   -1.6532    1.0414 C   0  0  0  0  0  0  0  0  0  0  0  0
   -8.0048   -2.3737   -0.2794 C   0  0  0  0  0  0  0  0  0  0  0  0
   -6.5130   -2.4802   -0.5766 C   0  0  0  0  0  0  0  0  0  0  0  0
   -5.8242   -1.1139   -0.5696 C   0  0  2  0  0  0  0  0  0  0  0  0
   -4.3344   -1.2916   -0.8364 C   0  0  0  0  0  0  0  0  0  0  0  0
   -3.5695   -0.0049   -1.0393 C   0  0  0  0  0  0  0  0  0  0  0  0
   -4.0773    1.0305   -1.4463 O   0  0  0  0  0  0  0  0  0  0  0  0
   -2.2522   -0.0733   -0.7706 N   0  0  0  0  0  0  0  0  0  0  0  0
   -1.3882    1.0518   -1.0119 C   0  0  1  0  0  0  0  0  0  0  0  0
   -1.8291    2.2445   -0.1541 C   0  0  0  0  0  0  0  0  0  0  0  0
   -2.1365    2.1310    1.0132 O   0  0  0  0  0  0  0  0  0  0  0  0
   -1.7113    3.4175   -0.8028 N   0  0  0  0  0  0  0  0  0  0  0  0
   -2.1327    4.5594   -0.1863 O   0  0  0  0  0  0  0  0  0  0  0  0
    0.0403    0.7067   -0.6683 C   0  0  0  0  0  0  0  0  0  0  0  0
    0.3757    0.1781    0.5760 C   0  0  0  0  0  0  0  0  0  0  0  0
    1.6888   -0.1510    0.8667 C   0  0  0  0  0  0  0  0  0  0  0  0
    1.0481    0.9115   -1.6026 C   0  0  0  0  0  0  0  0  0  0  0  0
    2.3641    0.5927   -1.3068 C   0  0  0  0  0  0  0  0  0  0  0  0
    2.7037    0.0501   -0.0690 C   0  0  0  0  0  0  0  0  0  0  0  0
    4.0994   -0.3125    0.2429 C   0  0  0  0  0  0  0  0  0  0  0  0
    5.1549    0.4718   -0.2208 C   0  0  0  0  0  0  0  0  0  0  0  0
    6.4527    0.1187    0.0799 C   0  0  0  0  0  0  0  0  0  0  0  0
    7.4700    0.8664   -0.3492 F   0  0  0  0  0  0  0  0  0  0  0  0
    6.7358   -1.0034    0.8370 C   0  0  0  0  0  0  0  0  0  0  0  0
    7.9939   -1.3312    1.1232 F   0  0  0  0  0  0  0  0  0  0  0  0
    5.6834   -1.7766    1.2921 C   0  0  0  0  0  0  0  0  0  0  0  0
    5.9602   -2.8661    2.0085 F   0  0  0  0  0  0  0  0  0  0  0  0
    4.3764   -1.4465    1.0056 C   0  0  0  0  0  0  0  0  0  0  0  0
   -5.6433    0.6036    0.7402 H   0  0  0  0  0  0  0  0  0  0  0  0
   -5.6015   -0.9445    1.5635 H   0  0  0  0  0  0  0  0  0  0  0  0
   -7.7378    0.2117    2.0104 H   0  0  0  0  0  0  0  0  0  0  0  0
   -8.0582    0.3571    0.2954 H   0  0  0  0  0  0  0  0  0  0  0  0
   -7.8425   -2.2554    1.8595 H   0  0  0  0  0  0  0  0  0  0  0  0
   -9.3261   -1.5596    1.2314 H   0  0  0  0  0  0  0  0  0  0  0  0
   -8.4530   -3.3705   -0.2609 H   0  0  0  0  0  0  0  0  0  0  0  0
   -8.5007   -1.8306   -1.0916 H   0  0  0  0  0  0  0  0  0  0  0  0
   -6.0409   -3.1251    0.1744 H   0  0  0  0  0  0  0  0  0  0  0  0
   -6.3515   -2.9680   -1.5423 H   0  0  0  0  0  0  0  0  0  0  0  0
   -6.2532   -0.5163   -1.3828 H   0  0  0  0  0  0  0  0  0  0  0  0
   -3.8815   -1.8712   -0.0259 H   0  0  0  0  0  0  0  0  0  0  0  0
   -4.1956   -1.8879   -1.7459 H   0  0  0  0  0  0  0  0  0  0  0  0
   -1.8470   -0.9431   -0.4646 H   0  0  0  0  0  0  0  0  0  0  0  0
   -1.4299    1.3285   -2.0708 H   0  0  0  0  0  0  0  0  0  0  0  0
   -1.7254    3.4701   -1.8119 H   0  0  0  0  0  0  0  0  0  0  0  0
   -1.3298    5.0179    0.0925 H   0  0  0  0  0  0  0  0  0  0  0  0
   -0.3836    0.0262    1.3322 H   0  0  0  0  0  0  0  0  0  0  0  0
    1.9236   -0.5505    1.8452 H   0  0  0  0  0  0  0  0  0  0  0  0
    0.8037    1.3097   -2.5796 H   0  0  0  0  0  0  0  0  0  0  0  0
    3.1221    0.7459   -2.0644 H   0  0  0  0  0  0  0  0  0  0  0  0
    4.9776    1.3696   -0.7983 H   0  0  0  0  0  0  0  0  0  0  0  0
    3.5844   -2.0930    1.3611 H   0  0  0  0  0  0  0  0  0  0  0  0
 15 14  1  0
 14 12  1  0
 13 12  2  0
 12 11  1  0
  7  8  1  0
  7  6  1  0
 10 11  1  0
 10  8  1  0
 11 16  1  0
  8  9  2  0
  5  6  1  0
  5  4  1  0
  6  1  1  0
 16 19  1  0
 16 17  2  0
  4  3  1  0
 19 20  2  0
 17 18  1  0
  1  2  1  0
  3  2  1  0
 20 21  1  0
 18 21  2  0
 21 22  1  0
 22 23  2  0
 22 30  1  0
 23 24  1  0
 30 28  2  0
 24 25  1  0
 24 26  2  0
 28 26  1  0
 28 29  1  0
 26 27  1  0
  1 31  1  0
  1 32  1  0
  2 33  1  0
  2 34  1  0
  3 35  1  0
  3 36  1  0
  4 37  1  0
  4 38  1  0
  5 39  1  0
  5 40  1  0
  6 41  1  6
  7 42  1  0
  7 43  1  0
 10 44  1  0
 11 45  1  6
 14 46  1  0
 15 47  1  0
 17 48  1  0
 18 49  1  0
 19 50  1  0
 20 51  1  0
 23 52  1  0
 30 53  1  0
M  END
