
     RDKit          3D

 59 61  0  0  0  0  0  0  0  0999 V2000
   -9.2049   -0.2847   -0.9329 C   0  0  0  0  0  0  0  0  0  0  0  0
   -8.3743    0.7764    0.2240 S   0  0  1  0  0  0  0  0  0  0  0  0
   -8.5744    2.1529   -0.2049 O   0  0  0  0  0  0  0  0  0  0  0  0
   -8.7715    0.3775    1.5622 O   0  0  0  0  0  0  0  0  0  0  0  0
   -6.7642    0.4620    0.1002 N   0  0  0  0  0  0  0  0  0  0  0  0
   -6.0548    0.8024   -1.1275 C   0  0  0  0  0  0  0  0  0  0  0  0
   -4.5662    0.6908   -0.9005 C   0  0  0  0  0  0  0  0  0  0  0  0
   -4.2949   -0.6490   -0.5492 O   0  0  0  0  0  0  0  0  0  0  0  0
   -3.0391   -0.9895   -0.1955 C   0  0  0  0  0  0  0  0  0  0  0  0
   -1.9455   -0.1515   -0.2781 C   0  0  0  0  0  0  0  0  0  0  0  0
   -2.8837   -2.3069    0.2800 C   0  0  0  0  0  0  0  0  0  0  0  0
   -4.0052   -3.0418    0.3285 O   0  0  0  0  0  0  0  0  0  0  0  0
   -3.9073   -4.3818    0.7625 C   0  0  0  0  0  0  0  0  0  0  0  0
   -1.6216   -2.7409    0.6540 C   0  0  0  0  0  0  0  0  0  0  0  0
   -0.5244   -1.8938    0.5640 C   0  0  0  0  0  0  0  0  0  0  0  0
   -0.6716   -0.5967    0.0978 C   0  0  0  0  0  0  0  0  0  0  0  0
    0.4958    0.2748    0.0064 C   0  0  0  0  0  0  0  0  0  0  0  0
    1.6579   -0.0151    0.4990 N   0  0  0  0  0  0  0  0  0  0  0  0
    0.4609    1.8046   -0.8064 S   0  0  0  0  0  0  0  0  0  0  0  0
    2.1240    2.0431   -0.4366 C   0  0  0  0  0  0  0  0  0  0  0  0
    2.8738    3.2542   -0.8803 C   0  0  0  0  0  0  0  0  0  0  0  0
    2.5760    0.9624    0.2617 C   0  0  0  0  0  0  0  0  0  0  0  0
    3.9751    0.7892    0.7572 C   0  0  1  0  0  0  0  0  0  0  0  0
    4.0354    0.4489    2.2376 C   0  0  0  0  0  0  0  0  0  0  0  0
    4.7335   -0.5244   -0.2699 S   0  0  0  0  0  0  0  0  0  0  0  0
    6.4555   -0.1910   -0.1071 C   0  0  0  0  0  0  0  0  0  0  0  0
    7.2034   -1.0613   -0.7590 N   0  0  0  0  0  0  0  0  0  0  0  0
    6.8433    0.8442    0.6053 N   0  0  0  0  0  0  0  0  0  0  0  0
    8.1689    1.0404    0.6831 C   0  0  0  0  0  0  0  0  0  0  0  0
    8.5730    2.0788    1.4432 N   0  0  0  0  0  0  0  0  0  0  0  0
    9.0700    0.1987    0.0372 C   0  0  0  0  0  0  0  0  0  0  0  0
    8.5256   -0.8591   -0.6914 C   0  0  0  0  0  0  0  0  0  0  0  0
    9.2992   -1.7165   -1.3907 N   0  0  0  0  0  0  0  0  0  0  0  0
   -8.8801   -0.0578   -1.9460 H   0  0  0  0  0  0  0  0  0  0  0  0
   -8.9888   -1.3225   -0.6925 H   0  0  0  0  0  0  0  0  0  0  0  0
  -10.2748   -0.1026   -0.8466 H   0  0  0  0  0  0  0  0  0  0  0  0
   -6.5189   -0.4466    0.4799 H   0  0  0  0  0  0  0  0  0  0  0  0
   -6.3501    0.1693   -1.9712 H   0  0  0  0  0  0  0  0  0  0  0  0
   -6.2762    1.8358   -1.3906 H   0  0  0  0  0  0  0  0  0  0  0  0
   -4.0443    0.9745   -1.8210 H   0  0  0  0  0  0  0  0  0  0  0  0
   -4.2542    1.3748   -0.1037 H   0  0  0  0  0  0  0  0  0  0  0  0
   -2.0728    0.8630   -0.6363 H   0  0  0  0  0  0  0  0  0  0  0  0
   -4.9096   -4.7987    0.7053 H   0  0  0  0  0  0  0  0  0  0  0  0
   -3.2445   -4.9703    0.1227 H   0  0  0  0  0  0  0  0  0  0  0  0
   -3.5556   -4.4541    1.7951 H   0  0  0  0  0  0  0  0  0  0  0  0
   -1.4693   -3.7464    1.0213 H   0  0  0  0  0  0  0  0  0  0  0  0
    0.4528   -2.2534    0.8542 H   0  0  0  0  0  0  0  0  0  0  0  0
    2.2212    3.9850   -1.3537 H   0  0  0  0  0  0  0  0  0  0  0  0
    3.3584    3.7484   -0.0381 H   0  0  0  0  0  0  0  0  0  0  0  0
    3.6488    2.9918   -1.6018 H   0  0  0  0  0  0  0  0  0  0  0  0
    4.5512    1.6944    0.5662 H   0  0  0  0  0  0  0  0  0  0  0  0
    3.6015    1.2600    2.8262 H   0  0  0  0  0  0  0  0  0  0  0  0
    3.4831   -0.4636    2.4552 H   0  0  0  0  0  0  0  0  0  0  0  0
    5.0687    0.3204    2.5538 H   0  0  0  0  0  0  0  0  0  0  0  0
    7.8818    2.7489    1.7306 H   0  0  0  0  0  0  0  0  0  0  0  0
    9.5211    2.4029    1.3877 H   0  0  0  0  0  0  0  0  0  0  0  0
   10.1397    0.3608    0.0935 H   0  0  0  0  0  0  0  0  0  0  0  0
    8.8697   -2.5557   -1.7385 H   0  0  0  0  0  0  0  0  0  0  0  0
   10.2851   -1.7611   -1.2068 H   0  0  0  0  0  0  0  0  0  0  0  0
  1  2  1  0
  4  2  2  0
  2  3  2  0
  2  5  1  1
  5  6  1  0
  6  7  1  0
  7  8  1  0
  8  9  1  0
 24 23  1  0
 13 12  1  0
  9 10  2  0
  9 11  1  0
 10 16  1  0
 12 11  1  0
 11 14  2  0
 18 22  1  0
 18 17  2  0
 23 25  1  0
 23 22  1  0
 25 26  1  0
 16 17  1  0
 16 15  2  0
 26 27  2  0
 26 28  1  0
 27 32  1  0
 28 29  2  0
 22 20  2  0
 32 33  1  0
 32 31  2  0
 17 19  1  0
 29 31  1  0
 29 30  1  0
 14 15  1  0
 20 19  1  0
 20 21  1  0
  1 34  1  0
  1 35  1  0
  1 36  1  0
  5 37  1  0
  6 38  1  0
  6 39  1  0
  7 40  1  0
  7 41  1  0
 10 42  1  0
 13 43  1  0
 13 44  1  0
 13 45  1  0
 14 46  1  0
 15 47  1  0
 21 48  1  0
 21 49  1  0
 21 50  1  0
 23 51  1  1
 24 52  1  0
 24 53  1  0
 24 54  1  0
 30 55  1  0
 30 56  1  0
 31 57  1  0
 33 58  1  0
 33 59  1  0
M  END
