
     RDKit          3D

 29 30  0  0  0  0  0  0  0  0999 V2000
    3.2210    0.4556    0.9271 C   0  0  0  0  0  0  0  0  0  0  0  0
    1.9279   -0.2570    0.6711 C   0  0  0  0  0  0  0  0  0  0  0  0
    1.8942   -1.6285    0.4613 C   0  0  0  0  0  0  0  0  0  0  0  0
    5.0392    1.5428   -0.0799 O   0  0  0  0  0  0  0  0  0  0  0  0
   -3.9918    1.5834    0.0363 C   0  0  0  0  0  0  0  0  0  0  0  0
    0.7332    0.4458    0.6173 C   0  0  0  0  0  0  0  0  0  0  0  0
    3.4149    0.8537   -1.4450 O   0  0  0  0  0  0  0  0  0  0  0  0
    3.8743    0.9581   -0.3370 C   0  0  0  0  0  0  0  0  0  0  0  0
    0.6976   -2.2781    0.2007 C   0  0  0  0  0  0  0  0  0  0  0  0
   -0.4935   -1.5616    0.1532 C   0  0  0  0  0  0  0  0  0  0  0  0
   -1.7680   -3.5130   -0.3373 C   0  0  0  0  0  0  0  0  0  0  0  0
   -0.4942   -0.1718    0.3743 C   0  0  0  0  0  0  0  0  0  0  0  0
   -1.7203    0.6294    0.3713 C   0  0  0  0  0  0  0  0  0  0  0  0
   -1.8578    1.9087    0.8514 C   0  0  0  0  0  0  0  0  0  0  0  0
   -3.1503    2.4530    0.6610 C   0  0  0  0  0  0  0  0  0  0  0  0
   -3.2237    0.0953   -0.3071 S   0  0  0  0  0  0  0  0  0  0  0  0
    3.0730    1.3097    1.5946 H   0  0  0  0  0  0  0  0  0  0  0  0
    3.9318   -0.1973    1.4415 H   0  0  0  0  0  0  0  0  0  0  0  0
    2.8080   -2.2091    0.4969 H   0  0  0  0  0  0  0  0  0  0  0  0
    5.4424    1.8566   -0.9034 H   0  0  0  0  0  0  0  0  0  0  0  0
   -5.0294    1.7317   -0.2214 H   0  0  0  0  0  0  0  0  0  0  0  0
    0.7606    1.5186    0.7623 H   0  0  0  0  0  0  0  0  0  0  0  0
    0.7075   -3.3476    0.0408 H   0  0  0  0  0  0  0  0  0  0  0  0
   -1.4251   -4.0939    0.5220 H   0  0  0  0  0  0  0  0  0  0  0  0
   -2.8175   -3.7321   -0.5152 H   0  0  0  0  0  0  0  0  0  0  0  0
   -1.1913   -3.8057   -1.2180 H   0  0  0  0  0  0  0  0  0  0  0  0
   -1.0599    2.4496    1.3398 H   0  0  0  0  0  0  0  0  0  0  0  0
   -3.4385    3.4436    0.9819 H   0  0  0  0  0  0  0  0  0  0  0  0
   -1.6879   -2.1222   -0.0940 O   0  0  0  0  0  0  0  0  0  0  0  0
  5 15  2  0
  5 16  1  0
 15 14  1  0
 14 13  2  0
 16 13  1  0
 13 12  1  0
 12  6  1  0
 12 10  2  0
 29 10  1  0
 29 11  1  0
  6  2  2  0
 10  9  1  0
  2  1  1  0
  2  3  1  0
  9  3  2  0
  7  8  2  0
  1  8  1  0
  8  4  1  0
  1 17  1  0
  1 18  1  0
  3 19  1  0
  4 20  1  0
  5 21  1  0
  6 22  1  0
  9 23  1  0
 11 24  1  0
 11 25  1  0
 11 26  1  0
 14 27  1  0
 15 28  1  0
M  END
