
     RDKit          3D

 26 25  0  0  0  0  0  0  0  0999 V2000
    3.0535   -0.2210   -0.0300 C   0  0  0  0  0  0  0  0  0  0  0  0
   -1.8881   -0.4113   -0.1209 C   0  0  0  0  0  0  0  0  0  0  0  0
   -0.6944    0.4836    0.1748 C   0  0  0  0  0  0  0  0  0  0  0  0
    1.8821    1.8823   -0.6388 N   0  0  0  0  0  0  0  0  0  0  0  0
    3.2718   -1.0662    1.0116 O   0  0  0  0  0  0  0  0  0  0  0  0
   -1.7170   -1.5421   -0.6212 O   0  0  0  0  0  0  0  0  0  0  0  0
   -3.1787    0.0389    0.1684 N   0  0  0  0  0  0  0  0  0  0  0  0
   -3.4324    1.3301    0.7433 C   0  0  0  0  0  0  0  0  0  0  0  0
   -4.3279   -0.7840   -0.0995 C   0  0  0  0  0  0  0  0  0  0  0  0
    1.8132    0.6556    0.1179 C   0  0  1  0  0  0  0  0  0  0  0  0
    0.5903   -0.2075   -0.2272 C   0  0  0  0  0  0  0  0  0  0  0  0
    3.8633   -0.2525   -0.9619 O   0  0  0  0  0  0  0  0  0  0  0  0
   -0.7977    1.4530   -0.3831 H   0  0  0  0  0  0  0  0  0  0  0  0
   -0.6684    0.7167    1.2732 H   0  0  0  0  0  0  0  0  0  0  0  0
    2.7318    2.3741   -0.4381 H   0  0  0  0  0  0  0  0  0  0  0  0
    1.8323    1.7020   -1.6232 H   0  0  0  0  0  0  0  0  0  0  0  0
    4.0746   -1.5891    0.8474 H   0  0  0  0  0  0  0  0  0  0  0  0
   -3.0558    2.1539    0.0758 H   0  0  0  0  0  0  0  0  0  0  0  0
   -4.5358    1.4731    0.8874 H   0  0  0  0  0  0  0  0  0  0  0  0
   -2.9311    1.4232    1.7441 H   0  0  0  0  0  0  0  0  0  0  0  0
   -4.0466   -1.8706   -0.1234 H   0  0  0  0  0  0  0  0  0  0  0  0
   -5.0979   -0.6298    0.7033 H   0  0  0  0  0  0  0  0  0  0  0  0
   -4.7825   -0.5055   -1.0879 H   0  0  0  0  0  0  0  0  0  0  0  0
    1.7547    0.9381    1.2135 H   0  0  0  0  0  0  0  0  0  0  0  0
    0.6819   -1.1844    0.3191 H   0  0  0  0  0  0  0  0  0  0  0  0
    0.5687   -0.4406   -1.3235 H   0  0  0  0  0  0  0  0  0  0  0  0
 12  1  2  0
  5  1  1  0
  1 10  1  0
  3  2  1  0
  2  6  2  0
  2  7  1  0
 11  3  1  0
  3 13  1  0
  3 14  1  0
  4 10  1  0
  4 15  1  0
  4 16  1  0
  5 17  1  0
  8  7  1  0
  7  9  1  0
  8 18  1  0
  8 19  1  0
  8 20  1  0
  9 21  1  0
  9 22  1  0
  9 23  1  0
 10 11  1  0
 10 24  1  1
 11 25  1  0
 11 26  1  0
M  END
