
     RDKit          3D

 38 38  0  0  0  0  0  0  0  0999 V2000
   -5.8419   -0.6011    0.0254 C   0  0  0  0  0  0  0  0  0  0  0  0
   -8.3566   -0.9477    0.0529 C   0  0  0  0  0  0  0  0  0  0  0  0
   -7.2150    0.0595    0.0599 C   0  0  0  0  0  0  0  0  0  0  0  0
   -3.3190   -0.2528   -0.0130 C   0  0  0  0  0  0  0  0  0  0  0  0
   -2.1863    0.7662    0.0020 C   0  0  0  0  0  0  0  0  0  0  0  0
   -4.6946    0.4008    0.0336 C   0  0  0  0  0  0  0  0  0  0  0  0
   -0.8182    0.1063   -0.0663 C   0  0  0  0  0  0  0  0  0  0  0  0
    0.3373    1.0778   -0.0465 C   0  0  0  0  0  0  0  0  0  0  0  0
    1.7229    0.5386   -0.1011 C   0  0  0  0  0  0  0  0  0  0  0  0
    1.9775   -0.8312   -0.1702 C   0  0  0  0  0  0  0  0  0  0  0  0
    3.2828   -1.2918   -0.2181 C   0  0  0  0  0  0  0  0  0  0  0  0
    4.3486   -0.3915   -0.1942 C   0  0  0  0  0  0  0  0  0  0  0  0
    4.0927    0.9798   -0.1256 C   0  0  0  0  0  0  0  0  0  0  0  0
    2.7869    1.4376   -0.0796 C   0  0  0  0  0  0  0  0  0  0  0  0
    5.0993    1.8759   -0.1034 O   0  0  0  0  0  0  0  0  0  0  0  0
    5.6380   -0.7807   -0.2350 O   0  0  0  0  0  0  0  0  0  0  0  0
    3.6244   -2.5966   -0.2860 O   0  0  0  0  0  0  0  0  0  0  0  0
    0.1485    2.2762    0.0136 O   0  0  0  0  0  0  0  0  0  0  0  0
   -5.7420   -1.2758    0.8831 H   0  0  0  0  0  0  0  0  0  0  0  0
   -5.7665   -1.2338   -0.8663 H   0  0  0  0  0  0  0  0  0  0  0  0
   -9.3289   -0.4541    0.0741 H   0  0  0  0  0  0  0  0  0  0  0  0
   -8.3232   -1.5730   -0.8413 H   0  0  0  0  0  0  0  0  0  0  0  0
   -8.3023   -1.6091    0.9193 H   0  0  0  0  0  0  0  0  0  0  0  0
   -7.2887    0.6933    0.9493 H   0  0  0  0  0  0  0  0  0  0  0  0
   -7.3130    0.7322   -0.7981 H   0  0  0  0  0  0  0  0  0  0  0  0
   -3.2422   -0.8746   -0.9119 H   0  0  0  0  0  0  0  0  0  0  0  0
   -3.2098   -0.9351    0.8372 H   0  0  0  0  0  0  0  0  0  0  0  0
   -2.3075    1.4525   -0.8402 H   0  0  0  0  0  0  0  0  0  0  0  0
   -2.2603    1.3758    0.9065 H   0  0  0  0  0  0  0  0  0  0  0  0
   -4.8008    1.0797   -0.8198 H   0  0  0  0  0  0  0  0  0  0  0  0
   -4.7679    1.0286    0.9287 H   0  0  0  0  0  0  0  0  0  0  0  0
   -0.6942   -0.5985    0.7635 H   0  0  0  0  0  0  0  0  0  0  0  0
   -0.7408   -0.5050   -0.9726 H   0  0  0  0  0  0  0  0  0  0  0  0
    1.1711   -1.5529   -0.1889 H   0  0  0  0  0  0  0  0  0  0  0  0
    2.6061    2.5031   -0.0256 H   0  0  0  0  0  0  0  0  0  0  0  0
    5.9552    1.4318   -0.1254 H   0  0  0  0  0  0  0  0  0  0  0  0
    5.7130   -1.7421   -0.2658 H   0  0  0  0  0  0  0  0  0  0  0  0
    2.8424   -3.1597   -0.2963 H   0  0  0  0  0  0  0  0  0  0  0  0
  2  3  1  0
 17 11  1  0
 18  8  2  0
  1  3  1  0
  1  6  1  0
 11 10  1  0
 11 12  2  0
 10  9  2  0
 16 12  1  0
 12 13  1  0
  8  9  1  0
  8  7  1  0
  9 14  1  0
  6  4  1  0
  4  5  1  0
 13 14  2  0
 13 15  1  0
  5  7  1  0
  1 19  1  0
  1 20  1  0
  2 21  1  0
  2 22  1  0
  2 23  1  0
  3 24  1  0
  3 25  1  0
  4 26  1  0
  4 27  1  0
  5 28  1  0
  5 29  1  0
  6 30  1  0
  6 31  1  0
  7 32  1  0
  7 33  1  0
 10 34  1  0
 14 35  1  0
 15 36  1  0
 16 37  1  0
 17 38  1  0
M  END
