
     RDKit          3D

 30 31  0  0  0  0  0  0  0  0999 V2000
    0.0369    2.5525   -1.3650 C   0  0  0  0  0  0  0  0  0  0  0  0
   -3.1616    0.0003    1.1978 C   0  0  0  0  0  0  0  0  0  0  0  0
   -2.8067   -0.7714   -1.0480 C   0  0  0  0  0  0  0  0  0  0  0  0
    2.8736   -0.3274    1.4146 C   0  0  0  0  0  0  0  0  0  0  0  0
    2.9313   -0.6937   -0.9570 C   0  0  0  0  0  0  0  0  0  0  0  0
   -2.0204    0.7854    1.0957 C   0  0  0  0  0  0  0  0  0  0  0  0
   -1.6709    0.0165   -1.1294 C   0  0  0  0  0  0  0  0  0  0  0  0
    1.7805    0.5063    1.2445 C   0  0  0  0  0  0  0  0  0  0  0  0
    1.8358    0.1462   -1.1068 C   0  0  0  0  0  0  0  0  0  0  0  0
   -3.5623   -0.7858    0.1233 C   0  0  0  0  0  0  0  0  0  0  0  0
    3.4579   -0.9375    0.3075 C   0  0  0  0  0  0  0  0  0  0  0  0
   -1.2519    0.8094   -0.0620 C   0  0  0  0  0  0  0  0  0  0  0  0
    1.2361    0.7619   -0.0128 C   0  0  0  0  0  0  0  0  0  0  0  0
    0.0104    1.6453   -0.1355 C   0  0  1  0  0  0  0  0  0  0  0  0
    4.5221   -1.7418    0.5148 O   0  0  0  0  0  0  0  0  0  0  0  0
   -0.8301    3.2130   -1.3643 H   0  0  0  0  0  0  0  0  0  0  0  0
    0.9352    3.1705   -1.3666 H   0  0  0  0  0  0  0  0  0  0  0  0
    0.0192    1.9926   -2.3004 H   0  0  0  0  0  0  0  0  0  0  0  0
   -3.7374    0.0061    2.1168 H   0  0  0  0  0  0  0  0  0  0  0  0
   -3.1109   -1.3800   -1.8908 H   0  0  0  0  0  0  0  0  0  0  0  0
    3.2784   -0.5034    2.4037 H   0  0  0  0  0  0  0  0  0  0  0  0
    3.3757   -1.1560   -1.8317 H   0  0  0  0  0  0  0  0  0  0  0  0
   -1.7275    1.3928    1.9448 H   0  0  0  0  0  0  0  0  0  0  0  0
   -1.1033    0.0041   -2.0523 H   0  0  0  0  0  0  0  0  0  0  0  0
    1.3400    0.9725    2.1186 H   0  0  0  0  0  0  0  0  0  0  0  0
    1.4595    0.3133   -2.1086 H   0  0  0  0  0  0  0  0  0  0  0  0
    0.0050    2.2987    0.7418 H   0  0  0  0  0  0  0  0  0  0  0  0
   -5.0829   -1.5162    1.0223 H   0  0  0  0  0  0  0  0  0  0  0  0
    4.8384   -2.1000   -0.3220 H   0  0  0  0  0  0  0  0  0  0  0  0
   -4.6602   -1.5708    0.1582 O   0  0  0  0  0  0  0  0  0  0  0  0
 15 11  1  0
 11  4  2  0
 11  5  1  0
  4  8  1  0
  5  9  2  0
  8 13  2  0
  9 13  1  0
 13 14  1  0
  6  2  2  0
  6 12  1  0
 14 12  1  0
 14  1  1  0
  2 10  1  0
 12  7  2  0
 10 30  1  0
 10  3  2  0
  7  3  1  0
  1 16  1  0
  1 17  1  0
  1 18  1  0
  2 19  1  0
  3 20  1  0
  4 21  1  0
  5 22  1  0
  6 23  1  0
  7 24  1  0
  8 25  1  0
  9 26  1  0
 14 27  1  1
 30 28  1  0
 15 29  1  0
M  END
