
     RDKit          3D

 31 32  0  0  0  0  0  0  0  0999 V2000
   -0.8876   -1.0798   -0.0767 N   0  0  0  0  0  0  0  0  0  0  0  0
    0.2176   -1.6450   -0.8269 C   0  0  0  0  0  0  0  0  0  0  0  0
    1.5362   -1.1540   -0.3170 C   0  0  0  0  0  0  0  0  0  0  0  0
    2.0485   -1.2899    0.9370 C   0  0  0  0  0  0  0  0  0  0  0  0
    3.3185   -0.6773    1.0993 C   0  0  0  0  0  0  0  0  0  0  0  0
    3.7390   -0.0812   -0.0471 C   0  0  0  0  0  0  0  0  0  0  0  0
   -2.0904    0.9100    0.6628 C   0  0  0  0  0  0  0  0  0  0  0  0
   -3.3489    0.2261    0.4209 N   0  0  0  0  0  0  0  0  0  0  0  0
   -5.7390    0.0984   -0.0861 C   0  0  0  0  0  0  0  0  0  0  0  0
   -4.4951    2.1203   -0.0179 O   0  0  0  0  0  0  0  0  0  0  0  0
   -4.4729    0.9018    0.1036 C   0  0  0  0  0  0  0  0  0  0  0  0
   -3.2389   -1.2145    0.5321 C   0  0  0  0  0  0  0  0  0  0  0  0
   -2.1407   -1.7309   -0.3837 C   0  0  0  0  0  0  0  0  0  0  0  0
   -0.9985    0.3558   -0.2334 C   0  0  0  0  0  0  0  0  0  0  0  0
    2.6060   -0.2573   -1.3266 S   0  0  0  0  0  0  0  0  0  0  0  0
    5.2041    0.7577   -0.2964 Cl  0  0  0  0  0  0  0  0  0  0  0  0
    0.1806   -2.7315   -0.7154 H   0  0  0  0  0  0  0  0  0  0  0  0
    0.1320   -1.4508   -1.9090 H   0  0  0  0  0  0  0  0  0  0  0  0
    1.5318   -1.8114    1.7295 H   0  0  0  0  0  0  0  0  0  0  0  0
    3.8870   -0.6816    2.0168 H   0  0  0  0  0  0  0  0  0  0  0  0
   -2.2151    1.9741    0.4872 H   0  0  0  0  0  0  0  0  0  0  0  0
   -1.8089    0.7760    1.7117 H   0  0  0  0  0  0  0  0  0  0  0  0
   -6.0109   -0.4533    0.8145 H   0  0  0  0  0  0  0  0  0  0  0  0
   -6.5549    0.7747   -0.3258 H   0  0  0  0  0  0  0  0  0  0  0  0
   -5.6498   -0.6259   -0.8962 H   0  0  0  0  0  0  0  0  0  0  0  0
   -2.9999   -1.4830    1.5661 H   0  0  0  0  0  0  0  0  0  0  0  0
   -4.1791   -1.6981    0.2810 H   0  0  0  0  0  0  0  0  0  0  0  0
   -2.4474   -1.5830   -1.4348 H   0  0  0  0  0  0  0  0  0  0  0  0
   -2.0321   -2.8071   -0.2297 H   0  0  0  0  0  0  0  0  0  0  0  0
   -0.0527    0.8223    0.0471 H   0  0  0  0  0  0  0  0  0  0  0  0
   -1.2042    0.6408   -1.2803 H   0  0  0  0  0  0  0  0  0  0  0  0
 11  9  1  0
 11 10  2  0
  8 11  1  0
 12  8  1  0
 13 12  1  0
  1 13  1  0
  2  1  1  0
  3  2  1  0
  4  3  2  0
  5  4  1  0
  6  5  2  0
 16  6  1  0
  6 15  1  0
 15  3  1  0
  1 14  1  0
 14  7  1  0
  7  8  1  0
  2 17  1  0
  2 18  1  0
  4 19  1  0
  5 20  1  0
  7 21  1  0
  7 22  1  0
  9 23  1  0
  9 24  1  0
  9 25  1  0
 12 26  1  0
 12 27  1  0
 13 28  1  0
 13 29  1  0
 14 30  1  0
 14 31  1  0
M  END
