
     RDKit          3D

 21 21  0  0  0  0  0  0  0  0999 V2000
    3.5800    0.0508   -0.8459 O   0  0  0  0  0  0  0  0  0  0  0  0
    3.0487    0.2061    0.4566 C   0  0  0  0  0  0  0  0  0  0  0  0
    1.5516    0.1937    0.3632 C   0  0  0  0  0  0  0  0  0  0  0  0
    0.8682   -1.0197    0.2685 C   0  0  0  0  0  0  0  0  0  0  0  0
   -0.5079   -1.0556    0.1421 C   0  0  0  0  0  0  0  0  0  0  0  0
   -1.2324    0.1488    0.0993 C   0  0  0  0  0  0  0  0  0  0  0  0
   -1.1320   -2.2492    0.0628 O   0  0  0  0  0  0  0  0  0  0  0  0
    0.8276    1.3737    0.3182 C   0  0  0  0  0  0  0  0  0  0  0  0
   -0.5594    1.3561    0.1879 C   0  0  0  0  0  0  0  0  0  0  0  0
   -2.5691    0.0007   -0.0234 O   0  0  0  0  0  0  0  0  0  0  0  0
   -3.3729    1.1612   -0.0958 C   0  0  0  0  0  0  0  0  0  0  0  0
    4.5386    0.0181   -0.7693 H   0  0  0  0  0  0  0  0  0  0  0  0
    3.3828   -0.6023    1.1183 H   0  0  0  0  0  0  0  0  0  0  0  0
    3.3761    1.1483    0.9124 H   0  0  0  0  0  0  0  0  0  0  0  0
    1.4140   -1.9560    0.3054 H   0  0  0  0  0  0  0  0  0  0  0  0
    1.3383    2.3261    0.3912 H   0  0  0  0  0  0  0  0  0  0  0  0
   -2.0858   -2.1206   -0.0067 H   0  0  0  0  0  0  0  0  0  0  0  0
   -1.1005    2.2928    0.1578 H   0  0  0  0  0  0  0  0  0  0  0  0
   -3.2858    1.7717    0.8065 H   0  0  0  0  0  0  0  0  0  0  0  0
   -3.1192    1.7748   -0.9637 H   0  0  0  0  0  0  0  0  0  0  0  0
   -4.4006    0.8212   -0.1925 H   0  0  0  0  0  0  0  0  0  0  0  0
  1  2  1  0
  2  3  1  0
  3  4  2  0
  3  8  1  0
  4  5  1  0
  5  6  2  0
  5  7  1  0
  6  9  1  0
  6 10  1  0
  8  9  2  0
 10 11  1  0
  1 12  1  0
  2 13  1  0
  2 14  1  0
  4 15  1  0
  8 16  1  0
  7 17  1  0
  9 18  1  0
 11 19  1  0
 11 20  1  0
 11 21  1  0
M  END
