
     RDKit          3D

 24 24  0  0  0  0  0  0  0  0999 V2000
    2.9750   -0.2078    0.0929 C   0  0  0  0  0  0  0  0  0  0  0  0
   -1.5417    0.9295   -0.0941 C   0  0  0  0  0  0  0  0  0  0  0  0
   -2.8775    0.8584    0.2965 C   0  0  0  0  0  0  0  0  0  0  0  0
   -3.5327   -0.3584    0.4264 C   0  0  0  0  0  0  0  0  0  0  0  0
   -2.8497   -1.5350    0.1583 C   0  0  0  0  0  0  0  0  0  0  0  0
   -1.5207   -1.4764   -0.2375 C   0  0  0  0  0  0  0  0  0  0  0  0
   -0.8536   -0.2613   -0.3684 C   0  0  0  0  0  0  0  0  0  0  0  0
    0.5970   -0.2581   -0.7713 C   0  0  0  0  0  0  0  0  0  0  0  0
    1.5136   -0.2364    0.4464 C   0  0  0  0  0  0  0  0  0  0  0  0
    3.4181   -0.1829   -1.0283 O   0  0  0  0  0  0  0  0  0  0  0  0
   -0.0578    2.3910    0.4938 H   0  0  0  0  0  0  0  0  0  0  0  0
   -0.4476    2.4190   -1.2165 H   0  0  0  0  0  0  0  0  0  0  0  0
   -1.5824    3.0766   -0.0454 H   0  0  0  0  0  0  0  0  0  0  0  0
   -3.4155    1.7773    0.4997 H   0  0  0  0  0  0  0  0  0  0  0  0
   -4.5715   -0.3842    0.7298 H   0  0  0  0  0  0  0  0  0  0  0  0
   -3.3462   -2.4922    0.2530 H   0  0  0  0  0  0  0  0  0  0  0  0
   -0.9886   -2.3955   -0.4556 H   0  0  0  0  0  0  0  0  0  0  0  0
    0.8076   -1.1502   -1.3641 H   0  0  0  0  0  0  0  0  0  0  0  0
    0.8132    0.5963   -1.4153 H   0  0  0  0  0  0  0  0  0  0  0  0
    1.3312   -1.1118    1.0768 H   0  0  0  0  0  0  0  0  0  0  0  0
    1.3042    0.6265    1.0854 H   0  0  0  0  0  0  0  0  0  0  0  0
    3.7445   -0.2129    1.1771 O   0  0  0  0  0  0  0  0  0  0  0  0
    4.6782   -0.1939    0.9199 H   0  0  0  0  0  0  0  0  0  0  0  0
   -0.8731    2.2693   -0.2225 C   0  0  0  0  0  0  0  0  0  0  0  0
 10  1  2  0
  1  9  1  0
 24  2  1  0
 24 11  1  0
 24 12  1  0
 24 13  1  0
  7  2  2  0
  2  3  1  0
  3  4  2  0
  3 14  1  0
  5  4  1  0
  4 15  1  0
  6  5  2  0
  5 16  1  0
  7  6  1  0
  6 17  1  0
  8  7  1  0
  9  8  1  0
  8 18  1  0
  8 19  1  0
  9 20  1  0
  9 21  1  0
  1 22  1  0
 22 23  1  0
M  END
