
     RDKit          3D

 47 49  0  0  0  0  0  0  0  0999 V2000
    9.1408    0.8565   -0.3032 N   0  0  0  0  0  0  0  0  0  0  0  0
    8.0312    0.6574   -0.0612 C   0  0  0  0  0  0  0  0  0  0  0  0
    6.6592    0.4059    0.2357 C   0  0  0  0  0  0  0  0  0  0  0  0
    6.0934   -0.8338   -0.0953 C   0  0  0  0  0  0  0  0  0  0  0  0
    6.9001   -1.9027   -0.7655 C   0  0  0  0  0  0  0  0  0  0  0  0
    5.9039    1.4018    0.8536 C   0  0  0  0  0  0  0  0  0  0  0  0
    4.5734    1.1712    1.1485 C   0  0  0  0  0  0  0  0  0  0  0  0
    3.9830   -0.0507    0.8355 C   0  0  0  0  0  0  0  0  0  0  0  0
    4.7559   -1.0316    0.2176 C   0  0  0  0  0  0  0  0  0  0  0  0
    2.5304   -0.2975    1.1160 C   0  0  0  0  0  0  0  0  0  0  0  0
    1.6662    0.0082   -0.1061 C   0  0  0  0  0  0  0  0  0  0  0  0
    0.2658   -0.2046    0.1969 N   0  0  0  0  0  0  0  0  0  0  0  0
   -0.5987    0.0432   -0.9415 C   0  0  0  0  0  0  0  0  0  0  0  0
   -2.0398   -0.1923   -0.5834 C   0  0  0  0  0  0  0  0  0  0  0  0
   -2.9870    0.7800   -0.7887 C   0  0  0  0  0  0  0  0  0  0  0  0
   -4.3452    0.5724   -0.4594 C   0  0  0  0  0  0  0  0  0  0  0  0
   -4.7255   -0.6708    0.0985 C   0  0  0  0  0  0  0  0  0  0  0  0
   -3.7398   -1.6581    0.3046 C   0  0  0  0  0  0  0  0  0  0  0  0
   -2.4295   -1.4270   -0.0221 C   0  0  0  0  0  0  0  0  0  0  0  0
   -5.2206    1.5791   -0.6915 N   0  0  0  0  0  0  0  0  0  0  0  0
   -6.4801    1.3910   -0.3798 C   0  0  0  0  0  0  0  0  0  0  0  0
   -7.3489    2.4182   -0.5694 N   0  0  0  0  0  0  0  0  0  0  0  0
   -6.9629    0.1727    0.1853 C   0  0  0  0  0  0  0  0  0  0  0  0
   -6.1043   -0.8561    0.4248 C   0  0  0  0  0  0  0  0  0  0  0  0
   -6.5879   -2.1448    1.0106 C   0  0  0  0  0  0  0  0  0  0  0  0
    7.7886   -2.1593   -0.1867 H   0  0  0  0  0  0  0  0  0  0  0  0
    6.3136   -2.8099   -0.8954 H   0  0  0  0  0  0  0  0  0  0  0  0
    7.2391   -1.5811   -1.7516 H   0  0  0  0  0  0  0  0  0  0  0  0
    6.3622    2.3493    1.1033 H   0  0  0  0  0  0  0  0  0  0  0  0
    3.9926    1.9466    1.6320 H   0  0  0  0  0  0  0  0  0  0  0  0
    4.3008   -1.9850   -0.0263 H   0  0  0  0  0  0  0  0  0  0  0  0
    2.3725   -1.3373    1.4098 H   0  0  0  0  0  0  0  0  0  0  0  0
    2.2050    0.3258    1.9535 H   0  0  0  0  0  0  0  0  0  0  0  0
    1.8772    1.0308   -0.4560 H   0  0  0  0  0  0  0  0  0  0  0  0
    1.9489   -0.6611   -0.9247 H   0  0  0  0  0  0  0  0  0  0  0  0
   -0.0043    0.4170    0.9513 H   0  0  0  0  0  0  0  0  0  0  0  0
   -0.4860    1.0558   -1.3565 H   0  0  0  0  0  0  0  0  0  0  0  0
   -0.3072   -0.6472   -1.7403 H   0  0  0  0  0  0  0  0  0  0  0  0
   -2.7052    1.7389   -1.2088 H   0  0  0  0  0  0  0  0  0  0  0  0
   -4.0220   -2.6139    0.7282 H   0  0  0  0  0  0  0  0  0  0  0  0
   -1.6830   -2.1916    0.1495 H   0  0  0  0  0  0  0  0  0  0  0  0
   -7.0454    3.1748   -1.1594 H   0  0  0  0  0  0  0  0  0  0  0  0
   -8.3341    2.2207   -0.6000 H   0  0  0  0  0  0  0  0  0  0  0  0
   -8.0160    0.0757    0.4209 H   0  0  0  0  0  0  0  0  0  0  0  0
   -6.4110   -2.9770    0.3270 H   0  0  0  0  0  0  0  0  0  0  0  0
   -6.0677   -2.3789    1.9406 H   0  0  0  0  0  0  0  0  0  0  0  0
   -7.6545   -2.1055    1.2238 H   0  0  0  0  0  0  0  0  0  0  0  0
 22 21  1  0
 23 21  1  0
 23 24  2  0
 21 20  2  0
 25 24  1  0
 24 17  1  0
 20 16  1  0
 17 16  1  0
 17 18  2  0
 16 15  2  0
 18 19  1  0
 15 14  1  0
 19 14  2  0
 14 13  1  0
 13 12  1  0
 12 11  1  0
 11 10  1  0
 10  8  1  0
  7  8  2  0
  7  6  1  0
  8  9  1  0
  6  3  2  0
  9  4  2  0
  3  4  1  0
  3  2  1  0
  4  5  1  0
  2  1  3  0
  5 26  1  0
  5 27  1  0
  5 28  1  0
  6 29  1  0
  7 30  1  0
  9 31  1  0
 10 32  1  0
 10 33  1  0
 11 34  1  0
 11 35  1  0
 12 36  1  0
 13 37  1  0
 13 38  1  0
 15 39  1  0
 18 40  1  0
 19 41  1  0
 22 42  1  0
 22 43  1  0
 23 44  1  0
 25 45  1  0
 25 46  1  0
 25 47  1  0
M  END
