
     RDKit          3D

 43 46  0  0  0  0  0  0  0  0999 V2000
    2.5181    0.2299   -0.9289 C   0  0  0  0  0  0  0  0  0  0  0  0
    1.1987    0.0553   -1.6255 C   0  0  0  0  0  0  0  0  0  0  0  0
   -0.0246   -0.0314   -0.8898 C   0  0  0  0  0  0  0  0  0  0  0  0
    1.1075    0.0273   -2.9960 C   0  0  0  0  0  0  0  0  0  0  0  0
   -1.1978   -0.0738   -1.4635 N   0  0  0  0  0  0  0  0  0  0  0  0
    2.3424    0.1337   -3.8338 C   0  0  0  0  0  0  0  0  0  0  0  0
   -0.0430   -0.0692    0.5915 C   0  0  0  0  0  0  0  0  0  0  0  0
   -0.1514   -0.0481   -3.6432 C   0  0  0  0  0  0  0  0  0  0  0  0
   -1.2915   -0.0819   -2.8070 C   0  0  0  0  0  0  0  0  0  0  0  0
   -0.9127    0.7616    1.2952 C   0  0  0  0  0  0  0  0  0  0  0  0
    0.7428   -0.9687    1.3071 C   0  0  0  0  0  0  0  0  0  0  0  0
    2.5834    1.0761   -4.5425 O   0  0  0  0  0  0  0  0  0  0  0  0
    3.1144   -0.9290   -3.7046 O   0  0  0  0  0  0  0  0  0  0  0  0
   -0.3215   -0.0969   -5.0455 C   0  0  0  0  0  0  0  0  0  0  0  0
   -2.5798   -0.1449   -3.3866 C   0  0  0  0  0  0  0  0  0  0  0  0
   -0.9748    0.7159    2.6776 C   0  0  0  0  0  0  0  0  0  0  0  0
    0.6699   -1.0256    2.6893 C   0  0  0  0  0  0  0  0  0  0  0  0
   -1.5852   -0.1671   -5.5494 C   0  0  0  0  0  0  0  0  0  0  0  0
   -2.7329   -0.1870   -4.7426 C   0  0  0  0  0  0  0  0  0  0  0  0
   -0.1840   -0.1811    3.3971 C   0  0  0  0  0  0  0  0  0  0  0  0
   -1.7572   -0.2207   -6.8767 F   0  0  0  0  0  0  0  0  0  0  0  0
   -0.2606   -0.2818    4.8685 C   0  0  0  0  0  0  0  0  0  0  0  0
   -0.1855    0.8316    5.6971 C   0  0  0  0  0  0  0  0  0  0  0  0
   -0.3908   -1.5237    5.4934 C   0  0  0  0  0  0  0  0  0  0  0  0
   -0.2442    0.7487    7.0742 C   0  0  0  0  0  0  0  0  0  0  0  0
   -0.3825   -0.4991    7.6650 C   0  0  0  0  0  0  0  0  0  0  0  0
   -0.4537   -1.6375    6.8735 C   0  0  0  0  0  0  0  0  0  0  0  0
   -0.0258    2.0444    5.1421 F   0  0  0  0  0  0  0  0  0  0  0  0
    2.9962   -0.7280   -0.7213 H   0  0  0  0  0  0  0  0  0  0  0  0
    3.2148    0.8201   -1.5224 H   0  0  0  0  0  0  0  0  0  0  0  0
    2.3946    0.7457    0.0209 H   0  0  0  0  0  0  0  0  0  0  0  0
   -1.5445    1.4559    0.7563 H   0  0  0  0  0  0  0  0  0  0  0  0
    1.4079   -1.6476    0.7886 H   0  0  0  0  0  0  0  0  0  0  0  0
    3.9181   -0.8345   -4.2412 H   0  0  0  0  0  0  0  0  0  0  0  0
    0.5199   -0.0818   -5.7246 H   0  0  0  0  0  0  0  0  0  0  0  0
   -3.4393   -0.1659   -2.7301 H   0  0  0  0  0  0  0  0  0  0  0  0
   -1.6700    1.3669    3.1917 H   0  0  0  0  0  0  0  0  0  0  0  0
    1.2917   -1.7340    3.2222 H   0  0  0  0  0  0  0  0  0  0  0  0
   -3.7136   -0.2397   -5.1964 H   0  0  0  0  0  0  0  0  0  0  0  0
   -0.4595   -2.4125    4.8786 H   0  0  0  0  0  0  0  0  0  0  0  0
   -0.1736    1.6469    7.6737 H   0  0  0  0  0  0  0  0  0  0  0  0
   -0.4312   -0.5768    8.7427 H   0  0  0  0  0  0  0  0  0  0  0  0
   -0.5638   -2.6128    7.3281 H   0  0  0  0  0  0  0  0  0  0  0  0
  1  2  1  0
  1 29  1  0
  1 30  1  0
  1 31  1  0
  2  3  2  0
  2  4  1  0
  3  5  1  0
  3  7  1  0
  4  6  1  0
  4  8  2  0
  5  9  2  0
  6 12  2  0
  6 13  1  0
  7 10  2  0
  7 11  1  0
  8  9  1  0
  8 14  1  0
  9 15  1  0
 10 16  1  0
 10 32  1  0
 11 17  2  0
 11 33  1  0
 13 34  1  0
 14 18  2  0
 14 35  1  0
 15 19  2  0
 15 36  1  0
 16 20  2  0
 16 37  1  0
 17 20  1  0
 17 38  1  0
 18 19  1  0
 18 21  1  0
 19 39  1  0
 20 22  1  0
 22 23  2  0
 22 24  1  0
 23 25  1  0
 23 28  1  0
 24 27  2  0
 24 40  1  0
 25 26  2  0
 25 41  1  0
 26 27  1  0
 26 42  1  0
 27 43  1  0
M  END
