
     RDKit          3D

 26 26  0  0  0  0  0  0  0  0999 V2000
   -3.7816   -0.6050    1.3437 C   0  0  0  0  0  0  0  0  0  0  0  0
   -3.4105   -0.2106   -0.0815 C   0  0  1  0  0  0  0  0  0  0  0  0
   -4.4638    0.6918   -0.7072 C   0  0  0  0  0  0  0  0  0  0  0  0
   -2.1218    0.4617   -0.1368 N   0  0  0  0  0  0  0  0  0  0  0  0
   -0.9509   -0.2077   -0.1208 C   0  0  0  0  0  0  0  0  0  0  0  0
    1.4872    0.2700   -0.0695 C   0  0  0  0  0  0  0  0  0  0  0  0
    3.3602   -1.2148   -0.0192 C   0  0  0  0  0  0  0  0  0  0  0  0
    3.7747    1.0015   -0.0605 C   0  0  0  0  0  0  0  0  0  0  0  0
    2.4293    1.3063   -0.0806 C   0  0  0  0  0  0  0  0  0  0  0  0
   -0.8693   -1.4257   -0.1537 O   0  0  0  0  0  0  0  0  0  0  0  0
    0.1547    0.6229   -0.0843 N   0  0  0  0  0  0  0  0  0  0  0  0
    1.9866   -1.0353   -0.0376 C   0  0  0  0  0  0  0  0  0  0  0  0
    4.2587   -0.2375   -0.0303 N   0  0  0  0  0  0  0  0  0  0  0  0
   -3.8557    0.2764    1.9832 H   0  0  0  0  0  0  0  0  0  0  0  0
   -4.7456   -1.1155    1.3605 H   0  0  0  0  0  0  0  0  0  0  0  0
   -3.0399   -1.2778    1.7739 H   0  0  0  0  0  0  0  0  0  0  0  0
   -3.3319   -1.1147   -0.6877 H   0  0  0  0  0  0  0  0  0  0  0  0
   -4.5950    1.6101   -0.1303 H   0  0  0  0  0  0  0  0  0  0  0  0
   -4.1955    0.9647   -1.7280 H   0  0  0  0  0  0  0  0  0  0  0  0
   -5.4259    0.1811   -0.7359 H   0  0  0  0  0  0  0  0  0  0  0  0
   -2.1243    1.4604   -0.0004 H   0  0  0  0  0  0  0  0  0  0  0  0
    3.7495   -2.2272    0.0066 H   0  0  0  0  0  0  0  0  0  0  0  0
    4.5003    1.8072   -0.0698 H   0  0  0  0  0  0  0  0  0  0  0  0
    2.1142    2.3422   -0.1045 H   0  0  0  0  0  0  0  0  0  0  0  0
   -0.0165    1.6178   -0.0921 H   0  0  0  0  0  0  0  0  0  0  0  0
    1.3390   -1.8949   -0.0265 H   0  0  0  0  0  0  0  0  0  0  0  0
  1  2  1  0
  3  2  1  0
  2  4  1  0
  4  5  1  0
 10  5  2  0
  5 11  1  0
 11  6  1  0
 12  6  2  0
 12  7  1  0
  6  9  1  0
  7 13  2  0
  9  8  2  0
 13  8  1  0
  1 14  1  0
  1 15  1  0
  1 16  1  0
  2 17  1  6
  3 18  1  0
  3 19  1  0
  3 20  1  0
  4 21  1  0
  7 22  1  0
  8 23  1  0
  9 24  1  0
 11 25  1  0
 12 26  1  0
M  END
