
     RDKit          3D

 44 47  0  0  0  0  0  0  0  0999 V2000
   -4.6327   -2.1668   -0.6323 C   0  0  0  0  0  0  0  0  0  0  0  0
   -6.2730   -2.1165    0.9757 C   0  0  0  0  0  0  0  0  0  0  0  0
   -5.6207   -1.0695    1.7440 C   0  0  0  0  0  0  0  0  0  0  0  0
   -4.4719   -0.5356    1.3110 C   0  0  0  0  0  0  0  0  0  0  0  0
   -3.9009   -1.0333    0.0684 C   0  0  0  0  0  0  0  0  0  0  0  0
   -2.6969    1.5577    0.2544 N   0  0  0  0  0  0  0  0  0  0  0  0
   -1.9598    2.6315    0.5568 C   0  0  0  0  0  0  0  0  0  0  0  0
   -0.5926    2.5359    0.5314 C   0  0  0  0  0  0  0  0  0  0  0  0
    0.4631    3.3713    0.7627 N   0  0  0  0  0  0  0  0  0  0  0  0
   -0.0466    1.2959    0.1630 C   0  0  0  0  0  0  0  0  0  0  0  0
    2.2417    0.3410   -0.1510 C   0  0  1  0  0  0  0  0  0  0  0  0
    3.1927    0.0068    0.9944 C   0  0  0  0  0  0  0  0  0  0  0  0
    4.8440   -0.9098   -0.6836 C   0  0  1  0  0  0  0  0  0  0  0  0
   -4.1891   -2.6488   -1.6436 O   0  0  0  0  0  0  0  0  0  0  0  0
   -5.8355   -2.6383   -0.1103 N   0  0  0  0  0  0  0  0  0  0  0  0
   -2.8260   -0.6528   -0.4987 N   0  0  0  0  0  0  0  0  0  0  0  0
   -2.0785    0.4397   -0.0880 C   0  0  0  0  0  0  0  0  0  0  0  0
    1.6516    2.7109    0.5535 C   0  0  0  0  0  0  0  0  0  0  0  0
    2.7670    3.1696    0.6588 O   0  0  0  0  0  0  0  0  0  0  0  0
    1.3101    1.4105    0.1924 N   0  0  0  0  0  0  0  0  0  0  0  0
   -0.7566    0.2521   -0.1749 N   0  0  0  0  0  0  0  0  0  0  0  0
    4.0802   -1.1733    0.6118 C   0  0  0  0  0  0  0  0  0  0  0  0
    5.6945   -2.1164   -1.0995 C   0  0  0  0  0  0  0  0  0  0  0  0
    6.7250   -2.4388   -0.1250 C   0  0  0  0  0  0  0  0  0  0  0  0
    7.5342   -2.6861    0.6553 N   0  0  0  0  0  0  0  0  0  0  0  0
    3.8785   -0.5563   -1.8126 C   0  0  0  0  0  0  0  0  0  0  0  0
    2.9935    0.6296   -1.4459 C   0  0  0  0  0  0  0  0  0  0  0  0
   -7.2091   -2.5059    1.3645 H   0  0  0  0  0  0  0  0  0  0  0  0
   -6.0798   -0.7548    2.6706 H   0  0  0  0  0  0  0  0  0  0  0  0
   -3.9605    0.2270    1.8783 H   0  0  0  0  0  0  0  0  0  0  0  0
   -2.4805    3.5457    0.8132 H   0  0  0  0  0  0  0  0  0  0  0  0
    0.4123    4.3404    1.0369 H   0  0  0  0  0  0  0  0  0  0  0  0
    1.6029   -0.5304   -0.3195 H   0  0  0  0  0  0  0  0  0  0  0  0
    3.8150    0.8715    1.2330 H   0  0  0  0  0  0  0  0  0  0  0  0
    2.6194   -0.2360    1.8916 H   0  0  0  0  0  0  0  0  0  0  0  0
    5.5165   -0.0585   -0.5274 H   0  0  0  0  0  0  0  0  0  0  0  0
    4.7734   -1.3763    1.4318 H   0  0  0  0  0  0  0  0  0  0  0  0
    3.4649   -2.0722    0.4914 H   0  0  0  0  0  0  0  0  0  0  0  0
    5.0670   -3.0017   -1.2318 H   0  0  0  0  0  0  0  0  0  0  0  0
    6.1864   -1.9277   -2.0562 H   0  0  0  0  0  0  0  0  0  0  0  0
    4.4346   -0.3275   -2.7245 H   0  0  0  0  0  0  0  0  0  0  0  0
    3.2523   -1.4271   -2.0390 H   0  0  0  0  0  0  0  0  0  0  0  0
    2.2811    0.8244   -2.2504 H   0  0  0  0  0  0  0  0  0  0  0  0
    3.6091    1.5251   -1.3316 H   0  0  0  0  0  0  0  0  0  0  0  0
  7  6  2  0
  7  8  1  0
  6 17  1  0
  8  9  1  0
  8 10  2  0
  9 18  1  0
 17 16  1  0
 17 21  2  0
 16  5  2  0
 14  1  2  0
 12 22  1  0
 12 11  1  0
 18 19  2  0
 18 20  1  0
 10 21  1  0
 10 20  1  0
  5  1  1  0
  5  4  1  0
  1 15  1  0
 22 13  1  0
 20 11  1  0
 25 24  3  0
  4  3  2  0
 15  2  2  0
 11 27  1  0
 24 23  1  0
  2  3  1  0
 13 23  1  0
 13 26  1  0
 27 26  1  0
  2 28  1  0
  3 29  1  0
  4 30  1  0
  7 31  1  0
  9 32  1  0
 11 33  1  6
 12 34  1  0
 12 35  1  0
 13 36  1  1
 22 37  1  0
 22 38  1  0
 23 39  1  0
 23 40  1  0
 26 41  1  0
 26 42  1  0
 27 43  1  0
 27 44  1  0
M  END
