
     RDKit          3D

 11 11  0  0  0  0  0  0  0  0999 V2000
   -2.2920   -0.5036    0.0199 O   0  0  0  0  0  0  0  0  0  0  0  0
   -1.1451   -0.1256    0.0066 C   0  0  0  0  0  0  0  0  0  0  0  0
   -0.6524    1.3069   -0.0279 C   0  0  0  0  0  0  0  0  0  0  0  0
    0.7747    1.1391   -0.0348 N   0  0  0  0  0  0  0  0  0  0  0  0
   -0.0256   -0.8993    0.0188 N   0  0  0  0  0  0  0  0  0  0  0  0
    1.1535   -0.1517   -0.0034 C   0  0  0  0  0  0  0  0  0  0  0  0
    2.2737   -0.6135    0.0041 O   0  0  0  0  0  0  0  0  0  0  0  0
   -1.0253    1.8131   -0.9212 H   0  0  0  0  0  0  0  0  0  0  0  0
   -1.0121    1.8510    0.8485 H   0  0  0  0  0  0  0  0  0  0  0  0
    1.4346    1.8983   -0.0445 H   0  0  0  0  0  0  0  0  0  0  0  0
   -0.0306   -1.9091    0.0404 H   0  0  0  0  0  0  0  0  0  0  0  0
  1  2  2  0
  2  3  1  0
  2  5  1  0
  3  4  1  0
  4  6  1  0
  5  6  1  0
  6  7  2  0
  3  8  1  0
  3  9  1  0
  4 10  1  0
  5 11  1  0
M  END
