
     RDKit          3D

 48 50  0  0  0  0  0  0  0  0999 V2000
   -4.3916   -1.2341    0.4386 C   0  0  0  0  0  0  0  0  0  0  0  0
    3.5988   -2.4065   -0.5990 C   0  0  0  0  0  0  0  0  0  0  0  0
   -3.1139   -0.7212    0.3515 C   0  0  0  0  0  0  0  0  0  0  0  0
   -2.9306    0.5623   -0.1660 C   0  0  0  0  0  0  0  0  0  0  0  0
    4.4162    0.6604    0.5944 C   0  0  0  0  0  0  0  0  0  0  0  0
   -0.4401    0.7804    0.0214 C   0  0  0  0  0  0  0  0  0  0  0  0
    1.0304   -0.7274    0.8243 C   0  0  0  0  0  0  0  0  0  0  0  0
    2.0912    0.0955    0.5400 C   0  0  0  0  0  0  0  0  0  0  0  0
    1.7585    1.3597   -0.0059 C   0  0  0  0  0  0  0  0  0  0  0  0
    3.9385    2.1116    0.5896 C   0  0  2  0  0  0  0  0  0  0  0  0
   -1.7028    1.1885   -0.3070 N   0  0  0  0  0  0  0  0  0  0  0  0
   -0.2422   -0.3979    0.5802 N   0  0  0  0  0  0  0  0  0  0  0  0
   -5.5299   -0.5505    0.0386 C   0  0  0  0  0  0  0  0  0  0  0  0
    0.5054    1.6770   -0.2682 N   0  0  0  0  0  0  0  0  0  0  0  0
   -4.0546    1.2840   -0.5814 C   0  0  0  0  0  0  0  0  0  0  0  0
   -5.3046    0.7210   -0.4724 C   0  0  0  0  0  0  0  0  0  0  0  0
   -4.5565   -2.4673    0.9377 F   0  0  0  0  0  0  0  0  0  0  0  0
   -6.7382   -1.1324    0.1596 O   0  0  0  0  0  0  0  0  0  0  0  0
   -6.3782    1.4240   -0.8727 F   0  0  0  0  0  0  0  0  0  0  0  0
    3.4362   -0.2747    0.6647 N   0  0  0  0  0  0  0  0  0  0  0  0
    2.7573    2.2346   -0.2685 N   0  0  0  0  0  0  0  0  0  0  0  0
    3.9032   -3.8943   -0.4842 C   0  0  0  0  0  0  0  0  0  0  0  0
    3.7135   -4.6304   -1.8026 C   0  0  0  0  0  0  0  0  0  0  0  0
    2.4222    3.5397   -0.8039 C   0  0  0  0  0  0  0  0  0  0  0  0
    5.0635    3.0443    0.1838 C   0  0  0  0  0  0  0  0  0  0  0  0
    5.5988    0.3745    0.5850 O   0  0  0  0  0  0  0  0  0  0  0  0
    2.5743   -2.2730   -0.9597 H   0  0  0  0  0  0  0  0  0  0  0  0
    4.2525   -1.9477   -1.3464 H   0  0  0  0  0  0  0  0  0  0  0  0
   -2.2769   -1.3142    0.6842 H   0  0  0  0  0  0  0  0  0  0  0  0
    1.1823   -1.7125    1.2489 H   0  0  0  0  0  0  0  0  0  0  0  0
    3.6566    2.3552    1.6265 H   0  0  0  0  0  0  0  0  0  0  0  0
    3.1794   -2.1626    1.5105 H   0  0  0  0  0  0  0  0  0  0  0  0
    4.8151   -1.7646    1.0618 H   0  0  0  0  0  0  0  0  0  0  0  0
   -1.7289    2.1074   -0.7213 H   0  0  0  0  0  0  0  0  0  0  0  0
   -3.9595    2.2824   -0.9906 H   0  0  0  0  0  0  0  0  0  0  0  0
   -7.4371   -0.5230   -0.1042 H   0  0  0  0  0  0  0  0  0  0  0  0
    4.9301   -4.0306   -0.1321 H   0  0  0  0  0  0  0  0  0  0  0  0
    3.2583   -4.3375    0.2806 H   0  0  0  0  0  0  0  0  0  0  0  0
    2.6846   -4.5456   -2.1572 H   0  0  0  0  0  0  0  0  0  0  0  0
    4.3634   -4.2228   -2.5790 H   0  0  0  0  0  0  0  0  0  0  0  0
    3.9432   -5.6915   -1.7025 H   0  0  0  0  0  0  0  0  0  0  0  0
    2.1641    4.2548   -0.0174 H   0  0  0  0  0  0  0  0  0  0  0  0
    3.2601    3.9333   -1.3718 H   0  0  0  0  0  0  0  0  0  0  0  0
    1.5751    3.4464   -1.4750 H   0  0  0  0  0  0  0  0  0  0  0  0
    5.3828    2.8783   -0.8451 H   0  0  0  0  0  0  0  0  0  0  0  0
    4.7649    4.0848    0.2950 H   0  0  0  0  0  0  0  0  0  0  0  0
    5.9174    2.8839    0.8372 H   0  0  0  0  0  0  0  0  0  0  0  0
    3.7817   -1.6904    0.7322 C   0  0  0  0  0  0  0  0  0  0  0  0
 19 16  1  0
 12  7  2  0
 12  6  1  0
 15 16  2  0
 15  4  1  0
 11  6  1  0
 11  4  1  0
  7  8  1  0
 16 13  1  0
  2 48  1  0
  2 22  1  0
 23 22  1  0
  6 14  2  0
  4  3  2  0
 48 20  1  0
  8 20  1  0
  8  9  2  0
 13 18  1  0
 13  1  2  0
 14  9  1  0
 20  5  1  0
  3  1  1  0
  9 21  1  0
  1 17  1  0
  5 26  2  0
  5 10  1  0
 21 10  1  0
 21 24  1  0
 10 25  1  0
  2 27  1  0
  2 28  1  0
  3 29  1  0
  7 30  1  0
 10 31  1  1
 48 32  1  0
 48 33  1  0
 11 34  1  0
 15 35  1  0
 18 36  1  0
 22 37  1  0
 22 38  1  0
 23 39  1  0
 23 40  1  0
 23 41  1  0
 24 42  1  0
 24 43  1  0
 24 44  1  0
 25 45  1  0
 25 46  1  0
 25 47  1  0
M  END
