
     RDKit          3D

 35 34  0  0  0  0  0  0  0  0999 V2000
    7.9020    9.4742   -1.4236 C   0  0  0  0  0  0  0  0  0  0  0  0
    8.7285    8.2267   -1.1435 C   0  0  0  0  0  0  0  0  0  0  0  0
    8.0020    7.2241   -0.2549 C   0  0  0  0  0  0  0  0  0  0  0  0
    8.8179    5.9701    0.0315 C   0  0  0  0  0  0  0  0  0  0  0  0
    8.0968    4.9761    0.9334 C   0  0  0  0  0  0  0  0  0  0  0  0
    8.9111    3.7171    1.2033 C   0  0  0  0  0  0  0  0  0  0  0  0
    8.2042    2.7481    2.1440 C   0  0  0  0  0  0  0  0  0  0  0  0
    8.9585    1.4349    2.3300 C   0  0  1  0  0  0  0  0  0  0  0  0
   10.3358    1.5636    2.7852 N   0  0  0  0  0  0  0  0  0  0  0  0
    8.2769    0.4798    3.3442 C   0  0  2  0  0  0  0  0  0  0  0  0
    9.1130   -0.6082    3.5914 O   0  0  0  0  0  0  0  0  0  0  0  0
    6.9698   -0.0456    2.7878 C   0  0  0  0  0  0  0  0  0  0  0  0
    6.8832   -0.9908    2.0475 O   0  0  0  0  0  0  0  0  0  0  0  0
    5.9294    0.6685    3.1972 O   0  0  0  0  0  0  0  0  0  0  0  0
    6.9704    9.2223   -1.9341 H   0  0  0  0  0  0  0  0  0  0  0  0
    7.6388    9.9877   -0.4966 H   0  0  0  0  0  0  0  0  0  0  0  0
    8.4418   10.1829   -2.0528 H   0  0  0  0  0  0  0  0  0  0  0  0
    8.9971    7.7436   -2.0882 H   0  0  0  0  0  0  0  0  0  0  0  0
    9.6734    8.5089   -0.6690 H   0  0  0  0  0  0  0  0  0  0  0  0
    7.7332    7.7072    0.6912 H   0  0  0  0  0  0  0  0  0  0  0  0
    7.0549    6.9425   -0.7287 H   0  0  0  0  0  0  0  0  0  0  0  0
    9.7696    6.2525    0.4953 H   0  0  0  0  0  0  0  0  0  0  0  0
    9.0766    5.4812   -0.9145 H   0  0  0  0  0  0  0  0  0  0  0  0
    7.1393    4.7013    0.4778 H   0  0  0  0  0  0  0  0  0  0  0  0
    7.8512    5.4614    1.8846 H   0  0  0  0  0  0  0  0  0  0  0  0
    9.8800    4.0010    1.6251 H   0  0  0  0  0  0  0  0  0  0  0  0
    9.1265    3.2139    0.2541 H   0  0  0  0  0  0  0  0  0  0  0  0
    8.0523    3.2278    3.1179 H   0  0  0  0  0  0  0  0  0  0  0  0
    7.2061    2.5408    1.7474 H   0  0  0  0  0  0  0  0  0  0  0  0
    8.9997    0.9132    1.3673 H   0  0  0  0  0  0  0  0  0  0  0  0
   10.4190    2.2712    3.5066 H   0  0  0  0  0  0  0  0  0  0  0  0
   10.9443    1.8381    2.0264 H   0  0  0  0  0  0  0  0  0  0  0  0
    5.1154    0.3394    2.7860 H   0  0  0  0  0  0  0  0  0  0  0  0
   10.0060   -0.2288    3.4813 H   0  0  0  0  0  0  0  0  0  0  0  0
    8.0673    1.0499    4.2623 H   0  0  0  0  0  0  0  0  0  0  0  0
  1  2  1  0
  1 15  1  0
  1 16  1  0
  1 17  1  0
  2  3  1  0
  2 18  1  0
  2 19  1  0
  3  4  1  0
  3 20  1  0
  3 21  1  0
  4  5  1  0
  4 22  1  0
  4 23  1  0
  5  6  1  0
  5 24  1  0
  5 25  1  0
  6  7  1  0
  6 26  1  0
  6 27  1  0
  7  8  1  0
  7 28  1  0
  7 29  1  0
  8 30  1  6
  8  9  1  0
  8 10  1  0
  9 31  1  0
  9 32  1  0
 10 35  1  1
 10 11  1  0
 10 12  1  0
 11 34  1  0
 12 13  2  0
 12 14  1  0
 14 33  1  0
M  END
