
     RDKit          3D

 28 30  0  0  0  0  0  0  0  0999 V2000
   -4.8686   -0.3017    0.0252 O   0  0  0  0  0  0  0  0  0  0  0  0
   -3.6828   -0.0460   -0.0342 C   0  0  0  0  0  0  0  0  0  0  0  0
   -2.6351   -0.9262    0.1382 N   0  0  0  0  0  0  0  0  0  0  0  0
   -2.7770   -2.3313    0.4254 C   0  0  0  0  0  0  0  0  0  0  0  0
   -1.4411   -0.2627   -0.0065 C   0  0  0  0  0  0  0  0  0  0  0  0
   -0.1279   -0.6523    0.0753 C   0  0  0  0  0  0  0  0  0  0  0  0
    0.8407    0.3457   -0.1253 C   0  0  0  0  0  0  0  0  0  0  0  0
    0.4170    1.6450   -0.3969 C   0  0  0  0  0  0  0  0  0  0  0  0
   -0.8625    2.0264   -0.4717 N   0  0  0  0  0  0  0  0  0  0  0  0
   -1.7418    1.0799   -0.2756 C   0  0  0  0  0  0  0  0  0  0  0  0
   -3.1079    1.1794   -0.2872 N   0  0  0  0  0  0  0  0  0  0  0  0
    2.2791    0.0254   -0.0609 C   0  0  0  0  0  0  0  0  0  0  0  0
    2.7647   -1.1770   -0.5785 C   0  0  0  0  0  0  0  0  0  0  0  0
    4.1172   -1.4792   -0.5219 C   0  0  0  0  0  0  0  0  0  0  0  0
    5.0114   -0.5840    0.0506 C   0  0  0  0  0  0  0  0  0  0  0  0
    4.5399    0.6149    0.5691 C   0  0  0  0  0  0  0  0  0  0  0  0
    3.1865    0.9150    0.5176 C   0  0  0  0  0  0  0  0  0  0  0  0
   -3.8296   -2.5619    0.5577 H   0  0  0  0  0  0  0  0  0  0  0  0
   -2.3859   -2.9344   -0.3934 H   0  0  0  0  0  0  0  0  0  0  0  0
   -2.2461   -2.5891    1.3411 H   0  0  0  0  0  0  0  0  0  0  0  0
    0.1537   -1.6719    0.3053 H   0  0  0  0  0  0  0  0  0  0  0  0
    1.1498    2.4214   -0.5826 H   0  0  0  0  0  0  0  0  0  0  0  0
   -3.6391    2.0204   -0.4530 H   0  0  0  0  0  0  0  0  0  0  0  0
    2.0845   -1.8769   -1.0485 H   0  0  0  0  0  0  0  0  0  0  0  0
    4.4740   -2.4143   -0.9336 H   0  0  0  0  0  0  0  0  0  0  0  0
    6.0667   -0.8196    0.0928 H   0  0  0  0  0  0  0  0  0  0  0  0
    5.2258    1.3169    1.0256 H   0  0  0  0  0  0  0  0  0  0  0  0
    2.8326    1.8420    0.9512 H   0  0  0  0  0  0  0  0  0  0  0  0
  4  3  1  0
  1  2  2  0
  3  2  1  0
  3  5  1  0
  2 11  1  0
  5  6  2  0
  5 10  1  0
 11 10  1  0
  6  7  1  0
 10  9  2  0
 13 14  2  0
 13 12  1  0
  7 12  1  0
  7  8  2  0
  9  8  1  0
 14 15  1  0
 12 17  2  0
 15 16  2  0
 17 16  1  0
  4 18  1  0
  4 19  1  0
  4 20  1  0
  6 21  1  0
  8 22  1  0
 11 23  1  0
 13 24  1  0
 14 25  1  0
 15 26  1  0
 16 27  1  0
 17 28  1  0
M  END
