
     RDKit          3D

 21 21  0  0  0  0  0  0  0  0999 V2000
    0.7845   -1.0366    0.6923 N   0  0  0  0  0  0  0  0  0  0  0  0
   -0.0491   -0.6132   -0.4277 C   0  0  2  0  0  0  0  0  0  0  0  0
    0.7570    0.2426   -1.3895 C   0  0  0  0  0  0  0  0  0  0  0  0
    1.5582    1.1495   -1.1532 O   0  0  0  0  0  0  0  0  0  0  0  0
    0.5357   -0.0664   -2.6953 O   0  0  0  0  0  0  0  0  0  0  0  0
   -1.2581    0.2015    0.1190 C   0  0  2  0  0  0  0  0  0  0  0  0
   -1.0341    0.3144    1.6303 C   0  0  0  0  0  0  0  0  0  0  0  0
    0.2508   -0.4820    1.9447 C   0  0  2  0  0  0  0  0  0  0  0  0
   -2.4141   -0.5601   -0.1926 O   0  0  0  0  0  0  0  0  0  0  0  0
    1.2692    0.4030    2.6555 C   0  0  0  0  0  0  0  0  0  0  0  0
    0.8359   -2.0355    0.7333 H   0  0  0  0  0  0  0  0  0  0  0  0
   -0.4326   -1.4971   -1.0201 H   0  0  0  0  0  0  0  0  0  0  0  0
    1.0749    0.5096   -3.2630 H   0  0  0  0  0  0  0  0  0  0  0  0
   -1.3191    1.2125   -0.3660 H   0  0  0  0  0  0  0  0  0  0  0  0
   -1.9031   -0.1142    2.1880 H   0  0  0  0  0  0  0  0  0  0  0  0
   -0.9186    1.3849    1.9275 H   0  0  0  0  0  0  0  0  0  0  0  0
   -0.0093   -1.3294    2.6472 H   0  0  0  0  0  0  0  0  0  0  0  0
   -3.1690   -0.0779    0.1638 H   0  0  0  0  0  0  0  0  0  0  0  0
    2.2182   -0.1564    2.8339 H   0  0  0  0  0  0  0  0  0  0  0  0
    1.5030    1.3123    2.0521 H   0  0  0  0  0  0  0  0  0  0  0  0
    0.8477    0.7205    3.6388 H   0  0  0  0  0  0  0  0  0  0  0  0
  1  2  1  0
  1  8  1  0
  1 11  1  0
  2  3  1  0
  2  6  1  0
  2 12  1  6
  3  4  2  0
  3  5  1  0
  5 13  1  0
  6  7  1  0
  6  9  1  0
  6 14  1  6
  7  8  1  0
  7 15  1  0
  7 16  1  0
  8 10  1  0
  8 17  1  1
  9 18  1  0
 10 19  1  0
 10 20  1  0
 10 21  1  0
M  END
