
     RDKit          3D

 37 38  0  0  0  0  0  0  0  0999 V2000
   -5.4782   -1.0457   -0.0629 N   0  0  0  0  0  0  0  0  0  0  0  0
   -4.3367   -0.3738   -0.0744 C   0  0  0  0  0  0  0  0  0  0  0  0
   -4.1799    0.9347   -0.0367 N   0  0  0  0  0  0  0  0  0  0  0  0
   -5.2933    1.6689    0.0256 C   0  0  0  0  0  0  0  0  0  0  0  0
   -6.5410    1.0643    0.0465 C   0  0  0  0  0  0  0  0  0  0  0  0
   -6.5943   -0.3244   -0.0028 C   0  0  0  0  0  0  0  0  0  0  0  0
   -2.9299   -1.4255   -0.1401 S   0  0  0  0  0  0  0  0  0  0  0  0
   -1.5925   -0.2116   -0.1409 C   0  0  0  0  0  0  0  0  0  0  0  0
   -0.2808   -0.9491   -0.1100 C   0  0  0  0  0  0  0  0  0  0  0  0
   -0.2414   -2.1582   -0.0970 O   0  0  0  0  0  0  0  0  0  0  0  0
   -5.1292    3.1521    0.0584 C   0  0  0  0  0  0  0  0  0  0  0  0
   -7.8894   -1.0674    0.0156 C   0  0  0  0  0  0  0  0  0  0  0  0
    0.9665   -0.1385   -0.0905 C   0  0  0  0  0  0  0  0  0  0  0  0
    2.1862   -0.8038    0.0035 C   0  0  0  0  0  0  0  0  0  0  0  0
    3.3745   -0.0967    0.0257 C   0  0  0  0  0  0  0  0  0  0  0  0
    3.3486    1.2959   -0.0552 C   0  0  0  0  0  0  0  0  0  0  0  0
    2.1414    1.9660   -0.1515 C   0  0  0  0  0  0  0  0  0  0  0  0
    0.9563    1.2506   -0.1624 C   0  0  0  0  0  0  0  0  0  0  0  0
    4.8972   -1.0152    0.2155 S   0  0  1  0  0  0  0  0  0  0  0  0
    5.6256   -0.4300    1.3234 O   0  0  0  0  0  0  0  0  0  0  0  0
    4.5283   -2.4179    0.2450 O   0  0  0  0  0  0  0  0  0  0  0  0
    5.7940   -0.7931   -1.1300 N   0  0  0  0  0  0  0  0  0  0  0  0
   -7.4447    1.6552    0.1005 H   0  0  0  0  0  0  0  0  0  0  0  0
   -1.6504    0.4225   -1.0281 H   0  0  0  0  0  0  0  0  0  0  0  0
   -1.6739    0.4463    0.7265 H   0  0  0  0  0  0  0  0  0  0  0  0
   -4.7814    3.5119   -0.9114 H   0  0  0  0  0  0  0  0  0  0  0  0
   -6.0653    3.6552    0.2910 H   0  0  0  0  0  0  0  0  0  0  0  0
   -4.3811    3.4391    0.7969 H   0  0  0  0  0  0  0  0  0  0  0  0
   -7.9446   -1.7082    0.8967 H   0  0  0  0  0  0  0  0  0  0  0  0
   -8.7417   -0.3917    0.0269 H   0  0  0  0  0  0  0  0  0  0  0  0
   -7.9683   -1.7138   -0.8591 H   0  0  0  0  0  0  0  0  0  0  0  0
    2.2017   -1.8832    0.0621 H   0  0  0  0  0  0  0  0  0  0  0  0
    2.1250    3.0446   -0.2162 H   0  0  0  0  0  0  0  0  0  0  0  0
    0.0298    1.8040   -0.2358 H   0  0  0  0  0  0  0  0  0  0  0  0
    6.1696    0.1390   -1.2556 H   0  0  0  0  0  0  0  0  0  0  0  0
    5.3876   -1.1684   -1.9791 H   0  0  0  0  0  0  0  0  0  0  0  0
    4.7969    2.2243   -0.0653 Cl  0  0  0  0  0  0  0  0  0  0  0  0
  1  6  2  0
  1  2  1  0
  2  3  2  0
  3  4  1  0
  4 11  1  0
  5  4  2  0
  6  5  1  0
  7  2  1  0
  7  8  1  0
  8  9  1  0
  9 13  1  0
 10  9  2  0
 12  6  1  0
 13 18  1  0
 13 14  2  0
 14 15  1  0
 15 16  2  0
 15 19  1  0
 17 16  1  0
 18 17  2  0
 19 20  2  0
 19 21  2  0
 19 22  1  6
  5 23  1  0
  8 24  1  0
  8 25  1  0
 11 26  1  0
 11 27  1  0
 11 28  1  0
 12 29  1  0
 12 30  1  0
 12 31  1  0
 14 32  1  0
 17 33  1  0
 18 34  1  0
 22 35  1  0
 22 36  1  0
 16 37  1  0
M  END
