
     RDKit          3D

 57 61  0  0  0  0  0  0  0  0999 V2000
   -5.5934    1.7902   -1.8926 C   0  0  0  0  0  0  0  0  0  0  0  0
   -6.1419    1.3641   -0.6958 C   0  0  0  0  0  0  0  0  0  0  0  0
   -4.2663    1.5016   -2.1759 C   0  0  0  0  0  0  0  0  0  0  0  0
   -3.4852    0.7921   -1.2721 C   0  0  0  0  0  0  0  0  0  0  0  0
   -4.0118    0.3553   -0.0666 C   0  0  0  0  0  0  0  0  0  0  0  0
   -5.3541    0.6521    0.2074 C   0  0  0  0  0  0  0  0  0  0  0  0
    0.6503   -1.4582   -0.2856 C   0  0  0  0  0  0  0  0  0  0  0  0
    0.4425   -0.2789    0.3776 C   0  0  0  0  0  0  0  0  0  0  0  0
   -0.8315    0.1882    0.8289 C   0  0  0  0  0  0  0  0  0  0  0  0
   -2.5765   -2.7430   -0.5147 N   0  0  0  0  0  0  0  0  0  0  0  0
   -1.8890   -3.7328   -1.1736 C   0  0  0  0  0  0  0  0  0  0  0  0
   -0.5568   -3.4677   -1.2222 C   0  0  0  0  0  0  0  0  0  0  0  0
    4.7660   -1.5045   -0.3089 C   0  0  0  0  0  0  0  0  0  0  0  0
    6.1523   -1.1368    0.2098 C   0  0  1  0  0  0  0  0  0  0  0  0
    5.7256    1.2296   -0.5657 C   0  0  0  0  0  0  0  0  0  0  0  0
    4.3485    0.7848   -1.0220 C   0  0  0  0  0  0  0  0  0  0  0  0
   -3.2053   -0.4034    0.9569 C   0  0  0  0  0  0  0  0  0  0  0  0
   -1.8568   -0.7102    0.5314 N   0  0  0  0  0  0  0  0  0  0  0  0
   -1.6649   -1.8848   -0.1612 C   0  0  0  0  0  0  0  0  0  0  0  0
   -0.4187   -2.2650   -0.5602 N   0  0  0  0  0  0  0  0  0  0  0  0
    1.9318   -1.6541   -0.6099 N   0  0  0  0  0  0  0  0  0  0  0  0
    2.5519   -0.5799   -0.1354 C   0  0  0  0  0  0  0  0  0  0  0  0
    1.7012    0.2758    0.4825 N   0  0  0  0  0  0  0  0  0  0  0  0
    3.8930   -0.3413   -0.1986 N   0  0  0  0  0  0  0  0  0  0  0  0
    6.6993    0.0567   -0.5836 C   0  0  0  0  0  0  0  0  0  0  0  0
    6.0851   -0.9341    1.6507 N   0  0  0  0  0  0  0  0  0  0  0  0
    1.8213    2.6980    0.5303 C   0  0  0  0  0  0  0  0  0  0  0  0
    1.6381    3.7290   -0.0608 C   0  0  0  0  0  0  0  0  0  0  0  0
    1.4139    4.9761   -0.7733 C   0  0  0  0  0  0  0  0  0  0  0  0
   -5.9367    0.2221    1.4376 C   0  0  0  0  0  0  0  0  0  0  0  0
   -6.4020   -0.1277    2.4323 N   0  0  0  0  0  0  0  0  0  0  0  0
   -6.1974    2.3437   -2.5979 H   0  0  0  0  0  0  0  0  0  0  0  0
   -7.1740    1.5792   -0.4553 H   0  0  0  0  0  0  0  0  0  0  0  0
   -3.8295    1.8322   -3.1087 H   0  0  0  0  0  0  0  0  0  0  0  0
   -2.4546    0.5828   -1.5251 H   0  0  0  0  0  0  0  0  0  0  0  0
   -2.3992   -4.5896   -1.5837 H   0  0  0  0  0  0  0  0  0  0  0  0
    0.2823   -3.9912   -1.6453 H   0  0  0  0  0  0  0  0  0  0  0  0
    1.4974    1.4406    2.1828 H   0  0  0  0  0  0  0  0  0  0  0  0
    3.1158    1.3583    1.5176 H   0  0  0  0  0  0  0  0  0  0  0  0
    4.8353   -1.8499   -1.3482 H   0  0  0  0  0  0  0  0  0  0  0  0
    4.3551   -2.3194    0.2865 H   0  0  0  0  0  0  0  0  0  0  0  0
    6.8004   -1.9991    0.0279 H   0  0  0  0  0  0  0  0  0  0  0  0
    6.0774    2.0303   -1.2188 H   0  0  0  0  0  0  0  0  0  0  0  0
    5.6526    1.6561    0.4390 H   0  0  0  0  0  0  0  0  0  0  0  0
    3.6368    1.6068   -0.9579 H   0  0  0  0  0  0  0  0  0  0  0  0
    4.3840    0.4739   -2.0753 H   0  0  0  0  0  0  0  0  0  0  0  0
   -3.1468    0.1735    1.8799 H   0  0  0  0  0  0  0  0  0  0  0  0
   -3.7022   -1.3422    1.2034 H   0  0  0  0  0  0  0  0  0  0  0  0
    7.6710    0.3555   -0.1827 H   0  0  0  0  0  0  0  0  0  0  0  0
    6.8723   -0.2529   -1.6196 H   0  0  0  0  0  0  0  0  0  0  0  0
    6.9876   -0.6279    1.9938 H   0  0  0  0  0  0  0  0  0  0  0  0
    5.4394   -0.1823    1.8602 H   0  0  0  0  0  0  0  0  0  0  0  0
    1.4679    5.8259   -0.0927 H   0  0  0  0  0  0  0  0  0  0  0  0
    2.1613    5.1235   -1.5529 H   0  0  0  0  0  0  0  0  0  0  0  0
    0.4303    4.9860   -1.2429 H   0  0  0  0  0  0  0  0  0  0  0  0
   -1.0506    1.2355    1.4151 O   0  0  0  0  0  0  0  0  0  0  0  0
    2.0614    1.4533    1.2509 C   0  0  0  0  0  0  0  0  0  0  0  0
 26 14  1  0
 25 14  1  0
 25 15  1  0
 13 14  1  0
 13 24  1  0
 16 15  1  0
 16 24  1  0
 29 28  1  0
 24 22  1  0
 28 27  3  0
 27 57  1  0
 57 23  1  0
 22 23  1  0
 22 21  2  0
 23  8  1  0
 21  7  1  0
  8  7  2  0
  8  9  1  0
  7 20  1  0
 56  9  2  0
  9 18  1  0
 20 12  1  0
 20 19  1  0
 12 11  2  0
 18 19  1  0
 18 17  1  0
 19 10  2  0
  4  3  1  0
  4  5  2  0
 17  5  1  0
 11 10  1  0
  3  1  2  0
  5  6  1  0
  1  2  1  0
  6  2  2  0
  6 30  1  0
 30 31  3  0
  1 32  1  0
  2 33  1  0
  3 34  1  0
  4 35  1  0
 11 36  1  0
 12 37  1  0
 57 38  1  0
 57 39  1  0
 13 40  1  0
 13 41  1  0
 14 42  1  1
 15 43  1  0
 15 44  1  0
 16 45  1  0
 16 46  1  0
 17 47  1  0
 17 48  1  0
 25 49  1  0
 25 50  1  0
 26 51  1  0
 26 52  1  0
 29 53  1  0
 29 54  1  0
 29 55  1  0
M  END
