
     RDKit          3D

 38 41  0  0  0  0  0  0  0  0999 V2000
   -5.5463   -1.1747   -0.1333 O   0  0  0  0  0  0  0  0  0  0  0  0
   -4.2104   -1.1335   -0.0696 C   0  0  0  0  0  0  0  0  0  0  0  0
   -3.5324   -2.3655   -0.0751 C   0  0  0  0  0  0  0  0  0  0  0  0
   -4.1660   -3.5494   -0.1251 O   0  0  0  0  0  0  0  0  0  0  0  0
   -2.1579   -2.3139   -0.0460 C   0  0  0  0  0  0  0  0  0  0  0  0
   -1.4883   -1.0855    0.0010 C   0  0  0  0  0  0  0  0  0  0  0  0
   -0.0126   -1.0776   -0.0549 C   0  0  0  0  0  0  0  0  0  0  0  0
    0.7316   -1.8576    0.8276 C   0  0  0  0  0  0  0  0  0  0  0  0
    2.1150   -1.8699    0.7715 C   0  0  0  0  0  0  0  0  0  0  0  0
    2.7851   -1.1040   -0.1790 C   0  0  0  0  0  0  0  0  0  0  0  0
    4.2380   -1.0915   -0.2621 C   0  0  0  0  0  0  0  0  0  0  0  0
    5.0923   -1.7044    0.5632 N   0  0  0  0  0  0  0  0  0  0  0  0
    6.3293   -1.4617    0.1672 N   0  0  0  0  0  0  0  0  0  0  0  0
    6.2365   -0.7239   -0.8674 N   0  0  0  0  0  0  0  0  0  0  0  0
    4.9655   -0.4718   -1.1662 N   0  0  0  0  0  0  0  0  0  0  0  0
    2.0448   -0.3344   -1.0773 C   0  0  0  0  0  0  0  0  0  0  0  0
    0.6654   -0.3228   -1.0131 C   0  0  0  0  0  0  0  0  0  0  0  0
   -2.2605    0.0730    0.0536 C   0  0  0  0  0  0  0  0  0  0  0  0
   -3.5957    0.0157    0.0006 N   0  0  0  0  0  0  0  0  0  0  0  0
   -1.6886    1.4302    0.1878 C   0  0  0  0  0  0  0  0  0  0  0  0
   -2.1974    2.4781   -0.5780 C   0  0  0  0  0  0  0  0  0  0  0  0
   -1.6881    3.7624   -0.4631 C   0  0  0  0  0  0  0  0  0  0  0  0
   -0.6706    3.9910    0.4431 C   0  0  0  0  0  0  0  0  0  0  0  0
   -0.1715    5.2316    0.5603 F   0  0  0  0  0  0  0  0  0  0  0  0
   -0.1546    2.9835    1.2350 C   0  0  0  0  0  0  0  0  0  0  0  0
   -0.6703    1.7044    1.0998 C   0  0  0  0  0  0  0  0  0  0  0  0
   -5.1223   -3.4288   -0.1566 H   0  0  0  0  0  0  0  0  0  0  0  0
   -1.5911   -3.2365   -0.0899 H   0  0  0  0  0  0  0  0  0  0  0  0
    0.2276   -2.4501    1.5806 H   0  0  0  0  0  0  0  0  0  0  0  0
    2.6558   -2.4814    1.4828 H   0  0  0  0  0  0  0  0  0  0  0  0
    4.9236   -2.2708    1.3824 H   0  0  0  0  0  0  0  0  0  0  0  0
    2.5507    0.2536   -1.8313 H   0  0  0  0  0  0  0  0  0  0  0  0
    0.1074    0.2727   -1.7239 H   0  0  0  0  0  0  0  0  0  0  0  0
   -2.9960    2.2906   -1.2837 H   0  0  0  0  0  0  0  0  0  0  0  0
   -2.0758    4.5695   -1.0709 H   0  0  0  0  0  0  0  0  0  0  0  0
    0.6316    3.1898    1.9491 H   0  0  0  0  0  0  0  0  0  0  0  0
   -0.2760    0.9176    1.7288 H   0  0  0  0  0  0  0  0  0  0  0  0
   -5.8966   -0.2739   -0.1235 H   0  0  0  0  0  0  0  0  0  0  0  0
 24 23  1  0
 13 12  1  0
 13 14  2  0
 12 11  1  0
 14 15  1  0
 23 22  1  0
 23 25  2  0
 22 21  2  0
 11 15  2  0
 11 10  1  0
 25 26  1  0
 21 20  1  0
 10 16  2  0
 10  9  1  0
 16 17  1  0
  9  8  2  0
 26 20  2  0
 20 18  1  0
 17  7  2  0
  8  7  1  0
  7  6  1  0
 18  6  2  0
 18 19  1  0
  6  5  1  0
 19  2  2  0
  5  3  2  0
  2  3  1  0
  2  1  1  0
  3  4  1  0
  4 27  1  0
  5 28  1  0
  8 29  1  0
  9 30  1  0
 12 31  1  0
 16 32  1  0
 17 33  1  0
 21 34  1  0
 22 35  1  0
 25 36  1  0
 26 37  1  0
  1 38  1  0
M  END
