
     RDKit          3D

 27 28  0  0  0  0  0  0  0  0999 V2000
    2.5849   -2.6731    0.3231 C   0  0  0  0  0  0  0  0  0  0  0  0
    1.2103   -2.7058    0.2067 C   0  0  0  0  0  0  0  0  0  0  0  0
    0.4902   -1.5139    0.0907 C   0  0  0  0  0  0  0  0  0  0  0  0
    1.1749   -0.3025    0.0681 C   0  0  0  0  0  0  0  0  0  0  0  0
    2.5576   -0.3058    0.1838 C   0  0  0  0  0  0  0  0  0  0  0  0
    3.2877   -1.4742    0.3173 C   0  0  0  0  0  0  0  0  0  0  0  0
    3.1077    0.9638    0.1780 O   0  0  0  0  0  0  0  0  0  0  0  0
    4.3850    1.1959   -0.1413 C   0  0  1  0  0  0  0  0  0  0  0  0
    4.7482    0.6102   -1.2815 F   0  0  0  0  0  0  0  0  0  0  0  0
    4.5254    2.5049   -0.2802 F   0  0  0  0  0  0  0  0  0  0  0  0
    5.2395    0.7937    0.8026 F   0  0  0  0  0  0  0  0  0  0  0  0
   -0.8962   -1.6321   -0.0072 N   0  0  0  0  0  0  0  0  0  0  0  0
   -1.8204   -0.6443   -0.0871 C   0  0  0  0  0  0  0  0  0  0  0  0
   -1.5871    0.5510   -0.1255 O   0  0  0  0  0  0  0  0  0  0  0  0
   -3.1175   -1.1012   -0.1238 N   0  0  0  0  0  0  0  0  0  0  0  0
   -4.1750   -0.2485   -0.2268 C   0  0  0  0  0  0  0  0  0  0  0  0
   -5.5046   -0.5897   -0.2774 C   0  0  0  0  0  0  0  0  0  0  0  0
   -6.3303    0.4723   -0.3841 N   0  0  0  0  0  0  0  0  0  0  0  0
   -5.7516    1.6010   -0.4144 N   0  0  0  0  0  0  0  0  0  0  0  0
   -4.0743    1.4528   -0.3199 S   0  0  0  0  0  0  0  0  0  0  0  0
    3.1314   -3.6004    0.4283 H   0  0  0  0  0  0  0  0  0  0  0  0
    0.6897   -3.6553    0.2186 H   0  0  0  0  0  0  0  0  0  0  0  0
    0.6582    0.6383   -0.0336 H   0  0  0  0  0  0  0  0  0  0  0  0
    4.3605   -1.4942    0.4358 H   0  0  0  0  0  0  0  0  0  0  0  0
   -1.2377   -2.5819    0.0081 H   0  0  0  0  0  0  0  0  0  0  0  0
   -5.9010   -1.5935   -0.2493 H   0  0  0  0  0  0  0  0  0  0  0  0
   -3.3205   -2.0913   -0.1124 H   0  0  0  0  0  0  0  0  0  0  0  0
  1  2  2  0
  1  6  1  0
  2  3  1  0
  3  4  2  0
  3 12  1  0
  4  5  1  0
  5  6  2  0
  5  7  1  0
  7  8  1  0
  8  9  1  6
  8 10  1  0
  8 11  1  0
 12 13  1  0
 13 14  2  0
 13 15  1  0
 15 16  1  0
 16 17  2  0
 16 20  1  0
 17 18  1  0
 18 19  2  0
 19 20  1  0
  1 21  1  0
  2 22  1  0
  4 23  1  0
  6 24  1  0
 12 25  1  0
 17 26  1  0
 15 27  1  0
M  END
