
     RDKit          3D

 55 59  0  0  0  0  0  0  0  0999 V2000
    0.5382   -2.7178   -0.4693 C   0  0  0  0  0  0  0  0  0  0  0  0
    1.5989   -3.5172   -0.8747 C   0  0  0  0  0  0  0  0  0  0  0  0
    1.3971    1.2639    0.4268 C   0  0  0  0  0  0  0  0  0  0  0  0
    2.8214   -3.4466   -0.2192 C   0  0  0  0  0  0  0  0  0  0  0  0
    2.9694   -2.5722    0.8483 C   0  0  0  0  0  0  0  0  0  0  0  0
    1.9081   -1.7680    1.2418 C   0  0  0  0  0  0  0  0  0  0  0  0
    3.9047    1.2391    0.6122 C   0  0  0  0  0  0  0  0  0  0  0  0
    4.5586    0.4287   -0.5218 C   0  0  1  0  0  0  0  0  0  0  0  0
    3.1753    0.3843   -1.2166 C   0  0  0  0  0  0  0  0  0  0  0  0
   -0.4636   -0.9551    1.0672 C   0  0  0  0  0  0  0  0  0  0  0  0
    0.2712    0.8789   -0.5023 C   0  0  0  0  0  0  0  0  0  0  0  0
   -1.8491   -0.3444   -1.0248 C   0  0  1  0  0  0  0  0  0  0  0  0
   -0.9528    0.1825    0.1291 C   0  0  1  0  0  0  0  0  0  0  0  0
   -1.8401    1.1533    0.9535 C   0  0  2  0  0  0  0  0  0  0  0  0
   -3.0648    0.4187    1.5172 C   0  0  0  0  0  0  0  0  0  0  0  0
   -3.9216   -0.1337    0.3749 C   0  0  2  0  0  0  0  0  0  0  0  0
   -3.0829   -1.0791   -0.4893 C   0  0  0  0  0  0  0  0  0  0  0  0
   -2.3604    0.8094   -1.8991 C   0  0  0  0  0  0  0  0  0  0  0  0
   -4.4166    1.0059   -0.5133 C   0  0  2  0  0  0  0  0  0  0  0  0
   -3.2040    1.7686   -1.0582 C   0  0  1  0  0  0  0  0  0  0  0  0
   -2.3594    2.3126    0.0954 C   0  0  0  0  0  0  0  0  0  0  0  0
    0.6767   -1.8169    0.5884 C   0  0  0  0  0  0  0  0  0  0  0  0
    2.6285    1.0721   -0.0573 N   0  0  0  0  0  0  0  0  0  0  0  0
    1.2305    1.7705    1.5331 O   0  0  0  0  0  0  0  0  0  0  0  0
   -5.2843    1.8258    0.2416 O   0  0  0  0  0  0  0  0  0  0  0  0
   -0.4122   -2.8155   -0.9787 H   0  0  0  0  0  0  0  0  0  0  0  0
    1.4665   -4.2061   -1.6993 H   0  0  0  0  0  0  0  0  0  0  0  0
    3.6459   -4.0746   -0.5312 H   0  0  0  0  0  0  0  0  0  0  0  0
    3.9116   -2.5169    1.3794 H   0  0  0  0  0  0  0  0  0  0  0  0
    2.0348   -1.0910    2.0788 H   0  0  0  0  0  0  0  0  0  0  0  0
    3.9529    0.7953    1.6083 H   0  0  0  0  0  0  0  0  0  0  0  0
    4.2429    2.2772    0.6681 H   0  0  0  0  0  0  0  0  0  0  0  0
    4.8753   -0.5657   -0.1943 H   0  0  0  0  0  0  0  0  0  0  0  0
    3.1247    0.9685   -2.1388 H   0  0  0  0  0  0  0  0  0  0  0  0
    2.7613   -0.6107   -1.3913 H   0  0  0  0  0  0  0  0  0  0  0  0
   -0.1668   -0.4973    2.0136 H   0  0  0  0  0  0  0  0  0  0  0  0
   -1.3002   -1.6085    1.3139 H   0  0  0  0  0  0  0  0  0  0  0  0
   -0.0297    1.8059   -0.9950 H   0  0  0  0  0  0  0  0  0  0  0  0
    0.6525    0.2449   -1.3065 H   0  0  0  0  0  0  0  0  0  0  0  0
   -1.2695   -1.0223   -1.6585 H   0  0  0  0  0  0  0  0  0  0  0  0
   -1.2508    1.5517    1.7810 H   0  0  0  0  0  0  0  0  0  0  0  0
   -2.7742   -0.3919    2.1897 H   0  0  0  0  0  0  0  0  0  0  0  0
   -3.6490    1.1131    2.1263 H   0  0  0  0  0  0  0  0  0  0  0  0
   -4.7838   -0.6756    0.7777 H   0  0  0  0  0  0  0  0  0  0  0  0
   -3.6745   -1.4359   -1.3387 H   0  0  0  0  0  0  0  0  0  0  0  0
   -2.8123   -1.9736    0.0760 H   0  0  0  0  0  0  0  0  0  0  0  0
   -1.5420    1.3471   -2.3823 H   0  0  0  0  0  0  0  0  0  0  0  0
   -2.9645    0.3941   -2.7126 H   0  0  0  0  0  0  0  0  0  0  0  0
   -4.9643    0.5724   -1.3660 H   0  0  0  0  0  0  0  0  0  0  0  0
   -3.5527    2.5960   -1.6881 H   0  0  0  0  0  0  0  0  0  0  0  0
   -2.9513    2.9860    0.7214 H   0  0  0  0  0  0  0  0  0  0  0  0
   -1.5402    2.9214   -0.2954 H   0  0  0  0  0  0  0  0  0  0  0  0
   -5.5219    2.5862   -0.2985 H   0  0  0  0  0  0  0  0  0  0  0  0
    5.5830    1.1195   -1.1665 O   0  0  0  0  0  0  0  0  0  0  0  0
    5.9625    0.5462   -1.8398 H   0  0  0  0  0  0  0  0  0  0  0  0
 25 19  1  0
 16 19  1  0
 16 15  1  0
 16 17  1  0
 19 20  1  0
 15 14  1  0
 17 12  1  0
 20 21  1  0
 20 18  1  0
 21 14  1  0
 14 13  1  0
 12 18  1  0
 12 13  1  0
 13 10  1  1
 10 22  1  0
 13 11  1  0
  6 22  1  0
  6  5  2  0
 22  1  2  0
  5  4  1  0
 11  3  1  0
  1  2  1  0
  4  2  2  0
  3 24  2  0
  3 23  1  0
 23  7  1  0
 23  9  1  0
  7  8  1  0
  9  8  1  0
  8 54  1  0
  1 26  1  0
  2 27  1  0
  4 28  1  0
  5 29  1  0
  6 30  1  0
  7 31  1  0
  7 32  1  0
  8 33  1  1
  9 34  1  0
  9 35  1  0
 10 36  1  0
 10 37  1  0
 11 38  1  0
 11 39  1  0
 12 40  1  6
 14 41  1  1
 15 42  1  0
 15 43  1  0
 16 44  1  1
 17 45  1  0
 17 46  1  0
 18 47  1  0
 18 48  1  0
 19 49  1  6
 20 50  1  6
 21 51  1  0
 21 52  1  0
 54 55  1  0
 25 53  1  0
M  END
