
     RDKit          3D

 20 20  0  0  0  0  0  0  0  0999 V2000
    5.1230    0.3375   -0.0235 O   0  0  0  0  0  0  0  0  0  0  0  0
    3.9168    0.5266   -0.0085 C   0  0  0  0  0  0  0  0  0  0  0  0
    3.3225    1.7273    0.0183 N   0  0  0  0  0  0  0  0  0  0  0  0
    3.0584   -0.5610   -0.0073 N   0  0  0  0  0  0  0  0  0  0  0  0
    1.7452   -0.3966    0.0002 N   0  0  0  0  0  0  0  0  0  0  0  0
    0.9880   -1.4225    0.0074 C   0  0  0  0  0  0  0  0  0  0  0  0
   -0.4408   -1.2639    0.0112 C   0  0  0  0  0  0  0  0  0  0  0  0
   -1.4358   -2.2054    0.0174 C   0  0  0  0  0  0  0  0  0  0  0  0
   -2.6555   -1.4975    0.0155 C   0  0  0  0  0  0  0  0  0  0  0  0
   -0.9680   -0.0291    0.0049 O   0  0  0  0  0  0  0  0  0  0  0  0
   -2.2965   -0.1858    0.0077 C   0  0  0  0  0  0  0  0  0  0  0  0
   -3.0854    0.9810    0.0011 N   0  0  0  0  0  0  0  0  0  0  0  0
   -2.5231    2.0534   -0.0033 O   0  0  0  0  0  0  0  0  0  0  0  0
   -4.2883    0.8243    0.0005 O   0  0  0  0  0  0  0  0  0  0  0  0
    3.8908    2.5538   -0.0414 H   0  0  0  0  0  0  0  0  0  0  0  0
    2.3226    1.8264   -0.0177 H   0  0  0  0  0  0  0  0  0  0  0  0
    3.4758   -1.4862   -0.0065 H   0  0  0  0  0  0  0  0  0  0  0  0
    1.3569   -2.4473    0.0092 H   0  0  0  0  0  0  0  0  0  0  0  0
   -1.3005   -3.2744    0.0220 H   0  0  0  0  0  0  0  0  0  0  0  0
   -3.6534   -1.9029    0.0197 H   0  0  0  0  0  0  0  0  0  0  0  0
  1  2  2  0
  2  3  1  0
  2  4  1  0
  3 15  1  0
  3 16  1  0
  4  5  1  0
  4 17  1  0
  5  6  2  0
  6  7  1  0
  6 18  1  0
  7  8  2  0
  7 10  1  0
  8  9  1  0
  8 19  1  0
  9 11  2  0
  9 20  1  0
 10 11  1  0
 11 12  1  0
 12 13  2  0
 12 14  1  0
M  CHG  2  12   1  14  -1
M  END
