
     RDKit          3D

 35 34  0  0  0  0  0  0  0  0999 V2000
   -0.0388   -1.9775   -2.5423 N   0  0  0  0  0  0  0  0  0  0  0  0
    0.0171   -0.5385   -2.6343 C   0  0  1  0  0  0  0  0  0  0  0  0
    1.1438    0.0870   -1.7966 C   0  0  0  0  0  0  0  0  0  0  0  0
    0.9705   -0.2081   -0.3228 C   0  0  0  0  0  0  0  0  0  0  0  0
    1.9933    0.5466    0.4981 C   0  0  0  0  0  0  0  0  0  0  0  0
    2.0096    0.1025    1.9611 C   0  0  0  0  0  0  0  0  0  0  0  0
    0.7951    0.3493    2.6917 N   0  0  0  0  0  0  0  0  0  0  0  0
    0.5907    1.4659    3.4761 C   0  0  0  0  0  0  0  0  0  0  0  0
    1.4522    2.3573    3.6120 O   0  0  0  0  0  0  0  0  0  0  0  0
   -0.7704    1.5726    4.1908 C   0  0  0  0  0  0  0  0  0  0  0  0
   -1.1719    2.9279    4.4358 N   0  0  0  0  0  0  0  0  0  0  0  0
   -2.0694    3.6090    3.6410 C   0  0  0  0  0  0  0  0  0  0  0  0
   -2.6099    3.1042    2.6369 O   0  0  0  0  0  0  0  0  0  0  0  0
    0.1620   -0.0253   -4.0651 C   0  0  0  0  0  0  0  0  0  0  0  0
    0.7039   -0.5783   -5.0274 O   0  0  0  0  0  0  0  0  0  0  0  0
   -2.4074    5.0466    4.0173 C   0  0  0  0  0  0  0  0  0  0  0  0
   -1.7682    5.6906    4.8418 O   0  0  0  0  0  0  0  0  0  0  0  0
   -0.3840    1.2011   -4.2829 O   0  0  0  0  0  0  0  0  0  0  0  0
   -0.6708   -2.3516   -3.2240 H   0  0  0  0  0  0  0  0  0  0  0  0
    0.8663   -2.3840   -2.6750 H   0  0  0  0  0  0  0  0  0  0  0  0
   -0.9738   -0.1380   -2.2553 H   0  0  0  0  0  0  0  0  0  0  0  0
    2.1389   -0.2918   -2.1471 H   0  0  0  0  0  0  0  0  0  0  0  0
    1.1209    1.1966   -1.9681 H   0  0  0  0  0  0  0  0  0  0  0  0
    1.0762   -1.3099   -0.1392 H   0  0  0  0  0  0  0  0  0  0  0  0
   -0.0662    0.0832   -0.0076 H   0  0  0  0  0  0  0  0  0  0  0  0
    1.7980    1.6484    0.4305 H   0  0  0  0  0  0  0  0  0  0  0  0
    3.0191    0.3630    0.0823 H   0  0  0  0  0  0  0  0  0  0  0  0
    2.2018   -1.0095    1.9957 H   0  0  0  0  0  0  0  0  0  0  0  0
    2.8628    0.6233    2.4855 H   0  0  0  0  0  0  0  0  0  0  0  0
    0.0747   -0.3301    2.6185 H   0  0  0  0  0  0  0  0  0  0  0  0
   -1.5795    1.0409    3.6120 H   0  0  0  0  0  0  0  0  0  0  0  0
   -0.6428    1.0567    5.1880 H   0  0  0  0  0  0  0  0  0  0  0  0
   -0.7737    3.3898    5.2270 H   0  0  0  0  0  0  0  0  0  0  0  0
   -3.2644    5.4528    3.4386 H   0  0  0  0  0  0  0  0  0  0  0  0
   -0.2527    1.4585   -5.2110 H   0  0  0  0  0  0  0  0  0  0  0  0
  1  2  1  0
  1 19  1  0
  1 20  1  0
  2  3  1  0
  2 14  1  0
  2 21  1  1
  3  4  1  0
  3 22  1  0
  3 23  1  0
  4  5  1  0
  4 24  1  0
  4 25  1  0
  5  6  1  0
  5 26  1  0
  5 27  1  0
  6  7  1  0
  6 28  1  0
  6 29  1  0
  7  8  1  0
  7 30  1  0
  8  9  2  0
  8 10  1  0
 10 11  1  0
 10 31  1  0
 10 32  1  0
 11 12  1  0
 11 33  1  0
 12 13  2  0
 12 16  1  0
 14 15  2  0
 14 18  1  0
 16 17  2  0
 16 34  1  0
 18 35  1  0
M  END
