
     RDKit          3D

 78 82  0  0  0  0  0  0  0  0999 V2000
    4.1609    3.3755    1.4919 O   0  0  0  0  0  0  0  0  0  0  0  0
    6.0239    2.5504    2.3930 O   0  0  0  0  0  0  0  0  0  0  0  0
    5.4007    2.9070    1.4223 C   0  0  0  0  0  0  0  0  0  0  0  0
    5.9520    2.9008    0.0166 C   0  0  1  0  0  0  0  0  0  0  0  0
    7.0679    3.9536   -0.0793 C   0  0  0  0  0  0  0  0  0  0  0  0
    7.5371    4.1984   -1.5066 C   0  0  0  0  0  0  0  0  0  0  0  0
    6.4451    1.4917   -0.3406 C   0  0  0  0  0  0  0  0  0  0  0  0
    5.3576    0.4555   -0.2692 C   0  0  0  0  0  0  0  0  0  0  0  0
    4.4311    0.3239   -1.3044 C   0  0  0  0  0  0  0  0  0  0  0  0
    3.4017   -0.6014   -1.2676 C   0  0  0  0  0  0  0  0  0  0  0  0
    3.2776   -1.4316   -0.1415 C   0  0  0  0  0  0  0  0  0  0  0  0
    4.1897   -1.3168    0.9012 C   0  0  0  0  0  0  0  0  0  0  0  0
    5.2167   -0.3811    0.8277 C   0  0  0  0  0  0  0  0  0  0  0  0
    2.2617   -2.3109   -0.1652 O   0  0  0  0  0  0  0  0  0  0  0  0
    1.9859   -3.0915    0.9849 C   0  0  0  0  0  0  0  0  0  0  0  0
    0.6781   -3.8224    0.7637 C   0  0  0  0  0  0  0  0  0  0  0  0
    0.3428   -4.7167    1.9493 C   0  0  0  0  0  0  0  0  0  0  0  0
    2.4471   -0.7295   -2.4257 C   0  0  0  0  0  0  0  0  0  0  0  0
    1.0791   -0.4600   -2.0456 N   0  0  0  0  0  0  0  0  0  0  0  0
    0.0827   -1.3576   -2.1411 C   0  0  0  0  0  0  0  0  0  0  0  0
    0.1881   -2.4215   -2.7366 O   0  0  0  0  0  0  0  0  0  0  0  0
   -1.2038   -0.9673   -1.4911 C   0  0  0  0  0  0  0  0  0  0  0  0
   -2.3939   -1.4921   -1.9913 C   0  0  0  0  0  0  0  0  0  0  0  0
   -3.6059   -1.1624   -1.4148 C   0  0  0  0  0  0  0  0  0  0  0  0
   -3.6852   -0.3122   -0.3066 C   0  0  0  0  0  0  0  0  0  0  0  0
   -2.4872    0.1825    0.2023 C   0  0  0  0  0  0  0  0  0  0  0  0
   -1.2664   -0.1368   -0.3785 C   0  0  0  0  0  0  0  0  0  0  0  0
   -5.0404    0.0266    0.2876 C   0  0  2  0  0  0  0  0  0  0  0  0
   -4.9427    0.9871    1.4825 C   0  0  0  0  0  0  0  0  0  0  0  0
   -6.3322    1.3030    2.0418 C   0  0  2  0  0  0  0  0  0  0  0  0
   -6.9976    0.0072    2.5086 C   0  0  0  0  0  0  0  0  0  0  0  0
   -7.1262   -0.9487    1.3227 C   0  0  2  0  0  0  0  0  0  0  0  0
   -5.7357   -1.2629    0.7676 C   0  0  0  0  0  0  0  0  0  0  0  0
   -5.9232    0.6975   -0.7857 C   0  0  0  0  0  0  0  0  0  0  0  0
   -7.3147    1.0036   -0.2291 C   0  0  1  0  0  0  0  0  0  0  0  0
   -7.9760   -0.2984    0.2283 C   0  0  0  0  0  0  0  0  0  0  0  0
   -7.1892    1.9578    0.9582 C   0  0  0  0  0  0  0  0  0  0  0  0
    3.8651    3.3870    2.4151 H   0  0  0  0  0  0  0  0  0  0  0  0
    5.1518    3.1791   -0.6755 H   0  0  0  0  0  0  0  0  0  0  0  0
    6.7058    4.8978    0.3363 H   0  0  0  0  0  0  0  0  0  0  0  0
    7.9099    3.6426    0.5446 H   0  0  0  0  0  0  0  0  0  0  0  0
    8.2859    4.9900   -1.5321 H   0  0  0  0  0  0  0  0  0  0  0  0
    7.9878    3.3115   -1.9513 H   0  0  0  0  0  0  0  0  0  0  0  0
    6.7079    4.5063   -2.1458 H   0  0  0  0  0  0  0  0  0  0  0  0
    6.8564    1.5191   -1.3517 H   0  0  0  0  0  0  0  0  0  0  0  0
    7.2697    1.2192    0.3225 H   0  0  0  0  0  0  0  0  0  0  0  0
    4.5167    0.9644   -2.1769 H   0  0  0  0  0  0  0  0  0  0  0  0
    4.1300   -1.9549    1.7728 H   0  0  0  0  0  0  0  0  0  0  0  0
    5.9199   -0.3166    1.6488 H   0  0  0  0  0  0  0  0  0  0  0  0
    2.7991   -3.8058    1.1638 H   0  0  0  0  0  0  0  0  0  0  0  0
    1.9105   -2.4503    1.8709 H   0  0  0  0  0  0  0  0  0  0  0  0
   -0.1200   -3.0917    0.6104 H   0  0  0  0  0  0  0  0  0  0  0  0
    0.7415   -4.4199   -0.1486 H   0  0  0  0  0  0  0  0  0  0  0  0
   -0.6118   -5.2199    1.7991 H   0  0  0  0  0  0  0  0  0  0  0  0
    1.1020   -5.4867    2.0959 H   0  0  0  0  0  0  0  0  0  0  0  0
    0.2699   -4.1427    2.8747 H   0  0  0  0  0  0  0  0  0  0  0  0
    2.7526   -0.0406   -3.2168 H   0  0  0  0  0  0  0  0  0  0  0  0
    2.4836   -1.7320   -2.8504 H   0  0  0  0  0  0  0  0  0  0  0  0
    0.8921    0.4345   -1.6232 H   0  0  0  0  0  0  0  0  0  0  0  0
   -2.3725   -2.1562   -2.8454 H   0  0  0  0  0  0  0  0  0  0  0  0
   -4.5084   -1.5823   -1.8416 H   0  0  0  0  0  0  0  0  0  0  0  0
   -2.4832    0.8274    1.0697 H   0  0  0  0  0  0  0  0  0  0  0  0
   -0.3634    0.2581    0.0714 H   0  0  0  0  0  0  0  0  0  0  0  0
   -4.3271    0.5453    2.2739 H   0  0  0  0  0  0  0  0  0  0  0  0
   -4.4495    1.9167    1.1780 H   0  0  0  0  0  0  0  0  0  0  0  0
   -6.2247    1.9879    2.8880 H   0  0  0  0  0  0  0  0  0  0  0  0
   -6.4011   -0.4549    3.3020 H   0  0  0  0  0  0  0  0  0  0  0  0
   -7.9837    0.2196    2.9346 H   0  0  0  0  0  0  0  0  0  0  0  0
   -7.5976   -1.8810    1.6479 H   0  0  0  0  0  0  0  0  0  0  0  0
   -5.8243   -1.9770   -0.0568 H   0  0  0  0  0  0  0  0  0  0  0  0
   -5.1214   -1.7438    1.5363 H   0  0  0  0  0  0  0  0  0  0  0  0
   -5.4383    1.6188   -1.1253 H   0  0  0  0  0  0  0  0  0  0  0  0
   -6.0123    0.0500   -1.6629 H   0  0  0  0  0  0  0  0  0  0  0  0
   -7.9182    1.4680   -1.0147 H   0  0  0  0  0  0  0  0  0  0  0  0
   -8.0853   -0.9839   -0.6187 H   0  0  0  0  0  0  0  0  0  0  0  0
   -8.9843   -0.0979    0.6047 H   0  0  0  0  0  0  0  0  0  0  0  0
   -8.1797    2.2000    1.3562 H   0  0  0  0  0  0  0  0  0  0  0  0
   -6.7382    2.9029    0.6393 H   0  0  0  0  0  0  0  0  0  0  0  0
  1  3  1  0
  2  3  2  0
  3  4  1  0
  4  5  1  0
  4  7  1  0
  5  6  1  0
  7  8  1  0
  8  9  2  0
  8 13  1  0
  9 10  1  0
 10 11  2  0
 10 18  1  0
 11 12  1  0
 11 14  1  0
 12 13  2  0
 14 15  1  0
 15 16  1  0
 16 17  1  0
 18 19  1  0
 19 20  1  0
 20 21  2  0
 20 22  1  0
 22 23  2  0
 22 27  1  0
 23 24  1  0
 24 25  2  0
 25 26  1  0
 28 25  1  6
 26 27  2  0
 28 29  1  0
 28 33  1  0
 28 34  1  0
 29 30  1  0
 30 31  1  0
 30 37  1  0
 31 32  1  0
 32 33  1  0
 32 36  1  0
 34 35  1  0
 35 36  1  0
 35 37  1  0
  1 38  1  0
  4 39  1  6
  5 40  1  0
  5 41  1  0
  6 42  1  0
  6 43  1  0
  6 44  1  0
  7 45  1  0
  7 46  1  0
  9 47  1  0
 12 48  1  0
 13 49  1  0
 15 50  1  0
 15 51  1  0
 16 52  1  0
 16 53  1  0
 17 54  1  0
 17 55  1  0
 17 56  1  0
 18 57  1  0
 18 58  1  0
 19 59  1  0
 23 60  1  0
 24 61  1  0
 26 62  1  0
 27 63  1  0
 29 64  1  0
 29 65  1  0
 30 66  1  1
 31 67  1  0
 31 68  1  0
 32 69  1  1
 33 70  1  0
 33 71  1  0
 34 72  1  0
 34 73  1  0
 35 74  1  6
 36 75  1  0
 36 76  1  0
 37 77  1  0
 37 78  1  0
M  END
