
     RDKit          3D

 46 49  0  0  0  0  0  0  0  0999 V2000
   -6.5650    0.2963    0.1429 C   0  0  0  0  0  0  0  0  0  0  0  0
   -7.1342   -0.2375   -1.1732 C   0  0  0  0  0  0  0  0  0  0  0  0
   -6.0427   -1.1958   -1.6985 C   0  0  0  0  0  0  0  0  0  0  0  0
   -4.9542   -1.1532   -0.6259 C   0  0  0  0  0  0  0  0  0  0  0  0
   -5.1286    0.1547   -0.0181 N   0  0  0  0  0  0  0  0  0  0  0  0
   -4.3874    0.3458    1.2053 C   0  0  0  0  0  0  0  0  0  0  0  0
   -2.9017    0.3475    0.9650 C   0  0  0  0  0  0  0  0  0  0  0  0
   -2.3398    1.2130    0.0291 C   0  0  0  0  0  0  0  0  0  0  0  0
   -0.9743    1.2290   -0.1947 C   0  0  0  0  0  0  0  0  0  0  0  0
   -2.0586   -0.5066    1.6661 C   0  0  0  0  0  0  0  0  0  0  0  0
   -0.6894   -0.4975    1.4474 C   0  0  0  0  0  0  0  0  0  0  0  0
   -0.1289    0.3673    0.5101 C   0  0  0  0  0  0  0  0  0  0  0  0
    1.3213    0.3554    0.2645 C   0  0  0  0  0  0  0  0  0  0  0  0
    2.0683   -0.7726    0.2598 C   0  0  0  0  0  0  0  0  0  0  0  0
    3.4726   -0.7088   -0.0105 C   0  0  0  0  0  0  0  0  0  0  0  0
    4.2835   -1.8689   -0.0179 C   0  0  0  0  0  0  0  0  0  0  0  0
    3.6963   -3.2182    0.2722 C   0  0  0  0  0  0  0  0  0  0  0  0
    5.6294   -1.7321   -0.2933 C   0  0  0  0  0  0  0  0  0  0  0  0
    6.2061   -0.4866   -0.5633 C   0  0  0  0  0  0  0  0  0  0  0  0
    5.4249    0.6450   -0.5590 C   0  0  0  0  0  0  0  0  0  0  0  0
    4.0573    0.5416   -0.2847 C   0  0  0  0  0  0  0  0  0  0  0  0
    3.2440    1.7570   -0.2771 C   0  0  0  0  0  0  0  0  0  0  0  0
    3.6789    2.8818   -0.4885 O   0  0  0  0  0  0  0  0  0  0  0  0
    1.9183    1.5628    0.0046 N   0  0  0  0  0  0  0  0  0  0  0  0
   -6.8351    1.3356    0.3424 H   0  0  0  0  0  0  0  0  0  0  0  0
   -6.9381   -0.3054    0.9889 H   0  0  0  0  0  0  0  0  0  0  0  0
   -8.0903   -0.7360   -1.0174 H   0  0  0  0  0  0  0  0  0  0  0  0
   -7.3063    0.5751   -1.8796 H   0  0  0  0  0  0  0  0  0  0  0  0
   -6.4106   -2.2093   -1.8542 H   0  0  0  0  0  0  0  0  0  0  0  0
   -5.6525   -0.8464   -2.6548 H   0  0  0  0  0  0  0  0  0  0  0  0
   -5.1091   -1.9607    0.1105 H   0  0  0  0  0  0  0  0  0  0  0  0
   -3.9480   -1.2736   -1.0308 H   0  0  0  0  0  0  0  0  0  0  0  0
   -4.6815    1.3093    1.6336 H   0  0  0  0  0  0  0  0  0  0  0  0
   -4.6331   -0.4193    1.9620 H   0  0  0  0  0  0  0  0  0  0  0  0
   -2.9819    1.8745   -0.5382 H   0  0  0  0  0  0  0  0  0  0  0  0
   -2.4746   -1.1857    2.4008 H   0  0  0  0  0  0  0  0  0  0  0  0
   -0.5733    1.8993   -0.9456 H   0  0  0  0  0  0  0  0  0  0  0  0
   -0.0526   -1.1583    2.0212 H   0  0  0  0  0  0  0  0  0  0  0  0
    1.5868   -1.7234    0.4312 H   0  0  0  0  0  0  0  0  0  0  0  0
    1.3574    2.4018    0.0723 H   0  0  0  0  0  0  0  0  0  0  0  0
    2.9214   -3.4865   -0.4482 H   0  0  0  0  0  0  0  0  0  0  0  0
    4.4621   -3.9907    0.2348 H   0  0  0  0  0  0  0  0  0  0  0  0
    3.2375   -3.2523    1.2621 H   0  0  0  0  0  0  0  0  0  0  0  0
    6.2579   -2.6146   -0.3006 H   0  0  0  0  0  0  0  0  0  0  0  0
    7.2652   -0.4188   -0.7729 H   0  0  0  0  0  0  0  0  0  0  0  0
    5.8586    1.6136   -0.7672 H   0  0  0  0  0  0  0  0  0  0  0  0
  1  2  1  0
  1  5  1  0
  2  3  1  0
  3  4  1  0
  4  5  1  0
  5  6  1  0
  6  7  1  0
  7  8  2  0
  7 10  1  0
  8  9  1  0
  9 12  2  0
 10 11  2  0
 11 12  1  0
 12 13  1  0
 13 14  2  0
 13 24  1  0
 14 15  1  0
 15 16  2  0
 15 21  1  0
 16 17  1  0
 16 18  1  0
 18 19  2  0
 19 20  1  0
 20 21  2  0
 21 22  1  0
 22 23  2  0
 22 24  1  0
  1 25  1  0
  1 26  1  0
  2 27  1  0
  2 28  1  0
  3 29  1  0
  3 30  1  0
  4 31  1  0
  4 32  1  0
  6 33  1  0
  6 34  1  0
  8 35  1  0
 10 36  1  0
  9 37  1  0
 11 38  1  0
 14 39  1  0
 24 40  1  0
 17 41  1  0
 17 42  1  0
 17 43  1  0
 18 44  1  0
 19 45  1  0
 20 46  1  0
M  END
