
     RDKit          3D

 53 57  0  0  0  0  0  0  0  0999 V2000
   -2.3387   -3.2200   -0.0413 O   0  0  0  0  0  0  0  0  0  0  0  0
   -1.8505   -2.1252    0.1344 C   0  0  0  0  0  0  0  0  0  0  0  0
   -0.3923   -1.8196    0.3992 C   0  0  1  0  0  0  0  0  0  0  0  0
   -0.2524   -1.8625    1.9326 C   0  0  0  0  0  0  0  0  0  0  0  0
    0.6395   -2.7153   -0.2682 C   0  0  0  0  0  0  0  0  0  0  0  0
    2.0431   -2.1153   -0.1212 C   0  0  0  0  0  0  0  0  0  0  0  0
    2.1300   -0.6535   -0.5840 C   0  0  2  0  0  0  0  0  0  0  0  0
    3.5163   -0.0518   -0.4358 C   0  0  0  0  0  0  0  0  0  0  0  0
    4.6619   -0.8243   -0.6243 C   0  0  0  0  0  0  0  0  0  0  0  0
    5.9394   -0.2960   -0.5321 C   0  0  0  0  0  0  0  0  0  0  0  0
    6.1013    1.0548   -0.2442 C   0  0  0  0  0  0  0  0  0  0  0  0
    7.3129    1.6421   -0.1385 O   0  0  0  0  0  0  0  0  0  0  0  0
    4.9737    1.8442   -0.0603 C   0  0  0  0  0  0  0  0  0  0  0  0
    3.6919    1.3096   -0.1540 C   0  0  0  0  0  0  0  0  0  0  0  0
    2.5215    2.2314    0.0822 C   0  0  0  0  0  0  0  0  0  0  0  0
    1.1982    1.6566   -0.3958 C   0  0  0  0  0  0  0  0  0  0  0  0
    1.0641    0.2236    0.0939 C   0  0  1  0  0  0  0  0  0  0  0  0
   -0.2880   -0.4025   -0.1820 C   0  0  2  0  0  0  0  0  0  0  0  0
   -1.5755    0.2904    0.2701 C   0  0  0  0  0  0  0  0  0  0  0  0
   -2.5821   -0.8253    0.1586 C   0  0  0  0  0  0  0  0  0  0  0  0
   -3.9119   -0.7864   -0.0037 C   0  0  0  0  0  0  0  0  0  0  0  0
   -4.7898    0.3769   -0.0435 C   0  0  0  0  0  0  0  0  0  0  0  0
   -6.0330    0.2425   -0.6725 C   0  0  0  0  0  0  0  0  0  0  0  0
   -6.9021    1.3163   -0.7743 C   0  0  0  0  0  0  0  0  0  0  0  0
   -6.5541    2.5447   -0.2265 C   0  0  0  0  0  0  0  0  0  0  0  0
   -5.3364    2.6862    0.4276 C   0  0  0  0  0  0  0  0  0  0  0  0
   -4.4604    1.6157    0.5185 C   0  0  0  0  0  0  0  0  0  0  0  0
   -0.4539   -2.8731    2.2918 H   0  0  0  0  0  0  0  0  0  0  0  0
    0.7515   -1.5961    2.2595 H   0  0  0  0  0  0  0  0  0  0  0  0
   -0.9459   -1.1904    2.4391 H   0  0  0  0  0  0  0  0  0  0  0  0
    0.6256   -3.7223    0.1553 H   0  0  0  0  0  0  0  0  0  0  0  0
    0.3982   -2.8177   -1.3313 H   0  0  0  0  0  0  0  0  0  0  0  0
    2.3755   -2.1860    0.9190 H   0  0  0  0  0  0  0  0  0  0  0  0
    2.7321   -2.7326   -0.6997 H   0  0  0  0  0  0  0  0  0  0  0  0
    1.8884   -0.6463   -1.6579 H   0  0  0  0  0  0  0  0  0  0  0  0
    4.5706   -1.8778   -0.8535 H   0  0  0  0  0  0  0  0  0  0  0  0
    6.8017   -0.9349   -0.6861 H   0  0  0  0  0  0  0  0  0  0  0  0
    8.0111    0.9952   -0.2868 H   0  0  0  0  0  0  0  0  0  0  0  0
    5.0960    2.9003    0.1564 H   0  0  0  0  0  0  0  0  0  0  0  0
    2.4499    2.4310    1.1570 H   0  0  0  0  0  0  0  0  0  0  0  0
    2.7184    3.1984   -0.3869 H   0  0  0  0  0  0  0  0  0  0  0  0
    0.3788    2.2749   -0.0211 H   0  0  0  0  0  0  0  0  0  0  0  0
    1.1382    1.6836   -1.4894 H   0  0  0  0  0  0  0  0  0  0  0  0
    1.2443    0.2272    1.1775 H   0  0  0  0  0  0  0  0  0  0  0  0
   -0.3705   -0.5103   -1.2746 H   0  0  0  0  0  0  0  0  0  0  0  0
   -1.4938    0.6651    1.2965 H   0  0  0  0  0  0  0  0  0  0  0  0
   -1.8374    1.1435   -0.3585 H   0  0  0  0  0  0  0  0  0  0  0  0
   -4.4079   -1.7403   -0.1656 H   0  0  0  0  0  0  0  0  0  0  0  0
   -6.3129   -0.7158   -1.0938 H   0  0  0  0  0  0  0  0  0  0  0  0
   -7.8527    1.1941   -1.2770 H   0  0  0  0  0  0  0  0  0  0  0  0
   -7.2317    3.3851   -0.3009 H   0  0  0  0  0  0  0  0  0  0  0  0
   -5.0681    3.6349    0.8740 H   0  0  0  0  0  0  0  0  0  0  0  0
   -3.5301    1.7443    1.0538 H   0  0  0  0  0  0  0  0  0  0  0  0
 25 26  2  0
 25 24  1  0
 26 27  1  0
 24 23  2  0
 27 22  2  0
 23 22  1  0
 22 21  1  0
 21 20  2  0
 20 19  1  0
 20  2  1  0
 19 18  1  0
  1  2  2  0
  2  3  1  0
  3  4  1  1
  3 18  1  0
  3  5  1  0
 18 17  1  0
 17 16  1  0
 17  7  1  0
 16 15  1  0
  5  6  1  0
 15 14  1  0
  6  7  1  0
  7  8  1  0
 14  8  2  0
 14 13  1  0
  8  9  1  0
 13 11  2  0
  9 10  2  0
 11 10  1  0
 11 12  1  0
  4 28  1  0
  4 29  1  0
  4 30  1  0
  5 31  1  0
  5 32  1  0
  6 33  1  0
  6 34  1  0
  7 35  1  6
  9 36  1  0
 10 37  1  0
 12 38  1  0
 13 39  1  0
 15 40  1  0
 15 41  1  0
 16 42  1  0
 16 43  1  0
 17 44  1  1
 18 45  1  6
 19 46  1  0
 19 47  1  0
 21 48  1  0
 23 49  1  0
 24 50  1  0
 25 51  1  0
 26 52  1  0
 27 53  1  0
M  END
