
     RDKit          3D

 29 28  0  0  0  0  0  0  0  0999 V2000
    1.7667   -1.4764    0.7340 N   0  0  0  0  0  0  0  0  0  0  0  0
    1.4190   -0.3375   -0.0882 C   0  0  1  0  0  0  0  0  0  0  0  0
    0.2900    0.5040    0.5153 C   0  0  0  0  0  0  0  0  0  0  0  0
   -1.1598   -0.4920    0.6845 S   0  0  0  0  0  0  0  0  0  0  0  0
   -2.4712    0.6777    0.3539 C   0  0  2  0  0  0  0  0  0  0  0  0
   -2.7522    1.5548    1.5468 C   0  0  0  0  0  0  0  0  0  0  0  0
   -3.6790   -0.1593   -0.0188 C   0  0  0  0  0  0  0  0  0  0  0  0
   -3.7325   -0.4652   -1.4945 C   0  0  0  0  0  0  0  0  0  0  0  0
    2.4987   -2.5115    0.0511 C   0  0  0  0  0  0  0  0  0  0  0  0
    2.5883    0.6111   -0.3538 C   0  0  0  0  0  0  0  0  0  0  0  0
    3.6031    0.8032    0.3215 O   0  0  0  0  0  0  0  0  0  0  0  0
    2.4668    1.3319   -1.5019 O   0  0  0  0  0  0  0  0  0  0  0  0
    2.2463   -1.1805    1.5649 H   0  0  0  0  0  0  0  0  0  0  0  0
    1.0776   -0.7242   -1.0981 H   0  0  0  0  0  0  0  0  0  0  0  0
    1.8730   -2.9163   -0.7877 H   0  0  0  0  0  0  0  0  0  0  0  0
    3.4799   -2.1594   -0.3718 H   0  0  0  0  0  0  0  0  0  0  0  0
    2.6981   -3.3387    0.7825 H   0  0  0  0  0  0  0  0  0  0  0  0
    0.5892    0.9102    1.5119 H   0  0  0  0  0  0  0  0  0  0  0  0
    0.0894    1.3702   -0.1641 H   0  0  0  0  0  0  0  0  0  0  0  0
   -2.1725    1.3221   -0.5134 H   0  0  0  0  0  0  0  0  0  0  0  0
   -2.9639    0.9353    2.4519 H   0  0  0  0  0  0  0  0  0  0  0  0
   -1.8747    2.2125    1.7638 H   0  0  0  0  0  0  0  0  0  0  0  0
   -3.6395    2.2060    1.3501 H   0  0  0  0  0  0  0  0  0  0  0  0
   -3.6612   -1.1183    0.5672 H   0  0  0  0  0  0  0  0  0  0  0  0
   -4.6107    0.3912    0.2814 H   0  0  0  0  0  0  0  0  0  0  0  0
   -3.8251    0.4748   -2.0908 H   0  0  0  0  0  0  0  0  0  0  0  0
   -2.8060   -0.9984   -1.8185 H   0  0  0  0  0  0  0  0  0  0  0  0
   -4.6137   -1.1138   -1.7191 H   0  0  0  0  0  0  0  0  0  0  0  0
    3.2397    1.9114   -1.6092 H   0  0  0  0  0  0  0  0  0  0  0  0
  1  2  1  0
  1  9  1  0
  2  3  1  0
  2 10  1  0
  3  4  1  0
  4  5  1  0
  5  6  1  0
  5  7  1  0
  7  8  1  0
 10 11  2  0
 10 12  1  0
  1 13  1  0
  2 14  1  6
  9 15  1  0
  9 16  1  0
  9 17  1  0
  3 18  1  0
  3 19  1  0
  5 20  1  6
  6 21  1  0
  6 22  1  0
  6 23  1  0
  7 24  1  0
  7 25  1  0
  8 26  1  0
  8 27  1  0
  8 28  1  0
 12 29  1  0
M  END
