
     RDKit          3D

 40 43  0  0  0  0  0  0  0  0999 V2000
    0.5522    0.4962   -3.1032 C   0  0  2  0  0  0  0  0  0  0  0  0
   -0.3207    0.8192   -4.3510 C   0  0  2  0  0  0  0  0  0  0  0  0
   -0.2128   -0.3678   -5.2833 C   0  0  0  0  0  0  0  0  0  0  0  0
    1.0267   -0.3747   -5.7766 C   0  0  0  0  0  0  0  0  0  0  0  0
    1.7594    0.8087   -5.1858 C   0  0  2  0  0  0  0  0  0  0  0  0
    1.9896    0.4638   -3.6895 C   0  0  0  0  0  0  0  0  0  0  0  0
    0.6056    1.8125   -5.0656 C   0  0  0  0  0  0  0  0  0  0  0  0
    0.1877   -0.8107   -2.4069 C   0  0  2  0  0  0  0  0  0  0  0  0
   -1.2284   -0.9370   -2.1011 N   0  0  0  0  0  0  0  0  0  0  0  0
   -1.8346    0.0194   -0.8979 S   0  0  2  0  0  0  0  0  0  0  0  0
   -0.6259   -0.1798    0.3605 C   0  0  0  0  0  0  0  0  0  0  0  0
    0.6470   -0.6872    0.0291 C   0  0  0  0  0  0  0  0  0  0  0  0
    0.9983   -1.0315   -1.2187 N   0  0  0  0  0  0  0  0  0  0  0  0
   -0.9635    0.1266    1.6665 C   0  0  0  0  0  0  0  0  0  0  0  0
   -0.0519   -0.0374    2.6916 C   0  0  0  0  0  0  0  0  0  0  0  0
    1.2230   -0.5363    2.3760 C   0  0  0  0  0  0  0  0  0  0  0  0
    1.5626   -0.8584    1.0878 C   0  0  0  0  0  0  0  0  0  0  0  0
    2.4111   -0.7747    3.5958 Cl  0  0  0  0  0  0  0  0  0  0  0  0
   -0.5321    0.4124    4.3300 S   0  0  2  0  0  0  0  0  0  0  0  0
   -3.0919   -0.5651   -0.4670 O   0  0  0  0  0  0  0  0  0  0  0  0
   -1.8351    1.3997   -1.3467 O   0  0  0  0  0  0  0  0  0  0  0  0
   -1.8977    0.9098    4.2398 O   0  0  0  0  0  0  0  0  0  0  0  0
    0.4777    1.2724    4.9231 O   0  0  0  0  0  0  0  0  0  0  0  0
   -0.4490   -1.0276    5.1189 N   0  0  0  0  0  0  0  0  0  0  0  0
    0.4714    1.3196   -2.3920 H   0  0  0  0  0  0  0  0  0  0  0  0
   -1.3256    1.1553   -4.1080 H   0  0  0  0  0  0  0  0  0  0  0  0
   -0.9766   -1.1213   -5.4238 H   0  0  0  0  0  0  0  0  0  0  0  0
    1.4804   -1.1359   -6.3977 H   0  0  0  0  0  0  0  0  0  0  0  0
    2.6557    1.1335   -5.7116 H   0  0  0  0  0  0  0  0  0  0  0  0
    2.6247    1.2083   -3.2078 H   0  0  0  0  0  0  0  0  0  0  0  0
    2.4831   -0.5040   -3.5726 H   0  0  0  0  0  0  0  0  0  0  0  0
    0.8544    2.6924   -4.4666 H   0  0  0  0  0  0  0  0  0  0  0  0
    0.2141    2.1343   -6.0318 H   0  0  0  0  0  0  0  0  0  0  0  0
    0.4040   -1.6338   -3.0890 H   0  0  0  0  0  0  0  0  0  0  0  0
   -1.5160   -1.9028   -1.9701 H   0  0  0  0  0  0  0  0  0  0  0  0
    1.9156   -1.4250   -1.3568 H   0  0  0  0  0  0  0  0  0  0  0  0
   -1.9571    0.4925    1.8906 H   0  0  0  0  0  0  0  0  0  0  0  0
    2.5493   -1.2465    0.8715 H   0  0  0  0  0  0  0  0  0  0  0  0
   -1.2771   -1.6000    4.9973 H   0  0  0  0  0  0  0  0  0  0  0  0
   -0.2172   -0.9175    6.1002 H   0  0  0  0  0  0  0  0  0  0  0  0
  1  2  1  0
  1  6  1  0
  1  8  1  0
  1 25  1  1
  2  3  1  0
  2  7  1  0
  2 26  1  1
  3  4  2  0
  3 27  1  0
  4  5  1  0
  4 28  1  0
  5  6  1  0
  5  7  1  0
  5 29  1  6
  6 30  1  0
  6 31  1  0
  7 32  1  0
  7 33  1  0
  8  9  1  0
  8 13  1  0
  8 34  1  6
 10  9  1  6
  9 35  1  0
 10 11  1  0
 10 20  2  0
 10 21  2  0
 11 12  2  0
 11 14  1  0
 12 13  1  0
 12 17  1  0
 13 36  1  0
 14 15  2  0
 14 37  1  0
 15 16  1  0
 15 19  1  0
 16 17  2  0
 16 18  1  0
 17 38  1  0
 19 22  2  0
 19 23  2  0
 19 24  1  1
 24 39  1  0
 24 40  1  0
M  END
