
     RDKit          3D

 25 26  0  0  0  0  0  0  0  0999 V2000
    3.6288   -1.3925    0.0307 O   0  0  0  0  0  0  0  0  0  0  0  0
    3.1782   -0.2679    0.0577 C   0  0  0  0  0  0  0  0  0  0  0  0
    3.9559    0.8103    0.1171 O   0  0  0  0  0  0  0  0  0  0  0  0
    1.7432    0.0512    0.0290 C   0  0  0  0  0  0  0  0  0  0  0  0
    0.8268   -1.0046   -0.0108 C   0  0  0  0  0  0  0  0  0  0  0  0
   -0.5283   -0.7715   -0.0509 C   0  0  0  0  0  0  0  0  0  0  0  0
   -1.3544   -1.8452   -0.1158 O   0  0  0  0  0  0  0  0  0  0  0  0
   -2.6929   -1.5981    0.2790 C   0  0  0  0  0  0  0  0  0  0  0  0
   -3.2289   -0.3624   -0.4051 C   0  0  0  0  0  0  0  0  0  0  0  0
   -2.3829    0.7619   -0.0761 N   0  0  0  0  0  0  0  0  0  0  0  0
   -2.9127    2.0926   -0.2429 C   0  0  0  0  0  0  0  0  0  0  0  0
   -1.0369    0.5516   -0.0405 C   0  0  0  0  0  0  0  0  0  0  0  0
   -0.1048    1.5989    0.0028 C   0  0  0  0  0  0  0  0  0  0  0  0
    1.2556    1.3552    0.0419 C   0  0  0  0  0  0  0  0  0  0  0  0
    4.8854    0.5403    0.1279 H   0  0  0  0  0  0  0  0  0  0  0  0
    1.1758   -2.0298   -0.0195 H   0  0  0  0  0  0  0  0  0  0  0  0
   -3.2723   -2.4752   -0.0042 H   0  0  0  0  0  0  0  0  0  0  0  0
   -3.2912   -0.5246   -1.4884 H   0  0  0  0  0  0  0  0  0  0  0  0
   -3.9978    2.0497   -0.1849 H   0  0  0  0  0  0  0  0  0  0  0  0
   -2.5683    2.7562    0.5512 H   0  0  0  0  0  0  0  0  0  0  0  0
   -2.6391    2.5394   -1.2045 H   0  0  0  0  0  0  0  0  0  0  0  0
   -0.4459    2.6246   -0.0039 H   0  0  0  0  0  0  0  0  0  0  0  0
    1.9280    2.2011    0.0709 H   0  0  0  0  0  0  0  0  0  0  0  0
   -2.7518   -1.4803    1.3660 H   0  0  0  0  0  0  0  0  0  0  0  0
   -4.2399   -0.1687   -0.0451 H   0  0  0  0  0  0  0  0  0  0  0  0
  8  9  1  0
  8  7  1  0
  9 10  1  0
  7  6  1  0
 10 11  1  0
 10 12  1  0
  6 12  2  0
  6  5  1  0
 12 13  1  0
  5  4  2  0
 13 14  2  0
  4 14  1  0
  4  2  1  0
  1  2  2  0
  2  3  1  0
  3 15  1  0
  5 16  1  0
  8 17  1  0
  9 18  1  0
 11 19  1  0
 11 20  1  0
 11 21  1  0
 13 22  1  0
 14 23  1  0
  8 24  1  0
  9 25  1  0
M  END
