
     RDKit          3D

 16 15  0  0  0  0  0  0  0  0999 V2000
    3.1756    0.6214    0.0162 C   0  0  0  0  0  0  0  0  0  0  0  0
    2.0948   -0.4297    0.0322 C   0  0  0  0  0  0  0  0  0  0  0  0
    0.8223    0.2440   -0.0444 O   0  0  0  0  0  0  0  0  0  0  0  0
   -0.2611   -0.4898   -0.0012 C   0  0  0  0  0  0  0  0  0  0  0  0
   -1.5344    0.3693   -0.0905 C   0  0  0  0  0  0  0  0  0  0  0  0
   -2.8193   -0.3829    0.0097 C   0  0  0  0  0  0  0  0  0  0  0  0
   -1.4406    1.5595   -0.2326 O   0  0  0  0  0  0  0  0  0  0  0  0
   -0.3011   -1.6887    0.0944 O   0  0  0  0  0  0  0  0  0  0  0  0
    3.0950    1.2919    0.8713 H   0  0  0  0  0  0  0  0  0  0  0  0
    4.1469    0.1304    0.0666 H   0  0  0  0  0  0  0  0  0  0  0  0
    3.1483    1.2126   -0.8988 H   0  0  0  0  0  0  0  0  0  0  0  0
    2.1910   -1.1094   -0.8164 H   0  0  0  0  0  0  0  0  0  0  0  0
    2.1344   -1.0228    0.9474 H   0  0  0  0  0  0  0  0  0  0  0  0
   -2.8628   -0.9362    0.9492 H   0  0  0  0  0  0  0  0  0  0  0  0
   -3.6663    0.2958   -0.0481 H   0  0  0  0  0  0  0  0  0  0  0  0
   -2.8924   -1.1197   -0.7916 H   0  0  0  0  0  0  0  0  0  0  0  0
  7  5  2  0
  5  6  1  0
  5  4  1  0
  3  2  1  0
  3  4  1  0
  2  1  1  0
  4  8  2  0
  1  9  1  0
  1 10  1  0
  1 11  1  0
  2 12  1  0
  2 13  1  0
  6 14  1  0
  6 15  1  0
  6 16  1  0
M  END
