
     RDKit          3D

 26 27  0  0  0  0  0  0  0  0999 V2000
    0.1903    1.3860   -0.0021 C   0  0  0  0  0  0  0  0  0  0  0  0
    0.4640   -1.0051   -0.0096 C   0  0  0  0  0  0  0  0  0  0  0  0
   -0.9123   -1.1623   -0.0256 C   0  0  0  0  0  0  0  0  0  0  0  0
   -1.1807    1.2351   -0.0149 C   0  0  0  0  0  0  0  0  0  0  0  0
    1.0331    0.2689    0.0040 C   0  0  0  0  0  0  0  0  0  0  0  0
    2.4693    0.4518    0.0145 C   0  0  0  0  0  0  0  0  0  0  0  0
    3.2932    1.5286    0.0086 C   0  0  0  0  0  0  0  0  0  0  0  0
    4.5977    1.1015    0.0111 N   0  0  0  0  0  0  0  0  0  0  0  0
    4.5275   -0.1869    0.0188 C   0  0  0  0  0  0  0  0  0  0  0  0
    3.2701   -0.6448    0.0249 O   0  0  0  0  0  0  0  0  0  0  0  0
    5.6251   -1.1748    0.0134 C   0  0  0  0  0  0  0  0  0  0  0  0
   -1.7273   -0.0428   -0.0227 C   0  0  0  0  0  0  0  0  0  0  0  0
   -3.4884   -0.2301   -0.0303 S   0  0  1  0  0  0  0  0  0  0  0  0
   -4.0807    0.8792   -0.7503 O   0  0  0  0  0  0  0  0  0  0  0  0
   -3.7802   -1.6026   -0.3955 O   0  0  0  0  0  0  0  0  0  0  0  0
   -3.8475    0.0476    1.5725 N   0  0  0  0  0  0  0  0  0  0  0  0
    0.6027    2.3862    0.0002 H   0  0  0  0  0  0  0  0  0  0  0  0
    1.0883   -1.8874   -0.0121 H   0  0  0  0  0  0  0  0  0  0  0  0
   -1.3354   -2.1570   -0.0449 H   0  0  0  0  0  0  0  0  0  0  0  0
   -1.8166    2.1096   -0.0227 H   0  0  0  0  0  0  0  0  0  0  0  0
    3.0399    2.5759    0.0017 H   0  0  0  0  0  0  0  0  0  0  0  0
    5.5556   -1.8399    0.8736 H   0  0  0  0  0  0  0  0  0  0  0  0
    5.5957   -1.7908   -0.8858 H   0  0  0  0  0  0  0  0  0  0  0  0
    6.5795   -0.6585    0.0536 H   0  0  0  0  0  0  0  0  0  0  0  0
   -4.7430    0.5086    1.6748 H   0  0  0  0  0  0  0  0  0  0  0  0
   -3.7944   -0.7857    2.1441 H   0  0  0  0  0  0  0  0  0  0  0  0
  8  7  1  0
  8  9  2  0
  7  6  2  0
  9 11  1  0
  9 10  1  0
  6 10  1  0
  6  5  1  0
  5  2  1  0
  5  1  2  0
  2  3  2  0
  1  4  1  0
  3 12  1  0
  4 12  2  0
 12 13  1  0
 13 16  1  1
 15 13  2  0
 13 14  2  0
  1 17  1  0
  2 18  1  0
  3 19  1  0
  4 20  1  0
  7 21  1  0
 11 22  1  0
 11 23  1  0
 11 24  1  0
 16 25  1  0
 16 26  1  0
M  END
