
     RDKit          3D

 30 32  0  0  0  0  0  0  0  0999 V2000
    4.2244   -2.1395    0.3257 O   0  0  0  0  0  0  0  0  0  0  0  0
    3.6166   -0.9606    0.0913 C   0  0  0  0  0  0  0  0  0  0  0  0
    2.2381   -0.8954    0.1571 C   0  0  0  0  0  0  0  0  0  0  0  0
    4.3512    0.1959   -0.2164 C   0  0  0  0  0  0  0  0  0  0  0  0
    5.6870    0.0536   -0.2643 O   0  0  0  0  0  0  0  0  0  0  0  0
    3.6864    1.3896   -0.4518 C   0  0  0  0  0  0  0  0  0  0  0  0
    2.3051    1.4516   -0.3782 C   0  0  0  0  0  0  0  0  0  0  0  0
    1.5678    0.3122   -0.0676 C   0  0  0  0  0  0  0  0  0  0  0  0
    0.1103    0.3799    0.0212 C   0  0  0  0  0  0  0  0  0  0  0  0
   -0.4785   -0.8064   -0.1652 O   0  0  0  0  0  0  0  0  0  0  0  0
   -0.6070    1.5013    0.2732 C   0  0  0  0  0  0  0  0  0  0  0  0
   -2.0400    1.4686    0.3281 C   0  0  0  0  0  0  0  0  0  0  0  0
   -2.7320    2.4753    0.5438 O   0  0  0  0  0  0  0  0  0  0  0  0
   -2.6400    0.1600    0.1256 C   0  0  0  0  0  0  0  0  0  0  0  0
   -1.8221   -0.9453   -0.1111 C   0  0  0  0  0  0  0  0  0  0  0  0
   -2.3369   -2.2162   -0.3083 C   0  0  0  0  0  0  0  0  0  0  0  0
   -3.7133   -2.3669   -0.2635 C   0  0  0  0  0  0  0  0  0  0  0  0
   -4.5667   -1.2960   -0.0289 C   0  0  0  0  0  0  0  0  0  0  0  0
   -4.0398   -0.0263    0.1688 C   0  0  0  0  0  0  0  0  0  0  0  0
   -4.8555    0.9995    0.3964 O   0  0  0  0  0  0  0  0  0  0  0  0
    5.1822   -2.0516    0.2548 H   0  0  0  0  0  0  0  0  0  0  0  0
    1.6960   -1.7989    0.4048 H   0  0  0  0  0  0  0  0  0  0  0  0
    6.1198    0.8830   -0.4973 H   0  0  0  0  0  0  0  0  0  0  0  0
    4.2512    2.2788   -0.7053 H   0  0  0  0  0  0  0  0  0  0  0  0
    1.8134    2.3907   -0.5915 H   0  0  0  0  0  0  0  0  0  0  0  0
   -0.0989    2.4369    0.4574 H   0  0  0  0  0  0  0  0  0  0  0  0
   -1.6812   -3.0559   -0.4927 H   0  0  0  0  0  0  0  0  0  0  0  0
   -4.1377   -3.3502   -0.4175 H   0  0  0  0  0  0  0  0  0  0  0  0
   -5.6384   -1.4420    0.0007 H   0  0  0  0  0  0  0  0  0  0  0  0
   -4.2954    1.8053    0.5066 H   0  0  0  0  0  0  0  0  0  0  0  0
 17 16  2  0
 17 18  1  0
 16 15  1  0
 18 19  2  0
 15 10  1  0
 15 14  2  0
 10  9  1  0
  7  6  2  0
  7  8  1  0
  6  4  1  0
 19 14  1  0
 19 20  1  0
 14 12  1  0
  9  8  1  0
  9 11  2  0
  8  3  2  0
  4  5  1  0
  4  2  2  0
 12 11  1  0
 12 13  2  0
  3  2  1  0
  2  1  1  0
  1 21  1  0
  3 22  1  0
  5 23  1  0
  6 24  1  0
  7 25  1  0
 11 26  1  0
 16 27  1  0
 17 28  1  0
 18 29  1  0
 20 30  1  0
M  END
