
     RDKit          3D

 69 72  0  0  0  0  0  0  0  0999 V2000
    2.3191    2.3014   -0.1241 C   0  0  0  0  0  0  0  0  0  0  0  0
    1.9548    3.6329    1.7648 C   0  0  0  0  0  0  0  0  0  0  0  0
    4.6063   -2.6086    0.3455 C   0  0  0  0  0  0  0  0  0  0  0  0
    4.7015   -2.1313   -0.9842 C   0  0  0  0  0  0  0  0  0  0  0  0
    3.5448   -1.5077   -1.7053 C   0  0  0  0  0  0  0  0  0  0  0  0
    3.1084   -0.1792   -1.1280 C   0  0  0  0  0  0  0  0  0  0  0  0
    4.0644    0.8002   -0.8464 C   0  0  0  0  0  0  0  0  0  0  0  0
    3.6819    2.0353   -0.3488 C   0  0  0  0  0  0  0  0  0  0  0  0
    4.5249    3.0387   -0.0597 O   0  0  0  0  0  0  0  0  0  0  0  0
    5.9141    2.8053   -0.1884 C   0  0  0  0  0  0  0  0  0  0  0  0
    1.9620    3.5244    0.3453 O   0  0  0  0  0  0  0  0  0  0  0  0
    1.3585    1.3293   -0.3925 C   0  0  0  0  0  0  0  0  0  0  0  0
    1.7738    0.0895   -0.9024 C   0  0  0  0  0  0  0  0  0  0  0  0
    5.9387   -2.2912   -1.5625 C   0  0  0  0  0  0  0  0  0  0  0  0
    6.9951   -2.8408   -0.9673 N   0  0  0  0  0  0  0  0  0  0  0  0
    6.7904   -3.2504    0.2846 C   0  0  0  0  0  0  0  0  0  0  0  0
    7.8479   -3.7784    0.9441 N   0  0  0  0  0  0  0  0  0  0  0  0
    5.6457   -3.1620    0.9617 N   0  0  0  0  0  0  0  0  0  0  0  0
   -0.0512    1.6417   -0.1716 C   0  0  0  0  0  0  0  0  0  0  0  0
   -2.4366    1.2131    0.0466 C   0  0  0  0  0  0  0  0  0  0  0  0
   -3.4256    0.2657   -0.0383 N   0  0  0  0  0  0  0  0  0  0  0  0
   -3.0683   -1.0239   -0.2867 N   0  0  0  0  0  0  0  0  0  0  0  0
   -3.9495   -1.7852   -0.8105 C   0  0  0  0  0  0  0  0  0  0  0  0
   -5.2594   -1.3354   -1.2435 C   0  0  0  0  0  0  0  0  0  0  0  0
   -6.0433   -2.0733   -2.1277 C   0  0  0  0  0  0  0  0  0  0  0  0
   -7.2395   -1.5461   -2.5867 C   0  0  0  0  0  0  0  0  0  0  0  0
   -7.6485   -0.2842   -2.1673 C   0  0  0  0  0  0  0  0  0  0  0  0
   -6.8681    0.4511   -1.2834 C   0  0  0  0  0  0  0  0  0  0  0  0
   -5.6760   -0.0765   -0.8142 C   0  0  0  0  0  0  0  0  0  0  0  0
   -4.8272    0.6009    0.2244 C   0  0  1  0  0  0  0  0  0  0  0  0
   -5.2617    0.1421    1.6243 C   0  0  0  0  0  0  0  0  0  0  0  0
   -1.0475    0.7491   -0.1498 C   0  0  0  0  0  0  0  0  0  0  0  0
   -4.5561    0.8068    2.8067 C   0  0  1  0  0  0  0  0  0  0  0  0
   -4.9043    2.2858    2.9319 C   0  0  0  0  0  0  0  0  0  0  0  0
   -4.9179    0.0661    4.0919 C   0  0  0  0  0  0  0  0  0  0  0  0
    1.7054    4.6640    2.0055 H   0  0  0  0  0  0  0  0  0  0  0  0
    1.2036    2.9750    2.2102 H   0  0  0  0  0  0  0  0  0  0  0  0
    2.9302    3.3948    2.1944 H   0  0  0  0  0  0  0  0  0  0  0  0
    2.7009   -1.9542    0.7249 H   0  0  0  0  0  0  0  0  0  0  0  0
    3.4644   -2.7733    2.0100 H   0  0  0  0  0  0  0  0  0  0  0  0
    3.8284   -1.3620   -2.7518 H   0  0  0  0  0  0  0  0  0  0  0  0
    2.6867   -2.1865   -1.7210 H   0  0  0  0  0  0  0  0  0  0  0  0
    5.1082    0.5752   -1.0246 H   0  0  0  0  0  0  0  0  0  0  0  0
    6.4106    3.7165    0.1352 H   0  0  0  0  0  0  0  0  0  0  0  0
    6.2476    1.9783    0.4435 H   0  0  0  0  0  0  0  0  0  0  0  0
    6.1986    2.5975   -1.2230 H   0  0  0  0  0  0  0  0  0  0  0  0
    1.0354   -0.6672   -1.1395 H   0  0  0  0  0  0  0  0  0  0  0  0
    6.0909   -1.9525   -2.5842 H   0  0  0  0  0  0  0  0  0  0  0  0
    8.6495   -4.0578    0.4060 H   0  0  0  0  0  0  0  0  0  0  0  0
    7.6734   -4.2926    1.7898 H   0  0  0  0  0  0  0  0  0  0  0  0
   -0.2944    2.6873   -0.0224 H   0  0  0  0  0  0  0  0  0  0  0  0
   -3.6394   -2.8067   -1.0000 H   0  0  0  0  0  0  0  0  0  0  0  0
   -5.7100   -3.0482   -2.4623 H   0  0  0  0  0  0  0  0  0  0  0  0
   -7.8515   -2.1124   -3.2758 H   0  0  0  0  0  0  0  0  0  0  0  0
   -8.5809    0.1278   -2.5301 H   0  0  0  0  0  0  0  0  0  0  0  0
   -7.1960    1.4288   -0.9513 H   0  0  0  0  0  0  0  0  0  0  0  0
   -4.9224    1.6819    0.1354 H   0  0  0  0  0  0  0  0  0  0  0  0
   -6.3389    0.3240    1.7024 H   0  0  0  0  0  0  0  0  0  0  0  0
   -5.1360   -0.9434    1.6916 H   0  0  0  0  0  0  0  0  0  0  0  0
   -0.8675   -0.3075   -0.2784 H   0  0  0  0  0  0  0  0  0  0  0  0
   -3.4734    0.7110    2.6696 H   0  0  0  0  0  0  0  0  0  0  0  0
   -4.3785    2.7357    3.7759 H   0  0  0  0  0  0  0  0  0  0  0  0
   -4.6340    2.8513    2.0411 H   0  0  0  0  0  0  0  0  0  0  0  0
   -5.9754    2.4162    3.1038 H   0  0  0  0  0  0  0  0  0  0  0  0
   -4.4159    0.5073    4.9545 H   0  0  0  0  0  0  0  0  0  0  0  0
   -5.9940    0.1083    4.2779 H   0  0  0  0  0  0  0  0  0  0  0  0
   -4.6320   -0.9858    4.0399 H   0  0  0  0  0  0  0  0  0  0  0  0
    3.4459   -2.5577    1.0273 N   0  0  0  0  0  0  0  0  0  0  0  0
   -2.7135    2.3846    0.2555 O   0  0  0  0  0  0  0  0  0  0  0  0
 27 28  2  0
 27 26  1  0
 28 29  1  0
 26 25  2  0
 69 20  2  0
 29 30  1  0
 29 24  2  0
 11  2  1  0
 11  1  1  0
 30 21  1  0
 30 31  1  0
 33 34  1  0
 33 35  1  0
 33 31  1  0
 20 21  1  0
 20 32  1  0
 25 24  1  0
 19 32  2  0
 19 12  1  0
 21 22  1  0
 24 23  1  0
  1 12  2  0
  1  8  1  0
  9  8  1  0
  9 10  1  0
 12 13  1  0
 22 23  2  0
  8  7  2  0
 15 14  2  0
 15 16  1  0
 13  6  2  0
 14  4  1  0
  7  6  1  0
 17 16  1  0
  6  5  1  0
 16 18  2  0
  4  5  1  0
  4  3  2  0
 18  3  1  0
  3 68  1  0
  2 36  1  0
  2 37  1  0
  2 38  1  0
 68 39  1  0
 68 40  1  0
  5 41  1  0
  5 42  1  0
  7 43  1  0
 10 44  1  0
 10 45  1  0
 10 46  1  0
 13 47  1  0
 14 48  1  0
 17 49  1  0
 17 50  1  0
 19 51  1  0
 23 52  1  0
 25 53  1  0
 26 54  1  0
 27 55  1  0
 28 56  1  0
 30 57  1  1
 31 58  1  0
 31 59  1  0
 32 60  1  0
 33 61  1  6
 34 62  1  0
 34 63  1  0
 34 64  1  0
 35 65  1  0
 35 66  1  0
 35 67  1  0
M  END
