
     RDKit          3D

 56 58  0  0  0  0  0  0  0  0999 V2000
   -3.2110   -1.4020    0.2138 C   0  0  2  0  0  0  0  0  0  0  0  0
   -0.2661   -1.4588    0.1876 C   0  0  1  0  0  0  0  0  0  0  0  0
    2.1054   -0.8738   -0.0922 C   0  0  0  0  0  0  0  0  0  0  0  0
    6.7221   -0.4327   -1.6339 C   0  0  0  0  0  0  0  0  0  0  0  0
    7.0286    0.5849   -0.7476 C   0  0  0  0  0  0  0  0  0  0  0  0
    4.7613    0.6165    0.0407 C   0  0  0  0  0  0  0  0  0  0  0  0
  -11.3865    1.9619   -0.0867 C   0  0  0  0  0  0  0  0  0  0  0  0
  -10.1670    1.2346    0.1743 N   0  0  0  0  0  0  0  0  0  0  0  0
   -8.8875    2.5958   -1.0720 O   0  0  0  0  0  0  0  0  0  0  0  0
   -7.7994    0.7881    0.0102 C   0  0  0  0  0  0  0  0  0  0  0  0
   -6.6657    0.8842   -0.7897 C   0  0  0  0  0  0  0  0  0  0  0  0
   -5.5202    0.1529   -0.5204 C   0  0  0  0  0  0  0  0  0  0  0  0
   -5.4847   -0.6987    0.5840 C   0  0  0  0  0  0  0  0  0  0  0  0
   -4.4417   -1.4661    0.9332 O   0  0  0  0  0  0  0  0  0  0  0  0
   -2.4484   -2.6760    0.5378 C   0  0  0  0  0  0  0  0  0  0  0  0
   -1.0923   -2.6931   -0.1596 C   0  0  0  0  0  0  0  0  0  0  0  0
    0.9928   -1.5102   -0.5271 N   0  0  0  0  0  0  0  0  0  0  0  0
    2.1760   -0.3001    0.9841 O   0  0  0  0  0  0  0  0  0  0  0  0
    3.1591   -0.9581   -0.9757 N   0  0  0  0  0  0  0  0  0  0  0  0
    4.4332   -0.4209   -0.8364 C   0  0  0  0  0  0  0  0  0  0  0  0
    5.4326   -0.9298   -1.6723 C   0  0  0  0  0  0  0  0  0  0  0  0
    8.8455    0.7398    1.3824 F   0  0  0  0  0  0  0  0  0  0  0  0
    9.4119   -0.6970   -0.1012 F   0  0  0  0  0  0  0  0  0  0  0  0
   10.3505    1.2437   -0.0747 F   0  0  0  0  0  0  0  0  0  0  0  0
    6.0564    1.1110    0.0820 C   0  0  0  0  0  0  0  0  0  0  0  0
   -1.0492   -0.1808   -0.1127 C   0  0  0  0  0  0  0  0  0  0  0  0
   -2.3986   -0.1731    0.5999 C   0  0  0  0  0  0  0  0  0  0  0  0
   -6.6118   -0.7885    1.4062 C   0  0  0  0  0  0  0  0  0  0  0  0
   -7.7476   -0.0585    1.1197 C   0  0  0  0  0  0  0  0  0  0  0  0
   -3.4140   -1.3882   -0.8650 H   0  0  0  0  0  0  0  0  0  0  0  0
   -0.0417   -1.4861    1.2572 H   0  0  0  0  0  0  0  0  0  0  0  0
    7.4730   -0.8344   -2.3012 H   0  0  0  0  0  0  0  0  0  0  0  0
    4.0207    1.0525    0.6899 H   0  0  0  0  0  0  0  0  0  0  0  0
  -11.2994    3.0048    0.2173 H   0  0  0  0  0  0  0  0  0  0  0  0
  -11.6616    1.9363   -1.1426 H   0  0  0  0  0  0  0  0  0  0  0  0
  -12.1873    1.5048    0.4874 H   0  0  0  0  0  0  0  0  0  0  0  0
  -10.2403    0.3640    0.6715 H   0  0  0  0  0  0  0  0  0  0  0  0
   -6.6695    1.5418   -1.6488 H   0  0  0  0  0  0  0  0  0  0  0  0
   -4.6715    0.2636   -1.1805 H   0  0  0  0  0  0  0  0  0  0  0  0
   -2.3076   -2.7490    1.6209 H   0  0  0  0  0  0  0  0  0  0  0  0
   -3.0299   -3.5469    0.2285 H   0  0  0  0  0  0  0  0  0  0  0  0
   -1.2395   -2.7409   -1.2448 H   0  0  0  0  0  0  0  0  0  0  0  0
   -0.5476   -3.5956    0.1241 H   0  0  0  0  0  0  0  0  0  0  0  0
    0.9525   -1.8199   -1.4860 H   0  0  0  0  0  0  0  0  0  0  0  0
    3.0460   -1.5798   -1.7623 H   0  0  0  0  0  0  0  0  0  0  0  0
    5.1993   -1.7289   -2.3655 H   0  0  0  0  0  0  0  0  0  0  0  0
    6.2876    1.9276    0.7535 H   0  0  0  0  0  0  0  0  0  0  0  0
   -0.4679    0.6904    0.1945 H   0  0  0  0  0  0  0  0  0  0  0  0
   -1.1987   -0.0968   -1.1945 H   0  0  0  0  0  0  0  0  0  0  0  0
   -2.9335    0.7478    0.3582 H   0  0  0  0  0  0  0  0  0  0  0  0
   -2.2467   -0.1761    1.6841 H   0  0  0  0  0  0  0  0  0  0  0  0
   -6.5865   -1.4344    2.2747 H   0  0  0  0  0  0  0  0  0  0  0  0
   -8.5877   -0.1441    1.7975 H   0  0  0  0  0  0  0  0  0  0  0  0
    8.3115    1.1281   -0.7442 O   0  0  0  0  0  0  0  0  0  0  0  0
   -8.9885    1.6154   -0.3418 C   0  0  0  0  0  0  0  0  0  0  0  0
    9.2040    0.6058    0.1032 C   0  0  2  0  0  0  0  0  0  0  0  0
  7  8  1  0
  8 55  1  0
  9 55  2  0
 55 10  1  0
 10 11  2  0
 10 29  1  0
 11 12  1  0
 29 28  2  0
 12 13  2  0
 28 13  1  0
 13 14  1  0
 14  1  1  0
  1 15  1  0
  1 27  1  0
 15 16  1  0
 27 26  1  0
 16  2  1  0
 26  2  1  0
  2 17  1  0
 17  3  1  0
  3 18  2  0
  3 19  1  0
 19 20  1  0
  6 20  2  0
  6 25  1  0
 20 21  1  0
 25  5  2  0
 56 22  1  1
 24 56  1  0
 21  4  2  0
 56 54  1  0
 56 23  1  0
  5  4  1  0
  5 54  1  0
  1 30  1  6
  2 31  1  1
  4 32  1  0
  6 33  1  0
  7 34  1  0
  7 35  1  0
  7 36  1  0
  8 37  1  0
 11 38  1  0
 12 39  1  0
 15 40  1  0
 15 41  1  0
 16 42  1  0
 16 43  1  0
 17 44  1  0
 19 45  1  0
 21 46  1  0
 25 47  1  0
 26 48  1  0
 26 49  1  0
 27 50  1  0
 27 51  1  0
 28 52  1  0
 29 53  1  0
M  END
