
     RDKit          3D

 22 23  0  0  0  0  0  0  0  0999 V2000
    1.9013   -0.6897   -0.0366 N   0  0  0  0  0  0  0  0  0  0  0  0
    0.6929   -1.3949   -0.0889 C   0  0  0  0  0  0  0  0  0  0  0  0
    0.7311   -2.6257   -0.1270 O   0  0  0  0  0  0  0  0  0  0  0  0
   -0.4608   -0.5803   -0.0935 C   0  0  0  0  0  0  0  0  0  0  0  0
   -1.8301   -1.1969   -0.1190 C   0  0  0  0  0  0  0  0  0  0  0  0
   -2.8699   -0.2138    0.4090 C   0  0  0  0  0  0  0  0  0  0  0  0
   -2.7042    1.1450   -0.2521 C   0  0  0  0  0  0  0  0  0  0  0  0
   -1.3549    1.6246   -0.0592 N   0  0  0  0  0  0  0  0  0  0  0  0
   -0.2928    0.7993   -0.0547 C   0  0  0  0  0  0  0  0  0  0  0  0
    0.9120    1.4194    0.0044 N   0  0  0  0  0  0  0  0  0  0  0  0
    1.9728    0.6591    0.0081 C   0  0  0  0  0  0  0  0  0  0  0  0
    3.1953    1.2164    0.0168 N   0  0  0  0  0  0  0  0  0  0  0  0
    2.7503   -1.2383   -0.0478 H   0  0  0  0  0  0  0  0  0  0  0  0
   -2.1053   -1.5054   -1.1338 H   0  0  0  0  0  0  0  0  0  0  0  0
   -1.8426   -2.1066    0.4855 H   0  0  0  0  0  0  0  0  0  0  0  0
   -3.8783   -0.5846    0.2210 H   0  0  0  0  0  0  0  0  0  0  0  0
   -2.7617   -0.1020    1.4909 H   0  0  0  0  0  0  0  0  0  0  0  0
   -2.9436    1.0687   -1.3195 H   0  0  0  0  0  0  0  0  0  0  0  0
   -3.3911    1.8726    0.1801 H   0  0  0  0  0  0  0  0  0  0  0  0
    4.0058    0.6684    0.2502 H   0  0  0  0  0  0  0  0  0  0  0  0
    3.2541    2.2022    0.2065 H   0  0  0  0  0  0  0  0  0  0  0  0
   -1.1709    2.6123   -0.1162 H   0  0  0  0  0  0  0  0  0  0  0  0
  3  2  2  0
  1  2  1  0
  1 11  1  0
  2  4  1  0
 12 11  1  0
 11 10  2  0
  4  5  1  0
  4  9  2  0
  5  6  1  0
 10  9  1  0
  9  8  1  0
  6  7  1  0
  8  7  1  0
  1 13  1  0
  5 14  1  0
  5 15  1  0
  6 16  1  0
  6 17  1  0
  7 18  1  0
  7 19  1  0
 12 20  1  0
 12 21  1  0
  8 22  1  0
M  END
