
     RDKit          3D

 57 60  0  0  0  0  0  0  0  0999 V2000
    4.8559    3.2073   -0.4354 C   0  0  0  0  0  0  0  0  0  0  0  0
    5.4989    2.0470   -1.1951 C   0  0  0  0  0  0  0  0  0  0  0  0
    5.5539    0.8041   -0.3592 C   0  0  0  0  0  0  0  0  0  0  0  0
    6.6984    0.5399    0.2579 N   0  0  0  0  0  0  0  0  0  0  0  0
    6.7283   -0.5539    1.0290 C   0  0  0  0  0  0  0  0  0  0  0  0
    7.8802   -0.8042    1.6779 N   0  0  0  0  0  0  0  0  0  0  0  0
    5.7240   -1.4039    1.2334 N   0  0  0  0  0  0  0  0  0  0  0  0
    4.5754   -1.1425    0.6198 C   0  0  0  0  0  0  0  0  0  0  0  0
    3.5563   -1.9850    0.8190 N   0  0  0  0  0  0  0  0  0  0  0  0
    4.4294   -0.0074   -0.2217 C   0  0  0  0  0  0  0  0  0  0  0  0
    3.1932    0.2611   -0.8585 C   0  0  0  0  0  0  0  0  0  0  0  0
    2.1149    0.4485   -1.3691 C   0  0  0  0  0  0  0  0  0  0  0  0
    0.8091    0.6810   -1.9824 C   0  0  1  0  0  0  0  0  0  0  0  0
    0.7852    0.2401   -3.4515 C   0  0  0  0  0  0  0  0  0  0  0  0
   -0.2803   -0.0013   -1.1774 C   0  0  0  0  0  0  0  0  0  0  0  0
   -1.3566    0.7376   -0.6985 C   0  0  0  0  0  0  0  0  0  0  0  0
   -0.2229   -1.3649   -0.9378 C   0  0  0  0  0  0  0  0  0  0  0  0
   -1.2355   -1.9985   -0.2176 C   0  0  0  0  0  0  0  0  0  0  0  0
   -1.0896   -3.3223   -0.0294 O   0  0  0  0  0  0  0  0  0  0  0  0
   -2.3106   -1.2563    0.2642 C   0  0  0  0  0  0  0  0  0  0  0  0
   -2.3711    0.1152    0.0206 C   0  0  0  0  0  0  0  0  0  0  0  0
   -3.4900    0.9191    0.5612 C   0  0  0  0  0  0  0  0  0  0  0  0
   -4.8442    0.6404    0.2197 C   0  0  0  0  0  0  0  0  0  0  0  0
   -5.2466   -0.3655   -0.6890 C   0  0  0  0  0  0  0  0  0  0  0  0
   -6.5754   -0.5441   -0.9531 C   0  0  0  0  0  0  0  0  0  0  0  0
   -7.5607    0.1922   -0.3923 N   0  0  0  0  0  0  0  0  0  0  0  0
   -7.2115    1.1367    0.4364 C   0  0  0  0  0  0  0  0  0  0  0  0
   -5.8727    1.4298    0.7898 C   0  0  0  0  0  0  0  0  0  0  0  0
   -5.5589    2.4851    1.6719 C   0  0  0  0  0  0  0  0  0  0  0  0
   -4.2523    2.7522    1.9694 C   0  0  0  0  0  0  0  0  0  0  0  0
   -3.2248    1.9669    1.4108 C   0  0  0  0  0  0  0  0  0  0  0  0
   -2.1003   -4.0242    0.6682 C   0  0  0  0  0  0  0  0  0  0  0  0
    4.8293    4.1016   -1.0579 H   0  0  0  0  0  0  0  0  0  0  0  0
    3.8315    2.9724   -0.1460 H   0  0  0  0  0  0  0  0  0  0  0  0
    5.4166    3.4449    0.4691 H   0  0  0  0  0  0  0  0  0  0  0  0
    4.9321    1.8517   -2.1077 H   0  0  0  0  0  0  0  0  0  0  0  0
    6.5142    2.3157   -1.4889 H   0  0  0  0  0  0  0  0  0  0  0  0
    8.7031   -0.2846    1.4285 H   0  0  0  0  0  0  0  0  0  0  0  0
    8.0080   -1.6923    2.1302 H   0  0  0  0  0  0  0  0  0  0  0  0
    3.6742   -2.7881    1.4115 H   0  0  0  0  0  0  0  0  0  0  0  0
    2.6633   -1.8390    0.3819 H   0  0  0  0  0  0  0  0  0  0  0  0
    0.6186    1.7583   -1.9548 H   0  0  0  0  0  0  0  0  0  0  0  0
   -0.1899    0.4543   -3.8889 H   0  0  0  0  0  0  0  0  0  0  0  0
    1.5420    0.7755   -4.0239 H   0  0  0  0  0  0  0  0  0  0  0  0
    0.9783   -0.8280   -3.5448 H   0  0  0  0  0  0  0  0  0  0  0  0
   -1.4110    1.8018   -0.8945 H   0  0  0  0  0  0  0  0  0  0  0  0
    0.6084   -1.9549   -1.3097 H   0  0  0  0  0  0  0  0  0  0  0  0
   -3.0959   -1.7227    0.8442 H   0  0  0  0  0  0  0  0  0  0  0  0
   -4.5183   -0.9903   -1.1867 H   0  0  0  0  0  0  0  0  0  0  0  0
   -6.8936   -1.3107   -1.6498 H   0  0  0  0  0  0  0  0  0  0  0  0
   -8.0073    1.7342    0.8737 H   0  0  0  0  0  0  0  0  0  0  0  0
   -6.3594    3.0777    2.0973 H   0  0  0  0  0  0  0  0  0  0  0  0
   -3.9968    3.5627    2.6387 H   0  0  0  0  0  0  0  0  0  0  0  0
   -2.1980    2.1852    1.6764 H   0  0  0  0  0  0  0  0  0  0  0  0
   -3.0687   -3.9506    0.1662 H   0  0  0  0  0  0  0  0  0  0  0  0
   -1.7942   -5.0669    0.6867 H   0  0  0  0  0  0  0  0  0  0  0  0
   -2.2070   -3.6706    1.6969 H   0  0  0  0  0  0  0  0  0  0  0  0
  6  5  1  0
  4  5  1  0
  4  3  2  0
  5  7  2  0
  1  2  1  0
  2  3  1  0
  3 10  1  0
  7  8  1  0
  8 10  2  0
  8  9  1  0
 10 11  1  0
 11 12  3  0
 12 13  1  0
 30 29  2  0
 30 31  1  0
 29 28  1  0
 31 22  2  0
 28 27  2  0
 28 23  1  0
 22 21  1  0
 22 23  1  0
 27 26  1  0
 20 21  1  0
 20 18  2  0
 32 19  1  0
 21 16  2  0
 16 15  1  0
 23 24  2  0
 18 19  1  0
 18 17  1  0
 15 17  2  0
 15 13  1  0
 13 14  1  0
 26 25  2  0
 24 25  1  0
  1 33  1  0
  1 34  1  0
  1 35  1  0
  2 36  1  0
  2 37  1  0
  6 38  1  0
  6 39  1  0
  9 40  1  0
  9 41  1  0
 13 42  1  6
 14 43  1  0
 14 44  1  0
 14 45  1  0
 16 46  1  0
 17 47  1  0
 20 48  1  0
 24 49  1  0
 25 50  1  0
 27 51  1  0
 29 52  1  0
 30 53  1  0
 31 54  1  0
 32 55  1  0
 32 56  1  0
 32 57  1  0
M  END
