
     RDKit          3D

 12 12  0  0  0  0  0  0  0  0999 V2000
    1.2551    0.0057    1.1002 N   0  0  0  0  0  0  0  0  0  0  0  0
   -0.0011    0.0114    1.6382 C   0  0  0  0  0  0  0  0  0  0  0  0
   -1.0062    0.0159    0.6967 N   0  0  0  0  0  0  0  0  0  0  0  0
   -0.8845    0.0151   -0.6803 C   0  0  0  0  0  0  0  0  0  0  0  0
    0.4952    0.0094   -1.1182 C   0  0  0  0  0  0  0  0  0  0  0  0
    1.5032    0.0050   -0.2403 C   0  0  0  0  0  0  0  0  0  0  0  0
   -0.2176    0.0123    2.8310 O   0  0  0  0  0  0  0  0  0  0  0  0
   -1.8500    0.0190   -1.4148 O   0  0  0  0  0  0  0  0  0  0  0  0
    0.7095    0.0086   -2.4363 F   0  0  0  0  0  0  0  0  0  0  0  0
    2.0344    0.0025    1.7415 H   0  0  0  0  0  0  0  0  0  0  0  0
   -1.9507    0.0201    1.0640 H   0  0  0  0  0  0  0  0  0  0  0  0
    2.5414    0.0007   -0.5388 H   0  0  0  0  0  0  0  0  0  0  0  0
  1  2  1  0
  1  6  1  0
  1 10  1  0
  2  3  1  0
  2  7  2  0
  3  4  1  0
  3 11  1  0
  4  5  1  0
  4  8  2  0
  5  6  2  0
  5  9  1  0
  6 12  1  0
M  END
