
     RDKit          3D

 23 22  0  0  0  0  0  0  0  0999 V2000
   -2.7388   -1.8509    3.3934 N   0  0  0  0  0  0  0  0  0  0  0  0
   -2.4844   -0.5020    2.9239 C   0  0  2  0  0  0  0  0  0  0  0  0
   -2.1206    0.3339    4.1396 C   0  0  0  0  0  0  0  0  0  0  0  0
   -2.9156    0.6288    4.9975 O   0  0  0  0  0  0  0  0  0  0  0  0
   -3.6708    0.1229    2.2051 C   0  0  0  0  0  0  0  0  0  0  0  0
   -3.3040    1.4587    1.8526 O   0  0  0  0  0  0  0  0  0  0  0  0
   -5.2740    1.7649    0.1932 O   0  0  0  0  0  0  0  0  0  0  0  0
   -4.3820    2.4348    1.1679 P   0  0  2  0  0  0  0  0  0  0  0  0
   -3.3713    3.6642    0.7153 N   0  0  0  0  0  0  0  0  0  0  0  0
   -5.2783    3.0525    2.3401 O   0  0  0  0  0  0  0  0  0  0  0  0
   -4.7080    3.6705    3.4945 C   0  0  0  0  0  0  0  0  0  0  0  0
   -0.8422    0.6701    4.1750 O   0  0  0  0  0  0  0  0  0  0  0  0
   -2.7964   -2.4849    2.6076 H   0  0  0  0  0  0  0  0  0  0  0  0
   -4.5481    0.1191    2.8590 H   0  0  0  0  0  0  0  0  0  0  0  0
   -3.9053   -0.4603    1.3120 H   0  0  0  0  0  0  0  0  0  0  0  0
   -3.8326    4.4833    0.3421 H   0  0  0  0  0  0  0  0  0  0  0  0
   -2.5904    3.4037    0.1278 H   0  0  0  0  0  0  0  0  0  0  0  0
   -3.9823    4.4371    3.2239 H   0  0  0  0  0  0  0  0  0  0  0  0
   -4.2268    2.9330    4.1366 H   0  0  0  0  0  0  0  0  0  0  0  0
   -5.5249    4.1335    4.0421 H   0  0  0  0  0  0  0  0  0  0  0  0
   -0.6521    1.1746    4.9814 H   0  0  0  0  0  0  0  0  0  0  0  0
   -1.6343   -0.5366    2.2405 H   0  0  0  0  0  0  0  0  0  0  0  0
   -3.6263   -1.8986    3.8789 H   0  0  0  0  0  0  0  0  0  0  0  0
  2 22  1  6
  1 23  1  0
  1  2  1  0
  2  3  1  0
  3  4  2  0
  2  5  1  0
  5  6  1  0
  8  6  1  1
  7  8  2  0
  8  9  1  0
  8 10  1  0
 10 11  1  0
  3 12  1  0
  1 13  1  0
  5 14  1  0
  5 15  1  0
  9 16  1  0
  9 17  1  0
 11 18  1  0
 11 19  1  0
 11 20  1  0
 12 21  1  0
M  END
