
     RDKit          3D

 25 24  0  0  0  0  0  0  0  0999 V2000
   -4.7420   -0.1535    0.3621 O   0  0  0  0  0  0  0  0  0  0  0  0
   -3.6279    0.6949    0.2295 C   0  0  0  0  0  0  0  0  0  0  0  0
   -2.3778   -0.1506    0.0442 C   0  0  1  0  0  0  0  0  0  0  0  0
   -2.4522   -0.9770   -1.0939 O   0  0  0  0  0  0  0  0  0  0  0  0
   -1.1534    0.7504    0.0227 C   0  0  0  0  0  0  0  0  0  0  0  0
    0.0046   -0.0378   -0.0494 O   0  0  0  0  0  0  0  0  0  0  0  0
    1.1778    0.7307   -0.0535 C   0  0  0  0  0  0  0  0  0  0  0  0
    2.3866   -0.1901   -0.1127 C   0  0  2  0  0  0  0  0  0  0  0  0
    2.4192   -1.0976    0.9635 O   0  0  0  0  0  0  0  0  0  0  0  0
    3.6549    0.6434   -0.2080 C   0  0  0  0  0  0  0  0  0  0  0  0
    4.7562   -0.2133   -0.3862 O   0  0  0  0  0  0  0  0  0  0  0  0
   -5.5253    0.3971    0.4464 H   0  0  0  0  0  0  0  0  0  0  0  0
   -3.7339    1.3727   -0.6310 H   0  0  0  0  0  0  0  0  0  0  0  0
   -3.4953    1.3306    1.1143 H   0  0  0  0  0  0  0  0  0  0  0  0
   -2.2899   -0.8314    0.8978 H   0  0  0  0  0  0  0  0  0  0  0  0
   -2.5585   -0.4186   -1.8721 H   0  0  0  0  0  0  0  0  0  0  0  0
   -1.2127    1.4398   -0.8351 H   0  0  0  0  0  0  0  0  0  0  0  0
   -1.1451    1.3747    0.9279 H   0  0  0  0  0  0  0  0  0  0  0  0
    1.1969    1.4117   -0.9165 H   0  0  0  0  0  0  0  0  0  0  0  0
    1.2345    1.3622    0.8481 H   0  0  0  0  0  0  0  0  0  0  0  0
    2.3086   -0.8061   -1.0155 H   0  0  0  0  0  0  0  0  0  0  0  0
    2.4940   -0.5980    1.7841 H   0  0  0  0  0  0  0  0  0  0  0  0
    3.5505    1.3480   -1.0430 H   0  0  0  0  0  0  0  0  0  0  0  0
    3.7551    1.2489    0.7055 H   0  0  0  0  0  0  0  0  0  0  0  0
    5.5511    0.3261   -0.4138 H   0  0  0  0  0  0  0  0  0  0  0  0
 11 10  1  0
 10  8  1  0
  7  6  1  0
  7  8  1  0
  6  5  1  0
  4  3  1  0
  8  9  1  0
  5  3  1  0
  3  2  1  0
  2  1  1  0
  1 12  1  0
  2 13  1  0
  2 14  1  0
  3 15  1  1
  4 16  1  0
  5 17  1  0
  5 18  1  0
  7 19  1  0
  7 20  1  0
  8 21  1  6
  9 22  1  0
 10 23  1  0
 10 24  1  0
 11 25  1  0
M  END
