
     RDKit          3D

 25 26  0  0  0  0  0  0  0  0999 V2000
    0.1141   -2.7283    0.0364 C   0  0  0  0  0  0  0  0  0  0  0  0
    1.2912   -2.0087    0.1140 C   0  0  0  0  0  0  0  0  0  0  0  0
    1.2756   -0.6195    0.1148 C   0  0  0  0  0  0  0  0  0  0  0  0
    0.0780    0.0734    0.0327 C   0  0  0  0  0  0  0  0  0  0  0  0
   -1.1139   -0.6522   -0.0487 C   0  0  0  0  0  0  0  0  0  0  0  0
   -1.1088   -2.0454   -0.0435 C   0  0  0  0  0  0  0  0  0  0  0  0
    0.0513    1.4786    0.0290 N   0  0  0  0  0  0  0  0  0  0  0  0
   -0.0967    2.2683    1.1374 C   0  0  0  0  0  0  0  0  0  0  0  0
   -0.0856    3.5732    0.7264 C   0  0  0  0  0  0  0  0  0  0  0  0
    0.0747    3.5717   -0.6853 C   0  0  0  0  0  0  0  0  0  0  0  0
    0.1559    2.2661   -1.0856 C   0  0  0  0  0  0  0  0  0  0  0  0
   -2.9306    0.3885   -0.1917 I   0  0  0  0  0  0  0  0  0  0  0  0
    3.0895    0.4253    0.2487 I   0  0  0  0  0  0  0  0  0  0  0  0
    0.1020   -4.2329    0.0362 C   0  0  0  0  0  0  0  0  0  0  0  0
    1.4183   -4.7111    0.0938 O   0  0  0  0  0  0  0  0  0  0  0  0
   -2.2018   -2.8119   -0.1167 O   0  0  0  0  0  0  0  0  0  0  0  0
    2.2298   -2.5394    0.1777 H   0  0  0  0  0  0  0  0  0  0  0  0
   -0.1984    1.8333    2.1186 H   0  0  0  0  0  0  0  0  0  0  0  0
   -0.1828    4.4349    1.3676 H   0  0  0  0  0  0  0  0  0  0  0  0
    0.1261    4.4322   -1.3334 H   0  0  0  0  0  0  0  0  0  0  0  0
    0.2803    1.8293   -2.0632 H   0  0  0  0  0  0  0  0  0  0  0  0
   -0.4938   -4.5815    0.8904 H   0  0  0  0  0  0  0  0  0  0  0  0
   -0.4162   -4.5819   -0.8667 H   0  0  0  0  0  0  0  0  0  0  0  0
    1.3875   -5.6719    0.0936 H   0  0  0  0  0  0  0  0  0  0  0  0
   -3.0196   -2.2981   -0.1480 H   0  0  0  0  0  0  0  0  0  0  0  0
 15 14  1  0
 13  3  1  0
  2  3  1  0
  2  1  2  0
 14  1  1  0
  3  4  2  0
  1  6  1  0
  4  7  1  0
  4  5  1  0
  6  5  2  0
  6 16  1  0
  7 11  1  0
  7  8  1  0
  5 12  1  0
 11 10  2  0
  8  9  2  0
 10  9  1  0
  2 17  1  0
  8 18  1  0
  9 19  1  0
 10 20  1  0
 11 21  1  0
 14 22  1  0
 14 23  1  0
 15 24  1  0
 16 25  1  0
M  END
