
     RDKit          3D

 47 48  0  0  0  0  0  0  0  0999 V2000
   -4.3228   -0.2307   -0.4736 C   0  0  0  0  0  0  0  0  0  0  0  0
   -3.1642   -1.2236   -0.6549 C   0  0  0  0  0  0  0  0  0  0  0  0
   -2.6199   -1.7532    0.6721 C   0  0  0  0  0  0  0  0  0  0  0  0
   -1.3279   -2.5537    0.5804 C   0  0  2  0  0  0  0  0  0  0  0  0
   -1.1044   -3.4214    1.8037 C   0  0  0  0  0  0  0  0  0  0  0  0
   -0.1863   -1.6585    0.5192 O   0  0  0  0  0  0  0  0  0  0  0  0
    0.4511   -1.4380   -0.6196 C   0  0  0  0  0  0  0  0  0  0  0  0
    0.0858   -1.8504   -1.6931 O   0  0  0  0  0  0  0  0  0  0  0  0
    1.7009   -0.6473   -0.4352 C   0  0  0  0  0  0  0  0  0  0  0  0
    2.8698   -1.1408   -1.0323 C   0  0  0  0  0  0  0  0  0  0  0  0
    2.8169   -2.3427   -1.6263 O   0  0  0  0  0  0  0  0  0  0  0  0
    4.0596   -0.4245   -0.9820 C   0  0  0  0  0  0  0  0  0  0  0  0
    4.0919    0.8086   -0.3468 C   0  0  0  0  0  0  0  0  0  0  0  0
    5.2092    1.5475   -0.2701 O   0  0  0  0  0  0  0  0  0  0  0  0
    2.9428    1.3120    0.2563 C   0  0  0  0  0  0  0  0  0  0  0  0
    1.7529    0.5945    0.2241 C   0  0  0  0  0  0  0  0  0  0  0  0
    0.5758    1.2036    0.8763 C   0  0  0  0  0  0  0  0  0  0  0  0
    0.1790    2.4532    0.6329 C   0  0  0  0  0  0  0  0  0  0  0  0
   -1.0055    3.1197    1.2617 C   0  0  0  0  0  0  0  0  0  0  0  0
   -2.2619    2.9936    0.3847 C   0  0  0  0  0  0  0  0  0  0  0  0
   -2.7751    1.5613    0.3911 C   0  0  0  0  0  0  0  0  0  0  0  0
   -3.9166    1.2389   -0.5653 C   0  0  1  0  0  0  0  0  0  0  0  0
   -3.5655    1.4911   -1.9158 O   0  0  0  0  0  0  0  0  0  0  0  0
   -5.0982   -0.4125   -1.2219 H   0  0  0  0  0  0  0  0  0  0  0  0
   -4.8011   -0.3913    0.4973 H   0  0  0  0  0  0  0  0  0  0  0  0
   -3.5013   -2.0793   -1.2455 H   0  0  0  0  0  0  0  0  0  0  0  0
   -2.3725   -0.7617   -1.2475 H   0  0  0  0  0  0  0  0  0  0  0  0
   -2.4736   -0.9448    1.3934 H   0  0  0  0  0  0  0  0  0  0  0  0
   -3.3795   -2.4037    1.1160 H   0  0  0  0  0  0  0  0  0  0  0  0
   -1.3374   -3.1801   -0.3143 H   0  0  0  0  0  0  0  0  0  0  0  0
   -1.8999   -4.1627    1.8768 H   0  0  0  0  0  0  0  0  0  0  0  0
   -0.1561   -3.9563    1.7453 H   0  0  0  0  0  0  0  0  0  0  0  0
   -1.1119   -2.8299    2.7208 H   0  0  0  0  0  0  0  0  0  0  0  0
    3.6879   -2.5946   -1.9541 H   0  0  0  0  0  0  0  0  0  0  0  0
    4.9577   -0.8343   -1.4333 H   0  0  0  0  0  0  0  0  0  0  0  0
    5.9386    1.1130   -0.7271 H   0  0  0  0  0  0  0  0  0  0  0  0
    2.9838    2.2607    0.7749 H   0  0  0  0  0  0  0  0  0  0  0  0
    0.0324    0.5991    1.5941 H   0  0  0  0  0  0  0  0  0  0  0  0
    0.7071    3.0342   -0.1193 H   0  0  0  0  0  0  0  0  0  0  0  0
   -1.2116    2.6879    2.2450 H   0  0  0  0  0  0  0  0  0  0  0  0
   -0.7766    4.1757    1.4214 H   0  0  0  0  0  0  0  0  0  0  0  0
   -3.0346    3.6729    0.7546 H   0  0  0  0  0  0  0  0  0  0  0  0
   -2.0143    3.3246   -0.6295 H   0  0  0  0  0  0  0  0  0  0  0  0
   -1.9388    0.8959    0.1682 H   0  0  0  0  0  0  0  0  0  0  0  0
   -3.1013    1.3167    1.4078 H   0  0  0  0  0  0  0  0  0  0  0  0
   -4.7918    1.8462   -0.2874 H   0  0  0  0  0  0  0  0  0  0  0  0
   -3.3800    2.4293   -2.0142 H   0  0  0  0  0  0  0  0  0  0  0  0
 14 13  1  0
 13 12  1  0
 13 15  2  0
 12 10  2  0
 15 16  1  0
 10 11  1  0
 10  9  1  0
 16  9  2  0
 16 17  1  0
  9  7  1  0
 17 18  2  0
 18 19  1  0
  7  8  2  0
  7  6  1  0
 19 20  1  0
  6  4  1  0
 20 21  1  0
  5  4  1  0
  4  3  1  0
 21 22  1  0
  3  2  1  0
 22 23  1  0
 22  1  1  0
  2  1  1  0
  1 24  1  0
  1 25  1  0
  2 26  1  0
  2 27  1  0
  3 28  1  0
  3 29  1  0
  4 30  1  6
  5 31  1  0
  5 32  1  0
  5 33  1  0
 11 34  1  0
 12 35  1  0
 14 36  1  0
 15 37  1  0
 17 38  1  0
 18 39  1  0
 19 40  1  0
 19 41  1  0
 20 42  1  0
 20 43  1  0
 21 44  1  0
 21 45  1  0
 22 46  1  1
 23 47  1  0
M  END
