
     RDKit          3D

 19 19  0  0  0  0  0  0  0  0999 V2000
    2.0012    0.0781    0.0320 C   0  0  1  0  0  0  0  0  0  0  0  0
    0.5295   -0.1390   -0.0284 C   0  0  0  0  0  0  0  0  0  0  0  0
   -1.7042    0.7950    0.0420 C   0  0  0  0  0  0  0  0  0  0  0  0
   -0.3285    0.9593    0.0400 C   0  0  0  0  0  0  0  0  0  0  0  0
   -2.2435   -0.5116   -0.0088 C   0  0  0  0  0  0  0  0  0  0  0  0
    0.0027   -1.4183   -0.1053 C   0  0  0  0  0  0  0  0  0  0  0  0
    2.4426    0.2227    1.2964 F   0  0  0  0  0  0  0  0  0  0  0  0
    2.6946   -0.9407   -0.4931 F   0  0  0  0  0  0  0  0  0  0  0  0
    2.3840    1.1864   -0.6212 F   0  0  0  0  0  0  0  0  0  0  0  0
   -1.3736   -1.5937   -0.0935 C   0  0  0  0  0  0  0  0  0  0  0  0
   -2.5803    1.8698    0.1472 N   0  0  0  0  0  0  0  0  0  0  0  0
   -3.6149   -0.6678   -0.0243 N   0  0  0  0  0  0  0  0  0  0  0  0
    0.0688    1.9670    0.0811 H   0  0  0  0  0  0  0  0  0  0  0  0
    0.6415   -2.2888   -0.1647 H   0  0  0  0  0  0  0  0  0  0  0  0
   -2.1320    2.7688    0.0549 H   0  0  0  0  0  0  0  0  0  0  0  0
   -3.3693    1.8188   -0.4833 H   0  0  0  0  0  0  0  0  0  0  0  0
   -1.7823   -2.5963   -0.1379 H   0  0  0  0  0  0  0  0  0  0  0  0
   -4.1233   -0.0164    0.5568 H   0  0  0  0  0  0  0  0  0  0  0  0
   -3.9318   -1.6115    0.1371 H   0  0  0  0  0  0  0  0  0  0  0  0
  1  2  1  0
  1  7  1  1
  1  8  1  0
  1  9  1  0
  2  4  2  0
  2  6  1  0
  3  4  1  0
  3  5  2  0
  3 11  1  0
  5 10  1  0
  5 12  1  0
  6 10  2  0
  4 13  1  0
  6 14  1  0
 11 15  1  0
 11 16  1  0
 10 17  1  0
 12 18  1  0
 12 19  1  0
M  END
