
     RDKit          3D

 76 80  0  0  0  0  0  0  0  0999 V2000
   -4.7051    4.3858   -1.8087 C   0  0  0  0  0  0  0  0  0  0  0  0
   -5.5086    3.3174   -1.4570 C   0  0  0  0  0  0  0  0  0  0  0  0
   -5.0219    2.3100   -0.6269 C   0  0  0  0  0  0  0  0  0  0  0  0
   -5.8936    1.2604   -0.3179 N   0  0  0  0  0  0  0  0  0  0  0  0
   -5.7182    0.2278    0.5405 C   0  0  0  0  0  0  0  0  0  0  0  0
   -6.9248   -0.6518    0.6764 C   0  0  0  0  0  0  0  0  0  0  0  0
   -8.1097   -0.0629    1.1058 C   0  0  0  0  0  0  0  0  0  0  0  0
   -9.2272   -0.8387    1.3504 C   0  0  0  0  0  0  0  0  0  0  0  0
   -9.1564   -2.2072    1.1614 C   0  0  0  0  0  0  0  0  0  0  0  0
   -7.9777   -2.7985    0.7190 C   0  0  0  0  0  0  0  0  0  0  0  0
   -6.8332   -2.0312    0.4558 C   0  0  0  0  0  0  0  0  0  0  0  0
   -7.9630   -4.2884    0.5225 C   0  0  1  0  0  0  0  0  0  0  0  0
   -9.0751   -4.8725    0.9786 F   0  0  0  0  0  0  0  0  0  0  0  0
   -7.8616   -4.6296   -0.7719 F   0  0  0  0  0  0  0  0  0  0  0  0
   -6.9396   -4.8738    1.1596 F   0  0  0  0  0  0  0  0  0  0  0  0
   -3.7097    2.4006   -0.1712 C   0  0  0  0  0  0  0  0  0  0  0  0
   -2.9139    3.4876   -0.5281 C   0  0  0  0  0  0  0  0  0  0  0  0
   -3.3962    4.5112   -1.3501 C   0  0  0  0  0  0  0  0  0  0  0  0
   -2.5724    5.6945   -1.7687 C   0  0  0  0  0  0  0  0  0  0  0  0
    2.2155    2.4382    1.9549 N   0  0  0  0  0  0  0  0  0  0  0  0
    0.9729    2.6492    1.5760 C   0  0  0  0  0  0  0  0  0  0  0  0
    0.4828    2.1974    0.3508 C   0  0  0  0  0  0  0  0  0  0  0  0
    1.3887    1.5020   -0.4326 C   0  0  0  0  0  0  0  0  0  0  0  0
    2.6343    1.2648   -0.0568 N   0  0  0  0  0  0  0  0  0  0  0  0
    3.0072    1.7469    1.1242 C   0  0  0  0  0  0  0  0  0  0  0  0
   -0.8375    2.3802   -0.0768 N   0  0  0  0  0  0  0  0  0  0  0  0
   -1.5250    3.5466    0.0223 C   0  0  0  0  0  0  0  0  0  0  0  0
   -1.0567    4.5512    0.5263 O   0  0  0  0  0  0  0  0  0  0  0  0
    4.2702    1.5490    1.5796 N   0  0  0  0  0  0  0  0  0  0  0  0
   -4.7017    0.0201    1.1776 O   0  0  0  0  0  0  0  0  0  0  0  0
   -5.5492   -2.6338   -0.0504 C   0  0  0  0  0  0  0  0  0  0  0  0
    7.5975    0.0261    1.4177 C   0  0  0  0  0  0  0  0  0  0  0  0
    7.6597   -0.5396    0.1359 C   0  0  0  0  0  0  0  0  0  0  0  0
    6.5335   -0.3823   -0.6721 C   0  0  0  0  0  0  0  0  0  0  0  0
    5.4020    0.3033   -0.2422 C   0  0  0  0  0  0  0  0  0  0  0  0
    5.3470    0.8465    1.0377 C   0  0  0  0  0  0  0  0  0  0  0  0
    6.4728    0.6920    1.8561 C   0  0  0  0  0  0  0  0  0  0  0  0
   10.7527   -2.6263    0.1805 C   0  0  0  0  0  0  0  0  0  0  0  0
   10.8600   -3.0353   -1.2072 N   0  0  0  0  0  0  0  0  0  0  0  0
   10.3044   -1.9974   -2.0534 C   0  0  0  0  0  0  0  0  0  0  0  0
    8.8828   -1.5859   -1.6856 C   0  0  0  0  0  0  0  0  0  0  0  0
    8.8227   -1.1910   -0.2901 N   0  0  0  0  0  0  0  0  0  0  0  0
    9.3426   -2.2278    0.5977 C   0  0  0  0  0  0  0  0  0  0  0  0
   -5.1115    5.1478   -2.4622 H   0  0  0  0  0  0  0  0  0  0  0  0
   -6.5237    3.2666   -1.8330 H   0  0  0  0  0  0  0  0  0  0  0  0
   -6.7772    1.2867   -0.8056 H   0  0  0  0  0  0  0  0  0  0  0  0
   -8.1545    1.0067    1.2687 H   0  0  0  0  0  0  0  0  0  0  0  0
  -10.1462   -0.3848    1.6933 H   0  0  0  0  0  0  0  0  0  0  0  0
  -10.0325   -2.8061    1.3643 H   0  0  0  0  0  0  0  0  0  0  0  0
   -3.3078    1.6366    0.4749 H   0  0  0  0  0  0  0  0  0  0  0  0
   -2.4304    6.3965   -0.9473 H   0  0  0  0  0  0  0  0  0  0  0  0
   -1.5822    5.4046   -2.1200 H   0  0  0  0  0  0  0  0  0  0  0  0
   -3.0669    6.2289   -2.5789 H   0  0  0  0  0  0  0  0  0  0  0  0
    0.3404    3.1871    2.2712 H   0  0  0  0  0  0  0  0  0  0  0  0
    1.0899    1.1106   -1.4004 H   0  0  0  0  0  0  0  0  0  0  0  0
   -1.2404    1.6420   -0.6340 H   0  0  0  0  0  0  0  0  0  0  0  0
    4.4290    1.9400    2.4960 H   0  0  0  0  0  0  0  0  0  0  0  0
   -4.9291   -2.9864    0.7742 H   0  0  0  0  0  0  0  0  0  0  0  0
   -5.7172   -3.4713   -0.7210 H   0  0  0  0  0  0  0  0  0  0  0  0
   -4.9628   -1.9088   -0.6083 H   0  0  0  0  0  0  0  0  0  0  0  0
    8.4477   -0.0396    2.0841 H   0  0  0  0  0  0  0  0  0  0  0  0
    6.5091   -0.7982   -1.6699 H   0  0  0  0  0  0  0  0  0  0  0  0
    4.5632    0.3923   -0.9126 H   0  0  0  0  0  0  0  0  0  0  0  0
    6.4711    1.1138    2.8550 H   0  0  0  0  0  0  0  0  0  0  0  0
   11.1066   -3.4326    0.8269 H   0  0  0  0  0  0  0  0  0  0  0  0
   11.4179   -1.7707    0.3391 H   0  0  0  0  0  0  0  0  0  0  0  0
   10.9487   -1.1148   -1.9812 H   0  0  0  0  0  0  0  0  0  0  0  0
   10.3252   -2.3261   -3.0948 H   0  0  0  0  0  0  0  0  0  0  0  0
    8.6012   -0.7381   -2.3129 H   0  0  0  0  0  0  0  0  0  0  0  0
    8.1757   -2.3997   -1.9128 H   0  0  0  0  0  0  0  0  0  0  0  0
    8.6786   -3.1054    0.6000 H   0  0  0  0  0  0  0  0  0  0  0  0
    9.3794   -1.8600    1.6221 H   0  0  0  0  0  0  0  0  0  0  0  0
    9.2467   -4.4755   -1.2883 H   0  0  0  0  0  0  0  0  0  0  0  0
   10.5045   -4.6170   -2.5161 H   0  0  0  0  0  0  0  0  0  0  0  0
   10.8419   -5.0894   -0.8547 H   0  0  0  0  0  0  0  0  0  0  0  0
   10.3229   -4.3548   -1.4724 C   0  0  0  0  0  0  0  0  0  0  0  0
  1  2  2  0
  1 18  1  0
  2  3  1  0
  3  4  1  0
  3 16  2  0
  4  5  1  0
  5  6  1  0
  5 30  2  0
  6  7  2  0
  6 11  1  0
  7  8  1  0
  8  9  2  0
  9 10  1  0
 10 11  2  0
 10 12  1  0
 11 31  1  0
 12 13  1  1
 12 14  1  0
 12 15  1  0
 16 17  1  0
 17 18  2  0
 17 27  1  0
 18 19  1  0
 20 21  2  0
 20 25  1  0
 21 22  1  0
 22 23  2  0
 22 26  1  0
 23 24  1  0
 24 25  2  0
 25 29  1  0
 26 27  1  0
 27 28  2  0
 29 36  1  0
 32 33  2  0
 32 37  1  0
 33 34  1  0
 33 42  1  0
 34 35  2  0
 35 36  1  0
 36 37  2  0
 38 39  1  0
 38 43  1  0
 39 40  1  0
 39 76  1  0
 40 41  1  0
 41 42  1  0
 42 43  1  0
  1 44  1  0
  2 45  1  0
  4 46  1  0
  7 47  1  0
  8 48  1  0
  9 49  1  0
 16 50  1  0
 19 51  1  0
 19 52  1  0
 19 53  1  0
 21 54  1  0
 23 55  1  0
 26 56  1  0
 29 57  1  0
 31 58  1  0
 31 59  1  0
 31 60  1  0
 32 61  1  0
 34 62  1  0
 35 63  1  0
 37 64  1  0
 38 65  1  0
 38 66  1  0
 40 67  1  0
 40 68  1  0
 41 69  1  0
 41 70  1  0
 43 71  1  0
 43 72  1  0
 76 73  1  0
 76 74  1  0
 76 75  1  0
M  END
