
     RDKit          3D

 48 52  0  0  0  0  0  0  0  0999 V2000
   -3.5353    0.4375   -1.3023 S   0  0  0  0  0  0  0  0  0  0  0  0
   -3.2225    2.3190   -0.4585 P   0  0  1  0  0  0  0  0  0  0  0  0
   -4.1835    3.3669   -0.8313 O   0  0  0  0  0  0  0  0  0  0  0  0
   -3.1469    2.0999    1.1267 O   0  0  0  0  0  0  0  0  0  0  0  0
   -2.0756    1.3678    1.7508 C   0  0  0  0  0  0  0  0  0  0  0  0
   -1.7149    2.6242   -0.9353 O   0  0  0  0  0  0  0  0  0  0  0  0
   -0.7090    1.8660   -0.2816 C   0  0  1  0  0  0  0  0  0  0  0  0
    0.7216    2.3004   -0.5351 C   0  0  1  0  0  0  0  0  0  0  0  0
    0.7750    3.6929   -0.5381 O   0  0  0  0  0  0  0  0  0  0  0  0
   -0.8005    1.9964    1.2300 C   0  0  2  0  0  0  0  0  0  0  0  0
    0.3873    1.3723    1.6617 O   0  0  0  0  0  0  0  0  0  0  0  0
    1.4019    1.6962    0.7370 C   0  0  1  0  0  0  0  0  0  0  0  0
    2.1819    0.5095    0.4809 N   0  0  0  0  0  0  0  0  0  0  0  0
    3.5023    0.5504    0.1181 C   0  0  0  0  0  0  0  0  0  0  0  0
    4.2810    1.6212    0.0120 N   0  0  0  0  0  0  0  0  0  0  0  0
    5.5065    1.2947   -0.3686 C   0  0  0  0  0  0  0  0  0  0  0  0
    5.9902    0.0865   -0.6354 N   0  0  0  0  0  0  0  0  0  0  0  0
    5.1876   -0.9799   -0.5277 C   0  0  0  0  0  0  0  0  0  0  0  0
    5.6683   -2.1921   -0.8114 N   0  0  0  0  0  0  0  0  0  0  0  0
    3.8571   -0.7614   -0.1311 C   0  0  0  0  0  0  0  0  0  0  0  0
    2.7925   -1.6000    0.0741 N   0  0  0  0  0  0  0  0  0  0  0  0
    1.8137   -0.8177    0.4257 C   0  0  0  0  0  0  0  0  0  0  0  0
    0.2029   -1.3662    0.8049 S   0  0  0  0  0  0  0  0  0  0  0  0
    0.2472   -3.0224    0.0392 C   0  0  0  0  0  0  0  0  0  0  0  0
   -1.1582   -3.5446    0.0732 C   0  0  0  0  0  0  0  0  0  0  0  0
   -1.5528   -4.4581    1.0454 C   0  0  0  0  0  0  0  0  0  0  0  0
   -2.8600   -4.9263    1.0836 C   0  0  0  0  0  0  0  0  0  0  0  0
   -2.0955   -3.0950   -0.8546 C   0  0  0  0  0  0  0  0  0  0  0  0
   -3.4011   -3.5608   -0.8179 C   0  0  0  0  0  0  0  0  0  0  0  0
   -3.7866   -4.4788    0.1519 C   0  0  0  0  0  0  0  0  0  0  0  0
   -4.6900    0.2112   -0.6609 H   0  0  0  0  0  0  0  0  0  0  0  0
   -2.2001    1.4903    2.8246 H   0  0  0  0  0  0  0  0  0  0  0  0
   -2.1492    0.3059    1.5037 H   0  0  0  0  0  0  0  0  0  0  0  0
   -0.7978    0.8094   -0.5631 H   0  0  0  0  0  0  0  0  0  0  0  0
    1.1448    1.8631   -1.4450 H   0  0  0  0  0  0  0  0  0  0  0  0
    1.6603    3.9732   -0.7925 H   0  0  0  0  0  0  0  0  0  0  0  0
   -0.8029    3.0574    1.5151 H   0  0  0  0  0  0  0  0  0  0  0  0
    2.0901    2.4348    1.1590 H   0  0  0  0  0  0  0  0  0  0  0  0
    6.2071    2.1149   -0.4793 H   0  0  0  0  0  0  0  0  0  0  0  0
    6.6458   -2.3112   -1.0141 H   0  0  0  0  0  0  0  0  0  0  0  0
    5.1159   -3.0163   -0.6514 H   0  0  0  0  0  0  0  0  0  0  0  0
    0.6175   -2.9196   -0.9800 H   0  0  0  0  0  0  0  0  0  0  0  0
    0.9290   -3.6612    0.5974 H   0  0  0  0  0  0  0  0  0  0  0  0
   -0.8328   -4.8122    1.7734 H   0  0  0  0  0  0  0  0  0  0  0  0
   -3.1527   -5.6404    1.8425 H   0  0  0  0  0  0  0  0  0  0  0  0
   -1.8016   -2.3773   -1.6115 H   0  0  0  0  0  0  0  0  0  0  0  0
   -4.1185   -3.2090   -1.5479 H   0  0  0  0  0  0  0  0  0  0  0  0
   -4.8051   -4.8436    0.1796 H   0  0  0  0  0  0  0  0  0  0  0  0
  3  2  2  0
  4  5  1  0
  4  2  1  0
  5 10  1  0
  2  6  1  0
  2  1  1  6
 10 11  1  0
 10  7  1  0
  6  7  1  0
 11 12  1  0
  7  8  1  0
  9  8  1  0
  8 12  1  0
 12 13  1  0
 15 14  2  0
 15 16  1  0
 13 14  1  0
 13 22  1  0
 14 20  1  0
 16 17  2  0
 23 22  1  0
 23 24  1  0
 22 21  2  0
 17 18  1  0
 20 21  1  0
 20 18  2  0
 18 19  1  0
 26 27  2  0
 26 25  1  0
 27 30  1  0
 24 25  1  0
 25 28  2  0
 30 29  2  0
 28 29  1  0
  1 31  1  0
  5 32  1  0
  5 33  1  0
  7 34  1  1
  8 35  1  6
  9 36  1  0
 10 37  1  6
 12 38  1  1
 16 39  1  0
 19 40  1  0
 19 41  1  0
 24 42  1  0
 24 43  1  0
 26 44  1  0
 27 45  1  0
 28 46  1  0
 29 47  1  0
 30 48  1  0
M  END
