
     RDKit          3D

159159  0  0  0  0  0  0  0  0999 V2000
   -4.6201    3.2424   -0.8007 N   0  0  0  0  0  0  0  0  0  0  0  0
   -5.7123    2.3021   -0.9017 C   0  0  0  0  0  0  0  0  0  0  0  0
   -5.3337    0.9366   -0.3124 C   0  0  1  0  0  0  0  0  0  0  0  0
   -6.3767   -0.1557   -0.6000 C   0  0  1  0  0  0  0  0  0  0  0  0
   -4.8869    4.5437   -1.3822 C   0  0  2  0  0  0  0  0  0  0  0  0
   -3.5745    5.3012   -1.5606 C   0  0  1  0  0  0  0  0  0  0  0  0
   -3.7967    6.6602   -2.2370 C   0  0  2  0  0  0  0  0  0  0  0  0
   -4.8900    7.5065   -1.5695 C   0  0  1  0  0  0  0  0  0  0  0  0
   -6.1845    6.7239   -1.2926 C   0  0  2  0  0  0  0  0  0  0  0  0
   -5.8955    5.3990   -0.6064 C   0  0  0  0  0  0  0  0  0  0  0  0
   -2.9830    5.4410   -0.2912 O   0  0  0  0  0  0  0  0  0  0  0  0
   -4.1039    6.3838   -3.5837 O   0  0  0  0  0  0  0  0  0  0  0  0
   -6.9013    6.4520   -2.4780 O   0  0  0  0  0  0  0  0  0  0  0  0
   -4.0463    0.4920   -0.7967 N   0  0  0  0  0  0  0  0  0  0  0  0
   -2.8896    0.7363   -0.1517 C   0  0  0  0  0  0  0  0  0  0  0  0
   -7.7832    0.1940   -0.0864 C   0  0  2  0  0  0  0  0  0  0  0  0
   -2.8388    1.1297    1.0061 O   0  0  0  0  0  0  0  0  0  0  0  0
   -6.4003   -0.4983   -1.9705 O   0  0  0  0  0  0  0  0  0  0  0  0
   -7.7280    0.6412    1.2523 O   0  0  0  0  0  0  0  0  0  0  0  0
   -8.7636   -0.9614   -0.2621 C   0  0  0  0  0  0  0  0  0  0  0  0
  -10.1842   -0.6060    0.1589 C   0  0  0  0  0  0  0  0  0  0  0  0
  -11.1746   -1.7451   -0.0500 C   0  0  0  0  0  0  0  0  0  0  0  0
  -12.5881   -1.3774    0.3833 C   0  0  0  0  0  0  0  0  0  0  0  0
  -13.5998   -2.5027    0.2065 C   0  0  0  0  0  0  0  0  0  0  0  0
  -15.0020   -2.1106    0.6556 C   0  0  0  0  0  0  0  0  0  0  0  0
  -16.0292   -3.2261    0.5090 C   0  0  0  0  0  0  0  0  0  0  0  0
  -17.4222   -2.8138    0.9689 C   0  0  0  0  0  0  0  0  0  0  0  0
  -18.4602   -3.9220    0.8459 C   0  0  0  0  0  0  0  0  0  0  0  0
  -19.8466   -3.4953    1.3125 C   0  0  0  0  0  0  0  0  0  0  0  0
  -20.8916   -4.5986    1.2046 C   0  0  0  0  0  0  0  0  0  0  0  0
  -22.2739   -4.1633    1.6749 C   0  0  0  0  0  0  0  0  0  0  0  0
  -23.3237   -5.2631    1.5741 C   0  0  0  0  0  0  0  0  0  0  0  0
  -24.6994   -4.8143    2.0474 C   0  0  0  0  0  0  0  0  0  0  0  0
   -1.6430    0.4839   -0.9737 C   0  0  0  0  0  0  0  0  0  0  0  0
   -0.3917    0.2699   -0.1376 C   0  0  0  0  0  0  0  0  0  0  0  0
    0.8609    0.0941   -0.9865 C   0  0  0  0  0  0  0  0  0  0  0  0
    2.1165   -0.0675   -0.1394 C   0  0  0  0  0  0  0  0  0  0  0  0
    3.3923   -0.2364   -0.9545 C   0  0  0  0  0  0  0  0  0  0  0  0
    4.6363   -0.3504   -0.0823 C   0  0  0  0  0  0  0  0  0  0  0  0
    5.9282   -0.5197   -0.8718 C   0  0  0  0  0  0  0  0  0  0  0  0
    7.1602   -0.5978    0.0214 C   0  0  0  0  0  0  0  0  0  0  0  0
    8.4646   -0.7677   -0.7471 C   0  0  0  0  0  0  0  0  0  0  0  0
    9.6862   -0.8223    0.1623 C   0  0  0  0  0  0  0  0  0  0  0  0
   10.9998   -0.9916   -0.5905 C   0  0  0  0  0  0  0  0  0  0  0  0
   12.2133   -1.0322    0.3303 C   0  0  0  0  0  0  0  0  0  0  0  0
   13.5333   -1.1993   -0.4118 C   0  0  0  0  0  0  0  0  0  0  0  0
   14.7414   -1.2315    0.5165 C   0  0  0  0  0  0  0  0  0  0  0  0
   16.0655   -1.3956   -0.2190 C   0  0  0  0  0  0  0  0  0  0  0  0
   17.2705   -1.4222    0.7135 C   0  0  0  0  0  0  0  0  0  0  0  0
   18.5968   -1.5829   -0.0187 C   0  0  0  0  0  0  0  0  0  0  0  0
   19.8005   -1.6052    0.9155 C   0  0  0  0  0  0  0  0  0  0  0  0
   21.1277   -1.7627    0.1841 C   0  0  0  0  0  0  0  0  0  0  0  0
   22.3317   -1.7812    1.1179 C   0  0  0  0  0  0  0  0  0  0  0  0
   23.6584   -1.9369    0.3853 C   0  0  0  0  0  0  0  0  0  0  0  0
   24.8642   -1.9511    1.3170 C   0  0  0  0  0  0  0  0  0  0  0  0
   26.1890   -2.1093    0.5816 C   0  0  0  0  0  0  0  0  0  0  0  0
   27.3988   -2.1164    1.5086 C   0  0  0  0  0  0  0  0  0  0  0  0
   28.7135   -2.2874    0.7601 C   0  0  0  0  0  0  0  0  0  0  0  0
   -4.3544    8.0240   -0.3738 O   0  0  0  0  0  0  0  0  0  0  0  0
   -4.3278    3.3418    0.1633 H   0  0  0  0  0  0  0  0  0  0  0  0
   -6.6324    2.6417   -0.4067 H   0  0  0  0  0  0  0  0  0  0  0  0
   -5.9556    2.1954   -1.9655 H   0  0  0  0  0  0  0  0  0  0  0  0
   -5.2479    1.0383    0.7694 H   0  0  0  0  0  0  0  0  0  0  0  0
   -6.0389   -1.0621   -0.0828 H   0  0  0  0  0  0  0  0  0  0  0  0
   -5.2823    4.3624   -2.3863 H   0  0  0  0  0  0  0  0  0  0  0  0
   -2.9279    4.7049   -2.2219 H   0  0  0  0  0  0  0  0  0  0  0  0
   -2.8571    7.2342   -2.1710 H   0  0  0  0  0  0  0  0  0  0  0  0
   -5.1337    8.3355   -2.2581 H   0  0  0  0  0  0  0  0  0  0  0  0
   -6.7998    7.3413   -0.6175 H   0  0  0  0  0  0  0  0  0  0  0  0
   -6.8352    4.8557   -0.4755 H   0  0  0  0  0  0  0  0  0  0  0  0
   -5.5119    5.6009    0.3963 H   0  0  0  0  0  0  0  0  0  0  0  0
   -2.1624    5.9338   -0.3845 H   0  0  0  0  0  0  0  0  0  0  0  0
   -4.2601    7.2143   -4.0429 H   0  0  0  0  0  0  0  0  0  0  0  0
   -7.0400    7.2786   -2.9503 H   0  0  0  0  0  0  0  0  0  0  0  0
   -3.9917    0.2470   -1.7736 H   0  0  0  0  0  0  0  0  0  0  0  0
   -8.1611    1.0493   -0.6614 H   0  0  0  0  0  0  0  0  0  0  0  0
   -6.8305    0.2075   -2.4658 H   0  0  0  0  0  0  0  0  0  0  0  0
   -7.4954   -0.1069    1.8138 H   0  0  0  0  0  0  0  0  0  0  0  0
   -8.7645   -1.2712   -1.3099 H   0  0  0  0  0  0  0  0  0  0  0  0
   -8.4090   -1.8280    0.3107 H   0  0  0  0  0  0  0  0  0  0  0  0
  -10.1973   -0.3108    1.2115 H   0  0  0  0  0  0  0  0  0  0  0  0
  -10.5195    0.2705   -0.4073 H   0  0  0  0  0  0  0  0  0  0  0  0
  -11.1791   -2.0387   -1.1053 H   0  0  0  0  0  0  0  0  0  0  0  0
  -10.8396   -2.6266    0.5083 H   0  0  0  0  0  0  0  0  0  0  0  0
  -12.5724   -1.0709    1.4351 H   0  0  0  0  0  0  0  0  0  0  0  0
  -12.9222   -0.4989   -0.1802 H   0  0  0  0  0  0  0  0  0  0  0  0
  -13.6252   -2.8100   -0.8447 H   0  0  0  0  0  0  0  0  0  0  0  0
  -13.2687   -3.3817    0.7709 H   0  0  0  0  0  0  0  0  0  0  0  0
  -14.9669   -1.7896    1.7025 H   0  0  0  0  0  0  0  0  0  0  0  0
  -15.3335   -1.2359    0.0846 H   0  0  0  0  0  0  0  0  0  0  0  0
  -16.0714   -3.5488   -0.5370 H   0  0  0  0  0  0  0  0  0  0  0  0
  -15.7007   -4.1006    1.0821 H   0  0  0  0  0  0  0  0  0  0  0  0
  -17.3727   -2.4805    2.0115 H   0  0  0  0  0  0  0  0  0  0  0  0
  -17.7513   -1.9430    0.3906 H   0  0  0  0  0  0  0  0  0  0  0  0
  -18.5143   -4.2566   -0.1959 H   0  0  0  0  0  0  0  0  0  0  0  0
  -18.1332   -4.7924    1.4259 H   0  0  0  0  0  0  0  0  0  0  0  0
  -19.7878   -3.1539    2.3519 H   0  0  0  0  0  0  0  0  0  0  0  0
  -20.1739   -2.6273    0.7291 H   0  0  0  0  0  0  0  0  0  0  0  0
  -20.9529   -4.9407    0.1656 H   0  0  0  0  0  0  0  0  0  0  0  0
  -20.5655   -5.4664    1.7891 H   0  0  0  0  0  0  0  0  0  0  0  0
  -22.2110   -3.8182    2.7129 H   0  0  0  0  0  0  0  0  0  0  0  0
  -22.6002   -3.2963    1.0892 H   0  0  0  0  0  0  0  0  0  0  0  0
  -23.3881   -5.6072    0.5372 H   0  0  0  0  0  0  0  0  0  0  0  0
  -22.9976   -6.1289    2.1591 H   0  0  0  0  0  0  0  0  0  0  0  0
  -24.6745   -4.4998    3.0924 H   0  0  0  0  0  0  0  0  0  0  0  0
  -25.0603   -3.9684    1.4593 H   0  0  0  0  0  0  0  0  0  0  0  0
  -25.4354   -5.6142    1.9604 H   0  0  0  0  0  0  0  0  0  0  0  0
   -1.8051   -0.3623   -1.6481 H   0  0  0  0  0  0  0  0  0  0  0  0
   -1.5111    1.3567   -1.6241 H   0  0  0  0  0  0  0  0  0  0  0  0
   -0.2524    1.1195    0.5350 H   0  0  0  0  0  0  0  0  0  0  0  0
   -0.5206   -0.6083    0.5029 H   0  0  0  0  0  0  0  0  0  0  0  0
    0.7450   -0.7753   -1.6430 H   0  0  0  0  0  0  0  0  0  0  0  0
    0.9787    0.9593   -1.6487 H   0  0  0  0  0  0  0  0  0  0  0  0
    2.2214    0.8050    0.5156 H   0  0  0  0  0  0  0  0  0  0  0  0
    1.9959   -0.9291    0.5269 H   0  0  0  0  0  0  0  0  0  0  0  0
    3.3062   -1.1251   -1.5897 H   0  0  0  0  0  0  0  0  0  0  0  0
    3.5047    0.6135   -1.6371 H   0  0  0  0  0  0  0  0  0  0  0  0
    4.7145    0.5419    0.5494 H   0  0  0  0  0  0  0  0  0  0  0  0
    4.5194   -1.1953    0.6059 H   0  0  0  0  0  0  0  0  0  0  0  0
    5.8648   -1.4239   -1.4877 H   0  0  0  0  0  0  0  0  0  0  0  0
    6.0403    0.3159   -1.5718 H   0  0  0  0  0  0  0  0  0  0  0  0
    7.2175    0.3091    0.6344 H   0  0  0  0  0  0  0  0  0  0  0  0
    7.0438   -1.4293    0.7256 H   0  0  0  0  0  0  0  0  0  0  0  0
    8.4173   -1.6818   -1.3498 H   0  0  0  0  0  0  0  0  0  0  0  0
    8.5789    0.0581   -1.4583 H   0  0  0  0  0  0  0  0  0  0  0  0
    9.7286    0.0932    0.7634 H   0  0  0  0  0  0  0  0  0  0  0  0
    9.5687   -1.6457    0.8758 H   0  0  0  0  0  0  0  0  0  0  0  0
   10.9637   -1.9112   -1.1855 H   0  0  0  0  0  0  0  0  0  0  0  0
   11.1166   -0.1715   -1.3079 H   0  0  0  0  0  0  0  0  0  0  0  0
   12.2456   -0.1121    0.9251 H   0  0  0  0  0  0  0  0  0  0  0  0
   12.0948   -1.8513    1.0484 H   0  0  0  0  0  0  0  0  0  0  0  0
   13.5050   -2.1217   -1.0031 H   0  0  0  0  0  0  0  0  0  0  0  0
   13.6516   -0.3820   -1.1320 H   0  0  0  0  0  0  0  0  0  0  0  0
   14.7668   -0.3093    1.1083 H   0  0  0  0  0  0  0  0  0  0  0  0
   14.6225   -2.0489    1.2365 H   0  0  0  0  0  0  0  0  0  0  0  0
   16.0426   -2.3192   -0.8086 H   0  0  0  0  0  0  0  0  0  0  0  0
   16.1840   -0.5795   -0.9404 H   0  0  0  0  0  0  0  0  0  0  0  0
   17.2911   -0.4992    1.3041 H   0  0  0  0  0  0  0  0  0  0  0  0
   17.1522   -2.2391    1.4341 H   0  0  0  0  0  0  0  0  0  0  0  0
   18.5778   -2.5070   -0.6077 H   0  0  0  0  0  0  0  0  0  0  0  0
   18.7143   -0.7670   -0.7406 H   0  0  0  0  0  0  0  0  0  0  0  0
   19.8180   -0.6817    1.5055 H   0  0  0  0  0  0  0  0  0  0  0  0
   19.6840   -2.4221    1.6365 H   0  0  0  0  0  0  0  0  0  0  0  0
   21.1113   -2.6873   -0.4043 H   0  0  0  0  0  0  0  0  0  0  0  0
   21.2430   -0.9470   -0.5384 H   0  0  0  0  0  0  0  0  0  0  0  0
   22.3476   -0.8569    1.7067 H   0  0  0  0  0  0  0  0  0  0  0  0
   22.2174   -2.5974    1.8400 H   0  0  0  0  0  0  0  0  0  0  0  0
   23.6431   -2.8626   -0.2014 H   0  0  0  0  0  0  0  0  0  0  0  0
   23.7709   -1.1223   -0.3389 H   0  0  0  0  0  0  0  0  0  0  0  0
   24.8809   -1.0244    1.9020 H   0  0  0  0  0  0  0  0  0  0  0  0
   24.7519   -2.7646    2.0424 H   0  0  0  0  0  0  0  0  0  0  0  0
   26.1738   -3.0385    0.0005 H   0  0  0  0  0  0  0  0  0  0  0  0
   26.2990   -1.2992   -0.1481 H   0  0  0  0  0  0  0  0  0  0  0  0
   27.4197   -1.1845    2.0824 H   0  0  0  0  0  0  0  0  0  0  0  0
   27.2867   -2.9209    2.2419 H   0  0  0  0  0  0  0  0  0  0  0  0
   28.7332   -3.2313    0.2117 H   0  0  0  0  0  0  0  0  0  0  0  0
   28.8616   -1.4845    0.0349 H   0  0  0  0  0  0  0  0  0  0  0  0
   29.5681   -2.2818    1.4376 H   0  0  0  0  0  0  0  0  0  0  0  0
   -4.9979    8.6320    0.0039 H   0  0  0  0  0  0  0  0  0  0  0  0
  1  2  1  0
  1  5  1  0
  2  3  1  0
  3  4  1  0
  3 14  1  0
  4 16  1  0
  4 18  1  0
  5  6  1  0
  5 10  1  0
  6  7  1  0
  6 11  1  0
  7  8  1  0
  7 12  1  0
  8  9  1  0
  8 59  1  0
  9 10  1  0
  9 13  1  0
 14 15  1  0
 15 17  2  0
 15 34  1  0
 16 19  1  0
 16 20  1  0
 20 21  1  0
 21 22  1  0
 22 23  1  0
 23 24  1  0
 24 25  1  0
 25 26  1  0
 26 27  1  0
 27 28  1  0
 28 29  1  0
 29 30  1  0
 30 31  1  0
 31 32  1  0
 32 33  1  0
 34 35  1  0
 35 36  1  0
 36 37  1  0
 37 38  1  0
 38 39  1  0
 39 40  1  0
 40 41  1  0
 41 42  1  0
 42 43  1  0
 43 44  1  0
 44 45  1  0
 45 46  1  0
 46 47  1  0
 47 48  1  0
 48 49  1  0
 49 50  1  0
 50 51  1  0
 51 52  1  0
 52 53  1  0
 53 54  1  0
 54 55  1  0
 55 56  1  0
 56 57  1  0
 57 58  1  0
  1 60  1  0
  2 61  1  0
  2 62  1  0
  3 63  1  1
  4 64  1  1
  5 65  1  6
  6 66  1  6
  7 67  1  6
  8 68  1  6
  9 69  1  1
 10 70  1  0
 10 71  1  0
 11 72  1  0
 12 73  1  0
 13 74  1  0
 14 75  1  0
 16 76  1  6
 18 77  1  0
 19 78  1  0
 20 79  1  0
 20 80  1  0
 21 81  1  0
 21 82  1  0
 22 83  1  0
 22 84  1  0
 23 85  1  0
 23 86  1  0
 24 87  1  0
 24 88  1  0
 25 89  1  0
 25 90  1  0
 26 91  1  0
 26 92  1  0
 27 93  1  0
 27 94  1  0
 28 95  1  0
 28 96  1  0
 29 97  1  0
 29 98  1  0
 30 99  1  0
 30100  1  0
 31101  1  0
 31102  1  0
 32103  1  0
 32104  1  0
 33105  1  0
 33106  1  0
 33107  1  0
 34108  1  0
 34109  1  0
 35110  1  0
 35111  1  0
 36112  1  0
 36113  1  0
 37114  1  0
 37115  1  0
 38116  1  0
 38117  1  0
 39118  1  0
 39119  1  0
 40120  1  0
 40121  1  0
 41122  1  0
 41123  1  0
 42124  1  0
 42125  1  0
 43126  1  0
 43127  1  0
 44128  1  0
 44129  1  0
 45130  1  0
 45131  1  0
 46132  1  0
 46133  1  0
 47134  1  0
 47135  1  0
 48136  1  0
 48137  1  0
 49138  1  0
 49139  1  0
 50140  1  0
 50141  1  0
 51142  1  0
 51143  1  0
 52144  1  0
 52145  1  0
 53146  1  0
 53147  1  0
 54148  1  0
 54149  1  0
 55150  1  0
 55151  1  0
 56152  1  0
 56153  1  0
 57154  1  0
 57155  1  0
 58156  1  0
 58157  1  0
 58158  1  0
 59159  1  0
M  END
