
     RDKit          3D

 20 21  0  0  0  0  0  0  0  0999 V2000
    3.4024   -0.0564    0.2569 C   0  0  0  0  0  0  0  0  0  0  0  0
    2.0969   -3.0162   -0.7977 N   0  0  0  0  0  0  0  0  0  0  0  0
    3.0500    1.6202    0.0200 S   0  0  0  0  0  0  0  0  0  0  0  0
    1.3524    1.2880   -0.0283 C   0  0  0  0  0  0  0  0  0  0  0  0
    1.0985   -0.0835    0.1383 C   0  0  0  0  0  0  0  0  0  0  0  0
    2.3079   -0.8499    0.3021 C   0  0  0  0  0  0  0  0  0  0  0  0
    0.3200    2.2059   -0.1944 C   0  0  0  0  0  0  0  0  0  0  0  0
   -0.9824    1.7481   -0.1942 C   0  0  0  0  0  0  0  0  0  0  0  0
    2.3349   -2.3382    0.4731 C   0  0  0  0  0  0  0  0  0  0  0  0
   -1.2385    0.3824   -0.0245 C   0  0  0  0  0  0  0  0  0  0  0  0
   -0.2256   -0.5377    0.1406 C   0  0  0  0  0  0  0  0  0  0  0  0
   -3.0327   -0.2101   -0.0235 Br  0  0  0  0  0  0  0  0  0  0  0  0
    0.5227    3.2612   -0.3205 H   0  0  0  0  0  0  0  0  0  0  0  0
   -1.7946    2.4503   -0.3221 H   0  0  0  0  0  0  0  0  0  0  0  0
   -0.4412   -1.5902    0.2750 H   0  0  0  0  0  0  0  0  0  0  0  0
    4.4316   -0.3698    0.3551 H   0  0  0  0  0  0  0  0  0  0  0  0
    1.6213   -2.6154    1.2611 H   0  0  0  0  0  0  0  0  0  0  0  0
    3.3204   -2.6330    0.8364 H   0  0  0  0  0  0  0  0  0  0  0  0
    2.1403   -4.0163   -0.6437 H   0  0  0  0  0  0  0  0  0  0  0  0
    1.1517   -2.8351   -1.1137 H   0  0  0  0  0  0  0  0  0  0  0  0
  7  8  1  0
  7  4  2  0
  8 10  2  0
 11  5  2  0
 11 10  1  0
  1  6  2  0
  1  3  1  0
  5  6  1  0
  5  4  1  0
  6  9  1  0
  4  3  1  0
 10 12  1  0
  9  2  1  0
  7 13  1  0
  8 14  1  0
 11 15  1  0
  1 16  1  0
  9 17  1  0
  9 18  1  0
  2 19  1  0
  2 20  1  0
M  END
