
     RDKit          3D

 41 44  0  0  0  0  0  0  0  0999 V2000
   -1.3287    2.5641    0.8547 C   0  0  0  0  0  0  0  0  0  0  0  0
   -2.5694    3.0096    0.6135 C   0  0  0  0  0  0  0  0  0  0  0  0
   -5.3301    1.0858   -0.5505 C   0  0  0  0  0  0  0  0  0  0  0  0
   -4.8093    2.3076   -0.1342 C   0  0  0  0  0  0  0  0  0  0  0  0
   -1.6597   -3.3486    0.7327 C   0  0  0  0  0  0  0  0  0  0  0  0
   -1.9665   -2.0114    0.9233 C   0  0  0  0  0  0  0  0  0  0  0  0
   -1.5287   -1.0564    0.0097 C   0  0  0  0  0  0  0  0  0  0  0  0
   -1.8840    0.3586    0.2251 C   0  0  0  0  0  0  0  0  0  0  0  0
   -0.9268   -3.7052   -0.3835 C   0  0  0  0  0  0  0  0  0  0  0  0
    5.4143    0.2665    0.2053 C   0  0  0  0  0  0  0  0  0  0  0  0
    4.9439    0.7899   -0.9873 C   0  0  0  0  0  0  0  0  0  0  0  0
    1.2923    1.1233   -0.2002 C   0  0  0  0  0  0  0  0  0  0  0  0
    2.7243    0.8116   -0.0346 C   0  0  0  0  0  0  0  0  0  0  0  0
    3.5942    1.0603   -1.0998 C   0  0  0  0  0  0  0  0  0  0  0  0
    0.8335    1.5769   -1.2228 O   0  0  0  0  0  0  0  0  0  0  0  0
    4.5844    0.0044    1.2793 C   0  0  0  0  0  0  0  0  0  0  0  0
    3.2347    0.2812    1.1514 C   0  0  0  0  0  0  0  0  0  0  0  0
   -0.9925    1.2344    0.6833 N   0  0  0  0  0  0  0  0  0  0  0  0
   -0.6338   -4.9947   -0.5759 F   0  0  0  0  0  0  0  0  0  0  0  0
   -0.4921   -2.7783   -1.3127 C   0  0  0  0  0  0  0  0  0  0  0  0
   -0.7972   -1.4427   -1.1103 C   0  0  0  0  0  0  0  0  0  0  0  0
   -3.1785    0.7848   -0.0350 C   0  0  0  0  0  0  0  0  0  0  0  0
   -4.3202    0.1328   -0.4953 C   0  0  0  0  0  0  0  0  0  0  0  0
   -3.5189    2.1271    0.1748 N   0  0  0  0  0  0  0  0  0  0  0  0
   -0.5509    3.2224    1.2045 H   0  0  0  0  0  0  0  0  0  0  0  0
   -2.8537    4.0407    0.7507 H   0  0  0  0  0  0  0  0  0  0  0  0
   -6.3488    0.9253   -0.8635 H   0  0  0  0  0  0  0  0  0  0  0  0
   -5.2771    3.2743   -0.0459 H   0  0  0  0  0  0  0  0  0  0  0  0
   -1.9876   -4.0986    1.4399 H   0  0  0  0  0  0  0  0  0  0  0  0
   -2.5407   -1.7129    1.7906 H   0  0  0  0  0  0  0  0  0  0  0  0
    5.6224    0.9827   -1.8074 H   0  0  0  0  0  0  0  0  0  0  0  0
    3.2133    1.4700   -2.0251 H   0  0  0  0  0  0  0  0  0  0  0  0
    4.9835   -0.4054    2.1969 H   0  0  0  0  0  0  0  0  0  0  0  0
    2.5941    0.0742    1.9986 H   0  0  0  0  0  0  0  0  0  0  0  0
    0.4130   -0.1924    1.2810 H   0  0  0  0  0  0  0  0  0  0  0  0
    0.7032    1.4335    1.8539 H   0  0  0  0  0  0  0  0  0  0  0  0
    0.0680   -3.0908   -2.1835 H   0  0  0  0  0  0  0  0  0  0  0  0
   -0.4790   -0.7107   -1.8402 H   0  0  0  0  0  0  0  0  0  0  0  0
   -4.3889   -0.9112   -0.7536 H   0  0  0  0  0  0  0  0  0  0  0  0
    0.3770    0.8560    0.9877 C   0  0  0  0  0  0  0  0  0  0  0  0
    6.7181    0.0073    0.3224 F   0  0  0  0  0  0  0  0  0  0  0  0
 41 10  1  0
 10 11  2  0
 10 16  1  0
 11 14  1  0
 16 17  2  0
 14 13  2  0
  2 24  1  0
  2  1  2  0
  4 24  1  0
  4  3  2  0
 17 13  1  0
 24 22  1  0
 13 12  1  0
  1 18  1  0
  3 23  1  0
 22 23  2  0
 22  8  1  0
 18  8  2  0
 18 40  1  0
 12 15  2  0
 12 40  1  0
  8  7  1  0
  7  6  1  0
  7 21  2  0
  6  5  2  0
 21 20  1  0
  5  9  1  0
 20  9  2  0
  9 19  1  0
  1 25  1  0
  2 26  1  0
  3 27  1  0
  4 28  1  0
  5 29  1  0
  6 30  1  0
 11 31  1  0
 14 32  1  0
 16 33  1  0
 17 34  1  0
 40 35  1  0
 40 36  1  0
 20 37  1  0
 21 38  1  0
 23 39  1  0
M  CHG  1  18   1
M  END
