
     RDKit          3D

 60 64  0  0  0  0  0  0  0  0999 V2000
   -5.2722    0.7928   -0.5156 C   0  0  0  0  0  0  0  0  0  0  0  0
   -5.2291   -0.4943    0.0307 C   0  0  0  0  0  0  0  0  0  0  0  0
   -6.1796   -1.4050   -0.4826 C   0  0  0  0  0  0  0  0  0  0  0  0
   -7.0023   -0.9970   -1.4516 N   0  0  0  0  0  0  0  0  0  0  0  0
   -6.1019    1.2128   -1.4766 N   0  0  0  0  0  0  0  0  0  0  0  0
   -2.5037    3.0854   -0.5664 C   0  0  0  0  0  0  0  0  0  0  0  0
   -2.0661    4.4415    0.0255 C   0  0  0  0  0  0  0  0  0  0  0  0
   -3.3111    5.0173    0.7171 C   0  0  0  0  0  0  0  0  0  0  0  0
   -4.1095    3.7842    1.1202 C   0  0  0  0  0  0  0  0  0  0  0  0
   -3.9629    2.8927   -0.1114 C   0  0  2  0  0  0  0  0  0  0  0  0
   -4.3224    1.5098    0.1088 N   0  0  0  0  0  0  0  0  0  0  0  0
   -3.6684    0.7640    1.0141 N   0  0  0  0  0  0  0  0  0  0  0  0
   -6.9138    0.2605   -1.8842 C   0  0  0  0  0  0  0  0  0  0  0  0
   -6.2956   -2.6675   -0.0602 N   0  0  0  0  0  0  0  0  0  0  0  0
   -4.1820   -0.4403    0.9895 C   0  0  0  0  0  0  0  0  0  0  0  0
   -3.5898   -1.5304    1.8274 C   0  0  0  0  0  0  0  0  0  0  0  0
   -2.4336   -2.1874    1.1109 C   0  0  0  0  0  0  0  0  0  0  0  0
   -1.1578   -1.6606    1.2508 C   0  0  0  0  0  0  0  0  0  0  0  0
   -2.6265   -3.2794    0.2709 C   0  0  0  0  0  0  0  0  0  0  0  0
   -1.5438   -3.8252   -0.4012 C   0  0  0  0  0  0  0  0  0  0  0  0
   -0.2643   -3.3083   -0.2580 C   0  0  0  0  0  0  0  0  0  0  0  0
   -0.0640   -2.2078    0.5770 C   0  0  0  0  0  0  0  0  0  0  0  0
    1.1809   -1.6259    0.8292 N   0  0  0  0  0  0  0  0  0  0  0  0
    2.3097   -1.7061    0.0630 C   0  0  0  0  0  0  0  0  0  0  0  0
    2.3912   -2.3519   -0.9653 O   0  0  0  0  0  0  0  0  0  0  0  0
    3.3508   -0.9818    0.5865 N   0  0  0  0  0  0  0  0  0  0  0  0
    4.6211   -0.8273    0.0339 C   0  0  0  0  0  0  0  0  0  0  0  0
    5.3400    0.3090    0.4129 C   0  0  0  0  0  0  0  0  0  0  0  0
    5.2185   -1.7508   -0.8243 C   0  0  0  0  0  0  0  0  0  0  0  0
    6.5035   -1.5210   -1.2939 C   0  0  0  0  0  0  0  0  0  0  0  0
    7.2201   -0.3974   -0.9205 C   0  0  0  0  0  0  0  0  0  0  0  0
    6.6260    0.5157   -0.0562 C   0  0  0  0  0  0  0  0  0  0  0  0
    7.4128    1.7086    0.3890 C   0  0  1  0  0  0  0  0  0  0  0  0
    8.3432    1.3709    1.2955 F   0  0  0  0  0  0  0  0  0  0  0  0
    8.0649    2.2841   -0.6293 F   0  0  0  0  0  0  0  0  0  0  0  0
    6.6516    2.6532    0.9497 F   0  0  0  0  0  0  0  0  0  0  0  0
   -1.8852    2.2745   -0.1800 H   0  0  0  0  0  0  0  0  0  0  0  0
   -1.2732    4.2890    0.7592 H   0  0  0  0  0  0  0  0  0  0  0  0
   -1.6682    5.1161   -0.7324 H   0  0  0  0  0  0  0  0  0  0  0  0
   -3.0648    5.6580    1.5643 H   0  0  0  0  0  0  0  0  0  0  0  0
   -3.8934    5.6196    0.0148 H   0  0  0  0  0  0  0  0  0  0  0  0
   -3.6499    3.2993    1.9858 H   0  0  0  0  0  0  0  0  0  0  0  0
   -5.1518    3.9939    1.3638 H   0  0  0  0  0  0  0  0  0  0  0  0
   -4.6405    3.2485   -0.8890 H   0  0  0  0  0  0  0  0  0  0  0  0
   -7.6099    0.5289   -2.6725 H   0  0  0  0  0  0  0  0  0  0  0  0
   -5.8343   -2.9923    0.7700 H   0  0  0  0  0  0  0  0  0  0  0  0
   -7.0514   -3.2314   -0.4119 H   0  0  0  0  0  0  0  0  0  0  0  0
   -3.2443   -1.1026    2.7699 H   0  0  0  0  0  0  0  0  0  0  0  0
   -4.3463   -2.2723    2.0867 H   0  0  0  0  0  0  0  0  0  0  0  0
   -1.0095   -0.8024    1.8979 H   0  0  0  0  0  0  0  0  0  0  0  0
   -3.6126   -3.7067    0.1378 H   0  0  0  0  0  0  0  0  0  0  0  0
   -1.6901   -4.6809   -1.0477 H   0  0  0  0  0  0  0  0  0  0  0  0
    0.5552   -3.7697   -0.7837 H   0  0  0  0  0  0  0  0  0  0  0  0
    1.1932   -0.9921    1.6136 H   0  0  0  0  0  0  0  0  0  0  0  0
    3.1592   -0.3874    1.3790 H   0  0  0  0  0  0  0  0  0  0  0  0
    4.8718    1.0259    1.0755 H   0  0  0  0  0  0  0  0  0  0  0  0
    4.7013   -2.6470   -1.1246 H   0  0  0  0  0  0  0  0  0  0  0  0
    6.9549   -2.2443   -1.9597 H   0  0  0  0  0  0  0  0  0  0  0  0
    8.2224   -0.2462   -1.2980 H   0  0  0  0  0  0  0  0  0  0  0  0
   -2.4276    3.0565   -1.6534 H   0  0  0  0  0  0  0  0  0  0  0  0
  2  1  1  0
  1  5  2  0
  1 11  1  0
  3  2  2  0
 15  2  1  0
 14  3  1  0
  3  4  1  0
  4 13  2  0
 13  5  1  0
 10  6  1  0
  6  7  1  0
  6 60  1  0
  6 37  1  0
  8  7  1  0
  7 38  1  0
  7 39  1  0
  9  8  1  0
  8 40  1  0
  8 41  1  0
  9 10  1  0
  9 42  1  0
  9 43  1  0
 11 10  1  0
 10 44  1  6
 12 11  1  0
 15 12  2  0
 13 45  1  0
 14 46  1  0
 14 47  1  0
 16 15  1  0
 17 16  1  0
 16 48  1  0
 16 49  1  0
 19 17  1  0
 18 17  2  0
 22 18  1  0
 18 50  1  0
 20 19  2  0
 19 51  1  0
 20 21  1  0
 20 52  1  0
 21 22  2  0
 21 53  1  0
 23 22  1  0
 23 24  1  0
 23 54  1  0
 26 24  1  0
 24 25  2  0
 26 27  1  0
 26 55  1  0
 29 27  1  0
 27 28  2  0
 28 32  1  0
 28 56  1  0
 29 30  2  0
 29 57  1  0
 30 31  1  0
 30 58  1  0
 31 32  2  0
 31 59  1  0
 32 33  1  0
 33 35  1  6
 33 34  1  0
 33 36  1  0
M  END
