
     RDKit          3D

 31 31  0  0  0  0  0  0  0  0999 V2000
   40.2744   16.2697   10.9988 O   0  0  0  0  0  0  0  0  0  0  0  0
   41.5660   17.1963   10.8349 P   0  0  2  0  0  0  0  0  0  0  0  0
   41.6138   18.0935    9.6580 O   0  0  0  0  0  0  0  0  0  0  0  0
   42.7497   16.1062   10.8957 O   0  0  0  0  0  0  0  0  0  0  0  0
   41.5917   18.0465   12.4479 C   0  0  2  0  0  0  0  0  0  0  0  0
   39.9806   18.8202   12.8097 P   0  0  1  0  0  0  0  0  0  0  0  0
   40.2566   19.7890   14.0641 O   0  0  0  0  0  0  0  0  0  0  0  0
   39.3374   19.4853   11.6530 O   0  0  0  0  0  0  0  0  0  0  0  0
   39.1973   17.6105   13.4984 O   0  0  0  0  0  0  0  0  0  0  0  0
   42.7281   19.1000   12.4689 C   0  0  0  0  0  0  0  0  0  0  0  0
   44.0748   18.5578   12.1000 C   0  0  0  0  0  0  0  0  0  0  0  0
   44.6442   18.8353   10.8886 C   0  0  0  0  0  0  0  0  0  0  0  0
   45.8773   18.2822   10.4840 C   0  0  0  0  0  0  0  0  0  0  0  0
   46.5037   17.3985   11.3916 C   0  0  0  0  0  0  0  0  0  0  0  0
   45.9420   17.1377   12.5990 C   0  0  0  0  0  0  0  0  0  0  0  0
   44.7520   17.7332   13.0035 N   0  0  0  0  0  0  0  0  0  0  0  0
   44.1689   17.2724   14.2429 C   0  0  0  0  0  0  0  0  0  0  0  0
   40.0068   15.8134   10.1886 H   0  0  0  0  0  0  0  0  0  0  0  0
   43.5912   16.4361   10.5491 H   0  0  0  0  0  0  0  0  0  0  0  0
   41.7625   17.2914   13.2197 H   0  0  0  0  0  0  0  0  0  0  0  0
   40.3274   20.7239   13.8309 H   0  0  0  0  0  0  0  0  0  0  0  0
   38.2421   17.7481   13.5674 H   0  0  0  0  0  0  0  0  0  0  0  0
   42.7549   19.5655   13.4564 H   0  0  0  0  0  0  0  0  0  0  0  0
   42.4922   19.8974   11.7631 H   0  0  0  0  0  0  0  0  0  0  0  0
   44.1016   19.4895   10.2191 H   0  0  0  0  0  0  0  0  0  0  0  0
   46.3064   18.5101    9.5201 H   0  0  0  0  0  0  0  0  0  0  0  0
   47.4390   16.9139   11.1454 H   0  0  0  0  0  0  0  0  0  0  0  0
   46.3941   16.4668   13.3147 H   0  0  0  0  0  0  0  0  0  0  0  0
   44.9630   17.0743   14.9607 H   0  0  0  0  0  0  0  0  0  0  0  0
   43.5222   18.0267   14.6833 H   0  0  0  0  0  0  0  0  0  0  0  0
   43.5953   16.3494   14.1141 H   0  0  0  0  0  0  0  0  0  0  0  0
  3  2  2  0
 13 12  1  0
 13 14  2  0
 12 11  2  0
  2  4  1  1
  2  1  1  0
  2  5  1  0
  8  6  2  0
 14 15  1  0
 11 10  1  0
 11 16  1  0
 10  5  1  0
 15 16  2  0
  5  6  1  0
  6  9  1  1
  6  7  1  0
 16 17  1  0
  1 18  1  0
  4 19  1  0
  5 20  1  1
  7 21  1  0
  9 22  1  0
 10 23  1  0
 10 24  1  0
 12 25  1  0
 13 26  1  0
 14 27  1  0
 15 28  1  0
 17 29  1  0
 17 30  1  0
 17 31  1  0
M  CHG  1  16   1
M  END
