
     RDKit          3D

 30 31  0  0  0  0  0  0  0  0999 V2000
   -0.4384    0.7074    0.8575 S   0  0  0  0  0  0  0  0  0  0  0  0
   -1.9894   -0.0196    0.6364 C   0  0  0  0  0  0  0  0  0  0  0  0
   -2.6148   -0.2152    1.8411 C   0  0  0  0  0  0  0  0  0  0  0  0
   -1.8443    0.2049    2.9448 C   0  0  0  0  0  0  0  0  0  0  0  0
   -0.6456    0.7324    2.5510 C   0  0  0  0  0  0  0  0  0  0  0  0
    0.8309    1.5037    3.7786 I   0  0  0  0  0  0  0  0  0  0  0  0
   -2.5709   -0.2861   -0.6857 C   0  0  0  0  0  0  0  0  0  0  0  0
   -3.7659   -0.4769   -0.7985 O   0  0  0  0  0  0  0  0  0  0  0  0
   -1.6801   -0.2761   -1.8744 C   0  0  0  0  0  0  0  0  0  0  0  0
   -2.1226    0.3407   -3.0415 C   0  0  0  0  0  0  0  0  0  0  0  0
   -1.3194    0.3516   -4.1697 C   0  0  0  0  0  0  0  0  0  0  0  0
   -0.0786   -0.2792   -4.1737 C   0  0  0  0  0  0  0  0  0  0  0  0
    0.3446   -0.9234   -3.0137 C   0  0  0  0  0  0  0  0  0  0  0  0
   -0.4399   -0.9149   -1.8724 C   0  0  0  0  0  0  0  0  0  0  0  0
    0.7601   -0.2829   -5.4239 C   0  0  2  0  0  0  0  0  0  0  0  0
    1.0950   -1.7072   -5.8932 C   0  0  0  0  0  0  0  0  0  0  0  0
    2.0272    0.5292   -5.2407 C   0  0  0  0  0  0  0  0  0  0  0  0
    2.4373    0.9587   -4.1931 O   0  0  0  0  0  0  0  0  0  0  0  0
    2.6534    0.7130   -6.3966 O   0  0  0  0  0  0  0  0  0  0  0  0
   -3.5982   -0.6541    1.9314 H   0  0  0  0  0  0  0  0  0  0  0  0
   -2.1623    0.1256    3.9737 H   0  0  0  0  0  0  0  0  0  0  0  0
   -3.0862    0.8333   -3.0639 H   0  0  0  0  0  0  0  0  0  0  0  0
   -1.6678    0.8556   -5.0629 H   0  0  0  0  0  0  0  0  0  0  0  0
    1.2910   -1.4487   -2.9912 H   0  0  0  0  0  0  0  0  0  0  0  0
   -0.0935   -1.4442   -0.9939 H   0  0  0  0  0  0  0  0  0  0  0  0
    0.1900    0.2014   -6.2228 H   0  0  0  0  0  0  0  0  0  0  0  0
    1.7255   -2.2314   -5.1753 H   0  0  0  0  0  0  0  0  0  0  0  0
    0.1745   -2.2763   -6.0137 H   0  0  0  0  0  0  0  0  0  0  0  0
    1.6094   -1.6961   -6.8525 H   0  0  0  0  0  0  0  0  0  0  0  0
    3.4673    1.2197   -6.2560 H   0  0  0  0  0  0  0  0  0  0  0  0
  1  2  1  0
  1  5  1  0
  2  3  2  0
  2  7  1  0
  3  4  1  0
  3 20  1  0
  4  5  2  0
  4 21  1  0
  5  6  1  0
  7  8  2  0
  7  9  1  0
  9 10  2  0
  9 14  1  0
 10 11  1  0
 10 22  1  0
 11 12  2  0
 11 23  1  0
 12 13  1  0
 12 15  1  0
 13 14  2  0
 13 24  1  0
 14 25  1  0
 15 16  1  0
 15 17  1  0
 15 26  1  6
 16 27  1  0
 16 28  1  0
 16 29  1  0
 17 18  2  0
 17 19  1  0
 19 30  1  0
M  END
