
     RDKit          3D

 49 52  0  0  0  0  0  0  0  0999 V2000
    0.8194    4.8168    0.2679 C   0  0  0  0  0  0  0  0  0  0  0  0
    2.1420    5.1865    0.2974 C   0  0  0  0  0  0  0  0  0  0  0  0
   -0.8412   -1.2913    0.2915 C   0  0  2  0  0  0  0  0  0  0  0  0
   -2.1024   -2.1585    0.2620 C   0  0  0  0  0  0  0  0  0  0  0  0
   -3.2297   -1.4333    0.9847 C   0  0  2  0  0  0  0  0  0  0  0  0
   -1.1426    0.2007    0.2431 C   0  0  0  0  0  0  0  0  0  0  0  0
   -0.0838    1.1008    0.2741 C   0  0  0  0  0  0  0  0  0  0  0  0
   -2.6681    2.0653    0.2981 C   0  0  0  0  0  0  0  0  0  0  0  0
   -1.6037    2.9447    0.3283 C   0  0  0  0  0  0  0  0  0  0  0  0
    0.8431    3.4058    0.3154 C   0  0  0  0  0  0  0  0  0  0  0  0
   -4.3767   -2.3404    1.3978 C   0  0  0  0  0  0  0  0  0  0  0  0
    4.1142   -2.7123   -0.4184 C   0  0  0  0  0  0  0  0  0  0  0  0
    3.4078   -2.3046    0.7159 C   0  0  0  0  0  0  0  0  0  0  0  0
    2.0775   -1.9550    0.6363 C   0  0  0  0  0  0  0  0  0  0  0  0
    3.4469   -2.7574   -1.6492 C   0  0  0  0  0  0  0  0  0  0  0  0
    2.1205   -2.4135   -1.7348 C   0  0  0  0  0  0  0  0  0  0  0  0
    1.3935   -2.0085   -0.5941 C   0  0  0  0  0  0  0  0  0  0  0  0
   -2.4481    0.6920    0.2339 C   0  0  0  0  0  0  0  0  0  0  0  0
   -0.2889    2.4758    0.3017 C   0  0  0  0  0  0  0  0  0  0  0  0
   -3.5336   -0.2251    0.1914 N   0  0  0  0  0  0  0  0  0  0  0  0
    6.5988   -3.3613   -0.2489 N   0  0  0  0  0  0  0  0  0  0  0  0
    2.0916    2.9623    0.3695 N   0  0  0  0  0  0  0  0  0  0  0  0
    2.8492    4.0472    0.3575 N   0  0  0  0  0  0  0  0  0  0  0  0
   -0.0317    5.4744    0.2138 H   0  0  0  0  0  0  0  0  0  0  0  0
    2.6162    6.1538    0.2784 H   0  0  0  0  0  0  0  0  0  0  0  0
   -0.3717   -1.4770    1.2585 H   0  0  0  0  0  0  0  0  0  0  0  0
   -2.4139   -2.3657   -0.7663 H   0  0  0  0  0  0  0  0  0  0  0  0
   -1.8821   -3.1194    0.7296 H   0  0  0  0  0  0  0  0  0  0  0  0
   -2.8336   -1.0358    1.9236 H   0  0  0  0  0  0  0  0  0  0  0  0
   -6.0658   -1.3431   -0.2849 H   0  0  0  0  0  0  0  0  0  0  0  0
   -5.9877   -0.9330   -1.9991 H   0  0  0  0  0  0  0  0  0  0  0  0
   -4.9309   -2.1785   -1.3419 H   0  0  0  0  0  0  0  0  0  0  0  0
    0.9320    0.7236    0.2722 H   0  0  0  0  0  0  0  0  0  0  0  0
   -3.6777    2.4489    0.3376 H   0  0  0  0  0  0  0  0  0  0  0  0
   -1.8044    4.0070    0.3806 H   0  0  0  0  0  0  0  0  0  0  0  0
   -4.0124   -2.9648    2.2135 H   0  0  0  0  0  0  0  0  0  0  0  0
   -5.2255   -1.7720    1.7768 H   0  0  0  0  0  0  0  0  0  0  0  0
   -4.7190   -3.0076    0.6113 H   0  0  0  0  0  0  0  0  0  0  0  0
    3.9080   -2.2565    1.6741 H   0  0  0  0  0  0  0  0  0  0  0  0
    1.5797   -1.6333    1.5402 H   0  0  0  0  0  0  0  0  0  0  0  0
    3.9758   -3.0650   -2.5416 H   0  0  0  0  0  0  0  0  0  0  0  0
    1.6198   -2.4553   -2.6946 H   0  0  0  0  0  0  0  0  0  0  0  0
   -0.2836   -1.7190   -1.6754 H   0  0  0  0  0  0  0  0  0  0  0  0
    3.8522    3.9577    0.3896 H   0  0  0  0  0  0  0  0  0  0  0  0
    0.0847   -1.6965   -0.7369 N   0  0  0  0  0  0  0  0  0  0  0  0
   -4.3715   -0.1367   -0.8954 C   0  0  0  0  0  0  0  0  0  0  0  0
    5.4840   -3.0698   -0.3253 C   0  0  0  0  0  0  0  0  0  0  0  0
   -5.3959   -1.2151   -1.1322 C   0  0  0  0  0  0  0  0  0  0  0  0
   -4.3021    0.8090   -1.6622 O   0  0  0  0  0  0  0  0  0  0  0  0
 48 46  1  0
 49 46  2  0
 11  5  1  0
 46 20  1  0
  8  9  2  0
  8 18  1  0
  9 19  1  0
 20 18  1  0
 20  5  1  0
 18  6  2  0
  5  4  1  0
  1 10  1  0
  1  2  2  0
 19 10  1  0
 19  7  2  0
 10 22  2  0
  2 23  1  0
  6  7  1  0
  6  3  1  0
  4  3  1  0
 22 23  1  0
  3 45  1  0
 45 17  1  0
 16 17  2  0
 16 15  1  0
 17 14  1  0
 15 12  2  0
 14 13  2  0
 12 13  1  0
 12 47  1  0
 47 21  3  0
  1 24  1  0
  2 25  1  0
  3 26  1  1
  4 27  1  0
  4 28  1  0
  5 29  1  1
 48 30  1  0
 48 31  1  0
 48 32  1  0
  7 33  1  0
  8 34  1  0
  9 35  1  0
 11 36  1  0
 11 37  1  0
 11 38  1  0
 13 39  1  0
 14 40  1  0
 15 41  1  0
 16 42  1  0
 45 43  1  0
 23 44  1  0
M  END
