
     RDKit          3D

 40 42  0  0  0  0  0  0  0  0999 V2000
    3.9325   -1.5254   -0.6435 C   0  0  0  0  0  0  0  0  0  0  0  0
   -1.1848    0.8910    0.2201 C   0  0  0  0  0  0  0  0  0  0  0  0
   -2.6601    2.9420    0.2010 C   0  0  0  0  0  0  0  0  0  0  0  0
    1.0976    2.4052   -0.0272 C   0  0  0  0  0  0  0  0  0  0  0  0
   -3.9089   -1.3588    1.4168 C   0  0  0  0  0  0  0  0  0  0  0  0
    7.5203   -0.9105    0.1874 C   0  0  0  0  0  0  0  0  0  0  0  0
    6.2782   -1.5638   -0.1313 N   0  0  0  0  0  0  0  0  0  0  0  0
    5.0786   -0.9162   -0.1026 C   0  0  0  0  0  0  0  0  0  0  0  0
    4.9262    0.3516    0.4786 C   0  0  0  0  0  0  0  0  0  0  0  0
    3.6841    0.9623    0.5237 C   0  0  0  0  0  0  0  0  0  0  0  0
    2.5432    0.3589   -0.0036 C   0  0  0  0  0  0  0  0  0  0  0  0
    2.7039   -0.9011   -0.5910 C   0  0  0  0  0  0  0  0  0  0  0  0
    1.2272    1.0174    0.0519 C   0  0  0  0  0  0  0  0  0  0  0  0
    0.0563    0.2719    0.1841 C   0  0  0  0  0  0  0  0  0  0  0  0
   -1.3181    2.2779    0.1458 C   0  0  0  0  0  0  0  0  0  0  0  0
   -0.1446    3.0168    0.0262 C   0  0  0  0  0  0  0  0  0  0  0  0
   -2.3647    0.1083    0.3832 N   0  0  0  0  0  0  0  0  0  0  0  0
   -2.7369   -0.4429    1.6749 C   0  0  0  0  0  0  0  0  0  0  0  0
   -4.0491   -1.5313    0.0687 N   0  0  0  0  0  0  0  0  0  0  0  0
   -2.8976   -0.7899   -0.8878 S   0  0  1  0  0  0  0  0  0  0  0  0
   -3.5157    0.0473   -1.8909 O   0  0  0  0  0  0  0  0  0  0  0  0
   -1.9335   -1.7629   -1.3602 O   0  0  0  0  0  0  0  0  0  0  0  0
    4.0184   -2.4963   -1.1178 H   0  0  0  0  0  0  0  0  0  0  0  0
   -3.1748    2.7295    1.1394 H   0  0  0  0  0  0  0  0  0  0  0  0
   -2.5586    4.0224    0.1154 H   0  0  0  0  0  0  0  0  0  0  0  0
   -3.3096    2.5984   -0.6037 H   0  0  0  0  0  0  0  0  0  0  0  0
    1.9783    3.0234   -0.1477 H   0  0  0  0  0  0  0  0  0  0  0  0
    7.5489   -0.5947    1.2321 H   0  0  0  0  0  0  0  0  0  0  0  0
    8.3320   -1.6175    0.0364 H   0  0  0  0  0  0  0  0  0  0  0  0
    7.7160   -0.0297   -0.4340 H   0  0  0  0  0  0  0  0  0  0  0  0
    6.3404   -2.3558   -0.7482 H   0  0  0  0  0  0  0  0  0  0  0  0
    5.7757    0.8640    0.9104 H   0  0  0  0  0  0  0  0  0  0  0  0
    3.6086    1.9314    1.0025 H   0  0  0  0  0  0  0  0  0  0  0  0
    1.8541   -1.3992   -1.0427 H   0  0  0  0  0  0  0  0  0  0  0  0
    0.1108   -0.8044    0.2880 H   0  0  0  0  0  0  0  0  0  0  0  0
   -0.2055    4.0962   -0.0375 H   0  0  0  0  0  0  0  0  0  0  0  0
   -3.0289    0.3565    2.3566 H   0  0  0  0  0  0  0  0  0  0  0  0
   -1.9295   -1.0184    2.1379 H   0  0  0  0  0  0  0  0  0  0  0  0
   -4.7368   -2.1531   -0.3445 H   0  0  0  0  0  0  0  0  0  0  0  0
   -4.6022   -1.8692    2.2584 O   0  0  0  0  0  0  0  0  0  0  0  0
  1 12  2  0
  1  8  1  0
  4 16  2  0
  4 13  1  0
 12 11  1  0
 16 15  1  0
  7  8  1  0
  7  6  1  0
  8  9  2  0
 11 13  1  0
 11 10  2  0
 13 14  2  0
  9 10  1  0
 15  3  1  0
 15  2  2  0
 14  2  1  0
  2 17  1  0
 18 17  1  0
 18  5  1  0
 20 17  1  1
  5 40  2  0
  5 19  1  0
 21 20  2  0
 20 19  1  0
 20 22  2  0
  1 23  1  0
  3 24  1  0
  3 25  1  0
  3 26  1  0
  4 27  1  0
  6 28  1  0
  6 29  1  0
  6 30  1  0
  7 31  1  0
  9 32  1  0
 10 33  1  0
 12 34  1  0
 14 35  1  0
 16 36  1  0
 18 37  1  0
 18 38  1  0
 19 39  1  0
M  END
