
     RDKit          3D

 31 33  0  0  0  0  0  0  0  0999 V2000
   -2.4775    0.1812    0.2507 C   0  0  0  0  0  0  0  0  0  0  0  0
    0.5853    0.6384   -0.7315 C   0  0  0  0  0  0  0  0  0  0  0  0
   -3.6857   -0.5298    0.1701 C   0  0  0  0  0  0  0  0  0  0  0  0
   -4.9127    0.0397    0.4919 C   0  0  0  0  0  0  0  0  0  0  0  0
    2.0777   -1.1930    0.5703 C   0  0  0  0  0  0  0  0  0  0  0  0
   -4.9132    1.3371    0.9115 C   0  0  0  0  0  0  0  0  0  0  0  0
   -3.7180    2.0623    1.0536 C   0  0  0  0  0  0  0  0  0  0  0  0
   -2.4999    1.4955    0.7324 C   0  0  0  0  0  0  0  0  0  0  0  0
    0.0046   -0.4913   -0.1325 C   0  0  0  0  0  0  0  0  0  0  0  0
    2.6989   -0.0274    0.1410 C   0  0  0  0  0  0  0  0  0  0  0  0
    1.9313    0.8932   -0.5554 C   0  0  0  0  0  0  0  0  0  0  0  0
   -3.3806   -1.8053   -0.2208 N   0  0  0  0  0  0  0  0  0  0  0  0
    0.7823   -1.4046    0.4446 N   0  0  0  0  0  0  0  0  0  0  0  0
   -1.4319   -0.7325   -0.1330 C   0  0  0  0  0  0  0  0  0  0  0  0
   -2.0370   -1.9381   -0.4035 C   0  0  0  0  0  0  0  0  0  0  0  0
   -0.3262    1.6732   -1.7625 Cl  0  0  0  0  0  0  0  0  0  0  0  0
    4.1417    0.2372    0.4319 C   0  0  1  0  0  0  0  0  0  0  0  0
    4.2951    0.9435    1.5546 F   0  0  0  0  0  0  0  0  0  0  0  0
    4.8337   -0.8968    0.5765 F   0  0  0  0  0  0  0  0  0  0  0  0
    4.7206    0.9350   -0.5524 F   0  0  0  0  0  0  0  0  0  0  0  0
   -5.8399   -0.5107    0.4083 H   0  0  0  0  0  0  0  0  0  0  0  0
    2.6391   -1.9907    1.0409 H   0  0  0  0  0  0  0  0  0  0  0  0
   -5.8493    1.8196    1.1607 H   0  0  0  0  0  0  0  0  0  0  0  0
   -3.7657    3.0755    1.4286 H   0  0  0  0  0  0  0  0  0  0  0  0
   -1.5832    2.0542    0.8622 H   0  0  0  0  0  0  0  0  0  0  0  0
    2.3716    1.7826   -0.9863 H   0  0  0  0  0  0  0  0  0  0  0  0
   -4.0453   -2.5137   -0.4742 H   0  0  0  0  0  0  0  0  0  0  0  0
   -1.4161   -3.9136    0.0869 H   0  0  0  0  0  0  0  0  0  0  0  0
   -2.0219   -3.7452   -1.5621 H   0  0  0  0  0  0  0  0  0  0  0  0
   -0.4250   -3.1295   -1.1198 H   0  0  0  0  0  0  0  0  0  0  0  0
   -1.4478   -3.2489   -0.7780 C   0  0  0  0  0  0  0  0  0  0  0  0
 17 18  1  1
 19 17  1  0
 20 17  1  0
 17 10  1  0
 10 11  1  0
 10  5  2  0
 11  2  2  0
  5 13  1  0
  2  9  1  0
  2 16  1  0
 13  9  2  0
  9 14  1  0
 14  1  1  0
 14 15  2  0
  8  1  2  0
  8  7  1  0
  1  3  1  0
 31 15  1  0
 15 12  1  0
  7  6  2  0
  3 12  1  0
  3  4  2  0
  6  4  1  0
  4 21  1  0
  5 22  1  0
  6 23  1  0
  7 24  1  0
  8 25  1  0
 11 26  1  0
 12 27  1  0
 31 28  1  0
 31 29  1  0
 31 30  1  0
M  END
