
     RDKit          3D

 64 67  0  0  0  0  0  0  0  0999 V2000
    6.2630    3.1450    0.4266 C   0  0  0  0  0  0  0  0  0  0  0  0
    6.0723    1.8282    1.6055 S   0  0  1  0  0  0  0  0  0  0  0  0
    7.3998    1.4236    2.0631 O   0  0  0  0  0  0  0  0  0  0  0  0
    5.0804    2.2376    2.5975 O   0  0  0  0  0  0  0  0  0  0  0  0
    5.3910    0.4993    0.6431 C   0  0  0  0  0  0  0  0  0  0  0  0
    4.0144    0.3675    0.5542 C   0  0  0  0  0  0  0  0  0  0  0  0
    6.2544   -0.3673   -0.0121 C   0  0  0  0  0  0  0  0  0  0  0  0
    5.7100   -1.3848   -0.7801 C   0  0  0  0  0  0  0  0  0  0  0  0
    4.3346   -1.5262   -0.8820 C   0  0  0  0  0  0  0  0  0  0  0  0
    3.4684   -0.6558   -0.2186 C   0  0  0  0  0  0  0  0  0  0  0  0
    2.0055   -0.8157   -0.3271 C   0  0  0  0  0  0  0  0  0  0  0  0
    1.4186   -1.1855   -1.5376 C   0  0  0  0  0  0  0  0  0  0  0  0
    0.0466   -1.3265   -1.6459 C   0  0  0  0  0  0  0  0  0  0  0  0
    1.1790   -0.6086    0.7762 C   0  0  0  0  0  0  0  0  0  0  0  0
   -0.1946   -0.7602    0.6775 C   0  0  0  0  0  0  0  0  0  0  0  0
   -0.7632   -1.1037   -0.5399 C   0  0  0  0  0  0  0  0  0  0  0  0
   -2.1668   -1.2659   -0.6749 N   0  0  0  0  0  0  0  0  0  0  0  0
   -2.7621   -2.4831   -0.9036 C   0  0  0  0  0  0  0  0  0  0  0  0
   -4.0928   -2.2311   -1.0472 C   0  0  0  0  0  0  0  0  0  0  0  0
   -5.2250   -3.1895   -1.3015 C   0  0  1  0  0  0  0  0  0  0  0  0
   -5.9529   -2.8021   -2.5846 C   0  0  0  0  0  0  0  0  0  0  0  0
   -4.7098   -4.6230   -1.4010 C   0  0  0  0  0  0  0  0  0  0  0  0
   -6.1875   -3.0840   -0.2603 O   0  0  0  0  0  0  0  0  0  0  0  0
   -4.3145   -0.8876   -0.9155 N   0  0  0  0  0  0  0  0  0  0  0  0
   -3.1584   -0.3241   -0.6970 C   0  0  0  0  0  0  0  0  0  0  0  0
   -2.9445    1.1626   -0.5179 C   0  0  1  0  0  0  0  0  0  0  0  0
   -1.8430    1.6021   -1.5098 C   0  0  0  0  0  0  0  0  0  0  0  0
   -4.2462    1.8900   -0.8887 C   0  0  0  0  0  0  0  0  0  0  0  0
   -2.6618    1.4615    0.9631 C   0  0  0  0  0  0  0  0  0  0  0  0
   -3.1065    0.5498    1.9280 C   0  0  0  0  0  0  0  0  0  0  0  0
   -2.9125    0.7332    3.2862 C   0  0  0  0  0  0  0  0  0  0  0  0
   -2.2566    1.8660    3.7406 C   0  0  0  0  0  0  0  0  0  0  0  0
   -1.8409    2.8130    2.8230 C   0  0  0  0  0  0  0  0  0  0  0  0
   -2.0587    2.6181    1.4632 C   0  0  0  0  0  0  0  0  0  0  0  0
   -1.5721    3.9440    0.4448 Cl  0  0  0  0  0  0  0  0  0  0  0  0
    6.9141    2.8168   -0.3803 H   0  0  0  0  0  0  0  0  0  0  0  0
    5.2876    3.4254    0.0364 H   0  0  0  0  0  0  0  0  0  0  0  0
    6.7130    3.9873    0.9511 H   0  0  0  0  0  0  0  0  0  0  0  0
    3.3643    1.0648    1.0672 H   0  0  0  0  0  0  0  0  0  0  0  0
    7.3274   -0.2602    0.0717 H   0  0  0  0  0  0  0  0  0  0  0  0
    6.3618   -2.0784   -1.2935 H   0  0  0  0  0  0  0  0  0  0  0  0
    3.9310   -2.3409   -1.4697 H   0  0  0  0  0  0  0  0  0  0  0  0
    2.0327   -1.3387   -2.4157 H   0  0  0  0  0  0  0  0  0  0  0  0
   -0.3971   -1.5939   -2.5962 H   0  0  0  0  0  0  0  0  0  0  0  0
    1.6080   -0.3555    1.7372 H   0  0  0  0  0  0  0  0  0  0  0  0
   -0.8152   -0.6218    1.5511 H   0  0  0  0  0  0  0  0  0  0  0  0
   -2.1806   -3.3898   -0.9366 H   0  0  0  0  0  0  0  0  0  0  0  0
   -5.2766   -2.8576   -3.4374 H   0  0  0  0  0  0  0  0  0  0  0  0
   -6.7894   -3.4778   -2.7724 H   0  0  0  0  0  0  0  0  0  0  0  0
   -6.3357   -1.7829   -2.5258 H   0  0  0  0  0  0  0  0  0  0  0  0
   -3.9918   -4.7372   -2.2138 H   0  0  0  0  0  0  0  0  0  0  0  0
   -4.2201   -4.9373   -0.4765 H   0  0  0  0  0  0  0  0  0  0  0  0
   -5.5385   -5.3065   -1.5907 H   0  0  0  0  0  0  0  0  0  0  0  0
   -5.7531   -3.3007    0.5716 H   0  0  0  0  0  0  0  0  0  0  0  0
   -1.9165    1.0043   -2.4197 H   0  0  0  0  0  0  0  0  0  0  0  0
   -1.9681    2.6392   -1.8066 H   0  0  0  0  0  0  0  0  0  0  0  0
   -0.8351    1.4831   -1.1163 H   0  0  0  0  0  0  0  0  0  0  0  0
   -5.0852    1.5563   -0.2808 H   0  0  0  0  0  0  0  0  0  0  0  0
   -4.1155    2.9612   -0.7362 H   0  0  0  0  0  0  0  0  0  0  0  0
   -4.4975    1.7248   -1.9367 H   0  0  0  0  0  0  0  0  0  0  0  0
   -3.6221   -0.3466    1.6098 H   0  0  0  0  0  0  0  0  0  0  0  0
   -3.2712   -0.0129    3.9827 H   0  0  0  0  0  0  0  0  0  0  0  0
   -2.0816    2.0251    4.7961 H   0  0  0  0  0  0  0  0  0  0  0  0
   -1.3536    3.7180    3.1598 H   0  0  0  0  0  0  0  0  0  0  0  0
 20 23  1  1
 22 20  1  0
 20 21  1  0
 20 19  1  0
 18 19  2  0
 18 17  1  0
 19 24  1  0
  4  2  2  0
  2  1  1  6
 17 16  1  0
 17 25  1  0
 24 25  2  0
 15 16  2  0
 15 14  1  0
 16 13  1  0
 25 26  1  0
  2  3  2  0
  2  5  1  0
 14 11  2  0
 13 12  2  0
  6  5  2  0
  6 10  1  0
 11 12  1  0
 11 10  1  0
  5  7  1  0
 10  9  2  0
 35 34  1  0
 26 27  1  6
 26 28  1  0
 26 29  1  0
  7  8  2  0
 29 34  1  0
 29 30  2  0
 34 33  2  0
  9  8  1  0
 30 31  1  0
 33 32  1  0
 31 32  2  0
  1 36  1  0
  1 37  1  0
  1 38  1  0
  6 39  1  0
  7 40  1  0
  8 41  1  0
  9 42  1  0
 12 43  1  0
 13 44  1  0
 14 45  1  0
 15 46  1  0
 18 47  1  0
 21 48  1  0
 21 49  1  0
 21 50  1  0
 22 51  1  0
 22 52  1  0
 22 53  1  0
 23 54  1  0
 27 55  1  0
 27 56  1  0
 27 57  1  0
 28 58  1  0
 28 59  1  0
 28 60  1  0
 30 61  1  0
 31 62  1  0
 32 63  1  0
 33 64  1  0
M  END
