
     RDKit          3D

 38 41  0  0  0  0  0  0  0  0999 V2000
    1.4743   -3.9400   -0.3706 C   0  0  0  0  0  0  0  0  0  0  0  0
    1.4151   -2.5844   -0.2453 N   0  0  0  0  0  0  0  0  0  0  0  0
    0.0987   -2.2600   -0.0863 C   0  0  0  0  0  0  0  0  0  0  0  0
   -0.6754   -3.3244   -0.1017 N   0  0  0  0  0  0  0  0  0  0  0  0
    0.1717   -4.3666   -0.2764 C   0  0  0  0  0  0  0  0  0  0  0  0
    2.3962   -1.6196   -0.2591 C   0  0  0  0  0  0  0  0  0  0  0  0
    2.0005   -0.3333   -0.0898 C   0  0  0  0  0  0  0  0  0  0  0  0
    0.7017    0.0444    0.0793 N   0  0  0  0  0  0  0  0  0  0  0  0
   -0.2283   -0.8735    0.0682 C   0  0  0  0  0  0  0  0  0  0  0  0
   -1.5237   -0.5424    0.1921 N   0  0  0  0  0  0  0  0  0  0  0  0
   -1.9508    0.8149    0.4555 C   0  0  0  0  0  0  0  0  0  0  0  0
   -3.4428    0.9106    0.3246 C   0  0  0  0  0  0  0  0  0  0  0  0
   -4.2831    0.8459    1.4279 C   0  0  0  0  0  0  0  0  0  0  0  0
   -5.6550    0.9148    1.2367 C   0  0  0  0  0  0  0  0  0  0  0  0
   -6.1357    1.0426   -0.0569 C   0  0  0  0  0  0  0  0  0  0  0  0
   -5.3455    1.1055   -1.1238 N   0  0  0  0  0  0  0  0  0  0  0  0
   -4.0362    1.0398   -0.9279 C   0  0  0  0  0  0  0  0  0  0  0  0
    3.0158    0.7388   -0.0604 C   0  0  0  0  0  0  0  0  0  0  0  0
    2.9059    1.8692   -0.8615 C   0  0  0  0  0  0  0  0  0  0  0  0
    3.8396    2.8863   -0.8476 C   0  0  0  0  0  0  0  0  0  0  0  0
    4.9356    2.7792   -0.0022 C   0  0  0  0  0  0  0  0  0  0  0  0
    5.0828    1.6623    0.8082 C   0  0  0  0  0  0  0  0  0  0  0  0
    4.1277    0.6566    0.7766 C   0  0  0  0  0  0  0  0  0  0  0  0
    1.8701    1.9690   -1.7062 F   0  0  0  0  0  0  0  0  0  0  0  0
    2.4023   -4.4674   -0.5100 H   0  0  0  0  0  0  0  0  0  0  0  0
   -0.1811   -5.3851   -0.3279 H   0  0  0  0  0  0  0  0  0  0  0  0
    3.4142   -1.9401   -0.4147 H   0  0  0  0  0  0  0  0  0  0  0  0
   -2.1861   -1.2905    0.3230 H   0  0  0  0  0  0  0  0  0  0  0  0
   -1.6381    1.1410    1.4528 H   0  0  0  0  0  0  0  0  0  0  0  0
   -1.4660    1.4823   -0.2596 H   0  0  0  0  0  0  0  0  0  0  0  0
   -3.8716    0.7461    2.4252 H   0  0  0  0  0  0  0  0  0  0  0  0
   -6.3404    0.8713    2.0716 H   0  0  0  0  0  0  0  0  0  0  0  0
   -7.2030    1.0983   -0.2399 H   0  0  0  0  0  0  0  0  0  0  0  0
   -3.4108    1.0975   -1.8144 H   0  0  0  0  0  0  0  0  0  0  0  0
    3.7136    3.7436   -1.4959 H   0  0  0  0  0  0  0  0  0  0  0  0
    5.6723    3.5708    0.0180 H   0  0  0  0  0  0  0  0  0  0  0  0
    5.9335    1.5770    1.4705 H   0  0  0  0  0  0  0  0  0  0  0  0
    4.2326   -0.2055    1.4231 H   0  0  0  0  0  0  0  0  0  0  0  0
  1  5  2  0
  1  2  1  0
  5  4  1  0
 24 19  1  0
  2  6  1  0
  2  3  1  0
  6  7  2  0
  4  3  2  0
 19 20  2  0
 19 18  1  0
  3  9  1  0
  7 18  1  0
  7  8  1  0
 20 21  1  0
 18 23  2  0
  9  8  2  0
  9 10  1  0
 21 22  2  0
 23 22  1  0
 10 11  1  0
 15 14  1  0
 15 16  2  0
 14 13  2  0
 16 17  1  0
 13 12  1  0
 17 12  2  0
 12 11  1  0
  1 25  1  0
  5 26  1  0
  6 27  1  0
 10 28  1  0
 11 29  1  0
 11 30  1  0
 13 31  1  0
 14 32  1  0
 15 33  1  0
 17 34  1  0
 20 35  1  0
 21 36  1  0
 22 37  1  0
 23 38  1  0
M  END
