
     RDKit          3D

 21 22  0  0  0  0  0  0  0  0999 V2000
    0.1793   -0.2867    0.0892 C   0  0  0  0  0  0  0  0  0  0  0  0
   -1.2634   -0.0608    0.1483 C   0  0  0  0  0  0  0  0  0  0  0  0
    1.0658    0.7899    0.1305 C   0  0  0  0  0  0  0  0  0  0  0  0
    0.6927   -1.5795   -0.0089 C   0  0  0  0  0  0  0  0  0  0  0  0
   -2.2964   -0.9709    0.1564 C   0  0  0  0  0  0  0  0  0  0  0  0
    2.4424    0.6001    0.0724 C   0  0  0  0  0  0  0  0  0  0  0  0
    2.0628   -1.7805   -0.0633 C   0  0  0  0  0  0  0  0  0  0  0  0
    2.9333   -0.7008   -0.0230 C   0  0  0  0  0  0  0  0  0  0  0  0
    3.3800    1.7728    0.0877 C   0  0  0  0  0  0  0  0  0  0  0  0
   -1.8143    1.1757    0.2058 N   0  0  0  0  0  0  0  0  0  0  0  0
   -3.3933   -0.2067    0.2176 N   0  0  0  0  0  0  0  0  0  0  0  0
   -3.0962    1.0763    0.2472 N   0  0  0  0  0  0  0  0  0  0  0  0
    0.6736    1.7966    0.2126 H   0  0  0  0  0  0  0  0  0  0  0  0
    0.0278   -2.4334   -0.0406 H   0  0  0  0  0  0  0  0  0  0  0  0
   -2.3389   -2.0457    0.1266 H   0  0  0  0  0  0  0  0  0  0  0  0
    2.4537   -2.7873   -0.1360 H   0  0  0  0  0  0  0  0  0  0  0  0
    4.0031   -0.8682   -0.0633 H   0  0  0  0  0  0  0  0  0  0  0  0
    3.6399    2.0769   -0.9283 H   0  0  0  0  0  0  0  0  0  0  0  0
    2.9362    2.6364    0.5814 H   0  0  0  0  0  0  0  0  0  0  0  0
    4.3110    1.5307    0.5999 H   0  0  0  0  0  0  0  0  0  0  0  0
   -4.3581   -0.5042    0.2411 H   0  0  0  0  0  0  0  0  0  0  0  0
  1  2  1  0
  1  3  2  0
  1  4  1  0
  2  5  2  0
  2 10  1  0
  3  6  1  0
  3 13  1  0
  4  7  2  0
  4 14  1  0
  5 11  1  0
  5 15  1  0
  6  8  2  0
  6  9  1  0
  7  8  1  0
  7 16  1  0
  8 17  1  0
  9 18  1  0
  9 19  1  0
  9 20  1  0
 10 12  2  0
 11 12  1  0
 11 21  1  0
M  END
