
     RDKit          3D

 37 39  0  0  0  0  0  0  0  0999 V2000
    1.0245    2.1714    1.0378 C   0  0  0  0  0  0  0  0  0  0  0  0
   -4.0029   -0.1898   -0.8330 C   0  0  0  0  0  0  0  0  0  0  0  0
    2.3992    1.9360    0.7124 C   0  0  0  0  0  0  0  0  0  0  0  0
    1.5793   -0.2817    0.1656 C   0  0  0  0  0  0  0  0  0  0  0  0
   -3.5514   -2.2076    0.9959 C   0  0  0  0  0  0  0  0  0  0  0  0
    3.7953   -1.0306   -0.4895 C   0  0  0  0  0  0  0  0  0  0  0  0
    4.9816   -1.7870   -0.9514 C   0  0  0  0  0  0  0  0  0  0  0  0
   -2.9928   -0.0048    0.1294 C   0  0  0  0  0  0  0  0  0  0  0  0
   -2.7773   -1.0596    1.0349 C   0  0  0  0  0  0  0  0  0  0  0  0
   -4.5547   -2.3717    0.0498 C   0  0  0  0  0  0  0  0  0  0  0  0
   -4.7620   -1.3490   -0.8648 C   0  0  0  0  0  0  0  0  0  0  0  0
    2.5997    0.6147    0.2573 N   0  0  0  0  0  0  0  0  0  0  0  0
    0.3493   -0.0543    0.4679 N   0  0  0  0  0  0  0  0  0  0  0  0
    0.0759    1.1997    0.9118 C   0  0  0  0  0  0  0  0  0  0  0  0
    3.8293    0.1901   -0.1106 N   0  0  0  0  0  0  0  0  0  0  0  0
    3.3293    2.7127    0.7815 O   0  0  0  0  0  0  0  0  0  0  0  0
    2.2171   -1.7789   -0.4272 S   0  0  0  0  0  0  0  0  0  0  0  0
   -1.3658    1.4719    1.2545 C   0  0  0  0  0  0  0  0  0  0  0  0
   -2.2765    1.1707    0.1822 N   0  0  0  0  0  0  0  0  0  0  0  0
   -2.2779    2.1017   -0.9322 C   0  0  0  0  0  0  0  0  0  0  0  0
   -1.5369    1.6067   -2.1682 C   0  0  0  0  0  0  0  0  0  0  0  0
    0.7571    3.1608    1.3828 H   0  0  0  0  0  0  0  0  0  0  0  0
   -3.3495   -2.9936    1.7132 H   0  0  0  0  0  0  0  0  0  0  0  0
    5.1638   -2.6461   -0.3061 H   0  0  0  0  0  0  0  0  0  0  0  0
    4.8301   -2.1584   -1.9646 H   0  0  0  0  0  0  0  0  0  0  0  0
    5.8575   -1.1432   -0.9376 H   0  0  0  0  0  0  0  0  0  0  0  0
   -1.9791   -1.0075    1.7602 H   0  0  0  0  0  0  0  0  0  0  0  0
   -5.1495   -3.2747    0.0201 H   0  0  0  0  0  0  0  0  0  0  0  0
   -5.5310   -1.4442   -1.6214 H   0  0  0  0  0  0  0  0  0  0  0  0
   -1.6338    0.9091    2.1502 H   0  0  0  0  0  0  0  0  0  0  0  0
   -1.4724    2.5245    1.5269 H   0  0  0  0  0  0  0  0  0  0  0  0
   -3.3032    2.3736   -1.1966 H   0  0  0  0  0  0  0  0  0  0  0  0
   -1.8164    3.0250   -0.5807 H   0  0  0  0  0  0  0  0  0  0  0  0
   -1.5841    2.3587   -2.9562 H   0  0  0  0  0  0  0  0  0  0  0  0
   -0.4864    1.4130   -1.9519 H   0  0  0  0  0  0  0  0  0  0  0  0
   -1.9729    0.6875   -2.5593 H   0  0  0  0  0  0  0  0  0  0  0  0
   -4.2138    0.5765   -1.5654 H   0  0  0  0  0  0  0  0  0  0  0  0
 16  3  2  0
  7  6  1  0
 15  6  2  0
 15 12  1  0
  3 12  1  0
  3  1  1  0
  6 17  1  0
 12  4  1  0
 21 20  1  0
  1 14  2  0
  4 17  1  0
  4 13  2  0
 14 13  1  0
 14 18  1  0
 20 19  1  0
 18 19  1  0
 19  8  1  0
  8  2  2  0
  8  9  1  0
  2 11  1  0
  9  5  2  0
 11 10  2  0
  5 10  1  0
  1 22  1  0
  2 37  1  0
  5 23  1  0
  7 24  1  0
  7 25  1  0
  7 26  1  0
  9 27  1  0
 10 28  1  0
 11 29  1  0
 18 30  1  0
 18 31  1  0
 20 32  1  0
 20 33  1  0
 21 34  1  0
 21 35  1  0
 21 36  1  0
M  END
