
     RDKit          3D

 41 44  0  0  0  0  0  0  0  0999 V2000
    2.0123   -1.6843    0.9390 O   0  0  0  0  0  0  0  0  0  0  0  0
    1.4099   -0.6181    0.9330 C   0  0  0  0  0  0  0  0  0  0  0  0
    0.0187   -0.4361    0.6240 C   0  0  0  0  0  0  0  0  0  0  0  0
   -0.8964   -1.3858    0.2857 N   0  0  0  0  0  0  0  0  0  0  0  0
   -0.6830   -2.8141    0.1573 C   0  0  0  0  0  0  0  0  0  0  0  0
   -2.0845   -0.7449    0.0917 C   0  0  0  0  0  0  0  0  0  0  0  0
   -3.4007   -1.1205   -0.2786 C   0  0  0  0  0  0  0  0  0  0  0  0
   -4.1894   -0.0136   -0.3088 C   0  0  0  0  0  0  0  0  0  0  0  0
   -5.9116    0.0936   -0.7058 S   0  0  0  0  0  0  0  0  0  0  0  0
   -6.5636   -0.2858    0.9349 C   0  0  0  0  0  0  0  0  0  0  0  0
   -6.1499    1.5660   -0.9265 O   0  0  0  0  0  0  0  0  0  0  0  0
   -3.3895    1.4828    0.0623 S   0  0  0  0  0  0  0  0  0  0  0  0
   -1.9246    0.6176    0.3068 C   0  0  0  0  0  0  0  0  0  0  0  0
   -0.5723    0.8253    0.6455 C   0  0  0  0  0  0  0  0  0  0  0  0
    0.2414    1.9349    0.9800 C   0  0  0  0  0  0  0  0  0  0  0  0
    1.4913    1.7958    1.2641 N   0  0  0  0  0  0  0  0  0  0  0  0
    2.0381    0.5716    1.2465 N   0  0  0  0  0  0  0  0  0  0  0  0
    3.4643    0.5316    1.5494 C   0  0  0  0  0  0  0  0  0  0  0  0
    4.3143    0.3789    0.3135 C   0  0  0  0  0  0  0  0  0  0  0  0
    5.1586   -0.7125    0.1844 C   0  0  0  0  0  0  0  0  0  0  0  0
    4.2711    1.3471   -0.6881 C   0  0  0  0  0  0  0  0  0  0  0  0
    5.0835    1.2028   -1.8032 C   0  0  0  0  0  0  0  0  0  0  0  0
    5.9368    0.1177   -1.9321 C   0  0  0  0  0  0  0  0  0  0  0  0
    5.9883   -0.8614   -0.9343 C   0  0  0  0  0  0  0  0  0  0  0  0
    6.7880   -1.9770   -1.0740 N   0  0  0  0  0  0  0  0  0  0  0  0
    0.0701   -3.0257   -0.5965 H   0  0  0  0  0  0  0  0  0  0  0  0
   -0.3759   -3.2472    1.1054 H   0  0  0  0  0  0  0  0  0  0  0  0
   -1.6176   -3.2757   -0.1470 H   0  0  0  0  0  0  0  0  0  0  0  0
   -3.7480   -2.1187   -0.5034 H   0  0  0  0  0  0  0  0  0  0  0  0
   -6.1493    0.4122    1.6604 H   0  0  0  0  0  0  0  0  0  0  0  0
   -7.6466   -0.1831    0.8840 H   0  0  0  0  0  0  0  0  0  0  0  0
   -6.3057   -1.3107    1.1941 H   0  0  0  0  0  0  0  0  0  0  0  0
   -0.1470    2.9441    1.0158 H   0  0  0  0  0  0  0  0  0  0  0  0
    3.6906    1.4694    2.0534 H   0  0  0  0  0  0  0  0  0  0  0  0
    3.6584   -0.2766    2.2532 H   0  0  0  0  0  0  0  0  0  0  0  0
    5.1772   -1.4675    0.9624 H   0  0  0  0  0  0  0  0  0  0  0  0
    3.6194    2.2071   -0.5967 H   0  0  0  0  0  0  0  0  0  0  0  0
    5.0607    1.9514   -2.5851 H   0  0  0  0  0  0  0  0  0  0  0  0
    6.5674    0.0263   -2.8088 H   0  0  0  0  0  0  0  0  0  0  0  0
    7.5780   -1.8694   -1.6897 H   0  0  0  0  0  0  0  0  0  0  0  0
    7.0481   -2.4370   -0.2163 H   0  0  0  0  0  0  0  0  0  0  0  0
 25 24  1  0
  5  4  1  0
 24 23  1  0
 24 20  2  0
 23 22  2  0
 11  9  2  0
  7  6  1  0
  7  8  2  0
 20 19  1  0
  4  6  1  0
  4  3  1  0
  9  8  1  0
  9 10  1  1
  6 13  2  0
 22 21  1  0
  8 12  1  0
  1  2  2  0
  3  2  1  0
  3 14  2  0
  2 17  1  0
 19 21  2  0
 19 18  1  0
 13 12  1  0
 13 14  1  0
 14 15  1  0
 17 18  1  0
 17 16  1  0
 15 16  2  0
  5 26  1  0
  5 27  1  0
  5 28  1  0
  7 29  1  0
 10 30  1  0
 10 31  1  0
 10 32  1  0
 15 33  1  0
 18 34  1  0
 18 35  1  0
 20 36  1  0
 21 37  1  0
 22 38  1  0
 23 39  1  0
 25 40  1  0
 25 41  1  0
M  END
