
     RDKit          3D

 35 36  0  0  0  0  0  0  0  0999 V2000
    5.3773    1.8270   -0.6976 N   0  0  0  0  0  0  0  0  0  0  0  0
   -2.6741   -0.5785    0.6064 C   0  0  0  0  0  0  0  0  0  0  0  0
   -4.3792    1.5641   -1.7829 C   0  0  0  0  0  0  0  0  0  0  0  0
   -4.1197    0.7444   -0.6626 O   0  0  0  0  0  0  0  0  0  0  0  0
   -2.8665    0.2774   -0.4971 C   0  0  0  0  0  0  0  0  0  0  0  0
   -1.7886    0.5751   -1.3135 C   0  0  0  0  0  0  0  0  0  0  0  0
   -0.5292    0.0365   -1.0543 C   0  0  0  0  0  0  0  0  0  0  0  0
   -0.3301   -0.8095    0.0208 C   0  0  0  0  0  0  0  0  0  0  0  0
    2.1904   -0.5534    0.0291 C   0  0  0  0  0  0  0  0  0  0  0  0
    3.1171   -0.8161   -0.9511 C   0  0  0  0  0  0  0  0  0  0  0  0
    4.1854   -0.0649   -1.2132 N   0  0  0  0  0  0  0  0  0  0  0  0
    4.3252    1.0118   -0.4410 C   0  0  0  0  0  0  0  0  0  0  0  0
    3.5034    1.3853    0.5397 N   0  0  0  0  0  0  0  0  0  0  0  0
    2.4436    0.6202    0.7793 C   0  0  0  0  0  0  0  0  0  0  0  0
    1.6359    0.9877    1.7947 N   0  0  0  0  0  0  0  0  0  0  0  0
   -1.4162   -1.1059    0.8507 C   0  0  0  0  0  0  0  0  0  0  0  0
   -3.6430   -1.6883    2.4597 C   0  0  0  0  0  0  0  0  0  0  0  0
    6.1263    1.4581   -1.2580 H   0  0  0  0  0  0  0  0  0  0  0  0
    5.6421    2.4891    0.0112 H   0  0  0  0  0  0  0  0  0  0  0  0
   -3.8073    2.4957   -1.7511 H   0  0  0  0  0  0  0  0  0  0  0  0
   -4.1620    1.0510   -2.7239 H   0  0  0  0  0  0  0  0  0  0  0  0
   -5.4392    1.8048   -1.7519 H   0  0  0  0  0  0  0  0  0  0  0  0
   -1.9068    1.2322   -2.1646 H   0  0  0  0  0  0  0  0  0  0  0  0
    0.2950    0.2905   -1.7094 H   0  0  0  0  0  0  0  0  0  0  0  0
    1.0360   -1.8087    1.3253 H   0  0  0  0  0  0  0  0  0  0  0  0
    1.1176   -2.3398   -0.3306 H   0  0  0  0  0  0  0  0  0  0  0  0
    2.9926   -1.6998   -1.5721 H   0  0  0  0  0  0  0  0  0  0  0  0
    1.7632    1.9063    2.1859 H   0  0  0  0  0  0  0  0  0  0  0  0
    0.7032    0.6163    1.8517 H   0  0  0  0  0  0  0  0  0  0  0  0
   -1.2565   -1.7684    1.6924 H   0  0  0  0  0  0  0  0  0  0  0  0
   -4.6315   -1.7647    2.9062 H   0  0  0  0  0  0  0  0  0  0  0  0
   -3.3145   -2.6868    2.1592 H   0  0  0  0  0  0  0  0  0  0  0  0
   -2.9479   -1.3018    3.2099 H   0  0  0  0  0  0  0  0  0  0  0  0
    1.0165   -1.4457    0.2924 C   0  0  0  0  0  0  0  0  0  0  0  0
   -3.7677   -0.8176    1.3545 O   0  0  0  0  0  0  0  0  0  0  0  0
 15 14  1  0
 14 13  2  0
 14  9  1  0
 13 12  1  0
 34  9  1  0
 34  8  1  0
  9 10  2  0
 12  1  1  0
 12 11  2  0
  8 16  1  0
  8  7  2  0
 10 11  1  0
 16  2  2  0
  7  6  1  0
 17 35  1  0
  2 35  1  0
  2  5  1  0
  6  5  2  0
  5  4  1  0
  4  3  1  0
  1 18  1  0
  1 19  1  0
  3 20  1  0
  3 21  1  0
  3 22  1  0
  6 23  1  0
  7 24  1  0
 34 25  1  0
 34 26  1  0
 10 27  1  0
 15 28  1  0
 15 29  1  0
 16 30  1  0
 17 31  1  0
 17 32  1  0
 17 33  1  0
M  END
