
     RDKit          3D

 34 35  0  0  0  0  0  0  0  0999 V2000
    0.0066   -0.0447    0.7272 C   0  0  0  0  0  0  0  0  0  0  0  0
   -0.9312   -0.7912    1.4331 C   0  0  0  0  0  0  0  0  0  0  0  0
   -2.1404   -1.6757    0.5866 Cl  0  0  0  0  0  0  0  0  0  0  0  0
   -0.9014   -0.8454    2.8147 C   0  0  0  0  0  0  0  0  0  0  0  0
    0.0756   -0.1501    3.5104 C   0  0  0  0  0  0  0  0  0  0  0  0
    1.0264    0.5917    2.8169 C   0  0  0  0  0  0  0  0  0  0  0  0
    2.2841    1.4511    3.6171 Cl  0  0  0  0  0  0  0  0  0  0  0  0
    0.9885    0.6362    1.4331 C   0  0  0  0  0  0  0  0  0  0  0  0
    0.0031   -0.2192    5.3002 S   0  0  2  0  0  0  0  0  0  0  0  0
   -1.1997   -0.9715    5.6414 O   0  0  0  0  0  0  0  0  0  0  0  0
    0.1468    1.1334    5.8196 O   0  0  0  0  0  0  0  0  0  0  0  0
    1.4125   -1.1958    5.7581 C   0  0  0  0  0  0  0  0  0  0  0  0
   -0.0032    0.0209   -0.7498 C   0  0  0  0  0  0  0  0  0  0  0  0
   -0.9526    0.7645   -1.4432 C   0  0  0  0  0  0  0  0  0  0  0  0
   -2.1541    1.6441   -0.5808 Cl  0  0  0  0  0  0  0  0  0  0  0  0
   -0.9398    0.8205   -2.8250 C   0  0  0  0  0  0  0  0  0  0  0  0
    0.0312    0.1297   -3.5335 C   0  0  0  0  0  0  0  0  0  0  0  0
    0.9926   -0.6102   -2.8526 C   0  0  0  0  0  0  0  0  0  0  0  0
    2.2423   -1.4657   -3.6694 Cl  0  0  0  0  0  0  0  0  0  0  0  0
    0.9721   -0.6561   -1.4685 C   0  0  0  0  0  0  0  0  0  0  0  0
   -0.0619    0.2032   -5.3223 S   0  0  1  0  0  0  0  0  0  0  0  0
    0.0791   -1.1476   -5.8471 O   0  0  0  0  0  0  0  0  0  0  0  0
   -1.2701    0.9537   -5.6477 O   0  0  0  0  0  0  0  0  0  0  0  0
    1.3400    1.1844   -5.7930 C   0  0  0  0  0  0  0  0  0  0  0  0
   -1.6390   -1.4298    3.3458 H   0  0  0  0  0  0  0  0  0  0  0  0
    1.7279    1.2132    0.8942 H   0  0  0  0  0  0  0  0  0  0  0  0
    1.4092   -1.2593    6.8460 H   0  0  0  0  0  0  0  0  0  0  0  0
    1.3088   -2.1882    5.3259 H   0  0  0  0  0  0  0  0  0  0  0  0
    2.3296   -0.7223    5.4193 H   0  0  0  0  0  0  0  0  0  0  0  0
   -1.6858    1.4035   -3.3464 H   0  0  0  0  0  0  0  0  0  0  0  0
    1.7201   -1.2311   -0.9394 H   0  0  0  0  0  0  0  0  0  0  0  0
    1.3218    1.2545   -6.8804 H   0  0  0  0  0  0  0  0  0  0  0  0
    1.2416    2.1739   -5.3534 H   0  0  0  0  0  0  0  0  0  0  0  0
    2.2619    0.7094   -5.4693 H   0  0  0  0  0  0  0  0  0  0  0  0
  1  2  2  0
  1  8  1  0
  1 13  1  0
  2  3  1  0
  2  4  1  0
  4  5  2  0
  4 25  1  0
  5  6  1  0
  5  9  1  0
  6  7  1  0
  6  8  2  0
  8 26  1  0
  9 10  2  0
  9 11  2  0
  9 12  1  1
 12 27  1  0
 12 28  1  0
 12 29  1  0
 13 14  2  0
 13 20  1  0
 14 15  1  0
 14 16  1  0
 16 17  2  0
 16 30  1  0
 17 18  1  0
 17 21  1  0
 18 19  1  0
 18 20  2  0
 20 31  1  0
 21 22  2  0
 21 23  2  0
 21 24  1  6
 24 32  1  0
 24 33  1  0
 24 34  1  0
M  END
