
     RDKit          3D

 41 42  0  0  0  0  0  0  0  0999 V2000
   -0.5378   -0.5279   -0.0771 C   0  0  0  0  0  0  0  0  0  0  0  0
   -3.6467    0.3147   -0.8323 C   0  0  0  0  0  0  0  0  0  0  0  0
   -5.4609    0.2514    0.7571 C   0  0  0  0  0  0  0  0  0  0  0  0
   -4.8513   -0.8267    1.3775 C   0  0  0  0  0  0  0  0  0  0  0  0
    5.1281    0.6365   -1.0855 C   0  0  0  0  0  0  0  0  0  0  0  0
    6.2009    1.4353   -0.7089 C   0  0  0  0  0  0  0  0  0  0  0  0
   -4.8453    0.8262   -0.3622 C   0  0  0  0  0  0  0  0  0  0  0  0
   -6.6327    0.7200    1.2427 O   0  0  0  0  0  0  0  0  0  0  0  0
   -3.6481   -1.3329    0.8984 C   0  0  0  0  0  0  0  0  0  0  0  0
   -3.0304   -0.7720   -0.2118 C   0  0  0  0  0  0  0  0  0  0  0  0
   -1.7063   -1.2808   -0.7076 C   0  0  0  0  0  0  0  0  0  0  0  0
    0.7294   -1.0296   -0.5683 N   0  0  0  0  0  0  0  0  0  0  0  0
    1.8673   -0.3213   -0.0186 C   0  0  0  0  0  0  0  0  0  0  0  0
    3.1861   -0.8838   -0.5559 C   0  0  2  0  0  0  0  0  0  0  0  0
    3.3944   -2.3405   -0.1450 C   0  0  0  0  0  0  0  0  0  0  0  0
    4.3464   -0.0144   -0.1346 C   0  0  0  0  0  0  0  0  0  0  0  0
    6.5083    1.5990    0.6344 C   0  0  0  0  0  0  0  0  0  0  0  0
    5.7351    0.9574    1.5947 C   0  0  0  0  0  0  0  0  0  0  0  0
    4.6668    0.1582    1.2125 C   0  0  0  0  0  0  0  0  0  0  0  0
   -0.6655    0.5522   -0.2550 H   0  0  0  0  0  0  0  0  0  0  0  0
   -0.5682   -0.6635    1.0087 H   0  0  0  0  0  0  0  0  0  0  0  0
   -3.1824    0.7708   -1.7017 H   0  0  0  0  0  0  0  0  0  0  0  0
   -5.3284   -1.2747    2.2408 H   0  0  0  0  0  0  0  0  0  0  0  0
    4.8945    0.5154   -2.1372 H   0  0  0  0  0  0  0  0  0  0  0  0
    6.7967    1.9287   -1.4664 H   0  0  0  0  0  0  0  0  0  0  0  0
   -5.0030    2.2080   -1.6870 H   0  0  0  0  0  0  0  0  0  0  0  0
   -6.9508    1.4531    0.7034 H   0  0  0  0  0  0  0  0  0  0  0  0
   -3.1925   -2.1771    1.4019 H   0  0  0  0  0  0  0  0  0  0  0  0
   -1.6512   -1.1791   -1.7958 H   0  0  0  0  0  0  0  0  0  0  0  0
   -1.6036   -2.3451   -0.4837 H   0  0  0  0  0  0  0  0  0  0  0  0
    0.7475   -0.9325   -1.5781 H   0  0  0  0  0  0  0  0  0  0  0  0
    1.8273    0.7606   -0.2243 H   0  0  0  0  0  0  0  0  0  0  0  0
    1.8403   -0.4249    1.0715 H   0  0  0  0  0  0  0  0  0  0  0  0
    3.1315   -0.8436   -1.6502 H   0  0  0  0  0  0  0  0  0  0  0  0
    2.5564   -2.9556   -0.4704 H   0  0  0  0  0  0  0  0  0  0  0  0
    4.3062   -2.7452   -0.5857 H   0  0  0  0  0  0  0  0  0  0  0  0
    3.4769   -2.4376    0.9395 H   0  0  0  0  0  0  0  0  0  0  0  0
    7.3447    2.2187    0.9316 H   0  0  0  0  0  0  0  0  0  0  0  0
    5.9674    1.0779    2.6452 H   0  0  0  0  0  0  0  0  0  0  0  0
    4.0807   -0.3384    1.9774 H   0  0  0  0  0  0  0  0  0  0  0  0
   -5.4910    1.8745   -0.9262 O   0  0  0  0  0  0  0  0  0  0  0  0
 18 19  1  0
 18 17  2  0
 19 16  2  0
 17  6  1  0
  6  5  2  0
 16  5  1  0
 16 14  1  0
 13 12  1  0
 13 14  1  0
 12  1  1  0
 15 14  1  0
  1 11  1  0
 11 10  1  0
 10  2  2  0
 10  9  1  0
  2  7  1  0
  9  4  2  0
  7 41  1  0
  7  3  2  0
  4  3  1  0
  3  8  1  0
  1 20  1  0
  1 21  1  0
  2 22  1  0
  4 23  1  0
  5 24  1  0
  6 25  1  0
 41 26  1  0
  8 27  1  0
  9 28  1  0
 11 29  1  0
 11 30  1  0
 12 31  1  0
 13 32  1  0
 13 33  1  0
 14 34  1  6
 15 35  1  0
 15 36  1  0
 15 37  1  0
 17 38  1  0
 18 39  1  0
 19 40  1  0
M  END
