
     RDKit          3D

 49 52  0  0  0  0  0  0  0  0999 V2000
    0.6941   -1.2277    0.7238 C   0  0  0  0  0  0  0  0  0  0  0  0
    2.3101   -2.6442    1.1003 C   0  0  0  0  0  0  0  0  0  0  0  0
    3.0743   -1.5265    1.1318 C   0  0  0  0  0  0  0  0  0  0  0  0
    4.5497   -1.4191    1.3447 C   0  0  0  0  0  0  0  0  0  0  0  0
    5.2615   -0.8092    0.1611 C   0  0  0  0  0  0  0  0  0  0  0  0
    5.4433    0.5989    0.0470 C   0  0  0  0  0  0  0  0  0  0  0  0
    2.0554   -0.1523    0.8497 S   0  0  0  0  0  0  0  0  0  0  0  0
    0.9711   -2.4757    0.8723 N   0  0  0  0  0  0  0  0  0  0  0  0
    5.0277    1.5137    1.0468 C   0  0  0  0  0  0  0  0  0  0  0  0
    5.2093    2.8618    0.8938 C   0  0  0  0  0  0  0  0  0  0  0  0
   -6.8638   -0.7072   -0.0439 N   0  0  0  0  0  0  0  0  0  0  0  0
    5.8208    3.3740   -0.2676 C   0  0  0  0  0  0  0  0  0  0  0  0
    6.2425    2.5195   -1.2483 C   0  0  0  0  0  0  0  0  0  0  0  0
   -1.8367   -2.5733    0.4500 O   0  0  0  0  0  0  0  0  0  0  0  0
   -1.7269   -1.3736    0.3525 C   0  0  0  0  0  0  0  0  0  0  0  0
   -2.8982   -0.4626    0.0597 C   0  0  0  0  0  0  0  0  0  0  0  0
   -4.4038   -1.4545    0.1609 S   0  0  0  0  0  0  0  0  0  0  0  0
   -5.6312   -0.2263   -0.1098 C   0  0  0  0  0  0  0  0  0  0  0  0
   -5.2722    1.0202   -0.3459 N   0  0  0  0  0  0  0  0  0  0  0  0
   -6.2572    1.9017   -0.5330 C   0  0  0  0  0  0  0  0  0  0  0  0
   -5.8611    3.3124   -0.8179 C   0  0  0  0  0  0  0  0  0  0  0  0
   -7.5842    1.5041   -0.4766 C   0  0  0  0  0  0  0  0  0  0  0  0
   -7.8537    0.1625   -0.2278 C   0  0  0  0  0  0  0  0  0  0  0  0
   -9.2491   -0.3627   -0.1485 C   0  0  0  0  0  0  0  0  0  0  0  0
   -0.5509   -0.6875    0.4827 N   0  0  0  0  0  0  0  0  0  0  0  0
    5.7034   -1.6279   -0.8466 C   0  0  0  0  0  0  0  0  0  0  0  0
    6.3288   -1.1103   -1.9973 C   0  0  0  0  0  0  0  0  0  0  0  0
    6.5037    0.2378   -2.1339 C   0  0  0  0  0  0  0  0  0  0  0  0
    6.0676    1.1213   -1.1198 C   0  0  0  0  0  0  0  0  0  0  0  0
    2.7005   -3.6425    1.2436 H   0  0  0  0  0  0  0  0  0  0  0  0
    4.7657   -0.8735    2.2656 H   0  0  0  0  0  0  0  0  0  0  0  0
    4.9225   -2.4319    1.5068 H   0  0  0  0  0  0  0  0  0  0  0  0
    4.5707    1.1535    1.9590 H   0  0  0  0  0  0  0  0  0  0  0  0
    4.8853    3.5393    1.6730 H   0  0  0  0  0  0  0  0  0  0  0  0
    5.9591    4.4416   -0.3774 H   0  0  0  0  0  0  0  0  0  0  0  0
    6.7180    2.9041   -2.1424 H   0  0  0  0  0  0  0  0  0  0  0  0
   -2.9361    0.3634    0.7711 H   0  0  0  0  0  0  0  0  0  0  0  0
   -2.7888   -0.0301   -0.9371 H   0  0  0  0  0  0  0  0  0  0  0  0
   -5.4100    3.3799   -1.8094 H   0  0  0  0  0  0  0  0  0  0  0  0
   -6.7151    3.9851   -0.7867 H   0  0  0  0  0  0  0  0  0  0  0  0
   -5.1155    3.6548   -0.1007 H   0  0  0  0  0  0  0  0  0  0  0  0
   -8.3853    2.2156   -0.6194 H   0  0  0  0  0  0  0  0  0  0  0  0
   -9.4347   -0.7939    0.8360 H   0  0  0  0  0  0  0  0  0  0  0  0
   -9.9843    0.4189   -0.3267 H   0  0  0  0  0  0  0  0  0  0  0  0
   -9.3999   -1.1561   -0.8813 H   0  0  0  0  0  0  0  0  0  0  0  0
   -0.5988    0.3170    0.3925 H   0  0  0  0  0  0  0  0  0  0  0  0
    5.5636   -2.6991   -0.7594 H   0  0  0  0  0  0  0  0  0  0  0  0
    6.6650   -1.7873   -2.7717 H   0  0  0  0  0  0  0  0  0  0  0  0
    6.9766    0.6462   -3.0188 H   0  0  0  0  0  0  0  0  0  0  0  0
 17 18  1  0
 17 16  1  0
 11 18  2  0
 11 23  1  0
 24 23  1  0
 10 12  1  0
 10  9  2  0
 18 19  1  0
 12 13  2  0
 23 22  2  0
 16 15  1  0
 14 15  2  0
 15 25  1  0
  9  6  1  0
 19 20  2  0
 13 29  1  0
 22 20  1  0
 25  1  1  0
 20 21  1  0
  7  1  1  0
  7  3  1  0
  1  8  2  0
  6 29  2  0
  6  5  1  0
 29 28  1  0
  8  2  1  0
  3  2  2  0
  3  4  1  0
  4  5  1  0
  5 26  2  0
 28 27  2  0
 26 27  1  0
  2 30  1  0
  4 31  1  0
  4 32  1  0
  9 33  1  0
 10 34  1  0
 12 35  1  0
 13 36  1  0
 16 37  1  0
 16 38  1  0
 21 39  1  0
 21 40  1  0
 21 41  1  0
 22 42  1  0
 24 43  1  0
 24 44  1  0
 24 45  1  0
 25 46  1  0
 26 47  1  0
 27 48  1  0
 28 49  1  0
M  END
