
     RDKit          3D

 39 42  0  0  0  0  0  0  0  0999 V2000
    1.9615   -0.6317    0.3385 C   0  0  0  0  0  0  0  0  0  0  0  0
   -3.0757   -0.3767    1.4830 C   0  0  0  0  0  0  0  0  0  0  0  0
    2.2091   -2.8892   -1.2418 C   0  0  0  0  0  0  0  0  0  0  0  0
   -4.6307    0.7009   -0.4174 C   0  0  0  0  0  0  0  0  0  0  0  0
   -0.4205   -1.1849    0.8660 C   0  0  0  0  0  0  0  0  0  0  0  0
    5.6023    2.9810    1.2006 C   0  0  0  0  0  0  0  0  0  0  0  0
   -2.5071   -0.2551    0.2394 C   0  0  0  0  0  0  0  0  0  0  0  0
    3.2856   -2.0265   -1.0930 C   0  0  0  0  0  0  0  0  0  0  0  0
    1.0083   -2.6262   -0.6017 C   0  0  0  0  0  0  0  0  0  0  0  0
    5.6178   -0.0968   -0.6560 C   0  0  0  0  0  0  0  0  0  0  0  0
    4.3131    0.0258   -0.1375 C   0  0  0  0  0  0  0  0  0  0  0  0
    6.2728    1.0224   -0.2022 C   0  0  0  0  0  0  0  0  0  0  0  0
    3.1778   -0.8861   -0.2989 C   0  0  0  0  0  0  0  0  0  0  0  0
    0.8824   -1.4913    0.1957 C   0  0  0  0  0  0  0  0  0  0  0  0
   -3.3411    0.3097   -0.7448 C   0  0  0  0  0  0  0  0  0  0  0  0
   -4.4209    0.0588    1.7136 C   0  0  0  0  0  0  0  0  0  0  0  0
   -3.2313    0.6142   -2.0549 N   0  0  0  0  0  0  0  0  0  0  0  0
    4.1993    1.1395    0.5741 N   0  0  0  0  0  0  0  0  0  0  0  0
   -5.1957    0.5944    0.7901 N   0  0  0  0  0  0  0  0  0  0  0  0
   -4.3521    1.1450   -2.4989 N   0  0  0  0  0  0  0  0  0  0  0  0
   -5.2069    1.2098   -1.5390 N   0  0  0  0  0  0  0  0  0  0  0  0
    5.3860    1.7246    0.5246 N   0  0  0  0  0  0  0  0  0  0  0  0
   -4.9480   -0.1275    2.9529 N   0  0  0  0  0  0  0  0  0  0  0  0
   -1.2784   -0.6064   -0.1224 O   0  0  0  0  0  0  0  0  0  0  0  0
    1.8630    0.2490    0.9613 H   0  0  0  0  0  0  0  0  0  0  0  0
    2.3111   -3.7717   -1.8595 H   0  0  0  0  0  0  0  0  0  0  0  0
   -0.8812   -2.0944    1.2629 H   0  0  0  0  0  0  0  0  0  0  0  0
   -0.2817   -0.4823    1.6919 H   0  0  0  0  0  0  0  0  0  0  0  0
    5.3980    2.8775    2.2643 H   0  0  0  0  0  0  0  0  0  0  0  0
    6.6384    3.2782    1.0677 H   0  0  0  0  0  0  0  0  0  0  0  0
    4.9567    3.7522    0.7853 H   0  0  0  0  0  0  0  0  0  0  0  0
    4.2149   -2.2512   -1.6009 H   0  0  0  0  0  0  0  0  0  0  0  0
    0.1722   -3.3052   -0.7167 H   0  0  0  0  0  0  0  0  0  0  0  0
    6.0301   -0.8824   -1.2666 H   0  0  0  0  0  0  0  0  0  0  0  0
    7.2871    1.3588   -0.3426 H   0  0  0  0  0  0  0  0  0  0  0  0
   -2.4531    0.4852   -2.6846 H   0  0  0  0  0  0  0  0  0  0  0  0
   -5.7858    0.3856    3.1714 H   0  0  0  0  0  0  0  0  0  0  0  0
   -4.3194   -0.2530    3.7275 H   0  0  0  0  0  0  0  0  0  0  0  0
   -2.5286   -0.8037    2.3125 H   0  0  0  0  0  0  0  0  0  0  0  0
  6 22  1  0
 22 18  1  0
 22 12  1  0
 18 11  2  0
 12 10  2  0
 11 10  1  0
 11 13  1  0
  8 13  1  0
  8  3  2  0
 13  1  2  0
  3  9  1  0
  1 14  1  0
 23 16  1  0
  9 14  2  0
 16 19  1  0
 16  2  2  0
 14  5  1  0
 19  4  2  0
  2  7  1  0
  4 21  1  0
  4 15  1  0
 21 20  2  0
  7 15  2  0
  7 24  1  0
 15 17  1  0
  5 24  1  0
 20 17  1  0
  1 25  1  0
  2 39  1  0
  3 26  1  0
  5 27  1  0
  5 28  1  0
  6 29  1  0
  6 30  1  0
  6 31  1  0
  8 32  1  0
  9 33  1  0
 10 34  1  0
 12 35  1  0
 17 36  1  0
 23 37  1  0
 23 38  1  0
M  END
