
     RDKit          3D

 63 67  0  0  0  0  0  0  0  0999 V2000
   -9.2583   -2.5073   -0.0540 C   0  0  0  0  0  0  0  0  0  0  0  0
  -10.0870   -1.1142    1.5562 C   0  0  0  0  0  0  0  0  0  0  0  0
   -8.8523   -0.4400    1.6337 C   0  0  0  0  0  0  0  0  0  0  0  0
   -8.0354   -1.9189   -0.0490 C   0  0  0  0  0  0  0  0  0  0  0  0
   -7.1805    0.7997    2.0349 C   0  0  0  0  0  0  0  0  0  0  0  0
   -6.7515   -0.0847    1.0541 C   0  0  0  0  0  0  0  0  0  0  0  0
   -5.5248   -0.2391    0.3972 C   0  0  0  0  0  0  0  0  0  0  0  0
   -4.4709   -0.3840   -0.1765 C   0  0  0  0  0  0  0  0  0  0  0  0
   -3.2439   -0.5797   -0.8664 C   0  0  0  0  0  0  0  0  0  0  0  0
   -3.1778   -1.6004   -1.8221 C   0  0  0  0  0  0  0  0  0  0  0  0
   -2.0051   -1.8382   -2.5100 C   0  0  0  0  0  0  0  0  0  0  0  0
   -0.8907   -1.0558   -2.2483 C   0  0  0  0  0  0  0  0  0  0  0  0
   -0.9527   -0.0304   -1.3091 C   0  0  0  0  0  0  0  0  0  0  0  0
   -2.1267    0.2283   -0.5943 C   0  0  0  0  0  0  0  0  0  0  0  0
   -2.2034    1.3122    0.4401 C   0  0  0  0  0  0  0  0  0  0  0  0
    0.2507    0.8437   -1.1326 C   0  0  0  0  0  0  0  0  0  0  0  0
    2.7002    0.6167   -0.7430 C   0  0  0  0  0  0  0  0  0  0  0  0
    3.6565   -0.3405   -0.4046 C   0  0  0  0  0  0  0  0  0  0  0  0
    5.0024   -0.0071   -0.2485 C   0  0  0  0  0  0  0  0  0  0  0  0
    5.3750    1.3267   -0.4617 C   0  0  0  0  0  0  0  0  0  0  0  0
    4.4199    2.2636   -0.8101 C   0  0  0  0  0  0  0  0  0  0  0  0
  -10.2844   -2.1114    0.7430 N   0  0  0  0  0  0  0  0  0  0  0  0
   -7.8417   -0.8775    0.8067 N   0  0  0  0  0  0  0  0  0  0  0  0
   -8.4551    0.5787    2.3817 N   0  0  0  0  0  0  0  0  0  0  0  0
    1.3897    0.1507   -0.8793 N   0  0  0  0  0  0  0  0  0  0  0  0
    0.1858    2.0548   -1.2315 O   0  0  0  0  0  0  0  0  0  0  0  0
    3.0763    1.9404   -0.9532 C   0  0  0  0  0  0  0  0  0  0  0  0
    4.8787    3.6755   -1.0188 C   0  0  1  0  0  0  0  0  0  0  0  0
    7.1900   -1.0046   -0.6321 C   0  0  0  0  0  0  0  0  0  0  0  0
    8.2620   -1.7532    0.1331 C   0  0  0  0  0  0  0  0  0  0  0  0
    6.6045   -2.9805    1.2953 C   0  0  0  0  0  0  0  0  0  0  0  0
    5.5019   -2.2545    0.5477 C   0  0  0  0  0  0  0  0  0  0  0  0
    8.8357   -3.8367    1.1636 C   0  0  0  0  0  0  0  0  0  0  0  0
    5.9542   -0.9396    0.1385 N   0  0  0  0  0  0  0  0  0  0  0  0
    7.8043   -3.0784    0.4927 N   0  0  0  0  0  0  0  0  0  0  0  0
    3.8843    4.5056   -1.3440 F   0  0  0  0  0  0  0  0  0  0  0  0
    5.4594    4.1769    0.0814 F   0  0  0  0  0  0  0  0  0  0  0  0
    5.7909    3.7583   -1.9988 F   0  0  0  0  0  0  0  0  0  0  0  0
   -9.4453   -3.3377   -0.7205 H   0  0  0  0  0  0  0  0  0  0  0  0
  -10.8999   -0.7916    2.1967 H   0  0  0  0  0  0  0  0  0  0  0  0
   -7.2118   -2.2228   -0.6774 H   0  0  0  0  0  0  0  0  0  0  0  0
   -6.5872    1.5809    2.4855 H   0  0  0  0  0  0  0  0  0  0  0  0
   -4.0547   -2.2045   -2.0146 H   0  0  0  0  0  0  0  0  0  0  0  0
   -1.9570   -2.6267   -3.2479 H   0  0  0  0  0  0  0  0  0  0  0  0
    0.0264   -1.2337   -2.7959 H   0  0  0  0  0  0  0  0  0  0  0  0
   -2.3891    2.2836   -0.0199 H   0  0  0  0  0  0  0  0  0  0  0  0
   -3.0097    1.1262    1.1466 H   0  0  0  0  0  0  0  0  0  0  0  0
   -1.2799    1.3925    1.0109 H   0  0  0  0  0  0  0  0  0  0  0  0
    3.3300   -1.3646   -0.2777 H   0  0  0  0  0  0  0  0  0  0  0  0
    6.4057    1.6253   -0.3222 H   0  0  0  0  0  0  0  0  0  0  0  0
    1.2776   -0.8429   -0.7424 H   0  0  0  0  0  0  0  0  0  0  0  0
    2.3476    2.6871   -1.2164 H   0  0  0  0  0  0  0  0  0  0  0  0
    7.5562   -0.0035   -0.8508 H   0  0  0  0  0  0  0  0  0  0  0  0
    7.0118   -1.5043   -1.5950 H   0  0  0  0  0  0  0  0  0  0  0  0
    9.1463   -1.8372   -0.5028 H   0  0  0  0  0  0  0  0  0  0  0  0
    8.5540   -1.1653    1.0211 H   0  0  0  0  0  0  0  0  0  0  0  0
    6.7943   -2.4598    2.2503 H   0  0  0  0  0  0  0  0  0  0  0  0
    6.2520   -3.9845    1.5425 H   0  0  0  0  0  0  0  0  0  0  0  0
    5.1790   -2.8602   -0.3122 H   0  0  0  0  0  0  0  0  0  0  0  0
    4.6486   -2.1525    1.2192 H   0  0  0  0  0  0  0  0  0  0  0  0
    9.1595   -3.3801    2.1116 H   0  0  0  0  0  0  0  0  0  0  0  0
    8.4763   -4.8430    1.3835 H   0  0  0  0  0  0  0  0  0  0  0  0
    9.7119   -3.9261    0.5201 H   0  0  0  0  0  0  0  0  0  0  0  0
 28 38  1  6
 37 28  1  0
 28 36  1  0
 28 21  1  0
 24  5  1  0
 24  3  2  0
  5  6  2  0
 21 27  2  0
 21 20  1  0
 27 17  1  0
 15 14  1  0
  6  7  1  0
  6 23  1  0
 20 19  2  0
  3  2  1  0
  3 23  1  0
  7  8  3  0
 26 16  2  0
 17 25  1  0
 17 18  2  0
  2 22  2  0
 19 18  1  0
 19 34  1  0
 23  4  1  0
 16 25  1  0
 16 13  1  0
 14 13  2  0
 14  9  1  0
  8  9  1  0
 13 12  1  0
 34 32  1  0
 34 29  1  0
  9 10  2  0
 32 31  1  0
 29 30  1  0
 22  1  1  0
  4  1  2  0
 12 11  2  0
 10 11  1  0
 31 35  1  0
 30 35  1  0
 35 33  1  0
  1 39  1  0
  2 40  1  0
  4 41  1  0
  5 42  1  0
 10 43  1  0
 11 44  1  0
 12 45  1  0
 15 46  1  0
 15 47  1  0
 15 48  1  0
 18 49  1  0
 20 50  1  0
 25 51  1  0
 27 52  1  0
 29 53  1  0
 29 54  1  0
 30 55  1  0
 30 56  1  0
 31 57  1  0
 31 58  1  0
 32 59  1  0
 32 60  1  0
 33 61  1  0
 33 62  1  0
 33 63  1  0
M  END
