
     RDKit          3D

 18 18  0  0  0  0  0  0  0  0999 V2000
    2.9309   -1.4892    0.0124 C   0  0  0  0  0  0  0  0  0  0  0  0
    1.8369   -0.4622   -0.0148 C   0  0  0  0  0  0  0  0  0  0  0  0
    2.1334    0.8997   -0.0397 C   0  0  0  0  0  0  0  0  0  0  0  0
    1.1233    1.8512   -0.0376 C   0  0  0  0  0  0  0  0  0  0  0  0
   -0.2067    1.4616   -0.0137 C   0  0  0  0  0  0  0  0  0  0  0  0
   -0.5215    0.1042    0.0070 C   0  0  0  0  0  0  0  0  0  0  0  0
    0.5006   -0.8430    0.0052 C   0  0  0  0  0  0  0  0  0  0  0  0
   -1.9235   -0.3821    0.0274 C   0  0  0  0  0  0  0  0  0  0  0  0
   -2.2308   -1.5506    0.0453 O   0  0  0  0  0  0  0  0  0  0  0  0
   -2.8151    0.5993    0.0240 O   0  0  0  0  0  0  0  0  0  0  0  0
    3.2427   -1.6977    1.0377 H   0  0  0  0  0  0  0  0  0  0  0  0
    2.6060   -2.4311   -0.4277 H   0  0  0  0  0  0  0  0  0  0  0  0
    3.8120   -1.1481   -0.5302 H   0  0  0  0  0  0  0  0  0  0  0  0
    3.1685    1.2205   -0.0623 H   0  0  0  0  0  0  0  0  0  0  0  0
    1.3731    2.9038   -0.0587 H   0  0  0  0  0  0  0  0  0  0  0  0
   -0.9816    2.2149   -0.0154 H   0  0  0  0  0  0  0  0  0  0  0  0
    0.2509   -1.8969    0.0176 H   0  0  0  0  0  0  0  0  0  0  0  0
   -3.7112    0.2315    0.0380 H   0  0  0  0  0  0  0  0  0  0  0  0
  9  8  2  0
  8 10  1  0
  8  6  1  0
  7  6  1  0
  7  2  2  0
  6  5  2  0
  1  2  1  0
  2  3  1  0
  5  4  1  0
  3  4  2  0
  1 11  1  0
  1 12  1  0
  1 13  1  0
  3 14  1  0
  4 15  1  0
  5 16  1  0
  7 17  1  0
 10 18  1  0
M  END
