
     RDKit          3D

 16 16  0  0  0  0  0  0  0  0999 V2000
    1.9674    1.5768   -0.0447 N   0  0  0  0  0  0  0  0  0  0  0  0
    2.4082    0.8413    1.0154 C   0  0  0  0  0  0  0  0  0  0  0  0
    1.4008   -0.0853    1.6070 C   0  0  0  0  0  0  0  0  0  0  0  0
    3.5874    0.8322    1.5024 N   0  0  0  0  0  0  0  0  0  0  0  0
    0.3146   -0.5639    0.8831 C   0  0  0  0  0  0  0  0  0  0  0  0
   -0.5728   -1.4333    1.5022 C   0  0  0  0  0  0  0  0  0  0  0  0
   -0.4494   -1.8361    2.7596 N   0  0  0  0  0  0  0  0  0  0  0  0
    0.5915   -1.3780    3.4481 C   0  0  0  0  0  0  0  0  0  0  0  0
    1.5378   -0.5144    2.9228 C   0  0  0  0  0  0  0  0  0  0  0  0
    2.5744    2.3061   -0.3845 H   0  0  0  0  0  0  0  0  0  0  0  0
    0.9896    1.8127   -0.0933 H   0  0  0  0  0  0  0  0  0  0  0  0
    4.1831    1.5141    1.0404 H   0  0  0  0  0  0  0  0  0  0  0  0
    0.1524   -0.2939   -0.1516 H   0  0  0  0  0  0  0  0  0  0  0  0
   -1.4209   -1.8197    0.9483 H   0  0  0  0  0  0  0  0  0  0  0  0
    0.6793   -1.7140    4.4752 H   0  0  0  0  0  0  0  0  0  0  0  0
    2.3635   -0.1729    3.5309 H   0  0  0  0  0  0  0  0  0  0  0  0
  1  2  1  0
  1 10  1  0
  1 11  1  0
  2  3  1  0
  2  4  2  0
  3  5  2  0
  3  9  1  0
  4 12  1  0
  5  6  1  0
  5 13  1  0
  6  7  2  0
  6 14  1  0
  7  8  1  0
  8  9  2  0
  8 15  1  0
  9 16  1  0
M  END
