
     RDKit          3D

 45 48  0  0  0  0  0  0  0  0999 V2000
   -2.4346    2.6180    1.4323 C   0  0  0  0  0  0  0  0  0  0  0  0
   -4.0299    0.7086    1.3167 N   0  0  0  0  0  0  0  0  0  0  0  0
   -2.9646    1.3886    0.7883 C   0  0  0  0  0  0  0  0  0  0  0  0
   -0.1098    1.0333   -0.5513 N   0  0  0  0  0  0  0  0  0  0  0  0
   -2.5412    0.7506   -0.3491 C   0  0  0  0  0  0  0  0  0  0  0  0
    2.5878    0.2139   -0.1560 N   0  0  0  0  0  0  0  0  0  0  0  0
   -3.3907   -0.3884   -0.5218 C   0  0  0  0  0  0  0  0  0  0  0  0
    4.8335    0.6435   -0.4588 N   0  0  0  0  0  0  0  0  0  0  0  0
   -3.4568   -1.4183   -1.4677 C   0  0  0  0  0  0  0  0  0  0  0  0
   -4.4262   -2.3943   -1.3309 C   0  0  0  0  0  0  0  0  0  0  0  0
   -5.3381   -2.3649   -0.2638 C   0  0  0  0  0  0  0  0  0  0  0  0
   -5.2967   -1.3605    0.6865 C   0  0  0  0  0  0  0  0  0  0  0  0
   -4.3172   -0.3803    0.5449 C   0  0  0  0  0  0  0  0  0  0  0  0
   -1.3963    1.1586   -1.2183 C   0  0  0  0  0  0  0  0  0  0  0  0
    0.9603    1.6042   -1.3394 C   0  0  0  0  0  0  0  0  0  0  0  0
    2.2677    1.5681   -0.5753 C   0  0  0  0  0  0  0  0  0  0  0  0
    1.5049   -0.4496    0.5408 C   0  0  0  0  0  0  0  0  0  0  0  0
    0.2060   -0.3411   -0.2356 C   0  0  0  0  0  0  0  0  0  0  0  0
    3.8935   -0.1200    0.1020 C   0  0  0  0  0  0  0  0  0  0  0  0
    4.2491   -1.2271    0.9009 C   0  0  0  0  0  0  0  0  0  0  0  0
    5.5851   -1.5284    1.0625 C   0  0  0  0  0  0  0  0  0  0  0  0
    6.5582   -0.7400    0.4563 C   0  0  0  0  0  0  0  0  0  0  0  0
    6.1122    0.3374   -0.2856 C   0  0  0  0  0  0  0  0  0  0  0  0
   -2.1907    2.4453    2.4822 H   0  0  0  0  0  0  0  0  0  0  0  0
   -1.5257    2.9388    0.9302 H   0  0  0  0  0  0  0  0  0  0  0  0
   -3.1582    3.4347    1.3964 H   0  0  0  0  0  0  0  0  0  0  0  0
   -4.5190    0.9737    2.1558 H   0  0  0  0  0  0  0  0  0  0  0  0
   -2.7587   -1.4541   -2.2961 H   0  0  0  0  0  0  0  0  0  0  0  0
   -4.4859   -3.1958   -2.0560 H   0  0  0  0  0  0  0  0  0  0  0  0
   -6.0866   -3.1423   -0.1823 H   0  0  0  0  0  0  0  0  0  0  0  0
   -5.9989   -1.3396    1.5103 H   0  0  0  0  0  0  0  0  0  0  0  0
   -1.5063    2.2033   -1.5236 H   0  0  0  0  0  0  0  0  0  0  0  0
   -1.4227    0.5687   -2.1503 H   0  0  0  0  0  0  0  0  0  0  0  0
    1.0889    1.0815   -2.3040 H   0  0  0  0  0  0  0  0  0  0  0  0
    0.7232    2.6461   -1.5679 H   0  0  0  0  0  0  0  0  0  0  0  0
    2.1954    2.2293    0.2993 H   0  0  0  0  0  0  0  0  0  0  0  0
    3.0654    1.9482   -1.2066 H   0  0  0  0  0  0  0  0  0  0  0  0
    1.7240   -1.5099    0.6522 H   0  0  0  0  0  0  0  0  0  0  0  0
    1.3691   -0.0317    1.5478 H   0  0  0  0  0  0  0  0  0  0  0  0
   -0.5899   -0.7687    0.3769 H   0  0  0  0  0  0  0  0  0  0  0  0
    0.2755   -0.9582   -1.1496 H   0  0  0  0  0  0  0  0  0  0  0  0
    3.5088   -1.8352    1.3986 H   0  0  0  0  0  0  0  0  0  0  0  0
    5.8666   -2.3781    1.6717 H   0  0  0  0  0  0  0  0  0  0  0  0
    7.6133   -0.9462    0.5650 H   0  0  0  0  0  0  0  0  0  0  0  0
    6.8244    0.9978   -0.7700 H   0  0  0  0  0  0  0  0  0  0  0  0
  1  3  1  0
  2  3  1  0
  2 13  1  0
  3  5  2  0
  4 14  1  0
  4 15  1  0
  4 18  1  0
  5  7  1  0
  5 14  1  0
  6 16  1  0
  6 17  1  0
  6 19  1  0
  7  9  1  0
  7 13  2  0
  8 19  2  0
  8 23  1  0
  9 10  2  0
 10 11  1  0
 11 12  2  0
 12 13  1  0
 15 16  1  0
 17 18  1  0
 19 20  1  0
 20 21  2  0
 21 22  1  0
 22 23  2  0
  1 24  1  0
  1 25  1  0
  1 26  1  0
  2 27  1  0
  9 28  1  0
 10 29  1  0
 11 30  1  0
 12 31  1  0
 14 32  1  0
 14 33  1  0
 15 34  1  0
 15 35  1  0
 16 36  1  0
 16 37  1  0
 17 38  1  0
 17 39  1  0
 18 40  1  0
 18 41  1  0
 20 42  1  0
 21 43  1  0
 22 44  1  0
 23 45  1  0
M  END
