
     RDKit          3D

 10  9  0  0  0  0  0  0  0  0999 V2000
   -0.1710    0.0739    1.1734 C   0  0  0  0  0  0  0  0  0  0  0  0
   -1.3378    0.1548   -1.1749 O   0  0  0  0  0  0  0  0  0  0  0  0
    1.0052    1.2257   -1.0159 O   0  0  0  0  0  0  0  0  0  0  0  0
    0.8579   -1.3040   -1.0312 O   0  0  0  0  0  0  0  0  0  0  0  0
    0.9409   -0.1812    1.8335 O   0  0  0  0  0  0  0  0  0  0  0  0
   -1.2297    0.3585    1.6562 O   0  0  0  0  0  0  0  0  0  0  0  0
    0.1462   -0.0696   -0.6479 P   0  0  1  0  0  0  0  0  0  0  0  0
   -1.4586    0.0127   -2.1252 H   0  0  0  0  0  0  0  0  0  0  0  0
    0.5406    2.0736   -1.0015 H   0  0  0  0  0  0  0  0  0  0  0  0
    0.8027   -0.1022    2.7924 H   0  0  0  0  0  0  0  0  0  0  0  0
  1  5  1  0
  1  6  2  0
  1  7  1  0
  7  2  1  6
  2  8  1  0
  3  7  1  0
  3  9  1  0
  4  7  2  0
  5 10  1  0
M  END
