
     RDKit          3D

 40 41  0  0  0  0  0  0  0  0999 V2000
    0.7799    3.6734   -1.9918 C   0  0  0  0  0  0  0  0  0  0  0  0
    1.0495    3.2980   -0.6203 N   0  0  0  0  0  0  0  0  0  0  0  0
    0.2233    4.0676    0.2867 C   0  0  0  0  0  0  0  0  0  0  0  0
    0.8988    1.8695   -0.4242 C   0  0  0  0  0  0  0  0  0  0  0  0
    1.5763    1.3951    0.8632 C   0  0  0  0  0  0  0  0  0  0  0  0
    1.5382   -0.0408    1.0399 N   0  0  0  0  0  0  0  0  0  0  0  0
    2.3459   -0.8681    0.3123 C   0  0  0  0  0  0  0  0  0  0  0  0
    3.3727   -0.3635   -0.5164 C   0  0  0  0  0  0  0  0  0  0  0  0
    4.1731   -1.2547   -1.1968 C   0  0  0  0  0  0  0  0  0  0  0  0
    3.9635   -2.6253   -1.0664 C   0  0  0  0  0  0  0  0  0  0  0  0
    2.9305   -3.0211   -0.2394 C   0  0  0  0  0  0  0  0  0  0  0  0
    2.1441   -2.1825    0.4241 N   0  0  0  0  0  0  0  0  0  0  0  0
    0.5133   -0.5662    1.9205 C   0  0  0  0  0  0  0  0  0  0  0  0
   -0.8726   -0.4774    1.3323 C   0  0  0  0  0  0  0  0  0  0  0  0
   -1.2268   -1.2390    0.2201 C   0  0  0  0  0  0  0  0  0  0  0  0
   -2.4848   -1.1295   -0.3487 C   0  0  0  0  0  0  0  0  0  0  0  0
   -1.8125    0.3953    1.8659 C   0  0  0  0  0  0  0  0  0  0  0  0
   -3.0794    0.5198    1.3098 C   0  0  0  0  0  0  0  0  0  0  0  0
   -3.4019   -0.2456    0.2031 C   0  0  0  0  0  0  0  0  0  0  0  0
   -4.9791   -0.1025   -0.5060 Cl  0  0  0  0  0  0  0  0  0  0  0  0
   -0.2549    3.4652   -2.3063 H   0  0  0  0  0  0  0  0  0  0  0  0
    0.9567    4.7416   -2.1266 H   0  0  0  0  0  0  0  0  0  0  0  0
    1.4480    3.1379   -2.6677 H   0  0  0  0  0  0  0  0  0  0  0  0
   -0.8540    3.8835    0.1468 H   0  0  0  0  0  0  0  0  0  0  0  0
    0.4633    3.8452    1.3263 H   0  0  0  0  0  0  0  0  0  0  0  0
    0.4012    5.1332    0.1363 H   0  0  0  0  0  0  0  0  0  0  0  0
   -0.1593    1.5595   -0.4203 H   0  0  0  0  0  0  0  0  0  0  0  0
    1.3647    1.3592   -1.2712 H   0  0  0  0  0  0  0  0  0  0  0  0
    2.6075    1.7567    0.8829 H   0  0  0  0  0  0  0  0  0  0  0  0
    1.0902    1.8351    1.7346 H   0  0  0  0  0  0  0  0  0  0  0  0
    3.5477    0.6967   -0.6255 H   0  0  0  0  0  0  0  0  0  0  0  0
    4.9658   -0.8775   -1.8306 H   0  0  0  0  0  0  0  0  0  0  0  0
    4.5711   -3.3502   -1.5886 H   0  0  0  0  0  0  0  0  0  0  0  0
    2.7135   -4.0755   -0.1032 H   0  0  0  0  0  0  0  0  0  0  0  0
    0.7572   -1.5990    2.1586 H   0  0  0  0  0  0  0  0  0  0  0  0
    0.5418   -0.0010    2.8556 H   0  0  0  0  0  0  0  0  0  0  0  0
   -0.5138   -1.9298   -0.2122 H   0  0  0  0  0  0  0  0  0  0  0  0
   -2.7475   -1.7265   -1.2117 H   0  0  0  0  0  0  0  0  0  0  0  0
   -1.5584    0.9957    2.7314 H   0  0  0  0  0  0  0  0  0  0  0  0
   -3.7981    1.2064    1.7362 H   0  0  0  0  0  0  0  0  0  0  0  0
 20 19  1  0
 18 19  2  0
 18 17  1  0
 19 16  1  0
 17 14  2  0
 16 15  2  0
 14 15  1  0
 14 13  1  0
  3  2  1  0
 13  6  1  0
  6  5  1  0
  6  7  1  0
  2  1  1  0
  2  4  1  0
  5  4  1  0
  7  8  2  0
  7 12  1  0
  8  9  1  0
 12 11  2  0
  9 10  2  0
 11 10  1  0
  1 21  1  0
  1 22  1  0
  1 23  1  0
  3 24  1  0
  3 25  1  0
  3 26  1  0
  4 27  1  0
  4 28  1  0
  5 29  1  0
  5 30  1  0
  8 31  1  0
  9 32  1  0
 10 33  1  0
 11 34  1  0
 13 35  1  0
 13 36  1  0
 15 37  1  0
 16 38  1  0
 17 39  1  0
 18 40  1  0
M  END
