
     RDKit          3D

 25 25  0  0  0  0  0  0  0  0999 V2000
   -0.9663   -0.0026   -0.1894 C   0  0  1  0  0  0  0  0  0  0  0  0
   -0.9750   -0.3593   -1.5435 O   0  0  0  0  0  0  0  0  0  0  0  0
   -0.4008   -1.1845    0.6100 C   0  0  0  0  0  0  0  0  0  0  0  0
    1.3628   -1.9445   -0.8334 O   0  0  0  0  0  0  0  0  0  0  0  0
    1.0950   -1.4099    0.4408 C   0  0  1  0  0  0  0  0  0  0  0  0
    3.2320   -0.3906    0.4725 O   0  0  0  0  0  0  0  0  0  0  0  0
    1.8667   -0.1141    0.6810 C   0  0  1  0  0  0  0  0  0  0  0  0
    2.1403    2.1451    0.0521 O   0  0  0  0  0  0  0  0  0  0  0  0
    1.3593    0.9982   -0.2245 C   0  0  2  0  0  0  0  0  0  0  0  0
   -0.1162    1.2523    0.0624 C   0  0  0  0  0  0  0  0  0  0  0  0
   -2.3815    0.2795    0.3331 C   0  0  0  0  0  0  0  0  0  0  0  0
   -1.2042    0.4107   -2.0752 H   0  0  0  0  0  0  0  0  0  0  0  0
   -0.5859   -1.0059    1.6701 H   0  0  0  0  0  0  0  0  0  0  0  0
   -0.9399   -2.0993    0.3491 H   0  0  0  0  0  0  0  0  0  0  0  0
    2.3202   -1.9772   -0.9358 H   0  0  0  0  0  0  0  0  0  0  0  0
    1.3980   -2.1251    1.2207 H   0  0  0  0  0  0  0  0  0  0  0  0
    3.7012    0.4484    0.4067 H   0  0  0  0  0  0  0  0  0  0  0  0
    1.6862    0.1932    1.7247 H   0  0  0  0  0  0  0  0  0  0  0  0
    2.0560    2.7596   -0.6828 H   0  0  0  0  0  0  0  0  0  0  0  0
    1.4880    0.6928   -1.2698 H   0  0  0  0  0  0  0  0  0  0  0  0
   -0.4809    2.0800   -0.5559 H   0  0  0  0  0  0  0  0  0  0  0  0
   -0.2253    1.5674    1.1033 H   0  0  0  0  0  0  0  0  0  0  0  0
   -4.1745    0.4326   -0.2290 H   0  0  0  0  0  0  0  0  0  0  0  0
   -2.6215    0.5363    1.4874 O   0  0  0  0  0  0  0  0  0  0  0  0
   -3.3065    0.2289   -0.6098 O   0  0  0  0  0  0  0  0  0  0  0  0
 11  1  1  0
  1  2  1  6
  1  3  1  0
  1 10  1  0
  2 12  1  0
  3  5  1  0
  3 13  1  0
  3 14  1  0
  4  5  1  0
  4 15  1  0
  5  7  1  0
  5 16  1  1
  7  6  1  0
  6 17  1  0
  9  7  1  0
  7 18  1  1
  9  8  1  0
  8 19  1  0
 10  9  1  0
  9 20  1  6
 24 11  2  0
 10 21  1  0
 10 22  1  0
 11 25  1  0
 25 23  1  0
M  END
