
     RDKit          3D

 31 33  0  0  0  0  0  0  0  0999 V2000
   -3.5050    2.5718   -0.0179 C   0  0  0  0  0  0  0  0  0  0  0  0
   -2.7979    1.2494   -0.0242 C   0  0  0  0  0  0  0  0  0  0  0  0
   -1.4154    1.1745   -0.0082 C   0  0  0  0  0  0  0  0  0  0  0  0
   -3.5301    0.0561   -0.0480 C   0  0  0  0  0  0  0  0  0  0  0  0
   -4.8687    0.1752   -0.0616 O   0  0  0  0  0  0  0  0  0  0  0  0
   -2.8950   -1.1935   -0.0568 C   0  0  0  0  0  0  0  0  0  0  0  0
   -3.7001   -2.4605   -0.0865 C   0  0  0  0  0  0  0  0  0  0  0  0
   -1.5116   -1.2269   -0.0400 C   0  0  0  0  0  0  0  0  0  0  0  0
   -0.7568   -0.0555   -0.0154 C   0  0  0  0  0  0  0  0  0  0  0  0
    0.6901   -0.1488    0.0017 C   0  0  0  0  0  0  0  0  0  0  0  0
    1.4000    1.0043    0.0286 O   0  0  0  0  0  0  0  0  0  0  0  0
    2.7001    0.6182    0.0395 C   0  0  0  0  0  0  0  0  0  0  0  0
    3.8360    1.3999    0.0657 C   0  0  0  0  0  0  0  0  0  0  0  0
    5.0403    0.7060    0.0705 C   0  0  0  0  0  0  0  0  0  0  0  0
    5.0821   -0.6928    0.0498 C   0  0  0  0  0  0  0  0  0  0  0  0
    3.9240   -1.4559    0.0236 C   0  0  0  0  0  0  0  0  0  0  0  0
    2.7130   -0.7729    0.0184 C   0  0  0  0  0  0  0  0  0  0  0  0
    1.4079   -1.2212   -0.0057 N   0  0  0  0  0  0  0  0  0  0  0  0
   -4.1311    2.6982   -0.9027 H   0  0  0  0  0  0  0  0  0  0  0  0
   -4.1561    2.6774    0.8513 H   0  0  0  0  0  0  0  0  0  0  0  0
   -2.7882    3.3912    0.0018 H   0  0  0  0  0  0  0  0  0  0  0  0
   -0.8505    2.0981    0.0102 H   0  0  0  0  0  0  0  0  0  0  0  0
   -5.2998   -0.6864   -0.0826 H   0  0  0  0  0  0  0  0  0  0  0  0
   -4.3247   -2.5296   -0.9807 H   0  0  0  0  0  0  0  0  0  0  0  0
   -3.0473   -3.3311   -0.0862 H   0  0  0  0  0  0  0  0  0  0  0  0
   -4.3563   -2.5525    0.7826 H   0  0  0  0  0  0  0  0  0  0  0  0
   -1.0076   -2.1851   -0.0465 H   0  0  0  0  0  0  0  0  0  0  0  0
    3.7985    2.4805    0.0813 H   0  0  0  0  0  0  0  0  0  0  0  0
    5.9675    1.2629    0.0916 H   0  0  0  0  0  0  0  0  0  0  0  0
    6.0438   -1.1891    0.0544 H   0  0  0  0  0  0  0  0  0  0  0  0
    3.9605   -2.5369    0.0083 H   0  0  0  0  0  0  0  0  0  0  0  0
  1  2  1  0
  1 19  1  0
  1 20  1  0
  1 21  1  0
  2  3  2  0
  2  4  1  0
  3  9  1  0
  3 22  1  0
  4  6  2  0
  4  5  1  0
  5 23  1  0
  6  8  1  0
  6  7  1  0
  7 24  1  0
  7 25  1  0
  7 26  1  0
  8  9  2  0
  8 27  1  0
  9 10  1  0
 10 18  2  0
 10 11  1  0
 11 12  1  0
 12 13  2  0
 12 17  1  0
 13 14  1  0
 13 28  1  0
 14 15  2  0
 14 29  1  0
 15 16  1  0
 15 30  1  0
 16 17  2  0
 16 31  1  0
 17 18  1  0
M  END
