
     RDKit          3D

 17 18  0  0  0  0  0  0  0  0999 V2000
   -2.3684   -0.0066    0.0242 N   0  0  0  0  0  0  0  0  0  0  0  0
   -2.0384   -1.2923   -0.0024 C   0  0  0  0  0  0  0  0  0  0  0  0
   -0.8250   -1.8239   -0.0073 N   0  0  0  0  0  0  0  0  0  0  0  0
    0.1226   -0.8946    0.0209 C   0  0  0  0  0  0  0  0  0  0  0  0
   -0.0673    0.4795    0.0514 C   0  0  0  0  0  0  0  0  0  0  0  0
   -1.3970    0.9147    0.0533 C   0  0  0  0  0  0  0  0  0  0  0  0
   -1.7344    2.2178    0.1161 N   0  0  0  0  0  0  0  0  0  0  0  0
    1.1338    1.1478    0.0663 N   0  0  0  0  0  0  0  0  0  0  0  0
    2.0310    0.1950    0.0494 C   0  0  0  0  0  0  0  0  0  0  0  0
    3.3724    0.3756    0.1163 N   0  0  0  0  0  0  0  0  0  0  0  0
    1.4795   -1.0584    0.0218 N   0  0  0  0  0  0  0  0  0  0  0  0
   -2.8678   -1.9911   -0.0256 H   0  0  0  0  0  0  0  0  0  0  0  0
   -2.6859    2.4741   -0.0866 H   0  0  0  0  0  0  0  0  0  0  0  0
   -1.0344    2.9109   -0.0862 H   0  0  0  0  0  0  0  0  0  0  0  0
    3.6868    1.3039   -0.1160 H   0  0  0  0  0  0  0  0  0  0  0  0
    3.9568   -0.3499   -0.2669 H   0  0  0  0  0  0  0  0  0  0  0  0
    1.9771   -1.9356    0.0144 H   0  0  0  0  0  0  0  0  0  0  0  0
  1  2  2  0
  1  6  1  0
  2  3  1  0
  3  4  2  0
  4  5  1  0
  4 11  1  0
  5  6  2  0
  5  8  1  0
  6  7  1  0
  8  9  2  0
  9 10  1  0
  9 11  1  0
  2 12  1  0
  7 13  1  0
  7 14  1  0
 10 15  1  0
 10 16  1  0
 11 17  1  0
M  END
