
     RDKit          3D

 59 63  0  0  0  0  0  0  0  0999 V2000
   -5.0615   -0.2953    1.3034 C   0  0  0  0  0  0  0  0  0  0  0  0
   -1.6077   -0.2891   -0.4722 C   0  0  1  0  0  0  0  0  0  0  0  0
   -1.1286    1.1147   -0.1141 C   0  0  0  0  0  0  0  0  0  0  0  0
    2.7637    0.4413   -0.4310 C   0  0  2  0  0  0  0  0  0  0  0  0
    2.8946    0.4016   -1.9607 C   0  0  0  0  0  0  0  0  0  0  0  0
    3.2755    1.7984    0.0817 C   0  0  0  0  0  0  0  0  0  0  0  0
    5.6170    0.8898    0.4611 C   0  0  1  0  0  0  0  0  0  0  0  0
    5.1124   -0.4747    0.0169 C   0  0  0  0  0  0  0  0  0  0  0  0
    3.6142   -0.6540    0.2558 C   0  0  2  0  0  0  0  0  0  0  0  0
    3.1448   -2.0569   -0.1048 C   0  0  0  0  0  0  0  0  0  0  0  0
    1.6862   -2.2586    0.2852 C   0  0  0  0  0  0  0  0  0  0  0  0
    0.7790   -1.1957   -0.3267 C   0  0  1  0  0  0  0  0  0  0  0  0
   -0.6424   -1.2866    0.1969 C   0  0  2  0  0  0  0  0  0  0  0  0
   -1.4221   -2.6007    0.2063 C   0  0  0  0  0  0  0  0  0  0  0  0
   -2.8165   -2.0821    0.4249 C   0  0  0  0  0  0  0  0  0  0  0  0
   -2.9262   -0.7816    0.1207 C   0  0  0  0  0  0  0  0  0  0  0  0
   -4.1468    0.0123    0.2927 C   0  0  0  0  0  0  0  0  0  0  0  0
   -6.2129    0.4575    1.4447 C   0  0  0  0  0  0  0  0  0  0  0  0
   -6.4206    1.5205    0.5779 C   0  0  0  0  0  0  0  0  0  0  0  0
   -5.5619    1.8416   -0.3811 N   0  0  0  0  0  0  0  0  0  0  0  0
   -4.4635    1.1092   -0.5130 C   0  0  0  0  0  0  0  0  0  0  0  0
    0.3350    1.3080   -0.5315 C   0  0  0  0  0  0  0  0  0  0  0  0
    1.2899    0.2268   -0.0047 C   0  0  2  0  0  0  0  0  0  0  0  0
    4.7697    1.9973   -0.1554 C   0  0  0  0  0  0  0  0  0  0  0  0
    5.5726    0.9233    1.8785 O   0  0  0  0  0  0  0  0  0  0  0  0
   -4.8633   -1.1118    1.9862 H   0  0  0  0  0  0  0  0  0  0  0  0
   -1.7327    1.8931   -0.5881 H   0  0  0  0  0  0  0  0  0  0  0  0
   -1.2234    1.2587    0.9675 H   0  0  0  0  0  0  0  0  0  0  0  0
    2.5110    1.3212   -2.4072 H   0  0  0  0  0  0  0  0  0  0  0  0
    3.9303    0.3062   -2.2872 H   0  0  0  0  0  0  0  0  0  0  0  0
    2.3439   -0.4255   -2.4076 H   0  0  0  0  0  0  0  0  0  0  0  0
    2.7366    2.6173   -0.4010 H   0  0  0  0  0  0  0  0  0  0  0  0
    3.0601    1.8793    1.1527 H   0  0  0  0  0  0  0  0  0  0  0  0
    6.6553    1.0123    0.1195 H   0  0  0  0  0  0  0  0  0  0  0  0
    5.3536   -0.6058   -1.0422 H   0  0  0  0  0  0  0  0  0  0  0  0
    5.6636   -1.2585    0.5466 H   0  0  0  0  0  0  0  0  0  0  0  0
    3.4490   -0.5322    1.3350 H   0  0  0  0  0  0  0  0  0  0  0  0
    3.2797   -2.2370   -1.1771 H   0  0  0  0  0  0  0  0  0  0  0  0
    3.7697   -2.7949    0.4071 H   0  0  0  0  0  0  0  0  0  0  0  0
    1.3477   -3.2536   -0.0175 H   0  0  0  0  0  0  0  0  0  0  0  0
    1.5978   -2.2214    1.3781 H   0  0  0  0  0  0  0  0  0  0  0  0
    0.7770   -1.3489   -1.4120 H   0  0  0  0  0  0  0  0  0  0  0  0
   -0.5950   -0.9819    1.2537 H   0  0  0  0  0  0  0  0  0  0  0  0
   -1.3482   -3.1533   -0.7390 H   0  0  0  0  0  0  0  0  0  0  0  0
   -1.0997   -3.2880    0.9910 H   0  0  0  0  0  0  0  0  0  0  0  0
   -3.6297   -2.7091    0.7720 H   0  0  0  0  0  0  0  0  0  0  0  0
   -6.9330    0.2357    2.2205 H   0  0  0  0  0  0  0  0  0  0  0  0
   -7.3086    2.1368    0.6644 H   0  0  0  0  0  0  0  0  0  0  0  0
   -3.8003    1.4089   -1.3157 H   0  0  0  0  0  0  0  0  0  0  0  0
    0.3960    1.3553   -1.6220 H   0  0  0  0  0  0  0  0  0  0  0  0
    0.6599    2.2873   -0.1759 H   0  0  0  0  0  0  0  0  0  0  0  0
    1.2759    0.3033    1.0948 H   0  0  0  0  0  0  0  0  0  0  0  0
    4.9768    2.0362   -1.2290 H   0  0  0  0  0  0  0  0  0  0  0  0
    5.0853    2.9685    0.2408 H   0  0  0  0  0  0  0  0  0  0  0  0
    5.8018    1.8137    2.1622 H   0  0  0  0  0  0  0  0  0  0  0  0
   -1.6731   -0.4753   -1.9979 C   0  0  0  0  0  0  0  0  0  0  0  0
   -2.4672    0.1323   -2.4338 H   0  0  0  0  0  0  0  0  0  0  0  0
   -0.7476   -0.1857   -2.4949 H   0  0  0  0  0  0  0  0  0  0  0  0
   -1.8754   -1.5131   -2.2660 H   0  0  0  0  0  0  0  0  0  0  0  0
 10 11  1  0
 10  9  1  0
 11 12  1  0
  8  9  1  0
  8  7  1  0
  4  5  1  6
  9  4  1  0
 14 13  1  0
 14 15  1  0
 12 13  1  0
 12 23  1  0
  4 23  1  0
  4  6  1  0
  7 24  1  0
  7 25  1  0
  2 56  1  6
 13  2  1  0
 15 16  2  0
 23 22  1  0
 24  6  1  0
  2 16  1  0
  2  3  1  0
 22  3  1  0
 16 17  1  0
 17  1  2  0
 17 21  1  0
  1 18  1  0
 21 20  2  0
 18 19  2  0
 20 19  1  0
  1 26  1  0
  3 27  1  0
  3 28  1  0
  5 29  1  0
  5 30  1  0
  5 31  1  0
  6 32  1  0
  6 33  1  0
  7 34  1  1
  8 35  1  0
  8 36  1  0
  9 37  1  1
 10 38  1  0
 10 39  1  0
 11 40  1  0
 11 41  1  0
 12 42  1  6
 13 43  1  1
 14 44  1  0
 14 45  1  0
 15 46  1  0
 18 47  1  0
 19 48  1  0
 21 49  1  0
 56 57  1  0
 56 58  1  0
 56 59  1  0
 22 50  1  0
 22 51  1  0
 23 52  1  1
 24 53  1  0
 24 54  1  0
 25 55  1  0
M  END
