
     RDKit          3D

 40 41  0  0  0  0  0  0  0  0999 V2000
    0.2990    0.0528    0.2591 C   0  0  0  0  0  0  0  0  0  0  0  0
   -2.0762    0.5585    0.4523 N   0  0  0  0  0  0  0  0  0  0  0  0
   -3.2424    1.4224    0.4745 C   0  0  0  0  0  0  0  0  0  0  0  0
   -6.9740    0.0444   -0.1677 C   0  0  0  0  0  0  0  0  0  0  0  0
   -3.4090   -1.2861   -0.4350 C   0  0  0  0  0  0  0  0  0  0  0  0
   -2.3981   -0.8482    0.6148 C   0  0  0  0  0  0  0  0  0  0  0  0
    3.8163    0.8553   -0.0265 C   0  0  0  0  0  0  0  0  0  0  0  0
    5.0615    0.2582   -0.0687 C   0  0  0  0  0  0  0  0  0  0  0  0
    5.1470   -1.1250   -0.0103 C   0  0  0  0  0  0  0  0  0  0  0  0
    6.7049   -1.8792   -0.0604 Cl  0  0  0  0  0  0  0  0  0  0  0  0
    4.0066   -1.8993    0.0865 C   0  0  0  0  0  0  0  0  0  0  0  0
    2.7609   -1.2882    0.1283 C   0  0  0  0  0  0  0  0  0  0  0  0
    2.6442    0.0972    0.0718 C   0  0  0  0  0  0  0  0  0  0  0  0
    1.4912    0.7771    0.1015 O   0  0  0  0  0  0  0  0  0  0  0  0
   -0.8405    1.0661    0.2730 C   0  0  0  0  0  0  0  0  0  0  0  0
   -4.2524    0.9768   -0.5732 C   0  0  0  0  0  0  0  0  0  0  0  0
   -4.5749   -0.4261   -0.4025 N   0  0  0  0  0  0  0  0  0  0  0  0
   -5.8156   -0.9353   -0.2063 C   0  0  0  0  0  0  0  0  0  0  0  0
   -8.3119   -0.6321    0.0752 C   0  0  0  0  0  0  0  0  0  0  0  0
   -6.0021   -2.1366   -0.0698 O   0  0  0  0  0  0  0  0  0  0  0  0
   -0.6152    2.2542    0.1306 O   0  0  0  0  0  0  0  0  0  0  0  0
    0.1574   -0.6575   -0.5639 H   0  0  0  0  0  0  0  0  0  0  0  0
    0.3097   -0.5172    1.1950 H   0  0  0  0  0  0  0  0  0  0  0  0
   -3.7009    1.3847    1.4679 H   0  0  0  0  0  0  0  0  0  0  0  0
   -2.9419    2.4486    0.2826 H   0  0  0  0  0  0  0  0  0  0  0  0
   -6.7920    0.7921    0.6091 H   0  0  0  0  0  0  0  0  0  0  0  0
   -7.0042    0.5989   -1.1101 H   0  0  0  0  0  0  0  0  0  0  0  0
   -2.9481   -1.2428   -1.4276 H   0  0  0  0  0  0  0  0  0  0  0  0
   -3.7054   -2.3143   -0.2486 H   0  0  0  0  0  0  0  0  0  0  0  0
   -1.5138   -1.4742    0.5323 H   0  0  0  0  0  0  0  0  0  0  0  0
   -2.8114   -1.0095    1.6151 H   0  0  0  0  0  0  0  0  0  0  0  0
    5.9507    0.8679   -0.1485 H   0  0  0  0  0  0  0  0  0  0  0  0
    4.0726   -2.9773    0.1303 H   0  0  0  0  0  0  0  0  0  0  0  0
    1.8871   -1.9199    0.2054 H   0  0  0  0  0  0  0  0  0  0  0  0
   -5.1385    1.5990   -0.4936 H   0  0  0  0  0  0  0  0  0  0  0  0
   -3.8363    1.1353   -1.5737 H   0  0  0  0  0  0  0  0  0  0  0  0
   -8.3342   -1.1487    1.0339 H   0  0  0  0  0  0  0  0  0  0  0  0
   -9.1051    0.1146    0.0819 H   0  0  0  0  0  0  0  0  0  0  0  0
   -8.5458   -1.3582   -0.7020 H   0  0  0  0  0  0  0  0  0  0  0  0
    3.6939    2.5745   -0.0969 Cl  0  0  0  0  0  0  0  0  0  0  0  0
  6  2  1  0
  6  5  1  0
  2  3  1  0
  2 15  1  0
  3 16  1  0
  1 15  1  0
  1 14  1  0
 15 21  2  0
 11 12  2  0
 11  9  1  0
 12 13  1  0
  5 17  1  0
 19  4  1  0
 17 16  1  0
 17 18  1  0
 20 18  2  0
 18  4  1  0
 10  9  1  0
  9  8  2  0
 13 14  1  0
 13  7  2  0
  8  7  1  0
  7 40  1  0
  1 22  1  0
  1 23  1  0
  3 24  1  0
  3 25  1  0
  4 26  1  0
  4 27  1  0
  5 28  1  0
  5 29  1  0
  6 30  1  0
  6 31  1  0
  8 32  1  0
 11 33  1  0
 12 34  1  0
 16 35  1  0
 16 36  1  0
 19 37  1  0
 19 38  1  0
 19 39  1  0
M  END
