
     RDKit          3D

 58 59  0  0  0  0  0  0  0  0999 V2000
    1.0652   -2.1233    1.1840 O   0  0  0  0  0  0  0  0  0  0  0  0
    1.2231   -0.9465    0.9030 C   0  0  0  0  0  0  0  0  0  0  0  0
    0.0388   -0.0121    0.6948 C   0  0  2  0  0  0  0  0  0  0  0  0
   -0.3236    0.6396    2.0491 C   0  0  0  0  0  0  0  0  0  0  0  0
   -1.5176    1.5378    1.9096 C   0  0  0  0  0  0  0  0  0  0  0  0
   -2.8066    1.0447    2.0952 C   0  0  0  0  0  0  0  0  0  0  0  0
   -3.9144    1.8540    1.8795 C   0  0  0  0  0  0  0  0  0  0  0  0
   -3.7466    3.1736    1.4835 C   0  0  0  0  0  0  0  0  0  0  0  0
   -2.4644    3.6789    1.3080 C   0  0  0  0  0  0  0  0  0  0  0  0
   -1.3613    2.8643    1.5163 C   0  0  0  0  0  0  0  0  0  0  0  0
   -1.0633   -0.7536    0.1521 N   0  0  0  0  0  0  0  0  0  0  0  0
   -1.9295   -0.2144   -0.7331 C   0  0  0  0  0  0  0  0  0  0  0  0
   -3.0049   -0.9935   -0.8608 O   0  0  0  0  0  0  0  0  0  0  0  0
   -4.0582   -0.5362   -1.7072 C   0  0  0  0  0  0  0  0  0  0  0  0
   -5.2437   -1.4719   -1.5461 C   0  0  1  0  0  0  0  0  0  0  0  0
   -1.7544    0.8135   -1.3514 O   0  0  0  0  0  0  0  0  0  0  0  0
    2.4222   -0.3578    0.8040 N   0  0  0  0  0  0  0  0  0  0  0  0
    3.6536   -1.0346    1.0922 C   0  0  2  0  0  0  0  0  0  0  0  0
    3.9906   -0.9711    2.5661 C   0  0  0  0  0  0  0  0  0  0  0  0
    3.3101   -0.4324    3.3971 O   0  0  0  0  0  0  0  0  0  0  0  0
    4.8089   -0.4652    0.2651 C   0  0  0  0  0  0  0  0  0  0  0  0
    4.9105   -0.9927   -1.1718 C   0  0  2  0  0  0  0  0  0  0  0  0
    5.8422   -0.1170   -2.0125 C   0  0  0  0  0  0  0  0  0  0  0  0
    4.9024    0.9304   -2.6193 C   0  0  0  0  0  0  0  0  0  0  0  0
    3.6485    0.2104   -2.6877 N   0  0  0  0  0  0  0  0  0  0  0  0
    3.5958   -0.9046   -1.9401 C   0  0  0  0  0  0  0  0  0  0  0  0
    2.6731   -1.7008   -1.8959 O   0  0  0  0  0  0  0  0  0  0  0  0
   -5.7577   -1.4956   -0.1101 C   0  0  0  0  0  0  0  0  0  0  0  0
   -6.3407   -1.0405   -2.5146 C   0  0  0  0  0  0  0  0  0  0  0  0
    0.3004    0.7739   -0.0152 H   0  0  0  0  0  0  0  0  0  0  0  0
   -0.5235   -0.1515    2.7764 H   0  0  0  0  0  0  0  0  0  0  0  0
    0.5397    1.1980    2.4174 H   0  0  0  0  0  0  0  0  0  0  0  0
   -2.9506    0.0173    2.4084 H   0  0  0  0  0  0  0  0  0  0  0  0
   -4.9092    1.4527    2.0243 H   0  0  0  0  0  0  0  0  0  0  0  0
   -4.6089    3.8068    1.3183 H   0  0  0  0  0  0  0  0  0  0  0  0
   -2.3233    4.7092    1.0065 H   0  0  0  0  0  0  0  0  0  0  0  0
   -0.3646    3.2639    1.3655 H   0  0  0  0  0  0  0  0  0  0  0  0
   -1.3418   -1.5895    0.6432 H   0  0  0  0  0  0  0  0  0  0  0  0
   -4.3488    0.4822   -1.4303 H   0  0  0  0  0  0  0  0  0  0  0  0
   -3.7207   -0.5207   -2.7475 H   0  0  0  0  0  0  0  0  0  0  0  0
   -4.9239   -2.4824   -1.8231 H   0  0  0  0  0  0  0  0  0  0  0  0
    2.4678    0.6305    0.6096 H   0  0  0  0  0  0  0  0  0  0  0  0
    3.5423   -2.0989    0.8568 H   0  0  0  0  0  0  0  0  0  0  0  0
    4.9335   -1.4822    2.8308 H   0  0  0  0  0  0  0  0  0  0  0  0
    4.7429    0.6280    0.2762 H   0  0  0  0  0  0  0  0  0  0  0  0
    5.7539   -0.7087    0.7567 H   0  0  0  0  0  0  0  0  0  0  0  0
    5.2342   -2.0347   -1.1358 H   0  0  0  0  0  0  0  0  0  0  0  0
    6.6480    0.3336   -1.4340 H   0  0  0  0  0  0  0  0  0  0  0  0
    6.2943   -0.7102   -2.8085 H   0  0  0  0  0  0  0  0  0  0  0  0
    4.8181    1.8212   -1.9899 H   0  0  0  0  0  0  0  0  0  0  0  0
   -6.0503   -0.4939    0.2151 H   0  0  0  0  0  0  0  0  0  0  0  0
   -6.6328   -2.1413   -0.0239 H   0  0  0  0  0  0  0  0  0  0  0  0
   -5.0068   -1.8652    0.5876 H   0  0  0  0  0  0  0  0  0  0  0  0
   -5.9812   -1.0150   -3.5449 H   0  0  0  0  0  0  0  0  0  0  0  0
   -7.1840   -1.7306   -2.4775 H   0  0  0  0  0  0  0  0  0  0  0  0
   -6.7174   -0.0451   -2.2675 H   0  0  0  0  0  0  0  0  0  0  0  0
    5.2240    1.2520   -3.6092 H   0  0  0  0  0  0  0  0  0  0  0  0
    2.8703    0.5191   -3.2494 H   0  0  0  0  0  0  0  0  0  0  0  0
 28 15  1  0
 15 29  1  0
 15 14  1  0
 14 13  1  0
 13 12  1  0
  8  9  2  0
  8  7  1  0
  9 10  1  0
 12 11  1  0
 12 16  2  0
  7  6  2  0
 11  3  1  0
 10  5  2  0
  6  5  1  0
  5  4  1  0
  4  3  1  0
  3  2  1  0
  2  1  2  0
  2 17  1  0
 17 18  1  0
 23 22  1  0
 23 24  1  0
 22 26  1  0
 22 21  1  0
 24 25  1  0
 26 25  1  0
 26 27  2  0
 18 21  1  0
 18 19  1  0
 19 20  2  0
  3 30  1  6
  4 31  1  0
  4 32  1  0
  6 33  1  0
  7 34  1  0
  8 35  1  0
  9 36  1  0
 10 37  1  0
 11 38  1  0
 14 39  1  0
 14 40  1  0
 15 41  1  6
 17 42  1  0
 18 43  1  6
 19 44  1  0
 21 45  1  0
 21 46  1  0
 22 47  1  1
 23 48  1  0
 23 49  1  0
 24 50  1  0
 28 51  1  0
 28 52  1  0
 28 53  1  0
 29 54  1  0
 29 55  1  0
 29 56  1  0
 24 57  1  0
 25 58  1  0
M  END
