
     RDKit          3D

 30 32  0  0  0  0  0  0  0  0999 V2000
   -1.2085   -0.1951   -0.2965 C   0  0  0  0  0  0  0  0  0  0  0  0
   -3.6509    1.0412   -0.7451 C   0  0  0  0  0  0  0  0  0  0  0  0
   -2.8047    1.5160    0.2407 C   0  0  0  0  0  0  0  0  0  0  0  0
   -3.2719   -0.0494   -1.5214 C   0  0  0  0  0  0  0  0  0  0  0  0
   -2.0515   -0.6644   -1.2948 C   0  0  0  0  0  0  0  0  0  0  0  0
    3.6079    1.1417   -0.8032 C   0  0  0  0  0  0  0  0  0  0  0  0
    3.2389    0.0527   -1.5857 C   0  0  0  0  0  0  0  0  0  0  0  0
    2.0355   -0.5905   -1.3441 C   0  0  0  0  0  0  0  0  0  0  0  0
    1.2024   -0.1520   -0.3209 C   0  0  0  0  0  0  0  0  0  0  0  0
    1.5439    0.9635    0.4530 C   0  0  0  0  0  0  0  0  0  0  0  0
    2.7702    1.5887    0.2033 C   0  0  0  0  0  0  0  0  0  0  0  0
    0.6635    1.4977    1.4833 C   0  0  0  0  0  0  0  0  0  0  0  0
   -0.6794    1.4801    1.4888 C   0  0  0  0  0  0  0  0  0  0  0  0
   -1.5603    0.9187    0.4725 C   0  0  0  0  0  0  0  0  0  0  0  0
    0.0122   -0.8621   -0.0277 N   0  0  0  0  0  0  0  0  0  0  0  0
    1.1835   -2.4572    1.1719 N   0  0  0  0  0  0  0  0  0  0  0  0
   -1.0764   -2.4888    1.1159 O   0  0  0  0  0  0  0  0  0  0  0  0
   -4.6074    1.5192   -0.9108 H   0  0  0  0  0  0  0  0  0  0  0  0
   -3.1010    2.3689    0.8394 H   0  0  0  0  0  0  0  0  0  0  0  0
   -3.9315   -0.4268   -2.2916 H   0  0  0  0  0  0  0  0  0  0  0  0
   -1.7503   -1.5243   -1.8787 H   0  0  0  0  0  0  0  0  0  0  0  0
    4.5508    1.6418   -0.9806 H   0  0  0  0  0  0  0  0  0  0  0  0
    3.8909   -0.3007   -2.3733 H   0  0  0  0  0  0  0  0  0  0  0  0
    1.7414   -1.4505   -1.9321 H   0  0  0  0  0  0  0  0  0  0  0  0
    3.0594    2.4426    0.8040 H   0  0  0  0  0  0  0  0  0  0  0  0
    1.1550    2.0489    2.2774 H   0  0  0  0  0  0  0  0  0  0  0  0
   -1.1758    2.0195    2.2881 H   0  0  0  0  0  0  0  0  0  0  0  0
    1.2094   -3.3033    1.7133 H   0  0  0  0  0  0  0  0  0  0  0  0
    2.0631   -2.0581    0.8963 H   0  0  0  0  0  0  0  0  0  0  0  0
   -0.0155   -1.9794    0.7849 C   0  0  0  0  0  0  0  0  0  0  0  0
  3  2  2  0
  3 14  1  0
 13 12  2  0
 13 14  1  0
 12 10  1  0
  2  4  1  0
 14  1  2  0
 11 10  1  0
 11  6  2  0
 10  9  2  0
  6  7  1  0
  4  5  2  0
  1  5  1  0
  1 15  1  0
  9 15  1  0
  9  8  1  0
 15 30  1  0
  7  8  2  0
 30 17  2  0
 30 16  1  0
  2 18  1  0
  3 19  1  0
  4 20  1  0
  5 21  1  0
  6 22  1  0
  7 23  1  0
  8 24  1  0
 11 25  1  0
 12 26  1  0
 13 27  1  0
 16 28  1  0
 16 29  1  0
M  END
