
     RDKit          3D

 61 64  0  0  0  0  0  0  0  0999 V2000
    0.3715   28.4506   11.8867 C   0  0  0  0  0  0  0  0  0  0  0  0
   -0.0542   28.0250   10.4877 C   0  0  1  0  0  0  0  0  0  0  0  0
   -0.0744   26.5139   10.3044 C   0  0  0  0  0  0  0  0  0  0  0  0
   -1.3261   28.6570   10.1020 N   0  0  0  0  0  0  0  0  0  0  0  0
   -2.5512   28.4137   10.6307 C   0  0  0  0  0  0  0  0  0  0  0  0
   -2.8929   27.3124   11.5708 C   0  0  0  0  0  0  0  0  0  0  0  0
   -3.4474   29.2737   10.1925 N   0  0  0  0  0  0  0  0  0  0  0  0
   -2.7842   30.1152    9.3689 C   0  0  0  0  0  0  0  0  0  0  0  0
   -1.4601   29.7659    9.2864 C   0  0  0  0  0  0  0  0  0  0  0  0
   -0.4481   30.3949    8.4502 C   0  0  0  0  0  0  0  0  0  0  0  0
   -0.5695   31.7437    8.1179 C   0  0  0  0  0  0  0  0  0  0  0  0
    0.3939   32.2539    7.2664 C   0  0  0  0  0  0  0  0  0  0  0  0
    1.4017   31.5383    6.7974 N   0  0  0  0  0  0  0  0  0  0  0  0
    1.4436   30.2602    7.1913 C   0  0  0  0  0  0  0  0  0  0  0  0
    2.5046   29.5586    6.7149 N   0  0  0  0  0  0  0  0  0  0  0  0
    2.9126   28.2454    6.9513 C   0  0  0  0  0  0  0  0  0  0  0  0
    2.0938   27.2236    7.4212 C   0  0  0  0  0  0  0  0  0  0  0  0
    2.5963   25.9393    7.5979 C   0  0  0  0  0  0  0  0  0  0  0  0
    3.9248   25.6236    7.3200 C   0  0  0  0  0  0  0  0  0  0  0  0
    4.7393   26.6574    6.8426 C   0  0  0  0  0  0  0  0  0  0  0  0
    4.2453   27.9321    6.6601 C   0  0  0  0  0  0  0  0  0  0  0  0
    4.4699   24.3461    7.5221 N   0  0  0  0  0  0  0  0  0  0  0  0
    3.6716   23.4012    8.2740 C   0  0  0  0  0  0  0  0  0  0  0  0
    4.5282   22.2213    8.7018 C   0  0  0  0  0  0  0  0  0  0  0  0
    5.1545   21.6055    7.5477 N   0  0  0  0  0  0  0  0  0  0  0  0
    5.9389   22.5405    6.7625 C   0  0  0  0  0  0  0  0  0  0  0  0
    5.0833   23.7259    6.3546 C   0  0  0  0  0  0  0  0  0  0  0  0
    4.9848   20.3315    7.1722 C   0  0  0  0  0  0  0  0  0  0  0  0
    5.5063   19.8422    6.1747 O   0  0  0  0  0  0  0  0  0  0  0  0
    4.0995   19.4336    8.0330 C   0  0  0  0  0  0  0  0  0  0  0  0
    4.0664   18.1442    7.5020 O   0  0  0  0  0  0  0  0  0  0  0  0
    0.5572   29.6607    7.9775 N   0  0  0  0  0  0  0  0  0  0  0  0
    1.3767   28.0782   12.0838 H   0  0  0  0  0  0  0  0  0  0  0  0
    0.3944   29.5368   11.9757 H   0  0  0  0  0  0  0  0  0  0  0  0
   -0.2820   28.0571   12.6650 H   0  0  0  0  0  0  0  0  0  0  0  0
    0.6765   28.4173    9.7869 H   0  0  0  0  0  0  0  0  0  0  0  0
   -0.4327   26.2389    9.3119 H   0  0  0  0  0  0  0  0  0  0  0  0
    0.9439   26.1388   10.4074 H   0  0  0  0  0  0  0  0  0  0  0  0
   -0.6866   26.0013   11.0442 H   0  0  0  0  0  0  0  0  0  0  0  0
   -2.9098   26.3446   11.0687 H   0  0  0  0  0  0  0  0  0  0  0  0
   -2.2035   27.2357   12.4097 H   0  0  0  0  0  0  0  0  0  0  0  0
   -3.8880   27.4972   11.9685 H   0  0  0  0  0  0  0  0  0  0  0  0
   -3.2846   30.9140    8.8419 H   0  0  0  0  0  0  0  0  0  0  0  0
   -1.3590   32.3671    8.5094 H   0  0  0  0  0  0  0  0  0  0  0  0
    0.3549   33.2931    6.9585 H   0  0  0  0  0  0  0  0  0  0  0  0
    3.1470   30.1226    6.1796 H   0  0  0  0  0  0  0  0  0  0  0  0
    1.0560   27.4115    7.6419 H   0  0  0  0  0  0  0  0  0  0  0  0
    4.9119   28.7077    6.2998 H   0  0  0  0  0  0  0  0  0  0  0  0
    1.9107   25.1799    7.9504 H   0  0  0  0  0  0  0  0  0  0  0  0
    5.7852   26.4720    6.6327 H   0  0  0  0  0  0  0  0  0  0  0  0
    3.2870   23.8846    9.1734 H   0  0  0  0  0  0  0  0  0  0  0  0
    2.8075   23.0323    7.6996 H   0  0  0  0  0  0  0  0  0  0  0  0
    4.3175   23.3933    5.6381 H   0  0  0  0  0  0  0  0  0  0  0  0
    5.7178   24.4446    5.8387 H   0  0  0  0  0  0  0  0  0  0  0  0
    5.3083   22.5659    9.3861 H   0  0  0  0  0  0  0  0  0  0  0  0
    3.9114   21.5106    9.2446 H   0  0  0  0  0  0  0  0  0  0  0  0
    6.7883   22.8829    7.3612 H   0  0  0  0  0  0  0  0  0  0  0  0
    6.3279   22.0443    5.8780 H   0  0  0  0  0  0  0  0  0  0  0  0
    4.4855   19.4182    9.0593 H   0  0  0  0  0  0  0  0  0  0  0  0
    3.0905   19.8630    8.0794 H   0  0  0  0  0  0  0  0  0  0  0  0
    4.5998   18.1732    6.6931 H   0  0  0  0  0  0  0  0  0  0  0  0
  1  2  1  0
  2  3  1  0
  2  4  1  0
  4  5  1  0
  4  9  1  0
  5  6  1  0
  5  7  2  0
  7  8  1  0
  8  9  2  0
  9 10  1  0
 10 11  2  0
 10 32  1  0
 11 12  1  0
 12 13  2  0
 13 14  1  0
 14 15  1  0
 14 32  2  0
 15 16  1  0
 16 17  2  0
 16 21  1  0
 17 18  1  0
 18 19  2  0
 19 20  1  0
 19 22  1  0
 20 21  2  0
 22 23  1  0
 22 27  1  0
 23 24  1  0
 24 25  1  0
 25 26  1  0
 25 28  1  0
 26 27  1  0
 28 29  2  0
 28 30  1  0
 30 31  1  0
  1 33  1  0
  1 34  1  0
  1 35  1  0
  2 36  1  6
  3 37  1  0
  3 38  1  0
  3 39  1  0
  6 40  1  0
  6 41  1  0
  6 42  1  0
  8 43  1  0
 11 44  1  0
 12 45  1  0
 15 46  1  0
 17 47  1  0
 21 48  1  0
 18 49  1  0
 20 50  1  0
 23 51  1  0
 23 52  1  0
 27 53  1  0
 27 54  1  0
 24 55  1  0
 24 56  1  0
 26 57  1  0
 26 58  1  0
 30 59  1  0
 30 60  1  0
 31 61  1  0
M  END
