
     RDKit          3D

 35 36  0  0  0  0  0  0  0  0999 V2000
   -4.6749   -2.0100   -0.0081 Cl  0  0  0  0  0  0  0  0  0  0  0  0
   -3.3158   -0.9537   -0.0114 C   0  0  0  0  0  0  0  0  0  0  0  0
   -3.4624    0.4331   -0.0257 C   0  0  0  0  0  0  0  0  0  0  0  0
   -5.0675    1.2141    0.0015 S   0  0  1  0  0  0  0  0  0  0  0  0
   -4.8272    2.6460   -0.0452 O   0  0  0  0  0  0  0  0  0  0  0  0
   -5.7357    0.6925   -1.3966 N   0  0  0  0  0  0  0  0  0  0  0  0
   -5.8260    0.6505    1.1023 O   0  0  0  0  0  0  0  0  0  0  0  0
   -2.3374    1.2422   -0.0308 C   0  0  0  0  0  0  0  0  0  0  0  0
   -2.0547   -1.5168   -0.0113 C   0  0  0  0  0  0  0  0  0  0  0  0
   -0.9246   -0.7028   -0.0173 C   0  0  0  0  0  0  0  0  0  0  0  0
   -1.0720    0.6788   -0.0266 C   0  0  0  0  0  0  0  0  0  0  0  0
    0.4134   -1.3595   -0.0152 C   0  0  0  0  0  0  0  0  0  0  0  0
    0.5233   -2.5630   -0.0126 O   0  0  0  0  0  0  0  0  0  0  0  0
    1.6274   -0.4693   -0.0156 C   0  0  0  0  0  0  0  0  0  0  0  0
    3.0879   -1.5334   -0.0208 S   0  0  0  0  0  0  0  0  0  0  0  0
    4.3367   -0.3066    0.0051 C   0  0  0  0  0  0  0  0  0  0  0  0
    5.5983   -0.7887    0.0130 N   0  0  0  0  0  0  0  0  0  0  0  0
    6.7257    0.0303    0.0407 C   0  0  0  0  0  0  0  0  0  0  0  0
    7.8426   -0.4616    0.0464 O   0  0  0  0  0  0  0  0  0  0  0  0
    6.3969    1.4265    0.0602 C   0  0  0  0  0  0  0  0  0  0  0  0
    5.0988    1.8314    0.0469 C   0  0  0  0  0  0  0  0  0  0  0  0
    4.0536    0.9516    0.0187 N   0  0  0  0  0  0  0  0  0  0  0  0
    4.7127    3.2718    0.0570 C   0  0  0  0  0  0  0  0  0  0  0  0
   -5.6387    1.3361   -2.1724 H   0  0  0  0  0  0  0  0  0  0  0  0
   -6.6743    0.3262   -1.2976 H   0  0  0  0  0  0  0  0  0  0  0  0
   -2.4403    2.3175   -0.0400 H   0  0  0  0  0  0  0  0  0  0  0  0
   -1.9507   -2.5932   -0.0050 H   0  0  0  0  0  0  0  0  0  0  0  0
   -0.2179    1.3410   -0.0318 H   0  0  0  0  0  0  0  0  0  0  0  0
    1.6311    0.1788   -0.8935 H   0  0  0  0  0  0  0  0  0  0  0  0
    1.6341    0.1728    0.8668 H   0  0  0  0  0  0  0  0  0  0  0  0
    7.2051    2.1434    0.0835 H   0  0  0  0  0  0  0  0  0  0  0  0
    4.1721    3.5212   -0.8574 H   0  0  0  0  0  0  0  0  0  0  0  0
    4.0410    3.4773    0.8914 H   0  0  0  0  0  0  0  0  0  0  0  0
    5.5797    3.9232    0.1353 H   0  0  0  0  0  0  0  0  0  0  0  0
    5.7609   -1.7892    0.0003 H   0  0  0  0  0  0  0  0  0  0  0  0
 15 16  1  0
 15 14  1  0
 17 16  1  0
 17 18  1  0
 19 18  2  0
 16 22  2  0
 14 12  1  0
 18 20  1  0
 13 12  2  0
 12 10  1  0
 11 10  2  0
 11  8  1  0
 22 21  1  0
 10  9  1  0
 20 21  2  0
  8  3  2  0
 21 23  1  0
  9  2  2  0
  3  2  1  0
  3  4  1  0
  2  1  1  0
  4  6  1  6
  5  4  2  0
  4  7  2  0
  6 24  1  0
  6 25  1  0
  8 26  1  0
  9 27  1  0
 11 28  1  0
 14 29  1  0
 14 30  1  0
 20 31  1  0
 23 32  1  0
 23 33  1  0
 23 34  1  0
 17 35  1  0
M  END
