
     RDKit          3D

 28 31  0  0  0  0  0  0  0  0999 V2000
   -4.4223   -0.1111    0.0090 C   0  0  0  0  0  0  0  0  0  0  0  0
   -4.5740    1.2565   -0.0030 C   0  0  0  0  0  0  0  0  0  0  0  0
   -3.4640    2.1273   -0.0163 C   0  0  0  0  0  0  0  0  0  0  0  0
   -2.1751    1.6450   -0.0175 C   0  0  0  0  0  0  0  0  0  0  0  0
   -1.9924    0.2557   -0.0056 C   0  0  0  0  0  0  0  0  0  0  0  0
   -0.8841   -0.6389   -0.0029 C   0  0  0  0  0  0  0  0  0  0  0  0
    0.5275   -0.3269   -0.0109 C   0  0  0  0  0  0  0  0  0  0  0  0
    1.4803   -1.2965   -0.0092 N   0  0  0  0  0  0  0  0  0  0  0  0
    2.6955   -0.6701   -0.0181 C   0  0  0  0  0  0  0  0  0  0  0  0
    4.0018   -1.1452   -0.0205 C   0  0  0  0  0  0  0  0  0  0  0  0
    5.0083   -0.1947   -0.0307 C   0  0  0  0  0  0  0  0  0  0  0  0
    4.7212    1.1794   -0.0390 C   0  0  0  0  0  0  0  0  0  0  0  0
    3.4186    1.6444   -0.0369 C   0  0  0  0  0  0  0  0  0  0  0  0
    2.3893    0.7030   -0.0261 C   0  0  0  0  0  0  0  0  0  0  0  0
   -2.6184   -1.8592    0.0155 N   0  0  0  0  0  0  0  0  0  0  0  0
   -3.1105   -0.5955    0.0060 C   0  0  0  0  0  0  0  0  0  0  0  0
    1.0280    0.8809   -0.0212 N   0  0  0  0  0  0  0  0  0  0  0  0
   -1.2951   -1.8884    0.0096 N   0  0  0  0  0  0  0  0  0  0  0  0
   -5.2739   -0.7780    0.0187 H   0  0  0  0  0  0  0  0  0  0  0  0
   -5.5712    1.6771   -0.0027 H   0  0  0  0  0  0  0  0  0  0  0  0
   -3.6361    3.1953   -0.0256 H   0  0  0  0  0  0  0  0  0  0  0  0
   -1.3261    2.3137   -0.0267 H   0  0  0  0  0  0  0  0  0  0  0  0
    1.3098   -2.2900    0.0028 H   0  0  0  0  0  0  0  0  0  0  0  0
    4.2240   -2.2041   -0.0146 H   0  0  0  0  0  0  0  0  0  0  0  0
    6.0412   -0.5176   -0.0326 H   0  0  0  0  0  0  0  0  0  0  0  0
    5.5390    1.8877   -0.0468 H   0  0  0  0  0  0  0  0  0  0  0  0
    3.2009    2.7048   -0.0427 H   0  0  0  0  0  0  0  0  0  0  0  0
   -3.1349   -2.7244    0.0194 H   0  0  0  0  0  0  0  0  0  0  0  0
  1  2  2  0
  1 16  1  0
  1 19  1  0
  2  3  1  0
  2 20  1  0
  3  4  2  0
  3 21  1  0
  4  5  1  0
  4 22  1  0
  5  6  1  0
  5 16  2  0
  6  7  1  0
  6 18  2  0
  7  8  1  0
  7 17  2  0
  8  9  1  0
  8 23  1  0
  9 10  2  0
  9 14  1  0
 10 11  1  0
 10 24  1  0
 11 12  2  0
 11 25  1  0
 12 13  1  0
 12 26  1  0
 13 14  2  0
 13 27  1  0
 14 17  1  0
 15 16  1  0
 15 18  1  0
 15 28  1  0
M  END
