
     RDKit          3D

 52 54  0  0  0  0  0  0  0  0999 V2000
   -0.3661   -5.7788    1.4627 O   0  0  0  0  0  0  0  0  0  0  0  0
   -0.2906   -4.5678    0.8705 C   0  0  0  0  0  0  0  0  0  0  0  0
    0.4172   -4.3476   -0.3089 C   0  0  0  0  0  0  0  0  0  0  0  0
    0.4534   -3.0786   -0.8653 C   0  0  0  0  0  0  0  0  0  0  0  0
   -0.2059   -2.0025   -0.2779 C   0  0  0  0  0  0  0  0  0  0  0  0
   -0.9130   -2.2424    0.8957 C   0  0  0  0  0  0  0  0  0  0  0  0
   -0.9576   -3.5044    1.4704 C   0  0  0  0  0  0  0  0  0  0  0  0
   -0.0921   -0.6250   -0.9033 C   0  0  1  0  0  0  0  0  0  0  0  0
   -1.2756    0.2610   -0.5667 C   0  0  0  0  0  0  0  0  0  0  0  0
   -1.2307    1.2684    0.3886 C   0  0  0  0  0  0  0  0  0  0  0  0
   -2.3441    2.0337    0.7022 C   0  0  0  0  0  0  0  0  0  0  0  0
   -3.5787    1.8201    0.0660 C   0  0  0  0  0  0  0  0  0  0  0  0
   -4.6926    2.5548    0.3879 N   0  0  0  0  0  0  0  0  0  0  0  0
   -4.5548    3.7157    1.2345 C   0  0  0  0  0  0  0  0  0  0  0  0
   -5.8775    2.4390   -0.4281 C   0  0  0  0  0  0  0  0  0  0  0  0
   -3.6173    0.8132   -0.9183 C   0  0  0  0  0  0  0  0  0  0  0  0
   -2.4940    0.0606   -1.2109 C   0  0  0  0  0  0  0  0  0  0  0  0
    1.2353    0.0337   -0.5880 C   0  0  0  0  0  0  0  0  0  0  0  0
    1.9263   -0.1778    0.5994 C   0  0  0  0  0  0  0  0  0  0  0  0
    3.1128    0.4799    0.8857 C   0  0  0  0  0  0  0  0  0  0  0  0
    3.6702    1.4023   -0.0161 C   0  0  0  0  0  0  0  0  0  0  0  0
    4.8266    2.0860    0.2740 N   0  0  0  0  0  0  0  0  0  0  0  0
    5.4802    2.8409   -0.7688 C   0  0  0  0  0  0  0  0  0  0  0  0
    5.6244    1.6734    1.4048 C   0  0  0  0  0  0  0  0  0  0  0  0
    2.9836    1.5944   -1.2295 C   0  0  0  0  0  0  0  0  0  0  0  0
    1.7991    0.9285   -1.4921 C   0  0  0  0  0  0  0  0  0  0  0  0
    0.1566   -6.4241    0.9743 H   0  0  0  0  0  0  0  0  0  0  0  0
    0.9397   -5.1641   -0.7951 H   0  0  0  0  0  0  0  0  0  0  0  0
    1.0141   -2.9257   -1.7807 H   0  0  0  0  0  0  0  0  0  0  0  0
   -1.4470   -1.4337    1.3785 H   0  0  0  0  0  0  0  0  0  0  0  0
   -1.5145   -3.6665    2.3851 H   0  0  0  0  0  0  0  0  0  0  0  0
   -0.3032    1.4797    0.9069 H   0  0  0  0  0  0  0  0  0  0  0  0
   -2.2358    2.8041    1.4527 H   0  0  0  0  0  0  0  0  0  0  0  0
   -3.9085    4.4883    0.8019 H   0  0  0  0  0  0  0  0  0  0  0  0
   -5.5350    4.1550    1.4003 H   0  0  0  0  0  0  0  0  0  0  0  0
   -4.1489    3.4521    2.2131 H   0  0  0  0  0  0  0  0  0  0  0  0
   -6.2543    1.4145   -0.4416 H   0  0  0  0  0  0  0  0  0  0  0  0
   -6.6629    3.0630   -0.0092 H   0  0  0  0  0  0  0  0  0  0  0  0
   -5.7171    2.7498   -1.4670 H   0  0  0  0  0  0  0  0  0  0  0  0
   -4.5261    0.6117   -1.4687 H   0  0  0  0  0  0  0  0  0  0  0  0
   -2.5725   -0.7065   -1.9740 H   0  0  0  0  0  0  0  0  0  0  0  0
    1.5427   -0.8801    1.3300 H   0  0  0  0  0  0  0  0  0  0  0  0
    3.6015    0.2592    1.8246 H   0  0  0  0  0  0  0  0  0  0  0  0
    5.8285    2.2173   -1.6009 H   0  0  0  0  0  0  0  0  0  0  0  0
    4.8205    3.6071   -1.1797 H   0  0  0  0  0  0  0  0  0  0  0  0
    6.3428    3.3548   -0.3517 H   0  0  0  0  0  0  0  0  0  0  0  0
    6.0071    0.6502    1.3116 H   0  0  0  0  0  0  0  0  0  0  0  0
    6.4756    2.3420    1.5039 H   0  0  0  0  0  0  0  0  0  0  0  0
    5.0586    1.7351    2.3358 H   0  0  0  0  0  0  0  0  0  0  0  0
    3.3712    2.2634   -1.9850 H   0  0  0  0  0  0  0  0  0  0  0  0
    1.3035    1.1134   -2.4393 H   0  0  0  0  0  0  0  0  0  0  0  0
   -0.1146   -0.7747   -1.9893 H   0  0  0  0  0  0  0  0  0  0  0  0
 23 22  1  0
 22 24  1  0
 22 21  1  0
 20 21  1  0
 20 19  2  0
 21 25  2  0
 19 18  1  0
 25 26  1  0
 18 26  2  0
 18  8  1  0
 10 11  2  0
 10  9  1  0
  8  9  1  0
  8  5  1  0
 11 12  1  0
  9 17  2  0
  4  5  2  0
  4  3  1  0
 15 13  1  0
 12 13  1  0
 12 16  2  0
 13 14  1  0
  5  6  1  0
 17 16  1  0
  3  2  2  0
  6  7  2  0
  2  7  1  0
  2  1  1  0
  1 27  1  0
  3 28  1  0
  4 29  1  0
  6 30  1  0
  7 31  1  0
 10 32  1  0
 11 33  1  0
 14 34  1  0
 14 35  1  0
 14 36  1  0
 15 37  1  0
 15 38  1  0
 15 39  1  0
 16 40  1  0
 17 41  1  0
 19 42  1  0
 20 43  1  0
 23 44  1  0
 23 45  1  0
 23 46  1  0
 24 47  1  0
 24 48  1  0
 24 49  1  0
 25 50  1  0
 26 51  1  0
  8 52  1  6
M  END
