
     RDKit          3D

 26 25  0  0  0  0  0  0  0  0999 V2000
   -3.7310   -0.4114    0.0434 C   0  0  0  0  0  0  0  0  0  0  0  0
   -4.8992    0.4585    0.0116 N   0  0  0  0  0  0  0  0  0  0  0  0
   -2.4480    0.4046    0.0007 C   0  0  0  0  0  0  0  0  0  0  0  0
    0.0063    0.3268    0.0077 N   0  0  0  0  0  0  0  0  0  0  0  0
   -1.2050   -0.4700    0.0410 C   0  0  0  0  0  0  0  0  0  0  0  0
    4.9133    0.4252    0.0024 N   0  0  0  0  0  0  0  0  0  0  0  0
    1.2128   -0.4773    0.0376 C   0  0  0  0  0  0  0  0  0  0  0  0
    2.4614    0.3890   -0.0060 C   0  0  0  0  0  0  0  0  0  0  0  0
    3.7389   -0.4355    0.0328 C   0  0  0  0  0  0  0  0  0  0  0  0
   -3.7041   -1.0738    0.9210 H   0  0  0  0  0  0  0  0  0  0  0  0
   -3.7686   -1.0658   -0.8319 H   0  0  0  0  0  0  0  0  0  0  0  0
   -5.7393   -0.1057    0.0068 H   0  0  0  0  0  0  0  0  0  0  0  0
   -4.9368    0.9908    0.8727 H   0  0  0  0  0  0  0  0  0  0  0  0
   -2.4448    1.0156   -0.9080 H   0  0  0  0  0  0  0  0  0  0  0  0
   -2.4238    1.0984    0.8475 H   0  0  0  0  0  0  0  0  0  0  0  0
    0.0069    0.8819   -0.8412 H   0  0  0  0  0  0  0  0  0  0  0  0
   -1.2032   -1.0534    0.9679 H   0  0  0  0  0  0  0  0  0  0  0  0
   -1.2490   -1.2050   -0.7802 H   0  0  0  0  0  0  0  0  0  0  0  0
    4.9574    0.9542    0.8651 H   0  0  0  0  0  0  0  0  0  0  0  0
    5.7490   -0.1454   -0.0070 H   0  0  0  0  0  0  0  0  0  0  0  0
    2.4588    1.0011   -0.9141 H   0  0  0  0  0  0  0  0  0  0  0  0
    2.4448    1.0818    0.8418 H   0  0  0  0  0  0  0  0  0  0  0  0
    3.7711   -1.0883   -0.8440 H   0  0  0  0  0  0  0  0  0  0  0  0
    3.7067   -1.1000    0.9089 H   0  0  0  0  0  0  0  0  0  0  0  0
    1.2101   -1.0605    0.9648 H   0  0  0  0  0  0  0  0  0  0  0  0
    1.2500   -1.2126   -0.7837 H   0  0  0  0  0  0  0  0  0  0  0  0
  1  2  1  0
  3  1  1  0
  4  5  1  0
  5  3  1  0
  7  4  1  0
  8  7  1  0
  9  6  1  0
  9  8  1  0
  1 10  1  0
  1 11  1  0
  2 12  1  0
  2 13  1  0
  3 14  1  0
  3 15  1  0
  4 16  1  0
  5 17  1  0
  5 18  1  0
  6 19  1  0
  6 20  1  0
  8 21  1  0
  8 22  1  0
  9 23  1  0
  9 24  1  0
  7 25  1  0
  7 26  1  0
M  END
