
     RDKit          3D

 50 53  0  0  0  0  0  0  0  0999 V2000
    5.1203   -3.2749   -0.6478 F   0  0  0  0  0  0  0  0  0  0  0  0
    4.0023   -2.5611   -0.7878 C   0  0  1  0  0  0  0  0  0  0  0  0
    4.3382   -1.4608   -1.4848 F   0  0  0  0  0  0  0  0  0  0  0  0
    3.1848   -3.2788   -1.5732 F   0  0  0  0  0  0  0  0  0  0  0  0
    3.3650   -2.2176    0.5262 C   0  0  0  0  0  0  0  0  0  0  0  0
    4.0322   -2.5568    1.6993 C   0  0  0  0  0  0  0  0  0  0  0  0
    3.4858   -2.2519    2.9349 C   0  0  0  0  0  0  0  0  0  0  0  0
    2.2624   -1.6065    2.9990 C   0  0  0  0  0  0  0  0  0  0  0  0
    1.5984   -1.2658    1.8312 C   0  0  0  0  0  0  0  0  0  0  0  0
    2.1307   -1.5571    0.5797 C   0  0  0  0  0  0  0  0  0  0  0  0
    1.3272   -1.1836   -0.6521 C   0  0  0  0  0  0  0  0  0  0  0  0
    0.5968    0.0434   -0.4719 N   0  0  0  0  0  0  0  0  0  0  0  0
    1.1576    1.2917   -0.3749 C   0  0  0  0  0  0  0  0  0  0  0  0
    2.4738    1.7085   -0.4156 C   0  0  0  0  0  0  0  0  0  0  0  0
    2.7185    3.0711   -0.2870 C   0  0  0  0  0  0  0  0  0  0  0  0
    1.6750    3.9844   -0.1241 C   0  0  0  0  0  0  0  0  0  0  0  0
    1.9211    5.4370    0.0057 C   0  0  0  0  0  0  0  0  0  0  0  0
    3.2088    5.7570   -0.0192 O   0  0  0  0  0  0  0  0  0  0  0  0
    1.0427    6.2605    0.1217 O   0  0  0  0  0  0  0  0  0  0  0  0
    0.3424    3.5503   -0.0820 C   0  0  0  0  0  0  0  0  0  0  0  0
    0.1081    2.2032   -0.2066 C   0  0  0  0  0  0  0  0  0  0  0  0
   -1.0541    1.4626   -0.2018 N   0  0  0  0  0  0  0  0  0  0  0  0
   -0.7781    0.1317   -0.3701 C   0  0  0  0  0  0  0  0  0  0  0  0
   -1.5465   -0.8852   -0.4554 N   0  0  0  0  0  0  0  0  0  0  0  0
   -2.9169   -0.7631   -0.2531 C   0  0  0  0  0  0  0  0  0  0  0  0
   -3.7849   -1.3316   -1.1940 C   0  0  0  0  0  0  0  0  0  0  0  0
   -5.1430   -1.2776   -0.9990 C   0  0  0  0  0  0  0  0  0  0  0  0
   -5.9609   -1.8204   -1.9153 F   0  0  0  0  0  0  0  0  0  0  0  0
   -5.7227   -0.6764    0.1199 C   0  0  0  0  0  0  0  0  0  0  0  0
   -7.0666   -0.6942    0.1918 O   0  0  0  0  0  0  0  0  0  0  0  0
   -7.6734   -0.0902    1.3167 C   0  0  0  0  0  0  0  0  0  0  0  0
   -4.8602   -0.1249    1.0572 C   0  0  0  0  0  0  0  0  0  0  0  0
   -3.4811   -0.1695    0.8754 C   0  0  0  0  0  0  0  0  0  0  0  0
    4.9869   -3.0619    1.6631 H   0  0  0  0  0  0  0  0  0  0  0  0
    4.0162   -2.5186    3.8387 H   0  0  0  0  0  0  0  0  0  0  0  0
    1.8197   -1.3672    3.9565 H   0  0  0  0  0  0  0  0  0  0  0  0
    0.6450   -0.7593    1.9048 H   0  0  0  0  0  0  0  0  0  0  0  0
    1.9412   -1.0786   -1.5441 H   0  0  0  0  0  0  0  0  0  0  0  0
    0.5938   -1.9631   -0.8620 H   0  0  0  0  0  0  0  0  0  0  0  0
    3.2903    1.0111   -0.5420 H   0  0  0  0  0  0  0  0  0  0  0  0
    3.7433    3.4121   -0.3172 H   0  0  0  0  0  0  0  0  0  0  0  0
   -0.4709    4.2520    0.0419 H   0  0  0  0  0  0  0  0  0  0  0  0
    3.3098    6.7170    0.0606 H   0  0  0  0  0  0  0  0  0  0  0  0
   -1.9869    1.8368   -0.1343 H   0  0  0  0  0  0  0  0  0  0  0  0
   -3.3879   -1.8113   -2.0797 H   0  0  0  0  0  0  0  0  0  0  0  0
   -2.8472    0.2466    1.6489 H   0  0  0  0  0  0  0  0  0  0  0  0
   -5.2446    0.3418    1.9538 H   0  0  0  0  0  0  0  0  0  0  0  0
   -8.7467   -0.2024    1.1859 H   0  0  0  0  0  0  0  0  0  0  0  0
   -7.3808   -0.5783    2.2502 H   0  0  0  0  0  0  0  0  0  0  0  0
   -7.4357    0.9746    1.3857 H   0  0  0  0  0  0  0  0  0  0  0  0
  2  1  1  1
  2  3  1  0
  2  4  1  0
  2  5  1  0
  5  6  2  0
  5 10  1  0
  6  7  1  0
  7  8  2  0
  8  9  1  0
  9 10  2  0
 10 11  1  0
 11 12  1  0
 12 13  1  0
 12 23  1  0
 13 14  2  0
 13 21  1  0
 14 15  1  0
 15 16  2  0
 16 17  1  0
 16 20  1  0
 17 18  1  0
 17 19  2  0
 20 21  2  0
 21 22  1  0
 22 23  1  0
 23 24  2  0
 24 25  1  0
 25 26  2  0
 25 33  1  0
 26 27  1  0
 27 28  1  0
 27 29  2  0
 29 30  1  0
 29 32  1  0
 30 31  1  0
 32 33  2  0
  6 34  1  0
  7 35  1  0
  8 36  1  0
  9 37  1  0
 11 38  1  0
 11 39  1  0
 14 40  1  0
 15 41  1  0
 20 42  1  0
 18 43  1  0
 22 44  1  0
 26 45  1  0
 33 46  1  0
 32 47  1  0
 31 48  1  0
 31 49  1  0
 31 50  1  0
M  END
