
     RDKit          3D

 44 44  0  0  0  0  0  0  0  0999 V2000
   -0.0787    1.2964   -0.6140 C   0  0  1  0  0  0  0  0  0  0  0  0
   -0.3497   -0.0735    0.0154 C   0  0  1  0  0  0  0  0  0  0  0  0
   -1.4717   -0.5396   -0.7051 O   0  0  0  0  0  0  0  0  0  0  0  0
   -2.3351    0.5319   -0.9563 C   0  0  2  0  0  0  0  0  0  0  0  0
   -1.5056    1.8300   -0.8051 C   0  0  0  0  0  0  0  0  0  0  0  0
   -3.5015    0.5136    0.0113 C   0  0  0  0  0  0  0  0  0  0  0  0
   -4.4099    1.4145   -0.3384 O   0  0  0  0  0  0  0  0  0  0  0  0
   -3.5920   -0.2063    0.9698 O   0  0  0  0  0  0  0  0  0  0  0  0
    2.0425   -0.4304    0.2384 N   0  0  0  0  0  0  0  0  0  0  0  0
    3.0083   -0.1074   -0.6470 C   0  0  0  0  0  0  0  0  0  0  0  0
    4.2611    0.4719   -0.0412 C   0  0  0  0  0  0  0  0  0  0  0  0
    2.8959   -0.2785   -1.8522 O   0  0  0  0  0  0  0  0  0  0  0  0
    0.7936   -1.0822   -0.1089 C   0  0  1  0  0  0  0  0  0  0  0  0
    0.6198   -2.3080    0.7923 C   0  0  0  0  0  0  0  0  0  0  0  0
   -0.6025   -3.1956    0.5508 C   0  0  1  0  0  0  0  0  0  0  0  0
   -0.6117   -3.7864   -0.8553 C   0  0  0  0  0  0  0  0  0  0  0  0
   -0.6224   -4.3078    1.5954 C   0  0  0  0  0  0  0  0  0  0  0  0
    0.7425    2.2004    0.2650 C   0  0  0  0  0  0  0  0  0  0  0  0
    0.5293    2.3733    1.4401 O   0  0  0  0  0  0  0  0  0  0  0  0
    1.7098    2.8112   -0.4009 O   0  0  0  0  0  0  0  0  0  0  0  0
    2.5299    3.7273    0.3264 C   0  0  0  0  0  0  0  0  0  0  0  0
    0.4040    1.1657   -1.5850 H   0  0  0  0  0  0  0  0  0  0  0  0
   -0.6006    0.0597    1.0790 H   0  0  0  0  0  0  0  0  0  0  0  0
   -2.7281    0.4316   -1.9727 H   0  0  0  0  0  0  0  0  0  0  0  0
   -1.8206    2.4113    0.0629 H   0  0  0  0  0  0  0  0  0  0  0  0
   -1.5935    2.4708   -1.6793 H   0  0  0  0  0  0  0  0  0  0  0  0
   -5.1439    1.4201    0.2945 H   0  0  0  0  0  0  0  0  0  0  0  0
    2.2462   -0.3211    1.2199 H   0  0  0  0  0  0  0  0  0  0  0  0
    4.1547    0.7463    1.0068 H   0  0  0  0  0  0  0  0  0  0  0  0
    5.0671   -0.2588   -0.1199 H   0  0  0  0  0  0  0  0  0  0  0  0
    4.5651    1.3519   -0.6054 H   0  0  0  0  0  0  0  0  0  0  0  0
    0.8705   -1.3823   -1.1558 H   0  0  0  0  0  0  0  0  0  0  0  0
    1.5198   -2.9242    0.6901 H   0  0  0  0  0  0  0  0  0  0  0  0
    0.6045   -1.9614    1.8328 H   0  0  0  0  0  0  0  0  0  0  0  0
   -1.5080   -2.5964    0.6788 H   0  0  0  0  0  0  0  0  0  0  0  0
   -0.6940   -3.0192   -1.6246 H   0  0  0  0  0  0  0  0  0  0  0  0
    0.3018   -4.3563   -1.0451 H   0  0  0  0  0  0  0  0  0  0  0  0
   -1.4549   -4.4678   -0.9843 H   0  0  0  0  0  0  0  0  0  0  0  0
   -0.6383   -3.9042    2.6096 H   0  0  0  0  0  0  0  0  0  0  0  0
   -1.5010   -4.9440    1.4777 H   0  0  0  0  0  0  0  0  0  0  0  0
    0.2609   -4.9449    1.5059 H   0  0  0  0  0  0  0  0  0  0  0  0
    1.9403    4.5431    0.7439 H   0  0  0  0  0  0  0  0  0  0  0  0
    3.0707    3.2281    1.1304 H   0  0  0  0  0  0  0  0  0  0  0  0
    3.2403    4.1267   -0.3910 H   0  0  0  0  0  0  0  0  0  0  0  0
  1  2  1  0
  1  5  1  0
  1 18  1  0
  1 22  1  6
  2  3  1  0
  2 13  1  0
  2 23  1  1
  3  4  1  0
  4  5  1  0
  4  6  1  0
  4 24  1  6
  5 25  1  0
  5 26  1  0
  6  7  1  0
  6  8  2  0
  7 27  1  0
  9 10  1  0
  9 13  1  0
  9 28  1  0
 10 11  1  0
 10 12  2  0
 11 29  1  0
 11 30  1  0
 11 31  1  0
 13 14  1  0
 13 32  1  6
 14 15  1  0
 14 33  1  0
 14 34  1  0
 15 16  1  0
 15 17  1  0
 15 35  1  6
 16 36  1  0
 16 37  1  0
 16 38  1  0
 17 39  1  0
 17 40  1  0
 17 41  1  0
 18 19  2  0
 18 20  1  0
 20 21  1  0
 21 42  1  0
 21 43  1  0
 21 44  1  0
M  END
