
     RDKit          3D

 41 42  0  0  0  0  0  0  0  0999 V2000
    1.6739    0.4340   -2.2031 O   0  0  0  0  0  0  0  0  0  0  0  0
    1.7564   -0.9197   -1.4177 P   0  0  1  0  0  0  0  0  0  0  0  0
    0.3807   -1.6582   -1.7108 O   0  0  0  0  0  0  0  0  0  0  0  0
    2.9781   -1.7097   -1.6253 O   0  0  0  0  0  0  0  0  0  0  0  0
    1.5152   -0.4984    0.1565 O   0  0  0  0  0  0  0  0  0  0  0  0
    2.4249    0.4074    1.1164 P   0  0  1  0  0  0  0  0  0  0  0  0
    2.6581   -0.4360    2.4200 O   0  0  0  0  0  0  0  0  0  0  0  0
    3.6444    0.9590    0.5249 O   0  0  0  0  0  0  0  0  0  0  0  0
    1.3275    1.5090    1.5989 O   0  0  0  0  0  0  0  0  0  0  0  0
    0.6208    2.5970    0.6407 P   0  0  2  0  0  0  0  0  0  0  0  0
    1.0580    2.5273   -0.7735 O   0  0  0  0  0  0  0  0  0  0  0  0
    0.9538    4.0111    1.2435 O   0  0  0  0  0  0  0  0  0  0  0  0
   -0.8901    2.2479    0.9544 O   0  0  0  0  0  0  0  0  0  0  0  0
   -1.9828    2.9040    0.2958 C   0  0  0  0  0  0  0  0  0  0  0  0
   -2.6940    1.9813   -0.6630 C   0  0  2  0  0  0  0  0  0  0  0  0
   -3.2883    0.8909    0.0188 O   0  0  0  0  0  0  0  0  0  0  0  0
   -1.6045    1.2661   -1.9218 S   0  0  0  0  0  0  0  0  0  0  0  0
   -2.8344   -0.0320   -2.1273 C   0  0  0  0  0  0  0  0  0  0  0  0
   -3.3240   -0.3008   -0.7048 C   0  0  1  0  0  0  0  0  0  0  0  0
   -2.4935   -1.3095   -0.0226 N   0  0  0  0  0  0  0  0  0  0  0  0
   -1.6830   -0.9924    1.0100 C   0  0  0  0  0  0  0  0  0  0  0  0
   -0.9452   -1.9474    1.5935 C   0  0  0  0  0  0  0  0  0  0  0  0
   -0.1438   -1.6610    2.6426 F   0  0  0  0  0  0  0  0  0  0  0  0
   -2.5934   -2.6313   -0.4748 C   0  0  0  0  0  0  0  0  0  0  0  0
   -3.3831   -2.8882   -1.3752 O   0  0  0  0  0  0  0  0  0  0  0  0
   -1.8073   -3.5665    0.0976 N   0  0  0  0  0  0  0  0  0  0  0  0
   -0.9990   -3.2773    1.0960 C   0  0  0  0  0  0  0  0  0  0  0  0
   -0.2386   -4.2309    1.6245 N   0  0  0  0  0  0  0  0  0  0  0  0
    1.3514    1.2473   -1.7243 H   0  0  0  0  0  0  0  0  0  0  0  0
    0.4490   -2.6223   -1.7370 H   0  0  0  0  0  0  0  0  0  0  0  0
    1.9004   -0.8945    2.8114 H   0  0  0  0  0  0  0  0  0  0  0  0
    0.6727    4.1831    2.1547 H   0  0  0  0  0  0  0  0  0  0  0  0
   -2.6703    3.2292    1.0758 H   0  0  0  0  0  0  0  0  0  0  0  0
   -1.6600    3.7923   -0.2509 H   0  0  0  0  0  0  0  0  0  0  0  0
   -3.4767    2.5732   -1.1506 H   0  0  0  0  0  0  0  0  0  0  0  0
   -3.6646    0.3145   -2.7439 H   0  0  0  0  0  0  0  0  0  0  0  0
   -2.3857   -0.9004   -2.5991 H   0  0  0  0  0  0  0  0  0  0  0  0
   -4.3464   -0.6813   -0.7201 H   0  0  0  0  0  0  0  0  0  0  0  0
   -1.6654    0.0277    1.3570 H   0  0  0  0  0  0  0  0  0  0  0  0
    0.3542   -4.0698    2.4198 H   0  0  0  0  0  0  0  0  0  0  0  0
   -0.3170   -5.1737    1.2819 H   0  0  0  0  0  0  0  0  0  0  0  0
  4  2  2  0
 23 22  1  0
  2  3  1  6
 11 10  2  0
  2  1  1  0
  2  5  1  0
 28 27  1  0
 10 12  1  1
 22 27  1  0
 22 21  2  0
 10  9  1  0
 10 13  1  0
  6  9  1  1
  5  6  1  0
 27 26  2  0
 21 20  1  0
  6  8  2  0
  6  7  1  0
 13 14  1  0
 26 24  1  0
 20 24  1  0
 20 19  1  0
 24 25  2  0
 17 18  1  0
 17 15  1  0
 14 15  1  0
 18 19  1  0
 19 16  1  0
 16 15  1  0
  1 29  1  0
  3 30  1  0
  7 31  1  0
 12 32  1  0
 14 33  1  0
 14 34  1  0
 15 35  1  6
 18 36  1  0
 18 37  1  0
 19 38  1  6
 21 39  1  0
 28 40  1  0
 28 41  1  0
M  END
