
     RDKit          3D

 47 50  0  0  0  0  0  0  0  0999 V2000
   -0.8505   -1.1931    0.0833 C   0  0  0  0  0  0  0  0  0  0  0  0
   -3.0284   -0.1585    0.6854 C   0  0  0  0  0  0  0  0  0  0  0  0
    1.2070   -1.9673   -0.9284 C   0  0  0  0  0  0  0  0  0  0  0  0
   -0.1346   -1.6469   -1.0288 C   0  0  0  0  0  0  0  0  0  0  0  0
   -7.5782   -0.1273    0.5021 C   0  0  0  0  0  0  0  0  0  0  0  0
   -8.9483    0.5544   -1.1789 C   0  0  0  0  0  0  0  0  0  0  0  0
   -8.0096    1.4646   -1.6431 C   0  0  0  0  0  0  0  0  0  0  0  0
   -6.7987    1.5614   -0.9771 C   0  0  0  0  0  0  0  0  0  0  0  0
    4.6058   -0.5735   -1.1003 C   0  0  0  0  0  0  0  0  0  0  0  0
    5.3761    0.6739   -0.8835 C   0  0  0  0  0  0  0  0  0  0  0  0
    5.3682    0.9502    0.4737 C   0  0  0  0  0  0  0  0  0  0  0  0
    4.5920   -0.1144    1.1521 C   0  0  0  0  0  0  0  0  0  0  0  0
    6.0222    1.4912   -1.7857 C   0  0  0  0  0  0  0  0  0  0  0  0
    6.6708    2.6144   -1.2749 C   0  0  0  0  0  0  0  0  0  0  0  0
    6.6625    2.8922    0.0889 C   0  0  0  0  0  0  0  0  0  0  0  0
    6.0060    2.0568    0.9914 C   0  0  0  0  0  0  0  0  0  0  0  0
   -2.2035   -0.9229   -0.1039 N   0  0  0  0  0  0  0  0  0  0  0  0
   -4.2820   -0.0248    0.1950 N   0  0  0  0  0  0  0  0  0  0  0  0
   -2.6803    0.3528    1.7400 O   0  0  0  0  0  0  0  0  0  0  0  0
   -5.2673    0.7907    0.8775 C   0  0  0  0  0  0  0  0  0  0  0  0
   -6.5661    0.7490    0.1269 C   0  0  0  0  0  0  0  0  0  0  0  0
   -0.1825   -1.0811    1.3049 C   0  0  0  0  0  0  0  0  0  0  0  0
    1.1650   -1.4005    1.3858 C   0  0  0  0  0  0  0  0  0  0  0  0
    1.8839   -1.8416    0.2809 C   0  0  0  0  0  0  0  0  0  0  0  0
   -8.7423   -0.2283   -0.1265 N   0  0  0  0  0  0  0  0  0  0  0  0
    4.1844   -0.9855    0.1539 N   0  0  0  0  0  0  0  0  0  0  0  0
    4.3467   -0.2324    2.3261 O   0  0  0  0  0  0  0  0  0  0  0  0
    1.7306   -2.3182   -1.8089 H   0  0  0  0  0  0  0  0  0  0  0  0
   -0.6373   -1.7507   -1.9837 H   0  0  0  0  0  0  0  0  0  0  0  0
   -7.4355   -0.7753    1.3620 H   0  0  0  0  0  0  0  0  0  0  0  0
   -9.9067    0.4568   -1.6766 H   0  0  0  0  0  0  0  0  0  0  0  0
   -8.2265    2.0823   -2.5035 H   0  0  0  0  0  0  0  0  0  0  0  0
   -6.0445    2.2647   -1.3093 H   0  0  0  0  0  0  0  0  0  0  0  0
    3.5973   -2.5415    1.3739 H   0  0  0  0  0  0  0  0  0  0  0  0
    3.6395   -2.9148   -0.3390 H   0  0  0  0  0  0  0  0  0  0  0  0
    6.0296    1.2750   -2.8457 H   0  0  0  0  0  0  0  0  0  0  0  0
    7.1899    3.2832   -1.9480 H   0  0  0  0  0  0  0  0  0  0  0  0
    7.1736    3.7730    0.4535 H   0  0  0  0  0  0  0  0  0  0  0  0
    6.0002    2.2739    2.0511 H   0  0  0  0  0  0  0  0  0  0  0  0
   -2.5717   -1.2217   -0.9937 H   0  0  0  0  0  0  0  0  0  0  0  0
   -4.5288   -0.4199   -0.6981 H   0  0  0  0  0  0  0  0  0  0  0  0
   -5.4199    0.4243    1.8952 H   0  0  0  0  0  0  0  0  0  0  0  0
   -4.9219    1.8249    0.9576 H   0  0  0  0  0  0  0  0  0  0  0  0
   -0.7001   -0.7583    2.1927 H   0  0  0  0  0  0  0  0  0  0  0  0
    1.6603   -1.3100    2.3449 H   0  0  0  0  0  0  0  0  0  0  0  0
    3.3519   -2.1539    0.3856 C   0  0  0  0  0  0  0  0  0  0  0  0
    4.3755   -1.1436   -2.1368 O   0  0  0  0  0  0  0  0  0  0  0  0
  6  7  2  0
  6 25  1  0
  7  8  1  0
 25  5  2  0
  8 21  2  0
  5 21  1  0
 21 20  1  0
 18 20  1  0
 18  2  1  0
 17  2  1  0
 17  1  1  0
  4  3  2  0
  4  1  1  0
  2 19  2  0
  3 24  1  0
  1 22  2  0
 24 46  1  0
 24 23  2  0
 22 23  1  0
 27 12  2  0
 46 26  1  0
 12 26  1  0
 12 11  1  0
 26  9  1  0
 11 16  2  0
 11 10  1  0
  9 47  2  0
  9 10  1  0
 16 15  1  0
 10 13  2  0
 15 14  2  0
 13 14  1  0
  3 28  1  0
  4 29  1  0
  5 30  1  0
  6 31  1  0
  7 32  1  0
  8 33  1  0
 46 34  1  0
 46 35  1  0
 13 36  1  0
 14 37  1  0
 15 38  1  0
 16 39  1  0
 17 40  1  0
 18 41  1  0
 20 42  1  0
 20 43  1  0
 22 44  1  0
 23 45  1  0
M  END
