
     RDKit          3D

 22 23  0  0  0  0  0  0  0  0999 V2000
    3.7024   -0.0225   -0.0203 C   0  0  1  0  0  0  0  0  0  0  0  0
    0.1562   -1.2568    0.3769 C   0  0  0  0  0  0  0  0  0  0  0  0
    1.4836    1.0004   -0.5286 C   0  0  0  0  0  0  0  0  0  0  0  0
    2.2099   -0.0907   -0.0684 C   0  0  0  0  0  0  0  0  0  0  0  0
    1.5389   -1.2218    0.3830 C   0  0  0  0  0  0  0  0  0  0  0  0
    0.0995    0.9600   -0.5380 C   0  0  0  0  0  0  0  0  0  0  0  0
   -0.5867   -0.1651   -0.0774 C   0  0  0  0  0  0  0  0  0  0  0  0
   -2.0486   -0.2310   -0.0894 C   0  0  0  0  0  0  0  0  0  0  0  0
    4.1346    0.6075    1.0841 F   0  0  0  0  0  0  0  0  0  0  0  0
    4.2675   -1.2344   -0.0173 F   0  0  0  0  0  0  0  0  0  0  0  0
    4.2116    0.6464   -1.0624 F   0  0  0  0  0  0  0  0  0  0  0  0
   -2.9443    0.8102    0.1427 C   0  0  0  0  0  0  0  0  0  0  0  0
   -2.6908    2.1031    0.4078 N   0  0  0  0  0  0  0  0  0  0  0  0
   -2.6674   -1.4115   -0.3230 N   0  0  0  0  0  0  0  0  0  0  0  0
   -3.9279   -1.4038   -0.3191 N   0  0  0  0  0  0  0  0  0  0  0  0
   -4.5197    0.1611    0.0139 S   0  0  0  0  0  0  0  0  0  0  0  0
    1.9812    1.8866   -0.8991 H   0  0  0  0  0  0  0  0  0  0  0  0
    2.0802   -2.0838    0.7484 H   0  0  0  0  0  0  0  0  0  0  0  0
   -0.4374    1.8071   -0.9441 H   0  0  0  0  0  0  0  0  0  0  0  0
   -1.7793    2.3439    0.7639 H   0  0  0  0  0  0  0  0  0  0  0  0
   -3.4320    2.6878    0.7572 H   0  0  0  0  0  0  0  0  0  0  0  0
   -0.3513   -2.1409    0.7380 H   0  0  0  0  0  0  0  0  0  0  0  0
  1  4  1  0
  1  9  1  1
  1 10  1  0
  1 11  1  0
  2  5  2  0
  2  7  1  0
  3  4  2  0
  3  6  1  0
  4  5  1  0
  6  7  2  0
  7  8  1  0
  8 12  2  0
  8 14  1  0
 12 13  1  0
 12 16  1  0
 14 15  2  0
 15 16  1  0
  2 22  1  0
  3 17  1  0
  5 18  1  0
  6 19  1  0
 13 20  1  0
 13 21  1  0
M  END
