
     RDKit          3D

 25 25  0  0  0  0  0  0  0  0999 V2000
   -0.0178   -1.1639   -3.3105 O   0  0  0  0  0  0  0  0  0  0  0  0
   -0.2954   -0.0597   -2.9108 C   0  0  0  0  0  0  0  0  0  0  0  0
   -0.2243    0.3872   -1.4696 C   0  0  1  0  0  0  0  0  0  0  0  0
   -0.3088   -0.8189   -0.5275 C   0  0  0  0  0  0  0  0  0  0  0  0
    1.0480    1.2173   -1.2676 C   0  0  0  0  0  0  0  0  0  0  0  0
   -0.3391   -0.4197    0.9235 C   0  0  0  0  0  0  0  0  0  0  0  0
   -1.5283    0.0192    1.4980 C   0  0  0  0  0  0  0  0  0  0  0  0
   -1.6078    0.4053    2.8288 C   0  0  0  0  0  0  0  0  0  0  0  0
   -0.4670    0.3491    3.6162 C   0  0  0  0  0  0  0  0  0  0  0  0
    0.7314   -0.0869    3.0725 C   0  0  0  0  0  0  0  0  0  0  0  0
    0.8006   -0.4692    1.7342 C   0  0  0  0  0  0  0  0  0  0  0  0
    1.9548   -0.8995    1.1819 O   0  0  0  0  0  0  0  0  0  0  0  0
   -0.6764    0.9241   -3.7197 O   0  0  0  0  0  0  0  0  0  0  0  0
   -1.0826    1.0415   -1.2855 H   0  0  0  0  0  0  0  0  0  0  0  0
   -1.2233   -1.3734   -0.7516 H   0  0  0  0  0  0  0  0  0  0  0  0
    0.5195   -1.4990   -0.7247 H   0  0  0  0  0  0  0  0  0  0  0  0
    1.9431    0.6132   -1.4172 H   0  0  0  0  0  0  0  0  0  0  0  0
    1.0851    2.0637   -1.9526 H   0  0  0  0  0  0  0  0  0  0  0  0
    1.0759    1.6164   -0.2545 H   0  0  0  0  0  0  0  0  0  0  0  0
   -2.4181    0.0518    0.8789 H   0  0  0  0  0  0  0  0  0  0  0  0
   -2.5490    0.7385    3.2450 H   0  0  0  0  0  0  0  0  0  0  0  0
   -0.5037    0.6403    4.6581 H   0  0  0  0  0  0  0  0  0  0  0  0
    1.6205   -0.1323    3.6923 H   0  0  0  0  0  0  0  0  0  0  0  0
    2.6630   -0.8829    1.8351 H   0  0  0  0  0  0  0  0  0  0  0  0
   -0.6690    0.6179   -4.6390 H   0  0  0  0  0  0  0  0  0  0  0  0
  1  2  2  0
  2  3  1  0
  2 13  1  0
  3  4  1  0
  3  5  1  0
  3 14  1  1
  4  6  1  0
  4 15  1  0
  4 16  1  0
  5 17  1  0
  5 18  1  0
  5 19  1  0
  6  7  2  0
  6 11  1  0
  7  8  1  0
  7 20  1  0
  8  9  2  0
  8 21  1  0
  9 10  1  0
  9 22  1  0
 10 11  2  0
 10 23  1  0
 11 12  1  0
 12 24  1  0
 13 25  1  0
M  END
