
     RDKit          3D

 17 16  0  0  0  0  0  0  0  0999 V2000
    0.6631   -0.7320   -0.4315 C   0  0  1  0  0  0  0  0  0  0  0  0
   -0.8489    0.1860   -0.0183 S   0  0  1  0  0  0  0  0  0  0  0  0
    1.8953   -0.1915    0.2937 C   0  0  0  0  0  0  0  0  0  0  0  0
   -1.9571   -0.5622   -0.6509 O   0  0  0  0  0  0  0  0  0  0  0  0
    0.4592   -2.2099   -0.1210 C   0  0  0  0  0  0  0  0  0  0  0  0
   -0.9269    0.1852    1.4586 O   0  0  0  0  0  0  0  0  0  0  0  0
    2.3406    1.2192   -0.0670 C   0  0  0  0  0  0  0  0  0  0  0  0
    0.7906   -0.6020   -1.5117 H   0  0  0  0  0  0  0  0  0  0  0  0
    1.7334   -0.2692    1.3720 H   0  0  0  0  0  0  0  0  0  0  0  0
    2.7131   -0.8819    0.0666 H   0  0  0  0  0  0  0  0  0  0  0  0
   -0.3672   -2.6336   -0.6877 H   0  0  0  0  0  0  0  0  0  0  0  0
    1.3606   -2.7692   -0.3748 H   0  0  0  0  0  0  0  0  0  0  0  0
    0.2613   -2.3638    0.9407 H   0  0  0  0  0  0  0  0  0  0  0  0
    2.4341    1.3411   -1.1475 H   0  0  0  0  0  0  0  0  0  0  0  0
    1.6454    1.9747    0.2903 H   0  0  0  0  0  0  0  0  0  0  0  0
    3.3164    1.4276    0.3730 H   0  0  0  0  0  0  0  0  0  0  0  0
   -0.7018    1.5420   -0.5879 O   0  0  0  0  0  0  0  0  0  0  0  0
  1  2  1  0
  1  3  1  0
  1  5  1  0
  1  8  1  6
  2  4  2  0
  2  6  2  0
  3  7  1  0
  3  9  1  0
  3 10  1  0
  5 11  1  0
  5 12  1  0
  5 13  1  0
  7 14  1  0
  7 15  1  0
  7 16  1  0
  2 17  1  6
M  CHG  1  17  -1
M  END
