
     RDKit          3D

 24 24  0  0  0  0  0  0  0  0999 V2000
   -0.8017    0.8047   -1.3526 C   0  0  1  0  0  0  0  0  0  0  0  0
    0.7202    0.8047   -1.3526 C   0  0  2  0  0  0  0  0  0  0  0  0
    1.2769    0.8047    0.0218 C   0  0  1  0  0  0  0  0  0  0  0  0
    0.7118   -0.3036    0.8571 C   0  0  1  0  0  0  0  0  0  0  0  0
   -0.8178   -0.3040    0.8525 C   0  0  2  0  0  0  0  0  0  0  0  0
   -1.3057   -1.5254    1.5747 C   0  0  0  0  0  0  0  0  0  0  0  0
   -1.2426    0.6583   -2.6313 O   0  0  0  0  0  0  0  0  0  0  0  0
    2.7203    0.6443   -0.0566 O   0  0  0  0  0  0  0  0  0  0  0  0
    1.1751   -1.5525    0.3409 O   0  0  0  0  0  0  0  0  0  0  0  0
   -1.3675   -0.3059   -0.5121 O   0  0  0  0  0  0  0  0  0  0  0  0
   -2.7031   -1.4707    1.6953 O   0  0  0  0  0  0  0  0  0  0  0  0
    1.1857    1.9818   -2.0432 O   0  0  0  0  0  0  0  0  0  0  0  0
   -1.1515    1.7524   -0.9613 H   0  0  0  0  0  0  0  0  0  0  0  0
    1.0712   -0.0779   -1.8735 H   0  0  0  0  0  0  0  0  0  0  0  0
   -2.1342    0.9587   -2.6928 H   0  0  0  0  0  0  0  0  0  0  0  0
    1.0472    1.7524    0.4938 H   0  0  0  0  0  0  0  0  0  0  0  0
    1.6569    1.7257   -2.8187 H   0  0  0  0  0  0  0  0  0  0  0  0
    1.0596   -0.1869    1.8764 H   0  0  0  0  0  0  0  0  0  0  0  0
    3.1398    1.3223    0.4467 H   0  0  0  0  0  0  0  0  0  0  0  0
   -1.1693    0.5804    1.3700 H   0  0  0  0  0  0  0  0  0  0  0  0
    1.8120   -1.9199    0.9311 H   0  0  0  0  0  0  0  0  0  0  0  0
   -0.8594   -1.5642    2.5610 H   0  0  0  0  0  0  0  0  0  0  0  0
   -1.0260   -2.4107    1.0167 H   0  0  0  0  0  0  0  0  0  0  0  0
   -2.9977   -2.1686    2.2567 H   0  0  0  0  0  0  0  0  0  0  0  0
  1  2  1  0
  1  7  1  0
  1 10  1  0
  2  3  1  0
  2 12  1  0
  3  4  1  0
  3  8  1  0
  4  5  1  0
  4  9  1  0
  5  6  1  0
  5 10  1  0
  6 11  1  0
  1 13  1  1
  2 14  1  6
  7 15  1  0
  3 16  1  1
 12 17  1  0
  4 18  1  1
  8 19  1  0
  5 20  1  1
  9 21  1  0
  6 22  1  0
  6 23  1  0
 11 24  1  0
M  END
