
     RDKit          3D

 22 21  0  0  0  0  0  0  0  0999 V2000
    3.6634   -1.2874    3.0724 S   0  0  0  0  0  0  0  0  0  0  0  0
    4.5961   -1.0413    1.2641 S   0  0  0  0  0  0  0  0  0  0  0  0
   -0.4307   -1.3457    3.5763 C   0  0  0  0  0  0  0  0  0  0  0  0
    1.0587   -1.4343    3.8836 C   0  0  0  0  0  0  0  0  0  0  0  0
    1.8946   -1.2020    2.6328 C   0  0  0  0  0  0  0  0  0  0  0  0
    5.3367    2.6277   -0.4730 C   0  0  0  0  0  0  0  0  0  0  0  0
    5.2588    1.1195   -0.2728 C   0  0  0  0  0  0  0  0  0  0  0  0
    4.6631    0.7729    1.0839 C   0  0  0  0  0  0  0  0  0  0  0  0
   -0.7236   -2.0767    2.8215 H   0  0  0  0  0  0  0  0  0  0  0  0
   -1.0242   -1.5361    4.4704 H   0  0  0  0  0  0  0  0  0  0  0  0
   -0.6979   -0.3562    3.2034 H   0  0  0  0  0  0  0  0  0  0  0  0
    1.2925   -2.4157    4.3034 H   0  0  0  0  0  0  0  0  0  0  0  0
    1.3204   -0.6952    4.6450 H   0  0  0  0  0  0  0  0  0  0  0  0
    1.6864   -1.9606    1.8778 H   0  0  0  0  0  0  0  0  0  0  0  0
    1.6819   -0.2206    2.2066 H   0  0  0  0  0  0  0  0  0  0  0  0
    5.9686    3.0946    0.2838 H   0  0  0  0  0  0  0  0  0  0  0  0
    5.7559    2.8682   -1.4500 H   0  0  0  0  0  0  0  0  0  0  0  0
    4.3488    3.0865   -0.4134 H   0  0  0  0  0  0  0  0  0  0  0  0
    6.2586    0.6865   -0.3600 H   0  0  0  0  0  0  0  0  0  0  0  0
    4.6529    0.6725   -1.0648 H   0  0  0  0  0  0  0  0  0  0  0  0
    5.2658    1.1862    1.8932 H   0  0  0  0  0  0  0  0  0  0  0  0
    3.6509    1.1696    1.1707 H   0  0  0  0  0  0  0  0  0  0  0  0
  1  2  1  0
  1  5  1  0
  2  8  1  0
  3  4  1  0
  3  9  1  0
  3 10  1  0
  3 11  1  0
  4  5  1  0
  4 12  1  0
  4 13  1  0
  5 14  1  0
  5 15  1  0
  6  7  1  0
  6 16  1  0
  6 17  1  0
  6 18  1  0
  7  8  1  0
  7 19  1  0
  7 20  1  0
  8 21  1  0
  8 22  1  0
M  END
