
     RDKit          3D

 31 30  0  0  0  0  0  0  0  0999 V2000
   -3.2444   -0.0960   -1.0812 C   0  0  0  0  0  0  0  0  0  0  0  0
   -1.8733   -0.4103   -0.5490 C   0  0  0  0  0  0  0  0  0  0  0  0
   -1.5304   -1.5279   -0.1986 O   0  0  0  0  0  0  0  0  0  0  0  0
   -0.9924    0.6201   -0.4873 N   0  0  0  0  0  0  0  0  0  0  0  0
   -1.4446    1.8902   -0.7273 O   0  0  0  0  0  0  0  0  0  0  0  0
    0.3002    0.5025    0.1502 C   0  0  2  0  0  0  0  0  0  0  0  0
    1.2761   -0.4479   -0.5541 C   0  0  0  0  0  0  0  0  0  0  0  0
    1.3550   -0.2570   -2.0687 C   0  0  1  0  0  0  0  0  0  0  0  0
    1.7523    1.1643   -2.4553 C   0  0  0  0  0  0  0  0  0  0  0  0
    2.3417   -1.2635   -2.6533 C   0  0  0  0  0  0  0  0  0  0  0  0
    0.0902    0.2211    1.6358 C   0  0  0  0  0  0  0  0  0  0  0  0
   -0.9383    0.4636    2.2145 O   0  0  0  0  0  0  0  0  0  0  0  0
    1.1736   -0.2556    2.2149 O   0  0  0  0  0  0  0  0  0  0  0  0
    1.1217   -0.4941    3.6242 C   0  0  0  0  0  0  0  0  0  0  0  0
   -3.1995    0.4025   -2.0487 H   0  0  0  0  0  0  0  0  0  0  0  0
   -3.8027   -1.0224   -1.1855 H   0  0  0  0  0  0  0  0  0  0  0  0
   -3.7899    0.5604   -0.4016 H   0  0  0  0  0  0  0  0  0  0  0  0
   -1.7949    2.2271    0.1113 H   0  0  0  0  0  0  0  0  0  0  0  0
    0.7334    1.5072    0.1095 H   0  0  0  0  0  0  0  0  0  0  0  0
    2.2690   -0.2688   -0.1329 H   0  0  0  0  0  0  0  0  0  0  0  0
    1.0220   -1.4844   -0.3336 H   0  0  0  0  0  0  0  0  0  0  0  0
    0.3711   -0.4691   -2.4993 H   0  0  0  0  0  0  0  0  0  0  0  0
    1.8723    1.2530   -3.5363 H   0  0  0  0  0  0  0  0  0  0  0  0
    1.0087    1.9028   -2.1532 H   0  0  0  0  0  0  0  0  0  0  0  0
    2.7030    1.4409   -1.9929 H   0  0  0  0  0  0  0  0  0  0  0  0
    3.3557   -1.0763   -2.2914 H   0  0  0  0  0  0  0  0  0  0  0  0
    2.0771   -2.2873   -2.3828 H   0  0  0  0  0  0  0  0  0  0  0  0
    2.3637   -1.2017   -3.7425 H   0  0  0  0  0  0  0  0  0  0  0  0
    2.1082   -0.8522    3.9014 H   0  0  0  0  0  0  0  0  0  0  0  0
    0.8983    0.4202    4.1725 H   0  0  0  0  0  0  0  0  0  0  0  0
    0.3781   -1.2520    3.8675 H   0  0  0  0  0  0  0  0  0  0  0  0
  1  2  1  0
  1 15  1  0
  1 16  1  0
  1 17  1  0
  2  3  2  0
  2  4  1  0
  4  5  1  0
  4  6  1  0
  5 18  1  0
  6  7  1  0
  6 11  1  0
  6 19  1  1
  7  8  1  0
  7 20  1  0
  7 21  1  0
  8  9  1  0
  8 10  1  0
  8 22  1  6
  9 23  1  0
  9 24  1  0
  9 25  1  0
 10 26  1  0
 10 27  1  0
 10 28  1  0
 11 12  2  0
 11 13  1  0
 13 14  1  0
 14 29  1  0
 14 30  1  0
 14 31  1  0
M  END
