
     RDKit          3D

 58 60  0  0  0  0  0  0  0  0999 V2000
   -2.7389   -0.5541   -0.9132 C   0  0  0  0  0  0  0  0  0  0  0  0
   -3.8462    0.2246   -0.6132 C   0  0  0  0  0  0  0  0  0  0  0  0
   -4.4219    0.1842    0.6544 C   0  0  0  0  0  0  0  0  0  0  0  0
   -5.6053    1.0569    0.9856 C   0  0  0  0  0  0  0  0  0  0  0  0
   -8.0037   -0.5367   -1.3951 C   0  0  0  0  0  0  0  0  0  0  0  0
   -7.3035   -0.2643   -0.0741 C   0  0  0  0  0  0  0  0  0  0  0  0
   -7.5459    2.1435    0.0690 C   0  0  0  0  0  0  0  0  0  0  0  0
   -2.1844   -1.4039    0.0405 C   0  0  0  0  0  0  0  0  0  0  0  0
   -0.9726   -2.2380   -0.2701 C   0  0  0  0  0  0  0  0  0  0  0  0
    1.4232   -2.2008    0.1810 C   0  0  0  0  0  0  0  0  0  0  0  0
    3.8091   -2.1132    0.6230 C   0  0  0  0  0  0  0  0  0  0  0  0
    0.2131   -1.5926    0.2658 N   0  0  0  0  0  0  0  0  0  0  0  0
    4.5304   -1.3126   -0.4518 C   0  0  0  0  0  0  0  0  0  0  0  0
    2.5028   -0.2082    1.2304 C   0  0  0  0  0  0  0  0  0  0  0  0
    3.1726    0.6316    0.1526 C   0  0  0  0  0  0  0  0  0  0  0  0
    2.4675   -1.6083    0.8474 N   0  0  0  0  0  0  0  0  0  0  0  0
    5.5517    0.9181   -0.3713 C   0  0  0  0  0  0  0  0  0  0  0  0
    6.4303    3.0100   -0.3868 C   0  0  0  0  0  0  0  0  0  0  0  0
    4.4913    0.1052   -0.1418 N   0  0  0  0  0  0  0  0  0  0  0  0
    7.6681    2.5234   -0.7750 C   0  0  0  0  0  0  0  0  0  0  0  0
    7.7334    1.1504   -0.9487 C   0  0  0  0  0  0  0  0  0  0  0  0
   -2.7629   -1.4487    1.3047 C   0  0  0  0  0  0  0  0  0  0  0  0
   -3.8676   -0.6637    1.6070 C   0  0  0  0  0  0  0  0  0  0  0  0
    5.3803    2.2338   -0.1864 N   0  0  0  0  0  0  0  0  0  0  0  0
    1.5621   -3.2453   -0.4486 O   0  0  0  0  0  0  0  0  0  0  0  0
    6.7012    0.3486   -0.7569 N   0  0  0  0  0  0  0  0  0  0  0  0
   -6.6243    1.0226   -0.0436 N   0  0  0  0  0  0  0  0  0  0  0  0
   -6.9600    3.4451   -0.4539 C   0  0  0  0  0  0  0  0  0  0  0  0
   -2.3045   -0.5076   -1.9050 H   0  0  0  0  0  0  0  0  0  0  0  0
   -4.2806    0.8646   -1.3709 H   0  0  0  0  0  0  0  0  0  0  0  0
   -6.0013    0.7751    1.9762 H   0  0  0  0  0  0  0  0  0  0  0  0
   -5.2505    2.0856    1.0899 H   0  0  0  0  0  0  0  0  0  0  0  0
   -8.8103    0.1691   -1.5953 H   0  0  0  0  0  0  0  0  0  0  0  0
   -7.2949   -0.4823   -2.2217 H   0  0  0  0  0  0  0  0  0  0  0  0
   -8.4426   -1.5349   -1.3885 H   0  0  0  0  0  0  0  0  0  0  0  0
   -8.0199   -0.3634    0.7588 H   0  0  0  0  0  0  0  0  0  0  0  0
   -6.5534   -1.0437    0.0767 H   0  0  0  0  0  0  0  0  0  0  0  0
   -8.4368    1.9136   -0.5168 H   0  0  0  0  0  0  0  0  0  0  0  0
   -7.8950    2.2760    1.1065 H   0  0  0  0  0  0  0  0  0  0  0  0
   -1.0955   -3.2401    0.1517 H   0  0  0  0  0  0  0  0  0  0  0  0
   -0.8718   -2.3576   -1.3504 H   0  0  0  0  0  0  0  0  0  0  0  0
    3.7751   -3.1614    0.3405 H   0  0  0  0  0  0  0  0  0  0  0  0
    4.3617   -2.0415    1.5640 H   0  0  0  0  0  0  0  0  0  0  0  0
    0.0572   -0.8646    0.9411 H   0  0  0  0  0  0  0  0  0  0  0  0
    5.5638   -1.6393   -0.5200 H   0  0  0  0  0  0  0  0  0  0  0  0
    4.0595   -1.4977   -1.4253 H   0  0  0  0  0  0  0  0  0  0  0  0
    3.0688   -0.1261    2.1616 H   0  0  0  0  0  0  0  0  0  0  0  0
    1.5149    0.1948    1.4400 H   0  0  0  0  0  0  0  0  0  0  0  0
    2.5514    0.6227   -0.7518 H   0  0  0  0  0  0  0  0  0  0  0  0
    3.2562    1.6614    0.4867 H   0  0  0  0  0  0  0  0  0  0  0  0
    6.2763    4.0731   -0.2331 H   0  0  0  0  0  0  0  0  0  0  0  0
    8.5172    3.1687   -0.9397 H   0  0  0  0  0  0  0  0  0  0  0  0
    8.6581    0.6753   -1.2593 H   0  0  0  0  0  0  0  0  0  0  0  0
   -2.3557   -2.1117    2.0595 H   0  0  0  0  0  0  0  0  0  0  0  0
   -4.3089   -0.7210    2.5953 H   0  0  0  0  0  0  0  0  0  0  0  0
   -7.6970    4.2458   -0.3867 H   0  0  0  0  0  0  0  0  0  0  0  0
   -6.0827    3.7658    0.1091 H   0  0  0  0  0  0  0  0  0  0  0  0
   -6.6661    3.3395   -1.4984 H   0  0  0  0  0  0  0  0  0  0  0  0
  5  6  1  0
 28  7  1  0
  6 27  1  0
  7 27  1  0
 27  4  1  0
 23 22  2  0
 23  3  1  0
  4  3  1  0
 22  8  1  0
  3  2  2  0
  8  9  1  0
  8  1  2  0
  2  1  1  0
  9 12  1  0
 25 10  2  0
 12 10  1  0
 10 16  1  0
 16 11  1  0
 16 14  1  0
 11 13  1  0
 14 15  1  0
 13 19  1  0
 15 19  1  0
 19 17  1  0
 17 24  1  0
 17 26  2  0
 24 18  2  0
 26 21  1  0
 18 20  1  0
 21 20  2  0
  1 29  1  0
  2 30  1  0
  4 31  1  0
  4 32  1  0
  5 33  1  0
  5 34  1  0
  5 35  1  0
  6 36  1  0
  6 37  1  0
  7 38  1  0
  7 39  1  0
  9 40  1  0
  9 41  1  0
 11 42  1  0
 11 43  1  0
 12 44  1  0
 13 45  1  0
 13 46  1  0
 14 47  1  0
 14 48  1  0
 15 49  1  0
 15 50  1  0
 18 51  1  0
 20 52  1  0
 21 53  1  0
 22 54  1  0
 23 55  1  0
 28 56  1  0
 28 57  1  0
 28 58  1  0
M  END
