
     RDKit          3D

 54 58  0  0  0  0  0  0  0  0999 V2000
    4.2656    3.7114   -0.6001 N   0  0  0  0  0  0  0  0  0  0  0  0
    4.2150   -1.3723    1.2125 C   0  0  0  0  0  0  0  0  0  0  0  0
    0.2038    2.0299    1.1626 O   0  0  0  0  0  0  0  0  0  0  0  0
    3.1111    0.0013   -0.4437 C   0  0  0  0  0  0  0  0  0  0  0  0
    4.0418   -0.4262   -1.3756 C   0  0  0  0  0  0  0  0  0  0  0  0
    5.0592   -1.3139   -1.0395 C   0  0  0  0  0  0  0  0  0  0  0  0
    0.8662   -1.1639   -2.2138 O   0  0  0  0  0  0  0  0  0  0  0  0
    0.2020   -0.7296   -1.2932 C   0  0  0  0  0  0  0  0  0  0  0  0
    0.6556    0.4383   -0.5289 C   0  0  0  0  0  0  0  0  0  0  0  0
   -0.1456    0.9576    0.4109 C   0  0  0  0  0  0  0  0  0  0  0  0
    1.3332    2.7117    0.8895 C   0  0  0  0  0  0  0  0  0  0  0  0
    1.4446    3.7982    1.6542 N   0  0  0  0  0  0  0  0  0  0  0  0
    2.1946    2.2960   -0.0810 C   0  0  0  0  0  0  0  0  0  0  0  0
    3.3284    3.0759   -0.3579 C   0  0  0  0  0  0  0  0  0  0  0  0
    2.0240    0.9893   -0.8192 C   0  0  1  0  0  0  0  0  0  0  0  0
    3.2171   -0.4855    0.8583 C   0  0  0  0  0  0  0  0  0  0  0  0
    5.1491   -1.7959    0.2625 C   0  0  0  0  0  0  0  0  0  0  0  0
    6.0891   -2.6603    0.6929 O   0  0  0  0  0  0  0  0  0  0  0  0
    7.0513   -3.1231   -0.2329 C   0  0  0  0  0  0  0  0  0  0  0  0
   -1.0853   -1.3890   -0.8637 C   0  0  0  0  0  0  0  0  0  0  0  0
   -2.1035   -0.3655   -0.3681 C   0  0  2  0  0  0  0  0  0  0  0  0
   -1.4963    0.4462    0.7754 C   0  0  0  0  0  0  0  0  0  0  0  0
   -3.4255   -0.9655    0.0534 C   0  0  0  0  0  0  0  0  0  0  0  0
   -3.4613   -2.1691    0.7123 C   0  0  0  0  0  0  0  0  0  0  0  0
   -4.6686   -2.7431    1.1538 C   0  0  0  0  0  0  0  0  0  0  0  0
   -5.8528   -2.1014    0.9334 C   0  0  0  0  0  0  0  0  0  0  0  0
   -5.8724   -0.8528    0.2714 C   0  0  0  0  0  0  0  0  0  0  0  0
   -4.6523   -0.2680   -0.1722 C   0  0  0  0  0  0  0  0  0  0  0  0
   -7.0946   -0.1751    0.0499 C   0  0  0  0  0  0  0  0  0  0  0  0
   -7.1230    1.0393   -0.5760 C   0  0  0  0  0  0  0  0  0  0  0  0
   -5.9199    1.6284   -1.0109 C   0  0  0  0  0  0  0  0  0  0  0  0
   -4.7230    0.9939   -0.8156 C   0  0  0  0  0  0  0  0  0  0  0  0
    4.2812   -1.7439    2.2276 H   0  0  0  0  0  0  0  0  0  0  0  0
    3.9826   -0.0649   -2.3954 H   0  0  0  0  0  0  0  0  0  0  0  0
    5.7618   -1.6159   -1.8044 H   0  0  0  0  0  0  0  0  0  0  0  0
    0.7494    4.0093    2.3502 H   0  0  0  0  0  0  0  0  0  0  0  0
    2.2961    4.3324    1.6760 H   0  0  0  0  0  0  0  0  0  0  0  0
    2.5085   -0.1704    1.6164 H   0  0  0  0  0  0  0  0  0  0  0  0
    7.7052   -3.7993    0.3122 H   0  0  0  0  0  0  0  0  0  0  0  0
    6.5929   -3.6702   -1.0612 H   0  0  0  0  0  0  0  0  0  0  0  0
    7.6539   -2.3072   -0.6408 H   0  0  0  0  0  0  0  0  0  0  0  0
   -1.4852   -1.9670   -1.6973 H   0  0  0  0  0  0  0  0  0  0  0  0
   -0.8280   -2.1009   -0.0713 H   0  0  0  0  0  0  0  0  0  0  0  0
   -2.2721    0.3220   -1.1993 H   0  0  0  0  0  0  0  0  0  0  0  0
   -1.4104   -0.1750    1.6741 H   0  0  0  0  0  0  0  0  0  0  0  0
   -2.1416    1.2872    1.0401 H   0  0  0  0  0  0  0  0  0  0  0  0
   -2.5415   -2.7045    0.9091 H   0  0  0  0  0  0  0  0  0  0  0  0
   -4.6472   -3.6957    1.6669 H   0  0  0  0  0  0  0  0  0  0  0  0
   -6.7885   -2.5365    1.2630 H   0  0  0  0  0  0  0  0  0  0  0  0
   -8.0140   -0.6387    0.3867 H   0  0  0  0  0  0  0  0  0  0  0  0
   -8.0635    1.5490   -0.7390 H   0  0  0  0  0  0  0  0  0  0  0  0
   -5.9421    2.5904   -1.5063 H   0  0  0  0  0  0  0  0  0  0  0  0
   -3.8229    1.4787   -1.1676 H   0  0  0  0  0  0  0  0  0  0  0  0
    2.1013    1.1734   -1.8957 H   0  0  0  0  0  0  0  0  0  0  0  0
 19 18  1  0
 18 17  1  0
 17  2  2  0
 17  6  1  0
  2 16  1  0
  6  5  2  0
 16  4  2  0
  5  4  1  0
  4 15  1  0
  1 14  3  0
 14 13  1  0
 15 13  1  0
 15  9  1  0
  7  8  2  0
 13 11  2  0
  9  8  1  0
  9 10  2  0
  8 20  1  0
 11 12  1  0
 11  3  1  0
 31 32  1  0
 31 30  2  0
 10  3  1  0
 10 22  1  0
 20 21  1  0
 32 28  2  0
 30 29  1  0
 22 21  1  0
 21 23  1  0
 28 23  1  0
 28 27  1  0
 23 24  2  0
 29 27  2  0
 27 26  1  0
 24 25  1  0
 26 25  2  0
  2 33  1  0
  5 34  1  0
  6 35  1  0
 12 36  1  0
 12 37  1  0
 16 38  1  0
 19 39  1  0
 19 40  1  0
 19 41  1  0
 20 42  1  0
 20 43  1  0
 21 44  1  6
 22 45  1  0
 22 46  1  0
 24 47  1  0
 25 48  1  0
 26 49  1  0
 29 50  1  0
 30 51  1  0
 31 52  1  0
 32 53  1  0
 15 54  1  6
M  END
