
     RDKit          3D

 13 12  0  0  0  0  0  0  0  0999 V2000
    2.8369   -0.8280   -0.2010 O   0  0  0  0  0  0  0  0  0  0  0  0
    2.1117    1.2293    0.2711 O   0  0  0  0  0  0  0  0  0  0  0  0
   -2.8299    0.7390    0.2601 O   0  0  0  0  0  0  0  0  0  0  0  0
   -2.0899   -1.1910   -0.2681 O   0  0  0  0  0  0  0  0  0  0  0  0
    1.8897    0.0717    0.0204 C   0  0  0  0  0  0  0  0  0  0  0  0
    0.5177   -0.5402   -0.0805 C   0  0  0  0  0  0  0  0  0  0  0  0
   -0.5470    0.5162    0.1063 C   0  0  0  0  0  0  0  0  0  0  0  0
   -1.9319   -0.0327    0.0269 N   0  0  0  0  0  0  0  0  0  0  0  0
    3.7114   -0.4157   -0.1325 H   0  0  0  0  0  0  0  0  0  0  0  0
    0.4287   -1.0316   -1.0514 H   0  0  0  0  0  0  0  0  0  0  0  0
    0.4363   -1.3244    0.6760 H   0  0  0  0  0  0  0  0  0  0  0  0
   -0.4842    1.0052    1.0773 H   0  0  0  0  0  0  0  0  0  0  0  0
   -0.5024    1.2893   -0.6608 H   0  0  0  0  0  0  0  0  0  0  0  0
  1  5  1  0
  1  9  1  0
  2  5  2  0
  3  8  2  0
  4  8  1  0
  5  6  1  0
  6  7  1  0
  6 10  1  0
  6 11  1  0
  7  8  1  0
  7 12  1  0
  7 13  1  0
M  CHG  2   4  -1   8   1
M  END
