
     RDKit          3D

 42 44  0  0  0  0  0  0  0  0999 V2000
    3.7879    2.0863   -1.0742 O   0  0  0  0  0  0  0  0  0  0  0  0
    3.3284    1.0751   -0.5804 C   0  0  0  0  0  0  0  0  0  0  0  0
    4.2577   -0.0507   -0.2508 C   0  0  0  0  0  0  0  0  0  0  0  0
    3.9732   -1.3682   -0.5886 C   0  0  0  0  0  0  0  0  0  0  0  0
    4.9245   -2.3424   -0.3209 C   0  0  0  0  0  0  0  0  0  0  0  0
    6.0886   -2.0880    0.2621 N   0  0  0  0  0  0  0  0  0  0  0  0
    6.3545   -0.8272    0.5857 C   0  0  0  0  0  0  0  0  0  0  0  0
    5.4865    0.2242    0.3385 C   0  0  0  0  0  0  0  0  0  0  0  0
    1.8914    0.9274   -0.2980 C   0  0  0  0  0  0  0  0  0  0  0  0
    1.4010   -0.0061    0.6131 C   0  0  0  0  0  0  0  0  0  0  0  0
    0.9801    1.7960   -0.9142 C   0  0  0  0  0  0  0  0  0  0  0  0
   -0.3656    1.7157   -0.6464 C   0  0  0  0  0  0  0  0  0  0  0  0
   -0.8482    0.7712    0.2712 C   0  0  0  0  0  0  0  0  0  0  0  0
    0.0493   -0.0879    0.9060 C   0  0  0  0  0  0  0  0  0  0  0  0
   -2.1664    0.7709    0.4748 O   0  0  0  0  0  0  0  0  0  0  0  0
   -2.7279   -0.1425    1.4083 C   0  0  0  0  0  0  0  0  0  0  0  0
   -4.2173    0.1069    1.4773 C   0  0  0  0  0  0  0  0  0  0  0  0
   -4.8960   -0.1089    0.2247 N   0  0  0  0  0  0  0  0  0  0  0  0
   -4.9304   -1.4902   -0.2245 C   0  0  0  0  0  0  0  0  0  0  0  0
   -6.2872    0.3053    0.2463 C   0  0  0  0  0  0  0  0  0  0  0  0
   -6.8398   -0.2409   -1.0672 C   0  0  0  0  0  0  0  0  0  0  0  0
   -5.9801   -1.4928   -1.3416 C   0  0  0  0  0  0  0  0  0  0  0  0
    3.0440   -1.6441   -1.0691 H   0  0  0  0  0  0  0  0  0  0  0  0
    4.7286   -3.3744   -0.5887 H   0  0  0  0  0  0  0  0  0  0  0  0
    7.3088   -0.6390    1.0644 H   0  0  0  0  0  0  0  0  0  0  0  0
    5.7645    1.2321    0.6151 H   0  0  0  0  0  0  0  0  0  0  0  0
    2.0748   -0.6728    1.1344 H   0  0  0  0  0  0  0  0  0  0  0  0
    1.3341    2.5354   -1.6205 H   0  0  0  0  0  0  0  0  0  0  0  0
   -1.0630    2.3827   -1.1368 H   0  0  0  0  0  0  0  0  0  0  0  0
   -0.2839   -0.8180    1.6301 H   0  0  0  0  0  0  0  0  0  0  0  0
   -2.5107   -1.1724    1.1071 H   0  0  0  0  0  0  0  0  0  0  0  0
   -2.2950    0.0109    2.4021 H   0  0  0  0  0  0  0  0  0  0  0  0
   -4.6141   -0.5354    2.2833 H   0  0  0  0  0  0  0  0  0  0  0  0
   -4.3871    1.1392    1.7957 H   0  0  0  0  0  0  0  0  0  0  0  0
   -3.9511   -1.8270   -0.5692 H   0  0  0  0  0  0  0  0  0  0  0  0
   -5.2395   -2.1677    0.5900 H   0  0  0  0  0  0  0  0  0  0  0  0
   -6.8301   -0.1346    1.1012 H   0  0  0  0  0  0  0  0  0  0  0  0
   -6.3710    1.3909    0.3332 H   0  0  0  0  0  0  0  0  0  0  0  0
   -7.9035   -0.4654   -0.9963 H   0  0  0  0  0  0  0  0  0  0  0  0
   -6.7158    0.4920   -1.8649 H   0  0  0  0  0  0  0  0  0  0  0  0
   -5.5091   -1.4340   -2.3230 H   0  0  0  0  0  0  0  0  0  0  0  0
   -6.5664   -2.4111   -1.3229 H   0  0  0  0  0  0  0  0  0  0  0  0
  2  1  2  0
  9  2  1  0
  2  3  1  0
  4  3  2  0
  3  8  1  0
  4  5  1  0
  4 23  1  0
  5  6  2  0
  5 24  1  0
  6  7  1  0
  8  7  2  0
  7 25  1  0
  8 26  1  0
 11  9  1  0
  9 10  2  0
 14 10  1  0
 10 27  1  0
 12 11  2  0
 11 28  1  0
 12 13  1  0
 12 29  1  0
 15 13  1  0
 13 14  2  0
 14 30  1  0
 15 16  1  0
 17 16  1  0
 16 31  1  0
 16 32  1  0
 17 18  1  0
 17 33  1  0
 17 34  1  0
 19 18  1  0
 18 20  1  0
 19 22  1  0
 19 35  1  0
 19 36  1  0
 20 21  1  0
 20 37  1  0
 20 38  1  0
 22 21  1  0
 21 39  1  0
 21 40  1  0
 22 41  1  0
 22 42  1  0
M  END
