
     RDKit          3D

 10  9  0  0  0  0  0  0  0  0999 V2000
    0.5718    0.0016    0.0550 N   0  0  0  0  0  0  0  0  0  0  0  0
   -1.9213    0.1399   -0.2691 C   0  0  0  0  0  0  0  0  0  0  0  0
   -0.7570   -0.6474    0.2742 C   0  0  0  0  0  0  0  0  0  0  0  0
    0.6118    1.1038   -0.4315 O   0  0  0  0  0  0  0  0  0  0  0  0
    1.5464   -0.6274    0.3929 O   0  0  0  0  0  0  0  0  0  0  0  0
   -1.8532    0.2821   -1.3461 H   0  0  0  0  0  0  0  0  0  0  0  0
   -2.8269   -0.4303   -0.0661 H   0  0  0  0  0  0  0  0  0  0  0  0
   -2.0249    1.1103    0.2122 H   0  0  0  0  0  0  0  0  0  0  0  0
   -0.6739   -1.6319   -0.1842 H   0  0  0  0  0  0  0  0  0  0  0  0
   -0.8258   -0.7908    1.3527 H   0  0  0  0  0  0  0  0  0  0  0  0
  1  3  1  0
  1  4  2  0
  1  5  1  0
  2  3  1  0
  2  6  1  0
  2  7  1  0
  2  8  1  0
  3  9  1  0
  3 10  1  0
M  CHG  2   1   1   5  -1
M  END
