
     RDKit          3D

 39 40  0  0  0  0  0  0  0  0999 V2000
   -3.9886    0.6168    1.0802 C   0  0  0  0  0  0  0  0  0  0  0  0
   -5.3548    0.3679    1.0944 C   0  0  0  0  0  0  0  0  0  0  0  0
   -6.0081   -0.0060   -0.0726 C   0  0  0  0  0  0  0  0  0  0  0  0
   -5.2858   -0.1246   -1.2531 C   0  0  0  0  0  0  0  0  0  0  0  0
   -3.9209    0.1296   -1.2619 C   0  0  0  0  0  0  0  0  0  0  0  0
   -3.2541    0.5035   -0.0970 C   0  0  0  0  0  0  0  0  0  0  0  0
   -1.7715    0.7458   -0.1138 C   0  0  0  0  0  0  0  0  0  0  0  0
   -0.9889   -0.5609    0.0199 C   0  0  2  0  0  0  0  0  0  0  0  0
   -1.3675   -1.2809    1.1777 O   0  0  0  0  0  0  0  0  0  0  0  0
    0.5172   -0.4122   -0.0243 C   0  0  0  0  0  0  0  0  0  0  0  0
    1.1237    0.7517   -0.2396 C   0  0  0  0  0  0  0  0  0  0  0  0
    2.6164    0.9212   -0.3500 C   0  0  2  0  0  0  0  0  0  0  0  0
    3.0385    2.1146    0.5102 C   0  0  0  0  0  0  0  0  0  0  0  0
    4.0762    2.7666    0.0167 O   0  0  0  0  0  0  0  0  0  0  0  0
    2.4991    2.3947    1.5509 O   0  0  0  0  0  0  0  0  0  0  0  0
    3.0108    1.0753   -1.6917 O   0  0  0  0  0  0  0  0  0  0  0  0
    3.3411   -0.3083    0.1998 C   0  0  0  0  0  0  0  0  0  0  0  0
    2.7047   -1.5933   -0.3142 C   0  0  1  0  0  0  0  0  0  0  0  0
    3.4181   -2.7243    0.1255 O   0  0  0  0  0  0  0  0  0  0  0  0
    1.2894   -1.6987    0.2234 C   0  0  2  0  0  0  0  0  0  0  0  0
    0.6702   -2.8074   -0.3855 O   0  0  0  0  0  0  0  0  0  0  0  0
   -3.4915    0.9160    1.9953 H   0  0  0  0  0  0  0  0  0  0  0  0
   -5.9101    0.4662    2.0186 H   0  0  0  0  0  0  0  0  0  0  0  0
   -7.0733   -0.1974   -0.0630 H   0  0  0  0  0  0  0  0  0  0  0  0
   -5.7856   -0.4117   -2.1694 H   0  0  0  0  0  0  0  0  0  0  0  0
   -3.3656    0.0406   -2.1890 H   0  0  0  0  0  0  0  0  0  0  0  0
   -1.4904    1.2287   -1.0519 H   0  0  0  0  0  0  0  0  0  0  0  0
   -1.4951    1.4324    0.6921 H   0  0  0  0  0  0  0  0  0  0  0  0
   -1.2802   -1.2012   -0.8194 H   0  0  0  0  0  0  0  0  0  0  0  0
   -1.1170   -0.7668    1.9533 H   0  0  0  0  0  0  0  0  0  0  0  0
    0.5376    1.6508   -0.3996 H   0  0  0  0  0  0  0  0  0  0  0  0
    1.3603   -1.8476    1.3112 H   0  0  0  0  0  0  0  0  0  0  0  0
    2.4519    1.7345   -2.1180 H   0  0  0  0  0  0  0  0  0  0  0  0
    4.3965   -0.2616   -0.0825 H   0  0  0  0  0  0  0  0  0  0  0  0
    3.2996   -0.3076    1.2927 H   0  0  0  0  0  0  0  0  0  0  0  0
    4.3301    3.4813    0.6205 H   0  0  0  0  0  0  0  0  0  0  0  0
    2.6574   -1.5620   -1.4118 H   0  0  0  0  0  0  0  0  0  0  0  0
    4.2806   -2.7185   -0.3009 H   0  0  0  0  0  0  0  0  0  0  0  0
   -0.0636   -3.0843    0.1724 H   0  0  0  0  0  0  0  0  0  0  0  0
  1  2  2  0
  1  6  1  0
  2  3  1  0
  3  4  2  0
  4  5  1  0
  5  6  2  0
  6  7  1  0
  7  8  1  0
  8  9  1  0
  8 10  1  0
 10 11  2  0
 10 20  1  0
 11 12  1  0
 12 13  1  0
 12 16  1  6
 12 17  1  0
 13 14  1  0
 13 15  2  0
 17 18  1  0
 18 19  1  0
 18 20  1  0
 20 21  1  0
  1 22  1  0
  2 23  1  0
  3 24  1  0
  4 25  1  0
  5 26  1  0
  7 27  1  0
  7 28  1  0
  8 29  1  6
  9 30  1  0
 11 31  1  0
 20 32  1  1
 16 33  1  0
 17 34  1  0
 17 35  1  0
 14 36  1  0
 18 37  1  6
 19 38  1  0
 21 39  1  0
M  END
