
     RDKit          3D

 26 27  0  0  0  0  0  0  0  0999 V2000
    3.3035   -2.2329   -0.8652 C   0  0  0  0  0  0  0  0  0  0  0  0
    2.1763   -1.4299   -0.5728 O   0  0  0  0  0  0  0  0  0  0  0  0
    2.3710   -0.1795   -0.1291 C   0  0  0  0  0  0  0  0  0  0  0  0
    3.6290    0.3936    0.0457 C   0  0  0  0  0  0  0  0  0  0  0  0
    3.7433    1.7110    0.4709 C   0  0  0  0  0  0  0  0  0  0  0  0
    2.6166    2.4784    0.7161 C   0  0  0  0  0  0  0  0  0  0  0  0
    1.3640    1.9088    0.5366 C   0  0  0  0  0  0  0  0  0  0  0  0
    1.2216    0.5863    0.1321 C   0  0  0  0  0  0  0  0  0  0  0  0
   -0.1364    0.0214   -0.0164 C   0  0  0  0  0  0  0  0  0  0  0  0
   -1.0897    0.7025   -0.7713 C   0  0  0  0  0  0  0  0  0  0  0  0
   -2.3363    0.1067   -0.8066 C   0  0  0  0  0  0  0  0  0  0  0  0
   -3.6025    0.8669   -1.7110 Cl  0  0  0  0  0  0  0  0  0  0  0  0
   -2.6451   -1.0095   -0.2042 N   0  0  0  0  0  0  0  0  0  0  0  0
   -1.6545   -1.5884    0.4931 C   0  0  0  0  0  0  0  0  0  0  0  0
   -1.9369   -2.7477    1.1039 N   0  0  0  0  0  0  0  0  0  0  0  0
   -0.4137   -1.1114    0.6120 N   0  0  0  0  0  0  0  0  0  0  0  0
    3.9241   -2.4019    0.0183 H   0  0  0  0  0  0  0  0  0  0  0  0
    2.9172   -3.1886   -1.2099 H   0  0  0  0  0  0  0  0  0  0  0  0
    3.9219   -1.7975   -1.6543 H   0  0  0  0  0  0  0  0  0  0  0  0
    4.5303   -0.1705   -0.1501 H   0  0  0  0  0  0  0  0  0  0  0  0
    4.7302    2.1343    0.6055 H   0  0  0  0  0  0  0  0  0  0  0  0
    2.7071    3.5044    1.0455 H   0  0  0  0  0  0  0  0  0  0  0  0
    0.4745    2.4945    0.7336 H   0  0  0  0  0  0  0  0  0  0  0  0
   -0.8675    1.6193   -1.2943 H   0  0  0  0  0  0  0  0  0  0  0  0
   -2.8891   -3.0639    1.1594 H   0  0  0  0  0  0  0  0  0  0  0  0
   -1.2735   -3.1405    1.7482 H   0  0  0  0  0  0  0  0  0  0  0  0
  1  2  1  0
  2  3  1  0
  3  4  2  0
  3  8  1  0
  4  5  1  0
  5  6  2  0
  6  7  1  0
  7  8  2  0
  8  9  1  0
  9 10  2  0
  9 16  1  0
 10 11  1  0
 11 12  1  0
 11 13  2  0
 13 14  1  0
 14 15  1  0
 14 16  2  0
  1 17  1  0
  1 18  1  0
  1 19  1  0
  4 20  1  0
  5 21  1  0
  6 22  1  0
  7 23  1  0
 10 24  1  0
 15 25  1  0
 15 26  1  0
M  END
