
     RDKit          3D

 22 23  0  0  0  0  0  0  0  0999 V2000
    1.1308    0.3319   -0.1987 N   0  0  0  0  0  0  0  0  0  0  0  0
    1.6660    1.4641   -0.6316 N   0  0  0  0  0  0  0  0  0  0  0  0
   -2.4249    1.1391    0.3397 C   0  0  0  0  0  0  0  0  0  0  0  0
   -1.0506    1.2807    0.2479 C   0  0  0  0  0  0  0  0  0  0  0  0
   -0.2690    0.1879   -0.1029 C   0  0  0  0  0  0  0  0  0  0  0  0
    2.0913   -0.5698    0.1042 C   0  0  0  0  0  0  0  0  0  0  0  0
    3.2574    0.0895   -0.1705 C   0  0  0  0  0  0  0  0  0  0  0  0
   -0.8523   -1.0454   -0.3568 C   0  0  0  0  0  0  0  0  0  0  0  0
   -2.2257   -1.1927   -0.2502 C   0  0  0  0  0  0  0  0  0  0  0  0
   -3.0021   -0.0976    0.0940 C   0  0  0  0  0  0  0  0  0  0  0  0
    2.9432    1.3263   -0.6160 N   0  0  0  0  0  0  0  0  0  0  0  0
    4.6620   -0.3818   -0.0245 C   0  0  0  0  0  0  0  0  0  0  0  0
    4.6230   -1.6996    0.4581 O   0  0  0  0  0  0  0  0  0  0  0  0
   -4.7181   -0.2754    0.2185 Cl  0  0  0  0  0  0  0  0  0  0  0  0
   -0.5955    2.2384    0.4581 H   0  0  0  0  0  0  0  0  0  0  0  0
    1.8744   -1.5479    0.4962 H   0  0  0  0  0  0  0  0  0  0  0  0
   -0.2502   -1.8948   -0.6507 H   0  0  0  0  0  0  0  0  0  0  0  0
   -2.6808   -2.1531   -0.4484 H   0  0  0  0  0  0  0  0  0  0  0  0
    5.1697   -0.3110   -0.9949 H   0  0  0  0  0  0  0  0  0  0  0  0
    5.1982    0.2917    0.6559 H   0  0  0  0  0  0  0  0  0  0  0  0
    5.5270   -2.0084    0.5642 H   0  0  0  0  0  0  0  0  0  0  0  0
   -3.0358    1.9881    0.6132 H   0  0  0  0  0  0  0  0  0  0  0  0
  9  8  2  0
  9 10  1  0
 14 10  1  0
  8  5  1  0
 10  3  2  0
  2  1  1  0
  2 11  2  0
  5  1  1  0
  5  4  2  0
  3  4  1  0
  1  6  1  0
 11  7  1  0
  6  7  2  0
  7 12  1  0
 13 12  1  0
  3 22  1  0
  4 15  1  0
  6 16  1  0
  8 17  1  0
  9 18  1  0
 12 19  1  0
 12 20  1  0
 13 21  1  0
M  END
