
     RDKit          3D

 39 41  0  0  0  0  0  0  0  0999 V2000
   -0.0667   -0.2938   -0.5063 C   0  0  0  0  0  0  0  0  0  0  0  0
    3.4779    1.5819    1.3750 C   0  0  0  0  0  0  0  0  0  0  0  0
    0.9497   -1.2222   -0.7209 C   0  0  0  0  0  0  0  0  0  0  0  0
    0.7537   -2.5468   -0.3708 C   0  0  0  0  0  0  0  0  0  0  0  0
    3.2242    1.5736   -1.3856 C   0  0  0  0  0  0  0  0  0  0  0  0
   -0.4516   -2.9410    0.2127 C   0  0  0  0  0  0  0  0  0  0  0  0
   -1.4553   -2.0112    0.4456 C   0  0  0  0  0  0  0  0  0  0  0  0
    2.2414   -0.7499   -1.3630 C   0  0  1  0  0  0  0  0  0  0  0  0
    2.7938    0.4713   -0.6569 C   0  0  0  0  0  0  0  0  0  0  0  0
    3.7731    2.6766   -0.7427 C   0  0  0  0  0  0  0  0  0  0  0  0
    3.9022    2.6819    0.6387 C   0  0  0  0  0  0  0  0  0  0  0  0
   -1.2644   -0.6764    0.0841 C   0  0  0  0  0  0  0  0  0  0  0  0
    3.2141   -1.7624   -1.4653 O   0  0  0  0  0  0  0  0  0  0  0  0
    2.9257    0.4852    0.7305 C   0  0  0  0  0  0  0  0  0  0  0  0
   -0.5807   -4.2416    0.5404 O   0  0  0  0  0  0  0  0  0  0  0  0
   -2.3062    0.3191    0.3453 C   0  0  0  0  0  0  0  0  0  0  0  0
   -2.1670    1.5497    0.9089 C   0  0  0  0  0  0  0  0  0  0  0  0
   -1.0073    2.2863    1.4612 C   0  0  0  0  0  0  0  0  0  0  0  0
   -3.3591    2.1482    0.9525 O   0  0  0  0  0  0  0  0  0  0  0  0
   -4.3119    1.3312    0.4147 N   0  0  0  0  0  0  0  0  0  0  0  0
   -3.7018    0.2407    0.0557 C   0  0  0  0  0  0  0  0  0  0  0  0
   -4.4420   -0.8739   -0.5931 C   0  0  0  0  0  0  0  0  0  0  0  0
    0.0775    0.7370   -0.8063 H   0  0  0  0  0  0  0  0  0  0  0  0
    1.5223   -3.2900   -0.5412 H   0  0  0  0  0  0  0  0  0  0  0  0
    3.1241    1.5748   -2.4649 H   0  0  0  0  0  0  0  0  0  0  0  0
   -2.3755   -2.3206    0.9287 H   0  0  0  0  0  0  0  0  0  0  0  0
    2.0089   -0.4681   -2.3953 H   0  0  0  0  0  0  0  0  0  0  0  0
    4.0994    3.5311   -1.3215 H   0  0  0  0  0  0  0  0  0  0  0  0
    4.3274    3.5409    1.1412 H   0  0  0  0  0  0  0  0  0  0  0  0
    3.5646   -1.9494   -0.5870 H   0  0  0  0  0  0  0  0  0  0  0  0
    2.5798   -0.3580    1.3180 H   0  0  0  0  0  0  0  0  0  0  0  0
   -1.4454   -4.4067    0.9324 H   0  0  0  0  0  0  0  0  0  0  0  0
   -1.2387    2.7049    2.4408 H   0  0  0  0  0  0  0  0  0  0  0  0
   -0.1515    1.6225    1.5638 H   0  0  0  0  0  0  0  0  0  0  0  0
   -0.7140    3.1106    0.8089 H   0  0  0  0  0  0  0  0  0  0  0  0
   -4.5086   -1.7391    0.0664 H   0  0  0  0  0  0  0  0  0  0  0  0
   -5.4530   -0.5680   -0.8541 H   0  0  0  0  0  0  0  0  0  0  0  0
   -3.9299   -1.1948   -1.4998 H   0  0  0  0  0  0  0  0  0  0  0  0
    3.5732    1.5817    2.4531 H   0  0  0  0  0  0  0  0  0  0  0  0
 10 11  1  0
 10  5  2  0
 11  2  2  0
  5  9  1  0
  2 14  1  0
  9 14  2  0
  9  8  1  0
 13  8  1  0
  8  3  1  0
  3  1  2  0
  3  4  1  0
  1 12  1  0
 18 17  1  0
  4  6  2  0
 17 19  1  0
 17 16  2  0
 19 20  1  0
 12 16  1  0
 12  7  2  0
 16 21  1  0
 20 21  2  0
 21 22  1  0
  6  7  1  0
  6 15  1  0
  1 23  1  0
  2 39  1  0
  4 24  1  0
  5 25  1  0
  7 26  1  0
  8 27  1  6
 10 28  1  0
 11 29  1  0
 13 30  1  0
 14 31  1  0
 15 32  1  0
 18 33  1  0
 18 34  1  0
 18 35  1  0
 22 36  1  0
 22 37  1  0
 22 38  1  0
M  END
