
     RDKit          3D

 64 68  0  0  0  0  0  0  0  0999 V2000
    0.7282    4.0710    0.3526 C   0  0  0  0  0  0  0  0  0  0  0  0
   -0.6053    3.7058    0.2061 C   0  0  0  0  0  0  0  0  0  0  0  0
   -0.8903    2.4708   -0.3933 C   0  0  0  0  0  0  0  0  0  0  0  0
    0.1392    1.6516   -0.8377 C   0  0  0  0  0  0  0  0  0  0  0  0
    1.4670    2.0161   -0.6457 C   0  0  0  0  0  0  0  0  0  0  0  0
    1.7598    3.2404   -0.0519 C   0  0  0  0  0  0  0  0  0  0  0  0
    2.5160    1.0823   -1.1506 C   0  0  0  0  0  0  0  0  0  0  0  0
    4.8761    0.4356   -0.7753 C   0  0  0  0  0  0  0  0  0  0  0  0
    5.8106    0.3565    0.2577 C   0  0  0  0  0  0  0  0  0  0  0  0
    7.0003   -0.3292    0.0753 C   0  0  0  0  0  0  0  0  0  0  0  0
    7.2748   -0.9593   -1.1329 C   0  0  0  0  0  0  0  0  0  0  0  0
    6.3449   -0.8739   -2.1555 C   0  0  0  0  0  0  0  0  0  0  0  0
    5.1538   -0.1823   -1.9944 C   0  0  0  0  0  0  0  0  0  0  0  0
   -1.7036    4.6124    0.6711 C   0  0  0  0  0  0  0  0  0  0  0  0
   -2.8022    0.9032   -0.3906 C   0  0  0  0  0  0  0  0  0  0  0  0
   -2.6981   -1.2351    0.1715 C   0  0  0  0  0  0  0  0  0  0  0  0
   -4.6586   -0.3721   -0.4572 C   0  0  0  0  0  0  0  0  0  0  0  0
   -2.4129   -3.5879    0.8469 C   0  0  0  0  0  0  0  0  0  0  0  0
   -0.3149   -3.6196    1.2272 C   0  0  0  0  0  0  0  0  0  0  0  0
   -0.5905   -2.3466    0.8469 C   0  0  0  0  0  0  0  0  0  0  0  0
   -6.6651   -1.7802   -0.5327 C   0  0  0  0  0  0  0  0  0  0  0  0
   -7.8074   -1.6331    0.4649 C   0  0  0  0  0  0  0  0  0  0  0  0
   -8.7473   -0.5172    0.0407 C   0  0  2  0  0  0  0  0  0  0  0  0
   -7.9633    0.7774   -0.1451 C   0  0  0  0  0  0  0  0  0  0  0  0
   -6.8133    0.5821   -1.1270 C   0  0  0  0  0  0  0  0  0  0  0  0
    7.9747   -0.4469    1.2060 C   0  0  1  0  0  0  0  0  0  0  0  0
    7.7991   -1.5890    1.8885 F   0  0  0  0  0  0  0  0  0  0  0  0
    9.2420   -0.4485    0.7767 F   0  0  0  0  0  0  0  0  0  0  0  0
    7.8605    0.5505    2.0891 F   0  0  0  0  0  0  0  0  0  0  0  0
    3.7185    1.1752   -0.5221 N   0  0  0  0  0  0  0  0  0  0  0  0
   -2.2347    2.1152   -0.5736 N   0  0  0  0  0  0  0  0  0  0  0  0
   -2.0365   -0.1059    0.0321 N   0  0  0  0  0  0  0  0  0  0  0  0
   -3.9705   -1.4546   -0.0454 N   0  0  0  0  0  0  0  0  0  0  0  0
   -4.1013    0.8275   -0.6425 N   0  0  0  0  0  0  0  0  0  0  0  0
   -1.9459   -2.3285    0.6014 N   0  0  0  0  0  0  0  0  0  0  0  0
   -1.4587   -4.3831    1.2243 N   0  0  0  0  0  0  0  0  0  0  0  0
   -5.9647   -0.5182   -0.7029 N   0  0  0  0  0  0  0  0  0  0  0  0
    2.2863    0.2946   -2.0504 O   0  0  0  0  0  0  0  0  0  0  0  0
    0.9656    5.0272    0.8011 H   0  0  0  0  0  0  0  0  0  0  0  0
   -0.0918    0.7208   -1.3332 H   0  0  0  0  0  0  0  0  0  0  0  0
    2.7801    3.5790    0.0753 H   0  0  0  0  0  0  0  0  0  0  0  0
    5.5907    0.8401    1.2017 H   0  0  0  0  0  0  0  0  0  0  0  0
    8.1966   -1.5031   -1.2887 H   0  0  0  0  0  0  0  0  0  0  0  0
    6.5513   -1.3494   -3.1050 H   0  0  0  0  0  0  0  0  0  0  0  0
    4.4638   -0.1230   -2.8197 H   0  0  0  0  0  0  0  0  0  0  0  0
   -2.2961    4.9918   -0.1653 H   0  0  0  0  0  0  0  0  0  0  0  0
   -2.3918    4.0992    1.3450 H   0  0  0  0  0  0  0  0  0  0  0  0
   -1.2997    5.4751    1.1972 H   0  0  0  0  0  0  0  0  0  0  0  0
   -3.4532   -3.8451    0.7310 H   0  0  0  0  0  0  0  0  0  0  0  0
    0.6429   -4.0322    1.5025 H   0  0  0  0  0  0  0  0  0  0  0  0
    0.0268   -1.4740    0.7293 H   0  0  0  0  0  0  0  0  0  0  0  0
   -5.9657   -2.5440   -0.2094 H   0  0  0  0  0  0  0  0  0  0  0  0
   -7.0601   -2.0863   -1.5074 H   0  0  0  0  0  0  0  0  0  0  0  0
   -8.3452   -2.5820    0.5275 H   0  0  0  0  0  0  0  0  0  0  0  0
   -7.4000   -1.4180    1.4576 H   0  0  0  0  0  0  0  0  0  0  0  0
   -9.1814   -0.7930   -0.9337 H   0  0  0  0  0  0  0  0  0  0  0  0
   -8.6157    1.5689   -0.5244 H   0  0  0  0  0  0  0  0  0  0  0  0
   -7.5691    1.1087    0.8205 H   0  0  0  0  0  0  0  0  0  0  0  0
   -7.2076    0.3515   -2.1226 H   0  0  0  0  0  0  0  0  0  0  0  0
   -6.2201    1.4868   -1.2123 H   0  0  0  0  0  0  0  0  0  0  0  0
    3.7529    1.7412    0.3119 H   0  0  0  0  0  0  0  0  0  0  0  0
   -2.8870    2.8514   -0.8007 H   0  0  0  0  0  0  0  0  0  0  0  0
   -9.7608   -0.3992    1.0148 O   0  0  0  0  0  0  0  0  0  0  0  0
  -10.3932    0.2605    0.7131 H   0  0  0  0  0  0  0  0  0  0  0  0
 36 19  1  0
 36 18  2  0
 19 20  2  0
 18 35  1  0
 20 35  1  0
 35 16  1  0
 16 32  2  0
 16 33  1  0
 32 15  1  0
 33 17  2  0
 31 15  1  0
 31  3  1  0
 15 34  2  0
 14  2  1  0
 17 34  1  0
 17 37  1  0
  3  2  1  0
  3  4  2  0
  2  1  2  0
  4  5  1  0
 37 25  1  0
 37 21  1  0
 25 24  1  0
  1  6  1  0
  5  6  2  0
  5  7  1  0
 38  7  2  0
 24 23  1  0
 26 29  1  1
 21 22  1  0
  7 30  1  0
 22 23  1  0
 30  8  1  0
  9  8  2  0
  9 10  1  0
 23 63  1  0
 26 27  1  0
 26 28  1  0
 26 10  1  0
  8 13  1  0
 10 11  2  0
 13 12  2  0
 11 12  1  0
  1 39  1  0
  4 40  1  0
  6 41  1  0
  9 42  1  0
 11 43  1  0
 12 44  1  0
 13 45  1  0
 14 46  1  0
 14 47  1  0
 14 48  1  0
 18 49  1  0
 19 50  1  0
 20 51  1  0
 21 52  1  0
 21 53  1  0
 22 54  1  0
 22 55  1  0
 23 56  1  6
 24 57  1  0
 24 58  1  0
 25 59  1  0
 25 60  1  0
 30 61  1  0
 31 62  1  0
 63 64  1  0
M  END
