
     RDKit          3D

 29 30  0  0  0  0  0  0  0  0999 V2000
    1.3163   -0.0471   -0.6353 S   0  0  0  0  0  0  0  0  0  0  0  0
   -0.0740    0.0105   -1.6337 C   0  0  0  0  0  0  0  0  0  0  0  0
   -1.2447   -0.0160   -0.9428 C   0  0  0  0  0  0  0  0  0  0  0  0
   -1.0345   -0.0897    0.4615 C   0  0  0  0  0  0  0  0  0  0  0  0
   -2.1484   -0.0885    1.4863 C   0  0  2  0  0  0  0  0  0  0  0  0
   -1.6436   -0.4411    2.8847 C   0  0  0  0  0  0  0  0  0  0  0  0
   -0.4028    0.3318    3.3322 C   0  0  1  0  0  0  0  0  0  0  0  0
    0.9938   -0.2458    2.3562 S   0  0  1  0  0  0  0  0  0  0  0  0
    0.3025   -0.1148    0.7434 C   0  0  0  0  0  0  0  0  0  0  0  0
    0.1073    0.1119   -3.3771 S   0  0  1  0  0  0  0  0  0  0  0  0
    1.3413   -0.5656   -3.7330 O   0  0  0  0  0  0  0  0  0  0  0  0
   -1.1541   -0.3241   -3.9484 O   0  0  0  0  0  0  0  0  0  0  0  0
    0.3875    1.7177   -3.5810 N   0  0  0  0  0  0  0  0  0  0  0  0
   -3.2576   -0.9610    1.1599 N   0  0  0  0  0  0  0  0  0  0  0  0
   -0.5327    1.8438    3.2588 C   0  0  0  0  0  0  0  0  0  0  0  0
    2.1239    0.6751    2.4268 O   0  0  0  0  0  0  0  0  0  0  0  0
    1.2400   -1.6538    2.6498 O   0  0  0  0  0  0  0  0  0  0  0  0
   -2.2187    0.0208   -1.4101 H   0  0  0  0  0  0  0  0  0  0  0  0
   -2.5455    0.9316    1.5081 H   0  0  0  0  0  0  0  0  0  0  0  0
   -1.4536   -1.5158    2.9467 H   0  0  0  0  0  0  0  0  0  0  0  0
   -2.4393   -0.2313    3.6010 H   0  0  0  0  0  0  0  0  0  0  0  0
   -0.1407    0.0289    4.3505 H   0  0  0  0  0  0  0  0  0  0  0  0
    0.9204    1.9080   -4.4244 H   0  0  0  0  0  0  0  0  0  0  0  0
   -0.4562    2.2807   -3.5512 H   0  0  0  0  0  0  0  0  0  0  0  0
   -3.7391   -0.6445    0.3288 H   0  0  0  0  0  0  0  0  0  0  0  0
   -2.9291   -1.9004    0.9726 H   0  0  0  0  0  0  0  0  0  0  0  0
    0.3362    2.3388    3.6863 H   0  0  0  0  0  0  0  0  0  0  0  0
   -0.6674    2.2101    2.2409 H   0  0  0  0  0  0  0  0  0  0  0  0
   -1.4059    2.1453    3.8370 H   0  0  0  0  0  0  0  0  0  0  0  0
  1  2  1  0
  1  9  1  0
  2  3  2  0
  2 10  1  0
  3  4  1  0
  3 18  1  0
  4  5  1  0
  4  9  2  0
  5  6  1  0
  5 14  1  0
  5 19  1  1
  6  7  1  0
  6 20  1  0
  6 21  1  0
  7  8  1  0
  7 15  1  0
  7 22  1  1
  8  9  1  6
  8 16  2  0
  8 17  2  0
 10 11  2  0
 10 12  2  0
 10 13  1  1
 13 23  1  0
 13 24  1  0
 14 25  1  0
 14 26  1  0
 15 27  1  0
 15 28  1  0
 15 29  1  0
M  END
