
     RDKit          3D

 23 25  0  0  0  0  0  0  0  0999 V2000
   -4.4942   -1.3532   -0.1256 Cl  0  0  0  0  0  0  0  0  0  0  0  0
   -2.8759   -0.7655   -0.0841 C   0  0  0  0  0  0  0  0  0  0  0  0
   -2.6247    0.6187   -0.0469 C   0  0  0  0  0  0  0  0  0  0  0  0
   -3.9474    1.7105   -0.0454 Cl  0  0  0  0  0  0  0  0  0  0  0  0
   -1.3277    1.0927   -0.0128 C   0  0  0  0  0  0  0  0  0  0  0  0
   -1.0160    2.7810    0.0340 Cl  0  0  0  0  0  0  0  0  0  0  0  0
   -1.8493   -1.6948   -0.0884 C   0  0  0  0  0  0  0  0  0  0  0  0
   -0.5487   -1.1916   -0.0538 C   0  0  0  0  0  0  0  0  0  0  0  0
   -0.2695    0.1818   -0.0159 C   0  0  0  0  0  0  0  0  0  0  0  0
    1.1665    0.3006    0.0078 C   0  0  0  0  0  0  0  0  0  0  0  0
    1.6599   -1.0199   -0.0172 C   0  0  0  0  0  0  0  0  0  0  0  0
    3.0274   -1.2703   -0.0045 C   0  0  0  0  0  0  0  0  0  0  0  0
    3.5926   -2.8986   -0.0358 Cl  0  0  0  0  0  0  0  0  0  0  0  0
    2.0552    1.3756    0.0458 C   0  0  0  0  0  0  0  0  0  0  0  0
    3.4058    1.0955    0.0581 C   0  0  0  0  0  0  0  0  0  0  0  0
    4.5407    2.4050    0.1061 Cl  0  0  0  0  0  0  0  0  0  0  0  0
    3.9061   -0.2098    0.0332 C   0  0  0  0  0  0  0  0  0  0  0  0
    0.6199   -1.8972   -0.0563 N   0  0  0  0  0  0  0  0  0  0  0  0
   -2.0027   -3.0201   -0.1234 O   0  0  0  0  0  0  0  0  0  0  0  0
   -2.9347   -3.2724   -0.1718 H   0  0  0  0  0  0  0  0  0  0  0  0
    1.7092    2.3982    0.0654 H   0  0  0  0  0  0  0  0  0  0  0  0
    4.9726   -0.3873    0.0426 H   0  0  0  0  0  0  0  0  0  0  0  0
    0.6991   -2.9017   -0.0590 H   0  0  0  0  0  0  0  0  0  0  0  0
  1  2  1  0
  2  3  2  0
  2  7  1  0
  3  4  1  0
  3  5  1  0
  5  6  1  0
  5  9  2  0
  7  8  2  0
  7 19  1  0
  8  9  1  0
  8 18  1  0
  9 10  1  0
 10 11  2  0
 10 14  1  0
 11 12  1  0
 11 18  1  0
 12 13  1  0
 12 17  2  0
 14 15  2  0
 15 16  1  0
 15 17  1  0
 19 20  1  0
 14 21  1  0
 17 22  1  0
 18 23  1  0
M  END
