
     RDKit          3D

 26 26  0  0  0  0  0  0  0  0999 V2000
   -0.7204   -0.2601   -0.9955 N   0  0  0  0  0  0  0  0  0  0  0  0
    0.4929   -1.0264   -1.1164 C   0  0  0  0  0  0  0  0  0  0  0  0
    1.7050   -0.3681   -0.4989 C   0  0  0  0  0  0  0  0  0  0  0  0
    1.6260    0.3159    0.7115 C   0  0  0  0  0  0  0  0  0  0  0  0
    2.7590    0.8855    1.2760 C   0  0  0  0  0  0  0  0  0  0  0  0
    3.9895    0.7770    0.6400 C   0  0  0  0  0  0  0  0  0  0  0  0
    2.9409   -0.4687   -1.1307 C   0  0  0  0  0  0  0  0  0  0  0  0
   -4.7850    1.2778    0.4107 C   0  0  0  0  0  0  0  0  0  0  0  0
   -3.7890    0.1826    0.7070 C   0  0  0  0  0  0  0  0  0  0  0  0
   -1.6843   -0.5363   -0.0974 C   0  0  0  0  0  0  0  0  0  0  0  0
    4.0776    0.0958   -0.5661 C   0  0  0  0  0  0  0  0  0  0  0  0
   -2.6877    0.3394   -0.1950 O   0  0  0  0  0  0  0  0  0  0  0  0
   -1.6612   -1.4564    0.6962 O   0  0  0  0  0  0  0  0  0  0  0  0
   -0.8188    0.5582   -1.5751 H   0  0  0  0  0  0  0  0  0  0  0  0
    0.3296   -2.0020   -0.6570 H   0  0  0  0  0  0  0  0  0  0  0  0
    0.6838   -1.2152   -2.1743 H   0  0  0  0  0  0  0  0  0  0  0  0
    0.6765    0.4115    1.2238 H   0  0  0  0  0  0  0  0  0  0  0  0
    2.6798    1.4170    2.2158 H   0  0  0  0  0  0  0  0  0  0  0  0
    4.8718    1.2236    1.0799 H   0  0  0  0  0  0  0  0  0  0  0  0
    3.0172   -0.9923   -2.0767 H   0  0  0  0  0  0  0  0  0  0  0  0
   -5.6306    1.1839    1.0915 H   0  0  0  0  0  0  0  0  0  0  0  0
   -4.3494    2.2669    0.5530 H   0  0  0  0  0  0  0  0  0  0  0  0
   -5.1682    1.2094   -0.6075 H   0  0  0  0  0  0  0  0  0  0  0  0
   -3.4377    0.2509    1.7389 H   0  0  0  0  0  0  0  0  0  0  0  0
   -4.2452   -0.8003    0.5724 H   0  0  0  0  0  0  0  0  0  0  0  0
    5.0299    0.0079   -1.0732 H   0  0  0  0  0  0  0  0  0  0  0  0
  8  9  1  0
  9 12  1  0
 12 10  1  0
 10  1  1  0
 10 13  2  0
  1  2  1  0
  2  3  1  0
  3  4  2  0
  3  7  1  0
  4  5  1  0
  7 11  2  0
  5  6  2  0
 11  6  1  0
  1 14  1  0
  2 15  1  0
  2 16  1  0
  4 17  1  0
  5 18  1  0
  6 19  1  0
  7 20  1  0
  8 21  1  0
  8 22  1  0
  8 23  1  0
  9 24  1  0
  9 25  1  0
 11 26  1  0
M  END
