
     RDKit          3D

 84 83  0  0  0  0  0  0  0  0999 V2000
    2.4595   -3.0291   -0.2120 C   0  0  0  0  0  0  0  0  0  0  0  0
   -2.8921   -2.8806   -0.4381 C   0  0  0  0  0  0  0  0  0  0  0  0
    2.9230   -2.0912    0.8687 C   0  0  0  0  0  0  0  0  0  0  0  0
    4.4237   -2.1268    1.1073 C   0  0  0  0  0  0  0  0  0  0  0  0
    4.8331   -1.1657    2.2238 C   0  0  0  0  0  0  0  0  0  0  0  0
    6.3012   -1.2201    2.5047 C   0  0  0  0  0  0  0  0  0  0  0  0
    7.1438   -0.2036    2.3490 C   0  0  0  0  0  0  0  0  0  0  0  0
    8.6229   -0.2623    2.5984 C   0  0  0  0  0  0  0  0  0  0  0  0
    9.3904   -0.0390    1.3280 C   0  0  0  0  0  0  0  0  0  0  0  0
   10.1367    1.0305    1.0708 C   0  0  0  0  0  0  0  0  0  0  0  0
   10.8491    1.2930   -0.2239 C   0  0  0  0  0  0  0  0  0  0  0  0
   10.2266    2.4560   -0.9411 C   0  0  0  0  0  0  0  0  0  0  0  0
   10.8189    3.6258   -1.1615 C   0  0  0  0  0  0  0  0  0  0  0  0
   10.1747    4.8043   -1.8212 C   0  0  0  0  0  0  0  0  0  0  0  0
   10.0611    5.9968   -0.8727 C   0  0  0  0  0  0  0  0  0  0  0  0
   -3.5231   -1.5147   -0.4274 C   0  0  0  0  0  0  0  0  0  0  0  0
   -5.0022   -1.5298   -0.0796 C   0  0  0  0  0  0  0  0  0  0  0  0
   -5.6305   -0.1448   -0.1773 C   0  0  0  0  0  0  0  0  0  0  0  0
   -7.1143   -0.1514    0.1644 C   0  0  0  0  0  0  0  0  0  0  0  0
   -7.7811    1.2095    0.0069 C   0  0  0  0  0  0  0  0  0  0  0  0
   -9.2664    1.1864    0.3434 C   0  0  0  0  0  0  0  0  0  0  0  0
   -9.9556    2.5311    0.1483 C   0  0  0  0  0  0  0  0  0  0  0  0
  -11.4424    2.4945    0.4773 C   0  0  0  0  0  0  0  0  0  0  0  0
  -12.1444    3.8288    0.2596 C   0  0  0  0  0  0  0  0  0  0  0  0
  -13.6328    3.7856    0.5823 C   0  0  0  0  0  0  0  0  0  0  0  0
  -14.3292    5.1196    0.3522 C   0  0  0  0  0  0  0  0  0  0  0  0
    0.6284   -3.1852   -2.7606 C   0  0  0  0  0  0  0  0  0  0  0  0
    0.5137   -3.7791   -1.3665 C   0  0  2  0  0  0  0  0  0  0  0  0
   -0.8932   -4.0460   -0.8825 C   0  0  0  0  0  0  0  0  0  0  0  0
    1.1435   -2.9448   -0.3884 O   0  0  0  0  0  0  0  0  0  0  0  0
    3.1718   -3.7701   -0.8412 O   0  0  0  0  0  0  0  0  0  0  0  0
   -1.6092   -2.8197   -0.7754 O   0  0  0  0  0  0  0  0  0  0  0  0
   -3.4613   -3.9142   -0.1873 O   0  0  0  0  0  0  0  0  0  0  0  0
    2.5996   -1.0793    0.6049 H   0  0  0  0  0  0  0  0  0  0  0  0
    2.3835   -2.3394    1.7885 H   0  0  0  0  0  0  0  0  0  0  0  0
    4.7364   -3.1411    1.3676 H   0  0  0  0  0  0  0  0  0  0  0  0
    4.9555   -1.8604    0.1909 H   0  0  0  0  0  0  0  0  0  0  0  0
    4.5416   -0.1455    1.9586 H   0  0  0  0  0  0  0  0  0  0  0  0
    4.2788   -1.4246    3.1331 H   0  0  0  0  0  0  0  0  0  0  0  0
    6.6878   -2.1778    2.8494 H   0  0  0  0  0  0  0  0  0  0  0  0
    6.7627    0.7516    1.9938 H   0  0  0  0  0  0  0  0  0  0  0  0
    8.9059    0.4976    3.3333 H   0  0  0  0  0  0  0  0  0  0  0  0
    8.8826   -1.2352    3.0259 H   0  0  0  0  0  0  0  0  0  0  0  0
    9.2838   -0.8104    0.5682 H   0  0  0  0  0  0  0  0  0  0  0  0
   10.2277    1.8090    1.8256 H   0  0  0  0  0  0  0  0  0  0  0  0
   11.9057    1.5034   -0.0331 H   0  0  0  0  0  0  0  0  0  0  0  0
   10.8065    0.3990   -0.8531 H   0  0  0  0  0  0  0  0  0  0  0  0
    9.1990    2.3119   -1.2686 H   0  0  0  0  0  0  0  0  0  0  0  0
   11.8431    3.7692   -0.8205 H   0  0  0  0  0  0  0  0  0  0  0  0
   10.7615    5.1015   -2.6959 H   0  0  0  0  0  0  0  0  0  0  0  0
    9.1842    4.5270   -2.1905 H   0  0  0  0  0  0  0  0  0  0  0  0
    9.6177    6.8580   -1.3733 H   0  0  0  0  0  0  0  0  0  0  0  0
    9.4388    5.7513   -0.0114 H   0  0  0  0  0  0  0  0  0  0  0  0
   11.0408    6.2991   -0.4992 H   0  0  0  0  0  0  0  0  0  0  0  0
   -2.9670   -0.8826    0.2722 H   0  0  0  0  0  0  0  0  0  0  0  0
   -3.3641   -1.0670   -1.4135 H   0  0  0  0  0  0  0  0  0  0  0  0
   -5.5315   -2.2106   -0.7516 H   0  0  0  0  0  0  0  0  0  0  0  0
   -5.1425   -1.9229    0.9309 H   0  0  0  0  0  0  0  0  0  0  0  0
   -5.1051    0.5494    0.4874 H   0  0  0  0  0  0  0  0  0  0  0  0
   -5.4924    0.2434   -1.1923 H   0  0  0  0  0  0  0  0  0  0  0  0
   -7.6275   -0.8794   -0.4738 H   0  0  0  0  0  0  0  0  0  0  0  0
   -7.2484   -0.5052    1.1925 H   0  0  0  0  0  0  0  0  0  0  0  0
   -7.2743    1.9431    0.6437 H   0  0  0  0  0  0  0  0  0  0  0  0
   -7.6476    1.5598   -1.0227 H   0  0  0  0  0  0  0  0  0  0  0  0
   -9.7646    0.4323   -0.2763 H   0  0  0  0  0  0  0  0  0  0  0  0
   -9.3981    0.8577    1.3803 H   0  0  0  0  0  0  0  0  0  0  0  0
   -9.4639    3.2880    0.7695 H   0  0  0  0  0  0  0  0  0  0  0  0
   -9.8220    2.8590   -0.8887 H   0  0  0  0  0  0  0  0  0  0  0  0
  -11.9288    1.7256   -0.1336 H   0  0  0  0  0  0  0  0  0  0  0  0
  -11.5755    2.1795    1.5184 H   0  0  0  0  0  0  0  0  0  0  0  0
  -11.6628    4.5994    0.8720 H   0  0  0  0  0  0  0  0  0  0  0  0
  -12.0095    4.1442   -0.7812 H   0  0  0  0  0  0  0  0  0  0  0  0
  -14.1108    3.0116   -0.0263 H   0  0  0  0  0  0  0  0  0  0  0  0
  -13.7676    3.4763    1.6235 H   0  0  0  0  0  0  0  0  0  0  0  0
  -15.3910    5.0660    0.5956 H   0  0  0  0  0  0  0  0  0  0  0  0
  -13.8885    5.9061    0.9680 H   0  0  0  0  0  0  0  0  0  0  0  0
  -14.2448    5.4342   -0.6899 H   0  0  0  0  0  0  0  0  0  0  0  0
    1.6754   -3.2500   -3.0773 H   0  0  0  0  0  0  0  0  0  0  0  0
    0.0600   -3.8406   -3.4354 H   0  0  0  0  0  0  0  0  0  0  0  0
    1.0030   -4.7577   -1.4031 H   0  0  0  0  0  0  0  0  0  0  0  0
   -1.3806   -4.7188   -1.5925 H   0  0  0  0  0  0  0  0  0  0  0  0
   -0.8592   -4.5519    0.0860 H   0  0  0  0  0  0  0  0  0  0  0  0
    0.4169   -1.4789   -3.6270 H   0  0  0  0  0  0  0  0  0  0  0  0
    0.1640   -1.8610   -2.7821 O   0  0  0  0  0  0  0  0  0  0  0  0
 33  2  2  0
 27 28  1  0
 27 84  1  0
  2 16  1  0
  2 32  1  0
 28 29  1  0
 28 30  1  0
 29 32  1  0
 16 17  1  0
 17 18  1  0
 22 23  1  0
 22 21  1  0
 20 21  1  0
 20 19  1  0
 26 25  1  0
  3  1  1  0
  3  4  1  0
 30  1  1  0
 24 23  1  0
 24 25  1  0
 18 19  1  0
  1 31  2  0
  5  4  1  0
  5  6  1  0
  6  7  2  0
  7  8  1  0
  9  8  1  0
  9 10  2  0
 13 14  1  0
 13 12  2  0
 14 15  1  0
 11 12  1  0
 11 10  1  0
  3 34  1  0
  3 35  1  0
  4 36  1  0
  4 37  1  0
  5 38  1  0
  5 39  1  0
  6 40  1  0
  7 41  1  0
  8 42  1  0
  8 43  1  0
  9 44  1  0
 10 45  1  0
 11 46  1  0
 11 47  1  0
 12 48  1  0
 13 49  1  0
 14 50  1  0
 14 51  1  0
 15 52  1  0
 15 53  1  0
 15 54  1  0
 16 55  1  0
 16 56  1  0
 17 57  1  0
 17 58  1  0
 18 59  1  0
 18 60  1  0
 19 61  1  0
 19 62  1  0
 20 63  1  0
 20 64  1  0
 21 65  1  0
 21 66  1  0
 22 67  1  0
 22 68  1  0
 23 69  1  0
 23 70  1  0
 24 71  1  0
 24 72  1  0
 25 73  1  0
 25 74  1  0
 26 75  1  0
 26 76  1  0
 26 77  1  0
 27 78  1  0
 27 79  1  0
 28 80  1  6
 29 81  1  0
 29 82  1  0
 84 83  1  0
M  END
