
     RDKit          3D

 88 93  0  0  0  0  0  0  0  0999 V2000
   -3.8419   -1.1289   -1.6021 C   0  0  0  0  0  0  0  0  0  0  0  0
   -2.9737   -2.1665   -1.9260 C   0  0  0  0  0  0  0  0  0  0  0  0
   -3.2174   -2.9900   -3.0189 C   0  0  0  0  0  0  0  0  0  0  0  0
   -4.3397   -2.7903   -3.8083 C   0  0  0  0  0  0  0  0  0  0  0  0
   -5.2236   -1.7623   -3.5057 C   0  0  0  0  0  0  0  0  0  0  0  0
   -4.9533   -0.9622   -2.4156 C   0  0  0  0  0  0  0  0  0  0  0  0
    3.9468   -1.0998    1.3112 C   0  0  0  0  0  0  0  0  0  0  0  0
    5.2811   -1.0569    1.6884 C   0  0  0  0  0  0  0  0  0  0  0  0
    5.7882   -1.7526    2.7656 C   0  0  0  0  0  0  0  0  0  0  0  0
    4.9225   -2.5434    3.5101 C   0  0  0  0  0  0  0  0  0  0  0  0
    3.5827   -2.6179    3.1604 C   0  0  0  0  0  0  0  0  0  0  0  0
    3.1005   -1.8992    2.0729 C   0  0  0  0  0  0  0  0  0  0  0  0
    2.1081   -0.4828   -0.0480 O   0  0  0  0  0  0  0  0  0  0  0  0
    1.5047    0.3927   -0.9473 C   0  0  2  0  0  0  0  0  0  0  0  0
   -0.0170    0.3325   -0.7017 C   0  0  1  0  0  0  0  0  0  0  0  0
   -0.3540    0.4932    0.7843 C   0  0  2  0  0  0  0  0  0  0  0  0
   -1.8830    0.4613    1.0199 C   0  0  2  0  0  0  0  0  0  0  0  0
   -2.2513    0.1845    2.4896 C   0  0  0  0  0  0  0  0  0  0  0  0
   -3.1218   -0.6210    2.7703 O   0  0  0  0  0  0  0  0  0  0  0  0
   -1.5625    0.8966    3.3969 N   0  0  0  0  0  0  0  0  0  0  0  0
   -2.4414   -0.5345    0.2213 O   0  0  0  0  0  0  0  0  0  0  0  0
   -3.6311   -0.1981   -0.4389 C   0  0  0  0  0  0  0  0  0  0  0  0
    0.2077    1.6677    1.3338 O   0  0  0  0  0  0  0  0  0  0  0  0
   -0.6927    1.2601   -1.5109 O   0  0  0  0  0  0  0  0  0  0  0  0
    1.7261    0.9280   -3.3056 N   0  0  0  0  0  0  0  0  0  0  0  0
    1.7027    0.6751   -4.7210 C   0  0  1  0  0  0  0  0  0  0  0  0
    0.3317    0.4513   -5.3185 C   0  0  0  0  0  0  0  0  0  0  0  0
    0.2924    0.9876   -6.6012 C   0  0  0  0  0  0  0  0  0  0  0  0
   -0.7729   -0.1799   -4.7744 C   0  0  0  0  0  0  0  0  0  0  0  0
   -1.9336   -0.2705   -5.5369 C   0  0  0  0  0  0  0  0  0  0  0  0
   -1.9766    0.2624   -6.8207 C   0  0  0  0  0  0  0  0  0  0  0  0
    2.2398    1.8554   -5.5500 C   0  0  2  0  0  0  0  0  0  0  0  0
    1.7471    3.0347   -4.9553 O   0  0  0  0  0  0  0  0  0  0  0  0
   -0.8613    0.8966   -7.3623 C   0  0  0  0  0  0  0  0  0  0  0  0
    1.6161    1.6188   -6.9338 C   0  0  0  0  0  0  0  0  0  0  0  0
   -1.6825    0.7287    4.8177 C   0  0  1  0  0  0  0  0  0  0  0  0
   -0.3892    0.3571    5.5017 C   0  0  0  0  0  0  0  0  0  0  0  0
   -0.3490    0.9291    6.7685 C   0  0  0  0  0  0  0  0  0  0  0  0
    0.6533   -0.4234    5.0355 C   0  0  0  0  0  0  0  0  0  0  0  0
    1.7536   -0.6305    5.8630 C   0  0  0  0  0  0  0  0  0  0  0  0
    1.7950   -0.0666    7.1331 C   0  0  0  0  0  0  0  0  0  0  0  0
   -2.1088    1.9984    5.5807 C   0  0  2  0  0  0  0  0  0  0  0  0
   -1.4388    3.0804    4.9797 O   0  0  0  0  0  0  0  0  0  0  0  0
    0.7415    0.7185    7.5953 C   0  0  0  0  0  0  0  0  0  0  0  0
   -1.5987    1.7314    7.0052 C   0  0  0  0  0  0  0  0  0  0  0  0
   -5.8083    0.0358   -2.1194 F   0  0  0  0  0  0  0  0  0  0  0  0
    6.1159   -0.2904    0.9610 F   0  0  0  0  0  0  0  0  0  0  0  0
   -2.0970   -2.3405   -1.3180 H   0  0  0  0  0  0  0  0  0  0  0  0
   -2.5243   -3.7875   -3.2505 H   0  0  0  0  0  0  0  0  0  0  0  0
   -4.5316   -3.4283   -4.6606 H   0  0  0  0  0  0  0  0  0  0  0  0
   -6.1062   -1.5848   -4.1064 H   0  0  0  0  0  0  0  0  0  0  0  0
    6.8383   -1.6764    3.0164 H   0  0  0  0  0  0  0  0  0  0  0  0
    5.3006   -3.0976    4.3587 H   0  0  0  0  0  0  0  0  0  0  0  0
    2.9060   -3.2392    3.7321 H   0  0  0  0  0  0  0  0  0  0  0  0
    2.0529   -1.9700    1.8158 H   0  0  0  0  0  0  0  0  0  0  0  0
    4.0435   -0.5936   -0.7684 H   0  0  0  0  0  0  0  0  0  0  0  0
    3.7068    0.7686    0.2978 H   0  0  0  0  0  0  0  0  0  0  0  0
    1.8603    1.4239   -0.7921 H   0  0  0  0  0  0  0  0  0  0  0  0
   -0.3670   -0.6528   -1.0154 H   0  0  0  0  0  0  0  0  0  0  0  0
    0.1044   -0.3370    1.3248 H   0  0  0  0  0  0  0  0  0  0  0  0
   -2.2907    1.4500    0.7582 H   0  0  0  0  0  0  0  0  0  0  0  0
   -0.8393    1.5165    3.0584 H   0  0  0  0  0  0  0  0  0  0  0  0
   -4.4860   -0.2539    0.2461 H   0  0  0  0  0  0  0  0  0  0  0  0
   -3.5852    0.8339   -0.8092 H   0  0  0  0  0  0  0  0  0  0  0  0
   -0.2122    2.4446    0.9456 H   0  0  0  0  0  0  0  0  0  0  0  0
   -0.3882    2.1532   -1.3164 H   0  0  0  0  0  0  0  0  0  0  0  0
    1.4893    1.8629   -3.0125 H   0  0  0  0  0  0  0  0  0  0  0  0
    2.3319   -0.1962   -4.9229 H   0  0  0  0  0  0  0  0  0  0  0  0
   -0.7533   -0.5888   -3.7725 H   0  0  0  0  0  0  0  0  0  0  0  0
   -2.8089   -0.7542   -5.1216 H   0  0  0  0  0  0  0  0  0  0  0  0
   -2.8878    0.1927   -7.4012 H   0  0  0  0  0  0  0  0  0  0  0  0
    3.3337    1.8544   -5.5828 H   0  0  0  0  0  0  0  0  0  0  0  0
    2.2087    3.7871   -5.3368 H   0  0  0  0  0  0  0  0  0  0  0  0
   -0.9049    1.3211   -8.3581 H   0  0  0  0  0  0  0  0  0  0  0  0
    1.5372    2.5369   -7.5193 H   0  0  0  0  0  0  0  0  0  0  0  0
    2.2384    0.9257   -7.5090 H   0  0  0  0  0  0  0  0  0  0  0  0
   -2.4292   -0.0484    5.0016 H   0  0  0  0  0  0  0  0  0  0  0  0
    0.6251   -0.8597    4.0434 H   0  0  0  0  0  0  0  0  0  0  0  0
    2.5856   -1.2274    5.5116 H   0  0  0  0  0  0  0  0  0  0  0  0
    2.6577   -0.2319    7.7659 H   0  0  0  0  0  0  0  0  0  0  0  0
   -3.1955    2.1357    5.5521 H   0  0  0  0  0  0  0  0  0  0  0  0
   -1.6405    3.8780    5.4783 H   0  0  0  0  0  0  0  0  0  0  0  0
    0.7856    1.1645    8.5815 H   0  0  0  0  0  0  0  0  0  0  0  0
   -1.4366    2.6489    7.5749 H   0  0  0  0  0  0  0  0  0  0  0  0
   -2.3344    1.1388    7.5585 H   0  0  0  0  0  0  0  0  0  0  0  0
    1.7772   -0.0496   -2.3899 C   0  0  0  0  0  0  0  0  0  0  0  0
    1.9855   -1.2223   -2.6547 O   0  0  0  0  0  0  0  0  0  0  0  0
    3.4852   -0.2940    0.1281 C   0  0  0  0  0  0  0  0  0  0  0  0
  1  2  2  0
  1  6  1  0
  1 22  1  0
  2  3  1  0
  2 48  1  0
  3  4  2  0
  3 49  1  0
  4  5  1  0
  4 50  1  0
  5  6  2  0
  5 51  1  0
  6 46  1  0
  7  8  2  0
  7 12  1  0
  7 88  1  0
  8  9  1  0
  8 47  1  0
  9 10  2  0
  9 52  1  0
 10 11  1  0
 10 53  1  0
 11 12  2  0
 11 54  1  0
 12 55  1  0
 88 13  1  0
 88 56  1  0
 88 57  1  0
 13 14  1  0
 14 15  1  0
 14 86  1  0
 14 58  1  6
 15 16  1  0
 15 24  1  0
 15 59  1  6
 16 17  1  0
 16 23  1  0
 16 60  1  1
 17 18  1  0
 17 21  1  0
 17 61  1  6
 18 19  2  0
 18 20  1  0
 20 36  1  0
 20 62  1  0
 21 22  1  0
 22 63  1  0
 22 64  1  0
 23 65  1  0
 24 66  1  0
 86 87  2  0
 86 25  1  0
 25 26  1  0
 25 67  1  0
 26 27  1  0
 26 32  1  0
 26 68  1  1
 27 28  1  0
 27 29  2  0
 28 34  2  0
 28 35  1  0
 29 30  1  0
 29 69  1  0
 30 31  2  0
 30 70  1  0
 31 34  1  0
 31 71  1  0
 32 33  1  0
 32 35  1  0
 32 72  1  6
 33 73  1  0
 34 74  1  0
 35 75  1  0
 35 76  1  0
 36 37  1  0
 36 42  1  0
 36 77  1  6
 37 38  1  0
 37 39  2  0
 38 44  2  0
 38 45  1  0
 39 40  1  0
 39 78  1  0
 40 41  2  0
 40 79  1  0
 41 44  1  0
 41 80  1  0
 42 43  1  0
 42 45  1  0
 42 81  1  1
 43 82  1  0
 44 83  1  0
 45 84  1  0
 45 85  1  0
M  END
