
     RDKit          3D

 46 48  0  0  0  0  0  0  0  0999 V2000
    4.7261    0.7644    2.1939 C   0  0  0  0  0  0  0  0  0  0  0  0
    4.4450    1.4158    0.8688 C   0  0  0  0  0  0  0  0  0  0  0  0
    5.0316    2.6426    0.5649 C   0  0  0  0  0  0  0  0  0  0  0  0
    4.7872    3.2854   -0.6401 C   0  0  0  0  0  0  0  0  0  0  0  0
    3.9419    2.6998   -1.5704 C   0  0  0  0  0  0  0  0  0  0  0  0
    3.3511    1.4786   -1.2814 C   0  0  0  0  0  0  0  0  0  0  0  0
    3.5903    0.8314   -0.0735 C   0  0  0  0  0  0  0  0  0  0  0  0
    2.9711   -0.5278    0.1879 C   0  0  2  0  0  0  0  0  0  0  0  0
    3.8165   -1.6220   -0.4530 C   0  0  0  0  0  0  0  0  0  0  0  0
    3.4213   -3.0108   -0.0186 C   0  0  0  0  0  0  0  0  0  0  0  0
    2.7729   -3.2642    0.9645 O   0  0  0  0  0  0  0  0  0  0  0  0
    3.9054   -3.9343   -0.8377 O   0  0  0  0  0  0  0  0  0  0  0  0
    1.6151   -0.6246   -0.3131 N   0  0  0  0  0  0  0  0  0  0  0  0
    0.5824   -0.0890    0.3468 C   0  0  0  0  0  0  0  0  0  0  0  0
    0.6774    0.5034    1.4087 O   0  0  0  0  0  0  0  0  0  0  0  0
   -0.7456   -0.2543   -0.3034 C   0  0  0  0  0  0  0  0  0  0  0  0
   -1.8160    0.3069    0.3043 N   0  0  0  0  0  0  0  0  0  0  0  0
   -1.1262   -0.8815   -1.4467 C   0  0  0  0  0  0  0  0  0  0  0  0
   -2.5406   -0.6469   -1.6176 C   0  0  0  0  0  0  0  0  0  0  0  0
   -3.3372   -1.0374   -2.4592 O   0  0  0  0  0  0  0  0  0  0  0  0
   -2.8801    0.1576   -0.5422 N   0  0  0  0  0  0  0  0  0  0  0  0
   -4.1892    0.4402   -0.1131 C   0  0  0  0  0  0  0  0  0  0  0  0
   -4.9273    1.4440   -0.7245 C   0  0  0  0  0  0  0  0  0  0  0  0
   -6.2299    1.6944   -0.3206 C   0  0  0  0  0  0  0  0  0  0  0  0
   -6.7916    0.9460    0.7051 C   0  0  0  0  0  0  0  0  0  0  0  0
   -6.0653   -0.0617    1.3260 C   0  0  0  0  0  0  0  0  0  0  0  0
   -4.7768   -0.3077    0.8993 C   0  0  0  0  0  0  0  0  0  0  0  0
   -4.0691   -1.2906    1.4618 F   0  0  0  0  0  0  0  0  0  0  0  0
    3.8170    0.6697    2.7915 H   0  0  0  0  0  0  0  0  0  0  0  0
    5.1467   -0.2373    2.0863 H   0  0  0  0  0  0  0  0  0  0  0  0
    5.4357    1.3539    2.7719 H   0  0  0  0  0  0  0  0  0  0  0  0
    5.6905    3.1049    1.2902 H   0  0  0  0  0  0  0  0  0  0  0  0
    5.2536    4.2396   -0.8485 H   0  0  0  0  0  0  0  0  0  0  0  0
    3.7418    3.1873   -2.5157 H   0  0  0  0  0  0  0  0  0  0  0  0
    2.6886    1.0278   -2.0109 H   0  0  0  0  0  0  0  0  0  0  0  0
    2.9305   -0.7042    1.2630 H   0  0  0  0  0  0  0  0  0  0  0  0
    3.7919   -1.5433   -1.5432 H   0  0  0  0  0  0  0  0  0  0  0  0
    4.8649   -1.4786   -0.1744 H   0  0  0  0  0  0  0  0  0  0  0  0
    1.4620   -1.0474   -1.2154 H   0  0  0  0  0  0  0  0  0  0  0  0
    3.6779   -4.8194   -0.5145 H   0  0  0  0  0  0  0  0  0  0  0  0
   -1.7500    1.1782    0.8160 H   0  0  0  0  0  0  0  0  0  0  0  0
   -0.5244   -1.4832   -2.1079 H   0  0  0  0  0  0  0  0  0  0  0  0
   -4.4705    2.0257   -1.5143 H   0  0  0  0  0  0  0  0  0  0  0  0
   -6.8029    2.4748   -0.8015 H   0  0  0  0  0  0  0  0  0  0  0  0
   -7.8052    1.1419    1.0274 H   0  0  0  0  0  0  0  0  0  0  0  0
   -6.4966   -0.6561    2.1204 H   0  0  0  0  0  0  0  0  0  0  0  0
  1  2  1  0
  2  3  2  0
  2  7  1  0
  3  4  1  0
  4  5  2  0
  5  6  1  0
  6  7  2  0
  7  8  1  0
  8  9  1  0
  8 13  1  0
  9 10  1  0
 10 11  2  0
 10 12  1  0
 13 14  1  0
 14 15  2  0
 14 16  1  0
 16 17  1  0
 16 18  2  0
 17 21  1  0
 18 19  1  0
 19 20  2  0
 19 21  1  0
 21 22  1  0
 22 23  2  0
 22 27  1  0
 23 24  1  0
 24 25  2  0
 25 26  1  0
 26 27  2  0
 27 28  1  0
  1 29  1  0
  1 30  1  0
  1 31  1  0
  3 32  1  0
  4 33  1  0
  5 34  1  0
  6 35  1  0
  8 36  1  1
  9 37  1  0
  9 38  1  0
 13 39  1  0
 12 40  1  0
 17 41  1  0
 18 42  1  0
 23 43  1  0
 24 44  1  0
 25 45  1  0
 26 46  1  0
M  END
