
     RDKit          3D

 36 38  0  0  0  0  0  0  0  0999 V2000
    0.9610   -1.6455   -1.0107 O   0  0  0  0  0  0  0  0  0  0  0  0
    0.7687   -0.5433   -0.5100 C   0  0  0  0  0  0  0  0  0  0  0  0
    1.7686    0.2680   -0.1240 N   0  0  0  0  0  0  0  0  0  0  0  0
    3.1730   -0.0636   -0.2620 C   0  0  2  0  0  0  0  0  0  0  0  0
    3.7180   -0.7964    0.9632 C   0  0  0  0  0  0  0  0  0  0  0  0
    5.2159   -1.0566    0.8056 C   0  0  0  0  0  0  0  0  0  0  0  0
    5.9962    0.1378    0.5272 N   0  0  0  0  0  0  0  0  0  0  0  0
    5.4760    0.8643   -0.6187 C   0  0  0  0  0  0  0  0  0  0  0  0
    3.9872    1.1990   -0.5242 C   0  0  0  0  0  0  0  0  0  0  0  0
   -0.6171   -0.0283   -0.3032 C   0  0  0  0  0  0  0  0  0  0  0  0
   -1.6552   -0.9636   -0.2037 C   0  0  0  0  0  0  0  0  0  0  0  0
   -2.9453   -0.5242   -0.0303 C   0  0  0  0  0  0  0  0  0  0  0  0
   -3.2178    0.8445    0.0223 C   0  0  0  0  0  0  0  0  0  0  0  0
   -4.5781    1.0332    0.1887 N   0  0  0  0  0  0  0  0  0  0  0  0
   -5.2634   -0.1472    0.2534 C   0  0  0  0  0  0  0  0  0  0  0  0
   -6.4616   -0.2595    0.3930 O   0  0  0  0  0  0  0  0  0  0  0  0
   -4.2371   -1.2613    0.1210 C   0  0  0  0  0  0  0  0  0  0  0  0
   -2.2171    1.7907   -0.0933 C   0  0  0  0  0  0  0  0  0  0  0  0
   -0.9143    1.3328   -0.2541 C   0  0  0  0  0  0  0  0  0  0  0  0
    1.5490    1.0827    0.4270 H   0  0  0  0  0  0  0  0  0  0  0  0
    3.2650   -0.7227   -1.1293 H   0  0  0  0  0  0  0  0  0  0  0  0
    3.5422   -0.1877    1.8571 H   0  0  0  0  0  0  0  0  0  0  0  0
    3.1853   -1.7397    1.1070 H   0  0  0  0  0  0  0  0  0  0  0  0
    5.6104   -1.5318    1.7057 H   0  0  0  0  0  0  0  0  0  0  0  0
    5.3742   -1.7659   -0.0145 H   0  0  0  0  0  0  0  0  0  0  0  0
    5.9723    0.7425    1.3406 H   0  0  0  0  0  0  0  0  0  0  0  0
    6.0555    1.7800   -0.7496 H   0  0  0  0  0  0  0  0  0  0  0  0
    5.6493    0.2568   -1.5138 H   0  0  0  0  0  0  0  0  0  0  0  0
    3.6509    1.6776   -1.4474 H   0  0  0  0  0  0  0  0  0  0  0  0
    3.8269    1.9165    0.2892 H   0  0  0  0  0  0  0  0  0  0  0  0
   -1.4401   -2.0232   -0.2563 H   0  0  0  0  0  0  0  0  0  0  0  0
   -5.0240    1.9360    0.2588 H   0  0  0  0  0  0  0  0  0  0  0  0
   -4.4777   -1.8965   -0.7347 H   0  0  0  0  0  0  0  0  0  0  0  0
   -4.2675   -1.8987    1.0081 H   0  0  0  0  0  0  0  0  0  0  0  0
   -2.4311    2.8506   -0.0692 H   0  0  0  0  0  0  0  0  0  0  0  0
   -0.1309    2.0709   -0.3692 H   0  0  0  0  0  0  0  0  0  0  0  0
  1  2  2  0
  6  5  1  0
  6  7  1  0
  5  4  1  0
  7  8  1  0
  4  3  1  0
  4  9  1  0
  2  3  1  0
  2 10  1  0
 11 12  2  0
 11 10  1  0
 17 12  1  0
 17 15  1  0
  8  9  1  0
 12 13  1  0
 10 19  2  0
 16 15  2  0
 15 14  1  0
 13 14  1  0
 13 18  2  0
 19 18  1  0
  3 20  1  0
  4 21  1  6
  5 22  1  0
  5 23  1  0
  6 24  1  0
  6 25  1  0
  7 26  1  0
  8 27  1  0
  8 28  1  0
  9 29  1  0
  9 30  1  0
 11 31  1  0
 14 32  1  0
 17 33  1  0
 17 34  1  0
 18 35  1  0
 19 36  1  0
M  END
