
     RDKit          3D

 32 33  0  0  0  0  0  0  0  0999 V2000
   -1.4642   -1.3127   -1.2038 C   0  0  0  0  0  0  0  0  0  0  0  0
   -2.6177   -0.7008   -1.6284 C   0  0  0  0  0  0  0  0  0  0  0  0
   -3.2278    0.1932   -0.7414 C   0  0  0  0  0  0  0  0  0  0  0  0
   -3.6044    1.3894    1.1016 C   0  0  0  0  0  0  0  0  0  0  0  0
    4.9871    2.9039    0.0553 C   0  0  0  0  0  0  0  0  0  0  0  0
    3.7299    2.2766    0.6398 C   0  0  0  0  0  0  0  0  0  0  0  0
    3.3897    0.9491   -0.0302 C   0  0  0  0  0  0  0  0  0  0  0  0
    2.1113    0.3533    0.5445 C   0  0  0  0  0  0  0  0  0  0  0  0
    1.7463   -1.2399   -0.1844 S   0  0  1  0  0  0  0  0  0  0  0  0
    1.5630   -1.0558   -1.6158 O   0  0  0  0  0  0  0  0  0  0  0  0
    2.7258   -2.2046    0.2913 O   0  0  0  0  0  0  0  0  0  0  0  0
   -0.9009   -1.0379    0.0637 C   0  0  0  0  0  0  0  0  0  0  0  0
   -4.3510    0.9395   -0.8350 N   0  0  0  0  0  0  0  0  0  0  0  0
   -4.5768    1.6571    0.2666 N   0  0  0  0  0  0  0  0  0  0  0  0
   -2.6946    0.4587    0.5316 C   0  0  0  0  0  0  0  0  0  0  0  0
   -1.5041   -0.1574    0.9349 C   0  0  0  0  0  0  0  0  0  0  0  0
   -0.9780   -2.0348   -1.8444 H   0  0  0  0  0  0  0  0  0  0  0  0
   -3.0387   -0.9173   -2.6008 H   0  0  0  0  0  0  0  0  0  0  0  0
   -3.5685    1.8565    2.0739 H   0  0  0  0  0  0  0  0  0  0  0  0
    5.2343    3.8377    0.5606 H   0  0  0  0  0  0  0  0  0  0  0  0
    5.8449    2.2365    0.1561 H   0  0  0  0  0  0  0  0  0  0  0  0
    4.8625    3.1253   -1.0059 H   0  0  0  0  0  0  0  0  0  0  0  0
    3.8619    2.1179    1.7134 H   0  0  0  0  0  0  0  0  0  0  0  0
    2.8881    2.9661    0.5319 H   0  0  0  0  0  0  0  0  0  0  0  0
    3.2713    1.1020   -1.1050 H   0  0  0  0  0  0  0  0  0  0  0  0
    4.2192    0.2510    0.1057 H   0  0  0  0  0  0  0  0  0  0  0  0
    2.1901    0.1902    1.6212 H   0  0  0  0  0  0  0  0  0  0  0  0
    1.2509    0.9993    0.3561 H   0  0  0  0  0  0  0  0  0  0  0  0
    0.3505   -1.9696    1.4207 H   0  0  0  0  0  0  0  0  0  0  0  0
   -4.9858    1.0054   -1.6136 H   0  0  0  0  0  0  0  0  0  0  0  0
   -1.0718    0.0459    1.9073 H   0  0  0  0  0  0  0  0  0  0  0  0
    0.2837   -1.7292    0.4370 N   0  0  0  0  0  0  0  0  0  0  0  0
 13 14  1  0
 13  3  1  0
 14  4  2  0
  2  3  1  0
  2  1  2  0
  3 15  2  0
  4 15  1  0
  1 12  1  0
 15 16  1  0
 12 16  2  0
 12 32  1  0
  9 32  1  1
 10  9  2  0
  9 11  2  0
  9  8  1  0
  8  7  1  0
  7  6  1  0
  6  5  1  0
  1 17  1  0
  2 18  1  0
  4 19  1  0
  5 20  1  0
  5 21  1  0
  5 22  1  0
  6 23  1  0
  6 24  1  0
  7 25  1  0
  7 26  1  0
  8 27  1  0
  8 28  1  0
 32 29  1  0
 13 30  1  0
 16 31  1  0
M  END
