
     RDKit          3D

 40 43  0  0  0  0  0  0  0  0999 V2000
   -1.5682   -0.0918   -0.3594 C   0  0  0  0  0  0  0  0  0  0  0  0
   -0.5864   -2.1991    0.0087 O   0  0  0  0  0  0  0  0  0  0  0  0
   -0.4640   -1.0363   -0.3111 C   0  0  0  0  0  0  0  0  0  0  0  0
   -1.5066    1.2346   -0.7203 C   0  0  0  0  0  0  0  0  0  0  0  0
    0.6863   -0.4746   -0.6615 O   0  0  0  0  0  0  0  0  0  0  0  0
    2.4596    1.1624    1.1740 C   0  0  0  0  0  0  0  0  0  0  0  0
    2.7648    1.6689   -0.2509 C   0  0  0  0  0  0  0  0  0  0  0  0
    4.3553   -0.0143    0.3204 N   0  0  0  0  0  0  0  0  0  0  0  0
    3.6768    0.5677   -0.8375 C   0  0  1  0  0  0  0  0  0  0  0  0
    2.9069   -0.5565   -1.5285 C   0  0  0  0  0  0  0  0  0  0  0  0
    3.2437   -0.1680    1.2594 C   0  0  2  0  0  0  0  0  0  0  0  0
    2.4247   -1.3776    0.8142 C   0  0  0  0  0  0  0  0  0  0  0  0
    1.8999   -1.2530   -0.6163 C   0  0  1  0  0  0  0  0  0  0  0  0
   -5.6125   -0.0068    0.3623 C   0  0  0  0  0  0  0  0  0  0  0  0
   -4.9295    1.0533   -0.0458 N   0  0  0  0  0  0  0  0  0  0  0  0
   -3.6384    0.8470   -0.2291 C   0  0  0  0  0  0  0  0  0  0  0  0
   -2.9385   -0.3625   -0.0375 C   0  0  0  0  0  0  0  0  0  0  0  0
   -3.6851   -1.4566    0.3937 C   0  0  0  0  0  0  0  0  0  0  0  0
   -5.0411   -1.2623    0.5927 C   0  0  0  0  0  0  0  0  0  0  0  0
   -2.7352    1.7887   -0.6428 N   0  0  0  0  0  0  0  0  0  0  0  0
    5.1166    1.8437    1.1087 H   0  0  0  0  0  0  0  0  0  0  0  0
    5.8514    0.3610    1.7241 H   0  0  0  0  0  0  0  0  0  0  0  0
    6.2132    0.9068    0.0902 H   0  0  0  0  0  0  0  0  0  0  0  0
   -0.6583    1.8226   -1.0311 H   0  0  0  0  0  0  0  0  0  0  0  0
    2.8290    1.8655    1.9219 H   0  0  0  0  0  0  0  0  0  0  0  0
    1.3949    1.0327    1.3657 H   0  0  0  0  0  0  0  0  0  0  0  0
    1.8721    1.8386   -0.8510 H   0  0  0  0  0  0  0  0  0  0  0  0
    3.3009    2.6190   -0.2165 H   0  0  0  0  0  0  0  0  0  0  0  0
    4.4099    0.9730   -1.5389 H   0  0  0  0  0  0  0  0  0  0  0  0
    2.4019   -0.1944   -2.4272 H   0  0  0  0  0  0  0  0  0  0  0  0
    3.6293   -1.3062   -1.8597 H   0  0  0  0  0  0  0  0  0  0  0  0
    3.6261   -0.3574    2.2651 H   0  0  0  0  0  0  0  0  0  0  0  0
    3.0718   -2.2577    0.8535 H   0  0  0  0  0  0  0  0  0  0  0  0
    1.6069   -1.5656    1.5124 H   0  0  0  0  0  0  0  0  0  0  0  0
    1.6807   -2.2460   -1.0141 H   0  0  0  0  0  0  0  0  0  0  0  0
   -6.6753    0.1372    0.5191 H   0  0  0  0  0  0  0  0  0  0  0  0
   -3.2298   -2.4211    0.5694 H   0  0  0  0  0  0  0  0  0  0  0  0
   -5.6703   -2.0759    0.9265 H   0  0  0  0  0  0  0  0  0  0  0  0
   -2.9546    2.7491   -0.8573 H   0  0  0  0  0  0  0  0  0  0  0  0
    5.4203    0.8240    0.8350 C   0  0  0  0  0  0  0  0  0  0  0  0
  1 17  1  0
  1  4  2  0
  1  3  1  0
  2  3  2  0
 40  8  1  0
 40 21  1  0
 40 22  1  0
 40 23  1  0
  3  5  1  0
  4 20  1  0
  4 24  1  0
  5 13  1  0
  6  7  1  0
  6 11  1  0
  6 25  1  0
  6 26  1  0
  7  9  1  0
  7 27  1  0
  7 28  1  0
  8  9  1  0
  8 11  1  0
  9 10  1  0
  9 29  1  6
 10 13  1  0
 10 30  1  0
 10 31  1  0
 11 12  1  0
 11 32  1  1
 12 13  1  0
 12 33  1  0
 12 34  1  0
 13 35  1  6
 14 15  2  0
 14 19  1  0
 14 36  1  0
 15 16  1  0
 16 20  1  0
 16 17  2  0
 17 18  1  0
 18 19  2  0
 18 37  1  0
 19 38  1  0
 20 39  1  0
M  END
