
     RDKit          3D

 47 49  0  0  0  0  0  0  0  0999 V2000
   -6.7087   -0.5115   -1.5095 F   0  0  0  0  0  0  0  0  0  0  0  0
   -6.3955    0.4395   -0.6162 C   0  0  1  0  0  0  0  0  0  0  0  0
   -6.1921    1.5661   -1.3053 F   0  0  0  0  0  0  0  0  0  0  0  0
   -7.4877    0.6300    0.1349 F   0  0  0  0  0  0  0  0  0  0  0  0
   -5.2133    0.0442    0.2128 C   0  0  0  0  0  0  0  0  0  0  0  0
   -3.9748    0.6165   -0.0151 C   0  0  0  0  0  0  0  0  0  0  0  0
   -5.3731   -0.9328    1.1902 C   0  0  0  0  0  0  0  0  0  0  0  0
   -4.2706   -1.3137    1.9336 C   0  0  0  0  0  0  0  0  0  0  0  0
   -3.0202   -0.7489    1.7222 C   0  0  0  0  0  0  0  0  0  0  0  0
   -2.8633    0.2256    0.7370 C   0  0  0  0  0  0  0  0  0  0  0  0
   -1.6597    0.8641    0.4347 N   0  0  0  0  0  0  0  0  0  0  0  0
   -0.4324    0.6849    0.9889 C   0  0  0  0  0  0  0  0  0  0  0  0
   -0.1905   -0.1476    1.8450 O   0  0  0  0  0  0  0  0  0  0  0  0
    0.6357    1.5828    0.4565 C   0  0  0  0  0  0  0  0  0  0  0  0
    1.9491    1.1359    0.5504 C   0  0  0  0  0  0  0  0  0  0  0  0
    0.3795    2.8462   -0.0661 C   0  0  0  0  0  0  0  0  0  0  0  0
    1.4373    3.6329   -0.4959 C   0  0  0  0  0  0  0  0  0  0  0  0
    2.7515    3.1879   -0.4499 C   0  0  0  0  0  0  0  0  0  0  0  0
    3.8745    4.0493   -0.9402 C   0  0  0  0  0  0  0  0  0  0  0  0
    3.0043    1.9088    0.0774 C   0  0  0  0  0  0  0  0  0  0  0  0
    4.3214    1.4664    0.1468 N   0  0  0  0  0  0  0  0  0  0  0  0
    4.7701    0.1652    0.1353 C   0  0  0  0  0  0  0  0  0  0  0  0
    4.0698   -0.8931   -0.4375 C   0  0  0  0  0  0  0  0  0  0  0  0
    6.0303   -0.1268    0.6755 C   0  0  0  0  0  0  0  0  0  0  0  0
    6.5655   -1.3329    0.6758 N   0  0  0  0  0  0  0  0  0  0  0  0
    5.8731   -2.3426    0.1645 C   0  0  0  0  0  0  0  0  0  0  0  0
    4.6140   -2.1690   -0.4001 C   0  0  0  0  0  0  0  0  0  0  0  0
    3.8332   -3.2855   -1.0209 C   0  0  0  0  0  0  0  0  0  0  0  0
    2.9953   -3.0576   -1.8814 O   0  0  0  0  0  0  0  0  0  0  0  0
    4.1141   -4.5180   -0.5773 N   0  0  0  0  0  0  0  0  0  0  0  0
   -3.8523    1.3779   -0.7755 H   0  0  0  0  0  0  0  0  0  0  0  0
   -6.3346   -1.3923    1.3759 H   0  0  0  0  0  0  0  0  0  0  0  0
   -4.3779   -2.0692    2.7000 H   0  0  0  0  0  0  0  0  0  0  0  0
   -2.1871   -1.0727    2.3226 H   0  0  0  0  0  0  0  0  0  0  0  0
   -1.7145    1.5115   -0.3363 H   0  0  0  0  0  0  0  0  0  0  0  0
    2.1465    0.1751    1.0066 H   0  0  0  0  0  0  0  0  0  0  0  0
   -0.6240    3.2483   -0.1182 H   0  0  0  0  0  0  0  0  0  0  0  0
    1.2318    4.6205   -0.8894 H   0  0  0  0  0  0  0  0  0  0  0  0
    4.5427    4.3462   -0.1272 H   0  0  0  0  0  0  0  0  0  0  0  0
    4.4845    3.5296   -1.6819 H   0  0  0  0  0  0  0  0  0  0  0  0
    3.4962    4.9625   -1.3955 H   0  0  0  0  0  0  0  0  0  0  0  0
    5.0216    2.1675    0.3314 H   0  0  0  0  0  0  0  0  0  0  0  0
    3.1111   -0.7351   -0.9125 H   0  0  0  0  0  0  0  0  0  0  0  0
    6.6218    0.6721    1.1140 H   0  0  0  0  0  0  0  0  0  0  0  0
    6.3565   -3.3127    0.1909 H   0  0  0  0  0  0  0  0  0  0  0  0
    4.6931   -4.6829    0.2276 H   0  0  0  0  0  0  0  0  0  0  0  0
    3.5930   -5.3045   -0.9306 H   0  0  0  0  0  0  0  0  0  0  0  0
  2  1  1  6
  2  3  1  0
  2  4  1  0
  2  5  1  0
  5  6  2  0
  5  7  1  0
  6 10  1  0
  7  8  2  0
  8  9  1  0
  9 10  2  0
 10 11  1  0
 11 12  1  0
 12 13  2  0
 12 14  1  0
 14 15  2  0
 14 16  1  0
 15 20  1  0
 16 17  2  0
 17 18  1  0
 18 19  1  0
 18 20  2  0
 20 21  1  0
 21 22  1  0
 22 23  2  0
 22 24  1  0
 23 27  1  0
 24 25  2  0
 25 26  1  0
 26 27  2  0
 27 28  1  0
 28 29  2  0
 28 30  1  0
  6 31  1  0
  7 32  1  0
  8 33  1  0
  9 34  1  0
 11 35  1  0
 15 36  1  0
 16 37  1  0
 17 38  1  0
 19 39  1  0
 19 40  1  0
 19 41  1  0
 21 42  1  0
 23 43  1  0
 24 44  1  0
 26 45  1  0
 30 46  1  0
 30 47  1  0
M  END
