
     RDKit          3D

 17 18  0  0  0  0  0  0  0  0999 V2000
    2.6454   -1.3355   -0.0002 C   0  0  0  0  0  0  0  0  0  0  0  0
    1.2916   -1.6551    0.0179 C   0  0  0  0  0  0  0  0  0  0  0  0
    0.4046   -0.6000    0.0085 C   0  0  0  0  0  0  0  0  0  0  0  0
   -0.3236    1.6796   -0.0318 C   0  0  0  0  0  0  0  0  0  0  0  0
    3.0706   -0.0107   -0.0261 C   0  0  0  0  0  0  0  0  0  0  0  0
   -1.3538   -0.7088    0.0256 S   0  0  2  0  0  0  0  0  0  0  0  0
   -1.4970    0.9649   -0.0051 N   0  0  0  0  0  0  0  0  0  0  0  0
   -0.2472    2.8818   -0.0599 O   0  0  0  0  0  0  0  0  0  0  0  0
    0.8090    0.7225   -0.0196 C   0  0  0  0  0  0  0  0  0  0  0  0
    2.1555    1.0351   -0.0371 C   0  0  0  0  0  0  0  0  0  0  0  0
   -1.8462   -1.2298    1.2838 O   0  0  0  0  0  0  0  0  0  0  0  0
   -1.8719   -1.2798   -1.2001 O   0  0  0  0  0  0  0  0  0  0  0  0
    3.3773   -2.1312    0.0060 H   0  0  0  0  0  0  0  0  0  0  0  0
    0.9601   -2.6844    0.0383 H   0  0  0  0  0  0  0  0  0  0  0  0
    4.1298    0.2062   -0.0397 H   0  0  0  0  0  0  0  0  0  0  0  0
   -2.4108    1.4046   -0.0286 H   0  0  0  0  0  0  0  0  0  0  0  0
    2.4857    2.0650   -0.0591 H   0  0  0  0  0  0  0  0  0  0  0  0
  1  2  2  0
  1  5  1  0
  1 13  1  0
  2  3  1  0
  2 14  1  0
  3  6  1  0
  3  9  2  0
  4  7  1  0
  4  8  2  0
  4  9  1  0
  5 10  2  0
  5 15  1  0
  6  7  1  6
  6 11  2  0
  6 12  2  0
  7 16  1  0
  9 10  1  0
 10 17  1  0
M  END
