
     RDKit          3D

 57 60  0  0  0  0  0  0  0  0999 V2000
   -6.6298   -0.7241   -0.8499 C   0  0  0  0  0  0  0  0  0  0  0  0
   -8.0620   -0.2931   -0.5311 C   0  0  0  0  0  0  0  0  0  0  0  0
   -7.9277    1.1751   -0.0834 C   0  0  0  0  0  0  0  0  0  0  0  0
   -6.4336    1.4701   -0.2037 C   0  0  0  0  0  0  0  0  0  0  0  0
   -5.7993    0.1676   -0.0520 N   0  0  0  0  0  0  0  0  0  0  0  0
   -4.3947    0.1524   -0.4170 C   0  0  1  0  0  0  0  0  0  0  0  0
   -3.5842    1.1234    0.4371 C   0  0  0  0  0  0  0  0  0  0  0  0
   -2.1027    1.0514    0.1114 C   0  0  0  0  0  0  0  0  0  0  0  0
   -3.7862   -1.2373   -0.2551 C   0  0  0  0  0  0  0  0  0  0  0  0
   -2.2979   -1.2473   -0.5701 C   0  0  0  0  0  0  0  0  0  0  0  0
   -1.5831   -0.3019    0.2624 N   0  0  0  0  0  0  0  0  0  0  0  0
   -0.1912   -0.4226    0.3310 C   0  0  0  0  0  0  0  0  0  0  0  0
    0.5214    0.3032    1.2972 C   0  0  0  0  0  0  0  0  0  0  0  0
    1.8946    0.1916    1.4070 C   0  0  0  0  0  0  0  0  0  0  0  0
    0.5422   -1.2683   -0.5051 C   0  0  0  0  0  0  0  0  0  0  0  0
    1.9220   -1.3817   -0.3729 C   0  0  0  0  0  0  0  0  0  0  0  0
    2.6289   -0.6556    0.5759 C   0  0  0  0  0  0  0  0  0  0  0  0
    4.1262   -0.7330    0.6755 C   0  0  0  0  0  0  0  0  0  0  0  0
    4.7906    0.3902   -0.1197 C   0  0  0  0  0  0  0  0  0  0  0  0
    6.2269    0.4099    0.0216 N   0  0  0  0  0  0  0  0  0  0  0  0
    6.8484    1.5667   -0.5968 C   0  0  0  0  0  0  0  0  0  0  0  0
    8.3376    1.2413   -0.5468 C   0  0  0  0  0  0  0  0  0  0  0  0
    8.3824   -0.2983   -0.6317 C   0  0  0  0  0  0  0  0  0  0  0  0
    6.9128   -0.7338   -0.5576 C   0  0  0  0  0  0  0  0  0  0  0  0
   -6.4508   -1.7713   -0.6049 H   0  0  0  0  0  0  0  0  0  0  0  0
   -6.4252   -0.6015   -1.9277 H   0  0  0  0  0  0  0  0  0  0  0  0
   -8.7114   -0.4093   -1.3982 H   0  0  0  0  0  0  0  0  0  0  0  0
   -8.4815   -0.9053    0.2677 H   0  0  0  0  0  0  0  0  0  0  0  0
   -8.5173    1.8583   -0.6938 H   0  0  0  0  0  0  0  0  0  0  0  0
   -8.2616    1.2973    0.9475 H   0  0  0  0  0  0  0  0  0  0  0  0
   -6.2079    1.9104   -1.1907 H   0  0  0  0  0  0  0  0  0  0  0  0
   -6.0897    2.1775    0.5513 H   0  0  0  0  0  0  0  0  0  0  0  0
   -4.2796    0.4542   -1.4785 H   0  0  0  0  0  0  0  0  0  0  0  0
   -3.9073    2.1539    0.2782 H   0  0  0  0  0  0  0  0  0  0  0  0
   -3.7419    0.8894    1.4946 H   0  0  0  0  0  0  0  0  0  0  0  0
   -1.9351    1.4101   -0.9169 H   0  0  0  0  0  0  0  0  0  0  0  0
   -1.5640    1.7305    0.7698 H   0  0  0  0  0  0  0  0  0  0  0  0
   -3.9453   -1.5788    0.7724 H   0  0  0  0  0  0  0  0  0  0  0  0
   -4.2686   -1.9617   -0.9136 H   0  0  0  0  0  0  0  0  0  0  0  0
   -1.9114   -2.2509   -0.3855 H   0  0  0  0  0  0  0  0  0  0  0  0
   -2.1511   -1.0389   -1.6426 H   0  0  0  0  0  0  0  0  0  0  0  0
   -0.0105    0.9444    1.9891 H   0  0  0  0  0  0  0  0  0  0  0  0
    2.4066    0.7641    2.1729 H   0  0  0  0  0  0  0  0  0  0  0  0
    0.0519   -1.8439   -1.2785 H   0  0  0  0  0  0  0  0  0  0  0  0
    2.4551   -2.0493   -1.0412 H   0  0  0  0  0  0  0  0  0  0  0  0
    4.4426   -0.6592    1.7197 H   0  0  0  0  0  0  0  0  0  0  0  0
    4.4688   -1.7034    0.3083 H   0  0  0  0  0  0  0  0  0  0  0  0
    4.4871    0.3068   -1.1796 H   0  0  0  0  0  0  0  0  0  0  0  0
    4.3998    1.3481    0.2369 H   0  0  0  0  0  0  0  0  0  0  0  0
    6.5231    1.6945   -1.6441 H   0  0  0  0  0  0  0  0  0  0  0  0
    6.5853    2.4828   -0.0626 H   0  0  0  0  0  0  0  0  0  0  0  0
    8.8847    1.7251   -1.3555 H   0  0  0  0  0  0  0  0  0  0  0  0
    8.7711    1.5871    0.3922 H   0  0  0  0  0  0  0  0  0  0  0  0
    8.8439   -0.6477   -1.5550 H   0  0  0  0  0  0  0  0  0  0  0  0
    8.9593   -0.7173    0.1929 H   0  0  0  0  0  0  0  0  0  0  0  0
    6.7737   -1.6321    0.0468 H   0  0  0  0  0  0  0  0  0  0  0  0
    6.5307   -0.9585   -1.5683 H   0  0  0  0  0  0  0  0  0  0  0  0
 19 18  1  0
 19 20  1  0
 24 20  1  0
 24 23  1  0
 18 17  1  0
 20 21  1  0
 23 22  1  0
 17 16  2  0
 17 14  1  0
 16 15  1  0
 21 22  1  0
 14 13  2  0
 15 12  2  0
 13 12  1  0
 12 11  1  0
 11 10  1  0
 11  8  1  0
 10  9  1  0
  8  7  1  0
  9  6  1  0
  7  6  1  0
  6  5  1  0
  5  4  1  0
  5  1  1  0
  4  3  1  0
  1  2  1  0
  3  2  1  0
  1 25  1  0
  1 26  1  0
  2 27  1  0
  2 28  1  0
  3 29  1  0
  3 30  1  0
  4 31  1  0
  4 32  1  0
  6 33  1  6
  7 34  1  0
  7 35  1  0
  8 36  1  0
  8 37  1  0
  9 38  1  0
  9 39  1  0
 10 40  1  0
 10 41  1  0
 13 42  1  0
 14 43  1  0
 15 44  1  0
 16 45  1  0
 18 46  1  0
 18 47  1  0
 19 48  1  0
 19 49  1  0
 21 50  1  0
 21 51  1  0
 22 52  1  0
 22 53  1  0
 23 54  1  0
 23 55  1  0
 24 56  1  0
 24 57  1  0
M  END
