
     RDKit          3D

 31 31  0  0  0  0  0  0  0  0999 V2000
   -0.7281   -0.4080    0.7926 C   0  0  0  0  0  0  0  0  0  0  0  0
   -1.0299   -1.5448    0.0429 C   0  0  0  0  0  0  0  0  0  0  0  0
   -2.3326   -1.8501   -0.3223 C   0  0  0  0  0  0  0  0  0  0  0  0
   -3.3559   -1.0032    0.0747 C   0  0  0  0  0  0  0  0  0  0  0  0
   -3.0914    0.1326    0.8229 C   0  0  0  0  0  0  0  0  0  0  0  0
   -1.7788    0.4219    1.1700 C   0  0  0  0  0  0  0  0  0  0  0  0
    0.6966   -0.1295    1.1731 C   0  0  0  0  0  0  0  0  0  0  0  0
    1.5844    0.2791   -0.0264 C   0  0  2  0  0  0  0  0  0  0  0  0
    4.8683   -1.6193    0.3004 C   0  0  0  0  0  0  0  0  0  0  0  0
    2.9516   -0.1601    0.1946 N   0  0  0  0  0  0  0  0  0  0  0  0
    2.6847   -2.3381   -0.3513 O   0  0  0  0  0  0  0  0  0  0  0  0
    1.6143    1.9102   -0.3316 B   0  0  1  0  0  0  0  0  0  0  0  0
   -4.9955   -1.3757   -0.3681 Cl  0  0  0  0  0  0  0  0  0  0  0  0
   -0.2249   -2.2059   -0.2582 H   0  0  0  0  0  0  0  0  0  0  0  0
   -2.5460   -2.7376   -0.9029 H   0  0  0  0  0  0  0  0  0  0  0  0
   -3.8960    0.7880    1.1293 H   0  0  0  0  0  0  0  0  0  0  0  0
   -1.5704    1.3140    1.7452 H   0  0  0  0  0  0  0  0  0  0  0  0
    1.0968   -1.0402    1.6295 H   0  0  0  0  0  0  0  0  0  0  0  0
    0.7233    0.6359    1.9552 H   0  0  0  0  0  0  0  0  0  0  0  0
    1.2146   -0.2699   -0.9008 H   0  0  0  0  0  0  0  0  0  0  0  0
    5.3611   -1.9773   -0.6041 H   0  0  0  0  0  0  0  0  0  0  0  0
    5.3847   -0.7215    0.6364 H   0  0  0  0  0  0  0  0  0  0  0  0
    4.9898   -2.3915    1.0603 H   0  0  0  0  0  0  0  0  0  0  0  0
    3.5978    0.5412    0.5199 H   0  0  0  0  0  0  0  0  0  0  0  0
    1.9855    1.6146   -2.2739 H   0  0  0  0  0  0  0  0  0  0  0  0
    0.1896    3.2973   -0.5323 H   0  0  0  0  0  0  0  0  0  0  0  0
    2.0177    2.5038    1.5472 H   0  0  0  0  0  0  0  0  0  0  0  0
    3.3967   -1.4060    0.0226 C   0  0  0  0  0  0  0  0  0  0  0  0
    2.3180    2.2010   -1.5910 O   0  0  0  0  0  0  0  0  0  0  0  0
    0.2135    2.3550   -0.3405 O   0  0  0  0  0  0  0  0  0  0  0  0
    2.4265    2.6134    0.6856 O   0  0  0  0  0  0  0  0  0  0  0  0
  1  2  2  0
  1  6  1  0
  1  7  1  0
  2  3  1  0
  2 14  1  0
  3  4  2  0
  3 15  1  0
  4  5  1  0
  4 13  1  0
  5  6  2  0
  5 16  1  0
  6 17  1  0
  7  8  1  0
  7 18  1  0
  7 19  1  0
  8 10  1  0
  8 12  1  0
  8 20  1  6
  9 28  1  0
  9 21  1  0
  9 22  1  0
  9 23  1  0
 28 10  1  0
 28 11  2  0
 10 24  1  0
 12 29  1  6
 29 25  1  0
 30 12  1  0
 30 26  1  0
 31 12  1  0
 31 27  1  0
M  CHG  1  12  -1
M  END
