
     RDKit          3D

 45 47  0  0  0  0  0  0  0  0999 V2000
   -5.5106   -2.6061    0.0978 O   0  0  0  0  0  0  0  0  0  0  0  0
   -4.3637   -1.9887   -0.1181 C   0  0  0  0  0  0  0  0  0  0  0  0
   -3.3339   -2.5376   -0.4005 O   0  0  0  0  0  0  0  0  0  0  0  0
   -4.5147   -0.5034    0.0198 C   0  0  0  0  0  0  0  0  0  0  0  0
   -5.7879   -0.0307   -0.1773 N   0  0  0  0  0  0  0  0  0  0  0  0
   -6.1348    1.2872   -0.1207 C   0  0  0  0  0  0  0  0  0  0  0  0
   -7.2640    1.6873   -0.3089 O   0  0  0  0  0  0  0  0  0  0  0  0
   -5.0835    2.1174    0.1671 N   0  0  0  0  0  0  0  0  0  0  0  0
   -3.7729    1.7559    0.3925 C   0  0  0  0  0  0  0  0  0  0  0  0
   -2.9355    2.6026    0.6355 O   0  0  0  0  0  0  0  0  0  0  0  0
   -3.4845    0.3199    0.3143 C   0  0  0  0  0  0  0  0  0  0  0  0
   -2.0628   -0.0830    0.5588 C   0  0  0  0  0  0  0  0  0  0  0  0
   -1.2072    0.0143   -0.7140 C   0  0  0  0  0  0  0  0  0  0  0  0
    0.1979   -0.4533   -0.4676 C   0  0  0  0  0  0  0  0  0  0  0  0
    1.2302    0.4321   -0.3036 C   0  0  0  0  0  0  0  0  0  0  0  0
    2.5517   -0.0105   -0.0457 C   0  0  0  0  0  0  0  0  0  0  0  0
    3.6206    0.8933    0.1175 C   0  0  0  0  0  0  0  0  0  0  0  0
    0.4616   -1.8439   -0.3720 C   0  0  0  0  0  0  0  0  0  0  0  0
    1.7226   -2.3045   -0.1221 C   0  0  0  0  0  0  0  0  0  0  0  0
    2.7998   -1.4031    0.0486 C   0  0  0  0  0  0  0  0  0  0  0  0
    4.1183   -1.8349    0.3017 C   0  0  0  0  0  0  0  0  0  0  0  0
    5.1494   -0.9465    0.4511 C   0  0  0  0  0  0  0  0  0  0  0  0
    4.8962    0.4431    0.3629 C   0  0  0  0  0  0  0  0  0  0  0  0
    5.8495    1.3950    0.5085 O   0  0  0  0  0  0  0  0  0  0  0  0
    7.1699    1.0340    0.8422 C   0  0  0  0  0  0  0  0  0  0  0  0
    7.8418    0.4041   -0.1862 O   0  0  0  0  0  0  0  0  0  0  0  0
    8.0960    1.2224   -1.3115 C   0  0  0  0  0  0  0  0  0  0  0  0
   -5.4175   -3.5631   -0.0314 H   0  0  0  0  0  0  0  0  0  0  0  0
   -6.5341   -0.6770   -0.3928 H   0  0  0  0  0  0  0  0  0  0  0  0
   -5.2985    3.1062    0.2167 H   0  0  0  0  0  0  0  0  0  0  0  0
   -1.6419    0.5808    1.3155 H   0  0  0  0  0  0  0  0  0  0  0  0
   -2.0062   -1.0897    0.9657 H   0  0  0  0  0  0  0  0  0  0  0  0
   -1.6651   -0.5935   -1.4969 H   0  0  0  0  0  0  0  0  0  0  0  0
   -1.2008    1.0460   -1.0699 H   0  0  0  0  0  0  0  0  0  0  0  0
    1.0439    1.4984   -0.3761 H   0  0  0  0  0  0  0  0  0  0  0  0
    3.4333    1.9588    0.0492 H   0  0  0  0  0  0  0  0  0  0  0  0
   -0.3531   -2.5457   -0.5058 H   0  0  0  0  0  0  0  0  0  0  0  0
    1.9119   -3.3695   -0.0573 H   0  0  0  0  0  0  0  0  0  0  0  0
    4.3198   -2.8971    0.3707 H   0  0  0  0  0  0  0  0  0  0  0  0
    6.1440   -1.3311    0.6247 H   0  0  0  0  0  0  0  0  0  0  0  0
    7.6462    1.9810    1.1176 H   0  0  0  0  0  0  0  0  0  0  0  0
    7.1873    0.3569    1.7007 H   0  0  0  0  0  0  0  0  0  0  0  0
    8.7631    0.6704   -1.9707 H   0  0  0  0  0  0  0  0  0  0  0  0
    7.1850    1.4647   -1.8645 H   0  0  0  0  0  0  0  0  0  0  0  0
    8.5856    2.1594   -1.0252 H   0  0  0  0  0  0  0  0  0  0  0  0
 27 26  1  0
 26 25  1  0
 25 24  1  0
 24 23  1  0
 23 17  2  0
 23 22  1  0
 17 16  1  0
 22 21  2  0
 16 15  2  0
 16 20  1  0
 15 14  1  0
 21 20  1  0
 20 19  2  0
 14 13  1  0
 14 18  2  0
 13 12  1  0
 19 18  1  0
 12 11  1  0
 10  9  2  0
 11  9  1  0
 11  4  2  0
  9  8  1  0
  3  2  2  0
  2  1  1  0
  2  4  1  0
  4  5  1  0
  8  6  1  0
  5  6  1  0
  6  7  2  0
  1 28  1  0
  5 29  1  0
  8 30  1  0
 12 31  1  0
 12 32  1  0
 13 33  1  0
 13 34  1  0
 15 35  1  0
 17 36  1  0
 18 37  1  0
 19 38  1  0
 21 39  1  0
 22 40  1  0
 25 41  1  0
 25 42  1  0
 27 43  1  0
 27 44  1  0
 27 45  1  0
M  END
