
     RDKit          3D

 65 69  0  0  0  0  0  0  0  0999 V2000
    3.0132    0.8232   -1.7493 C   0  0  0  0  0  0  0  0  0  0  0  0
    1.8579    1.5831   -1.7836 C   0  0  0  0  0  0  0  0  0  0  0  0
    1.5855    2.4586   -0.7404 C   0  0  0  0  0  0  0  0  0  0  0  0
    2.4572    2.5837    0.3297 C   0  0  0  0  0  0  0  0  0  0  0  0
    3.6154    1.8248    0.3570 C   0  0  0  0  0  0  0  0  0  0  0  0
    3.9047    0.9314   -0.6772 C   0  0  0  0  0  0  0  0  0  0  0  0
    5.0900    0.1416   -0.6336 C   0  0  0  0  0  0  0  0  0  0  0  0
    6.0922   -0.5272   -0.5856 C   0  0  0  0  0  0  0  0  0  0  0  0
    7.2893   -1.3710   -0.4959 C   0  0  2  0  0  0  0  0  0  0  0  0
    7.3582   -2.0679    0.9057 C   0  0  0  0  0  0  0  0  0  0  0  0
    8.6595   -1.9212    1.5229 N   0  0  0  0  0  0  0  0  0  0  0  0
    9.6981   -2.3799    0.6054 C   0  0  0  0  0  0  0  0  0  0  0  0
    9.7881   -1.4648   -0.6353 C   0  0  0  0  0  0  0  0  0  0  0  0
    8.5757   -0.5295   -0.6228 C   0  0  2  0  0  0  0  0  0  0  0  0
    8.6913    0.3800    0.6011 C   0  0  0  0  0  0  0  0  0  0  0  0
    8.8769   -0.5153    1.8489 C   0  0  0  0  0  0  0  0  0  0  0  0
    7.2902   -2.3030   -1.5560 O   0  0  0  0  0  0  0  0  0  0  0  0
    0.4714    3.2565   -0.7756 O   0  0  0  0  0  0  0  0  0  0  0  0
   -0.7613    2.6993   -0.6612 C   0  0  0  0  0  0  0  0  0  0  0  0
   -1.8392    3.5169   -0.9913 C   0  0  0  0  0  0  0  0  0  0  0  0
   -3.1272    3.0362   -0.8643 C   0  0  0  0  0  0  0  0  0  0  0  0
   -3.3674    1.7305   -0.4367 C   0  0  0  0  0  0  0  0  0  0  0  0
   -2.2790    0.9297   -0.1042 C   0  0  0  0  0  0  0  0  0  0  0  0
   -0.9800    1.4039   -0.2070 C   0  0  0  0  0  0  0  0  0  0  0  0
   -4.7814    1.2772   -0.3105 C   0  0  0  0  0  0  0  0  0  0  0  0
   -5.6882    2.0741   -0.1126 O   0  0  0  0  0  0  0  0  0  0  0  0
   -4.9966   -0.0468   -0.4425 N   0  0  0  0  0  0  0  0  0  0  0  0
   -6.2983   -0.6527   -0.2826 C   0  0  1  0  0  0  0  0  0  0  0  0
   -6.4152   -1.8822   -1.1793 C   0  0  0  0  0  0  0  0  0  0  0  0
   -7.7805   -2.5587   -1.0999 C   0  0  0  0  0  0  0  0  0  0  0  0
   -8.1344   -3.0545    0.2962 C   0  0  0  0  0  0  0  0  0  0  0  0
   -8.1486   -1.6956    1.4549 S   0  0  1  0  0  0  0  0  0  0  0  0
   -9.1414   -0.7146    1.0086 O   0  0  0  0  0  0  0  0  0  0  0  0
   -8.2449   -2.2021    2.8237 O   0  0  0  0  0  0  0  0  0  0  0  0
   -6.5222   -1.0000    1.1943 C   0  0  0  0  0  0  0  0  0  0  0  0
    3.2293    0.1406   -2.5601 H   0  0  0  0  0  0  0  0  0  0  0  0
    1.1748    1.4975   -2.6192 H   0  0  0  0  0  0  0  0  0  0  0  0
    2.2354    3.2727    1.1342 H   0  0  0  0  0  0  0  0  0  0  0  0
    4.2986    1.9197    1.1903 H   0  0  0  0  0  0  0  0  0  0  0  0
    6.6079   -1.6512    1.5810 H   0  0  0  0  0  0  0  0  0  0  0  0
    7.1300   -3.1307    0.7809 H   0  0  0  0  0  0  0  0  0  0  0  0
    8.5356    0.0652   -1.5379 H   0  0  0  0  0  0  0  0  0  0  0  0
    6.5395   -2.8973   -1.4461 H   0  0  0  0  0  0  0  0  0  0  0  0
   10.6494   -2.4107    1.1407 H   0  0  0  0  0  0  0  0  0  0  0  0
    9.4622   -3.4062    0.3152 H   0  0  0  0  0  0  0  0  0  0  0  0
    8.1818   -0.2284    2.6411 H   0  0  0  0  0  0  0  0  0  0  0  0
    9.8843   -0.4136    2.2581 H   0  0  0  0  0  0  0  0  0  0  0  0
   10.6931   -0.8527   -0.6045 H   0  0  0  0  0  0  0  0  0  0  0  0
    9.8362   -2.0460   -1.5555 H   0  0  0  0  0  0  0  0  0  0  0  0
    9.5421    1.0514    0.4720 H   0  0  0  0  0  0  0  0  0  0  0  0
    7.8060    1.0129    0.6943 H   0  0  0  0  0  0  0  0  0  0  0  0
   -0.1582    0.7614    0.0794 H   0  0  0  0  0  0  0  0  0  0  0  0
   -1.6617    4.5265   -1.3390 H   0  0  0  0  0  0  0  0  0  0  0  0
   -2.4190   -0.0748    0.2756 H   0  0  0  0  0  0  0  0  0  0  0  0
   -3.9578    3.6825   -1.1146 H   0  0  0  0  0  0  0  0  0  0  0  0
   -4.2241   -0.6585   -0.6545 H   0  0  0  0  0  0  0  0  0  0  0  0
   -7.0474    0.0814   -0.5840 H   0  0  0  0  0  0  0  0  0  0  0  0
   -6.2319   -1.5779   -2.2111 H   0  0  0  0  0  0  0  0  0  0  0  0
   -5.6330   -2.6031   -0.9179 H   0  0  0  0  0  0  0  0  0  0  0  0
   -5.7985   -1.7381    1.5454 H   0  0  0  0  0  0  0  0  0  0  0  0
   -6.4637   -0.1163    1.8331 H   0  0  0  0  0  0  0  0  0  0  0  0
   -8.5584   -1.8828   -1.4601 H   0  0  0  0  0  0  0  0  0  0  0  0
   -7.7894   -3.4213   -1.7668 H   0  0  0  0  0  0  0  0  0  0  0  0
   -9.1286   -3.5038    0.3353 H   0  0  0  0  0  0  0  0  0  0  0  0
   -7.4094   -3.7806    0.6691 H   0  0  0  0  0  0  0  0  0  0  0  0
  1  2  2  0
  1  6  1  0
  2  3  1  0
  3  4  2  0
  3 18  1  0
  4  5  1  0
  5  6  2  0
  6  7  1  0
  7  8  3  0
  9  8  1  1
  9 10  1  0
  9 14  1  0
  9 17  1  0
 10 11  1  0
 11 12  1  0
 11 16  1  0
 12 13  1  0
 13 14  1  0
 14 15  1  0
 15 16  1  0
 18 19  1  0
 19 24  1  0
 19 20  2  0
 24 23  2  0
 23 22  1  0
 22 21  2  0
 22 25  1  0
 21 20  1  0
 25 26  2  0
 25 27  1  0
 27 28  1  0
 28 29  1  0
 28 35  1  0
 29 30  1  0
 30 31  1  0
 32 31  1  6
 32 34  2  0
 32 33  2  0
 32 35  1  0
  1 36  1  0
  2 37  1  0
  4 38  1  0
  5 39  1  0
 10 40  1  0
 10 41  1  0
 14 42  1  6
 17 43  1  0
 12 44  1  0
 12 45  1  0
 16 46  1  0
 16 47  1  0
 13 48  1  0
 13 49  1  0
 15 50  1  0
 15 51  1  0
 24 52  1  0
 20 53  1  0
 23 54  1  0
 21 55  1  0
 27 56  1  0
 28 57  1  6
 29 58  1  0
 29 59  1  0
 35 60  1  0
 35 61  1  0
 30 62  1  0
 30 63  1  0
 31 64  1  0
 31 65  1  0
M  END
