
     RDKit          3D

 27 28  0  0  0  0  0  0  0  0999 V2000
    1.8403    1.5648    0.4817 C   0  0  0  0  0  0  0  0  0  0  0  0
    3.0166    1.0883   -0.0676 C   0  0  0  0  0  0  0  0  0  0  0  0
    3.1787   -0.2875   -0.1139 C   0  0  0  0  0  0  0  0  0  0  0  0
    4.6355   -0.9373   -0.7914 Cl  0  0  0  0  0  0  0  0  0  0  0  0
    2.3010   -1.1539    0.3293 N   0  0  0  0  0  0  0  0  0  0  0  0
    1.1739   -0.6825    0.8492 C   0  0  0  0  0  0  0  0  0  0  0  0
    0.8818    0.6722    0.9499 C   0  0  0  0  0  0  0  0  0  0  0  0
   -0.4276    1.1325    1.5294 C   0  0  0  0  0  0  0  0  0  0  0  0
   -1.4490    1.3572    0.5271 N   0  0  0  0  0  0  0  0  0  0  0  0
   -1.4103    2.5114   -0.3575 C   0  0  0  0  0  0  0  0  0  0  0  0
   -2.6268    2.2704   -1.2466 C   0  0  0  0  0  0  0  0  0  0  0  0
   -2.7857    0.8328   -1.1250 N   0  0  0  0  0  0  0  0  0  0  0  0
   -2.1631    0.3717   -0.0455 C   0  0  0  0  0  0  0  0  0  0  0  0
   -2.1203   -0.8321    0.5212 N   0  0  0  0  0  0  0  0  0  0  0  0
   -2.8531   -1.8117    0.0271 N   0  0  0  0  0  0  0  0  0  0  0  0
   -3.6078   -1.6746   -0.9322 O   0  0  0  0  0  0  0  0  0  0  0  0
   -2.7320   -2.8883    0.5870 O   0  0  0  0  0  0  0  0  0  0  0  0
    1.6859    2.6344    0.5542 H   0  0  0  0  0  0  0  0  0  0  0  0
    3.7801    1.7578   -0.4347 H   0  0  0  0  0  0  0  0  0  0  0  0
    0.4634   -1.4202    1.2043 H   0  0  0  0  0  0  0  0  0  0  0  0
   -0.8035    0.4085    2.2494 H   0  0  0  0  0  0  0  0  0  0  0  0
   -0.2961    2.0688    2.0735 H   0  0  0  0  0  0  0  0  0  0  0  0
   -1.4767    3.4427    0.2017 H   0  0  0  0  0  0  0  0  0  0  0  0
   -0.4870    2.5222   -0.9449 H   0  0  0  0  0  0  0  0  0  0  0  0
   -3.5140    2.7884   -0.8780 H   0  0  0  0  0  0  0  0  0  0  0  0
   -2.4522    2.5622   -2.2786 H   0  0  0  0  0  0  0  0  0  0  0  0
   -3.5130    0.3132   -1.5809 H   0  0  0  0  0  0  0  0  0  0  0  0
  1  7  2  0
  1 18  1  0
  2  1  1  0
  2  3  2  0
  2 19  1  0
  3  5  1  0
  4  3  1  0
  5  6  2  0
  6 20  1  0
  7  6  1  0
  7  8  1  0
  8  9  1  0
  8 21  1  0
  8 22  1  0
  9 13  1  0
  9 10  1  0
 10 11  1  0
 12 11  1  0
 13 12  1  0
 14 13  2  0
 14 15  1  0
 15 17  1  0
 16 15  2  0
 10 23  1  0
 10 24  1  0
 11 25  1  0
 11 26  1  0
 12 27  1  0
M  CHG  2  15   1  17  -1
M  END
