
     RDKit          3D

 48 52  0  0  0  0  0  0  0  0999 V2000
   -0.7111    3.2020   -0.6281 O   0  0  0  0  0  0  0  0  0  0  0  0
   -1.8822    3.8009   -0.5132 C   0  0  0  0  0  0  0  0  0  0  0  0
   -2.0405    4.9949   -0.5868 O   0  0  0  0  0  0  0  0  0  0  0  0
   -3.0093    2.8461   -0.2815 C   0  0  0  0  0  0  0  0  0  0  0  0
   -2.7178    1.5572   -0.2212 N   0  0  0  0  0  0  0  0  0  0  0  0
   -4.2966    3.3448   -0.1426 C   0  0  0  0  0  0  0  0  0  0  0  0
   -5.3152    2.4284    0.0690 C   0  0  0  0  0  0  0  0  0  0  0  0
   -5.0133    1.0809    0.1338 C   0  0  0  0  0  0  0  0  0  0  0  0
   -3.6847    0.6706   -0.0173 C   0  0  0  0  0  0  0  0  0  0  0  0
   -3.2745   -0.7517    0.0464 C   0  0  0  0  0  0  0  0  0  0  0  0
   -4.1989   -1.7889    0.1987 C   0  0  0  0  0  0  0  0  0  0  0  0
   -3.7734   -3.1027    0.2574 C   0  0  0  0  0  0  0  0  0  0  0  0
   -2.4244   -3.4353    0.1700 C   0  0  0  0  0  0  0  0  0  0  0  0
   -1.9716   -4.8641    0.2388 C   0  0  0  0  0  0  0  0  0  0  0  0
   -0.7414   -5.0760   -0.6280 C   0  0  0  0  0  0  0  0  0  0  0  0
    0.3862   -4.1503   -0.1923 C   0  0  0  0  0  0  0  0  0  0  0  0
   -1.9286   -1.0816   -0.0475 C   0  0  0  0  0  0  0  0  0  0  0  0
   -1.4907   -2.4041    0.0133 C   0  0  0  0  0  0  0  0  0  0  0  0
   -0.0495   -2.7156   -0.0648 C   0  0  0  0  0  0  0  0  0  0  0  0
    0.7453   -1.7174    0.0103 N   0  0  0  0  0  0  0  0  0  0  0  0
    2.0696   -1.9161   -0.0333 N   0  0  0  0  0  0  0  0  0  0  0  0
    2.8944   -0.8442    0.0163 C   0  0  0  0  0  0  0  0  0  0  0  0
    4.6300   -1.1328   -0.0366 S   0  0  0  0  0  0  0  0  0  0  0  0
    4.8624    0.5885    0.0669 C   0  0  0  0  0  0  0  0  0  0  0  0
    6.0507    1.3013    0.0877 C   0  0  0  0  0  0  0  0  0  0  0  0
    5.9772    2.6839    0.1762 C   0  0  0  0  0  0  0  0  0  0  0  0
    2.5186    0.3845    0.1007 N   0  0  0  0  0  0  0  0  0  0  0  0
    3.6082    1.2195    0.1314 C   0  0  0  0  0  0  0  0  0  0  0  0
    3.5573    2.6095    0.2197 C   0  0  0  0  0  0  0  0  0  0  0  0
    4.7407    3.3284    0.2407 C   0  0  0  0  0  0  0  0  0  0  0  0
   -0.0247    3.8676   -0.7840 H   0  0  0  0  0  0  0  0  0  0  0  0
   -4.4961    4.4051   -0.1957 H   0  0  0  0  0  0  0  0  0  0  0  0
   -6.3375    2.7619    0.1855 H   0  0  0  0  0  0  0  0  0  0  0  0
   -5.8070    0.3674    0.3018 H   0  0  0  0  0  0  0  0  0  0  0  0
   -5.2602   -1.5912    0.2645 H   0  0  0  0  0  0  0  0  0  0  0  0
   -1.2009   -0.2918   -0.1674 H   0  0  0  0  0  0  0  0  0  0  0  0
   -4.5066   -3.8923    0.3680 H   0  0  0  0  0  0  0  0  0  0  0  0
   -1.7349   -5.1230    1.2771 H   0  0  0  0  0  0  0  0  0  0  0  0
   -2.7828   -5.5272   -0.0664 H   0  0  0  0  0  0  0  0  0  0  0  0
   -0.4025   -6.1104   -0.5652 H   0  0  0  0  0  0  0  0  0  0  0  0
   -0.9938   -4.8847   -1.6741 H   0  0  0  0  0  0  0  0  0  0  0  0
    0.7790   -4.4825    0.7762 H   0  0  0  0  0  0  0  0  0  0  0  0
    1.2135   -4.2323   -0.9038 H   0  0  0  0  0  0  0  0  0  0  0  0
    2.4671   -2.8438   -0.1054 H   0  0  0  0  0  0  0  0  0  0  0  0
    7.0079    0.7993    0.0366 H   0  0  0  0  0  0  0  0  0  0  0  0
    6.8887    3.2661    0.1959 H   0  0  0  0  0  0  0  0  0  0  0  0
    4.7058    4.4078    0.3078 H   0  0  0  0  0  0  0  0  0  0  0  0
    2.5987    3.1098    0.2722 H   0  0  0  0  0  0  0  0  0  0  0  0
  1  2  1  0
  2  3  2  0
  2  4  1  0
  4  5  2  0
  4  6  1  0
  5  9  1  0
  6  7  2  0
  7  8  1  0
  8  9  2  0
  9 10  1  0
 10 11  2  0
 10 17  1  0
 11 12  1  0
 12 13  2  0
 13 14  1  0
 13 18  1  0
 14 15  1  0
 15 16  1  0
 16 19  1  0
 17 18  2  0
 18 19  1  0
 19 20  2  0
 20 21  1  0
 21 22  1  0
 22 23  1  0
 22 27  2  0
 23 24  1  0
 24 25  2  0
 24 28  1  0
 25 26  1  0
 26 30  2  0
 27 28  1  0
 28 29  2  0
 29 30  1  0
  1 31  1  0
  6 32  1  0
  7 33  1  0
  8 34  1  0
 11 35  1  0
 17 36  1  0
 12 37  1  0
 14 38  1  0
 14 39  1  0
 15 40  1  0
 15 41  1  0
 16 42  1  0
 16 43  1  0
 21 44  1  0
 25 45  1  0
 26 46  1  0
 30 47  1  0
 29 48  1  0
M  END
