
     RDKit          3D

131130  0  0  0  0  0  0  0  0999 V2000
   -1.4510    6.1890    7.3500 C   0  0  0  0  0  0  0  0  0  0  0  0
   -1.8000    5.5220    6.0240 C   0  0  1  0  0  0  0  0  0  0  0  0
   -0.6340    5.5830    5.0460 C   0  0  0  0  0  0  0  0  0  0  0  0
   -0.3430    5.5290    7.9440 O   0  0  0  0  0  0  0  0  0  0  0  0
   -2.1010    4.1460    6.2670 O   0  0  0  0  0  0  0  0  0  0  0  0
   -1.0060    4.9230    3.8410 O   0  0  0  0  0  0  0  0  0  0  0  0
   -3.1990    4.0100    7.1540 C   0  0  0  0  0  0  0  0  0  0  0  0
   -3.4970    2.5320    7.3950 C   0  0  0  0  0  0  0  0  0  0  0  0
   -3.8820    1.7300    6.1320 C   0  0  2  0  0  0  0  0  0  0  0  0
   -5.1840    2.2460    5.5080 C   0  0  0  0  0  0  0  0  0  0  0  0
   -4.0370    0.2230    6.4370 C   0  0  0  0  0  0  0  0  0  0  0  0
   -2.7690   -0.4280    7.0020 C   0  0  0  0  0  0  0  0  0  0  0  0
   -2.9700   -1.9350    7.2100 C   0  0  0  0  0  0  0  0  0  0  0  0
   -1.7190   -2.6600    7.7470 C   0  0  2  0  0  0  0  0  0  0  0  0
   -0.5210   -2.5100    6.8000 C   0  0  0  0  0  0  0  0  0  0  0  0
   -1.9820   -4.1650    7.9780 C   0  0  0  0  0  0  0  0  0  0  0  0
   -3.1850   -4.5240    8.8600 C   0  0  0  0  0  0  0  0  0  0  0  0
   -3.0620   -4.0160   10.2980 C   0  0  0  0  0  0  0  0  0  0  0  0
   -4.2630   -4.3810   11.1770 C   0  0  0  0  0  0  0  0  0  0  0  0
   -4.1790   -3.8110   12.5950 C   0  0  0  0  0  0  0  0  0  0  0  0
   -5.3880   -4.2330   13.4340 C   0  0  0  0  0  0  0  0  0  0  0  0
   -5.2870   -3.6940   14.8640 C   0  0  0  0  0  0  0  0  0  0  0  0
   -6.4920   -4.0670   15.7470 C   0  0  2  0  0  0  0  0  0  0  0  0
   -7.8150   -3.5510   15.1800 C   0  0  0  0  0  0  0  0  0  0  0  0
   -6.2880   -3.5180   17.1620 C   0  0  0  0  0  0  0  0  0  0  0  0
    0.0410    6.1500    9.1640 C   0  0  0  0  0  0  0  0  0  0  0  0
    1.2310    5.3930    9.7450 C   0  0  0  0  0  0  0  0  0  0  0  0
    0.9230    3.9200   10.0650 C   0  0  1  0  0  0  0  0  0  0  0  0
    2.1260    3.1990   10.6770 C   0  0  0  0  0  0  0  0  0  0  0  0
   -0.3320    3.7900   10.9570 C   0  0  0  0  0  0  0  0  0  0  0  0
   -0.8440    2.3590   11.1630 C   0  0  0  0  0  0  0  0  0  0  0  0
   -2.1210    2.3510   12.0150 C   0  0  0  0  0  0  0  0  0  0  0  0
   -2.6530    0.9360   12.3230 C   0  0  2  0  0  0  0  0  0  0  0  0
   -3.0580    0.1890   11.0450 C   0  0  0  0  0  0  0  0  0  0  0  0
   -3.8660    0.9770   13.2790 C   0  0  0  0  0  0  0  0  0  0  0  0
   -3.6710    1.7520   14.5880 C   0  0  0  0  0  0  0  0  0  0  0  0
   -2.6050    1.1950   15.5390 C   0  0  0  0  0  0  0  0  0  0  0  0
   -2.8750   -0.2190   16.0900 C   0  0  1  0  0  0  0  0  0  0  0  0
   -1.7670   -0.6060   17.0760 C   0  0  0  0  0  0  0  0  0  0  0  0
   -4.2730   -0.4040   16.7170 C   0  0  0  0  0  0  0  0  0  0  0  0
   -4.5610    0.4660   17.9460 C   0  0  0  0  0  0  0  0  0  0  0  0
   -5.9890    0.2400   18.4550 C   0  0  0  0  0  0  0  0  0  0  0  0
   -6.3330    1.0680   19.7070 C   0  0  1  0  0  0  0  0  0  0  0  0
   -5.3660    0.7190   20.8410 C   0  0  0  0  0  0  0  0  0  0  0  0
   -6.2950    2.5740   19.4420 C   0  0  0  0  0  0  0  0  0  0  0  0
   -2.2880    6.1470    8.0540 H   0  0  0  0  0  0  0  0  0  0  0  0
   -1.1660    7.2350    7.2020 H   0  0  0  0  0  0  0  0  0  0  0  0
   -2.6980    5.9680    5.5800 H   0  0  0  0  0  0  0  0  0  0  0  0
    0.2480    5.0740    5.4490 H   0  0  0  0  0  0  0  0  0  0  0  0
   -0.3780    6.6180    4.8010 H   0  0  0  0  0  0  0  0  0  0  0  0
   -0.5010    4.0950    3.8100 H   0  0  0  0  0  0  0  0  0  0  0  0
   -2.9370    4.4930    8.1010 H   0  0  0  0  0  0  0  0  0  0  0  0
   -4.0640    4.5330    6.7360 H   0  0  0  0  0  0  0  0  0  0  0  0
   -4.2920    2.4490    8.1460 H   0  0  0  0  0  0  0  0  0  0  0  0
   -2.5950    2.0860    7.8300 H   0  0  0  0  0  0  0  0  0  0  0  0
   -3.0860    1.8440    5.3850 H   0  0  0  0  0  0  0  0  0  0  0  0
   -5.0710    3.2680    5.1340 H   0  0  0  0  0  0  0  0  0  0  0  0
   -5.4810    1.6260    4.6550 H   0  0  0  0  0  0  0  0  0  0  0  0
   -6.0030    2.2350    6.2350 H   0  0  0  0  0  0  0  0  0  0  0  0
   -4.8680    0.0720    7.1380 H   0  0  0  0  0  0  0  0  0  0  0  0
   -4.3100   -0.2980    5.5100 H   0  0  0  0  0  0  0  0  0  0  0  0
   -1.9400   -0.2510    6.3090 H   0  0  0  0  0  0  0  0  0  0  0  0
   -2.5060    0.0290    7.9620 H   0  0  0  0  0  0  0  0  0  0  0  0
   -3.7970   -2.0690    7.9160 H   0  0  0  0  0  0  0  0  0  0  0  0
   -3.2840   -2.3930    6.2630 H   0  0  0  0  0  0  0  0  0  0  0  0
   -1.4330   -2.2040    8.7020 H   0  0  0  0  0  0  0  0  0  0  0  0
   -0.7650   -2.8620    5.7920 H   0  0  0  0  0  0  0  0  0  0  0  0
   -0.1960   -1.4670    6.7300 H   0  0  0  0  0  0  0  0  0  0  0  0
    0.3360   -3.0880    7.1620 H   0  0  0  0  0  0  0  0  0  0  0  0
   -1.0860   -4.6160    8.4250 H   0  0  0  0  0  0  0  0  0  0  0  0
   -2.1180   -4.6580    7.0060 H   0  0  0  0  0  0  0  0  0  0  0  0
   -3.2690   -5.6170    8.8640 H   0  0  0  0  0  0  0  0  0  0  0  0
   -4.1110   -4.1500    8.4090 H   0  0  0  0  0  0  0  0  0  0  0  0
   -2.1420   -4.4030   10.7520 H   0  0  0  0  0  0  0  0  0  0  0  0
   -2.9790   -2.9230   10.2940 H   0  0  0  0  0  0  0  0  0  0  0  0
   -5.1680   -3.9970   10.6910 H   0  0  0  0  0  0  0  0  0  0  0  0
   -4.3680   -5.4720   11.2220 H   0  0  0  0  0  0  0  0  0  0  0  0
   -4.1290   -2.7160   12.5490 H   0  0  0  0  0  0  0  0  0  0  0  0
   -3.2640   -4.1580   13.0870 H   0  0  0  0  0  0  0  0  0  0  0  0
   -6.3010   -3.8620   12.9560 H   0  0  0  0  0  0  0  0  0  0  0  0
   -5.4530   -5.3280   13.4570 H   0  0  0  0  0  0  0  0  0  0  0  0
   -4.3750   -4.0920   15.3260 H   0  0  0  0  0  0  0  0  0  0  0  0
   -5.1730   -2.6030   14.8340 H   0  0  0  0  0  0  0  0  0  0  0  0
   -6.5520   -5.1610   15.8170 H   0  0  0  0  0  0  0  0  0  0  0  0
   -7.7860   -2.4670   15.0260 H   0  0  0  0  0  0  0  0  0  0  0  0
   -8.6430   -3.7720   15.8630 H   0  0  0  0  0  0  0  0  0  0  0  0
   -8.0510   -4.0250   14.2230 H   0  0  0  0  0  0  0  0  0  0  0  0
   -6.2250   -2.4250   17.1580 H   0  0  0  0  0  0  0  0  0  0  0  0
   -5.3660   -3.9100   17.6020 H   0  0  0  0  0  0  0  0  0  0  0  0
   -7.1180   -3.8080   17.8150 H   0  0  0  0  0  0  0  0  0  0  0  0
    0.2960    7.1920    8.9490 H   0  0  0  0  0  0  0  0  0  0  0  0
   -0.8110    6.1230    9.8500 H   0  0  0  0  0  0  0  0  0  0  0  0
    2.0610    5.4490    9.0280 H   0  0  0  0  0  0  0  0  0  0  0  0
    1.5800    5.9220   10.6410 H   0  0  0  0  0  0  0  0  0  0  0  0
    0.6850    3.4120    9.1200 H   0  0  0  0  0  0  0  0  0  0  0  0
    3.0250    3.3560   10.0710 H   0  0  0  0  0  0  0  0  0  0  0  0
    2.3350    3.5490   11.6930 H   0  0  0  0  0  0  0  0  0  0  0  0
    1.9540    2.1190   10.7260 H   0  0  0  0  0  0  0  0  0  0  0  0
   -0.1110    4.2350   11.9360 H   0  0  0  0  0  0  0  0  0  0  0  0
   -1.1360    4.3970   10.5210 H   0  0  0  0  0  0  0  0  0  0  0  0
   -0.0790    1.7530   11.6590 H   0  0  0  0  0  0  0  0  0  0  0  0
   -1.0500    1.9040   10.1900 H   0  0  0  0  0  0  0  0  0  0  0  0
   -2.8990    2.9360   11.5080 H   0  0  0  0  0  0  0  0  0  0  0  0
   -1.9010    2.8670   12.9560 H   0  0  0  0  0  0  0  0  0  0  0  0
   -1.8510    0.3570   12.7960 H   0  0  0  0  0  0  0  0  0  0  0  0
   -3.7940    0.7590   10.4690 H   0  0  0  0  0  0  0  0  0  0  0  0
   -2.1930   -0.0030   10.4030 H   0  0  0  0  0  0  0  0  0  0  0  0
   -3.4970   -0.7850   11.2860 H   0  0  0  0  0  0  0  0  0  0  0  0
   -4.1650   -0.0500   13.5220 H   0  0  0  0  0  0  0  0  0  0  0  0
   -4.7220    1.4180   12.7500 H   0  0  0  0  0  0  0  0  0  0  0  0
   -3.4210    2.7950   14.3590 H   0  0  0  0  0  0  0  0  0  0  0  0
   -4.6350    1.7980   15.1080 H   0  0  0  0  0  0  0  0  0  0  0  0
   -1.6360    1.1980   15.0250 H   0  0  0  0  0  0  0  0  0  0  0  0
   -2.4910    1.8990   16.3730 H   0  0  0  0  0  0  0  0  0  0  0  0
   -2.8070   -0.9290   15.2560 H   0  0  0  0  0  0  0  0  0  0  0  0
   -0.7940   -0.6190   16.5730 H   0  0  0  0  0  0  0  0  0  0  0  0
   -1.6980    0.1000   17.9100 H   0  0  0  0  0  0  0  0  0  0  0  0
   -1.9410   -1.6060   17.4870 H   0  0  0  0  0  0  0  0  0  0  0  0
   -4.3930   -1.4600   16.9950 H   0  0  0  0  0  0  0  0  0  0  0  0
   -5.0380   -0.2110   15.9540 H   0  0  0  0  0  0  0  0  0  0  0  0
   -3.8460    0.2250   18.7390 H   0  0  0  0  0  0  0  0  0  0  0  0
   -4.4340    1.5250   17.6970 H   0  0  0  0  0  0  0  0  0  0  0  0
   -6.6930    0.5040   17.6550 H   0  0  0  0  0  0  0  0  0  0  0  0
   -6.1370   -0.8270   18.6640 H   0  0  0  0  0  0  0  0  0  0  0  0
   -7.3460    0.8030   20.0370 H   0  0  0  0  0  0  0  0  0  0  0  0
   -5.6190    1.2700   21.7530 H   0  0  0  0  0  0  0  0  0  0  0  0
   -5.4090   -0.3490   21.0750 H   0  0  0  0  0  0  0  0  0  0  0  0
   -4.3330    0.9670   20.5720 H   0  0  0  0  0  0  0  0  0  0  0  0
   -6.4730    3.1360   20.3650 H   0  0  0  0  0  0  0  0  0  0  0  0
   -5.3230    2.8820   19.0410 H   0  0  0  0  0  0  0  0  0  0  0  0
   -7.0690    2.8730   18.7290 H   0  0  0  0  0  0  0  0  0  0  0  0
  1  2  1  0
  1  4  1  0
  1 46  1  0
  1 47  1  0
  2  3  1  0
  2  5  1  0
  2 48  1  6
  3  6  1  0
  3 49  1  0
  3 50  1  0
  4 26  1  0
  5  7  1  0
  6 51  1  0
  7  8  1  0
  7 52  1  0
  7 53  1  0
  8  9  1  0
  8 54  1  0
  8 55  1  0
  9 10  1  0
  9 11  1  0
  9 56  1  6
 10 57  1  0
 10 58  1  0
 10 59  1  0
 11 12  1  0
 11 60  1  0
 11 61  1  0
 12 13  1  0
 12 62  1  0
 12 63  1  0
 13 14  1  0
 13 64  1  0
 13 65  1  0
 14 15  1  0
 14 16  1  0
 14 66  1  1
 15 67  1  0
 15 68  1  0
 15 69  1  0
 16 17  1  0
 16 70  1  0
 16 71  1  0
 17 18  1  0
 17 72  1  0
 17 73  1  0
 18 19  1  0
 18 74  1  0
 18 75  1  0
 19 20  1  0
 19 76  1  0
 19 77  1  0
 20 21  1  0
 20 78  1  0
 20 79  1  0
 21 22  1  0
 21 80  1  0
 21 81  1  0
 22 23  1  0
 22 82  1  0
 22 83  1  0
 23 24  1  0
 23 25  1  0
 23 84  1  1
 24 85  1  0
 24 86  1  0
 24 87  1  0
 25 88  1  0
 25 89  1  0
 25 90  1  0
 26 27  1  0
 26 91  1  0
 26 92  1  0
 27 28  1  0
 27 93  1  0
 27 94  1  0
 28 29  1  0
 28 30  1  0
 28 95  1  6
 29 96  1  0
 29 97  1  0
 29 98  1  0
 30 31  1  0
 30 99  1  0
 30100  1  0
 31 32  1  0
 31101  1  0
 31102  1  0
 32 33  1  0
 32103  1  0
 32104  1  0
 33 34  1  0
 33 35  1  0
 33105  1  1
 34106  1  0
 34107  1  0
 34108  1  0
 35 36  1  0
 35109  1  0
 35110  1  0
 36 37  1  0
 36111  1  0
 36112  1  0
 37 38  1  0
 37113  1  0
 37114  1  0
 38 39  1  0
 38 40  1  0
 38115  1  6
 39116  1  0
 39117  1  0
 39118  1  0
 40 41  1  0
 40119  1  0
 40120  1  0
 41 42  1  0
 41121  1  0
 41122  1  0
 42 43  1  0
 42123  1  0
 42124  1  0
 43 44  1  0
 43 45  1  0
 43125  1  1
 44126  1  0
 44127  1  0
 44128  1  0
 45129  1  0
 45130  1  0
 45131  1  0
M  END
