
     RDKit          3D

 46 48  0  0  0  0  0  0  0  0999 V2000
   -0.3643    1.8612   -0.1813 N   0  0  0  0  0  0  0  0  0  0  0  0
   -0.9385    2.1092    1.1398 C   0  0  0  0  0  0  0  0  0  0  0  0
   -2.4184    2.4085    1.0052 C   0  0  0  0  0  0  0  0  0  0  0  0
   -0.5646    2.9995   -1.0611 C   0  0  0  0  0  0  0  0  0  0  0  0
   -2.0522    3.2703   -1.1877 C   0  0  0  0  0  0  0  0  0  0  0  0
    3.3329    1.3983   -0.2349 C   0  0  0  0  0  0  0  0  0  0  0  0
   -5.2153   -1.1241   -0.2878 C   0  0  0  0  0  0  0  0  0  0  0  0
   -3.9566   -3.2974    0.4062 C   0  0  0  0  0  0  0  0  0  0  0  0
    0.3201   -2.8755    0.7192 O   0  0  0  0  0  0  0  0  0  0  0  0
   -0.5085   -2.0486    0.3719 C   0  0  0  0  0  0  0  0  0  0  0  0
   -1.9318   -2.3888    0.3292 C   0  0  0  0  0  0  0  0  0  0  0  0
   -2.5731   -3.5560    0.5963 C   0  0  0  0  0  0  0  0  0  0  0  0
   -4.0621   -1.9911    0.0377 C   0  0  0  0  0  0  0  0  0  0  0  0
   -2.8357   -1.4387   -0.0110 O   0  0  0  0  0  0  0  0  0  0  0  0
    0.9968   -0.1150   -0.0165 C   0  0  0  0  0  0  0  0  0  0  0  0
    2.2352   -0.7380    0.0335 C   0  0  0  0  0  0  0  0  0  0  0  0
    3.3957    0.0258   -0.0700 C   0  0  0  0  0  0  0  0  0  0  0  0
    5.7516    0.1324   -0.1400 F   0  0  0  0  0  0  0  0  0  0  0  0
    4.8653   -1.3454    1.1486 F   0  0  0  0  0  0  0  0  0  0  0  0
    4.8152   -1.6125   -0.9808 F   0  0  0  0  0  0  0  0  0  0  0  0
    2.0915    2.0202   -0.2731 C   0  0  0  0  0  0  0  0  0  0  0  0
    0.9219    1.2888   -0.1547 C   0  0  0  0  0  0  0  0  0  0  0  0
   -2.6422    3.5243    0.1104 N   0  0  0  0  0  0  0  0  0  0  0  0
   -0.8078    1.2278    1.7697 H   0  0  0  0  0  0  0  0  0  0  0  0
   -0.4277    2.9461    1.6372 H   0  0  0  0  0  0  0  0  0  0  0  0
   -2.9379    1.4952    0.6621 H   0  0  0  0  0  0  0  0  0  0  0  0
   -2.8217    2.6529    1.9908 H   0  0  0  0  0  0  0  0  0  0  0  0
   -4.4494    4.0963    0.9870 H   0  0  0  0  0  0  0  0  0  0  0  0
   -4.1832    4.7137   -0.6445 H   0  0  0  0  0  0  0  0  0  0  0  0
   -4.6504    3.0228   -0.4069 H   0  0  0  0  0  0  0  0  0  0  0  0
   -0.0620    3.9050   -0.6916 H   0  0  0  0  0  0  0  0  0  0  0  0
   -0.1534    2.7683   -2.0446 H   0  0  0  0  0  0  0  0  0  0  0  0
   -2.1980    4.1457   -1.8248 H   0  0  0  0  0  0  0  0  0  0  0  0
   -2.5303    2.4148   -1.6970 H   0  0  0  0  0  0  0  0  0  0  0  0
    4.2264    2.0000   -0.3218 H   0  0  0  0  0  0  0  0  0  0  0  0
   -5.2931   -0.2872    0.4089 H   0  0  0  0  0  0  0  0  0  0  0  0
   -5.1354   -0.7103   -1.2943 H   0  0  0  0  0  0  0  0  0  0  0  0
   -6.1367   -1.6987   -0.2296 H   0  0  0  0  0  0  0  0  0  0  0  0
   -4.7735   -3.9901    0.5264 H   0  0  0  0  0  0  0  0  0  0  0  0
   -2.1151   -4.4851    0.8938 H   0  0  0  0  0  0  0  0  0  0  0  0
   -0.9902   -0.1603   -0.2584 H   0  0  0  0  0  0  0  0  0  0  0  0
    2.2954   -1.8110    0.1300 H   0  0  0  0  0  0  0  0  0  0  0  0
    2.0438    3.0951   -0.3868 H   0  0  0  0  0  0  0  0  0  0  0  0
   -4.0463    3.8473    0.0043 C   0  0  0  0  0  0  0  0  0  0  0  0
    4.7070   -0.6901   -0.0117 C   0  0  1  0  0  0  0  0  0  0  0  0
   -0.2264   -0.7726    0.0110 N   0  0  0  0  0  0  0  0  0  0  0  0
 45 20  1  6
 19 45  1  0
 45 18  1  0
 45 17  1  0
  6 17  2  0
  6 21  1  0
 17 16  1  0
 21 22  2  0
 16 15  2  0
 22 15  1  0
 22  1  1  0
  2  1  1  0
  2  3  1  0
 15 46  1  0
  1  4  1  0
  3 23  1  0
  4  5  1  0
 46 10  1  0
 23  5  1  0
 23 44  1  0
  9 10  2  0
 10 11  1  0
 11 14  1  0
 11 12  2  0
 14 13  1  0
 12  8  1  0
 13  7  1  0
 13  8  2  0
  2 24  1  0
  2 25  1  0
  3 26  1  0
  3 27  1  0
 44 28  1  0
 44 29  1  0
 44 30  1  0
  4 31  1  0
  4 32  1  0
  5 33  1  0
  5 34  1  0
  6 35  1  0
  7 36  1  0
  7 37  1  0
  7 38  1  0
  8 39  1  0
 12 40  1  0
 46 41  1  0
 16 42  1  0
 21 43  1  0
M  END
