
     RDKit          3D

 20 20  0  0  0  0  0  0  0  0999 V2000
   -1.8798   -2.0492   -1.1252 O   0  0  0  0  0  0  0  0  0  0  0  0
   -0.8190   -1.1634   -1.1002 C   0  0  0  0  0  0  0  0  0  0  0  0
   -0.2874   -1.0584    0.3025 C   0  0  2  0  0  0  0  0  0  0  0  0
   -1.1113   -0.3554    1.0502 O   0  0  0  0  0  0  0  0  0  0  0  0
    1.1449   -0.2300    0.3108 C   0  0  2  0  0  0  0  0  0  0  0  0
    1.8831   -0.5281    1.5427 O   0  0  0  0  0  0  0  0  0  0  0  0
    0.8335    0.9885    0.2802 C   0  0  1  0  0  0  0  0  0  0  0  0
    0.7712    1.4636   -1.1326 O   0  0  0  0  0  0  0  0  0  0  0  0
   -0.6183    1.0752    0.9583 C   0  0  1  0  0  0  0  0  0  0  0  0
   -1.4141    1.7706    0.2292 O   0  0  0  0  0  0  0  0  0  0  0  0
   -2.0342   -2.3260   -2.0106 H   0  0  0  0  0  0  0  0  0  0  0  0
   -1.1602   -0.1764   -1.4383 H   0  0  0  0  0  0  0  0  0  0  0  0
   -0.0240   -1.5243   -1.7687 H   0  0  0  0  0  0  0  0  0  0  0  0
   -0.1429   -2.0785    0.7449 H   0  0  0  0  0  0  0  0  0  0  0  0
    1.7382   -0.4920   -0.5661 H   0  0  0  0  0  0  0  0  0  0  0  0
    2.7449   -0.9085    1.3176 H   0  0  0  0  0  0  0  0  0  0  0  0
    1.5709    1.5902    0.8660 H   0  0  0  0  0  0  0  0  0  0  0  0
    1.3261    2.1690   -1.2384 H   0  0  0  0  0  0  0  0  0  0  0  0
   -0.5358    1.5223    1.9798 H   0  0  0  0  0  0  0  0  0  0  0  0
   -1.9856    2.3107    0.7981 H   0  0  0  0  0  0  0  0  0  0  0  0
  2  1  1  0
  1 11  1  0
  3  2  1  0
  2 12  1  0
  2 13  1  0
  5  3  1  0
  3  4  1  0
  3 14  1  1
  9  4  1  0
  6  5  1  0
  7  5  1  0
  5 15  1  6
  6 16  1  0
  7  8  1  0
  7  9  1  0
  7 17  1  1
  8 18  1  0
  9 10  1  0
  9 19  1  1
 10 20  1  0
M  END
