
     RDKit          3D

 19 19  0  0  0  0  0  0  0  0999 V2000
    0.4792   -0.0000    3.2961 C   0  0  0  0  0  0  0  0  0  0  0  0
    1.4480   -0.0710    1.0818 N   0  0  0  0  0  0  0  0  0  0  0  0
    0.3424   -0.0188    1.8053 C   0  0  0  0  0  0  0  0  0  0  0  0
   -0.8936    0.0321    1.3217 N   0  0  0  0  0  0  0  0  0  0  0  0
   -1.0518    0.0362    0.0010 C   0  0  0  0  0  0  0  0  0  0  0  0
   -2.3105    0.1246   -0.4713 N   0  0  0  0  0  0  0  0  0  0  0  0
    0.0628   -0.0152   -0.8688 C   0  0  0  0  0  0  0  0  0  0  0  0
    1.2854   -0.0685   -0.2482 C   0  0  0  0  0  0  0  0  0  0  0  0
   -0.1207   -0.0087   -2.3557 C   0  0  0  0  0  0  0  0  0  0  0  0
    1.1315   -0.0265   -2.9875 O   0  0  0  0  0  0  0  0  0  0  0  0
    0.2258    0.9873    3.6872 H   0  0  0  0  0  0  0  0  0  0  0  0
   -0.2034   -0.7129    3.7580 H   0  0  0  0  0  0  0  0  0  0  0  0
    1.4970   -0.2346    3.5986 H   0  0  0  0  0  0  0  0  0  0  0  0
   -3.0694   -0.0113    0.1758 H   0  0  0  0  0  0  0  0  0  0  0  0
   -2.5174   -0.0913   -1.4310 H   0  0  0  0  0  0  0  0  0  0  0  0
    2.1944   -0.1108   -0.8367 H   0  0  0  0  0  0  0  0  0  0  0  0
   -0.7294   -0.8793   -2.6464 H   0  0  0  0  0  0  0  0  0  0  0  0
   -0.7035    0.8806   -2.6401 H   0  0  0  0  0  0  0  0  0  0  0  0
    0.9836   -0.0437   -3.9370 H   0  0  0  0  0  0  0  0  0  0  0  0
  1  3  1  0
  1 11  1  0
  1 12  1  0
  1 13  1  0
  2  3  2  0
  2  8  1  0
  3  4  1  0
  4  5  2  0
  5  6  1  0
  5  7  1  0
  6 14  1  0
  6 15  1  0
  7  8  2  0
  7  9  1  0
  8 16  1  0
  9 10  1  0
  9 17  1  0
  9 18  1  0
 10 19  1  0
M  END
