
     RDKit          3D

 22 22  0  0  0  0  0  0  0  0999 V2000
   -0.8745   -0.7825   -1.3665 C   0  0  2  0  0  0  0  0  0  0  0  0
    0.6409   -0.7825   -1.3665 C   0  0  0  0  0  0  0  0  0  0  0  0
    1.1953   -0.7825    0.0016 C   0  0  2  0  0  0  0  0  0  0  0  0
    0.6297    0.3277    0.8383 C   0  0  2  0  0  0  0  0  0  0  0  0
   -0.8936    0.3282    0.8340 C   0  0  1  0  0  0  0  0  0  0  0  0
   -1.3835    1.5556    1.5584 C   0  0  0  0  0  0  0  0  0  0  0  0
   -1.3158   -0.6358   -2.6467 O   0  0  0  0  0  0  0  0  0  0  0  0
   -1.4411    0.3298   -0.5251 O   0  0  0  0  0  0  0  0  0  0  0  0
    2.6413   -0.6216   -0.0773 O   0  0  0  0  0  0  0  0  0  0  0  0
    1.0939    1.5791    0.3210 O   0  0  0  0  0  0  0  0  0  0  0  0
   -1.2243   -1.7301   -0.9752 H   0  0  0  0  0  0  0  0  0  0  0  0
    0.9911   -1.6661   -1.8863 H   0  0  0  0  0  0  0  0  0  0  0  0
    0.9915    0.1006   -1.8869 H   0  0  0  0  0  0  0  0  0  0  0  0
    0.9658   -1.7301    0.4736 H   0  0  0  0  0  0  0  0  0  0  0  0
    0.9776    0.2110    1.8576 H   0  0  0  0  0  0  0  0  0  0  0  0
   -1.2453   -0.5559    1.3519 H   0  0  0  0  0  0  0  0  0  0  0  0
   -2.4465    1.4639    1.7458 H   0  0  0  0  0  0  0  0  0  0  0  0
   -0.8577    1.6528    2.5006 H   0  0  0  0  0  0  0  0  0  0  0  0
   -1.1984    2.4323    0.9496 H   0  0  0  0  0  0  0  0  0  0  0  0
   -2.0471   -1.2123   -2.7951 H   0  0  0  0  0  0  0  0  0  0  0  0
    3.0617   -1.4228    0.1877 H   0  0  0  0  0  0  0  0  0  0  0  0
    1.7391    1.9410    0.9056 H   0  0  0  0  0  0  0  0  0  0  0  0
  1  2  1  0
  1  7  1  0
  1  8  1  0
  1 11  1  1
  2  3  1  0
  2 12  1  0
  2 13  1  0
  3  4  1  0
  3  9  1  0
  3 14  1  1
  4  5  1  0
  4 10  1  0
  4 15  1  1
  5  6  1  0
  5  8  1  0
  5 16  1  1
  6 17  1  0
  6 18  1  0
  6 19  1  0
  7 20  1  0
  9 21  1  0
 10 22  1  0
M  END
