
     RDKit          3D

 42 44  0  0  0  0  0  0  0  0999 V2000
    4.8926   -4.1923    1.0327 O   0  0  0  0  0  0  0  0  0  0  0  0
    4.8764   -3.9405   -0.1449 C   0  0  0  0  0  0  0  0  0  0  0  0
    5.5699   -4.5944   -1.0595 O   0  0  0  0  0  0  0  0  0  0  0  0
    4.0613   -2.8385   -0.7715 C   0  0  0  0  0  0  0  0  0  0  0  0
    3.2937   -2.1563    0.2333 N   0  0  0  0  0  0  0  0  0  0  0  0
    2.4852   -1.1335   -0.0674 C   0  0  0  0  0  0  0  0  0  0  0  0
    2.3174   -0.7132   -1.1988 O   0  0  0  0  0  0  0  0  0  0  0  0
    1.7994   -0.4948    1.1358 C   0  0  0  0  0  0  0  0  0  0  0  0
    0.5902    0.1710    0.7622 N   0  0  0  0  0  0  0  0  0  0  0  0
    0.4691    1.4903    0.3952 C   0  0  0  0  0  0  0  0  0  0  0  0
    1.5820    2.4742    0.4469 C   0  0  0  0  0  0  0  0  0  0  0  0
    1.1713    3.7382   -0.3106 C   0  0  2  0  0  0  0  0  0  0  0  0
    2.1518    4.8591   -0.0624 C   0  0  0  0  0  0  0  0  0  0  0  0
    3.0274    4.8482    0.7671 O   0  0  0  0  0  0  0  0  0  0  0  0
    1.9393    5.8900   -0.8723 O   0  0  0  0  0  0  0  0  0  0  0  0
   -0.2638    4.1674    0.0437 C   0  0  0  0  0  0  0  0  0  0  0  0
   -1.2757    3.1116   -0.3983 C   0  0  0  0  0  0  0  0  0  0  0  0
   -0.8128    1.7545    0.0113 C   0  0  0  0  0  0  0  0  0  0  0  0
   -1.5317    0.5251    0.1128 C   0  0  0  0  0  0  0  0  0  0  0  0
   -0.6166   -0.4467    0.5752 C   0  0  0  0  0  0  0  0  0  0  0  0
   -0.9914   -1.7697    0.7794 C   0  0  0  0  0  0  0  0  0  0  0  0
   -2.3054   -2.1201    0.5225 C   0  0  0  0  0  0  0  0  0  0  0  0
   -3.2148   -1.1552    0.0719 C   0  0  0  0  0  0  0  0  0  0  0  0
   -5.0037   -1.6868   -0.2620 Br  0  0  0  0  0  0  0  0  0  0  0  0
   -2.8567    0.1619   -0.1383 C   0  0  0  0  0  0  0  0  0  0  0  0
    6.0879   -5.3024   -0.6475 H   0  0  0  0  0  0  0  0  0  0  0  0
    4.7390   -2.1540   -1.2908 H   0  0  0  0  0  0  0  0  0  0  0  0
    3.4142   -3.2765   -1.5373 H   0  0  0  0  0  0  0  0  0  0  0  0
    3.3723   -2.4747    1.1875 H   0  0  0  0  0  0  0  0  0  0  0  0
    1.5928   -1.2333    1.9125 H   0  0  0  0  0  0  0  0  0  0  0  0
    2.4876    0.2242    1.5847 H   0  0  0  0  0  0  0  0  0  0  0  0
    1.8270    2.7108    1.4867 H   0  0  0  0  0  0  0  0  0  0  0  0
    2.4890    2.0586   -0.0000 H   0  0  0  0  0  0  0  0  0  0  0  0
    1.1977    3.5253   -1.3860 H   0  0  0  0  0  0  0  0  0  0  0  0
    2.5649    6.6029   -0.6731 H   0  0  0  0  0  0  0  0  0  0  0  0
   -0.3352    4.3167    1.1251 H   0  0  0  0  0  0  0  0  0  0  0  0
   -0.5068    5.1193   -0.4285 H   0  0  0  0  0  0  0  0  0  0  0  0
   -2.2504    3.3379    0.0417 H   0  0  0  0  0  0  0  0  0  0  0  0
   -1.4138    3.1641   -1.4836 H   0  0  0  0  0  0  0  0  0  0  0  0
   -0.2935   -2.5213    1.1266 H   0  0  0  0  0  0  0  0  0  0  0  0
   -2.6203   -3.1437    0.6733 H   0  0  0  0  0  0  0  0  0  0  0  0
   -3.5735    0.8950   -0.4862 H   0  0  0  0  0  0  0  0  0  0  0  0
  7  6  2  0
  8  6  1  0
  8  9  1  0
  6  5  1  0
 21 22  1  0
 21 20  2  0
  9 20  1  0
  9 10  1  0
 22 23  2  0
 20 19  1  0
  5  4  1  0
 10 11  1  0
 10 18  2  0
 11 12  1  0
  4  2  1  0
 23 25  1  0
 23 24  1  0
 19 18  1  0
 19 25  2  0
 18 17  1  0
 12 13  1  0
 12 16  1  0
 14 13  2  0
 13 15  1  0
  2  1  2  0
  2  3  1  0
 17 16  1  0
  3 26  1  0
  4 27  1  0
  4 28  1  0
  5 29  1  0
  8 30  1  0
  8 31  1  0
 11 32  1  0
 11 33  1  0
 12 34  1  6
 15 35  1  0
 16 36  1  0
 16 37  1  0
 17 38  1  0
 17 39  1  0
 21 40  1  0
 22 41  1  0
 25 42  1  0
M  END
