
     RDKit          3D

 41 43  0  0  0  0  0  0  0  0999 V2000
    1.7202    0.1174   -0.4432 C   0  0  0  0  0  0  0  0  0  0  0  0
   -0.6378    0.4400   -2.3679 C   0  0  0  0  0  0  0  0  0  0  0  0
   -3.0038    0.0464   -0.9704 C   0  0  0  0  0  0  0  0  0  0  0  0
   -1.8164   -0.4726   -0.4725 C   0  0  0  0  0  0  0  0  0  0  0  0
   -3.0128    0.7489   -2.1722 C   0  0  0  0  0  0  0  0  0  0  0  0
   -1.8319    0.9331   -2.8720 C   0  0  0  0  0  0  0  0  0  0  0  0
   -0.6279   -0.2632   -1.1664 C   0  0  0  0  0  0  0  0  0  0  0  0
    0.6636   -0.7321   -0.6282 C   0  0  0  0  0  0  0  0  0  0  0  0
   -4.5829    2.3804    0.7066 C   0  0  0  0  0  0  0  0  0  0  0  0
   -4.5014    0.6622    1.1522 S   0  0  1  0  0  0  0  0  0  0  0  0
   -3.3456    0.4683    2.0099 O   0  0  0  0  0  0  0  0  0  0  0  0
   -5.8142    0.2286    1.5973 O   0  0  0  0  0  0  0  0  0  0  0  0
    0.8273   -2.0313   -0.3068 N   0  0  0  0  0  0  0  0  0  0  0  0
   -0.1910   -2.8943   -0.5337 O   0  0  0  0  0  0  0  0  0  0  0  0
    1.9830   -2.6031    0.2065 C   0  0  0  0  0  0  0  0  0  0  0  0
    1.9565   -3.8176    0.4369 O   0  0  0  0  0  0  0  0  0  0  0  0
    3.0563   -1.6948    0.3959 C   0  0  0  0  0  0  0  0  0  0  0  0
    2.9418   -0.3649    0.0731 C   0  0  0  0  0  0  0  0  0  0  0  0
    4.0744    0.5610    0.2680 C   0  0  0  0  0  0  0  0  0  0  0  0
    5.3856    0.1357    0.0510 C   0  0  0  0  0  0  0  0  0  0  0  0
    6.4493    1.0045    0.2415 C   0  0  0  0  0  0  0  0  0  0  0  0
    6.2196    2.3103    0.6548 C   0  0  0  0  0  0  0  0  0  0  0  0
    4.9183    2.7434    0.8721 C   0  0  0  0  0  0  0  0  0  0  0  0
    3.8534    1.8768    0.6761 C   0  0  0  0  0  0  0  0  0  0  0  0
    1.5942    1.1581   -0.7019 H   0  0  0  0  0  0  0  0  0  0  0  0
    0.2841    0.5880   -2.9147 H   0  0  0  0  0  0  0  0  0  0  0  0
   -1.8253   -1.0329    0.4511 H   0  0  0  0  0  0  0  0  0  0  0  0
   -3.9434    1.1471   -2.5575 H   0  0  0  0  0  0  0  0  0  0  0  0
   -1.8404    1.4707   -3.8104 H   0  0  0  0  0  0  0  0  0  0  0  0
   -3.6293    2.6937    0.2877 H   0  0  0  0  0  0  0  0  0  0  0  0
   -5.3818    2.5254   -0.0171 H   0  0  0  0  0  0  0  0  0  0  0  0
   -4.7909    2.9486    1.6120 H   0  0  0  0  0  0  0  0  0  0  0  0
   -5.0410   -0.1905   -0.8518 H   0  0  0  0  0  0  0  0  0  0  0  0
    0.1874   -3.7440   -0.2202 H   0  0  0  0  0  0  0  0  0  0  0  0
    3.9661   -2.0969    0.8201 H   0  0  0  0  0  0  0  0  0  0  0  0
    5.5790   -0.8740   -0.2888 H   0  0  0  0  0  0  0  0  0  0  0  0
    7.4593    0.6611    0.0610 H   0  0  0  0  0  0  0  0  0  0  0  0
    7.0505    2.9870    0.8049 H   0  0  0  0  0  0  0  0  0  0  0  0
    4.7291    3.7576    1.1983 H   0  0  0  0  0  0  0  0  0  0  0  0
    2.8457    2.2242    0.8656 H   0  0  0  0  0  0  0  0  0  0  0  0
   -4.2136   -0.1699   -0.2637 N   0  0  0  0  0  0  0  0  0  0  0  0
 22 23  2  0
 22 21  1  0
 23 24  1  0
 21 20  2  0
 24 19  2  0
 20 19  1  0
 19 18  1  0
 18  1  1  0
 18 17  2  0
  1  8  2  0
 17 15  1  0
  8  7  1  0
  8 13  1  0
  2  7  2  0
  2  6  1  0
  7  4  1  0
 15 13  1  0
 15 16  2  0
  9 10  1  0
  6  5  2  0
 13 14  1  0
  4  3  2  0
  5  3  1  0
  3 41  1  0
 10 11  2  0
 10 41  1  6
 10 12  2  0
  1 25  1  0
  2 26  1  0
  4 27  1  0
  5 28  1  0
  6 29  1  0
  9 30  1  0
  9 31  1  0
  9 32  1  0
 41 33  1  0
 14 34  1  0
 17 35  1  0
 20 36  1  0
 21 37  1  0
 22 38  1  0
 23 39  1  0
 24 40  1  0
M  END
