
     RDKit          3D

 28 29  0  0  0  0  0  0  0  0999 V2000
   -1.9160   -0.6494    0.0447 C   0  0  0  0  0  0  0  0  0  0  0  0
   -0.5529   -0.0837    0.0291 C   0  0  0  0  0  0  0  0  0  0  0  0
    0.5020   -0.9815    0.0154 C   0  0  0  0  0  0  0  0  0  0  0  0
    1.8637   -0.5014    0.0018 C   0  0  0  0  0  0  0  0  0  0  0  0
    2.9822   -1.3381   -0.0114 C   0  0  0  0  0  0  0  0  0  0  0  0
    4.2347   -0.7668   -0.0231 C   0  0  0  0  0  0  0  0  0  0  0  0
    3.3885    1.3540   -0.0097 C   0  0  0  0  0  0  0  0  0  0  0  0
    2.0702    0.8759    0.0022 C   0  0  0  0  0  0  0  0  0  0  0  0
   -2.9645    0.1565    0.0620 N   0  0  0  0  0  0  0  0  0  0  0  0
   -5.3056    0.8265    0.0913 C   0  0  0  0  0  0  0  0  0  0  0  0
   -4.3309   -0.3340    0.0791 C   0  0  0  0  0  0  0  0  0  0  0  0
   -2.0598   -1.8946    0.0414 O   0  0  0  0  0  0  0  0  0  0  0  0
    4.4309    0.5566   -0.0219 N   0  0  0  0  0  0  0  0  0  0  0  0
    1.0061    1.7288    0.0142 N   0  0  0  0  0  0  0  0  0  0  0  0
   -0.3075    1.3463    0.0282 C   0  0  0  0  0  0  0  0  0  0  0  0
   -1.1866    2.2069    0.0385 O   0  0  0  0  0  0  0  0  0  0  0  0
    0.3307   -2.2718    0.0147 O   0  0  0  0  0  0  0  0  0  0  0  0
    2.8748   -2.4133   -0.0126 H   0  0  0  0  0  0  0  0  0  0  0  0
    5.1207   -1.3891   -0.0324 H   0  0  0  0  0  0  0  0  0  0  0  0
    3.5706    2.4241   -0.0094 H   0  0  0  0  0  0  0  0  0  0  0  0
   -2.7840    1.1536    0.0607 H   0  0  0  0  0  0  0  0  0  0  0  0
   -5.1722    1.4518    0.9748 H   0  0  0  0  0  0  0  0  0  0  0  0
   -5.1913    1.4537   -0.7934 H   0  0  0  0  0  0  0  0  0  0  0  0
   -6.3267    0.4487    0.1021 H   0  0  0  0  0  0  0  0  0  0  0  0
   -4.5060   -0.9639   -0.7957 H   0  0  0  0  0  0  0  0  0  0  0  0
   -4.4836   -0.9642    0.9579 H   0  0  0  0  0  0  0  0  0  0  0  0
    1.1828    2.7253    0.0126 H   0  0  0  0  0  0  0  0  0  0  0  0
   -0.6906   -2.4021    0.0245 H   0  0  0  0  0  0  0  0  0  0  0  0
 10 11  1  0
 11  9  1  0
  9  1  1  0
 16 15  2  0
  1 12  2  0
  1  2  1  0
 15  2  1  0
 15 14  1  0
  2  3  2  0
 14  8  1  0
  3 17  1  0
  3  4  1  0
  8  4  2  0
  8  7  1  0
  4  5  1  0
  7 13  2  0
  5  6  2  0
 13  6  1  0
  5 18  1  0
  6 19  1  0
  7 20  1  0
  9 21  1  0
 10 22  1  0
 10 23  1  0
 10 24  1  0
 11 25  1  0
 11 26  1  0
 14 27  1  0
 17 28  1  0
M  END
