
     RDKit          3D

 35 36  0  0  0  0  0  0  0  0999 V2000
   -3.1920   -1.8816   -1.3424 C   0  0  0  0  0  0  0  0  0  0  0  0
   -4.3146   -2.1731   -0.5830 C   0  0  0  0  0  0  0  0  0  0  0  0
   -4.4558   -1.5934    0.6725 C   0  0  0  0  0  0  0  0  0  0  0  0
   -3.4875   -0.7336    1.1653 C   0  0  0  0  0  0  0  0  0  0  0  0
   -2.3683   -0.4528    0.3917 C   0  0  0  0  0  0  0  0  0  0  0  0
   -2.2110   -1.0200   -0.8644 C   0  0  0  0  0  0  0  0  0  0  0  0
   -1.4610    0.4142    0.9479 O   0  0  0  0  0  0  0  0  0  0  0  0
   -0.3100    0.6795    0.2882 C   0  0  0  0  0  0  0  0  0  0  0  0
   -0.1958    1.7731   -0.5584 C   0  0  0  0  0  0  0  0  0  0  0  0
    1.0141    2.0710   -1.1668 C   0  0  0  0  0  0  0  0  0  0  0  0
    2.1081    1.2569   -0.9372 C   0  0  0  0  0  0  0  0  0  0  0  0
    2.0279    0.1440   -0.1032 C   0  0  0  0  0  0  0  0  0  0  0  0
    0.8069   -0.1194    0.4932 C   0  0  0  0  0  0  0  0  0  0  0  0
   -1.5789    2.7545   -0.8280 Cl  0  0  0  0  0  0  0  0  0  0  0  0
    4.1630    0.0088    1.0649 N   0  0  0  0  0  0  0  0  0  0  0  0
    3.9495   -1.1660   -1.1115 C   0  0  0  0  0  0  0  0  0  0  0  0
    0.6672   -1.1712    1.3002 F   0  0  0  0  0  0  0  0  0  0  0  0
    3.2259   -0.7319    0.1572 C   0  0  2  0  0  0  0  0  0  0  0  0
    2.9363   -1.6181    0.7200 H   0  0  0  0  0  0  0  0  0  0  0  0
    4.9848   -0.5499    1.2992 H   0  0  0  0  0  0  0  0  0  0  0  0
    4.5018    0.8791    0.6525 H   0  0  0  0  0  0  0  0  0  0  0  0
    3.7180    0.2519    1.9505 H   0  0  0  0  0  0  0  0  0  0  0  0
    5.9565   -1.6111   -0.3559 H   0  0  0  0  0  0  0  0  0  0  0  0
    4.8232   -2.9631   -0.2564 H   0  0  0  0  0  0  0  0  0  0  0  0
    5.5062   -2.4791   -1.8046 H   0  0  0  0  0  0  0  0  0  0  0  0
    4.2843   -0.2931   -1.6766 H   0  0  0  0  0  0  0  0  0  0  0  0
    3.2063   -1.6689   -1.7314 H   0  0  0  0  0  0  0  0  0  0  0  0
    3.0433    1.5039   -1.4235 H   0  0  0  0  0  0  0  0  0  0  0  0
    1.0976    2.9270   -1.8209 H   0  0  0  0  0  0  0  0  0  0  0  0
   -3.5962   -0.2828    2.1435 H   0  0  0  0  0  0  0  0  0  0  0  0
   -5.3258   -1.8120    1.2779 H   0  0  0  0  0  0  0  0  0  0  0  0
   -5.0730   -2.8435   -0.9642 H   0  0  0  0  0  0  0  0  0  0  0  0
   -3.0679   -2.3236   -2.3222 H   0  0  0  0  0  0  0  0  0  0  0  0
   -1.3472   -0.8065   -1.4810 H   0  0  0  0  0  0  0  0  0  0  0  0
    5.1222   -2.1036   -0.8576 C   0  0  0  0  0  0  0  0  0  0  0  0
  1  2  2  0
  1  6  1  0
  1 33  1  0
  2  3  1  0
  2 32  1  0
  3  4  2  0
  3 31  1  0
  4  5  1  0
  4 30  1  0
  5  6  2  0
  5  7  1  0
  6 34  1  0
  7  8  1  0
  8  9  2  0
  8 13  1  0
  9 10  1  0
  9 14  1  0
 10 11  2  0
 10 29  1  0
 11 12  1  0
 11 28  1  0
 12 13  2  0
 12 18  1  0
 13 17  1  0
 15 18  1  0
 15 20  1  0
 15 21  1  0
 15 22  1  0
 35 16  1  0
 35 23  1  0
 35 24  1  0
 35 25  1  0
 16 18  1  0
 16 26  1  0
 16 27  1  0
 18 19  1  1
M  CHG  1  15   1
M  END
