
     RDKit          3D

 60 63  0  0  0  0  0  0  0  0999 V2000
    7.8505   -1.2440   -1.8920 O   0  0  0  0  0  0  0  0  0  0  0  0
    6.7881   -1.0447   -1.3322 C   0  0  0  0  0  0  0  0  0  0  0  0
    6.6129    0.0736   -0.5304 N   0  0  0  0  0  0  0  0  0  0  0  0
    5.4890    0.4523    0.1563 C   0  0  0  0  0  0  0  0  0  0  0  0
    4.4265   -0.4185    0.0453 N   0  0  0  0  0  0  0  0  0  0  0  0
    4.5121   -1.5359   -0.7307 C   0  0  0  0  0  0  0  0  0  0  0  0
    5.6183   -1.8846   -1.4086 C   0  0  0  0  0  0  0  0  0  0  0  0
    5.4380    1.4721    0.8115 O   0  0  0  0  0  0  0  0  0  0  0  0
    3.1728   -0.0901    0.7119 C   0  0  0  0  0  0  0  0  0  0  0  0
    2.2919    0.8152   -0.1390 C   0  0  0  0  0  0  0  0  0  0  0  0
    0.9696    1.0420    0.5756 C   0  0  0  0  0  0  0  0  0  0  0  0
   -0.1418    2.0510   -0.3924 S   0  0  1  0  0  0  0  0  0  0  0  0
   -1.5653    1.9843    0.4690 N   0  0  0  0  0  0  0  0  0  0  0  0
   -2.0454    3.2112    1.1303 C   0  0  0  0  0  0  0  0  0  0  0  0
   -3.2744    3.5821    0.3220 C   0  0  0  0  0  0  0  0  0  0  0  0
   -3.9072    2.2224    0.0444 C   0  0  0  0  0  0  0  0  0  0  0  0
   -2.7230    1.2386   -0.0753 C   0  0  2  0  0  0  0  0  0  0  0  0
    0.3709    3.4164   -0.3722 O   0  0  0  0  0  0  0  0  0  0  0  0
   -0.3265    1.4157   -1.6913 O   0  0  0  0  0  0  0  0  0  0  0  0
   -2.9429   -0.0656    0.7327 C   0  0  1  0  0  0  0  0  0  0  0  0
   -3.0557    0.2684    2.0910 O   0  0  0  0  0  0  0  0  0  0  0  0
   -4.2411   -0.7565    0.3340 C   0  0  0  0  0  0  0  0  0  0  0  0
   -4.9559   -1.4894    1.2801 C   0  0  0  0  0  0  0  0  0  0  0  0
   -6.1110   -2.1718    0.9244 C   0  0  0  0  0  0  0  0  0  0  0  0
   -6.5745   -2.1366   -0.3833 C   0  0  0  0  0  0  0  0  0  0  0  0
   -5.8682   -1.4129   -1.3329 C   0  0  0  0  0  0  0  0  0  0  0  0
   -4.7128   -0.7305   -0.9768 C   0  0  0  0  0  0  0  0  0  0  0  0
   -1.8036   -1.0674    0.5197 C   0  0  0  0  0  0  0  0  0  0  0  0
   -1.2021   -1.6979    1.6074 C   0  0  0  0  0  0  0  0  0  0  0  0
   -0.1515   -2.5890    1.4241 C   0  0  0  0  0  0  0  0  0  0  0  0
    0.3123   -2.8729    0.1482 C   0  0  0  0  0  0  0  0  0  0  0  0
   -0.3013   -2.2746   -0.9451 C   0  0  0  0  0  0  0  0  0  0  0  0
   -1.3519   -1.3886   -0.7597 C   0  0  0  0  0  0  0  0  0  0  0  0
    7.4031    0.7011   -0.4435 H   0  0  0  0  0  0  0  0  0  0  0  0
    3.6187   -2.1445   -0.7630 H   0  0  0  0  0  0  0  0  0  0  0  0
    5.6392   -2.7836   -2.0045 H   0  0  0  0  0  0  0  0  0  0  0  0
    2.6603   -1.0302    0.9185 H   0  0  0  0  0  0  0  0  0  0  0  0
    3.3942    0.3688    1.6733 H   0  0  0  0  0  0  0  0  0  0  0  0
    2.7990    1.7631   -0.3230 H   0  0  0  0  0  0  0  0  0  0  0  0
    2.1119    0.3391   -1.1051 H   0  0  0  0  0  0  0  0  0  0  0  0
    0.4575    0.0991    0.7651 H   0  0  0  0  0  0  0  0  0  0  0  0
    1.0984    1.5533    1.5318 H   0  0  0  0  0  0  0  0  0  0  0  0
   -2.3114    2.9773    2.1629 H   0  0  0  0  0  0  0  0  0  0  0  0
   -1.2803    3.9807    1.1570 H   0  0  0  0  0  0  0  0  0  0  0  0
   -3.9428    4.2530    0.8611 H   0  0  0  0  0  0  0  0  0  0  0  0
   -2.9745    4.0740   -0.6059 H   0  0  0  0  0  0  0  0  0  0  0  0
   -4.5590    1.9439    0.8735 H   0  0  0  0  0  0  0  0  0  0  0  0
   -4.5124    2.2182   -0.8604 H   0  0  0  0  0  0  0  0  0  0  0  0
   -2.5432    1.0068   -1.1233 H   0  0  0  0  0  0  0  0  0  0  0  0
   -2.2161    0.6488    2.3771 H   0  0  0  0  0  0  0  0  0  0  0  0
   -4.6139   -1.5394    2.3044 H   0  0  0  0  0  0  0  0  0  0  0  0
   -6.6494   -2.7354    1.6755 H   0  0  0  0  0  0  0  0  0  0  0  0
   -7.4770   -2.6664   -0.6591 H   0  0  0  0  0  0  0  0  0  0  0  0
   -6.2154   -1.3728   -2.3571 H   0  0  0  0  0  0  0  0  0  0  0  0
   -4.1958   -0.1707   -1.7451 H   0  0  0  0  0  0  0  0  0  0  0  0
   -1.5421   -1.4987    2.6145 H   0  0  0  0  0  0  0  0  0  0  0  0
    0.3071   -3.0567    2.2857 H   0  0  0  0  0  0  0  0  0  0  0  0
    1.1337   -3.5636    0.0070 H   0  0  0  0  0  0  0  0  0  0  0  0
    0.0392   -2.4954   -1.9482 H   0  0  0  0  0  0  0  0  0  0  0  0
   -1.8091   -0.9480   -1.6346 H   0  0  0  0  0  0  0  0  0  0  0  0
  1  2  2  0
  2  3  1  0
  2  7  1  0
  3  4  1  0
  4  5  1  0
  4  8  2  0
  5  6  1  0
  5  9  1  0
  6  7  2  0
  9 10  1  0
 10 11  1  0
 12 11  1  1
 12 13  1  0
 12 18  2  0
 12 19  2  0
 13 14  1  0
 13 17  1  0
 14 15  1  0
 15 16  1  0
 16 17  1  0
 17 20  1  0
 20 21  1  1
 20 22  1  0
 20 28  1  0
 22 23  2  0
 22 27  1  0
 23 24  1  0
 24 25  2  0
 25 26  1  0
 26 27  2  0
 28 29  2  0
 28 33  1  0
 29 30  1  0
 30 31  2  0
 31 32  1  0
 32 33  2  0
  3 34  1  0
  6 35  1  0
  7 36  1  0
  9 37  1  0
  9 38  1  0
 10 39  1  0
 10 40  1  0
 11 41  1  0
 11 42  1  0
 14 43  1  0
 14 44  1  0
 15 45  1  0
 15 46  1  0
 16 47  1  0
 16 48  1  0
 17 49  1  6
 21 50  1  0
 23 51  1  0
 24 52  1  0
 25 53  1  0
 26 54  1  0
 27 55  1  0
 29 56  1  0
 30 57  1  0
 31 58  1  0
 32 59  1  0
 33 60  1  0
M  END
