
     RDKit          3D

 44 47  0  0  0  0  0  0  0  0999 V2000
   -7.9678   -0.7129   -1.9673 O   0  0  0  0  0  0  0  0  0  0  0  0
   -6.8435   -1.1012   -1.3773 C   0  0  0  0  0  0  0  0  0  0  0  0
   -6.6715   -2.2072   -0.9346 O   0  0  0  0  0  0  0  0  0  0  0  0
   -5.8302    0.0170   -1.3386 C   0  0  0  0  0  0  0  0  0  0  0  0
   -4.5500   -0.3939   -0.6773 C   0  0  0  0  0  0  0  0  0  0  0  0
   -4.3755   -0.2294    0.6928 C   0  0  0  0  0  0  0  0  0  0  0  0
   -3.1962   -0.6067    1.3147 C   0  0  0  0  0  0  0  0  0  0  0  0
   -3.5144   -0.9540   -1.4170 C   0  0  0  0  0  0  0  0  0  0  0  0
   -2.3372   -1.3533   -0.8047 C   0  0  0  0  0  0  0  0  0  0  0  0
   -2.1759   -1.1775    0.5638 C   0  0  0  0  0  0  0  0  0  0  0  0
   -0.9643   -1.5501    1.1813 N   0  0  0  0  0  0  0  0  0  0  0  0
    0.3299   -1.0938    0.6882 C   0  0  1  0  0  0  0  0  0  0  0  0
    0.3916    0.3980    0.6096 C   0  0  0  0  0  0  0  0  0  0  0  0
    0.3661    1.3516    2.0428 S   0  0  0  0  0  0  0  0  0  0  0  0
    0.4078    2.8087    1.1460 C   0  0  0  0  0  0  0  0  0  0  0  0
    0.4455    2.5532   -0.1880 C   0  0  0  0  0  0  0  0  0  0  0  0
    0.5081    3.8922   -1.4944 Br  0  0  0  0  0  0  0  0  0  0  0  0
    0.4341    1.1689   -0.5083 C   0  0  0  0  0  0  0  0  0  0  0  0
   -0.8565   -2.3190    2.2848 C   0  0  0  0  0  0  0  0  0  0  0  0
   -1.7301   -2.8693    2.9221 O   0  0  0  0  0  0  0  0  0  0  0  0
    0.5981   -2.3759    2.6038 C   0  0  0  0  0  0  0  0  0  0  0  0
    1.0236   -3.0398    3.6491 O   0  0  0  0  0  0  0  0  0  0  0  0
    1.2985   -1.6823    1.6871 C   0  0  0  0  0  0  0  0  0  0  0  0
    2.7408   -1.4338    1.7390 C   0  0  0  0  0  0  0  0  0  0  0  0
    3.3550   -1.5703    2.7816 O   0  0  0  0  0  0  0  0  0  0  0  0
    3.4584   -0.9771    0.5368 C   0  0  0  0  0  0  0  0  0  0  0  0
    3.0248   -1.4017   -1.0796 S   0  0  0  0  0  0  0  0  0  0  0  0
    4.3567   -0.5265   -1.7038 C   0  0  0  0  0  0  0  0  0  0  0  0
    4.6359   -0.4757   -3.3821 Cl  0  0  0  0  0  0  0  0  0  0  0  0
    5.1075    0.0627   -0.7310 C   0  0  0  0  0  0  0  0  0  0  0  0
    4.5930   -0.2112    0.5544 C   0  0  0  0  0  0  0  0  0  0  0  0
   -8.6035   -1.4440   -1.9858 H   0  0  0  0  0  0  0  0  0  0  0  0
   -5.6527    0.3525   -2.3641 H   0  0  0  0  0  0  0  0  0  0  0  0
   -6.2813    0.8683   -0.8210 H   0  0  0  0  0  0  0  0  0  0  0  0
   -5.1646    0.2174    1.2852 H   0  0  0  0  0  0  0  0  0  0  0  0
   -3.0692   -0.4372    2.3753 H   0  0  0  0  0  0  0  0  0  0  0  0
   -3.6247   -1.0891   -2.4860 H   0  0  0  0  0  0  0  0  0  0  0  0
   -1.5515   -1.8057   -1.3959 H   0  0  0  0  0  0  0  0  0  0  0  0
    0.4876   -1.4975   -0.3164 H   0  0  0  0  0  0  0  0  0  0  0  0
    0.4094    3.7642    1.6474 H   0  0  0  0  0  0  0  0  0  0  0  0
    0.4608    0.7743   -1.5141 H   0  0  0  0  0  0  0  0  0  0  0  0
    0.2743   -3.4602    4.1003 H   0  0  0  0  0  0  0  0  0  0  0  0
    5.9862    0.6585   -0.9265 H   0  0  0  0  0  0  0  0  0  0  0  0
    5.0362    0.1603    1.4671 H   0  0  0  0  0  0  0  0  0  0  0  0
  3  2  2  0
  2  1  1  0
  2  4  1  0
  4  5  1  0
  6  5  2  0
  6  7  1  0
  5  8  1  0
  7 10  2  0
  8  9  2  0
 10  9  1  0
 10 11  1  0
 11 12  1  0
 11 19  1  0
 20 19  2  0
 12 23  1  0
 12 13  1  0
 19 21  1  0
 23 21  2  0
 23 24  1  0
 21 22  1  0
 18 13  2  0
 18 16  1  0
 13 14  1  0
 25 24  2  0
 24 26  1  0
 16 17  1  0
 16 15  2  0
 26 27  1  0
 26 31  2  0
 27 28  1  0
 14 15  1  0
 31 30  1  0
 28 30  2  0
 28 29  1  0
  1 32  1  0
  4 33  1  0
  4 34  1  0
  6 35  1  0
  7 36  1  0
  8 37  1  0
  9 38  1  0
 12 39  1  6
 15 40  1  0
 18 41  1  0
 22 42  1  0
 30 43  1  0
 31 44  1  0
M  END
