
     RDKit          3D

 27 29  0  0  0  0  0  0  0  0999 V2000
    1.8075   -1.2133   -0.9116 N   0  0  0  0  0  0  0  0  0  0  0  0
    2.6754   -0.2351   -0.6737 C   0  0  0  0  0  0  0  0  0  0  0  0
    0.2818   -0.1356    0.6444 C   0  0  0  0  0  0  0  0  0  0  0  0
    1.2072    0.8633    0.8620 C   0  0  0  0  0  0  0  0  0  0  0  0
    4.2643    1.1129   -0.5580 C   0  0  0  0  0  0  0  0  0  0  0  0
   -2.1998    0.2311    0.4207 C   0  0  0  0  0  0  0  0  0  0  0  0
   -4.4453   -0.1786   -0.3741 C   0  0  0  0  0  0  0  0  0  0  0  0
   -3.2041    1.6927   -1.2198 C   0  0  0  0  0  0  0  0  0  0  0  0
    1.0095    1.8774    1.6631 O   0  0  0  0  0  0  0  0  0  0  0  0
    2.3791    0.7803    0.1964 N   0  0  0  0  0  0  0  0  0  0  0  0
    3.3956    1.6498    0.2743 N   0  0  0  0  0  0  0  0  0  0  0  0
    3.8851   -0.0260   -1.1598 N   0  0  0  0  0  0  0  0  0  0  0  0
    0.6776   -1.1360   -0.2686 C   0  0  0  0  0  0  0  0  0  0  0  0
   -0.4398   -2.4110   -0.5835 Cl  0  0  0  0  0  0  0  0  0  0  0  0
   -1.0518   -0.1331    1.3332 C   0  0  0  0  0  0  0  0  0  0  0  0
   -2.1297    1.3440   -0.4134 C   0  0  0  0  0  0  0  0  0  0  0  0
   -4.3667    0.9322   -1.2029 C   0  0  0  0  0  0  0  0  0  0  0  0
   -3.3664   -0.5262    0.4281 C   0  0  0  0  0  0  0  0  0  0  0  0
    5.2227    1.5775   -0.7332 H   0  0  0  0  0  0  0  0  0  0  0  0
   -5.3448   -0.7806   -0.3546 H   0  0  0  0  0  0  0  0  0  0  0  0
   -3.1334    2.5610   -1.8623 H   0  0  0  0  0  0  0  0  0  0  0  0
   -1.2348   -1.1139    1.7752 H   0  0  0  0  0  0  0  0  0  0  0  0
   -1.0266    0.5653    2.1717 H   0  0  0  0  0  0  0  0  0  0  0  0
   -1.2313    1.9499   -0.4379 H   0  0  0  0  0  0  0  0  0  0  0  0
   -5.2040    1.2031   -1.8332 H   0  0  0  0  0  0  0  0  0  0  0  0
   -3.4301   -1.3991    1.0670 H   0  0  0  0  0  0  0  0  0  0  0  0
    1.7813    2.4666    1.6922 H   0  0  0  0  0  0  0  0  0  0  0  0
  8 17  1  0
  8 16  2  0
 17  7  2  0
 16  6  1  0
  5 11  2  0
  5 12  1  0
 11 10  1  0
 12  2  2  0
  7 18  1  0
 10  2  1  0
 10  4  1  0
  9  4  1  0
  2  1  1  0
  4  3  2  0
  6 18  2  0
  6 15  1  0
  1 13  2  0
  3 13  1  0
  3 15  1  0
 13 14  1  0
  5 19  1  0
  7 20  1  0
  8 21  1  0
 15 22  1  0
 15 23  1  0
 16 24  1  0
 17 25  1  0
 18 26  1  0
  9 27  1  0
M  END
