
     RDKit          3D

 50 52  0  0  0  0  0  0  0  0999 V2000
   -2.7056   -0.2002   -0.2842 N   0  0  0  0  0  0  0  0  0  0  0  0
   -1.8575   -1.1932    0.3207 C   0  0  1  0  0  0  0  0  0  0  0  0
   -2.0088   -2.5314   -0.4169 C   0  0  0  0  0  0  0  0  0  0  0  0
   -2.1020   -2.6058   -1.6243 O   0  0  0  0  0  0  0  0  0  0  0  0
    1.6819   -0.3319    1.3779 C   0  0  0  0  0  0  0  0  0  0  0  0
    1.5276   -0.0776   -0.9977 C   0  0  0  0  0  0  0  0  0  0  0  0
    0.3478   -0.7047    1.4220 C   0  0  0  0  0  0  0  0  0  0  0  0
    0.1955   -0.4516   -0.9541 C   0  0  0  0  0  0  0  0  0  0  0  0
    4.6348   -0.1772    1.0016 C   0  0  0  0  0  0  0  0  0  0  0  0
    4.1489    1.3332   -0.8078 C   0  0  0  0  0  0  0  0  0  0  0  0
   -7.8438    2.6286    0.1703 C   0  0  0  0  0  0  0  0  0  0  0  0
   -6.9652    2.6199    1.4397 C   0  0  0  0  0  0  0  0  0  0  0  0
   -6.9200    2.1579   -0.9513 C   0  0  0  0  0  0  0  0  0  0  0  0
   -5.7178    1.7835    1.0831 C   0  0  0  0  0  0  0  0  0  0  0  0
   -4.0333   -0.3915   -0.3826 C   0  0  0  0  0  0  0  0  0  0  0  0
    5.9566    0.2094    0.9495 C   0  0  0  0  0  0  0  0  0  0  0  0
    5.4773    1.6980   -0.8404 C   0  0  0  0  0  0  0  0  0  0  0  0
    2.2937   -0.0128    0.1669 C   0  0  0  0  0  0  0  0  0  0  0  0
    3.7135    0.3864    0.1190 C   0  0  0  0  0  0  0  0  0  0  0  0
   -0.4103   -0.7686    0.2595 C   0  0  0  0  0  0  0  0  0  0  0  0
    6.3968    1.1469    0.0330 C   0  0  0  0  0  0  0  0  0  0  0  0
   -6.0406    1.1189   -0.2602 C   0  0  2  0  0  0  0  0  0  0  0  0
    5.9033    2.6083   -1.7164 F   0  0  0  0  0  0  0  0  0  0  0  0
    7.6755    1.5139   -0.0052 F   0  0  0  0  0  0  0  0  0  0  0  0
   -1.9159   -3.5866    0.4084 N   0  0  0  0  0  0  0  0  0  0  0  0
   -4.5610   -1.4069    0.0503 O   0  0  0  0  0  0  0  0  0  0  0  0
   -2.1068   -4.8432   -0.0803 O   0  0  0  0  0  0  0  0  0  0  0  0
   -2.2925    0.6521   -0.6264 H   0  0  0  0  0  0  0  0  0  0  0  0
   -2.1327   -1.3254    1.3725 H   0  0  0  0  0  0  0  0  0  0  0  0
    2.2396   -0.2656    2.3035 H   0  0  0  0  0  0  0  0  0  0  0  0
    1.9761    0.1422   -1.9581 H   0  0  0  0  0  0  0  0  0  0  0  0
   -0.1064   -0.9350    2.3778 H   0  0  0  0  0  0  0  0  0  0  0  0
   -0.3650   -0.5103   -1.8785 H   0  0  0  0  0  0  0  0  0  0  0  0
    4.3388   -0.9306    1.7197 H   0  0  0  0  0  0  0  0  0  0  0  0
    3.4601    1.8103   -1.4923 H   0  0  0  0  0  0  0  0  0  0  0  0
   -8.2878    3.6051   -0.0272 H   0  0  0  0  0  0  0  0  0  0  0  0
   -6.6802    3.6320    1.7292 H   0  0  0  0  0  0  0  0  0  0  0  0
   -7.5052    2.1962    2.2872 H   0  0  0  0  0  0  0  0  0  0  0  0
   -7.4581    1.7537   -1.8112 H   0  0  0  0  0  0  0  0  0  0  0  0
   -6.3031    2.9877   -1.3129 H   0  0  0  0  0  0  0  0  0  0  0  0
   -4.8481    2.4366    0.9626 H   0  0  0  0  0  0  0  0  0  0  0  0
   -5.4642    1.0556    1.8557 H   0  0  0  0  0  0  0  0  0  0  0  0
   -6.6514    0.2283   -0.0767 H   0  0  0  0  0  0  0  0  0  0  0  0
   -2.0453   -3.5012    1.4064 H   0  0  0  0  0  0  0  0  0  0  0  0
   -1.2255   -5.2070   -0.2348 H   0  0  0  0  0  0  0  0  0  0  0  0
    6.8474   -0.3251    1.7854 F   0  0  0  0  0  0  0  0  0  0  0  0
   -4.8138    0.7085   -1.0610 C   0  0  0  0  0  0  0  0  0  0  0  0
   -8.6683    1.9204    0.2804 H   0  0  0  0  0  0  0  0  0  0  0  0
   -4.1811    1.5810   -1.2471 H   0  0  0  0  0  0  0  0  0  0  0  0
   -5.1190    0.3275   -2.0411 H   0  0  0  0  0  0  0  0  0  0  0  0
 11 12  1  0
 11 13  1  0
 12 14  1  0
 13 22  1  0
 14 22  1  0
 27 25  1  0
 22 47  1  0
 25  3  1  0
  4  3  2  0
  3  2  1  0
 47 15  1  0
 15  1  1  0
 15 26  2  0
  1  2  1  0
  2 20  1  0
 20  7  1  0
 20  8  2  0
  7  5  2  0
  8  6  1  0
  5 18  1  0
  6 18  2  0
 18 19  1  0
 19 10  1  0
 19  9  2  0
 10 17  2  0
  9 16  1  0
 17 23  1  0
 17 21  1  0
 16 21  2  0
 16 46  1  0
 21 24  1  0
  1 28  1  0
  2 29  1  1
  5 30  1  0
  6 31  1  0
  7 32  1  0
  8 33  1  0
  9 34  1  0
 10 35  1  0
 11 48  1  0
 11 36  1  0
 12 37  1  0
 12 38  1  0
 13 39  1  0
 13 40  1  0
 14 41  1  0
 14 42  1  0
 47 49  1  0
 47 50  1  0
 22 43  1  1
 25 44  1  0
 27 45  1  0
M  END
