
     RDKit          3D

 65 69  0  0  0  0  0  0  0  0999 V2000
   -4.6061   -1.6738   -0.0898 C   0  0  0  0  0  0  0  0  0  0  0  0
   -5.5283   -2.3927   -1.0621 C   0  0  0  0  0  0  0  0  0  0  0  0
   -6.8013   -2.7174   -0.4481 N   0  0  0  0  0  0  0  0  0  0  0  0
   -7.6382   -3.4813   -1.3432 C   0  0  0  0  0  0  0  0  0  0  0  0
   -7.4777   -1.5254    0.0241 C   0  0  0  0  0  0  0  0  0  0  0  0
   -6.6317   -0.7794    1.0433 C   0  0  0  0  0  0  0  0  0  0  0  0
   -5.2692   -0.4162    0.4617 C   0  0  1  0  0  0  0  0  0  0  0  0
   -4.4224    0.2940    1.5138 C   0  0  0  0  0  0  0  0  0  0  0  0
   -3.1651    0.7815    0.9927 N   0  0  0  0  0  0  0  0  0  0  0  0
   -2.0425    0.0523    1.0660 N   0  0  0  0  0  0  0  0  0  0  0  0
   -2.9621    1.9245    0.3142 C   0  0  0  0  0  0  0  0  0  0  0  0
   -3.8683    2.8719    0.0556 N   0  0  0  0  0  0  0  0  0  0  0  0
   -3.3600    3.8630   -0.6461 C   0  0  0  0  0  0  0  0  0  0  0  0
   -2.1238    3.9901   -1.1261 N   0  0  0  0  0  0  0  0  0  0  0  0
   -1.2307    3.0286   -0.8795 C   0  0  0  0  0  0  0  0  0  0  0  0
   -0.0125    3.1613   -1.4094 N   0  0  0  0  0  0  0  0  0  0  0  0
   -1.6204    1.9314   -0.0753 C   0  0  0  0  0  0  0  0  0  0  0  0
   -1.0934    0.7157    0.4454 C   0  0  0  0  0  0  0  0  0  0  0  0
    0.2662    0.1742    0.3711 C   0  0  0  0  0  0  0  0  0  0  0  0
    1.3626    0.9786    0.5606 C   0  0  0  0  0  0  0  0  0  0  0  0
    0.4626   -1.2091    0.1223 C   0  0  0  0  0  0  0  0  0  0  0  0
    1.7185   -1.7362    0.0424 C   0  0  0  0  0  0  0  0  0  0  0  0
    2.8658   -0.9187    0.2081 C   0  0  0  0  0  0  0  0  0  0  0  0
    4.1711   -1.4338    0.1113 C   0  0  0  0  0  0  0  0  0  0  0  0
    2.6741    0.4605    0.4783 C   0  0  0  0  0  0  0  0  0  0  0  0
    3.8128    1.2739    0.6550 C   0  0  0  0  0  0  0  0  0  0  0  0
    5.0776    0.7601    0.5588 C   0  0  0  0  0  0  0  0  0  0  0  0
    5.2663   -0.6149    0.2786 C   0  0  0  0  0  0  0  0  0  0  0  0
    6.4774   -1.1852    0.1656 O   0  0  0  0  0  0  0  0  0  0  0  0
    7.6442   -0.3887    0.3009 C   0  0  0  0  0  0  0  0  0  0  0  0
    8.8662   -1.2618    0.0764 C   0  0  1  0  0  0  0  0  0  0  0  0
    8.8748   -1.8846   -1.3156 C   0  0  0  0  0  0  0  0  0  0  0  0
   10.1177   -0.4202    0.3065 C   0  0  0  0  0  0  0  0  0  0  0  0
   -4.3576   -2.3460    0.7382 H   0  0  0  0  0  0  0  0  0  0  0  0
   -3.6702   -1.4355   -0.5993 H   0  0  0  0  0  0  0  0  0  0  0  0
   -5.6642   -1.7668   -1.9639 H   0  0  0  0  0  0  0  0  0  0  0  0
   -5.0569   -3.3201   -1.3980 H   0  0  0  0  0  0  0  0  0  0  0  0
   -7.1344   -4.4059   -1.6298 H   0  0  0  0  0  0  0  0  0  0  0  0
   -8.5723   -3.7489   -0.8467 H   0  0  0  0  0  0  0  0  0  0  0  0
   -7.8949   -2.9411   -2.2686 H   0  0  0  0  0  0  0  0  0  0  0  0
   -7.7250   -0.8452   -0.8121 H   0  0  0  0  0  0  0  0  0  0  0  0
   -8.4275   -1.8190    0.4783 H   0  0  0  0  0  0  0  0  0  0  0  0
   -7.1625    0.1198    1.3667 H   0  0  0  0  0  0  0  0  0  0  0  0
   -6.4976   -1.4091    1.9294 H   0  0  0  0  0  0  0  0  0  0  0  0
   -5.4302    0.2871   -0.3652 H   0  0  0  0  0  0  0  0  0  0  0  0
   -4.9673    1.1502    1.9142 H   0  0  0  0  0  0  0  0  0  0  0  0
   -4.1944   -0.3720    2.3470 H   0  0  0  0  0  0  0  0  0  0  0  0
   -4.0342    4.6810   -0.8790 H   0  0  0  0  0  0  0  0  0  0  0  0
    0.1569    3.9162   -2.0533 H   0  0  0  0  0  0  0  0  0  0  0  0
    0.6398    2.3971   -1.4145 H   0  0  0  0  0  0  0  0  0  0  0  0
    1.2370    2.0286    0.8016 H   0  0  0  0  0  0  0  0  0  0  0  0
   -0.4010   -1.8463   -0.0178 H   0  0  0  0  0  0  0  0  0  0  0  0
    1.8497   -2.7930   -0.1563 H   0  0  0  0  0  0  0  0  0  0  0  0
    4.3166   -2.4872   -0.0980 H   0  0  0  0  0  0  0  0  0  0  0  0
    3.6818    2.3285    0.8652 H   0  0  0  0  0  0  0  0  0  0  0  0
    5.9219    1.4207    0.6982 H   0  0  0  0  0  0  0  0  0  0  0  0
    7.6350    0.4307   -0.4298 H   0  0  0  0  0  0  0  0  0  0  0  0
    7.6810    0.0595    1.3008 H   0  0  0  0  0  0  0  0  0  0  0  0
    8.8512   -2.0642    0.8222 H   0  0  0  0  0  0  0  0  0  0  0  0
    8.8714   -1.1110   -2.0875 H   0  0  0  0  0  0  0  0  0  0  0  0
    9.7705   -2.4908   -1.4591 H   0  0  0  0  0  0  0  0  0  0  0  0
    8.0118   -2.5289   -1.4825 H   0  0  0  0  0  0  0  0  0  0  0  0
   10.1293    0.0238    1.3034 H   0  0  0  0  0  0  0  0  0  0  0  0
   11.0169   -1.0286    0.2066 H   0  0  0  0  0  0  0  0  0  0  0  0
   10.1854    0.3918   -0.4213 H   0  0  0  0  0  0  0  0  0  0  0  0
  5  6  1  0
  5  3  1  0
  6  7  1  0
  4  3  1  0
  3  2  1  0
  7  8  1  0
  7  1  1  0
  2  1  1  0
  8  9  1  0
 12 13  1  0
 12 11  2  0
 13 14  2  0
  9 11  1  0
  9 10  1  0
 11 17  1  0
 21 22  2  0
 21 19  1  0
 10 18  2  0
 14 15  1  0
 17 15  2  0
 17 18  1  0
 15 16  1  0
 18 19  1  0
 22 23  1  0
 19 20  2  0
 23 24  1  0
 23 25  2  0
 24 28  2  0
 33 31  1  0
 20 25  1  0
 25 26  1  0
 30 31  1  0
 30 29  1  0
 31 32  1  0
 28 29  1  0
 28 27  1  0
 26 27  2  0
  1 34  1  0
  1 35  1  0
  2 36  1  0
  2 37  1  0
  4 38  1  0
  4 39  1  0
  4 40  1  0
  5 41  1  0
  5 42  1  0
  6 43  1  0
  6 44  1  0
  7 45  1  6
  8 46  1  0
  8 47  1  0
 13 48  1  0
 16 49  1  0
 16 50  1  0
 20 51  1  0
 21 52  1  0
 22 53  1  0
 24 54  1  0
 26 55  1  0
 27 56  1  0
 30 57  1  0
 30 58  1  0
 31 59  1  1
 32 60  1  0
 32 61  1  0
 32 62  1  0
 33 63  1  0
 33 64  1  0
 33 65  1  0
M  END
