
     RDKit          3D

 17 17  0  0  0  0  0  0  0  0999 V2000
    2.8447   -0.6822   -0.0051 O   0  0  0  0  0  0  0  0  0  0  0  0
    2.1056    0.2842   -0.0026 C   0  0  0  0  0  0  0  0  0  0  0  0
    2.5874    1.5235    0.0052 O   0  0  0  0  0  0  0  0  0  0  0  0
    0.6416    0.2237   -0.0063 C   0  0  0  0  0  0  0  0  0  0  0  0
   -0.1128    1.4060    0.0079 C   0  0  0  0  0  0  0  0  0  0  0  0
   -1.4885    1.4087    0.0111 C   0  0  0  0  0  0  0  0  0  0  0  0
   -2.1213    0.1708    0.0009 C   0  0  0  0  0  0  0  0  0  0  0  0
   -3.4597    0.1403    0.0051 F   0  0  0  0  0  0  0  0  0  0  0  0
   -1.4448   -1.0185   -0.0130 C   0  0  0  0  0  0  0  0  0  0  0  0
   -0.0344   -1.0277   -0.0193 C   0  0  0  0  0  0  0  0  0  0  0  0
    0.5971   -2.2129   -0.0478 N   0  0  0  0  0  0  0  0  0  0  0  0
    3.5551    1.4907    0.0102 H   0  0  0  0  0  0  0  0  0  0  0  0
    0.3980    2.3585    0.0182 H   0  0  0  0  0  0  0  0  0  0  0  0
   -2.0555    2.3287    0.0226 H   0  0  0  0  0  0  0  0  0  0  0  0
   -1.9906   -1.9540   -0.0207 H   0  0  0  0  0  0  0  0  0  0  0  0
    0.0703   -3.0665    0.0071 H   0  0  0  0  0  0  0  0  0  0  0  0
    1.5992   -2.2620    0.0010 H   0  0  0  0  0  0  0  0  0  0  0  0
  8  7  1  0
  7  6  2  0
  7  9  1  0
  6  5  1  0
  9 10  2  0
  5  4  2  0
 10  4  1  0
 10 11  1  0
  4  2  1  0
  2  1  2  0
  2  3  1  0
  3 12  1  0
  5 13  1  0
  6 14  1  0
  9 15  1  0
 11 16  1  0
 11 17  1  0
M  END
