
     RDKit          3D

 68 70  0  0  0  0  0  0  0  0999 V2000
   -2.7047   -4.0707   -0.9783 O   0  0  0  0  0  0  0  0  0  0  0  0
   -2.9218   -3.6026    0.1260 C   0  0  0  0  0  0  0  0  0  0  0  0
   -4.1186   -4.0020    0.9491 C   0  0  0  0  0  0  0  0  0  0  0  0
   -2.1321   -2.6582    0.6927 N   0  0  0  0  0  0  0  0  0  0  0  0
   -0.9904   -2.0968    0.0576 C   0  0  1  0  0  0  0  0  0  0  0  0
   -0.8680   -0.6065    0.3806 C   0  0  2  0  0  0  0  0  0  0  0  0
   -2.0164    0.1308   -0.0863 N   0  0  0  0  0  0  0  0  0  0  0  0
   -3.0431    0.5002    0.7123 C   0  0  0  0  0  0  0  0  0  0  0  0
   -4.1601    1.2179    0.0257 C   0  0  0  0  0  0  0  0  0  0  0  0
   -3.9618    1.9726   -1.1317 C   0  0  0  0  0  0  0  0  0  0  0  0
   -5.0406    2.6169   -1.7110 C   0  0  0  0  0  0  0  0  0  0  0  0
   -6.3147    2.5198   -1.1656 C   0  0  0  0  0  0  0  0  0  0  0  0
   -6.5100    1.7715   -0.0064 C   0  0  0  0  0  0  0  0  0  0  0  0
   -7.6976    1.6125    0.6032 O   0  0  0  0  0  0  0  0  0  0  0  0
   -8.8370    2.2264    0.0321 C   0  0  0  0  0  0  0  0  0  0  0  0
   -5.4239    1.1318    0.5901 C   0  0  0  0  0  0  0  0  0  0  0  0
   -3.0700    0.2727    1.9116 O   0  0  0  0  0  0  0  0  0  0  0  0
    0.1647   -2.7576    0.5120 O   0  0  0  0  0  0  0  0  0  0  0  0
    1.3358   -2.3548   -0.1642 C   0  0  2  0  0  0  0  0  0  0  0  0
    2.4668   -3.2396    0.3173 C   0  0  0  0  0  0  0  0  0  0  0  0
    2.1891   -4.5666   -0.0576 O   0  0  0  0  0  0  0  0  0  0  0  0
    1.6198   -0.8691    0.1032 C   0  0  2  0  0  0  0  0  0  0  0  0
    0.3999   -0.0261   -0.2549 C   0  0  2  0  0  0  0  0  0  0  0  0
    0.6063    1.2938    0.1682 O   0  0  0  0  0  0  0  0  0  0  0  0
    2.7168   -0.4815   -0.7044 O   0  0  0  0  0  0  0  0  0  0  0  0
    3.8142    0.0609   -0.0662 C   0  0  1  0  0  0  0  0  0  0  0  0
    5.0170   -0.0066   -1.0058 C   0  0  2  0  0  0  0  0  0  0  0  0
    5.4020   -1.3342   -1.2726 O   0  0  0  0  0  0  0  0  0  0  0  0
    6.2011    0.6899   -0.3387 C   0  0  1  0  0  0  0  0  0  0  0  0
    7.3134    0.7689   -1.1946 O   0  0  0  0  0  0  0  0  0  0  0  0
    5.8288    2.1133    0.0806 C   0  0  1  0  0  0  0  0  0  0  0  0
    5.5824    2.9345   -1.0329 O   0  0  0  0  0  0  0  0  0  0  0  0
    4.5727    2.0437    0.9372 C   0  0  2  0  0  0  0  0  0  0  0  0
    3.5339    1.3953    0.2343 O   0  0  0  0  0  0  0  0  0  0  0  0
    4.0108    3.3897    1.3632 C   0  0  0  0  0  0  0  0  0  0  0  0
    2.8630    3.2336    2.1644 O   0  0  0  0  0  0  0  0  0  0  0  0
   -4.2648   -5.0787    0.8881 H   0  0  0  0  0  0  0  0  0  0  0  0
   -4.0418   -3.7162    1.9965 H   0  0  0  0  0  0  0  0  0  0  0  0
   -5.0085   -3.5264    0.5337 H   0  0  0  0  0  0  0  0  0  0  0  0
   -2.3611   -2.3324    1.6192 H   0  0  0  0  0  0  0  0  0  0  0  0
   -1.0973   -2.2289   -1.0273 H   0  0  0  0  0  0  0  0  0  0  0  0
   -0.7998   -0.4866    1.4648 H   0  0  0  0  0  0  0  0  0  0  0  0
   -2.1569    0.1686   -1.0852 H   0  0  0  0  0  0  0  0  0  0  0  0
   -2.9789    2.0889   -1.5693 H   0  0  0  0  0  0  0  0  0  0  0  0
   -4.8950    3.2125   -2.6023 H   0  0  0  0  0  0  0  0  0  0  0  0
   -7.1328    3.0335   -1.6514 H   0  0  0  0  0  0  0  0  0  0  0  0
   -9.6797    1.9620    0.6656 H   0  0  0  0  0  0  0  0  0  0  0  0
   -8.7438    3.3151    0.0056 H   0  0  0  0  0  0  0  0  0  0  0  0
   -9.0298    1.8638   -0.9807 H   0  0  0  0  0  0  0  0  0  0  0  0
   -5.5810    0.5551    1.4927 H   0  0  0  0  0  0  0  0  0  0  0  0
    1.2075   -2.4910   -1.2508 H   0  0  0  0  0  0  0  0  0  0  0  0
    3.4045   -2.8861   -0.1230 H   0  0  0  0  0  0  0  0  0  0  0  0
    2.5603   -3.1320    1.4072 H   0  0  0  0  0  0  0  0  0  0  0  0
    2.9251   -5.1147    0.2286 H   0  0  0  0  0  0  0  0  0  0  0  0
    1.8476   -0.7339    1.1702 H   0  0  0  0  0  0  0  0  0  0  0  0
    0.2824   -0.0751   -1.3504 H   0  0  0  0  0  0  0  0  0  0  0  0
   -0.1370    1.8265   -0.1340 H   0  0  0  0  0  0  0  0  0  0  0  0
    4.0489   -0.4904    0.8650 H   0  0  0  0  0  0  0  0  0  0  0  0
    4.7606    0.5284   -1.9299 H   0  0  0  0  0  0  0  0  0  0  0  0
    4.8334   -1.6895   -1.9625 H   0  0  0  0  0  0  0  0  0  0  0  0
    6.4528    0.1301    0.5768 H   0  0  0  0  0  0  0  0  0  0  0  0
    7.4653   -0.1016   -1.5784 H   0  0  0  0  0  0  0  0  0  0  0  0
    6.6434    2.5159    0.7013 H   0  0  0  0  0  0  0  0  0  0  0  0
    6.3469    2.8803   -1.6162 H   0  0  0  0  0  0  0  0  0  0  0  0
    4.8302    1.4732    1.8445 H   0  0  0  0  0  0  0  0  0  0  0  0
    4.7578    3.9164    1.9602 H   0  0  0  0  0  0  0  0  0  0  0  0
    3.8036    4.0049    0.4800 H   0  0  0  0  0  0  0  0  0  0  0  0
    2.2287    2.7040    1.6665 H   0  0  0  0  0  0  0  0  0  0  0  0
 21 20  1  0
 20 19  1  0
 18 19  1  0
 18  5  1  0
  1  2  2  0
 28 27  1  0
 19 22  1  0
  3  2  1  0
  2  4  1  0
 29 30  1  0
 29 27  1  0
 29 31  1  0
  4  5  1  0
 26 27  1  0
 26 25  1  0
 26 34  1  0
  5  6  1  0
 22 25  1  0
 22 23  1  0
 33 31  1  0
 33 34  1  0
 33 35  1  0
 31 32  1  0
 36 35  1  0
  6 23  1  0
  6  7  1  0
 23 24  1  0
 17  8  2  0
  7  8  1  0
  8  9  1  0
  9 10  2  0
  9 16  1  0
 10 11  1  0
 16 13  2  0
 11 12  2  0
 13 12  1  0
 13 14  1  0
 15 14  1  0
  3 37  1  0
  3 38  1  0
  3 39  1  0
  4 40  1  0
  5 41  1  6
  6 42  1  1
  7 43  1  0
 10 44  1  0
 11 45  1  0
 12 46  1  0
 15 47  1  0
 15 48  1  0
 15 49  1  0
 16 50  1  0
 19 51  1  6
 20 52  1  0
 20 53  1  0
 21 54  1  0
 22 55  1  1
 23 56  1  6
 24 57  1  0
 26 58  1  1
 27 59  1  6
 28 60  1  0
 29 61  1  1
 30 62  1  0
 31 63  1  1
 32 64  1  0
 33 65  1  1
 35 66  1  0
 35 67  1  0
 36 68  1  0
M  END
