
     RDKit          3D

 23 22  0  0  0  0  0  0  0  0999 V2000
    4.1981   -0.5565    0.3253 O   0  0  0  0  0  0  0  0  0  0  0  0
    3.1740    0.2253   -0.0014 C   0  0  0  0  0  0  0  0  0  0  0  0
    3.3048    1.3787   -0.3276 O   0  0  0  0  0  0  0  0  0  0  0  0
    1.8669   -0.5121    0.0844 C   0  0  0  0  0  0  0  0  0  0  0  0
    0.6732    0.3732   -0.2193 C   0  0  0  0  0  0  0  0  0  0  0  0
   -0.6260   -0.4073   -0.2253 C   0  0  0  0  0  0  0  0  0  0  0  0
   -0.6823   -1.5954   -0.4890 O   0  0  0  0  0  0  0  0  0  0  0  0
   -1.7047    0.3492    0.0622 N   0  0  0  0  0  0  0  0  0  0  0  0
   -2.9871   -0.1558   -0.0101 N   0  0  0  0  0  0  0  0  0  0  0  0
   -3.6823    0.0096    1.2521 C   0  0  0  0  0  0  0  0  0  0  0  0
   -3.7125    0.4134   -1.1312 C   0  0  0  0  0  0  0  0  0  0  0  0
    5.0275   -0.0605    0.2565 H   0  0  0  0  0  0  0  0  0  0  0  0
    1.9090   -1.3565   -0.6080 H   0  0  0  0  0  0  0  0  0  0  0  0
    1.7838   -0.9518    1.0821 H   0  0  0  0  0  0  0  0  0  0  0  0
    0.6163    1.2001    0.4915 H   0  0  0  0  0  0  0  0  0  0  0  0
    0.7825    0.8287   -1.2079 H   0  0  0  0  0  0  0  0  0  0  0  0
   -1.5853    1.3425    0.2316 H   0  0  0  0  0  0  0  0  0  0  0  0
   -3.8291    1.0625    1.5314 H   0  0  0  0  0  0  0  0  0  0  0  0
   -4.6641   -0.4577    1.1795 H   0  0  0  0  0  0  0  0  0  0  0  0
   -3.1282   -0.4860    2.0477 H   0  0  0  0  0  0  0  0  0  0  0  0
   -3.1829    0.2027   -2.0592 H   0  0  0  0  0  0  0  0  0  0  0  0
   -4.6970   -0.0498   -1.1901 H   0  0  0  0  0  0  0  0  0  0  0  0
   -3.8536    1.4999   -1.0474 H   0  0  0  0  0  0  0  0  0  0  0  0
  1  2  1  0
  2  3  2  0
  2  4  1  0
  4  5  1  0
  5  6  1  0
  6  7  2  0
  6  8  1  0
  8  9  1  0
  9 10  1  0
  9 11  1  0
  1 12  1  0
  4 13  1  0
  4 14  1  0
  5 15  1  0
  5 16  1  0
  8 17  1  0
 10 18  1  0
 10 19  1  0
 10 20  1  0
 11 21  1  0
 11 22  1  0
 11 23  1  0
M  END
