
     RDKit          3D

 29 30  0  0  0  0  0  0  0  0999 V2000
   -2.5073    1.3434   -0.6115 C   0  0  0  0  0  0  0  0  0  0  0  0
   -1.9719   -1.3650   -0.8522 C   0  0  0  0  0  0  0  0  0  0  0  0
    3.5974    0.1864   -1.6320 N   0  0  0  0  0  0  0  0  0  0  0  0
    2.4196    0.3389   -1.0179 C   0  0  0  0  0  0  0  0  0  0  0  0
    1.3881    0.6540   -1.5868 O   0  0  0  0  0  0  0  0  0  0  0  0
    2.4784    0.1158    0.4892 C   0  0  0  0  0  0  0  0  0  0  0  0
    1.1967   -0.0632    1.1304 N   0  0  0  0  0  0  0  0  0  0  0  0
    0.4728    1.0502    1.7278 C   0  0  0  0  0  0  0  0  0  0  0  0
   -0.4305    1.7766    0.7330 C   0  0  2  0  0  0  0  0  0  0  0  0
   -1.2041    2.7355    1.4124 O   0  0  0  0  0  0  0  0  0  0  0  0
   -1.3641    0.8354    0.0015 C   0  0  0  0  0  0  0  0  0  0  0  0
   -3.3625    0.5234   -1.3309 C   0  0  0  0  0  0  0  0  0  0  0  0
   -3.0968   -0.8334   -1.4577 C   0  0  0  0  0  0  0  0  0  0  0  0
   -1.1210   -0.5303   -0.1382 C   0  0  0  0  0  0  0  0  0  0  0  0
    0.2367   -1.3153    0.6844 S   0  0  2  0  0  0  0  0  0  0  0  0
   -0.3225   -1.9394    1.8742 O   0  0  0  0  0  0  0  0  0  0  0  0
    0.9921   -2.1548   -0.2328 O   0  0  0  0  0  0  0  0  0  0  0  0
   -2.7309    2.3982   -0.5287 H   0  0  0  0  0  0  0  0  0  0  0  0
   -1.7572   -2.4220   -0.9471 H   0  0  0  0  0  0  0  0  0  0  0  0
    3.6879    0.3657   -2.6187 H   0  0  0  0  0  0  0  0  0  0  0  0
    4.4273   -0.0882   -1.1349 H   0  0  0  0  0  0  0  0  0  0  0  0
    3.1418   -0.7183    0.7227 H   0  0  0  0  0  0  0  0  0  0  0  0
    2.9364    0.9966    0.9444 H   0  0  0  0  0  0  0  0  0  0  0  0
   -0.1265    0.6833    2.5651 H   0  0  0  0  0  0  0  0  0  0  0  0
    1.2063    1.7386    2.1492 H   0  0  0  0  0  0  0  0  0  0  0  0
    0.1977    2.2534   -0.0276 H   0  0  0  0  0  0  0  0  0  0  0  0
   -0.6722    3.5296    1.5210 H   0  0  0  0  0  0  0  0  0  0  0  0
   -4.2420    0.9477   -1.7965 H   0  0  0  0  0  0  0  0  0  0  0  0
   -3.7598   -1.4741   -2.0228 H   0  0  0  0  0  0  0  0  0  0  0  0
  8  9  1  0
  8  7  1  0
  9 10  1  0
  9 11  1  0
  6  7  1  0
  6  4  1  0
 15  7  1  1
 11  1  2  0
 11 14  1  0
  1 12  1  0
 17 15  2  0
  4  3  1  0
  4  5  2  0
 15 14  1  0
 15 16  2  0
 14  2  2  0
 12 13  2  0
  2 13  1  0
  1 18  1  0
  2 19  1  0
  3 20  1  0
  3 21  1  0
  6 22  1  0
  6 23  1  0
  8 24  1  0
  8 25  1  0
  9 26  1  6
 10 27  1  0
 12 28  1  0
 13 29  1  0
M  END
