
     RDKit          3D

 33 34  0  0  0  0  0  0  0  0999 V2000
    4.5044    1.2932   -0.6681 C   0  0  0  0  0  0  0  0  0  0  0  0
    4.3064   -1.1763   -1.0595 C   0  0  0  0  0  0  0  0  0  0  0  0
   -3.9607   -1.3158   -0.7074 C   0  0  0  0  0  0  0  0  0  0  0  0
   -3.6196    1.0046   -1.2353 C   0  0  0  0  0  0  0  0  0  0  0  0
   -3.0421   -1.2121    0.3297 C   0  0  0  0  0  0  0  0  0  0  0  0
   -2.7049    1.1069   -0.1982 C   0  0  0  0  0  0  0  0  0  0  0  0
    1.9243    1.2680    0.4649 C   0  0  0  0  0  0  0  0  0  0  0  0
    1.7563   -1.1100    0.1368 C   0  0  0  0  0  0  0  0  0  0  0  0
    0.6824    1.2365    1.0201 C   0  0  0  0  0  0  0  0  0  0  0  0
    0.5221   -1.0592    0.7031 C   0  0  0  0  0  0  0  0  0  0  0  0
   -1.3852    0.0991    1.6871 C   0  0  0  0  0  0  0  0  0  0  0  0
   -4.2480   -0.2084   -1.4924 C   0  0  0  0  0  0  0  0  0  0  0  0
   -2.4066   -0.0027    0.5886 C   0  0  0  0  0  0  0  0  0  0  0  0
    2.5259    0.0748   -0.0137 C   0  0  0  0  0  0  0  0  0  0  0  0
    3.7350    0.0651   -0.5662 N   0  0  0  0  0  0  0  0  0  0  0  0
   -0.0174    0.0936    1.1456 N   0  0  0  0  0  0  0  0  0  0  0  0
    4.0003    2.0311   -1.2939 H   0  0  0  0  0  0  0  0  0  0  0  0
    4.6842    1.7314    0.3145 H   0  0  0  0  0  0  0  0  0  0  0  0
    5.4668    1.0730   -1.1175 H   0  0  0  0  0  0  0  0  0  0  0  0
    4.4831   -1.8871   -0.2504 H   0  0  0  0  0  0  0  0  0  0  0  0
    3.6568   -1.6430   -1.8002 H   0  0  0  0  0  0  0  0  0  0  0  0
    5.2573   -0.9646   -1.5360 H   0  0  0  0  0  0  0  0  0  0  0  0
   -3.8467    1.8727   -1.8403 H   0  0  0  0  0  0  0  0  0  0  0  0
   -2.8242   -2.0787    0.9430 H   0  0  0  0  0  0  0  0  0  0  0  0
   -2.2265    2.0588    0.0011 H   0  0  0  0  0  0  0  0  0  0  0  0
    2.4212    2.2234    0.4027 H   0  0  0  0  0  0  0  0  0  0  0  0
    2.1217   -2.0737   -0.1810 H   0  0  0  0  0  0  0  0  0  0  0  0
    0.2107    2.1365    1.3863 H   0  0  0  0  0  0  0  0  0  0  0  0
   -0.0741   -1.9518    0.8258 H   0  0  0  0  0  0  0  0  0  0  0  0
   -1.5007    1.0175    2.2604 H   0  0  0  0  0  0  0  0  0  0  0  0
   -1.4718   -0.7314    2.3863 H   0  0  0  0  0  0  0  0  0  0  0  0
   -4.9637   -0.2865   -2.3002 H   0  0  0  0  0  0  0  0  0  0  0  0
   -4.4527   -2.2606   -0.8976 H   0  0  0  0  0  0  0  0  0  0  0  0
  1 15  1  0
  2 15  1  0
  3  5  2  0
  3 12  1  0
  4  6  1  0
  4 12  2  0
  5 13  1  0
  6 13  2  0
  7  9  2  0
  7 14  1  0
  8 10  1  0
  8 14  2  0
  9 16  1  0
 10 16  2  0
 11 13  1  0
 11 16  1  0
 14 15  1  0
  1 17  1  0
  1 18  1  0
  1 19  1  0
  2 20  1  0
  2 21  1  0
  2 22  1  0
  3 33  1  0
  4 23  1  0
  5 24  1  0
  6 25  1  0
  7 26  1  0
  8 27  1  0
  9 28  1  0
 10 29  1  0
 11 30  1  0
 11 31  1  0
 12 32  1  0
M  CHG  1  16   1
M  END
