
     RDKit          3D

 23 23  0  0  0  0  0  0  0  0999 V2000
    0.3069   -0.1124   -2.6917 O   0  0  0  0  0  0  0  0  0  0  0  0
   -0.9300    0.3838   -2.2297 C   0  0  0  0  0  0  0  0  0  0  0  0
   -1.2600   -0.1430   -0.8463 C   0  0  0  0  0  0  0  0  0  0  0  0
   -0.2058    0.2017    0.0906 N   0  0  0  0  0  0  0  0  0  0  0  0
    1.0643   -0.3060   -0.3967 C   0  0  0  0  0  0  0  0  0  0  0  0
    1.3412    0.2199   -1.7924 C   0  0  0  0  0  0  0  0  0  0  0  0
   -0.5155   -0.2567    1.4310 C   0  0  0  0  0  0  0  0  0  0  0  0
    0.3742    0.3657    2.4984 C   0  0  0  0  0  0  0  0  0  0  0  0
   -0.0433   -0.0935    3.8147 N   0  0  0  0  0  0  0  0  0  0  0  0
   -1.6958    0.0710   -2.9414 H   0  0  0  0  0  0  0  0  0  0  0  0
   -0.9179    1.4830   -2.2081 H   0  0  0  0  0  0  0  0  0  0  0  0
   -1.4215   -1.2338   -0.8994 H   0  0  0  0  0  0  0  0  0  0  0  0
   -2.2001    0.3046   -0.5142 H   0  0  0  0  0  0  0  0  0  0  0  0
    1.8772    0.0213    0.2543 H   0  0  0  0  0  0  0  0  0  0  0  0
    1.0829   -1.4104   -0.4060 H   0  0  0  0  0  0  0  0  0  0  0  0
    2.2637   -0.2158   -2.1790 H   0  0  0  0  0  0  0  0  0  0  0  0
    1.4752    1.3104   -1.7486 H   0  0  0  0  0  0  0  0  0  0  0  0
   -0.4640   -1.3557    1.5133 H   0  0  0  0  0  0  0  0  0  0  0  0
   -1.5526    0.0227    1.6433 H   0  0  0  0  0  0  0  0  0  0  0  0
    0.3543    1.4573    2.3756 H   0  0  0  0  0  0  0  0  0  0  0  0
    1.4116    0.0568    2.3533 H   0  0  0  0  0  0  0  0  0  0  0  0
    0.6041    0.2509    4.5112 H   0  0  0  0  0  0  0  0  0  0  0  0
   -0.9382    0.3191    4.0476 H   0  0  0  0  0  0  0  0  0  0  0  0
  1  2  1  0
  1  6  1  0
  2  3  1  0
  2 10  1  0
  2 11  1  0
  3  4  1  0
  3 12  1  0
  3 13  1  0
  4  5  1  0
  4  7  1  0
  5  6  1  0
  5 14  1  0
  5 15  1  0
  6 16  1  0
  6 17  1  0
  7  8  1  0
  7 18  1  0
  7 19  1  0
  8  9  1  0
  8 20  1  0
  8 21  1  0
  9 22  1  0
  9 23  1  0
M  END
