
     RDKit          3D

 38 40  0  0  0  0  0  0  0  0999 V2000
    3.4532   -2.3224   -0.2102 N   0  0  0  0  0  0  0  0  0  0  0  0
    2.2254   -2.6401   -0.6199 C   0  0  0  0  0  0  0  0  0  0  0  0
    2.6452   -0.1306    0.1151 C   0  0  0  0  0  0  0  0  0  0  0  0
    3.7029   -1.0665    0.1679 C   0  0  0  0  0  0  0  0  0  0  0  0
    1.4205   -0.6134   -0.3356 C   0  0  0  0  0  0  0  0  0  0  0  0
    2.4070    1.2385    0.3929 C   0  0  0  0  0  0  0  0  0  0  0  0
    3.3318    2.1956    0.8811 C   0  0  0  0  0  0  0  0  0  0  0  0
    4.1533    2.9700    1.2968 C   0  0  0  0  0  0  0  0  0  0  0  0
   -0.8413    0.4222   -0.6612 C   0  0  2  0  0  0  0  0  0  0  0  0
   -1.1618    1.4415   -1.7502 C   0  0  0  0  0  0  0  0  0  0  0  0
   -2.6620    1.4695   -2.0275 C   0  0  0  0  0  0  0  0  0  0  0  0
   -3.4563    1.6628   -0.7413 C   0  0  0  0  0  0  0  0  0  0  0  0
   -1.7006    0.6716    0.5837 C   0  0  0  0  0  0  0  0  0  0  0  0
   -3.5021   -1.5093    1.3408 C   0  0  0  0  0  0  0  0  0  0  0  0
   -4.3524   -2.4436    1.7533 C   0  0  0  0  0  0  0  0  0  0  0  0
    1.1622   -1.8665   -0.7155 N   0  0  0  0  0  0  0  0  0  0  0  0
    4.9270   -0.7497    0.5784 N   0  0  0  0  0  0  0  0  0  0  0  0
    0.5635    0.4309   -0.3113 N   0  0  0  0  0  0  0  0  0  0  0  0
    1.1534    1.5446    0.1303 N   0  0  0  0  0  0  0  0  0  0  0  0
   -3.1005    0.6251    0.2173 N   0  0  0  0  0  0  0  0  0  0  0  0
   -5.1282   -0.3513    0.0884 O   0  0  0  0  0  0  0  0  0  0  0  0
    2.0897   -3.6756   -0.9135 H   0  0  0  0  0  0  0  0  0  0  0  0
    4.8772    3.6620    1.6636 H   0  0  0  0  0  0  0  0  0  0  0  0
   -1.0479   -0.5864   -1.0268 H   0  0  0  0  0  0  0  0  0  0  0  0
   -0.8334    2.4310   -1.4202 H   0  0  0  0  0  0  0  0  0  0  0  0
   -0.6077    1.1991   -2.6588 H   0  0  0  0  0  0  0  0  0  0  0  0
   -2.8932    2.2777   -2.7234 H   0  0  0  0  0  0  0  0  0  0  0  0
   -2.9751    0.5369   -2.5047 H   0  0  0  0  0  0  0  0  0  0  0  0
   -3.2191    2.6343   -0.2973 H   0  0  0  0  0  0  0  0  0  0  0  0
   -4.5251    1.6372   -0.9287 H   0  0  0  0  0  0  0  0  0  0  0  0
   -1.4621   -0.0435    1.3649 H   0  0  0  0  0  0  0  0  0  0  0  0
   -1.4803    1.6639    0.9883 H   0  0  0  0  0  0  0  0  0  0  0  0
   -2.4609   -1.6009    1.6137 H   0  0  0  0  0  0  0  0  0  0  0  0
   -5.4063   -2.4116    1.5117 H   0  0  0  0  0  0  0  0  0  0  0  0
   -4.0107   -3.2763    2.3525 H   0  0  0  0  0  0  0  0  0  0  0  0
    5.1708    0.1856    0.8550 H   0  0  0  0  0  0  0  0  0  0  0  0
    5.6519   -1.4476    0.5843 H   0  0  0  0  0  0  0  0  0  0  0  0
   -3.9741   -0.3731    0.5001 C   0  0  0  0  0  0  0  0  0  0  0  0
  8  7  3  0
  7  6  1  0
 12 20  1  0
 12 11  1  0
 19  6  2  0
 19 18  1  0
 21 38  2  0
  6  3  1  0
 20 38  1  0
 20 13  1  0
 38 14  1  0
 13  9  1  0
 10 11  1  0
 10  9  1  0
 15 14  2  0
  9 18  1  0
 18  5  1  0
 17  4  1  0
  3  5  2  0
  3  4  1  0
  5 16  1  0
  4  1  2  0
 16  2  2  0
  1  2  1  0
  2 22  1  0
  8 23  1  0
  9 24  1  6
 10 25  1  0
 10 26  1  0
 11 27  1  0
 11 28  1  0
 12 29  1  0
 12 30  1  0
 13 31  1  0
 13 32  1  0
 14 33  1  0
 15 34  1  0
 15 35  1  0
 17 36  1  0
 17 37  1  0
M  END
