
     RDKit          3D

 29 30  0  0  0  0  0  0  0  0999 V2000
    3.0622   -0.6647   -0.4063 C   0  0  0  0  0  0  0  0  0  0  0  0
    2.0037   -0.9895   -1.1139 N   0  0  0  0  0  0  0  0  0  0  0  0
    0.7802   -0.4733   -0.8577 C   0  0  0  0  0  0  0  0  0  0  0  0
    0.6573    0.4492    0.1901 N   0  0  0  0  0  0  0  0  0  0  0  0
    1.7384    0.7854    0.9406 C   0  0  0  0  0  0  0  0  0  0  0  0
    2.9417    0.2586    0.6750 C   0  0  0  0  0  0  0  0  0  0  0  0
    4.2426   -1.2000   -0.7003 N   0  0  0  0  0  0  0  0  0  0  0  0
    4.0272    0.5789    1.3972 F   0  0  0  0  0  0  0  0  0  0  0  0
   -0.2056   -0.7810   -1.5103 O   0  0  0  0  0  0  0  0  0  0  0  0
   -0.6391    1.0296    0.5312 C   0  0  2  0  0  0  0  0  0  0  0  0
   -1.4864    0.0247    1.0105 O   0  0  0  0  0  0  0  0  0  0  0  0
   -2.7768    0.1190    0.4315 C   0  0  1  0  0  0  0  0  0  0  0  0
   -2.6203    0.9105   -0.8678 C   0  0  1  0  0  0  0  0  0  0  0  0
   -3.7939    1.6550   -1.0877 O   0  0  0  0  0  0  0  0  0  0  0  0
   -1.3710    1.7508   -0.6045 C   0  0  0  0  0  0  0  0  0  0  0  0
   -3.3469   -1.2593    0.2080 C   0  0  0  0  0  0  0  0  0  0  0  0
   -3.5687   -1.8834    1.4511 O   0  0  0  0  0  0  0  0  0  0  0  0
    1.5918    1.4915    1.7471 H   0  0  0  0  0  0  0  0  0  0  0  0
    4.3189   -1.8408   -1.4722 H   0  0  0  0  0  0  0  0  0  0  0  0
    5.0777   -0.9806   -0.1862 H   0  0  0  0  0  0  0  0  0  0  0  0
   -0.4187    1.7416    1.3310 H   0  0  0  0  0  0  0  0  0  0  0  0
   -3.4396    0.6848    1.1037 H   0  0  0  0  0  0  0  0  0  0  0  0
   -2.4393    0.2246   -1.6995 H   0  0  0  0  0  0  0  0  0  0  0  0
   -3.7738    1.9871   -1.9898 H   0  0  0  0  0  0  0  0  0  0  0  0
   -1.6757    2.7361   -0.2474 H   0  0  0  0  0  0  0  0  0  0  0  0
   -0.7509    1.8965   -1.4870 H   0  0  0  0  0  0  0  0  0  0  0  0
   -4.2797   -1.1436   -0.3600 H   0  0  0  0  0  0  0  0  0  0  0  0
   -2.6510   -1.8297   -0.4204 H   0  0  0  0  0  0  0  0  0  0  0  0
   -3.9522   -2.7490    1.2853 H   0  0  0  0  0  0  0  0  0  0  0  0
  1  2  2  0
  1  6  1  0
  1  7  1  0
  2  3  1  0
  3  4  1  0
  3  9  2  0
  4  5  1  0
  4 10  1  0
  5  6  2  0
  6  8  1  0
 10 11  1  0
 10 15  1  0
 11 12  1  0
 12 13  1  0
 12 16  1  0
 13 14  1  0
 13 15  1  0
 16 17  1  0
  5 18  1  0
  7 19  1  0
  7 20  1  0
 10 21  1  1
 12 22  1  1
 13 23  1  6
 14 24  1  0
 15 25  1  0
 15 26  1  0
 16 27  1  0
 16 28  1  0
 17 29  1  0
M  END
