
     RDKit          3D

 24 26  0  0  0  0  0  0  0  0999 V2000
   -1.6525    2.1484    1.0426 Cl  0  0  0  0  0  0  0  0  0  0  0  0
    1.7636    2.0890    0.9772 Cl  0  0  0  0  0  0  0  0  0  0  0  0
    2.7259   -0.1450   -1.2250 Cl  0  0  0  0  0  0  0  0  0  0  0  0
   -2.7744   -0.0528   -1.1189 Cl  0  0  0  0  0  0  0  0  0  0  0  0
   -0.0332    1.1592   -2.7325 Cl  0  0  0  0  0  0  0  0  0  0  0  0
   -0.0810   -1.6897   -2.5774 Cl  0  0  0  0  0  0  0  0  0  0  0  0
   -0.6430    1.0801    0.2192 C   0  0  0  0  0  0  0  0  0  0  0  0
    0.6869    1.0569    0.1936 C   0  0  0  0  0  0  0  0  0  0  0  0
    1.1069   -0.1711   -0.5886 C   0  0  2  0  0  0  0  0  0  0  0  0
    0.7485   -1.4092    0.2738 C   0  0  2  0  0  0  0  0  0  0  0  0
   -0.7839   -1.3816    0.3060 C   0  0  2  0  0  0  0  0  0  0  0  0
   -1.1342   -0.1328   -0.5450 C   0  0  1  0  0  0  0  0  0  0  0  0
   -0.0353   -0.2089   -1.6314 C   0  0  1  0  0  0  0  0  0  0  0  0
    0.0350   -1.2178    2.4928 N   0  0  0  0  0  0  0  0  0  0  0  0
   -1.1350   -1.2389    1.7690 C   0  0  0  0  0  0  0  0  0  0  0  0
   -2.2365   -1.1500    2.2429 O   0  0  0  0  0  0  0  0  0  0  0  0
    1.1738   -1.2884    1.7201 C   0  0  0  0  0  0  0  0  0  0  0  0
    2.3019   -1.2536    2.1336 O   0  0  0  0  0  0  0  0  0  0  0  0
    0.0418   -1.1061    3.9370 C   0  0  0  0  0  0  0  0  0  0  0  0
    1.1578   -2.3233   -0.1569 H   0  0  0  0  0  0  0  0  0  0  0  0
   -1.2435   -2.2831   -0.0998 H   0  0  0  0  0  0  0  0  0  0  0  0
    1.0616   -1.2123    4.2923 H   0  0  0  0  0  0  0  0  0  0  0  0
   -0.3440   -0.1366    4.2451 H   0  0  0  0  0  0  0  0  0  0  0  0
   -0.5705   -1.8918    4.3730 H   0  0  0  0  0  0  0  0  0  0  0  0
  1  7  1  0
  2  8  1  0
  9  3  1  6
 12  4  1  6
 13  5  1  6
  6 13  1  0
  7  8  2  0
  7 12  1  0
  8  9  1  0
  9 10  1  0
  9 13  1  0
 10 11  1  0
 10 17  1  0
 10 20  1  6
 11 12  1  0
 11 15  1  0
 11 21  1  6
 12 13  1  0
 14 15  1  0
 14 17  1  0
 14 19  1  0
 15 16  2  0
 17 18  2  0
 19 22  1  0
 19 23  1  0
 19 24  1  0
M  END
