
     RDKit          3D

 38 37  0  0  0  0  0  0  0  0999 V2000
   -2.1000   -0.6720    0.1747 C   0  0  0  0  0  0  0  0  0  0  0  0
   -3.5819   -0.6984   -0.1825 C   0  0  0  0  0  0  0  0  0  0  0  0
   -4.2435   -2.0021    0.2167 C   0  0  0  0  0  0  0  0  0  0  0  0
    5.2379   -2.6501    0.0443 O   0  0  0  0  0  0  0  0  0  0  0  0
    4.5848   -1.4248    0.3041 C   0  0  0  0  0  0  0  0  0  0  0  0
    3.1307   -1.5337   -0.1089 C   0  0  0  0  0  0  0  0  0  0  0  0
    2.3636   -0.2462    0.1677 C   0  0  0  0  0  0  0  0  0  0  0  0
    0.9043   -0.3341   -0.2680 C   0  0  0  0  0  0  0  0  0  0  0  0
    0.0152    0.8195    0.2055 C   0  0  1  0  0  0  0  0  0  0  0  0
    0.5659    2.1730   -0.2516 C   0  0  0  0  0  0  0  0  0  0  0  0
   -0.2025    3.3668    0.2871 C   0  0  0  0  0  0  0  0  0  0  0  0
    0.5281    4.5419   -0.0044 O   0  0  0  0  0  0  0  0  0  0  0  0
   -1.4361    0.6331   -0.2514 C   0  0  0  0  0  0  0  0  0  0  0  0
   -5.6040   -1.9680   -0.1623 O   0  0  0  0  0  0  0  0  0  0  0  0
   -1.9807   -0.8074    1.2554 H   0  0  0  0  0  0  0  0  0  0  0  0
   -1.6054   -1.5256   -0.2969 H   0  0  0  0  0  0  0  0  0  0  0  0
   -4.0928    0.1353    0.3098 H   0  0  0  0  0  0  0  0  0  0  0  0
   -3.6990   -0.5477   -1.2608 H   0  0  0  0  0  0  0  0  0  0  0  0
   -3.7163   -2.8368   -0.2654 H   0  0  0  0  0  0  0  0  0  0  0  0
   -4.1340   -2.1463    1.3001 H   0  0  0  0  0  0  0  0  0  0  0  0
    6.1587   -2.5595    0.3047 H   0  0  0  0  0  0  0  0  0  0  0  0
    4.6385   -1.1622    1.3697 H   0  0  0  0  0  0  0  0  0  0  0  0
    5.0540   -0.5976   -0.2458 H   0  0  0  0  0  0  0  0  0  0  0  0
    3.0716   -1.7750   -1.1752 H   0  0  0  0  0  0  0  0  0  0  0  0
    2.6599   -2.3633    0.4282 H   0  0  0  0  0  0  0  0  0  0  0  0
    2.4103   -0.0203    1.2395 H   0  0  0  0  0  0  0  0  0  0  0  0
    2.8647    0.5827   -0.3397 H   0  0  0  0  0  0  0  0  0  0  0  0
    0.8511   -0.4079   -1.3608 H   0  0  0  0  0  0  0  0  0  0  0  0
    0.4963   -1.2731    0.1163 H   0  0  0  0  0  0  0  0  0  0  0  0
    0.0264    0.8109    1.3046 H   0  0  0  0  0  0  0  0  0  0  0  0
    1.6026    2.2717    0.0812 H   0  0  0  0  0  0  0  0  0  0  0  0
    0.5842    2.2089   -1.3472 H   0  0  0  0  0  0  0  0  0  0  0  0
   -1.2041    3.4134   -0.1560 H   0  0  0  0  0  0  0  0  0  0  0  0
   -0.3425    3.2438    1.3711 H   0  0  0  0  0  0  0  0  0  0  0  0
   -0.0041    5.2970    0.2608 H   0  0  0  0  0  0  0  0  0  0  0  0
   -1.4797    0.7180   -1.3443 H   0  0  0  0  0  0  0  0  0  0  0  0
   -2.0415    1.4566    0.1382 H   0  0  0  0  0  0  0  0  0  0  0  0
   -6.0198   -2.7790    0.1429 H   0  0  0  0  0  0  0  0  0  0  0  0
 13  1  1  0
  1  2  1  0
  1 15  1  0
  1 16  1  0
  2  3  1  0
  2 17  1  0
  2 18  1  0
  3 14  1  0
  3 19  1  0
  3 20  1  0
  5  4  1  0
  4 21  1  0
  5  6  1  0
  5 22  1  0
  5 23  1  0
  6  7  1  0
  6 24  1  0
  6 25  1  0
  7  8  1  0
  7 26  1  0
  7 27  1  0
  9  8  1  0
  8 28  1  0
  8 29  1  0
 10  9  1  0
  9 13  1  0
  9 30  1  1
 11 10  1  0
 10 31  1  0
 10 32  1  0
 12 11  1  0
 11 33  1  0
 11 34  1  0
 12 35  1  0
 13 36  1  0
 13 37  1  0
 14 38  1  0
M  END
