
     RDKit          3D

 44 46  0  0  0  0  0  0  0  0999 V2000
   -1.1890   -3.2124    0.6922 C   0  0  0  0  0  0  0  0  0  0  0  0
    0.0275   -2.5325    0.0908 C   0  0  1  0  0  0  0  0  0  0  0  0
    0.9174   -3.5239   -0.6430 C   0  0  0  0  0  0  0  0  0  0  0  0
   -0.3693   -1.5151   -0.8101 O   0  0  0  0  0  0  0  0  0  0  0  0
    0.7326   -1.8689    1.1284 O   0  0  0  0  0  0  0  0  0  0  0  0
    1.0878   -0.5735    0.7118 C   0  0  1  0  0  0  0  0  0  0  0  0
    2.5480   -0.4941    0.2091 C   0  0  2  0  0  0  0  0  0  0  0  0
    3.3518    0.2322    1.1108 O   0  0  0  0  0  0  0  0  0  0  0  0
    3.6051    1.5356    0.5928 C   0  0  2  0  0  0  0  0  0  0  0  0
    5.1048    1.7063    0.4031 C   0  0  0  0  0  0  0  0  0  0  0  0
    3.0227    2.5899    1.5160 C   0  0  0  0  0  0  0  0  0  0  0  0
    2.9269    1.5914   -0.6407 O   0  0  0  0  0  0  0  0  0  0  0  0
    2.7443    0.2702   -1.0969 C   0  0  2  0  0  0  0  0  0  0  0  0
    1.5657    0.1988   -2.0318 C   0  0  0  0  0  0  0  0  0  0  0  0
    0.3727    0.5640   -1.3722 O   0  0  0  0  0  0  0  0  0  0  0  0
   -0.0088   -0.2504   -0.3238 C   0  0  1  0  0  0  0  0  0  0  0  0
   -1.1915    0.4521    0.3424 C   0  0  0  0  0  0  0  0  0  0  0  0
   -2.2972    0.5556   -0.5890 N   0  0  0  0  0  0  0  0  0  0  0  0
   -3.8367    0.4923   -0.0463 S   0  0  2  0  0  0  0  0  0  0  0  0
   -4.0224   -0.7298    0.7127 O   0  0  0  0  0  0  0  0  0  0  0  0
   -4.6693    0.7350   -1.2111 O   0  0  0  0  0  0  0  0  0  0  0  0
   -3.9231    1.7105    1.0703 N   0  0  0  0  0  0  0  0  0  0  0  0
   -1.7610   -3.7226   -0.0825 H   0  0  0  0  0  0  0  0  0  0  0  0
   -0.8848   -3.9586    1.4263 H   0  0  0  0  0  0  0  0  0  0  0  0
   -1.8471   -2.4947    1.1821 H   0  0  0  0  0  0  0  0  0  0  0  0
    1.7905   -3.0388   -1.0815 H   0  0  0  0  0  0  0  0  0  0  0  0
    1.2658   -4.3012    0.0368 H   0  0  0  0  0  0  0  0  0  0  0  0
    0.3625   -4.0080   -1.4468 H   0  0  0  0  0  0  0  0  0  0  0  0
    0.9972    0.0905    1.5772 H   0  0  0  0  0  0  0  0  0  0  0  0
    2.9443   -1.5095    0.1285 H   0  0  0  0  0  0  0  0  0  0  0  0
    5.6316    1.5667    1.3472 H   0  0  0  0  0  0  0  0  0  0  0  0
    5.5017    0.9852   -0.3135 H   0  0  0  0  0  0  0  0  0  0  0  0
    5.3312    2.7088    0.0397 H   0  0  0  0  0  0  0  0  0  0  0  0
    3.2216    3.5906    1.1318 H   0  0  0  0  0  0  0  0  0  0  0  0
    1.9431    2.4695    1.6170 H   0  0  0  0  0  0  0  0  0  0  0  0
    3.4721    2.5193    2.5060 H   0  0  0  0  0  0  0  0  0  0  0  0
    3.6326   -0.1048   -1.6227 H   0  0  0  0  0  0  0  0  0  0  0  0
    1.6896    0.8965   -2.8601 H   0  0  0  0  0  0  0  0  0  0  0  0
    1.5040   -0.8068   -2.4596 H   0  0  0  0  0  0  0  0  0  0  0  0
   -1.5025   -0.1238    1.2142 H   0  0  0  0  0  0  0  0  0  0  0  0
   -0.8736    1.4342    0.7032 H   0  0  0  0  0  0  0  0  0  0  0  0
   -2.1730    1.2321   -1.3330 H   0  0  0  0  0  0  0  0  0  0  0  0
   -3.9170    2.6314    0.6441 H   0  0  0  0  0  0  0  0  0  0  0  0
   -4.7342    1.6123    1.6727 H   0  0  0  0  0  0  0  0  0  0  0  0
  2  1  1  1
  1 23  1  0
  1 24  1  0
  1 25  1  0
  2  3  1  0
  2  4  1  0
  2  5  1  0
  3 26  1  0
  3 27  1  0
  3 28  1  0
  4 16  1  0
  5  6  1  0
  6  7  1  0
  6 16  1  0
  6 29  1  1
  7  8  1  0
  7 13  1  0
  7 30  1  6
  8  9  1  0
  9 10  1  6
  9 11  1  0
  9 12  1  0
 10 31  1  0
 10 32  1  0
 10 33  1  0
 11 34  1  0
 11 35  1  0
 11 36  1  0
 12 13  1  0
 13 14  1  0
 13 37  1  6
 14 15  1  0
 14 38  1  0
 14 39  1  0
 15 16  1  0
 16 17  1  1
 17 18  1  0
 17 40  1  0
 17 41  1  0
 19 18  1  6
 18 42  1  0
 19 20  2  0
 19 21  2  0
 19 22  1  0
 22 43  1  0
 22 44  1  0
M  END
