
     RDKit          3D

 68 70  0  0  0  0  0  0  0  0999 V2000
    7.3433    0.8865    0.3489 C   0  0  0  0  0  0  0  0  0  0  0  0
    5.9683    0.9733    0.1610 C   0  0  0  0  0  0  0  0  0  0  0  0
    5.3293    2.3290   -0.0175 C   0  0  0  0  0  0  0  0  0  0  0  0
    4.1480    2.3201   -0.8442 N   0  0  0  0  0  0  0  0  0  0  0  0
    5.2213   -0.2012    0.1808 C   0  0  0  0  0  0  0  0  0  0  0  0
    5.8340   -1.4265    0.3847 C   0  0  0  0  0  0  0  0  0  0  0  0
    7.2095   -1.5120    0.5884 C   0  0  0  0  0  0  0  0  0  0  0  0
    7.8434   -2.8429    0.7959 C   0  0  0  0  0  0  0  0  0  0  0  0
    7.2645   -3.8784    0.3209 N   0  0  0  0  0  0  0  0  0  0  0  0
    7.9582   -0.3375    0.5649 C   0  0  0  0  0  0  0  0  0  0  0  0
    9.0439   -2.8201    1.4460 N   0  0  0  0  0  0  0  0  0  0  0  0
    2.8988    2.3989   -0.3672 C   0  0  0  0  0  0  0  0  0  0  0  0
    1.8178    2.4926   -1.4409 C   0  0  2  0  0  0  0  0  0  0  0  0
    1.7856    3.9095   -2.0190 C   0  0  0  0  0  0  0  0  0  0  0  0
    0.5622    2.1207   -0.8360 N   0  0  0  0  0  0  0  0  0  0  0  0
    2.6231    2.4361    0.8227 O   0  0  0  0  0  0  0  0  0  0  0  0
   -0.5055    1.7272   -1.5392 C   0  0  0  0  0  0  0  0  0  0  0  0
   -1.7557    1.4707   -0.6926 C   0  0  1  0  0  0  0  0  0  0  0  0
   -2.3713    2.7969   -0.2084 C   0  0  0  0  0  0  0  0  0  0  0  0
   -2.7308    0.7159   -1.4400 N   0  0  0  0  0  0  0  0  0  0  0  0
   -0.5159    1.6039   -2.7531 O   0  0  0  0  0  0  0  0  0  0  0  0
   -2.9700   -0.8884   -1.2012 S   0  0  1  0  0  0  0  0  0  0  0  0
   -4.2680   -0.9317    0.0416 C   0  0  0  0  0  0  0  0  0  0  0  0
   -3.5008   -1.4269   -2.4446 O   0  0  0  0  0  0  0  0  0  0  0  0
   -1.7808   -1.4912   -0.6129 O   0  0  0  0  0  0  0  0  0  0  0  0
   -5.1842   -5.0029    1.0024 C   0  0  0  0  0  0  0  0  0  0  0  0
   -4.2163   -4.3181    1.7259 C   0  0  0  0  0  0  0  0  0  0  0  0
   -3.9214   -2.9984    1.4162 C   0  0  0  0  0  0  0  0  0  0  0  0
   -4.5967   -2.3491    0.3864 C   0  0  0  0  0  0  0  0  0  0  0  0
   -5.5629   -3.0419   -0.3380 C   0  0  0  0  0  0  0  0  0  0  0  0
   -5.8584   -4.3618   -0.0289 C   0  0  0  0  0  0  0  0  0  0  0  0
   -5.7182    1.8803    2.3245 C   0  0  0  0  0  0  0  0  0  0  0  0
   -4.4240    1.8343    2.8283 C   0  0  0  0  0  0  0  0  0  0  0  0
   -3.3490    2.1609    2.0130 C   0  0  0  0  0  0  0  0  0  0  0  0
   -3.5485    2.5329    0.6848 C   0  0  0  0  0  0  0  0  0  0  0  0
   -4.8490    2.5814    0.1923 C   0  0  0  0  0  0  0  0  0  0  0  0
   -5.9280    2.2604    1.0059 C   0  0  0  0  0  0  0  0  0  0  0  0
    7.9489    1.7845    0.3189 H   0  0  0  0  0  0  0  0  0  0  0  0
    9.0336   -0.3663    0.6852 H   0  0  0  0  0  0  0  0  0  0  0  0
    5.0611    2.7374    0.9577 H   0  0  0  0  0  0  0  0  0  0  0  0
    6.0541    3.0177   -0.4541 H   0  0  0  0  0  0  0  0  0  0  0  0
    4.1493   -0.1696    0.0340 H   0  0  0  0  0  0  0  0  0  0  0  0
    4.2817    2.2487   -1.8409 H   0  0  0  0  0  0  0  0  0  0  0  0
    5.2381   -2.3292    0.3936 H   0  0  0  0  0  0  0  0  0  0  0  0
    7.7775   -4.7246    0.5535 H   0  0  0  0  0  0  0  0  0  0  0  0
    9.2179   -2.0829    2.1091 H   0  0  0  0  0  0  0  0  0  0  0  0
    9.4455   -3.7056    1.7105 H   0  0  0  0  0  0  0  0  0  0  0  0
    2.0472    1.7839   -2.2410 H   0  0  0  0  0  0  0  0  0  0  0  0
    1.0002    3.9927   -2.7684 H   0  0  0  0  0  0  0  0  0  0  0  0
    1.5958    4.6426   -1.2346 H   0  0  0  0  0  0  0  0  0  0  0  0
    2.7317    4.1562   -2.5000 H   0  0  0  0  0  0  0  0  0  0  0  0
    0.5051    2.1956    0.1698 H   0  0  0  0  0  0  0  0  0  0  0  0
   -1.4632    0.8921    0.1869 H   0  0  0  0  0  0  0  0  0  0  0  0
   -1.6117    3.3702    0.3262 H   0  0  0  0  0  0  0  0  0  0  0  0
   -2.6702    3.3920   -1.0744 H   0  0  0  0  0  0  0  0  0  0  0  0
   -2.9138    1.0210   -2.3887 H   0  0  0  0  0  0  0  0  0  0  0  0
   -3.8996   -0.3676    0.9008 H   0  0  0  0  0  0  0  0  0  0  0  0
   -5.1157   -0.3907   -0.3782 H   0  0  0  0  0  0  0  0  0  0  0  0
   -3.6907   -4.8129    2.5321 H   0  0  0  0  0  0  0  0  0  0  0  0
   -6.6153   -4.8911   -0.5929 H   0  0  0  0  0  0  0  0  0  0  0  0
   -3.1697   -2.4662    1.9863 H   0  0  0  0  0  0  0  0  0  0  0  0
   -6.0953   -2.5440   -1.1393 H   0  0  0  0  0  0  0  0  0  0  0  0
   -6.5584    1.6268    2.9580 H   0  0  0  0  0  0  0  0  0  0  0  0
   -4.2507    1.5458    3.8571 H   0  0  0  0  0  0  0  0  0  0  0  0
   -6.9334    2.3029    0.6070 H   0  0  0  0  0  0  0  0  0  0  0  0
   -2.3421    2.1209    2.4139 H   0  0  0  0  0  0  0  0  0  0  0  0
   -5.0200    2.8660   -0.8389 H   0  0  0  0  0  0  0  0  0  0  0  0
   -5.4158   -6.0319    1.2445 H   0  0  0  0  0  0  0  0  0  0  0  0
  1  2  2  0
  1 10  1  0
  2  3  1  0
  2  5  1  0
  3  4  1  0
  4 12  1  0
  5  6  2  0
  6  7  1  0
  7  8  1  0
  7 10  2  0
  8  9  2  0
  8 11  1  0
 12 13  1  0
 12 16  2  0
 13 14  1  0
 13 15  1  0
 15 17  1  0
 17 18  1  0
 17 21  2  0
 18 19  1  0
 18 20  1  0
 19 35  1  0
 22 20  1  6
 22 23  1  0
 22 24  2  0
 22 25  2  0
 23 29  1  0
 26 27  2  0
 26 31  1  0
 27 28  1  0
 28 29  2  0
 29 30  1  0
 30 31  2  0
 32 33  2  0
 32 37  1  0
 33 34  1  0
 34 35  2  0
 35 36  1  0
 36 37  2  0
  1 38  1  0
 10 39  1  0
  3 40  1  0
  3 41  1  0
  5 42  1  0
  4 43  1  0
  6 44  1  0
  9 45  1  0
 11 46  1  0
 11 47  1  0
 13 48  1  6
 14 49  1  0
 14 50  1  0
 14 51  1  0
 15 52  1  0
 18 53  1  1
 19 54  1  0
 19 55  1  0
 20 56  1  0
 23 57  1  0
 23 58  1  0
 26 68  1  0
 27 59  1  0
 31 60  1  0
 28 61  1  0
 30 62  1  0
 32 63  1  0
 33 64  1  0
 37 65  1  0
 34 66  1  0
 36 67  1  0
M  END
