
     RDKit          3D

 44 46  0  0  0  0  0  0  0  0999 V2000
   -1.6224    0.7646   -0.4127 C   0  0  0  0  0  0  0  0  0  0  0  0
   -2.6972    1.4462    0.1383 C   0  0  0  0  0  0  0  0  0  0  0  0
   -3.9465    0.8474    0.2203 C   0  0  0  0  0  0  0  0  0  0  0  0
   -4.0896   -0.4455   -0.2547 C   0  0  0  0  0  0  0  0  0  0  0  0
   -3.0229   -1.1320   -0.8147 C   0  0  0  0  0  0  0  0  0  0  0  0
   -1.7771   -0.5266   -0.9041 C   0  0  0  0  0  0  0  0  0  0  0  0
   -0.6367   -1.2462   -1.5708 C   0  0  0  0  0  0  0  0  0  0  0  0
    1.6907   -1.7548   -1.0470 C   0  0  0  0  0  0  0  0  0  0  0  0
    2.6281   -2.2670    0.0163 C   0  0  0  0  0  0  0  0  0  0  0  0
    3.4307   -1.3269    0.6489 C   0  0  0  0  0  0  0  0  0  0  0  0
    4.3494   -1.7053    1.6154 C   0  0  0  0  0  0  0  0  0  0  0  0
    4.4894   -3.0423    1.9575 C   0  0  0  0  0  0  0  0  0  0  0  0
    3.7135   -3.9998    1.3292 C   0  0  0  0  0  0  0  0  0  0  0  0
    2.7973   -3.6055    0.3637 C   0  0  0  0  0  0  0  0  0  0  0  0
    0.4155    1.3155    0.5554 C   0  0  0  0  0  0  0  0  0  0  0  0
    1.7554    1.8590    0.2657 C   0  0  0  0  0  0  0  0  0  0  0  0
    3.8610    2.6465    1.1370 C   0  0  0  0  0  0  0  0  0  0  0  0
    2.5774    2.1771    1.3461 C   0  0  0  0  0  0  0  0  0  0  0  0
    4.3229    2.7838   -0.1653 C   0  0  0  0  0  0  0  0  0  0  0  0
    3.5231    2.4655   -1.2528 C   0  0  0  0  0  0  0  0  0  0  0  0
    2.2347    2.0072   -1.0343 C   0  0  0  0  0  0  0  0  0  0  0  0
    0.0587    0.8831    1.6147 O   0  0  0  0  0  0  0  0  0  0  0  0
   -0.3982    1.3686   -0.5233 O   0  0  0  0  0  0  0  0  0  0  0  0
   -2.4675    3.2004    0.7612 Br  0  0  0  0  0  0  0  0  0  0  0  0
   -5.7725   -1.2826   -0.1437 Br  0  0  0  0  0  0  0  0  0  0  0  0
    0.4220   -1.5697   -0.6367 N   0  0  0  0  0  0  0  0  0  0  0  0
    2.1159   -1.4399   -2.1416 O   0  0  0  0  0  0  0  0  0  0  0  0
    2.0171   -4.6402   -0.3008 N   0  0  0  0  0  0  0  0  0  0  0  0
    2.1254   -5.7763    0.0897 O   0  0  0  0  0  0  0  0  0  0  0  0
    1.3043   -4.3073   -1.2192 O   0  0  0  0  0  0  0  0  0  0  0  0
    5.9284    3.3552   -0.4357 Cl  0  0  0  0  0  0  0  0  0  0  0  0
   -4.7837    1.3832    0.6463 H   0  0  0  0  0  0  0  0  0  0  0  0
   -3.1500   -2.1366   -1.1963 H   0  0  0  0  0  0  0  0  0  0  0  0
   -1.0200   -2.1538   -2.0444 H   0  0  0  0  0  0  0  0  0  0  0  0
   -0.2177   -0.6277   -2.3641 H   0  0  0  0  0  0  0  0  0  0  0  0
    3.3303   -0.2832    0.3863 H   0  0  0  0  0  0  0  0  0  0  0  0
    4.9602   -0.9554    2.0996 H   0  0  0  0  0  0  0  0  0  0  0  0
    5.2062   -3.3438    2.7083 H   0  0  0  0  0  0  0  0  0  0  0  0
    3.8309   -5.0421    1.5858 H   0  0  0  0  0  0  0  0  0  0  0  0
    4.4961    2.8920    1.9767 H   0  0  0  0  0  0  0  0  0  0  0  0
    2.2171    2.0584    2.3589 H   0  0  0  0  0  0  0  0  0  0  0  0
    3.8960    2.5752   -2.2613 H   0  0  0  0  0  0  0  0  0  0  0  0
    1.6258    1.7499   -1.8894 H   0  0  0  0  0  0  0  0  0  0  0  0
    0.1465   -1.9872    0.2398 H   0  0  0  0  0  0  0  0  0  0  0  0
 27  8  2  0
 30 28  1  0
 22 15  2  0
 28 29  2  0
 28 14  1  0
  8  9  1  0
  8 26  1  0
 25  4  1  0
 14  9  1  0
 14 13  2  0
  9 10  2  0
 13 12  1  0
  5  4  2  0
  5  6  1  0
  4  3  1  0
 15 16  1  0
 15 23  1  0
  7  6  1  0
  7 26  1  0
 21 16  2  0
 21 20  1  0
  6  1  2  0
 10 11  1  0
  3  2  2  0
 12 11  2  0
  1  2  1  0
  1 23  1  0
  2 24  1  0
 16 18  1  0
 20 19  2  0
 18 17  2  0
 19 17  1  0
 19 31  1  0
  3 32  1  0
  5 33  1  0
  7 34  1  0
  7 35  1  0
 10 36  1  0
 11 37  1  0
 12 38  1  0
 13 39  1  0
 17 40  1  0
 18 41  1  0
 20 42  1  0
 21 43  1  0
 26 44  1  0
M  CHG  2  28   1  30  -1
M  END
