
     RDKit          3D

114114  0  0  0  0  0  0  0  0999 V2000
   -0.3737    0.5385  -11.1441 C   0  0  0  0  0  0  0  0  0  0  0  0
    0.8619    1.2247  -11.6016 C   0  0  0  0  0  0  0  0  0  0  0  0
    1.9753    0.5235  -11.8500 C   0  0  0  0  0  0  0  0  0  0  0  0
    2.0059   -0.9408  -11.6124 C   0  0  0  0  0  0  0  0  0  0  0  0
    0.7812   -1.6293  -11.1236 C   0  0  0  0  0  0  0  0  0  0  0  0
   -0.3517   -0.9328  -10.9242 C   0  0  0  0  0  0  0  0  0  0  0  0
    0.3433    3.0260  -13.0002 C   0  0  0  0  0  0  0  0  0  0  0  0
    4.0575    1.4700  -11.3605 C   0  0  0  0  0  0  0  0  0  0  0  0
    0.9384   -3.0956  -10.8874 C   0  0  0  0  0  0  0  0  0  0  0  0
   -1.6279   -1.5249  -10.3959 C   0  0  0  0  0  0  0  0  0  0  0  0
   -1.6407   -1.4118   -8.8969 C   0  0  0  0  0  0  0  0  0  0  0  0
   -2.4969   -0.7318   -8.1310 C   0  0  0  0  0  0  0  0  0  0  0  0
   -3.6755    0.0405   -8.6419 C   0  0  0  0  0  0  0  0  0  0  0  0
   -2.2955   -0.6968   -6.6388 C   0  0  0  0  0  0  0  0  0  0  0  0
   -1.8462    0.6834   -6.1306 C   0  0  0  0  0  0  0  0  0  0  0  0
   -1.6576    0.6827   -4.6465 C   0  0  0  0  0  0  0  0  0  0  0  0
   -0.5145    0.7574   -3.9587 C   0  0  0  0  0  0  0  0  0  0  0  0
    0.8439    0.9010   -4.5793 C   0  0  0  0  0  0  0  0  0  0  0  0
   -0.5337    0.6707   -2.4551 C   0  0  0  0  0  0  0  0  0  0  0  0
   -1.3769    1.1908  -10.9549 O   0  0  0  0  0  0  0  0  0  0  0  0
    0.8105    2.5587  -11.7347 O   0  0  0  0  0  0  0  0  0  0  0  0
    3.0865    1.0952  -12.3380 O   0  0  0  0  0  0  0  0  0  0  0  0
    3.0268   -1.5592  -11.8254 O   0  0  0  0  0  0  0  0  0  0  0  0
   -0.0019   -0.6710   -1.9232 C   0  0  0  0  0  0  0  0  0  0  0  0
    0.0143   -0.7083   -0.4257 C   0  0  0  0  0  0  0  0  0  0  0  0
   -0.8993   -1.2475    0.3857 C   0  0  0  0  0  0  0  0  0  0  0  0
   -2.1297   -1.9634   -0.0881 C   0  0  0  0  0  0  0  0  0  0  0  0
   -0.7470   -1.1421    1.8803 C   0  0  0  0  0  0  0  0  0  0  0  0
   -1.6989   -0.1111    2.5110 C   0  0  0  0  0  0  0  0  0  0  0  0
   -1.5542   -0.0721    4.0005 C   0  0  0  0  0  0  0  0  0  0  0  0
   -0.9459    0.8597    4.7400 C   0  0  0  0  0  0  0  0  0  0  0  0
   -0.3137    2.1028    4.1853 C   0  0  0  0  0  0  0  0  0  0  0  0
   -0.8367    0.6936    6.2329 C   0  0  0  0  0  0  0  0  0  0  0  0
    0.5919    0.3617    6.6974 C   0  0  0  0  0  0  0  0  0  0  0  0
    0.6825    0.2881    8.1889 C   0  0  0  0  0  0  0  0  0  0  0  0
    0.8291   -0.7957    8.9557 C   0  0  0  0  0  0  0  0  0  0  0  0
    0.9678   -2.1958    8.4341 C   0  0  0  0  0  0  0  0  0  0  0  0
    0.8447   -0.6611   10.4560 C   0  0  0  0  0  0  0  0  0  0  0  0
   -0.4591   -1.1395   11.1167 C   0  0  0  0  0  0  0  0  0  0  0  0
   -0.3901   -1.0267   12.6085 C   0  0  0  0  0  0  0  0  0  0  0  0
   -0.9021   -0.0627   13.3779 C   0  0  0  0  0  0  0  0  0  0  0  0
   -1.7107    1.0907   12.8615 C   0  0  0  0  0  0  0  0  0  0  0  0
   -0.6601   -0.0676   14.8646 C   0  0  0  0  0  0  0  0  0  0  0  0
    0.4169    0.9445   15.2904 C   0  0  0  0  0  0  0  0  0  0  0  0
    0.5792    0.9914   16.7775 C   0  0  0  0  0  0  0  0  0  0  0  0
    1.6187    0.5755   17.5060 C   0  0  0  0  0  0  0  0  0  0  0  0
    1.6038    0.6798   19.0041 C   0  0  0  0  0  0  0  0  0  0  0  0
    2.8755   -0.0192   16.9434 C   0  0  0  0  0  0  0  0  0  0  0  0
    0.3498    4.1122  -12.9554 H   0  0  0  0  0  0  0  0  0  0  0  0
    1.0017    2.6996  -13.8075 H   0  0  0  0  0  0  0  0  0  0  0  0
   -0.6734    2.6881  -13.2068 H   0  0  0  0  0  0  0  0  0  0  0  0
    4.8587    1.9773  -11.8921 H   0  0  0  0  0  0  0  0  0  0  0  0
    3.6304    2.1535  -10.6245 H   0  0  0  0  0  0  0  0  0  0  0  0
    4.4689    0.6004  -10.8456 H   0  0  0  0  0  0  0  0  0  0  0  0
    1.7171   -3.2836  -10.1470 H   0  0  0  0  0  0  0  0  0  0  0  0
    0.0243   -3.5578  -10.5286 H   0  0  0  0  0  0  0  0  0  0  0  0
    1.2395   -3.6084  -11.8018 H   0  0  0  0  0  0  0  0  0  0  0  0
   -2.4795   -1.0173  -10.8442 H   0  0  0  0  0  0  0  0  0  0  0  0
   -1.7032   -2.5729  -10.6908 H   0  0  0  0  0  0  0  0  0  0  0  0
   -0.8263   -1.9372   -8.4030 H   0  0  0  0  0  0  0  0  0  0  0  0
   -3.8409   -0.0779   -9.7096 H   0  0  0  0  0  0  0  0  0  0  0  0
   -4.5846   -0.2771   -8.1255 H   0  0  0  0  0  0  0  0  0  0  0  0
   -3.5623    1.1087   -8.4461 H   0  0  0  0  0  0  0  0  0  0  0  0
   -3.2263   -0.9750   -6.1325 H   0  0  0  0  0  0  0  0  0  0  0  0
   -1.5449   -1.4356   -6.3474 H   0  0  0  0  0  0  0  0  0  0  0  0
   -0.9333    0.9697   -6.6556 H   0  0  0  0  0  0  0  0  0  0  0  0
   -2.6029    1.4299   -6.3900 H   0  0  0  0  0  0  0  0  0  0  0  0
   -2.5760    0.5743   -4.0718 H   0  0  0  0  0  0  0  0  0  0  0  0
    0.8114    1.0492   -5.6568 H   0  0  0  0  0  0  0  0  0  0  0  0
    1.3775    1.7494   -4.1434 H   0  0  0  0  0  0  0  0  0  0  0  0
    1.4617    0.0194   -4.3921 H   0  0  0  0  0  0  0  0  0  0  0  0
    0.0632    1.4836   -2.0270 H   0  0  0  0  0  0  0  0  0  0  0  0
   -1.5541    0.8080   -2.0887 H   0  0  0  0  0  0  0  0  0  0  0  0
   -0.6074   -1.4771   -2.3421 H   0  0  0  0  0  0  0  0  0  0  0  0
    1.0163   -0.8330   -2.2876 H   0  0  0  0  0  0  0  0  0  0  0  0
    0.8590   -0.2035    0.0379 H   0  0  0  0  0  0  0  0  0  0  0  0
   -2.2389   -1.9624   -1.1707 H   0  0  0  0  0  0  0  0  0  0  0  0
   -2.1224   -3.0044    0.2453 H   0  0  0  0  0  0  0  0  0  0  0  0
   -3.0323   -1.5128    0.3308 H   0  0  0  0  0  0  0  0  0  0  0  0
   -0.9316   -2.1199    2.3390 H   0  0  0  0  0  0  0  0  0  0  0  0
    0.2782   -0.8637    2.1355 H   0  0  0  0  0  0  0  0  0  0  0  0
   -1.5012    0.8639    2.0625 H   0  0  0  0  0  0  0  0  0  0  0  0
   -2.7320   -0.3659    2.2567 H   0  0  0  0  0  0  0  0  0  0  0  0
   -1.9628   -0.9347    4.5231 H   0  0  0  0  0  0  0  0  0  0  0  0
   -0.4737    2.2279    3.1166 H   0  0  0  0  0  0  0  0  0  0  0  0
   -0.7073    2.9896    4.6882 H   0  0  0  0  0  0  0  0  0  0  0  0
    0.7660    2.1063    4.3521 H   0  0  0  0  0  0  0  0  0  0  0  0
   -1.1641    1.6127    6.7321 H   0  0  0  0  0  0  0  0  0  0  0  0
   -1.5043   -0.1027    6.5716 H   0  0  0  0  0  0  0  0  0  0  0  0
    0.9080   -0.5691    6.2233 H   0  0  0  0  0  0  0  0  0  0  0  0
    1.2765    1.1375    6.3413 H   0  0  0  0  0  0  0  0  0  0  0  0
    0.5822    1.2463    8.6960 H   0  0  0  0  0  0  0  0  0  0  0  0
    0.9251   -2.2604    7.3485 H   0  0  0  0  0  0  0  0  0  0  0  0
    1.9165   -2.6329    8.7568 H   0  0  0  0  0  0  0  0  0  0  0  0
    0.1816   -2.8428    8.8304 H   0  0  0  0  0  0  0  0  0  0  0  0
    1.6820   -1.2325   10.8722 H   0  0  0  0  0  0  0  0  0  0  0  0
    1.0115    0.3822   10.7348 H   0  0  0  0  0  0  0  0  0  0  0  0
   -1.2910   -0.5654   10.7043 H   0  0  0  0  0  0  0  0  0  0  0  0
   -0.6437   -2.1833   10.8473 H   0  0  0  0  0  0  0  0  0  0  0  0
    0.1836   -1.8079   13.1030 H   0  0  0  0  0  0  0  0  0  0  0  0
   -1.7663    1.1269   11.7755 H   0  0  0  0  0  0  0  0  0  0  0  0
   -2.7332    1.0456   13.2456 H   0  0  0  0  0  0  0  0  0  0  0  0
   -1.2978    2.0437   13.1992 H   0  0  0  0  0  0  0  0  0  0  0  0
   -1.5918    0.1615   15.3939 H   0  0  0  0  0  0  0  0  0  0  0  0
   -0.3484   -1.0623   15.1917 H   0  0  0  0  0  0  0  0  0  0  0  0
    1.3519    0.6892   14.7886 H   0  0  0  0  0  0  0  0  0  0  0  0
    0.1384    1.9412   14.9337 H   0  0  0  0  0  0  0  0  0  0  0  0
   -0.2761    1.3969   17.3145 H   0  0  0  0  0  0  0  0  0  0  0  0
    2.4177    1.3175   19.3595 H   0  0  0  0  0  0  0  0  0  0  0  0
    0.6665    1.0894   19.3798 H   0  0  0  0  0  0  0  0  0  0  0  0
    1.7560   -0.2991   19.4663 H   0  0  0  0  0  0  0  0  0  0  0  0
    2.8931   -0.0564   15.8565 H   0  0  0  0  0  0  0  0  0  0  0  0
    3.7493    0.5488   17.2733 H   0  0  0  0  0  0  0  0  0  0  0  0
    3.0156   -1.0382   17.3131 H   0  0  0  0  0  0  0  0  0  0  0  0
  1  2  1  0
  1  6  1  0
  1 20  2  0
  2  3  2  0
  2 21  1  0
  3  4  1  0
  3 22  1  0
  4  5  1  0
  4 23  2  0
  5  6  2  0
  5  9  1  0
  6 10  1  0
  7 21  1  0
  7 49  1  0
  7 50  1  0
  7 51  1  0
  8 22  1  0
  8 52  1  0
  8 53  1  0
  8 54  1  0
  9 55  1  0
  9 56  1  0
  9 57  1  0
 10 11  1  0
 10 58  1  0
 10 59  1  0
 11 12  2  0
 11 60  1  0
 12 13  1  0
 12 14  1  0
 13 61  1  0
 13 62  1  0
 13 63  1  0
 14 15  1  0
 14 64  1  0
 14 65  1  0
 15 16  1  0
 15 66  1  0
 15 67  1  0
 16 17  2  0
 16 68  1  0
 17 18  1  0
 17 19  1  0
 18 69  1  0
 18 70  1  0
 18 71  1  0
 19 24  1  0
 19 72  1  0
 19 73  1  0
 24 25  1  0
 24 74  1  0
 24 75  1  0
 25 26  2  0
 25 76  1  0
 26 27  1  0
 26 28  1  0
 27 77  1  0
 27 78  1  0
 27 79  1  0
 28 29  1  0
 28 80  1  0
 28 81  1  0
 29 30  1  0
 29 82  1  0
 29 83  1  0
 30 31  2  0
 30 84  1  0
 31 32  1  0
 31 33  1  0
 32 85  1  0
 32 86  1  0
 32 87  1  0
 33 34  1  0
 33 88  1  0
 33 89  1  0
 34 35  1  0
 34 90  1  0
 34 91  1  0
 35 36  2  0
 35 92  1  0
 36 37  1  0
 36 38  1  0
 37 93  1  0
 37 94  1  0
 37 95  1  0
 38 39  1  0
 38 96  1  0
 38 97  1  0
 39 40  1  0
 39 98  1  0
 39 99  1  0
 40 41  2  0
 40100  1  0
 41 42  1  0
 41 43  1  0
 42101  1  0
 42102  1  0
 42103  1  0
 43 44  1  0
 43104  1  0
 43105  1  0
 44 45  1  0
 44106  1  0
 44107  1  0
 45 46  2  0
 45108  1  0
 46 47  1  0
 46 48  1  0
 47109  1  0
 47110  1  0
 47111  1  0
 48112  1  0
 48113  1  0
 48114  1  0
M  END
