
     RDKit          3D

 36 38  0  0  0  0  0  0  0  0999 V2000
    1.1302    0.7515    0.1336 C   0  0  0  0  0  0  0  0  0  0  0  0
    3.4710    0.4450   -0.3784 C   0  0  0  0  0  0  0  0  0  0  0  0
   -0.2616    0.3777   -0.3594 C   0  0  1  0  0  0  0  0  0  0  0  0
   -2.5581    1.1688    0.0151 C   0  0  0  0  0  0  0  0  0  0  0  0
   -3.4519    1.8011    0.8905 C   0  0  0  0  0  0  0  0  0  0  0  0
   -4.8146    1.7731    0.6530 C   0  0  0  0  0  0  0  0  0  0  0  0
   -5.3305    1.1138   -0.4578 C   0  0  0  0  0  0  0  0  0  0  0  0
   -4.4502    0.4819   -1.3238 C   0  0  0  0  0  0  0  0  0  0  0  0
   -3.0803    0.5011   -1.0980 C   0  0  0  0  0  0  0  0  0  0  0  0
   -0.4653   -1.1038   -0.0648 C   0  0  0  0  0  0  0  0  0  0  0  0
   -0.7713   -1.5278    1.2242 C   0  0  0  0  0  0  0  0  0  0  0  0
   -0.9285   -2.8791    1.4944 C   0  0  0  0  0  0  0  0  0  0  0  0
   -0.7785   -3.8175    0.4801 C   0  0  0  0  0  0  0  0  0  0  0  0
   -0.4747   -3.3979   -0.8073 C   0  0  0  0  0  0  0  0  0  0  0  0
   -0.3201   -2.0445   -1.0771 C   0  0  0  0  0  0  0  0  0  0  0  0
    2.1424    0.3053   -0.6607 N   0  0  0  0  0  0  0  0  0  0  0  0
    4.0171    1.0381    0.6819 N   0  0  0  0  0  0  0  0  0  0  0  0
    5.3390    0.9544    0.5660 N   0  0  0  0  0  0  0  0  0  0  0  0
    5.5697    0.3371   -0.5190 N   0  0  0  0  0  0  0  0  0  0  0  0
    4.4393   -0.0001   -1.1418 N   0  0  0  0  0  0  0  0  0  0  0  0
   -1.2051    1.2572    0.2593 N   0  0  0  0  0  0  0  0  0  0  0  0
    1.3285    1.3539    1.1665 O   0  0  0  0  0  0  0  0  0  0  0  0
   -0.2814    0.5167   -1.4475 H   0  0  0  0  0  0  0  0  0  0  0  0
   -3.0679    2.3151    1.7643 H   0  0  0  0  0  0  0  0  0  0  0  0
   -5.4800    2.2702    1.3477 H   0  0  0  0  0  0  0  0  0  0  0  0
   -6.3963    1.0916   -0.6416 H   0  0  0  0  0  0  0  0  0  0  0  0
   -4.8285   -0.0398   -2.1939 H   0  0  0  0  0  0  0  0  0  0  0  0
   -2.4309   -0.0106   -1.7959 H   0  0  0  0  0  0  0  0  0  0  0  0
   -0.8941   -0.8058    2.0223 H   0  0  0  0  0  0  0  0  0  0  0  0
   -1.1687   -3.2011    2.4992 H   0  0  0  0  0  0  0  0  0  0  0  0
   -0.9032   -4.8711    0.6929 H   0  0  0  0  0  0  0  0  0  0  0  0
   -0.3658   -4.1214   -1.6044 H   0  0  0  0  0  0  0  0  0  0  0  0
   -0.0979   -1.7218   -2.0885 H   0  0  0  0  0  0  0  0  0  0  0  0
    1.9309   -0.1710   -1.5265 H   0  0  0  0  0  0  0  0  0  0  0  0
    3.5771    1.4926    1.4695 H   0  0  0  0  0  0  0  0  0  0  0  0
   -0.9447    1.6019    1.1706 H   0  0  0  0  0  0  0  0  0  0  0  0
  7  6  1  0
  7  8  2  0
  6  5  2  0
  8  9  1  0
  5  4  1  0
  9  4  2  0
  4 21  1  0
 18 17  1  0
 18 19  2  0
 17  2  1  0
 12 11  2  0
 12 13  1  0
 19 20  1  0
 11 10  1  0
  2 16  1  0
  2 20  2  0
 21  3  1  0
 13 14  2  0
 16  1  1  0
 10  3  1  0
 10 15  2  0
  1  3  1  0
  1 22  2  0
 14 15  1  0
  3 23  1  6
  5 24  1  0
  6 25  1  0
  7 26  1  0
  8 27  1  0
  9 28  1  0
 11 29  1  0
 12 30  1  0
 13 31  1  0
 14 32  1  0
 15 33  1  0
 16 34  1  0
 17 35  1  0
 21 36  1  0
M  END
