
     RDKit          3D

 50 53  0  0  0  0  0  0  0  0999 V2000
   -0.8030    0.3532    0.2852 O   0  0  0  0  0  0  0  0  0  0  0  0
   -2.0524    0.3262    0.9272 C   0  0  2  0  0  0  0  0  0  0  0  0
   -3.1203    0.1000   -0.1250 C   0  0  0  0  0  0  0  0  0  0  0  0
   -4.4445   -0.0266    0.2923 C   0  0  0  0  0  0  0  0  0  0  0  0
   -5.4574   -0.2446   -0.6202 C   0  0  0  0  0  0  0  0  0  0  0  0
   -5.1485   -0.3361   -1.9784 C   0  0  0  0  0  0  0  0  0  0  0  0
   -3.8298   -0.2120   -2.4061 C   0  0  0  0  0  0  0  0  0  0  0  0
   -2.8215    0.0017   -1.4796 C   0  0  0  0  0  0  0  0  0  0  0  0
    1.5755   -4.6055    0.7943 C   0  0  0  0  0  0  0  0  0  0  0  0
    2.7853   -4.0058    1.1070 C   0  0  0  0  0  0  0  0  0  0  0  0
    4.0247   -4.9370    1.8792 Cl  0  0  0  0  0  0  0  0  0  0  0  0
   -6.1878   -0.5591   -2.9301 C   0  0  0  0  0  0  0  0  0  0  0  0
    3.0276   -2.6729    0.8183 C   0  0  0  0  0  0  0  0  0  0  0  0
   -7.0269   -0.7459   -3.6975 N   0  0  0  0  0  0  0  0  0  0  0  0
    0.5944   -3.8431    0.1773 C   0  0  0  0  0  0  0  0  0  0  0  0
    2.0352   -1.9136    0.2034 C   0  0  0  0  0  0  0  0  0  0  0  0
    0.8163   -2.5071   -0.1189 C   0  0  0  0  0  0  0  0  0  0  0  0
    0.3047    0.3796    1.1566 C   0  0  0  0  0  0  0  0  0  0  0  0
   -2.8315    3.0019    3.3681 N   0  0  0  0  0  0  0  0  0  0  0  0
   -2.6721    1.6889    3.0433 C   0  0  0  0  0  0  0  0  0  0  0  0
   -2.3101    1.5587    1.7307 C   0  0  0  0  0  0  0  0  0  0  0  0
   -2.2434    2.8404    1.2449 N   0  0  0  0  0  0  0  0  0  0  0  0
   -2.5589    3.6589    2.2690 C   0  0  0  0  0  0  0  0  0  0  0  0
   -1.8263    3.2704   -0.0736 C   0  0  0  0  0  0  0  0  0  0  0  0
    1.7678    1.8217   -0.0583 N   0  0  0  0  0  0  0  0  0  0  0  0
    1.5153    0.5608    0.2885 C   0  0  0  0  0  0  0  0  0  0  0  0
    2.3144   -0.5029   -0.1379 C   0  0  0  0  0  0  0  0  0  0  0  0
    3.4231   -0.1962   -0.9187 C   0  0  0  0  0  0  0  0  0  0  0  0
    3.6816    1.1202   -1.2714 C   0  0  0  0  0  0  0  0  0  0  0  0
    2.7942    2.0947   -0.8106 C   0  0  0  0  0  0  0  0  0  0  0  0
    4.8048    1.4537   -2.0785 C   0  0  0  0  0  0  0  0  0  0  0  0
    5.7210    1.7104   -2.7264 N   0  0  0  0  0  0  0  0  0  0  0  0
    3.0516    3.7426   -1.2334 Cl  0  0  0  0  0  0  0  0  0  0  0  0
   -2.1028   -0.5173    1.6335 H   0  0  0  0  0  0  0  0  0  0  0  0
   -4.6898    0.0465    1.3446 H   0  0  0  0  0  0  0  0  0  0  0  0
   -6.4811   -0.3440   -0.2857 H   0  0  0  0  0  0  0  0  0  0  0  0
   -3.5915   -0.2822   -3.4588 H   0  0  0  0  0  0  0  0  0  0  0  0
   -1.8034    0.0949   -1.8288 H   0  0  0  0  0  0  0  0  0  0  0  0
    1.4005   -5.6471    1.0259 H   0  0  0  0  0  0  0  0  0  0  0  0
    3.9757   -2.2228    1.0831 H   0  0  0  0  0  0  0  0  0  0  0  0
   -0.3516   -4.3001   -0.0800 H   0  0  0  0  0  0  0  0  0  0  0  0
    0.0460   -1.9339   -0.6165 H   0  0  0  0  0  0  0  0  0  0  0  0
    0.2464    1.2225    1.8532 H   0  0  0  0  0  0  0  0  0  0  0  0
    0.3671   -0.5399    1.7486 H   0  0  0  0  0  0  0  0  0  0  0  0
   -2.8284    0.8939    3.7579 H   0  0  0  0  0  0  0  0  0  0  0  0
   -2.5709    4.7328    2.1534 H   0  0  0  0  0  0  0  0  0  0  0  0
   -0.7669    3.0763   -0.2275 H   0  0  0  0  0  0  0  0  0  0  0  0
   -2.3962    2.7605   -0.8467 H   0  0  0  0  0  0  0  0  0  0  0  0
   -2.0074    4.3380   -0.1629 H   0  0  0  0  0  0  0  0  0  0  0  0
    4.0792   -0.9826   -1.2680 H   0  0  0  0  0  0  0  0  0  0  0  0
  1  2  1  0
  1 18  1  0
  2  3  1  0
  2 21  1  0
  2 34  1  1
  3  4  2  0
  3  8  1  0
  4  5  1  0
  4 35  1  0
  5  6  2  0
  5 36  1  0
  6  7  1  0
  6 12  1  0
  7  8  2  0
  7 37  1  0
  8 38  1  0
  9 10  2  0
  9 15  1  0
  9 39  1  0
 10 11  1  0
 10 13  1  0
 12 14  3  0
 13 16  2  0
 13 40  1  0
 15 17  2  0
 15 41  1  0
 16 17  1  0
 16 27  1  0
 17 42  1  0
 18 26  1  0
 18 43  1  0
 18 44  1  0
 19 20  1  0
 19 23  2  0
 20 21  2  0
 20 45  1  0
 21 22  1  0
 22 23  1  0
 22 24  1  0
 23 46  1  0
 24 47  1  0
 24 48  1  0
 24 49  1  0
 25 26  2  0
 25 30  1  0
 26 27  1  0
 27 28  2  0
 28 29  1  0
 28 50  1  0
 29 30  2  0
 29 31  1  0
 30 33  1  0
 31 32  3  0
M  END
