
     RDKit          3D

 87 91  0  0  0  0  0  0  0  0999 V2000
   -4.6011   -1.0572    2.1560 S   0  0  1  0  0  0  0  0  0  0  0  0
   -4.6678   -0.1856    0.6279 C   0  0  0  0  0  0  0  0  0  0  0  0
   -2.9985   -1.5620    2.2521 N   0  0  0  0  0  0  0  0  0  0  0  0
   -4.8882   -0.1553    3.2483 O   0  0  0  0  0  0  0  0  0  0  0  0
   -5.3349   -2.3046    2.0403 O   0  0  0  0  0  0  0  0  0  0  0  0
   -4.8140   -0.9096   -0.5457 C   0  0  0  0  0  0  0  0  0  0  0  0
   -4.5114    1.1944    0.6044 C   0  0  0  0  0  0  0  0  0  0  0  0
   -1.9322   -0.7138    2.0516 C   0  0  0  0  0  0  0  0  0  0  0  0
   -4.8047   -0.2386   -1.7585 C   0  0  0  0  0  0  0  0  0  0  0  0
   -4.4975    1.8398   -0.6183 C   0  0  0  0  0  0  0  0  0  0  0  0
   -0.7423   -1.1963    1.5283 C   0  0  0  0  0  0  0  0  0  0  0  0
   -2.0902    0.5680    2.3540 N   0  0  0  0  0  0  0  0  0  0  0  0
   -4.6397    1.1441   -1.8221 C   0  0  0  0  0  0  0  0  0  0  0  0
    0.2833   -0.2636    1.3607 C   0  0  0  0  0  0  0  0  0  0  0  0
   -0.5856   -2.5031    1.1978 O   0  0  0  0  0  0  0  0  0  0  0  0
   -1.0675    1.3688    2.1330 C   0  0  0  0  0  0  0  0  0  0  0  0
   -4.6021    1.9066   -3.1394 C   0  0  1  0  0  0  0  0  0  0  0  0
    0.1200    1.0078    1.6706 N   0  0  0  0  0  0  0  0  0  0  0  0
    1.4195   -0.6976    0.8564 O   0  0  0  0  0  0  0  0  0  0  0  0
   -0.8591   -2.8762   -0.0970 C   0  0  0  0  0  0  0  0  0  0  0  0
   -1.2706    2.8196    2.4144 C   0  0  0  0  0  0  0  0  0  0  0  0
   -4.7796    0.9899   -4.3489 C   0  0  0  0  0  0  0  0  0  0  0  0
   -5.7309    2.9468   -3.1515 C   0  0  0  0  0  0  0  0  0  0  0  0
   -3.2478    2.6198   -3.2618 C   0  0  0  0  0  0  0  0  0  0  0  0
    2.4881    0.2396    0.6774 C   0  0  0  0  0  0  0  0  0  0  0  0
   -0.5447   -4.2083   -0.4093 C   0  0  0  0  0  0  0  0  0  0  0  0
   -1.4291   -2.0449   -1.0401 C   0  0  0  0  0  0  0  0  0  0  0  0
   -0.1893    3.5852    2.4359 N   0  0  0  0  0  0  0  0  0  0  0  0
   -2.5170    3.2287    2.6063 N   0  0  0  0  0  0  0  0  0  0  0  0
    3.6064   -0.5192   -0.0026 C   0  0  0  0  0  0  0  0  0  0  0  0
   -0.8139   -4.6756   -1.6880 C   0  0  0  0  0  0  0  0  0  0  0  0
    0.0006   -4.9297    0.5841 O   0  0  0  0  0  0  0  0  0  0  0  0
   -1.6942   -2.5266   -2.3201 C   0  0  0  0  0  0  0  0  0  0  0  0
   -0.3753    4.8766    2.6703 C   0  0  0  0  0  0  0  0  0  0  0  0
   -2.6940    4.5227    2.8313 C   0  0  0  0  0  0  0  0  0  0  0  0
    4.8172    0.3599   -0.2271 C   0  0  0  0  0  0  0  0  0  0  0  0
   -1.3871   -3.8346   -2.6394 C   0  0  0  0  0  0  0  0  0  0  0  0
    0.3265   -6.2817    0.3275 C   0  0  0  0  0  0  0  0  0  0  0  0
   -1.6349    5.4136    2.8754 C   0  0  0  0  0  0  0  0  0  0  0  0
    5.8069   -0.2261   -0.9343 N   0  0  0  0  0  0  0  0  0  0  0  0
    4.8922    1.5001    0.1987 O   0  0  0  0  0  0  0  0  0  0  0  0
    7.0456    0.4076   -1.2059 C   0  0  0  0  0  0  0  0  0  0  0  0
    7.1163    1.3878   -2.1993 C   0  0  0  0  0  0  0  0  0  0  0  0
    8.1723    0.0139   -0.4791 C   0  0  0  0  0  0  0  0  0  0  0  0
    8.3503    1.9829   -2.4486 C   0  0  0  0  0  0  0  0  0  0  0  0
    5.9053    1.7897   -2.9871 C   0  0  0  0  0  0  0  0  0  0  0  0
    9.3902    0.6248   -0.7625 C   0  0  0  0  0  0  0  0  0  0  0  0
    8.0714   -1.0399    0.5843 C   0  0  0  0  0  0  0  0  0  0  0  0
    9.4790    1.6065   -1.7373 C   0  0  0  0  0  0  0  0  0  0  0  0
   -2.8695   -2.5450    2.0424 H   0  0  0  0  0  0  0  0  0  0  0  0
   -4.9326   -1.9846   -0.5327 H   0  0  0  0  0  0  0  0  0  0  0  0
   -4.3684    1.7589    1.5151 H   0  0  0  0  0  0  0  0  0  0  0  0
   -4.9247   -0.8226   -2.6598 H   0  0  0  0  0  0  0  0  0  0  0  0
   -4.3623    2.9138   -0.6244 H   0  0  0  0  0  0  0  0  0  0  0  0
   -5.7372    0.4665   -4.3308 H   0  0  0  0  0  0  0  0  0  0  0  0
   -4.7544    1.5852   -5.2626 H   0  0  0  0  0  0  0  0  0  0  0  0
   -3.9857    0.2441   -4.4246 H   0  0  0  0  0  0  0  0  0  0  0  0
   -5.6367    3.6614   -2.3341 H   0  0  0  0  0  0  0  0  0  0  0  0
   -5.7094    3.5102   -4.0863 H   0  0  0  0  0  0  0  0  0  0  0  0
   -6.7087    2.4691   -3.0711 H   0  0  0  0  0  0  0  0  0  0  0  0
   -2.4208    1.9081   -3.2352 H   0  0  0  0  0  0  0  0  0  0  0  0
   -3.1947    3.1620   -4.2082 H   0  0  0  0  0  0  0  0  0  0  0  0
   -3.0924    3.3443   -2.4609 H   0  0  0  0  0  0  0  0  0  0  0  0
    2.1502    1.0795    0.0692 H   0  0  0  0  0  0  0  0  0  0  0  0
    2.8000    0.6298    1.6469 H   0  0  0  0  0  0  0  0  0  0  0  0
   -1.6788   -1.0193   -0.8007 H   0  0  0  0  0  0  0  0  0  0  0  0
    3.9063   -1.3812    0.6009 H   0  0  0  0  0  0  0  0  0  0  0  0
    3.2666   -0.9174   -0.9624 H   0  0  0  0  0  0  0  0  0  0  0  0
   -0.5813   -5.6958   -1.9609 H   0  0  0  0  0  0  0  0  0  0  0  0
   -2.1420   -1.8703   -3.0541 H   0  0  0  0  0  0  0  0  0  0  0  0
    0.5091    5.5026    2.6949 H   0  0  0  0  0  0  0  0  0  0  0  0
   -3.7135    4.8580    2.9811 H   0  0  0  0  0  0  0  0  0  0  0  0
   -1.5893   -4.2180   -3.6305 H   0  0  0  0  0  0  0  0  0  0  0  0
    0.7425   -6.6779    1.2502 H   0  0  0  0  0  0  0  0  0  0  0  0
   -0.5546   -6.8693    0.0578 H   0  0  0  0  0  0  0  0  0  0  0  0
    1.0722   -6.3791   -0.4657 H   0  0  0  0  0  0  0  0  0  0  0  0
   -1.7830    6.4674    3.0588 H   0  0  0  0  0  0  0  0  0  0  0  0
    5.6999   -1.1946   -1.1979 H   0  0  0  0  0  0  0  0  0  0  0  0
    8.4255    2.7454   -3.2141 H   0  0  0  0  0  0  0  0  0  0  0  0
    5.2103    2.3702   -2.3790 H   0  0  0  0  0  0  0  0  0  0  0  0
    6.1863    2.4033   -3.8418 H   0  0  0  0  0  0  0  0  0  0  0  0
    5.3592    0.9223   -3.3589 H   0  0  0  0  0  0  0  0  0  0  0  0
   10.2733    0.3327   -0.2072 H   0  0  0  0  0  0  0  0  0  0  0  0
    7.7623   -2.0038    0.1753 H   0  0  0  0  0  0  0  0  0  0  0  0
    9.0322   -1.1847    1.0755 H   0  0  0  0  0  0  0  0  0  0  0  0
    7.3424   -0.7709    1.3507 H   0  0  0  0  0  0  0  0  0  0  0  0
   10.4311    2.0779   -1.9448 H   0  0  0  0  0  0  0  0  0  0  0  0
 33 37  2  0
 33 27  1  0
 37 31  1  0
 27 20  2  0
 31 26  2  0
 25 19  1  0
 25 30  1  0
 19 14  1  0
 30 36  1  0
 20 26  1  0
 20 15  1  0
 35 29  2  0
 35 39  1  0
 26 32  1  0
 18 14  2  0
 18 16  1  0
 29 21  1  0
 39 34  2  0
 14 11  1  0
 21 16  1  0
 21 28  2  0
 34 28  1  0
 16 12  2  0
 11 15  1  0
 11  8  2  0
  4  1  2  0
 12  8  1  0
 36 40  1  0
 36 41  2  0
  8  3  1  0
 32 38  1  0
 40 42  1  0
 48 44  1  0
  1  3  1  1
  1  5  2  0
  1  2  1  0
 42 44  1  0
 42 43  2  0
 44 47  2  0
  7  2  1  0
  7 10  2  0
  2  6  2  0
 46 43  1  0
 10 13  1  0
 43 45  1  0
 47 49  1  0
  6  9  1  0
 13  9  2  0
 13 17  1  0
 17 23  1  1
 45 49  2  0
 22 17  1  0
 17 24  1  0
  3 50  1  0
  6 51  1  0
  7 52  1  0
  9 53  1  0
 10 54  1  0
 22 55  1  0
 22 56  1  0
 22 57  1  0
 23 58  1  0
 23 59  1  0
 23 60  1  0
 24 61  1  0
 24 62  1  0
 24 63  1  0
 25 64  1  0
 25 65  1  0
 27 66  1  0
 30 67  1  0
 30 68  1  0
 31 69  1  0
 33 70  1  0
 34 71  1  0
 35 72  1  0
 37 73  1  0
 38 74  1  0
 38 75  1  0
 38 76  1  0
 39 77  1  0
 40 78  1  0
 45 79  1  0
 46 80  1  0
 46 81  1  0
 46 82  1  0
 47 83  1  0
 48 84  1  0
 48 85  1  0
 48 86  1  0
 49 87  1  0
M  END
