
     RDKit          3D

 30 29  0  0  0  0  0  0  0  0999 V2000
   -0.4229    2.1437   -0.0325 N   0  0  0  0  0  0  0  0  0  0  0  0
    0.0021    0.7675    0.1661 C   0  0  2  0  0  0  0  0  0  0  0  0
    1.4051    0.4912   -0.4136 C   0  0  1  0  0  0  0  0  0  0  0  0
    2.3635    1.3914    0.1203 O   0  0  0  0  0  0  0  0  0  0  0  0
    1.8615   -0.9396   -0.2492 C   0  0  0  0  0  0  0  0  0  0  0  0
    2.0597   -1.4427    1.1504 C   0  0  0  0  0  0  0  0  0  0  0  0
    2.0862   -1.7050   -1.3140 C   0  0  0  0  0  0  0  0  0  0  0  0
   -1.0243   -0.1906   -0.4330 C   0  0  0  0  0  0  0  0  0  0  0  0
   -2.4718    0.0412    0.0006 C   0  0  1  0  0  0  0  0  0  0  0  0
   -3.3865   -0.9580   -0.7010 C   0  0  0  0  0  0  0  0  0  0  0  0
   -2.6321   -0.0504    1.5139 C   0  0  0  0  0  0  0  0  0  0  0  0
    0.3035    2.7760    0.2803 H   0  0  0  0  0  0  0  0  0  0  0  0
    0.0486    0.5999    1.2504 H   0  0  0  0  0  0  0  0  0  0  0  0
    1.3599    0.7170   -1.4849 H   0  0  0  0  0  0  0  0  0  0  0  0
    2.3491    1.3266    1.0814 H   0  0  0  0  0  0  0  0  0  0  0  0
    2.8123   -0.8591    1.6860 H   0  0  0  0  0  0  0  0  0  0  0  0
    1.1404   -1.3811    1.7381 H   0  0  0  0  0  0  0  0  0  0  0  0
    2.3873   -2.4811    1.1561 H   0  0  0  0  0  0  0  0  0  0  0  0
    1.9450   -1.3301   -2.3208 H   0  0  0  0  0  0  0  0  0  0  0  0
    2.4104   -2.7347   -1.2203 H   0  0  0  0  0  0  0  0  0  0  0  0
   -0.9626   -0.1253   -1.5271 H   0  0  0  0  0  0  0  0  0  0  0  0
   -0.7430   -1.2181   -0.1823 H   0  0  0  0  0  0  0  0  0  0  0  0
   -2.7681    1.0473   -0.3104 H   0  0  0  0  0  0  0  0  0  0  0  0
   -4.4340   -0.7851   -0.4476 H   0  0  0  0  0  0  0  0  0  0  0  0
   -3.2927   -0.8900   -1.7868 H   0  0  0  0  0  0  0  0  0  0  0  0
   -3.1423   -1.9837   -0.4130 H   0  0  0  0  0  0  0  0  0  0  0  0
   -2.0463    0.7116    2.0294 H   0  0  0  0  0  0  0  0  0  0  0  0
   -3.6749    0.0856    1.8073 H   0  0  0  0  0  0  0  0  0  0  0  0
   -2.3104   -1.0278    1.8844 H   0  0  0  0  0  0  0  0  0  0  0  0
   -0.5370    2.3203   -1.0249 H   0  0  0  0  0  0  0  0  0  0  0  0
 10  9  1  0
  1  2  1  0
  6  5  1  0
  2  8  1  0
  2  3  1  0
  9 11  1  0
  9  8  1  0
  5  7  2  0
  5  3  1  0
  3  4  1  0
  1 12  1  0
  2 13  1  1
  3 14  1  6
  4 15  1  0
  6 16  1  0
  6 17  1  0
  6 18  1  0
  7 19  1  0
  7 20  1  0
  8 21  1  0
  8 22  1  0
  9 23  1  6
 10 24  1  0
 10 25  1  0
 10 26  1  0
 11 27  1  0
 11 28  1  0
 11 29  1  0
  1 30  1  0
M  END
