
     RDKit          3D

 46 49  0  0  0  0  0  0  0  0999 V2000
    2.6533   -0.1462   -0.0091 C   0  0  0  0  0  0  0  0  0  0  0  0
    5.0070    0.1571    0.5168 C   0  0  0  0  0  0  0  0  0  0  0  0
    0.1863   -0.1009   -0.3839 N   0  0  0  0  0  0  0  0  0  0  0  0
    5.3367    0.0776   -0.8612 C   0  0  0  0  0  0  0  0  0  0  0  0
   -4.2177    1.1728   -0.1107 C   0  0  2  0  0  0  0  0  0  0  0  0
   -5.1453   -0.0276    0.0885 C   0  0  1  0  0  0  0  0  0  0  0  0
   -6.3867    0.2747   -0.4981 O   0  0  0  0  0  0  0  0  0  0  0  0
   -2.9387    0.8825    0.4160 O   0  0  0  0  0  0  0  0  0  0  0  0
   -2.3010   -0.2000   -0.2212 C   0  0  2  0  0  0  0  0  0  0  0  0
   -3.1060   -1.4801   -0.0077 C   0  0  2  0  0  0  0  0  0  0  0  0
   -2.4405   -2.5182   -0.6851 O   0  0  0  0  0  0  0  0  0  0  0  0
   -4.5188   -1.2665   -0.5408 C   0  0  1  0  0  0  0  0  0  0  0  0
   -5.3606   -2.3628   -0.2576 O   0  0  0  0  0  0  0  0  0  0  0  0
   -0.9271   -0.3228    0.3417 C   0  0  0  0  0  0  0  0  0  0  0  0
   -0.6282   -0.6456    1.5762 N   0  0  0  0  0  0  0  0  0  0  0  0
    0.7293   -0.6225    1.6459 C   0  0  0  0  0  0  0  0  0  0  0  0
    1.2723   -0.2824    0.4294 C   0  0  0  0  0  0  0  0  0  0  0  0
    3.6572    0.0488    0.9119 C   0  0  0  0  0  0  0  0  0  0  0  0
    6.0463    0.3523    1.4587 C   0  0  0  0  0  0  0  0  0  0  0  0
    7.3468    0.4594    1.0484 C   0  0  0  0  0  0  0  0  0  0  0  0
    7.6733    0.3780   -0.3226 C   0  0  0  0  0  0  0  0  0  0  0  0
    6.6896    0.1918   -1.2556 C   0  0  0  0  0  0  0  0  0  0  0  0
    4.2919   -0.1151   -1.7941 C   0  0  0  0  0  0  0  0  0  0  0  0
    2.9942   -0.2281   -1.3843 C   0  0  0  0  0  0  0  0  0  0  0  0
    0.2026    0.1945   -1.3482 H   0  0  0  0  0  0  0  0  0  0  0  0
   -4.2252    4.2714    0.7334 H   0  0  0  0  0  0  0  0  0  0  0  0
   -5.2528   -0.2037    1.1714 H   0  0  0  0  0  0  0  0  0  0  0  0
   -6.9509   -0.5020   -0.4188 H   0  0  0  0  0  0  0  0  0  0  0  0
   -2.2193   -0.0149   -1.3049 H   0  0  0  0  0  0  0  0  0  0  0  0
   -3.1536   -1.6750    1.0720 H   0  0  0  0  0  0  0  0  0  0  0  0
   -2.6720   -3.3556   -0.2740 H   0  0  0  0  0  0  0  0  0  0  0  0
   -4.4537   -1.0987   -1.6271 H   0  0  0  0  0  0  0  0  0  0  0  0
   -5.2227   -3.0420   -0.9242 H   0  0  0  0  0  0  0  0  0  0  0  0
    1.2561   -0.8718    2.5548 H   0  0  0  0  0  0  0  0  0  0  0  0
    3.4205    0.1351    1.9660 H   0  0  0  0  0  0  0  0  0  0  0  0
    5.7983    0.4145    2.5115 H   0  0  0  0  0  0  0  0  0  0  0  0
    8.1337    0.6069    1.7764 H   0  0  0  0  0  0  0  0  0  0  0  0
    8.7070    0.4641   -0.6314 H   0  0  0  0  0  0  0  0  0  0  0  0
    6.9361    0.1296   -2.3089 H   0  0  0  0  0  0  0  0  0  0  0  0
    4.5307   -0.1817   -2.8486 H   0  0  0  0  0  0  0  0  0  0  0  0
    2.2251   -0.3975   -2.1273 H   0  0  0  0  0  0  0  0  0  0  0  0
   -4.1403    1.3770   -1.1914 H   0  0  0  0  0  0  0  0  0  0  0  0
   -4.7349    2.4113    0.5898 C   0  0  0  0  0  0  0  0  0  0  0  0
   -4.7695    2.2209    1.6714 H   0  0  0  0  0  0  0  0  0  0  0  0
   -3.8919    3.4943    0.2764 O   0  0  0  0  0  0  0  0  0  0  0  0
   -5.7637    2.5895    0.2603 H   0  0  0  0  0  0  0  0  0  0  0  0
 13 12  1  0
  7  6  1  0
 12  6  1  0
 12 10  1  0
  6  5  1  0
 11 10  1  0
 10  9  1  0
 45 43  1  0
  5 43  1  0
  5  8  1  0
  9  8  1  0
  9 14  1  0
 15 14  2  0
 15 16  1  0
 14  3  1  0
 16 17  2  0
  3 17  1  0
 17  1  1  0
  1 18  2  0
  1 24  1  0
 18  2  1  0
 24 23  2  0
  2 19  2  0
  2  4  1  0
 19 20  1  0
 23  4  1  0
  4 22  2  0
 20 21  2  0
 22 21  1  0
  3 25  1  0
 45 26  1  0
 43 44  1  0
 43 46  1  0
  5 42  1  6
  6 27  1  1
  7 28  1  0
  9 29  1  6
 10 30  1  1
 11 31  1  0
 12 32  1  6
 13 33  1  0
 16 34  1  0
 18 35  1  0
 19 36  1  0
 20 37  1  0
 21 38  1  0
 22 39  1  0
 23 40  1  0
 24 41  1  0
M  END
