
     RDKit          3D

 59 63  0  0  0  0  0  0  0  0999 V2000
   -1.5961   -0.2486    0.0003 C   0  0  0  0  0  0  0  0  0  0  0  0
   -1.6156    0.8528    0.8650 C   0  0  0  0  0  0  0  0  0  0  0  0
   -0.3918    1.4488    1.1179 C   0  0  0  0  0  0  0  0  0  0  0  0
    0.7451    1.0070    0.6039 N   0  0  0  0  0  0  0  0  0  0  0  0
   -0.4651   -0.6938   -0.5075 N   0  0  0  0  0  0  0  0  0  0  0  0
   -4.3278   -2.7903    0.0181 C   0  0  0  0  0  0  0  0  0  0  0  0
   -4.4677   -3.8443    1.1344 C   0  0  0  0  0  0  0  0  0  0  0  0
   -3.4335   -3.4571    2.2116 C   0  0  0  0  0  0  0  0  0  0  0  0
   -2.5071   -2.4570    1.5250 C   0  0  0  0  0  0  0  0  0  0  0  0
   -3.4625   -1.6785    0.6231 C   0  0  1  0  0  0  0  0  0  0  0  0
   -2.7810   -0.8873   -0.4016 N   0  0  0  0  0  0  0  0  0  0  0  0
   -3.6334   -0.0477   -1.2368 C   0  0  2  0  0  0  0  0  0  0  0  0
   -3.0278    0.2383   -2.6158 C   0  0  0  0  0  0  0  0  0  0  0  0
   -2.2277    1.5328   -2.4762 C   0  0  0  0  0  0  0  0  0  0  0  0
   -2.9893    2.3630   -1.4315 C   0  0  0  0  0  0  0  0  0  0  0  0
   -3.9434    1.3818   -0.6976 C   0  0  2  0  0  0  0  0  0  0  0  0
   -3.9562    1.5205    0.8068 C   0  0  0  0  0  0  0  0  0  0  0  0
   -4.9677    1.8372    1.4130 O   0  0  0  0  0  0  0  0  0  0  0  0
   -2.7945    1.2996    1.4849 N   0  0  0  0  0  0  0  0  0  0  0  0
   -2.8169    1.4384    2.9358 C   0  0  0  0  0  0  0  0  0  0  0  0
    0.6625   -0.0576   -0.1826 C   0  0  0  0  0  0  0  0  0  0  0  0
    1.7850   -0.5945   -0.7429 N   0  0  0  0  0  0  0  0  0  0  0  0
    3.1087   -0.1961   -0.7186 C   0  0  0  0  0  0  0  0  0  0  0  0
    4.0172   -1.0102   -1.4104 C   0  0  0  0  0  0  0  0  0  0  0  0
    5.3566   -0.6936   -1.4627 C   0  0  0  0  0  0  0  0  0  0  0  0
    5.8546    0.4404   -0.8200 C   0  0  0  0  0  0  0  0  0  0  0  0
    7.3136    0.7287   -0.9237 C   0  0  0  0  0  0  0  0  0  0  0  0
    8.0199    0.1254   -1.7231 O   0  0  0  0  0  0  0  0  0  0  0  0
    7.8066    1.6762   -0.1094 N   0  0  0  0  0  0  0  0  0  0  0  0
    4.9478    1.2473   -0.1385 C   0  0  0  0  0  0  0  0  0  0  0  0
    3.5967    0.9470   -0.0788 C   0  0  0  0  0  0  0  0  0  0  0  0
   -0.3256    2.3179    1.7646 H   0  0  0  0  0  0  0  0  0  0  0  0
   -5.2961   -2.4346   -0.3357 H   0  0  0  0  0  0  0  0  0  0  0  0
   -5.4762   -3.8629    1.5481 H   0  0  0  0  0  0  0  0  0  0  0  0
   -4.2739   -4.8425    0.7408 H   0  0  0  0  0  0  0  0  0  0  0  0
   -3.9293   -2.9747    3.0566 H   0  0  0  0  0  0  0  0  0  0  0  0
   -2.8948   -4.3172    2.6090 H   0  0  0  0  0  0  0  0  0  0  0  0
   -1.9649   -1.8282    2.2340 H   0  0  0  0  0  0  0  0  0  0  0  0
   -1.7685   -2.9756    0.9061 H   0  0  0  0  0  0  0  0  0  0  0  0
   -4.1012   -1.0577    1.2701 H   0  0  0  0  0  0  0  0  0  0  0  0
   -4.5692   -0.5945   -1.3505 H   0  0  0  0  0  0  0  0  0  0  0  0
   -2.4414   -0.6058   -2.9797 H   0  0  0  0  0  0  0  0  0  0  0  0
   -3.8473    0.3918   -3.3223 H   0  0  0  0  0  0  0  0  0  0  0  0
   -1.2086    1.3319   -2.1434 H   0  0  0  0  0  0  0  0  0  0  0  0
   -2.1421    2.0604   -3.4266 H   0  0  0  0  0  0  0  0  0  0  0  0
   -2.3087    2.8793   -0.7542 H   0  0  0  0  0  0  0  0  0  0  0  0
   -3.5857    3.1392   -1.9107 H   0  0  0  0  0  0  0  0  0  0  0  0
   -4.9633    1.6104   -1.0079 H   0  0  0  0  0  0  0  0  0  0  0  0
   -2.9963    2.4694    3.2385 H   0  0  0  0  0  0  0  0  0  0  0  0
   -3.5927    0.8092    3.3718 H   0  0  0  0  0  0  0  0  0  0  0  0
   -1.8595    1.1220    3.3392 H   0  0  0  0  0  0  0  0  0  0  0  0
    1.5920   -1.4154   -1.2976 H   0  0  0  0  0  0  0  0  0  0  0  0
    3.6617   -1.9024   -1.9123 H   0  0  0  0  0  0  0  0  0  0  0  0
    6.0277   -1.3419   -2.0094 H   0  0  0  0  0  0  0  0  0  0  0  0
    7.2774    2.0862    0.6389 H   0  0  0  0  0  0  0  0  0  0  0  0
    8.7925    1.8789   -0.1290 H   0  0  0  0  0  0  0  0  0  0  0  0
    5.2673    2.1571    0.3540 H   0  0  0  0  0  0  0  0  0  0  0  0
    2.9321    1.6020    0.4590 H   0  0  0  0  0  0  0  0  0  0  0  0
   -3.7966   -3.2033   -0.8428 H   0  0  0  0  0  0  0  0  0  0  0  0
  4  3  2  0
  4 21  1  0
 22 21  1  0
 22 23  1  0
  3  2  1  0
 21  5  2  0
 24 23  2  0
 24 25  1  0
 23 31  1  0
 31 30  2  0
 25 26  2  0
  5  1  1  0
  2 19  1  0
  2  1  2  0
 20 19  1  0
 29 27  1  0
 30 26  1  0
 19 17  1  0
 26 27  1  0
  1 11  1  0
 17 18  2  0
 17 16  1  0
 27 28  2  0
 16 12  1  0
 16 15  1  0
 11 10  1  0
 11 12  1  0
 10  6  1  0
 10  9  1  0
 12 13  1  0
 15 14  1  0
  6  7  1  0
  7  8  1  0
  9  8  1  0
 13 14  1  0
  3 32  1  0
  6 59  1  0
  6 33  1  0
  7 34  1  0
  7 35  1  0
  8 36  1  0
  8 37  1  0
  9 38  1  0
  9 39  1  0
 10 40  1  1
 12 41  1  6
 13 42  1  0
 13 43  1  0
 14 44  1  0
 14 45  1  0
 15 46  1  0
 15 47  1  0
 16 48  1  6
 20 49  1  0
 20 50  1  0
 20 51  1  0
 22 52  1  0
 24 53  1  0
 25 54  1  0
 29 55  1  0
 29 56  1  0
 30 57  1  0
 31 58  1  0
M  END
