
     RDKit          3D

 18 18  0  0  0  0  0  0  0  0999 V2000
    2.6721   -0.0342    0.6536 N   0  0  0  0  0  0  0  0  0  0  0  0
    1.8996    0.0441   -0.6209 C   0  0  0  0  0  0  0  0  0  0  0  0
    0.4271    0.0318   -0.3460 C   0  0  0  0  0  0  0  0  0  0  0  0
   -0.2464   -1.1771   -0.1919 C   0  0  0  0  0  0  0  0  0  0  0  0
   -1.6044   -1.1902    0.0905 C   0  0  0  0  0  0  0  0  0  0  0  0
   -2.2989    0.0064    0.2165 C   0  0  0  0  0  0  0  0  0  0  0  0
   -1.6329    1.2147    0.0613 C   0  0  0  0  0  0  0  0  0  0  0  0
   -0.2736    1.2271   -0.2195 C   0  0  0  0  0  0  0  0  0  0  0  0
    2.4625    0.7479    1.2743 H   0  0  0  0  0  0  0  0  0  0  0  0
    2.4708   -0.8912    1.1684 H   0  0  0  0  0  0  0  0  0  0  0  0
    3.6773   -0.0180    0.4808 H   0  0  0  0  0  0  0  0  0  0  0  0
    2.2168    0.9577   -1.1180 H   0  0  0  0  0  0  0  0  0  0  0  0
    2.2132   -0.8052   -1.2235 H   0  0  0  0  0  0  0  0  0  0  0  0
    0.2919   -2.1116   -0.3006 H   0  0  0  0  0  0  0  0  0  0  0  0
   -2.1213   -2.1333    0.2078 H   0  0  0  0  0  0  0  0  0  0  0  0
   -3.3600   -0.0034    0.4290 H   0  0  0  0  0  0  0  0  0  0  0  0
   -2.1725    2.1479    0.1544 H   0  0  0  0  0  0  0  0  0  0  0  0
    0.2428    2.1711   -0.3477 H   0  0  0  0  0  0  0  0  0  0  0  0
  1  2  1  0
  2  3  1  0
  3  8  2  0
  3  4  1  0
  8  7  1  0
  4  5  2  0
  7  6  2  0
  5  6  1  0
  1  9  1  0
  1 10  1  0
  1 11  1  0
  2 12  1  0
  2 13  1  0
  4 14  1  0
  5 15  1  0
  6 16  1  0
  7 17  1  0
  8 18  1  0
M  CHG  1   1   1
M  END
