
     RDKit          3D

 94 93  0  0  0  0  0  0  0  0999 V2000
   -3.4365   -1.7036  -14.8342 C   0  0  0  0  0  0  0  0  0  0  0  0
   -3.2032   -0.6149  -13.9795 O   0  0  0  0  0  0  0  0  0  0  0  0
   -1.8373   -0.3180  -13.8461 C   0  0  0  0  0  0  0  0  0  0  0  0
   -1.6578    0.8509  -12.9122 C   0  0  0  0  0  0  0  0  0  0  0  0
   -2.0705    0.4934  -11.6178 O   0  0  0  0  0  0  0  0  0  0  0  0
   -1.9408    1.5459  -10.6967 C   0  0  0  0  0  0  0  0  0  0  0  0
   -2.4398    1.1049   -9.3452 C   0  0  0  0  0  0  0  0  0  0  0  0
   -1.6143    0.0852   -8.8431 O   0  0  0  0  0  0  0  0  0  0  0  0
   -2.0182   -0.3624   -7.5743 C   0  0  0  0  0  0  0  0  0  0  0  0
   -1.1102   -1.4714   -7.1103 C   0  0  0  0  0  0  0  0  0  0  0  0
    0.1893   -0.9734   -6.9178 O   0  0  0  0  0  0  0  0  0  0  0  0
    1.0821   -1.9549   -6.4571 C   0  0  0  0  0  0  0  0  0  0  0  0
    2.4585   -1.3626   -6.3016 C   0  0  0  0  0  0  0  0  0  0  0  0
    2.4433   -0.3828   -5.2937 O   0  0  0  0  0  0  0  0  0  0  0  0
    3.7094    0.1730   -5.0573 C   0  0  0  0  0  0  0  0  0  0  0  0
    3.6101    1.2108   -3.9721 C   0  0  0  0  0  0  0  0  0  0  0  0
    3.2224    0.5525   -2.7633 O   0  0  0  0  0  0  0  0  0  0  0  0
    3.0439    1.2942   -1.6756 C   0  0  0  0  0  0  0  0  0  0  0  0
    3.2121    2.4882   -1.6545 O   0  0  0  0  0  0  0  0  0  0  0  0
    2.6089    0.4542   -0.5058 C   0  0  0  0  0  0  0  0  0  0  0  0
    2.4176    1.2390    0.7817 C   0  0  0  0  0  0  0  0  0  0  0  0
    1.9766    0.3362    1.9273 C   0  0  0  0  0  0  0  0  0  0  0  0
    1.7724    1.0862    3.2373 C   0  0  0  0  0  0  0  0  0  0  0  0
    1.3195    0.1789    4.3746 C   0  0  0  0  0  0  0  0  0  0  0  0
    1.1118    0.9138    5.6930 C   0  0  0  0  0  0  0  0  0  0  0  0
    0.6466   -0.0027    6.8181 C   0  0  0  0  0  0  0  0  0  0  0  0
    0.4303    0.7197    8.1419 C   0  0  0  0  0  0  0  0  0  0  0  0
   -0.0454   -0.2061    9.2549 C   0  0  0  0  0  0  0  0  0  0  0  0
   -0.2624    0.5034   10.5857 C   0  0  0  0  0  0  0  0  0  0  0  0
   -0.7448   -0.4316   11.6881 C   0  0  0  0  0  0  0  0  0  0  0  0
   -0.9603    0.2657   13.0256 C   0  0  0  0  0  0  0  0  0  0  0  0
   -1.4448   -0.6779   14.1198 C   0  0  0  0  0  0  0  0  0  0  0  0
   -1.6545    0.0085   15.4639 C   0  0  0  0  0  0  0  0  0  0  0  0
   -2.1385   -0.9416   16.5525 C   0  0  0  0  0  0  0  0  0  0  0  0
   -2.3434   -0.2628   17.9012 C   0  0  0  0  0  0  0  0  0  0  0  0
   -2.8224   -1.2230   18.9814 C   0  0  0  0  0  0  0  0  0  0  0  0
   -2.9610   -2.6228  -14.4714 H   0  0  0  0  0  0  0  0  0  0  0  0
   -4.5121   -1.8705  -14.8827 H   0  0  0  0  0  0  0  0  0  0  0  0
   -3.0696   -1.5169  -15.8510 H   0  0  0  0  0  0  0  0  0  0  0  0
   -1.3923   -0.0521  -14.8155 H   0  0  0  0  0  0  0  0  0  0  0  0
   -1.2785   -1.1877  -13.4698 H   0  0  0  0  0  0  0  0  0  0  0  0
   -2.2259    1.7172  -13.2815 H   0  0  0  0  0  0  0  0  0  0  0  0
   -0.5973    1.1390  -12.9253 H   0  0  0  0  0  0  0  0  0  0  0  0
   -2.5286    2.4203  -11.0096 H   0  0  0  0  0  0  0  0  0  0  0  0
   -0.8953    1.8785  -10.6213 H   0  0  0  0  0  0  0  0  0  0  0  0
   -3.4828    0.7650   -9.4233 H   0  0  0  0  0  0  0  0  0  0  0  0
   -2.4402    1.9788   -8.6787 H   0  0  0  0  0  0  0  0  0  0  0  0
   -3.0458   -0.7514   -7.6001 H   0  0  0  0  0  0  0  0  0  0  0  0
   -2.0089    0.4601   -6.8445 H   0  0  0  0  0  0  0  0  0  0  0  0
   -1.1130   -2.2911   -7.8432 H   0  0  0  0  0  0  0  0  0  0  0  0
   -1.5205   -1.8792   -6.1758 H   0  0  0  0  0  0  0  0  0  0  0  0
    1.1512   -2.7927   -7.1651 H   0  0  0  0  0  0  0  0  0  0  0  0
    0.7448   -2.3762   -5.4988 H   0  0  0  0  0  0  0  0  0  0  0  0
    2.7955   -0.9390   -7.2583 H   0  0  0  0  0  0  0  0  0  0  0  0
    3.1530   -2.1763   -6.0509 H   0  0  0  0  0  0  0  0  0  0  0  0
    4.1045    0.6686   -5.9550 H   0  0  0  0  0  0  0  0  0  0  0  0
    4.4371   -0.6023   -4.7780 H   0  0  0  0  0  0  0  0  0  0  0  0
    2.8795    1.9787   -4.2375 H   0  0  0  0  0  0  0  0  0  0  0  0
    4.5820    1.6946   -3.8512 H   0  0  0  0  0  0  0  0  0  0  0  0
    3.3467   -0.3416   -0.3642 H   0  0  0  0  0  0  0  0  0  0  0  0
    1.6806   -0.0552   -0.7845 H   0  0  0  0  0  0  0  0  0  0  0  0
    1.6731    2.0255    0.6320 H   0  0  0  0  0  0  0  0  0  0  0  0
    3.3505    1.7406    1.0527 H   0  0  0  0  0  0  0  0  0  0  0  0
    2.7203   -0.4546    2.0738 H   0  0  0  0  0  0  0  0  0  0  0  0
    1.0454   -0.1703    1.6512 H   0  0  0  0  0  0  0  0  0  0  0  0
    1.0329    1.8810    3.0909 H   0  0  0  0  0  0  0  0  0  0  0  0
    2.7053    1.5858    3.5201 H   0  0  0  0  0  0  0  0  0  0  0  0
    2.0574   -0.6184    4.5162 H   0  0  0  0  0  0  0  0  0  0  0  0
    0.3868   -0.3190    4.0876 H   0  0  0  0  0  0  0  0  0  0  0  0
    0.3786    1.7154    5.5521 H   0  0  0  0  0  0  0  0  0  0  0  0
    2.0462    1.4043    5.9872 H   0  0  0  0  0  0  0  0  0  0  0  0
    1.3809   -0.8038    6.9580 H   0  0  0  0  0  0  0  0  0  0  0  0
   -0.2852   -0.4952    6.5187 H   0  0  0  0  0  0  0  0  0  0  0  0
   -0.3001    1.5244    8.0031 H   0  0  0  0  0  0  0  0  0  0  0  0
    1.3634    1.2055    8.4479 H   0  0  0  0  0  0  0  0  0  0  0  0
    0.6833   -1.0132    9.3891 H   0  0  0  0  0  0  0  0  0  0  0  0
   -0.9792   -0.6895    8.9467 H   0  0  0  0  0  0  0  0  0  0  0  0
   -0.9888    1.3127   10.4532 H   0  0  0  0  0  0  0  0  0  0  0  0
    0.6720    0.9819   10.8991 H   0  0  0  0  0  0  0  0  0  0  0  0
   -0.0202   -1.2435   11.8155 H   0  0  0  0  0  0  0  0  0  0  0  0
   -1.6804   -0.9073   11.3735 H   0  0  0  0  0  0  0  0  0  0  0  0
   -1.6845    1.0782   12.9006 H   0  0  0  0  0  0  0  0  0  0  0  0
   -0.0246    0.7389   13.3432 H   0  0  0  0  0  0  0  0  0  0  0  0
   -0.7233   -1.4938   14.2382 H   0  0  0  0  0  0  0  0  0  0  0  0
   -2.3829   -1.1467   13.8027 H   0  0  0  0  0  0  0  0  0  0  0  0
   -2.3765    0.8243   15.3474 H   0  0  0  0  0  0  0  0  0  0  0  0
   -0.7163    0.4762   15.7825 H   0  0  0  0  0  0  0  0  0  0  0  0
   -1.4187   -1.7601   16.6648 H   0  0  0  0  0  0  0  0  0  0  0  0
   -3.0787   -1.4066   16.2353 H   0  0  0  0  0  0  0  0  0  0  0  0
   -3.0647    0.5526   17.7897 H   0  0  0  0  0  0  0  0  0  0  0  0
   -1.4051    0.2035   18.2174 H   0  0  0  0  0  0  0  0  0  0  0  0
   -2.9483   -0.7179   19.9398 H   0  0  0  0  0  0  0  0  0  0  0  0
   -3.7820   -1.6706   18.7155 H   0  0  0  0  0  0  0  0  0  0  0  0
   -2.1104   -2.0375   19.1282 H   0  0  0  0  0  0  0  0  0  0  0  0
  1  2  1  0
  1 37  1  0
  1 38  1  0
  1 39  1  0
  2  3  1  0
  3  4  1  0
  3 40  1  0
  3 41  1  0
  4  5  1  0
  4 42  1  0
  4 43  1  0
  5  6  1  0
  6  7  1  0
  6 44  1  0
  6 45  1  0
  7  8  1  0
  7 46  1  0
  7 47  1  0
  8  9  1  0
  9 10  1  0
  9 48  1  0
  9 49  1  0
 10 11  1  0
 10 50  1  0
 10 51  1  0
 11 12  1  0
 12 13  1  0
 12 52  1  0
 12 53  1  0
 13 14  1  0
 13 54  1  0
 13 55  1  0
 14 15  1  0
 15 16  1  0
 15 56  1  0
 15 57  1  0
 16 17  1  0
 16 58  1  0
 16 59  1  0
 17 18  1  0
 18 19  2  0
 18 20  1  0
 20 21  1  0
 20 60  1  0
 20 61  1  0
 21 22  1  0
 21 62  1  0
 21 63  1  0
 22 23  1  0
 22 64  1  0
 22 65  1  0
 23 24  1  0
 23 66  1  0
 23 67  1  0
 24 25  1  0
 24 68  1  0
 24 69  1  0
 25 26  1  0
 25 70  1  0
 25 71  1  0
 26 27  1  0
 26 72  1  0
 26 73  1  0
 27 28  1  0
 27 74  1  0
 27 75  1  0
 28 29  1  0
 28 76  1  0
 28 77  1  0
 29 30  1  0
 29 78  1  0
 29 79  1  0
 30 31  1  0
 30 80  1  0
 30 81  1  0
 31 32  1  0
 31 82  1  0
 31 83  1  0
 32 33  1  0
 32 84  1  0
 32 85  1  0
 33 34  1  0
 33 86  1  0
 33 87  1  0
 34 35  1  0
 34 88  1  0
 34 89  1  0
 35 36  1  0
 35 90  1  0
 35 91  1  0
 36 92  1  0
 36 93  1  0
 36 94  1  0
M  END
