
     RDKit          3D

 50 52  0  0  0  0  0  0  0  0999 V2000
    9.5763   -0.7150   -1.1294 C   0  0  0  0  0  0  0  0  0  0  0  0
    8.3674   -0.5210   -0.2320 C   0  0  0  0  0  0  0  0  0  0  0  0
    7.1126   -1.1798   -0.7624 C   0  0  0  0  0  0  0  0  0  0  0  0
    7.0689   -1.8151   -1.8079 O   0  0  0  0  0  0  0  0  0  0  0  0
    6.0281   -1.0273    0.0058 N   0  0  0  0  0  0  0  0  0  0  0  0
    4.6579   -1.4548   -0.2053 C   0  0  0  0  0  0  0  0  0  0  0  0
    4.3010   -0.7783    1.1417 C   0  0  1  0  0  0  0  0  0  0  0  0
    5.7557   -0.2734    1.2173 C   0  0  0  0  0  0  0  0  0  0  0  0
    3.3090    0.2580    1.1120 N   0  0  0  0  0  0  0  0  0  0  0  0
    2.0042   -0.0318    0.9974 C   0  0  0  0  0  0  0  0  0  0  0  0
    1.5710   -1.1680    0.9491 O   0  0  0  0  0  0  0  0  0  0  0  0
    1.0987    1.1891    0.9606 C   0  0  0  0  0  0  0  0  0  0  0  0
   -0.1650    0.7400    0.5530 O   0  0  0  0  0  0  0  0  0  0  0  0
   -1.1966    1.5990    0.4934 C   0  0  0  0  0  0  0  0  0  0  0  0
   -1.1134    2.9612    0.7153 C   0  0  0  0  0  0  0  0  0  0  0  0
   -2.2481    3.7598    0.6169 C   0  0  0  0  0  0  0  0  0  0  0  0
   -3.4544    3.1712    0.2969 C   0  0  0  0  0  0  0  0  0  0  0  0
   -5.0053    4.2407    0.1572 Br  0  0  0  0  0  0  0  0  0  0  0  0
   -3.5659    1.8032    0.0733 C   0  0  0  0  0  0  0  0  0  0  0  0
   -2.4341    1.0053    0.1717 C   0  0  0  0  0  0  0  0  0  0  0  0
   -2.4144   -0.3786   -0.0115 N   0  0  0  0  0  0  0  0  0  0  0  0
   -3.4267   -1.1844   -0.3985 C   0  0  0  0  0  0  0  0  0  0  0  0
   -4.5571   -0.8295   -0.6743 O   0  0  0  0  0  0  0  0  0  0  0  0
   -3.0774   -2.6212   -0.4785 C   0  0  0  0  0  0  0  0  0  0  0  0
   -3.8289   -3.6790   -0.8535 C   0  0  0  0  0  0  0  0  0  0  0  0
   -2.9419   -4.7806   -0.7169 C   0  0  0  0  0  0  0  0  0  0  0  0
   -3.2181   -6.2139   -0.9916 C   0  0  0  0  0  0  0  0  0  0  0  0
   -1.7745   -4.3820   -0.2957 N   0  0  0  0  0  0  0  0  0  0  0  0
   -1.8522   -3.0335   -0.1441 O   0  0  0  0  0  0  0  0  0  0  0  0
   10.4431   -0.2124   -0.7020 H   0  0  0  0  0  0  0  0  0  0  0  0
    9.8277   -1.7687   -1.2444 H   0  0  0  0  0  0  0  0  0  0  0  0
    9.4102   -0.3001   -2.1230 H   0  0  0  0  0  0  0  0  0  0  0  0
    8.5704   -0.9132    0.7695 H   0  0  0  0  0  0  0  0  0  0  0  0
    8.1690    0.5463   -0.0904 H   0  0  0  0  0  0  0  0  0  0  0  0
    4.1831   -0.9983   -1.0769 H   0  0  0  0  0  0  0  0  0  0  0  0
    4.5194   -2.5358   -0.2422 H   0  0  0  0  0  0  0  0  0  0  0  0
    4.0678   -1.5027    1.9210 H   0  0  0  0  0  0  0  0  0  0  0  0
    6.3162   -0.5954    2.0962 H   0  0  0  0  0  0  0  0  0  0  0  0
    5.8705    0.8087    1.1014 H   0  0  0  0  0  0  0  0  0  0  0  0
    3.6147    1.2173    1.0498 H   0  0  0  0  0  0  0  0  0  0  0  0
    1.0597    1.6405    1.9593 H   0  0  0  0  0  0  0  0  0  0  0  0
    1.5005    1.9398    0.2713 H   0  0  0  0  0  0  0  0  0  0  0  0
   -0.1705    3.4292    0.9637 H   0  0  0  0  0  0  0  0  0  0  0  0
   -2.1639    4.8237    0.7891 H   0  0  0  0  0  0  0  0  0  0  0  0
   -4.5191    1.3657   -0.1726 H   0  0  0  0  0  0  0  0  0  0  0  0
   -1.5170   -0.8109    0.1673 H   0  0  0  0  0  0  0  0  0  0  0  0
   -4.8544   -3.6908   -1.1811 H   0  0  0  0  0  0  0  0  0  0  0  0
   -3.4942   -6.3550   -2.0363 H   0  0  0  0  0  0  0  0  0  0  0  0
   -2.3473   -6.8295   -0.7770 H   0  0  0  0  0  0  0  0  0  0  0  0
   -4.0503   -6.5650   -0.3822 H   0  0  0  0  0  0  0  0  0  0  0  0
 27 26  1  0
 28 26  2  0
 28 29  1  0
 26 25  1  0
 29 24  1  0
 25 24  2  0
 24 22  1  0
 22 21  1  0
 22 23  2  0
 21 20  1  0
 11 10  2  0
 20 19  2  0
 20 14  1  0
 19 17  1  0
  7  8  1  0
  7  9  1  0
  7  6  1  0
 13 14  1  0
 13 12  1  0
 10  9  1  0
 10 12  1  0
  8  5  1  0
 14 15  2  0
 17 18  1  0
 17 16  2  0
  6  5  1  0
  5  3  1  0
 15 16  1  0
  1  2  1  0
  3  2  1  0
  3  4  2  0
  1 30  1  0
  1 31  1  0
  1 32  1  0
  2 33  1  0
  2 34  1  0
  6 35  1  0
  6 36  1  0
  7 37  1  1
  8 38  1  0
  8 39  1  0
  9 40  1  0
 12 41  1  0
 12 42  1  0
 15 43  1  0
 16 44  1  0
 19 45  1  0
 21 46  1  0
 25 47  1  0
 27 48  1  0
 27 49  1  0
 27 50  1  0
M  END
