
     RDKit          3D

 31 31  0  0  0  0  0  0  0  0999 V2000
   -0.9462    0.5509   -0.2341 N   0  0  0  0  0  0  0  0  0  0  0  0
   -2.9613   -0.8638   -0.2638 C   0  0  0  0  0  0  0  0  0  0  0  0
   -2.4618   -1.9228   -0.5203 O   0  0  0  0  0  0  0  0  0  0  0  0
   -4.5839    0.7280   -0.0491 C   0  0  0  0  0  0  0  0  0  0  0  0
   -4.2604   -0.6288   -0.4138 O   0  0  0  0  0  0  0  0  0  0  0  0
   -3.2648    1.4818   -0.1177 C   0  0  0  0  0  0  0  0  0  0  0  0
    0.1204    0.0397    1.6886 O   0  0  0  0  0  0  0  0  0  0  0  0
   -2.2747    0.3890    0.2634 C   0  0  2  0  0  0  0  0  0  0  0  0
    0.1638    0.3800    0.5167 C   0  0  0  0  0  0  0  0  0  0  0  0
    1.4590    0.6960   -0.1966 C   0  0  0  0  0  0  0  0  0  0  0  0
    2.6567   -0.0740    0.3406 C   0  0  0  0  0  0  0  0  0  0  0  0
    3.9539    0.3415   -0.3420 C   0  0  0  0  0  0  0  0  0  0  0  0
    5.1716   -0.4056    0.1874 C   0  0  0  0  0  0  0  0  0  0  0  0
    6.4694    0.0373   -0.4739 C   0  0  0  0  0  0  0  0  0  0  0  0
   -0.8390    0.7930   -1.2069 H   0  0  0  0  0  0  0  0  0  0  0  0
   -5.3378    1.0926   -0.7427 H   0  0  0  0  0  0  0  0  0  0  0  0
   -4.9998    0.7259    0.9596 H   0  0  0  0  0  0  0  0  0  0  0  0
   -3.0710    1.8362   -1.1327 H   0  0  0  0  0  0  0  0  0  0  0  0
   -3.2418    2.3357    0.5557 H   0  0  0  0  0  0  0  0  0  0  0  0
   -2.2246    0.2916    1.3525 H   0  0  0  0  0  0  0  0  0  0  0  0
    1.3506    0.5286   -1.2713 H   0  0  0  0  0  0  0  0  0  0  0  0
    1.6303    1.7722   -0.0780 H   0  0  0  0  0  0  0  0  0  0  0  0
    2.7455    0.0895    1.4170 H   0  0  0  0  0  0  0  0  0  0  0  0
    2.4992   -1.1477    0.2015 H   0  0  0  0  0  0  0  0  0  0  0  0
    3.8701    0.1798   -1.4223 H   0  0  0  0  0  0  0  0  0  0  0  0
    4.1020    1.4189   -0.2079 H   0  0  0  0  0  0  0  0  0  0  0  0
    5.2428   -0.2579    1.2695 H   0  0  0  0  0  0  0  0  0  0  0  0
    5.0318   -1.4806    0.0370 H   0  0  0  0  0  0  0  0  0  0  0  0
    6.4417   -0.1330   -1.5518 H   0  0  0  0  0  0  0  0  0  0  0  0
    6.6475    1.1025   -0.3151 H   0  0  0  0  0  0  0  0  0  0  0  0
    7.3276   -0.5053   -0.0761 H   0  0  0  0  0  0  0  0  0  0  0  0
  1  8  1  0
  1  9  1  0
  2  3  2  0
  2  5  1  0
  2  8  1  0
  4  5  1  0
  4  6  1  0
  6  8  1  0
  7  9  2  0
  9 10  1  0
 10 11  1  0
 11 12  1  0
 12 13  1  0
 13 14  1  0
  1 15  1  0
  4 16  1  0
  4 17  1  0
  6 18  1  0
  6 19  1  0
  8 20  1  1
 10 21  1  0
 10 22  1  0
 11 23  1  0
 11 24  1  0
 12 25  1  0
 12 26  1  0
 13 27  1  0
 13 28  1  0
 14 29  1  0
 14 30  1  0
 14 31  1  0
M  END
