
     RDKit          3D

 51 53  0  0  0  0  0  0  0  0999 V2000
    2.9707   -3.2335    1.2574 C   0  0  0  0  0  0  0  0  0  0  0  0
    3.1429    4.0399   -0.1858 O   0  0  0  0  0  0  0  0  0  0  0  0
   -4.7443   -1.1808    0.4835 O   0  0  0  0  0  0  0  0  0  0  0  0
   -3.9637    0.9065   -0.0430 N   0  0  0  0  0  0  0  0  0  0  0  0
   -5.1383    1.6511   -0.1320 C   0  0  0  0  0  0  0  0  0  0  0  0
   -6.2675    1.0988   -0.3242 N   0  0  0  0  0  0  0  0  0  0  0  0
   -4.8721    2.9970   -0.0697 N   0  0  0  0  0  0  0  0  0  0  0  0
   -2.4161   -0.8732    0.1868 C   0  0  0  0  0  0  0  0  0  0  0  0
   -1.4809    0.0383   -0.0466 N   0  0  0  0  0  0  0  0  0  0  0  0
   -0.2091   -0.2686   -0.1164 C   0  0  0  0  0  0  0  0  0  0  0  0
    0.7323    0.8607   -0.1563 C   0  0  0  0  0  0  0  0  0  0  0  0
    1.8002    0.9705    0.7225 C   0  0  0  0  0  0  0  0  0  0  0  0
    0.5513    1.9541   -1.0013 C   0  0  0  0  0  0  0  0  0  0  0  0
    1.3517    3.0036   -1.0007 N   0  0  0  0  0  0  0  0  0  0  0  0
    2.3569    2.9764   -0.1339 C   0  0  0  0  0  0  0  0  0  0  0  0
    2.6147    2.0158    0.7361 N   0  0  0  0  0  0  0  0  0  0  0  0
    4.2441    4.1142    0.7126 C   0  0  0  0  0  0  0  0  0  0  0  0
    0.1714   -1.6474   -0.0376 C   0  0  0  0  0  0  0  0  0  0  0  0
   -0.7361   -2.5453    0.2990 N   0  0  0  0  0  0  0  0  0  0  0  0
   -2.0161   -2.2060    0.4537 C   0  0  0  0  0  0  0  0  0  0  0  0
   -2.8522   -3.1679    0.8590 N   0  0  0  0  0  0  0  0  0  0  0  0
    1.4475   -2.0686   -0.2915 N   0  0  0  0  0  0  0  0  0  0  0  0
    1.8783   -3.3726    0.2002 C   0  0  0  0  0  0  0  0  0  0  0  0
    4.3421   -2.8324    0.7273 C   0  0  0  0  0  0  0  0  0  0  0  0
    4.3635   -1.6195   -0.1999 C   0  0  0  0  0  0  0  0  0  0  0  0
    3.6239   -1.8560   -1.5158 C   0  0  0  0  0  0  0  0  0  0  0  0
    2.1273   -1.5705   -1.4876 C   0  0  0  0  0  0  0  0  0  0  0  0
    2.6285   -2.5097    2.0039 H   0  0  0  0  0  0  0  0  0  0  0  0
    3.0626   -4.1902    1.7796 H   0  0  0  0  0  0  0  0  0  0  0  0
   -3.0896    1.3943   -0.1949 H   0  0  0  0  0  0  0  0  0  0  0  0
   -7.0027    1.7976   -0.3228 H   0  0  0  0  0  0  0  0  0  0  0  0
   -4.1154    3.2909    0.5287 H   0  0  0  0  0  0  0  0  0  0  0  0
   -5.6778    3.5965    0.0095 H   0  0  0  0  0  0  0  0  0  0  0  0
    2.0049    0.1888    1.4461 H   0  0  0  0  0  0  0  0  0  0  0  0
   -0.2721    1.9692   -1.7071 H   0  0  0  0  0  0  0  0  0  0  0  0
    4.7491    5.0485    0.4833 H   0  0  0  0  0  0  0  0  0  0  0  0
    3.9140    4.1273    1.7515 H   0  0  0  0  0  0  0  0  0  0  0  0
    4.9359    3.2837    0.5716 H   0  0  0  0  0  0  0  0  0  0  0  0
   -3.8437   -2.9998    0.8658 H   0  0  0  0  0  0  0  0  0  0  0  0
   -2.5116   -4.1125    0.9146 H   0  0  0  0  0  0  0  0  0  0  0  0
    2.2175   -3.9936   -0.6341 H   0  0  0  0  0  0  0  0  0  0  0  0
    1.0228   -3.8837    0.6319 H   0  0  0  0  0  0  0  0  0  0  0  0
    5.0074   -2.6510    1.5754 H   0  0  0  0  0  0  0  0  0  0  0  0
    4.7726   -3.6797    0.1832 H   0  0  0  0  0  0  0  0  0  0  0  0
    3.9639   -0.7379    0.3100 H   0  0  0  0  0  0  0  0  0  0  0  0
    5.4067   -1.3847   -0.4247 H   0  0  0  0  0  0  0  0  0  0  0  0
    4.0381   -1.2160   -2.2981 H   0  0  0  0  0  0  0  0  0  0  0  0
    3.8077   -2.8808   -1.8504 H   0  0  0  0  0  0  0  0  0  0  0  0
    1.6650   -2.0093   -2.3800 H   0  0  0  0  0  0  0  0  0  0  0  0
    1.9838   -0.4962   -1.5657 H   0  0  0  0  0  0  0  0  0  0  0  0
   -3.8227   -0.4223    0.2262 C   0  0  0  0  0  0  0  0  0  0  0  0
 21 20  1  0
  3 51  2  0
  6  5  2  0
 20  8  2  0
 20 19  1  0
 51  8  1  0
 51  4  1  0
  5  4  1  0
  5  7  1  0
  8  9  1  0
 19 18  2  0
 23 22  1  0
 23  1  1  0
 18 22  1  0
 18 10  1  0
  9 10  2  0
 22 27  1  0
 10 11  1  0
  1 24  1  0
 24 25  1  0
 26 27  1  0
 26 25  1  0
 11 13  1  0
 11 12  2  0
 13 14  2  0
 12 16  1  0
 14 15  1  0
 16 15  2  0
 15  2  1  0
  2 17  1  0
  1 28  1  0
  1 29  1  0
  4 30  1  0
  6 31  1  0
  7 32  1  0
  7 33  1  0
 12 34  1  0
 13 35  1  0
 17 36  1  0
 17 37  1  0
 17 38  1  0
 21 39  1  0
 21 40  1  0
 23 41  1  0
 23 42  1  0
 24 43  1  0
 24 44  1  0
 25 45  1  0
 25 46  1  0
 26 47  1  0
 26 48  1  0
 27 49  1  0
 27 50  1  0
M  END
