
     RDKit          3D

 38 38  0  0  0  0  0  0  0  0999 V2000
   -2.6336   -1.9066    0.8282 C   0  0  0  0  0  0  0  0  0  0  0  0
   -2.0521   -0.8951   -0.1625 C   0  0  1  0  0  0  0  0  0  0  0  0
   -3.6923   -2.5347    0.3530 O   0  0  0  0  0  0  0  0  0  0  0  0
   -2.7772    0.4338    0.0723 C   0  0  0  0  0  0  0  0  0  0  0  0
   -2.1851   -2.0703    1.9344 O   0  0  0  0  0  0  0  0  0  0  0  0
   -2.0138    1.5856   -0.5566 C   0  0  1  0  0  0  0  0  0  0  0  0
   -2.7992    2.7451   -0.4292 O   0  0  0  0  0  0  0  0  0  0  0  0
   -0.6705    1.7400    0.1423 C   0  0  2  0  0  0  0  0  0  0  0  0
    0.0720    2.7052   -0.5690 O   0  0  0  0  0  0  0  0  0  0  0  0
    0.0491    0.4129    0.1933 C   0  0  0  0  0  0  0  0  0  0  0  0
   -0.5735   -0.7587    0.0986 C   0  0  0  0  0  0  0  0  0  0  0  0
    1.5165    0.4931    0.4842 C   0  0  0  0  0  0  0  0  0  0  0  0
    2.2899   -0.3585   -0.1981 N   0  0  0  0  0  0  0  0  0  0  0  0
    3.7440   -0.5243   -0.0712 C   0  0  1  0  0  0  0  0  0  0  0  0
    4.1242   -1.6499   -1.0315 C   0  0  0  0  0  0  0  0  0  0  0  0
    4.4708    0.7591   -0.4766 C   0  0  0  0  0  0  0  0  0  0  0  0
    4.1193   -0.9327    1.3534 C   0  0  0  0  0  0  0  0  0  0  0  0
    1.9210    1.3063    1.3089 O   0  0  0  0  0  0  0  0  0  0  0  0
   -2.2835   -1.2715   -1.4965 O   0  0  0  0  0  0  0  0  0  0  0  0
   -4.0502   -3.1356    1.0246 H   0  0  0  0  0  0  0  0  0  0  0  0
   -3.7846    0.3697   -0.3445 H   0  0  0  0  0  0  0  0  0  0  0  0
   -2.8822    0.6161    1.1460 H   0  0  0  0  0  0  0  0  0  0  0  0
   -1.8232    1.3576   -1.6155 H   0  0  0  0  0  0  0  0  0  0  0  0
   -2.3311    3.4712   -0.8545 H   0  0  0  0  0  0  0  0  0  0  0  0
   -0.8596    2.0755    1.1720 H   0  0  0  0  0  0  0  0  0  0  0  0
    0.7459    3.0650    0.0163 H   0  0  0  0  0  0  0  0  0  0  0  0
   -0.0078   -1.6831    0.1738 H   0  0  0  0  0  0  0  0  0  0  0  0
    1.8395   -0.8996   -0.9196 H   0  0  0  0  0  0  0  0  0  0  0  0
    3.8520   -1.4053   -2.0604 H   0  0  0  0  0  0  0  0  0  0  0  0
    5.2002   -1.8185   -1.0022 H   0  0  0  0  0  0  0  0  0  0  0  0
    3.6317   -2.5853   -0.7584 H   0  0  0  0  0  0  0  0  0  0  0  0
    4.2352    1.5838    0.1938 H   0  0  0  0  0  0  0  0  0  0  0  0
    5.5498    0.6006   -0.4468 H   0  0  0  0  0  0  0  0  0  0  0  0
    4.2018    1.0530   -1.4924 H   0  0  0  0  0  0  0  0  0  0  0  0
    3.5633   -1.8195    1.6612 H   0  0  0  0  0  0  0  0  0  0  0  0
    5.1829   -1.1711    1.3999 H   0  0  0  0  0  0  0  0  0  0  0  0
    3.9244   -0.1376    2.0703 H   0  0  0  0  0  0  0  0  0  0  0  0
   -1.7249   -2.0237   -1.7240 H   0  0  0  0  0  0  0  0  0  0  0  0
  1  3  1  0
  2  1  1  0
  2 19  1  6
  3 20  1  0
  4  2  1  0
  4 21  1  0
  4 22  1  0
  5  1  2  0
  6  4  1  0
  6 23  1  6
  7  6  1  0
  7 24  1  0
  8  6  1  0
  8 10  1  0
  8 25  1  1
  9  8  1  0
  9 26  1  0
 10 12  1  0
 10 11  2  0
 11  2  1  0
 11 27  1  0
 12 13  1  0
 14 13  1  1
 13 28  1  0
 14 17  1  0
 15 14  1  0
 15 29  1  0
 15 30  1  0
 15 31  1  0
 16 14  1  0
 16 32  1  0
 16 33  1  0
 16 34  1  0
 17 35  1  0
 17 36  1  0
 17 37  1  0
 18 12  2  0
 19 38  1  0
M  END
