
     RDKit          3D

 40 42  0  0  0  0  0  0  0  0999 V2000
    0.6328    1.8905    2.4860 N   0  0  0  0  0  0  0  0  0  0  0  0
   -0.2419    1.4997    1.8474 C   0  0  0  0  0  0  0  0  0  0  0  0
   -1.3237    1.0315    1.0469 C   0  0  0  0  0  0  0  0  0  0  0  0
   -2.2406    1.9275    0.5174 C   0  0  0  0  0  0  0  0  0  0  0  0
   -3.2529    1.4387   -0.2863 C   0  0  0  0  0  0  0  0  0  0  0  0
   -4.2086    2.3698   -0.8583 N   0  0  0  0  0  0  0  0  0  0  0  0
   -4.1011    3.5379   -0.5704 O   0  0  0  0  0  0  0  0  0  0  0  0
   -5.0583    1.9259   -1.5923 O   0  0  0  0  0  0  0  0  0  0  0  0
   -3.3716    0.0824   -0.5604 C   0  0  0  0  0  0  0  0  0  0  0  0
   -2.4609   -0.8091   -0.0294 C   0  0  0  0  0  0  0  0  0  0  0  0
   -1.4331   -0.3386    0.7758 C   0  0  0  0  0  0  0  0  0  0  0  0
   -0.4998   -1.1204    1.3449 O   0  0  0  0  0  0  0  0  0  0  0  0
   -0.2382   -2.3594    0.8149 C   0  0  0  0  0  0  0  0  0  0  0  0
   -0.5249   -3.5022    1.5355 C   0  0  0  0  0  0  0  0  0  0  0  0
   -0.1936   -4.7463    1.0182 C   0  0  0  0  0  0  0  0  0  0  0  0
    0.4165   -4.8112   -0.2188 C   0  0  0  0  0  0  0  0  0  0  0  0
    0.7367   -6.0061   -0.7239 F   0  0  0  0  0  0  0  0  0  0  0  0
    0.7192   -3.6826   -0.9595 C   0  0  0  0  0  0  0  0  0  0  0  0
    0.3854   -2.4533   -0.4266 C   0  0  0  0  0  0  0  0  0  0  0  0
    0.6043   -1.3178   -1.1609 O   0  0  0  0  0  0  0  0  0  0  0  0
    1.4521   -0.3808   -0.6989 C   0  0  0  0  0  0  0  0  0  0  0  0
    1.2363    0.9215   -1.1669 C   0  0  0  0  0  0  0  0  0  0  0  0
    0.1363    1.1775   -2.0354 C   0  0  0  0  0  0  0  0  0  0  0  0
   -0.7585    1.3977   -2.7259 N   0  0  0  0  0  0  0  0  0  0  0  0
    2.0616    1.9592   -0.7579 C   0  0  0  0  0  0  0  0  0  0  0  0
    2.4939   -0.6426    0.1791 C   0  0  0  0  0  0  0  0  0  0  0  0
    3.3105    0.3903    0.5928 C   0  0  0  0  0  0  0  0  0  0  0  0
    3.0859    1.6787    0.1257 C   0  0  0  0  0  0  0  0  0  0  0  0
    3.9379    2.7619    0.5828 N   0  0  0  0  0  0  0  0  0  0  0  0
    4.8023    2.4989    1.3837 O   0  0  0  0  0  0  0  0  0  0  0  0
    3.7341    3.8668    0.1396 O   0  0  0  0  0  0  0  0  0  0  0  0
   -2.1405    2.9822    0.7288 H   0  0  0  0  0  0  0  0  0  0  0  0
   -4.1710   -0.2926   -1.1825 H   0  0  0  0  0  0  0  0  0  0  0  0
   -1.0065   -3.4226    2.5009 H   0  0  0  0  0  0  0  0  0  0  0  0
   -0.4140   -5.6486    1.5715 H   0  0  0  0  0  0  0  0  0  0  0  0
    1.2023   -3.7545   -1.9252 H   0  0  0  0  0  0  0  0  0  0  0  0
    1.8791    2.9614   -1.1180 H   0  0  0  0  0  0  0  0  0  0  0  0
    2.6807   -1.6452    0.5394 H   0  0  0  0  0  0  0  0  0  0  0  0
    4.1193    0.1791    1.2769 H   0  0  0  0  0  0  0  0  0  0  0  0
   -2.5661   -1.8643   -0.2411 H   0  0  0  0  0  0  0  0  0  0  0  0
 31 29  1  0
 29 30  2  0
 29 28  1  0
 27 28  2  0
 27 26  1  0
 17 16  1  0
 28 25  1  0
 26 21  2  0
 16 15  1  0
 16 18  2  0
 15 14  2  0
  7  6  1  0
 18 19  1  0
 25 22  2  0
  6  8  2  0
  6  5  1  0
 21 22  1  0
 21 20  1  0
 14 13  1  0
  5  9  2  0
  5  4  1  0
  9 10  1  0
 19 13  2  0
 19 20  1  0
 22 23  1  0
  4  3  2  0
 13 12  1  0
 10 11  2  0
  3 11  1  0
  3  2  1  0
 11 12  1  0
  2  1  3  0
 23 24  3  0
  4 32  1  0
  9 33  1  0
 14 34  1  0
 15 35  1  0
 18 36  1  0
 25 37  1  0
 26 38  1  0
 27 39  1  0
 10 40  1  0
M  CHG  4   6   1   7  -1  29   1  31  -1
M  END
