
     RDKit          3D

 50 52  0  0  0  0  0  0  0  0999 V2000
    0.6616    0.6677   -1.4683 C   0  0  0  0  0  0  0  0  0  0  0  0
    6.5225    0.6324   -1.1237 F   0  0  0  0  0  0  0  0  0  0  0  0
    1.0534    0.2060   -0.2066 N   0  0  0  0  0  0  0  0  0  0  0  0
    1.3816    1.4025   -2.1118 O   0  0  0  0  0  0  0  0  0  0  0  0
   -1.5183   -0.4663   -1.0941 C   0  0  1  0  0  0  0  0  0  0  0  0
    5.8241   -1.3012   -0.4911 F   0  0  0  0  0  0  0  0  0  0  0  0
   -0.5263    0.2129   -1.8936 N   0  0  0  0  0  0  0  0  0  0  0  0
   -1.1797   -3.1553    1.4039 O   0  0  0  0  0  0  0  0  0  0  0  0
   -0.8402   -1.1997    0.0384 C   0  0  0  0  0  0  0  0  0  0  0  0
    6.8931   -0.0360    0.8844 F   0  0  0  0  0  0  0  0  0  0  0  0
   -6.3536    3.9698    0.9852 N   0  0  0  0  0  0  0  0  0  0  0  0
   -2.8449   -2.3070    0.1957 O   0  0  0  0  0  0  0  0  0  0  0  0
    0.3870   -0.8145    0.4615 C   0  0  0  0  0  0  0  0  0  0  0  0
    2.3047    0.7093    0.2602 C   0  0  0  0  0  0  0  0  0  0  0  0
    3.4864    0.0998   -0.1289 C   0  0  0  0  0  0  0  0  0  0  0  0
    4.6944    0.5883    0.3436 C   0  0  0  0  0  0  0  0  0  0  0  0
    4.7214    1.6900    1.1906 C   0  0  0  0  0  0  0  0  0  0  0  0
    3.5362    2.2992    1.5655 C   0  0  0  0  0  0  0  0  0  0  0  0
    2.3253    1.8090    1.1004 C   0  0  0  0  0  0  0  0  0  0  0  0
    5.9841   -0.0359   -0.0954 C   0  0  1  0  0  0  0  0  0  0  0  0
   -2.5876    0.4994   -0.6056 C   0  0  0  0  0  0  0  0  0  0  0  0
   -3.9034    0.3558   -1.0282 C   0  0  0  0  0  0  0  0  0  0  0  0
   -4.8794    1.2472   -0.6193 C   0  0  0  0  0  0  0  0  0  0  0  0
   -4.5408    2.2991    0.2283 C   0  0  0  0  0  0  0  0  0  0  0  0
   -3.2245    2.4483    0.6645 C   0  0  0  0  0  0  0  0  0  0  0  0
   -2.2613    1.5509    0.2463 C   0  0  0  0  0  0  0  0  0  0  0  0
   -5.5422    3.2239    0.6497 C   0  0  0  0  0  0  0  0  0  0  0  0
   -1.5864   -2.3144    0.6362 C   0  0  0  0  0  0  0  0  0  0  0  0
   -3.7181   -3.3474    0.6112 C   0  0  0  0  0  0  0  0  0  0  0  0
   -5.1120   -2.9921    0.1630 C   0  0  0  0  0  0  0  0  0  0  0  0
    1.1230   -1.3899    1.6277 C   0  0  0  0  0  0  0  0  0  0  0  0
   -5.1577   -2.9495   -1.2415 O   0  0  0  0  0  0  0  0  0  0  0  0
   -2.0012   -1.1865   -1.7560 H   0  0  0  0  0  0  0  0  0  0  0  0
   -0.8043    0.5286   -2.8085 H   0  0  0  0  0  0  0  0  0  0  0  0
    3.4494   -0.7501   -0.7968 H   0  0  0  0  0  0  0  0  0  0  0  0
    5.6605    2.0743    1.5647 H   0  0  0  0  0  0  0  0  0  0  0  0
    3.5550    3.1552    2.2253 H   0  0  0  0  0  0  0  0  0  0  0  0
    1.3941    2.2768    1.3931 H   0  0  0  0  0  0  0  0  0  0  0  0
   -4.1732   -0.4764   -1.6658 H   0  0  0  0  0  0  0  0  0  0  0  0
   -5.9013    1.1307   -0.9541 H   0  0  0  0  0  0  0  0  0  0  0  0
   -2.9639    3.2629    1.3265 H   0  0  0  0  0  0  0  0  0  0  0  0
   -1.2447    1.6743    0.5974 H   0  0  0  0  0  0  0  0  0  0  0  0
   -3.4026   -4.3004    0.1782 H   0  0  0  0  0  0  0  0  0  0  0  0
   -3.7079   -3.4527    1.6983 H   0  0  0  0  0  0  0  0  0  0  0  0
   -5.7837   -3.7580    0.5732 H   0  0  0  0  0  0  0  0  0  0  0  0
   -5.4019   -2.0341    0.6150 H   0  0  0  0  0  0  0  0  0  0  0  0
    1.5011   -0.5975    2.2719 H   0  0  0  0  0  0  0  0  0  0  0  0
    0.4966   -2.0465    2.2141 H   0  0  0  0  0  0  0  0  0  0  0  0
    1.9880   -1.9599    1.2841 H   0  0  0  0  0  0  0  0  0  0  0  0
   -6.0689   -2.8224   -1.5129 H   0  0  0  0  0  0  0  0  0  0  0  0
  1  3  1  0
  1  4  2  0
  1  7  1  0
 20  2  1  6
  3 13  1  0
  3 14  1  0
  5  7  1  0
  5  9  1  0
  5 21  1  0
  6 20  1  0
  8 28  2  0
  9 13  2  0
  9 28  1  0
 10 20  1  0
 11 27  3  0
 12 28  1  0
 12 29  1  0
 13 31  1  0
 14 15  2  0
 14 19  1  0
 15 16  1  0
 16 17  2  0
 16 20  1  0
 17 18  1  0
 18 19  2  0
 21 22  2  0
 21 26  1  0
 22 23  1  0
 23 24  2  0
 24 25  1  0
 24 27  1  0
 25 26  2  0
 29 30  1  0
 30 32  1  0
  5 33  1  6
  7 34  1  0
 15 35  1  0
 17 36  1  0
 18 37  1  0
 19 38  1  0
 22 39  1  0
 23 40  1  0
 25 41  1  0
 26 42  1  0
 29 43  1  0
 29 44  1  0
 30 45  1  0
 30 46  1  0
 31 47  1  0
 31 48  1  0
 31 49  1  0
 32 50  1  0
M  END
