
     RDKit          3D

 50 52  0  0  0  0  0  0  0  0999 V2000
    4.9426   -2.1885   -2.5139 C   0  0  0  0  0  0  0  0  0  0  0  0
    4.9318   -1.8316   -1.1460 O   0  0  0  0  0  0  0  0  0  0  0  0
    3.9455   -1.0255   -0.6973 C   0  0  0  0  0  0  0  0  0  0  0  0
    4.0197   -0.7059    0.6689 C   0  0  0  0  0  0  0  0  0  0  0  0
    3.0531    0.1061    1.2331 C   0  0  0  0  0  0  0  0  0  0  0  0
    5.0132   -1.1803    1.4475 O   0  0  0  0  0  0  0  0  0  0  0  0
    2.9048   -0.5204   -1.4594 C   0  0  0  0  0  0  0  0  0  0  0  0
    1.9447    0.3055   -0.8813 C   0  0  0  0  0  0  0  0  0  0  0  0
    2.0121    0.6244    0.4647 C   0  0  0  0  0  0  0  0  0  0  0  0
    1.0259    1.5367    1.1292 C   0  0  1  0  0  0  0  0  0  0  0  0
    1.2257    3.0752    0.9447 C   0  0  1  0  0  0  0  0  0  0  0  0
    2.3989    3.5841    0.1363 C   0  0  0  0  0  0  0  0  0  0  0  0
   -0.1282    3.0437    0.2601 C   0  0  0  0  0  0  0  0  0  0  0  0
   -0.8487    3.8592   -0.2627 O   0  0  0  0  0  0  0  0  0  0  0  0
   -0.2616    1.6988    0.4559 N   0  0  0  0  0  0  0  0  0  0  0  0
   -1.2888    0.7843    0.2517 C   0  0  0  0  0  0  0  0  0  0  0  0
   -2.4917    1.1914   -0.3210 C   0  0  0  0  0  0  0  0  0  0  0  0
   -1.0858   -0.5369    0.6371 C   0  0  0  0  0  0  0  0  0  0  0  0
   -2.1036   -1.4679    0.4463 C   0  0  0  0  0  0  0  0  0  0  0  0
   -2.0029   -2.7652    0.7782 O   0  0  0  0  0  0  0  0  0  0  0  0
   -0.7781   -3.2349    1.3065 C   0  0  0  0  0  0  0  0  0  0  0  0
   -3.3155   -1.0818   -0.1289 C   0  0  0  0  0  0  0  0  0  0  0  0
   -4.3005   -1.9959   -0.3379 O   0  0  0  0  0  0  0  0  0  0  0  0
   -5.2015   -2.1388    0.7522 C   0  0  0  0  0  0  0  0  0  0  0  0
   -3.5040    0.2525   -0.4996 C   0  0  0  0  0  0  0  0  0  0  0  0
   -4.7030    0.5392   -1.0312 O   0  0  0  0  0  0  0  0  0  0  0  0
   -4.9758    1.8750   -1.4062 C   0  0  0  0  0  0  0  0  0  0  0  0
    4.0477   -2.7507   -2.7925 H   0  0  0  0  0  0  0  0  0  0  0  0
    5.0254   -1.3110   -3.1602 H   0  0  0  0  0  0  0  0  0  0  0  0
    5.8149   -2.8197   -2.6629 H   0  0  0  0  0  0  0  0  0  0  0  0
    3.1191    0.3371    2.2907 H   0  0  0  0  0  0  0  0  0  0  0  0
    5.6144   -1.7251    0.9252 H   0  0  0  0  0  0  0  0  0  0  0  0
    2.8244   -0.7593   -2.5114 H   0  0  0  0  0  0  0  0  0  0  0  0
    1.1441    0.6888   -1.5010 H   0  0  0  0  0  0  0  0  0  0  0  0
    0.9031    1.2584    2.1795 H   0  0  0  0  0  0  0  0  0  0  0  0
    1.1679    3.5977    1.9026 H   0  0  0  0  0  0  0  0  0  0  0  0
    2.4624    3.1120   -0.8435 H   0  0  0  0  0  0  0  0  0  0  0  0
    2.3100    4.6603   -0.0110 H   0  0  0  0  0  0  0  0  0  0  0  0
    3.3349    3.3966    0.6621 H   0  0  0  0  0  0  0  0  0  0  0  0
   -2.6301    2.2220   -0.6082 H   0  0  0  0  0  0  0  0  0  0  0  0
   -0.1404   -0.8327    1.0670 H   0  0  0  0  0  0  0  0  0  0  0  0
   -0.9067   -4.2999    1.4817 H   0  0  0  0  0  0  0  0  0  0  0  0
    0.0480   -3.0906    0.6053 H   0  0  0  0  0  0  0  0  0  0  0  0
   -0.5275   -2.7519    2.2542 H   0  0  0  0  0  0  0  0  0  0  0  0
   -5.9526   -2.8694    0.4557 H   0  0  0  0  0  0  0  0  0  0  0  0
   -4.6964   -2.5020    1.6505 H   0  0  0  0  0  0  0  0  0  0  0  0
   -5.7044   -1.1980    0.9888 H   0  0  0  0  0  0  0  0  0  0  0  0
   -4.3114    2.2200   -2.2024 H   0  0  0  0  0  0  0  0  0  0  0  0
   -5.9981    1.8876   -1.7754 H   0  0  0  0  0  0  0  0  0  0  0  0
   -4.8982    2.5604   -0.5587 H   0  0  0  0  0  0  0  0  0  0  0  0
 21 20  1  0
 24 23  1  0
 20 19  1  0
 19 22  2  0
 19 18  1  0
 23 22  1  0
 22 25  1  0
 18 16  2  0
 14 13  2  0
 25 26  1  0
 25 17  2  0
 16 17  1  0
 16 15  1  0
 26 27  1  0
 13 15  1  0
 13 11  1  0
 15 10  1  0
 11 12  1  0
 11 10  1  0
 10  9  1  0
  8  9  2  0
  8  7  1  0
  9  5  1  0
  7  3  2  0
  5  4  2  0
  3  4  1  0
  3  2  1  0
  4  6  1  0
  2  1  1  0
  1 28  1  0
  1 29  1  0
  1 30  1  0
  5 31  1  0
  6 32  1  0
  7 33  1  0
  8 34  1  0
 10 35  1  1
 11 36  1  1
 12 37  1  0
 12 38  1  0
 12 39  1  0
 17 40  1  0
 18 41  1  0
 21 42  1  0
 21 43  1  0
 21 44  1  0
 24 45  1  0
 24 46  1  0
 24 47  1  0
 27 48  1  0
 27 49  1  0
 27 50  1  0
M  END
