
     RDKit          3D

 45 48  0  0  0  0  0  0  0  0999 V2000
   -2.8289    3.3649   -0.5069 C   0  0  0  0  0  0  0  0  0  0  0  0
   -4.1063    3.2727    0.0412 C   0  0  0  0  0  0  0  0  0  0  0  0
   -4.6413    2.0472    0.3736 C   0  0  0  0  0  0  0  0  0  0  0  0
   -2.0799    2.2214   -0.6558 C   0  0  0  0  0  0  0  0  0  0  0  0
   -2.5666    0.9655   -0.2595 C   0  0  0  0  0  0  0  0  0  0  0  0
   -3.8982    0.8715    0.1939 C   0  0  0  0  0  0  0  0  0  0  0  0
   -4.4844   -0.3562    0.4187 N   0  0  0  0  0  0  0  0  0  0  0  0
   -3.8402   -1.5374    0.1387 C   0  0  0  0  0  0  0  0  0  0  0  0
   -2.4436   -1.4414   -0.2478 C   0  0  0  0  0  0  0  0  0  0  0  0
   -1.7733   -0.2416   -0.4019 C   0  0  0  0  0  0  0  0  0  0  0  0
   -4.3906   -2.6225    0.2689 O   0  0  0  0  0  0  0  0  0  0  0  0
   -5.8586   -0.4139    0.8944 C   0  0  0  0  0  0  0  0  0  0  0  0
   -0.4516   -0.1527   -0.6973 N   0  0  0  0  0  0  0  0  0  0  0  0
    0.2508   -1.0450   -1.6076 C   0  0  0  0  0  0  0  0  0  0  0  0
    1.3969   -1.7722   -0.9210 C   0  0  0  0  0  0  0  0  0  0  0  0
    2.2836   -0.8191   -0.2754 N   0  0  0  0  0  0  0  0  0  0  0  0
    1.5752    0.0281    0.6681 C   0  0  0  0  0  0  0  0  0  0  0  0
    0.4420    0.7802   -0.0258 C   0  0  0  0  0  0  0  0  0  0  0  0
    3.4666   -0.5013   -0.8573 C   0  0  0  0  0  0  0  0  0  0  0  0
    3.8055   -0.9243   -1.9519 O   0  0  0  0  0  0  0  0  0  0  0  0
    4.4080    0.3494   -0.0886 C   0  0  0  0  0  0  0  0  0  0  0  0
    4.7924    0.0728    1.5689 S   0  0  0  0  0  0  0  0  0  0  0  0
    5.9836    1.2981    1.5561 C   0  0  0  0  0  0  0  0  0  0  0  0
    6.0845    1.8938    0.3347 C   0  0  0  0  0  0  0  0  0  0  0  0
    5.1911    1.3366   -0.6146 C   0  0  0  0  0  0  0  0  0  0  0  0
   -1.7965   -2.6997   -0.2658 C   0  0  0  0  0  0  0  0  0  0  0  0
   -1.2895   -3.7370   -0.2517 N   0  0  0  0  0  0  0  0  0  0  0  0
   -2.4300    4.3201   -0.8181 H   0  0  0  0  0  0  0  0  0  0  0  0
   -4.7028    4.1638    0.1848 H   0  0  0  0  0  0  0  0  0  0  0  0
   -5.6499    2.0081    0.7556 H   0  0  0  0  0  0  0  0  0  0  0  0
   -1.1048    2.2978   -1.1128 H   0  0  0  0  0  0  0  0  0  0  0  0
   -6.5397    0.0188    0.1622 H   0  0  0  0  0  0  0  0  0  0  0  0
   -6.1340   -1.4480    1.0577 H   0  0  0  0  0  0  0  0  0  0  0  0
   -5.9568    0.1245    1.8355 H   0  0  0  0  0  0  0  0  0  0  0  0
   -0.4367   -1.7452   -2.0745 H   0  0  0  0  0  0  0  0  0  0  0  0
    0.6597   -0.4285   -2.4159 H   0  0  0  0  0  0  0  0  0  0  0  0
    1.0128   -2.4484   -0.1555 H   0  0  0  0  0  0  0  0  0  0  0  0
    1.9464   -2.3654   -1.6470 H   0  0  0  0  0  0  0  0  0  0  0  0
    1.1742   -0.5885    1.4758 H   0  0  0  0  0  0  0  0  0  0  0  0
    2.2383    0.7653    1.1126 H   0  0  0  0  0  0  0  0  0  0  0  0
    0.8729    1.4873   -0.7419 H   0  0  0  0  0  0  0  0  0  0  0  0
   -0.0965    1.3472    0.7303 H   0  0  0  0  0  0  0  0  0  0  0  0
    6.5532    1.5110    2.4478 H   0  0  0  0  0  0  0  0  0  0  0  0
    6.7762    2.6945    0.1178 H   0  0  0  0  0  0  0  0  0  0  0  0
    5.1242    1.6580   -1.6443 H   0  0  0  0  0  0  0  0  0  0  0  0
  1  2  2  0
  1  4  1  0
  1 28  1  0
  2  3  1  0
  2 29  1  0
  3  6  2  0
  3 30  1  0
  4  5  2  0
  4 31  1  0
  5  6  1  0
  5 10  1  0
  6  7  1  0
  7 12  1  0
  7  8  1  0
  9  8  1  0
  8 11  2  0
 10  9  2  0
  9 26  1  0
 13 10  1  0
 12 32  1  0
 12 33  1  0
 12 34  1  0
 14 13  1  0
 13 18  1  0
 15 14  1  0
 14 35  1  0
 14 36  1  0
 15 16  1  0
 15 37  1  0
 15 38  1  0
 19 16  1  0
 16 17  1  0
 17 18  1  0
 17 39  1  0
 17 40  1  0
 18 41  1  0
 18 42  1  0
 21 19  1  0
 19 20  2  0
 25 21  2  0
 22 21  1  0
 23 22  1  0
 23 24  2  0
 23 43  1  0
 24 25  1  0
 24 44  1  0
 25 45  1  0
 26 27  3  0
M  END
