
     RDKit          3D

 40 39  0  0  0  0  0  0  0  0999 V2000
   -4.5145   -3.1356   -0.0975 O   0  0  0  0  0  0  0  0  0  0  0  0
   -4.5005   -1.8431    0.2091 C   0  0  0  0  0  0  0  0  0  0  0  0
   -5.3996   -1.2935    0.7949 O   0  0  0  0  0  0  0  0  0  0  0  0
   -3.2391   -1.1765   -0.2660 C   0  0  0  0  0  0  0  0  0  0  0  0
   -3.1653    0.2915    0.1239 C   0  0  0  0  0  0  0  0  0  0  0  0
   -1.9036    0.9508   -0.4231 C   0  0  1  0  0  0  0  0  0  0  0  0
   -1.8601    2.4213   -0.0421 C   0  0  0  0  0  0  0  0  0  0  0  0
   -2.6819    3.1313   -0.7972 O   0  0  0  0  0  0  0  0  0  0  0  0
   -1.1916    2.8666    0.8513 O   0  0  0  0  0  0  0  0  0  0  0  0
   -0.7932    0.2895    0.1480 O   0  0  0  0  0  0  0  0  0  0  0  0
    0.4065    0.5445   -0.3940 C   0  0  0  0  0  0  0  0  0  0  0  0
    0.5801    1.2991   -1.3266 O   0  0  0  0  0  0  0  0  0  0  0  0
    1.3712   -0.1701    0.2086 N   0  0  0  0  0  0  0  0  0  0  0  0
    2.7494    0.0038   -0.1547 C   0  0  1  0  0  0  0  0  0  0  0  0
    3.2485    1.3773    0.2673 C   0  0  0  0  0  0  0  0  0  0  0  0
    2.7165    2.0739    1.0904 O   0  0  0  0  0  0  0  0  0  0  0  0
    4.3662    1.6970   -0.3697 O   0  0  0  0  0  0  0  0  0  0  0  0
    3.6058   -1.0867    0.4980 C   0  0  0  0  0  0  0  0  0  0  0  0
    3.2233   -2.5143    0.0962 C   0  0  1  0  0  0  0  0  0  0  0  0
    3.3115   -2.7293   -1.4105 C   0  0  0  0  0  0  0  0  0  0  0  0
    4.1193   -3.5003    0.8392 C   0  0  0  0  0  0  0  0  0  0  0  0
   -5.3350   -3.5420    0.2189 H   0  0  0  0  0  0  0  0  0  0  0  0
   -2.3887   -1.7358    0.1310 H   0  0  0  0  0  0  0  0  0  0  0  0
   -3.1874   -1.2883   -1.3539 H   0  0  0  0  0  0  0  0  0  0  0  0
   -4.0268    0.8257   -0.2789 H   0  0  0  0  0  0  0  0  0  0  0  0
   -3.1977    0.4040    1.2100 H   0  0  0  0  0  0  0  0  0  0  0  0
   -1.8915    0.8620   -1.5140 H   0  0  0  0  0  0  0  0  0  0  0  0
   -2.6864    4.0587   -0.5146 H   0  0  0  0  0  0  0  0  0  0  0  0
    1.1523   -0.6695    1.0573 H   0  0  0  0  0  0  0  0  0  0  0  0
    2.8516   -0.0718   -1.2404 H   0  0  0  0  0  0  0  0  0  0  0  0
    4.6965    2.5546   -0.0618 H   0  0  0  0  0  0  0  0  0  0  0  0
    4.6503   -0.9140    0.2284 H   0  0  0  0  0  0  0  0  0  0  0  0
    3.5416   -0.9851    1.5865 H   0  0  0  0  0  0  0  0  0  0  0  0
    2.1913   -2.7040    0.4091 H   0  0  0  0  0  0  0  0  0  0  0  0
    4.3134   -2.4981   -1.7814 H   0  0  0  0  0  0  0  0  0  0  0  0
    3.0945   -3.7674   -1.6653 H   0  0  0  0  0  0  0  0  0  0  0  0
    2.6013   -2.1104   -1.9607 H   0  0  0  0  0  0  0  0  0  0  0  0
    4.0340   -3.3798    1.9206 H   0  0  0  0  0  0  0  0  0  0  0  0
    3.8533   -4.5302    0.5977 H   0  0  0  0  0  0  0  0  0  0  0  0
    5.1688   -3.3577    0.5705 H   0  0  0  0  0  0  0  0  0  0  0  0
  9  7  2  0
  3  2  2  0
  7  8  1  0
  7  6  1  0
  2  1  1  0
  2  4  1  0
  5  4  1  0
  5  6  1  0
  6 10  1  0
 12 11  2  0
 10 11  1  0
 11 13  1  0
 13 14  1  0
 14 15  1  0
 14 18  1  0
 16 15  2  0
 15 17  1  0
 20 19  1  0
 18 19  1  0
 19 21  1  0
  1 22  1  0
  4 23  1  0
  4 24  1  0
  5 25  1  0
  5 26  1  0
  6 27  1  6
  8 28  1  0
 13 29  1  0
 14 30  1  6
 17 31  1  0
 18 32  1  0
 18 33  1  0
 19 34  1  1
 20 35  1  0
 20 36  1  0
 20 37  1  0
 21 38  1  0
 21 39  1  0
 21 40  1  0
M  END
