
     RDKit          3D

 27 29  0  0  0  0  0  0  0  0999 V2000
   -0.1026    0.1335   -0.0752 C   0  0  0  0  0  0  0  0  0  0  0  0
    0.4546    1.1718   -0.8450 C   0  0  0  0  0  0  0  0  0  0  0  0
    1.7504    1.3828   -0.9969 N   0  0  0  0  0  0  0  0  0  0  0  0
    0.7533   -0.7478    0.5752 C   0  0  0  0  0  0  0  0  0  0  0  0
    3.9004    0.5373   -0.3751 N   0  0  0  0  0  0  0  0  0  0  0  0
    4.3584   -0.5014    0.3882 C   0  0  0  0  0  0  0  0  0  0  0  0
    3.3079   -1.2057    0.9017 C   0  0  0  0  0  0  0  0  0  0  0  0
    2.1242   -0.5641    0.4280 C   0  0  0  0  0  0  0  0  0  0  0  0
    2.5412    0.5269   -0.3701 C   0  0  0  0  0  0  0  0  0  0  0  0
   -1.5569   -0.0075    0.0226 C   0  0  0  0  0  0  0  0  0  0  0  0
   -2.3091   -1.1251   -0.1626 C   0  0  0  0  0  0  0  0  0  0  0  0
   -3.5938   -0.8304    0.0490 O   0  0  0  0  0  0  0  0  0  0  0  0
   -3.7210    0.4885    0.3780 N   0  0  0  0  0  0  0  0  0  0  0  0
   -2.5210    0.9887    0.3637 C   0  0  0  0  0  0  0  0  0  0  0  0
   -2.2836    2.4194    0.6916 C   0  0  0  0  0  0  0  0  0  0  0  0
   -1.9724   -2.5156   -0.5407 C   0  0  0  0  0  0  0  0  0  0  0  0
   -0.2035    1.8557   -1.3703 H   0  0  0  0  0  0  0  0  0  0  0  0
    0.3580   -1.5477    1.1900 H   0  0  0  0  0  0  0  0  0  0  0  0
    4.4772    1.2078   -0.8565 H   0  0  0  0  0  0  0  0  0  0  0  0
    5.4173   -0.6624    0.5086 H   0  0  0  0  0  0  0  0  0  0  0  0
    3.3735   -2.0739    1.5370 H   0  0  0  0  0  0  0  0  0  0  0  0
   -1.9381    2.9706   -0.1834 H   0  0  0  0  0  0  0  0  0  0  0  0
   -3.1960    2.8923    1.0494 H   0  0  0  0  0  0  0  0  0  0  0  0
   -1.5169    2.5168    1.4602 H   0  0  0  0  0  0  0  0  0  0  0  0
   -2.6419   -2.8858   -1.3172 H   0  0  0  0  0  0  0  0  0  0  0  0
   -0.9530   -2.5642   -0.9176 H   0  0  0  0  0  0  0  0  0  0  0  0
   -2.0479   -3.1896    0.3139 H   0  0  0  0  0  0  0  0  0  0  0  0
 16 11  1  0
  3  2  2  0
  3  9  1  0
  2  1  1  0
 11 12  1  0
 11 10  2  0
 12 13  1  0
  9  5  1  0
  9  8  2  0
 10  1  1  0
 10 14  1  0
  1  4  2  0
  5  6  1  0
 13 14  2  0
 14 15  1  0
  8  4  1  0
  8  7  1  0
  6  7  2  0
  2 17  1  0
  4 18  1  0
  5 19  1  0
  6 20  1  0
  7 21  1  0
 15 22  1  0
 15 23  1  0
 15 24  1  0
 16 25  1  0
 16 26  1  0
 16 27  1  0
M  END
