
     RDKit          3D

 36 35  0  0  0  0  0  0  0  0999 V2000
   -4.5192    2.0466    0.1420 N   0  0  0  0  0  0  0  0  0  0  0  0
   -4.7050    0.6556   -0.1941 C   0  0  2  0  0  0  0  0  0  0  0  0
   -5.9573    0.0456    0.4235 C   0  0  0  0  0  0  0  0  0  0  0  0
   -6.5848    0.5419    1.3254 O   0  0  0  0  0  0  0  0  0  0  0  0
   -3.4845   -0.1740    0.2286 C   0  0  0  0  0  0  0  0  0  0  0  0
   -6.2793   -1.1149   -0.1364 O   0  0  0  0  0  0  0  0  0  0  0  0
   -2.2136    0.3147   -0.4456 C   0  0  0  0  0  0  0  0  0  0  0  0
   -0.9933   -0.5022   -0.0733 C   0  0  0  0  0  0  0  0  0  0  0  0
    1.4199   -0.7283   -0.4375 C   0  0  1  0  0  0  0  0  0  0  0  0
    1.6096   -1.8393   -1.4738 C   0  0  0  0  0  0  0  0  0  0  0  0
    2.5418    0.2936   -0.5736 C   0  0  0  0  0  0  0  0  0  0  0  0
    4.8528    0.7868   -0.0160 C   0  0  0  0  0  0  0  0  0  0  0  0
    5.9609    0.1730    0.8007 C   0  0  0  0  0  0  0  0  0  0  0  0
    0.1603   -0.0453   -0.5948 N   0  0  0  0  0  0  0  0  0  0  0  0
   -1.0468   -1.4931    0.6408 O   0  0  0  0  0  0  0  0  0  0  0  0
    2.4248    1.2952   -1.2643 O   0  0  0  0  0  0  0  0  0  0  0  0
    5.8526   -0.8416    1.4408 O   0  0  0  0  0  0  0  0  0  0  0  0
    7.0641    0.8948    0.7225 O   0  0  0  0  0  0  0  0  0  0  0  0
   -5.2957    2.5998   -0.1973 H   0  0  0  0  0  0  0  0  0  0  0  0
   -4.5053    2.1632    1.1481 H   0  0  0  0  0  0  0  0  0  0  0  0
   -4.8092    0.5768   -1.2816 H   0  0  0  0  0  0  0  0  0  0  0  0
   -3.3775   -0.1199    1.3162 H   0  0  0  0  0  0  0  0  0  0  0  0
   -3.6522   -1.2227   -0.0177 H   0  0  0  0  0  0  0  0  0  0  0  0
   -7.0591   -1.4912    0.2991 H   0  0  0  0  0  0  0  0  0  0  0  0
   -2.3309    0.2773   -1.5339 H   0  0  0  0  0  0  0  0  0  0  0  0
   -2.0355    1.3642   -0.2025 H   0  0  0  0  0  0  0  0  0  0  0  0
    1.4504   -1.1685    0.5612 H   0  0  0  0  0  0  0  0  0  0  0  0
    1.6000   -1.4321   -2.4851 H   0  0  0  0  0  0  0  0  0  0  0  0
    2.5534   -2.3628   -1.3231 H   0  0  0  0  0  0  0  0  0  0  0  0
    0.8039   -2.5664   -1.3865 H   0  0  0  0  0  0  0  0  0  0  0  0
    4.6738    1.8031    0.3481 H   0  0  0  0  0  0  0  0  0  0  0  0
    5.1919    0.8828   -1.0518 H   0  0  0  0  0  0  0  0  0  0  0  0
    0.1405    0.7476   -1.2183 H   0  0  0  0  0  0  0  0  0  0  0  0
    3.7001   -0.8416    0.6615 H   0  0  0  0  0  0  0  0  0  0  0  0
    7.7673    0.4961    1.2577 H   0  0  0  0  0  0  0  0  0  0  0  0
    3.6682   -0.0208    0.0756 N   0  0  0  0  0  0  0  0  0  0  0  0
  4  3  2  0
  6  3  1  0
  3  2  1  0
  2  1  1  0
  2  5  1  0
  7  5  1  0
  7  8  1  0
 14  8  1  0
 14  9  1  0
 16 11  2  0
 10  9  1  0
  8 15  2  0
  9 11  1  0
 11 36  1  0
 36 12  1  0
 12 13  1  0
 13 17  2  0
 13 18  1  0
  1 19  1  0
  1 20  1  0
  2 21  1  6
  5 22  1  0
  5 23  1  0
  6 24  1  0
  7 25  1  0
  7 26  1  0
  9 27  1  1
 10 28  1  0
 10 29  1  0
 10 30  1  0
 12 31  1  0
 12 32  1  0
 14 33  1  0
 36 34  1  0
 18 35  1  0
M  END
