
     RDKit          3D

 28 30  0  0  0  0  0  0  0  0999 V2000
   -1.4295    0.0469    1.0372 C   0  0  0  0  0  0  0  0  0  0  0  0
   -2.3741   -1.0988   -0.8446 C   0  0  0  0  0  0  0  0  0  0  0  0
   -2.5662    0.8321    1.1422 C   0  0  0  0  0  0  0  0  0  0  0  0
   -3.5241   -0.3284   -0.7485 C   0  0  0  0  0  0  0  0  0  0  0  0
    3.0850    0.1310    0.6926 C   0  0  0  0  0  0  0  0  0  0  0  0
    3.6363    1.3961    0.7016 C   0  0  0  0  0  0  0  0  0  0  0  0
    1.2704    1.0231   -0.5799 C   0  0  0  0  0  0  0  0  0  0  0  0
   -0.0846   -3.1388   -0.1437 C   0  0  0  0  0  0  0  0  0  0  0  0
   -1.3120   -0.9246    0.0424 C   0  0  0  0  0  0  0  0  0  0  0  0
   -3.5963    0.6291    0.2438 C   0  0  0  0  0  0  0  0  0  0  0  0
    1.8658   -0.0698    0.0385 C   0  0  0  0  0  0  0  0  0  0  0  0
    1.9311    2.2347   -0.4887 C   0  0  0  0  0  0  0  0  0  0  0  0
   -0.1132   -1.7637   -0.0528 C   0  0  0  0  0  0  0  0  0  0  0  0
    1.2562   -1.3998   -0.0175 C   0  0  0  0  0  0  0  0  0  0  0  0
    1.2073   -3.4965   -0.1507 N   0  0  0  0  0  0  0  0  0  0  0  0
    3.0630    2.4490    0.1171 N   0  0  0  0  0  0  0  0  0  0  0  0
    2.0338   -2.4712   -0.0742 N   0  0  0  0  0  0  0  0  0  0  0  0
   -4.7025    1.3839    0.3422 F   0  0  0  0  0  0  0  0  0  0  0  0
    1.3784    3.3002   -1.0765 F   0  0  0  0  0  0  0  0  0  0  0  0
   -0.6288    0.1888    1.7514 H   0  0  0  0  0  0  0  0  0  0  0  0
   -2.3024   -1.8409   -1.6293 H   0  0  0  0  0  0  0  0  0  0  0  0
   -2.6514    1.5826    1.9167 H   0  0  0  0  0  0  0  0  0  0  0  0
   -4.3453   -0.4689   -1.4390 H   0  0  0  0  0  0  0  0  0  0  0  0
    4.5785    1.5788    1.2034 H   0  0  0  0  0  0  0  0  0  0  0  0
    0.3415    0.9408   -1.1268 H   0  0  0  0  0  0  0  0  0  0  0  0
   -0.8812   -3.8636   -0.1784 H   0  0  0  0  0  0  0  0  0  0  0  0
    1.5747   -4.4332   -0.2145 H   0  0  0  0  0  0  0  0  0  0  0  0
    3.5874   -0.6831    1.1948 H   0  0  0  0  0  0  0  0  0  0  0  0
  9  1  2  0
  1  3  1  0
  1 20  1  0
  2  9  1  0
  2  4  2  0
  2 21  1  0
 10  3  2  0
  3 22  1  0
  4 10  1  0
  4 23  1  0
  6  5  2  0
  5 11  1  0
  5 28  1  0
  6 16  1  0
  6 24  1  0
 12  7  1  0
 11  7  2  0
  7 25  1  0
 15  8  1  0
 13  8  2  0
  8 26  1  0
 13  9  1  0
 10 18  1  0
 11 14  1  0
 16 12  2  0
 12 19  1  0
 14 13  1  0
 17 14  2  0
 17 15  1  0
 15 27  1  0
M  END
