
     RDKit          3D

 50 53  0  0  0  0  0  0  0  0999 V2000
    6.9648    1.0507   -0.8675 C   0  0  0  0  0  0  0  0  0  0  0  0
   -3.3254    2.8129    0.0136 N   0  0  0  0  0  0  0  0  0  0  0  0
    3.3218   -0.2096   -0.6471 C   0  0  0  0  0  0  0  0  0  0  0  0
    2.2590    0.6868   -0.6635 C   0  0  0  0  0  0  0  0  0  0  0  0
    1.0204    0.4209   -0.0787 C   0  0  0  0  0  0  0  0  0  0  0  0
    1.8631   -1.7559    0.5072 C   0  0  0  0  0  0  0  0  0  0  0  0
    3.1105   -1.4724   -0.0583 C   0  0  0  0  0  0  0  0  0  0  0  0
    4.1634   -2.5170   -0.0216 C   0  0  0  0  0  0  0  0  0  0  0  0
   -0.0312    1.4298   -0.0759 C   0  0  0  0  0  0  0  0  0  0  0  0
    0.1670    2.7894   -0.0924 C   0  0  0  0  0  0  0  0  0  0  0  0
   -4.1321    1.7663    0.0304 C   0  0  0  0  0  0  0  0  0  0  0  0
   -3.7024    0.4269   -0.0008 C   0  0  0  0  0  0  0  0  0  0  0  0
   -1.4556    1.2452   -0.0270 C   0  0  0  0  0  0  0  0  0  0  0  0
   -4.6895   -0.6695    0.0117 C   0  0  0  0  0  0  0  0  0  0  0  0
   -6.8066   -1.6055   -0.6927 C   0  0  0  0  0  0  0  0  0  0  0  0
   -5.8801   -0.5728   -0.7107 C   0  0  0  0  0  0  0  0  0  0  0  0
    5.6052    0.8261   -0.2153 C   0  0  1  0  0  0  0  0  0  0  0  0
    5.0884    2.1182    0.4067 C   0  0  0  0  0  0  0  0  0  0  0  0
    4.6206    0.2523   -1.2508 C   0  0  0  0  0  0  0  0  0  0  0  0
    0.8414   -0.8285    0.5169 C   0  0  0  0  0  0  0  0  0  0  0  0
    5.3396   -2.3425   -0.2383 O   0  0  0  0  0  0  0  0  0  0  0  0
    3.6789   -3.7184    0.2863 O   0  0  0  0  0  0  0  0  0  0  0  0
   -1.0234    3.4439   -0.0582 N   0  0  0  0  0  0  0  0  0  0  0  0
   -2.0345    2.5338   -0.0185 C   0  0  0  0  0  0  0  0  0  0  0  0
   -2.3368    0.1685   -0.0351 C   0  0  0  0  0  0  0  0  0  0  0  0
   -4.4524   -1.8307    0.7502 C   0  0  0  0  0  0  0  0  0  0  0  0
   -5.3759   -2.8655    0.7643 C   0  0  0  0  0  0  0  0  0  0  0  0
   -6.5581   -2.7565    0.0435 C   0  0  0  0  0  0  0  0  0  0  0  0
    6.8905    1.7621   -1.6937 H   0  0  0  0  0  0  0  0  0  0  0  0
    7.6827    1.4528   -0.1503 H   0  0  0  0  0  0  0  0  0  0  0  0
    7.3741    0.1203   -1.2641 H   0  0  0  0  0  0  0  0  0  0  0  0
    2.4066    1.6372   -1.1634 H   0  0  0  0  0  0  0  0  0  0  0  0
    1.6832   -2.7143    0.9730 H   0  0  0  0  0  0  0  0  0  0  0  0
    1.0911    3.3454   -0.0999 H   0  0  0  0  0  0  0  0  0  0  0  0
   -5.1933    1.9839    0.0850 H   0  0  0  0  0  0  0  0  0  0  0  0
   -7.7217   -1.5136   -1.2636 H   0  0  0  0  0  0  0  0  0  0  0  0
   -6.0795    0.3082   -1.3086 H   0  0  0  0  0  0  0  0  0  0  0  0
    5.7272    0.0865    0.5797 H   0  0  0  0  0  0  0  0  0  0  0  0
    4.1262    1.9798    0.9016 H   0  0  0  0  0  0  0  0  0  0  0  0
    5.7888    2.4966    1.1532 H   0  0  0  0  0  0  0  0  0  0  0  0
    4.9620    2.8957   -0.3515 H   0  0  0  0  0  0  0  0  0  0  0  0
    5.1064   -0.5553   -1.7962 H   0  0  0  0  0  0  0  0  0  0  0  0
    4.4044    1.0345   -1.9856 H   0  0  0  0  0  0  0  0  0  0  0  0
   -0.0861   -1.0789    1.0137 H   0  0  0  0  0  0  0  0  0  0  0  0
    4.4057   -4.3570    0.3271 H   0  0  0  0  0  0  0  0  0  0  0  0
   -1.1374    4.4449   -0.0463 H   0  0  0  0  0  0  0  0  0  0  0  0
   -1.9802   -0.8523   -0.0933 H   0  0  0  0  0  0  0  0  0  0  0  0
   -3.5452   -1.9187    1.3357 H   0  0  0  0  0  0  0  0  0  0  0  0
   -5.1744   -3.7547    1.3477 H   0  0  0  0  0  0  0  0  0  0  0  0
   -7.2804   -3.5620    0.0557 H   0  0  0  0  0  0  0  0  0  0  0  0
 28 15  2  0
 28 27  1  0
 15 16  1  0
  1 17  1  0
 27 26  2  0
 18 17  1  0
 21  8  2  0
 16 14  2  0
 17 19  1  0
 26 14  1  0
 14 12  1  0
 19  3  1  0
  8  7  1  0
  8 22  1  0
  3  7  2  0
  3  4  1  0
  7  6  1  0
 12 25  2  0
 12 11  1  0
 25 13  1  0
  4  5  2  0
  6 20  2  0
  5 20  1  0
  5  9  1  0
 11  2  2  0
 13  9  1  0
 13 24  2  0
  9 10  2  0
  2 24  1  0
 24 23  1  0
 10 23  1  0
  1 29  1  0
  1 30  1  0
  1 31  1  0
  4 32  1  0
  6 33  1  0
 10 34  1  0
 11 35  1  0
 15 36  1  0
 16 37  1  0
 17 38  1  1
 18 39  1  0
 18 40  1  0
 18 41  1  0
 19 42  1  0
 19 43  1  0
 20 44  1  0
 22 45  1  0
 23 46  1  0
 25 47  1  0
 26 48  1  0
 27 49  1  0
 28 50  1  0
M  END
