
     RDKit          3D

 50 52  0  0  0  0  0  0  0  0999 V2000
    4.0443    0.6858    2.3287 O   0  0  0  0  0  0  0  0  0  0  0  0
    2.8512    0.1437    2.2485 C   0  0  0  0  0  0  0  0  0  0  0  0
    1.9576    0.1445    1.1729 C   0  0  0  0  0  0  0  0  0  0  0  0
    2.2931    0.7442   -0.0851 C   0  0  0  0  0  0  0  0  0  0  0  0
    3.3156    1.4079   -0.2215 O   0  0  0  0  0  0  0  0  0  0  0  0
    1.4065    0.4938   -1.2610 C   0  0  0  0  0  0  0  0  0  0  0  0
    0.8457    1.5248   -2.0078 C   0  0  0  0  0  0  0  0  0  0  0  0
    1.1044    3.1722   -1.5718 Cl  0  0  0  0  0  0  0  0  0  0  0  0
    0.0339    1.2545   -3.0977 C   0  0  0  0  0  0  0  0  0  0  0  0
   -0.1762   -0.0663   -3.4551 C   0  0  0  0  0  0  0  0  0  0  0  0
    0.3965   -1.1153   -2.7529 C   0  0  0  0  0  0  0  0  0  0  0  0
    1.1734   -0.8225   -1.6471 C   0  0  0  0  0  0  0  0  0  0  0  0
   -1.2043   -0.4326   -4.8617 S   0  0  2  0  0  0  0  0  0  0  0  0
   -0.6380   -1.5986   -5.5330 O   0  0  0  0  0  0  0  0  0  0  0  0
   -1.3982    0.7985   -5.6216 O   0  0  0  0  0  0  0  0  0  0  0  0
   -2.7502   -0.9007   -4.1224 C   0  0  0  0  0  0  0  0  0  0  0  0
    0.8440   -0.5841    1.6721 C   0  0  0  0  0  0  0  0  0  0  0  0
    1.0631   -0.9871    2.8947 N   0  0  0  0  0  0  0  0  0  0  0  0
    2.2930   -0.5453    3.2449 N   0  0  0  0  0  0  0  0  0  0  0  0
    2.8590   -0.8498    4.5817 C   0  0  2  0  0  0  0  0  0  0  0  0
    1.8488   -1.6751    5.3714 C   0  0  0  0  0  0  0  0  0  0  0  0
    3.1260    0.4600    5.3237 C   0  0  0  0  0  0  0  0  0  0  0  0
    4.1393   -1.6673    4.4050 C   0  0  0  0  0  0  0  0  0  0  0  0
   -0.4212   -0.9310    1.0077 C   0  0  0  0  0  0  0  0  0  0  0  0
   -1.3194    0.0324    0.5547 C   0  0  0  0  0  0  0  0  0  0  0  0
   -0.9964    1.7079    0.8205 Cl  0  0  0  0  0  0  0  0  0  0  0  0
   -2.4976   -0.3115   -0.0879 C   0  0  0  0  0  0  0  0  0  0  0  0
   -2.7881   -1.6546   -0.2618 C   0  0  0  0  0  0  0  0  0  0  0  0
   -4.2635   -2.0984   -1.0464 Cl  0  0  0  0  0  0  0  0  0  0  0  0
   -1.9306   -2.6435    0.1923 C   0  0  0  0  0  0  0  0  0  0  0  0
   -0.7575   -2.2695    0.8246 C   0  0  0  0  0  0  0  0  0  0  0  0
    4.2041    1.1591    1.4884 H   0  0  0  0  0  0  0  0  0  0  0  0
   -0.4174    2.0648   -3.6535 H   0  0  0  0  0  0  0  0  0  0  0  0
    0.2425   -2.1449   -3.0456 H   0  0  0  0  0  0  0  0  0  0  0  0
    1.6227   -1.6311   -1.0860 H   0  0  0  0  0  0  0  0  0  0  0  0
   -3.4254   -1.1776   -4.9320 H   0  0  0  0  0  0  0  0  0  0  0  0
   -2.5923   -1.7513   -3.4640 H   0  0  0  0  0  0  0  0  0  0  0  0
   -3.1589   -0.0581   -3.5694 H   0  0  0  0  0  0  0  0  0  0  0  0
    2.2925   -1.9020    6.3408 H   0  0  0  0  0  0  0  0  0  0  0  0
    0.9190   -1.1358    5.5454 H   0  0  0  0  0  0  0  0  0  0  0  0
    1.6147   -2.6188    4.8815 H   0  0  0  0  0  0  0  0  0  0  0  0
    2.2098    1.0443    5.4157 H   0  0  0  0  0  0  0  0  0  0  0  0
    3.4832    0.2375    6.3294 H   0  0  0  0  0  0  0  0  0  0  0  0
    3.8810    1.0749    4.8363 H   0  0  0  0  0  0  0  0  0  0  0  0
    3.9341   -2.5928    3.8655 H   0  0  0  0  0  0  0  0  0  0  0  0
    4.9182   -1.1225    3.8749 H   0  0  0  0  0  0  0  0  0  0  0  0
    4.5327   -1.9346    5.3860 H   0  0  0  0  0  0  0  0  0  0  0  0
   -3.1787    0.4556   -0.4268 H   0  0  0  0  0  0  0  0  0  0  0  0
   -2.1697   -3.6887    0.0559 H   0  0  0  0  0  0  0  0  0  0  0  0
   -0.0742   -3.0341    1.1696 H   0  0  0  0  0  0  0  0  0  0  0  0
  1  2  1  0
  1 32  1  0
  2  3  2  0
  2 19  1  0
  3  4  1  0
  3 17  1  0
  4  5  2  0
  4  6  1  0
  6  7  2  0
  6 12  1  0
  7  8  1  0
  7  9  1  0
  9 10  2  0
  9 33  1  0
 10 11  1  0
 10 13  1  0
 11 12  2  0
 11 34  1  0
 12 35  1  0
 13 14  2  0
 13 15  2  0
 13 16  1  1
 16 36  1  0
 16 37  1  0
 16 38  1  0
 17 18  2  0
 17 24  1  0
 18 19  1  0
 19 20  1  0
 20 21  1  1
 20 22  1  0
 20 23  1  0
 21 39  1  0
 21 40  1  0
 21 41  1  0
 22 42  1  0
 22 43  1  0
 22 44  1  0
 23 45  1  0
 23 46  1  0
 23 47  1  0
 24 25  2  0
 24 31  1  0
 25 26  1  0
 25 27  1  0
 27 28  2  0
 27 48  1  0
 28 29  1  0
 28 30  1  0
 30 31  2  0
 30 49  1  0
 31 50  1  0
M  END
