
     RDKit          3D

 41 43  0  0  0  0  0  0  0  0999 V2000
    4.2769    1.8855    0.4698 Cl  0  0  0  0  0  0  0  0  0  0  0  0
    4.8043    0.2290    0.5146 C   0  0  0  0  0  0  0  0  0  0  0  0
    6.1676   -0.0197    0.4525 C   0  0  0  0  0  0  0  0  0  0  0  0
    6.6255   -1.3275    0.4980 C   0  0  0  0  0  0  0  0  0  0  0  0
    5.7182   -2.3711    0.6099 C   0  0  0  0  0  0  0  0  0  0  0  0
    4.3599   -2.0991    0.6712 C   0  0  0  0  0  0  0  0  0  0  0  0
    3.8653   -0.7961    0.6222 C   0  0  0  0  0  0  0  0  0  0  0  0
    2.3854   -0.5414    0.6663 C   0  0  0  0  0  0  0  0  0  0  0  0
    1.8077   -0.2505   -0.7228 C   0  0  1  0  0  0  0  0  0  0  0  0
    1.9932   -1.4065   -1.7102 C   0  0  0  0  0  0  0  0  0  0  0  0
    0.7455   -1.3546   -2.5810 C   0  0  0  0  0  0  0  0  0  0  0  0
   -0.3376   -1.0000   -1.5747 C   0  0  0  0  0  0  0  0  0  0  0  0
    0.3505   -0.0698   -0.6784 N   0  0  0  0  0  0  0  0  0  0  0  0
   -0.1840    1.0416   -0.1446 C   0  0  0  0  0  0  0  0  0  0  0  0
    0.5066    1.9541    0.3022 O   0  0  0  0  0  0  0  0  0  0  0  0
   -1.6744    1.1185   -0.0866 C   0  0  0  0  0  0  0  0  0  0  0  0
   -2.3462    2.2854   -0.4999 C   0  0  0  0  0  0  0  0  0  0  0  0
   -1.6889    3.3451   -1.0623 N   0  0  0  0  0  0  0  0  0  0  0  0
   -2.3882    0.0520    0.4521 C   0  0  0  0  0  0  0  0  0  0  0  0
   -3.7641    0.1129    0.5684 C   0  0  0  0  0  0  0  0  0  0  0  0
   -4.7135   -1.3391    1.3182 Br  0  0  0  0  0  0  0  0  0  0  0  0
   -4.4486    1.2412    0.1348 C   0  0  0  0  0  0  0  0  0  0  0  0
   -3.7450    2.3056   -0.3919 C   0  0  0  0  0  0  0  0  0  0  0  0
    6.8661    0.8021    0.3719 H   0  0  0  0  0  0  0  0  0  0  0  0
    7.6885   -1.5227    0.4504 H   0  0  0  0  0  0  0  0  0  0  0  0
    6.0653   -3.3950    0.6523 H   0  0  0  0  0  0  0  0  0  0  0  0
    3.6564   -2.9177    0.7628 H   0  0  0  0  0  0  0  0  0  0  0  0
    1.8824   -1.4235    1.0698 H   0  0  0  0  0  0  0  0  0  0  0  0
    2.1678    0.2906    1.3363 H   0  0  0  0  0  0  0  0  0  0  0  0
    2.2613    0.6611   -1.1209 H   0  0  0  0  0  0  0  0  0  0  0  0
    2.9194   -1.3158   -2.2757 H   0  0  0  0  0  0  0  0  0  0  0  0
    2.0276   -2.3592   -1.1742 H   0  0  0  0  0  0  0  0  0  0  0  0
    0.8318   -0.5683   -3.3339 H   0  0  0  0  0  0  0  0  0  0  0  0
    0.5421   -2.2944   -3.0930 H   0  0  0  0  0  0  0  0  0  0  0  0
   -1.2116   -0.5376   -2.0290 H   0  0  0  0  0  0  0  0  0  0  0  0
   -0.6686   -1.8929   -1.0374 H   0  0  0  0  0  0  0  0  0  0  0  0
   -0.7339    3.4909   -0.7796 H   0  0  0  0  0  0  0  0  0  0  0  0
   -2.2132    4.2014   -1.1353 H   0  0  0  0  0  0  0  0  0  0  0  0
   -1.8492   -0.8237    0.7918 H   0  0  0  0  0  0  0  0  0  0  0  0
   -5.5261    1.3046    0.2101 H   0  0  0  0  0  0  0  0  0  0  0  0
   -4.2876    3.1828   -0.7229 H   0  0  0  0  0  0  0  0  0  0  0  0
  1  2  1  0
  7  2  2  0
  2  3  1  0
  3  4  2  0
  3 24  1  0
  5  4  1  0
  4 25  1  0
  6  5  2  0
  5 26  1  0
  7  6  1  0
  6 27  1  0
  8  7  1  0
  9  8  1  0
  8 28  1  0
  8 29  1  0
 10  9  1  0
 13  9  1  0
  9 30  1  6
 11 10  1  0
 10 31  1  0
 10 32  1  0
 11 12  1  0
 11 33  1  0
 11 34  1  0
 12 13  1  0
 12 35  1  0
 12 36  1  0
 14 13  1  0
 15 14  2  0
 14 16  1  0
 19 16  1  0
 16 17  2  0
 17 23  1  0
 17 18  1  0
 18 37  1  0
 18 38  1  0
 19 20  2  0
 19 39  1  0
 21 20  1  0
 20 22  1  0
 22 23  2  0
 22 40  1  0
 23 41  1  0
M  END
