
     RDKit          3D

 39 40  0  0  0  0  0  0  0  0999 V2000
   -2.6986   -0.5196   -4.0890 O   0  0  0  0  0  0  0  0  0  0  0  0
   -1.5359   -0.7369   -4.8355 C   0  0  0  0  0  0  0  0  0  0  0  0
   -0.3084   -0.3817   -4.0409 C   0  0  0  0  0  0  0  0  0  0  0  0
   -0.4617    0.0746   -2.8161 N   0  0  0  0  0  0  0  0  0  0  0  0
    0.6305    0.3966   -2.1105 C   0  0  0  0  0  0  0  0  0  0  0  0
    1.9019    0.2452   -2.7008 C   0  0  0  0  0  0  0  0  0  0  0  0
    1.9292   -0.2430   -3.9841 C   0  0  0  0  0  0  0  0  0  0  0  0
    0.8401   -0.5664   -4.6804 N   0  0  0  0  0  0  0  0  0  0  0  0
    0.4397    0.8559   -0.8545 N   0  0  0  0  0  0  0  0  0  0  0  0
   -0.8789    1.0451   -0.2853 C   0  0  0  0  0  0  0  0  0  0  0  0
   -0.9884    0.3457    1.0583 C   0  0  0  0  0  0  0  0  0  0  0  0
    0.0715    0.8345    1.9419 N   0  0  0  0  0  0  0  0  0  0  0  0
   -0.0959    0.4546    3.5506 S   0  0  1  0  0  0  0  0  0  0  0  0
   -1.4541    0.8168    3.9109 O   0  0  0  0  0  0  0  0  0  0  0  0
    0.0701   -1.1860    3.6754 N   0  0  0  0  0  0  0  0  0  0  0  0
    1.2888   -1.7080    4.2805 C   0  0  0  0  0  0  0  0  0  0  0  0
   -1.1282   -1.9818    3.9095 C   0  0  0  0  0  0  0  0  0  0  0  0
    1.0221    1.0829    4.2300 O   0  0  0  0  0  0  0  0  0  0  0  0
    1.3965    0.5887    1.3735 C   0  0  0  0  0  0  0  0  0  0  0  0
    1.5004    1.2865    0.0275 C   0  0  0  0  0  0  0  0  0  0  0  0
   -3.4474   -0.7250   -4.6556 H   0  0  0  0  0  0  0  0  0  0  0  0
   -1.5135   -0.1382   -5.7561 H   0  0  0  0  0  0  0  0  0  0  0  0
   -1.4319   -1.7833   -5.1534 H   0  0  0  0  0  0  0  0  0  0  0  0
    2.8275    0.4873   -2.2039 H   0  0  0  0  0  0  0  0  0  0  0  0
    2.8831   -0.3816   -4.4818 H   0  0  0  0  0  0  0  0  0  0  0  0
   -1.6287    0.6481   -0.9626 H   0  0  0  0  0  0  0  0  0  0  0  0
   -1.0688    2.1155   -0.1531 H   0  0  0  0  0  0  0  0  0  0  0  0
   -0.9153   -0.7401    0.9174 H   0  0  0  0  0  0  0  0  0  0  0  0
   -1.9628    0.5776    1.4836 H   0  0  0  0  0  0  0  0  0  0  0  0
    1.2888   -1.6249    5.3701 H   0  0  0  0  0  0  0  0  0  0  0  0
    1.3618   -2.7613    4.0158 H   0  0  0  0  0  0  0  0  0  0  0  0
    2.1718   -1.2116    3.8885 H   0  0  0  0  0  0  0  0  0  0  0  0
   -1.4452   -1.9677    4.9552 H   0  0  0  0  0  0  0  0  0  0  0  0
   -1.9551   -1.6520    3.2865 H   0  0  0  0  0  0  0  0  0  0  0  0
   -0.9019   -3.0095    3.6312 H   0  0  0  0  0  0  0  0  0  0  0  0
    2.1648    0.9974    2.0265 H   0  0  0  0  0  0  0  0  0  0  0  0
    1.5788   -0.4858    1.2442 H   0  0  0  0  0  0  0  0  0  0  0  0
    2.4785    1.0647   -0.3878 H   0  0  0  0  0  0  0  0  0  0  0  0
    1.4417    2.3699    0.1731 H   0  0  0  0  0  0  0  0  0  0  0  0
  1  2  1  0
  1 21  1  0
  2  3  1  0
  2 22  1  0
  2 23  1  0
  3  4  2  0
  3  8  1  0
  4  5  1  0
  5  6  2  0
  5  9  1  0
  6  7  1  0
  6 24  1  0
  7  8  2  0
  7 25  1  0
  9 10  1  0
  9 20  1  0
 10 11  1  0
 10 26  1  0
 10 27  1  0
 11 12  1  0
 11 28  1  0
 11 29  1  0
 12 13  1  0
 12 19  1  0
 13 14  2  0
 13 15  1  6
 13 18  2  0
 15 16  1  0
 15 17  1  0
 16 30  1  0
 16 31  1  0
 16 32  1  0
 17 33  1  0
 17 34  1  0
 17 35  1  0
 19 20  1  0
 19 36  1  0
 19 37  1  0
 20 38  1  0
 20 39  1  0
M  END
