
     RDKit          3D

 56 59  0  0  0  0  0  0  0  0999 V2000
   -6.2289    0.7550   -0.5056 C   0  0  0  0  0  0  0  0  0  0  0  0
   -6.0878    1.2911    0.7718 C   0  0  0  0  0  0  0  0  0  0  0  0
   -4.8067    1.4155    1.2797 C   0  0  0  0  0  0  0  0  0  0  0  0
   -3.6920    1.0254    0.5584 C   0  0  0  0  0  0  0  0  0  0  0  0
   -3.8689    0.4631   -0.6995 C   0  0  0  0  0  0  0  0  0  0  0  0
   -5.1322    0.3345   -1.2507 C   0  0  0  0  0  0  0  0  0  0  0  0
   -2.8080    0.1221   -1.4794 O   0  0  0  0  0  0  0  0  0  0  0  0
   -7.5383    0.6262   -1.0630 C   0  0  0  0  0  0  0  0  0  0  0  0
   -4.5892    2.0827    2.8576 Cl  0  0  0  0  0  0  0  0  0  0  0  0
   -1.7328   -0.5037   -0.9322 C   0  0  0  0  0  0  0  0  0  0  0  0
   -0.4693   -0.0189   -1.3372 C   0  0  0  0  0  0  0  0  0  0  0  0
    0.6388   -0.6277   -0.8446 C   0  0  0  0  0  0  0  0  0  0  0  0
    0.5012   -1.6789   -0.0052 N   0  0  0  0  0  0  0  0  0  0  0  0
   -0.6945   -2.2328    0.4134 C   0  0  0  0  0  0  0  0  0  0  0  0
   -1.8790   -1.5752   -0.0892 C   0  0  0  0  0  0  0  0  0  0  0  0
   -3.1619   -2.0476    0.2167 N   0  0  0  0  0  0  0  0  0  0  0  0
   -0.6945   -3.2154    1.1493 O   0  0  0  0  0  0  0  0  0  0  0  0
   -3.6355   -3.1448   -0.5971 C   0  0  0  0  0  0  0  0  0  0  0  0
   -3.5244   -2.1469    1.6125 C   0  0  0  0  0  0  0  0  0  0  0  0
    2.0273   -0.1920   -1.1754 C   0  0  0  0  0  0  0  0  0  0  0  0
   -8.5937    0.5232   -1.5118 N   0  0  0  0  0  0  0  0  0  0  0  0
    2.6059    0.6704   -0.0567 C   0  0  0  0  0  0  0  0  0  0  0  0
    1.9614    0.8712    0.9604 O   0  0  0  0  0  0  0  0  0  0  0  0
    3.8229    1.2075   -0.2671 N   0  0  0  0  0  0  0  0  0  0  0  0
    4.7164    0.8587   -1.3498 C   0  0  0  0  0  0  0  0  0  0  0  0
    5.4803    1.0334    1.4933 C   0  0  0  0  0  0  0  0  0  0  0  0
    4.4939    1.9495    0.7862 C   0  0  0  0  0  0  0  0  0  0  0  0
    6.3291    0.2691    0.5082 C   0  0  0  0  0  0  0  0  0  0  0  0
    5.9596    0.1711   -0.8341 C   0  0  0  0  0  0  0  0  0  0  0  0
    6.7585   -0.5455   -1.7222 C   0  0  0  0  0  0  0  0  0  0  0  0
    7.9178   -1.1691   -1.2901 C   0  0  0  0  0  0  0  0  0  0  0  0
    8.2889   -1.0767    0.0466 C   0  0  0  0  0  0  0  0  0  0  0  0
    7.4974   -0.3633    0.9324 C   0  0  0  0  0  0  0  0  0  0  0  0
   -6.9510    1.6027    1.3420 H   0  0  0  0  0  0  0  0  0  0  0  0
   -2.7010    1.1470    0.9763 H   0  0  0  0  0  0  0  0  0  0  0  0
   -5.2613   -0.0926   -2.2358 H   0  0  0  0  0  0  0  0  0  0  0  0
   -0.3874    0.8233   -2.0084 H   0  0  0  0  0  0  0  0  0  0  0  0
    1.3375   -2.1310    0.3418 H   0  0  0  0  0  0  0  0  0  0  0  0
   -3.2047   -4.1141   -0.3142 H   0  0  0  0  0  0  0  0  0  0  0  0
   -4.7213   -3.2215   -0.5062 H   0  0  0  0  0  0  0  0  0  0  0  0
   -3.4064   -2.9630   -1.6468 H   0  0  0  0  0  0  0  0  0  0  0  0
   -3.0947   -1.3171    2.1733 H   0  0  0  0  0  0  0  0  0  0  0  0
   -4.6108   -2.0754    1.7052 H   0  0  0  0  0  0  0  0  0  0  0  0
   -3.2047   -3.0806    2.0877 H   0  0  0  0  0  0  0  0  0  0  0  0
    2.6614   -1.0673   -1.3454 H   0  0  0  0  0  0  0  0  0  0  0  0
    2.0155    0.3669   -2.1125 H   0  0  0  0  0  0  0  0  0  0  0  0
    4.2161    0.2275   -2.0803 H   0  0  0  0  0  0  0  0  0  0  0  0
    4.9994    1.7742   -1.8803 H   0  0  0  0  0  0  0  0  0  0  0  0
    6.1178    1.6195    2.1590 H   0  0  0  0  0  0  0  0  0  0  0  0
    4.9331    0.3299    2.1281 H   0  0  0  0  0  0  0  0  0  0  0  0
    5.0190    2.7869    0.3199 H   0  0  0  0  0  0  0  0  0  0  0  0
    3.7660    2.3630    1.4789 H   0  0  0  0  0  0  0  0  0  0  0  0
    6.4639   -0.6184   -2.7631 H   0  0  0  0  0  0  0  0  0  0  0  0
    8.5260   -1.7276   -1.9897 H   0  0  0  0  0  0  0  0  0  0  0  0
    9.1933   -1.5579    0.3960 H   0  0  0  0  0  0  0  0  0  0  0  0
    7.7888   -0.2888    1.9740 H   0  0  0  0  0  0  0  0  0  0  0  0
  1  2  2  0
  1  6  1  0
  1  8  1  0
  2  3  1  0
  3  4  2  0
  3  9  1  0
  4  5  1  0
  5  6  2  0
  5  7  1  0
  7 10  1  0
  8 21  3  0
 10 11  1  0
 10 15  2  0
 11 12  2  0
 12 13  1  0
 12 20  1  0
 13 14  1  0
 14 15  1  0
 14 17  2  0
 15 16  1  0
 16 18  1  0
 16 19  1  0
 20 22  1  0
 22 23  2  0
 22 24  1  0
 24 25  1  0
 24 27  1  0
 25 29  1  0
 26 27  1  0
 26 28  1  0
 28 29  2  0
 28 33  1  0
 29 30  1  0
 30 31  2  0
 31 32  1  0
 32 33  2  0
  2 34  1  0
  4 35  1  0
  6 36  1  0
 11 37  1  0
 13 38  1  0
 18 39  1  0
 18 40  1  0
 18 41  1  0
 19 42  1  0
 19 43  1  0
 19 44  1  0
 20 45  1  0
 20 46  1  0
 25 47  1  0
 25 48  1  0
 26 49  1  0
 26 50  1  0
 27 51  1  0
 27 52  1  0
 30 53  1  0
 31 54  1  0
 32 55  1  0
 33 56  1  0
M  END
