
     RDKit          3D

 44 47  0  0  0  0  0  0  0  0999 V2000
    5.1399   -2.9370   -0.1783 C   0  0  0  0  0  0  0  0  0  0  0  0
   -1.8634    0.0734    0.1647 C   0  0  2  0  0  0  0  0  0  0  0  0
    3.7810   -3.0651    0.0716 C   0  0  0  0  0  0  0  0  0  0  0  0
    2.9723   -1.9417    0.1464 C   0  0  0  0  0  0  0  0  0  0  0  0
    3.5100   -0.6716   -0.0286 C   0  0  0  0  0  0  0  0  0  0  0  0
    0.9117    0.2399    0.1776 C   0  0  0  0  0  0  0  0  0  0  0  0
    0.2881    0.1969    1.3822 C   0  0  0  0  0  0  0  0  0  0  0  0
   -1.1294   -0.2494    1.4624 C   0  0  0  0  0  0  0  0  0  0  0  0
    5.6918   -1.6767   -0.3485 C   0  0  0  0  0  0  0  0  0  0  0  0
    4.8766   -0.5593   -0.2729 C   0  0  0  0  0  0  0  0  0  0  0  0
    2.5558    0.8206    0.0484 S   0  0  0  0  0  0  0  0  0  0  0  0
    0.8490    0.4845    2.5301 O   0  0  0  0  0  0  0  0  0  0  0  0
   -2.0602    1.5555   -0.0435 C   0  0  0  0  0  0  0  0  0  0  0  0
   -1.8414    2.5314    0.8814 C   0  0  0  0  0  0  0  0  0  0  0  0
   -2.2030    4.0862    0.2640 S   0  0  0  0  0  0  0  0  0  0  0  0
   -2.6564    3.4391   -1.2570 C   0  0  0  0  0  0  0  0  0  0  0  0
   -2.5355    2.0865   -1.2802 C   0  0  0  0  0  0  0  0  0  0  0  0
   -3.1934   -0.6629    0.1587 C   0  0  0  0  0  0  0  0  0  0  0  0
   -3.3069   -1.9193   -0.4197 C   0  0  0  0  0  0  0  0  0  0  0  0
   -4.5094   -2.6347   -0.3540 C   0  0  0  0  0  0  0  0  0  0  0  0
   -4.5955   -3.9012   -0.8859 N   0  0  0  0  0  0  0  0  0  0  0  0
   -5.5974   -2.0578    0.3105 C   0  0  0  0  0  0  0  0  0  0  0  0
   -5.4722   -0.8080    0.8914 C   0  0  0  0  0  0  0  0  0  0  0  0
   -4.2801   -0.1005    0.8226 C   0  0  0  0  0  0  0  0  0  0  0  0
   -1.1023   -0.4220   -0.9463 O   0  0  0  0  0  0  0  0  0  0  0  0
    0.2136   -0.1712   -1.0344 C   0  0  0  0  0  0  0  0  0  0  0  0
    0.7573   -0.3387   -2.0967 O   0  0  0  0  0  0  0  0  0  0  0  0
    5.7736   -3.8110   -0.2402 H   0  0  0  0  0  0  0  0  0  0  0  0
    3.3425   -4.0438    0.2119 H   0  0  0  0  0  0  0  0  0  0  0  0
    1.9161   -2.0590    0.3482 H   0  0  0  0  0  0  0  0  0  0  0  0
   -1.6382    0.2027    2.3141 H   0  0  0  0  0  0  0  0  0  0  0  0
   -1.1423   -1.3308    1.6341 H   0  0  0  0  0  0  0  0  0  0  0  0
    6.7500   -1.5591   -0.5385 H   0  0  0  0  0  0  0  0  0  0  0  0
    1.7792    0.7446    2.4018 H   0  0  0  0  0  0  0  0  0  0  0  0
   -1.4955    2.4332    1.8994 H   0  0  0  0  0  0  0  0  0  0  0  0
   -2.9902    4.0884   -2.0515 H   0  0  0  0  0  0  0  0  0  0  0  0
   -2.7792    1.4849   -2.1446 H   0  0  0  0  0  0  0  0  0  0  0  0
   -2.4661   -2.3704   -0.9313 H   0  0  0  0  0  0  0  0  0  0  0  0
   -3.9373   -4.1200   -1.6159 H   0  0  0  0  0  0  0  0  0  0  0  0
   -5.5228   -4.2298   -1.1009 H   0  0  0  0  0  0  0  0  0  0  0  0
   -6.5388   -2.5918    0.3665 H   0  0  0  0  0  0  0  0  0  0  0  0
   -6.3218   -0.3738    1.4029 H   0  0  0  0  0  0  0  0  0  0  0  0
   -4.2056    0.8782    1.2780 H   0  0  0  0  0  0  0  0  0  0  0  0
    5.5750    1.0129   -0.4793 Cl  0  0  0  0  0  0  0  0  0  0  0  0
  9  1  2  0
  9 10  1  0
  1  3  1  0
 44 10  1  0
 10  5  2  0
 12  7  1  0
  3  4  2  0
  5  4  1  0
  5 11  1  0
 11  6  1  0
  7  6  2  0
  7  8  1  0
  6 26  1  0
  8  2  1  0
 16 17  2  0
 16 15  1  0
 17 13  1  0
  2 13  1  6
 13 14  2  0
 26 27  2  0
 26 25  1  0
 15 14  1  0
  2 25  1  0
  2 18  1  0
 18 24  1  0
 18 19  2  0
 24 23  2  0
 19 20  1  0
 23 22  1  0
 20 22  2  0
 20 21  1  0
  1 28  1  0
  3 29  1  0
  4 30  1  0
  8 31  1  0
  8 32  1  0
  9 33  1  0
 12 34  1  0
 14 35  1  0
 16 36  1  0
 17 37  1  0
 19 38  1  0
 21 39  1  0
 21 40  1  0
 22 41  1  0
 23 42  1  0
 24 43  1  0
M  END
