
     RDKit          3D

 50 53  0  0  0  0  0  0  0  0999 V2000
    6.8882   -0.8468   -1.8698 C   0  0  0  0  0  0  0  0  0  0  0  0
    7.8662   -1.7952   -1.8378 C   0  0  0  0  0  0  0  0  0  0  0  0
    7.8863   -2.4169   -0.6197 N   0  0  0  0  0  0  0  0  0  0  0  0
    6.9329   -1.8580    0.0733 C   0  0  0  0  0  0  0  0  0  0  0  0
    6.2893   -0.8964   -0.6362 N   0  0  0  0  0  0  0  0  0  0  0  0
    5.2206   -0.0953   -0.1809 C   0  0  0  0  0  0  0  0  0  0  0  0
    5.1797    1.2559   -0.4982 C   0  0  0  0  0  0  0  0  0  0  0  0
    4.1205    2.0313   -0.0542 C   0  0  0  0  0  0  0  0  0  0  0  0
    4.2051   -0.6595    0.5821 C   0  0  0  0  0  0  0  0  0  0  0  0
    3.1645    0.1339    1.0388 C   0  0  0  0  0  0  0  0  0  0  0  0
    3.1052    1.4867    0.7232 C   0  0  0  0  0  0  0  0  0  0  0  0
    2.0066    2.3795    1.2581 C   0  0  2  0  0  0  0  0  0  0  0  0
    2.3295    2.8325    2.6779 C   0  0  0  0  0  0  0  0  0  0  0  0
    0.7127    1.7307    1.2514 N   0  0  0  0  0  0  0  0  0  0  0  0
    0.0637    1.4199    0.1164 C   0  0  0  0  0  0  0  0  0  0  0  0
    0.5083    1.6958   -0.9881 O   0  0  0  0  0  0  0  0  0  0  0  0
   -1.2435    0.6806    0.3083 C   0  0  0  0  0  0  0  0  0  0  0  0
   -2.2611    1.0655   -0.7500 C   0  0  0  0  0  0  0  0  0  0  0  0
   -3.5488    0.3116   -0.6402 C   0  0  0  0  0  0  0  0  0  0  0  0
   -3.7088   -0.6348    0.2114 N   0  0  0  0  0  0  0  0  0  0  0  0
   -4.9225   -1.2840    0.2341 C   0  0  0  0  0  0  0  0  0  0  0  0
   -5.1127   -2.3207    1.1577 C   0  0  0  0  0  0  0  0  0  0  0  0
   -6.3153   -2.9915    1.2090 C   0  0  0  0  0  0  0  0  0  0  0  0
   -7.3619   -2.6506    0.3448 C   0  0  0  0  0  0  0  0  0  0  0  0
   -7.1908   -1.6346   -0.5698 C   0  0  0  0  0  0  0  0  0  0  0  0
   -5.9752   -0.9474   -0.6310 C   0  0  0  0  0  0  0  0  0  0  0  0
   -5.7766    0.1309   -1.5916 C   0  0  0  0  0  0  0  0  0  0  0  0
   -6.6014    0.5234   -2.3976 O   0  0  0  0  0  0  0  0  0  0  0  0
   -4.5259    0.6982   -1.5127 N   0  0  0  0  0  0  0  0  0  0  0  0
    6.5563   -0.1793   -2.6468 H   0  0  0  0  0  0  0  0  0  0  0  0
    8.5498   -2.0634   -2.6285 H   0  0  0  0  0  0  0  0  0  0  0  0
    6.6728   -2.0857    1.0961 H   0  0  0  0  0  0  0  0  0  0  0  0
    5.9717    1.7081   -1.0809 H   0  0  0  0  0  0  0  0  0  0  0  0
    4.0922    3.0828   -0.3142 H   0  0  0  0  0  0  0  0  0  0  0  0
    4.2151   -1.7177    0.8101 H   0  0  0  0  0  0  0  0  0  0  0  0
    2.3802   -0.3240    1.6287 H   0  0  0  0  0  0  0  0  0  0  0  0
    1.9544    3.2645    0.6175 H   0  0  0  0  0  0  0  0  0  0  0  0
    1.5679    3.5195    3.0490 H   0  0  0  0  0  0  0  0  0  0  0  0
    2.3900    1.9819    3.3594 H   0  0  0  0  0  0  0  0  0  0  0  0
    3.2886    3.3474    2.6989 H   0  0  0  0  0  0  0  0  0  0  0  0
    0.2924    1.4930    2.1357 H   0  0  0  0  0  0  0  0  0  0  0  0
   -1.0302   -0.3902    0.2504 H   0  0  0  0  0  0  0  0  0  0  0  0
   -1.6432    0.8586    1.3074 H   0  0  0  0  0  0  0  0  0  0  0  0
   -2.4811    2.1358   -0.6938 H   0  0  0  0  0  0  0  0  0  0  0  0
   -1.8530    0.8957   -1.7501 H   0  0  0  0  0  0  0  0  0  0  0  0
   -4.3006   -2.5811    1.8242 H   0  0  0  0  0  0  0  0  0  0  0  0
   -6.4504   -3.7907    1.9260 H   0  0  0  0  0  0  0  0  0  0  0  0
   -8.3010   -3.1848    0.3953 H   0  0  0  0  0  0  0  0  0  0  0  0
   -7.9928   -1.3635   -1.2439 H   0  0  0  0  0  0  0  0  0  0  0  0
   -4.3295    1.4569   -2.1539 H   0  0  0  0  0  0  0  0  0  0  0  0
  2  1  2  0
  2  3  1  0
  1  5  1  0
 24 25  1  0
 24 23  2  0
 25 26  2  0
 23 22  1  0
  3  4  2  0
 28 27  2  0
 26 27  1  0
 26 21  1  0
  5  4  1  0
  5  6  1  0
 22 21  2  0
 27 29  1  0
 21 20  1  0
  7  6  2  0
  7  8  1  0
  6  9  1  0
 29 19  1  0
 20 19  2  0
  8 11  2  0
 19 18  1  0
 17 18  1  0
 17 15  1  0
  9 10  2  0
 15 14  1  0
 15 16  2  0
 11 10  1  0
 11 12  1  0
 14 12  1  0
 12 13  1  0
  1 30  1  0
  2 31  1  0
  4 32  1  0
  7 33  1  0
  8 34  1  0
  9 35  1  0
 10 36  1  0
 12 37  1  6
 13 38  1  0
 13 39  1  0
 13 40  1  0
 14 41  1  0
 17 42  1  0
 17 43  1  0
 18 44  1  0
 18 45  1  0
 22 46  1  0
 23 47  1  0
 24 48  1  0
 25 49  1  0
 29 50  1  0
M  END
