
     RDKit          3D

 37 38  0  0  0  0  0  0  0  0999 V2000
   -3.9852   -0.6108   -1.6217 F   0  0  0  0  0  0  0  0  0  0  0  0
   -2.9613    0.0735   -1.0471 C   0  0  1  0  0  0  0  0  0  0  0  0
   -2.4324    0.8770   -2.0107 F   0  0  0  0  0  0  0  0  0  0  0  0
   -3.7045    1.2158    0.2175 P   0  0  1  0  0  0  0  0  0  0  0  0
   -4.6484    2.1978   -0.3496 O   0  0  0  0  0  0  0  0  0  0  0  0
   -4.2577    0.1292    1.2421 O   0  0  0  0  0  0  0  0  0  0  0  0
   -2.4477    1.9361    0.8936 O   0  0  0  0  0  0  0  0  0  0  0  0
   -1.9232   -0.8617   -0.5098 C   0  0  0  0  0  0  0  0  0  0  0  0
   -2.2785   -2.1368   -0.0832 C   0  0  0  0  0  0  0  0  0  0  0  0
   -1.3055   -2.9750    0.4387 C   0  0  0  0  0  0  0  0  0  0  0  0
    0.0075   -2.5465    0.5487 C   0  0  0  0  0  0  0  0  0  0  0  0
    0.3740   -1.2666    0.1330 C   0  0  0  0  0  0  0  0  0  0  0  0
   -0.6056   -0.4315   -0.4006 C   0  0  0  0  0  0  0  0  0  0  0  0
    1.7687   -0.7997    0.2565 C   0  0  0  0  0  0  0  0  0  0  0  0
    2.8358   -1.6689    0.0264 C   0  0  0  0  0  0  0  0  0  0  0  0
    4.1440   -1.2322    0.1517 C   0  0  0  0  0  0  0  0  0  0  0  0
    4.4187    0.0834    0.5114 C   0  0  0  0  0  0  0  0  0  0  0  0
    3.3590    0.9554    0.7374 C   0  0  0  0  0  0  0  0  0  0  0  0
    2.0503    0.5189    0.6154 C   0  0  0  0  0  0  0  0  0  0  0  0
    5.8291    0.5602    0.6198 C   0  0  0  0  0  0  0  0  0  0  0  0
    6.2036    0.9950   -0.7042 O   0  0  0  0  0  0  0  0  0  0  0  0
    7.5033    1.4589   -0.7117 N   0  0  0  0  0  0  0  0  0  0  0  0
   -4.8563    0.4666    1.9245 H   0  0  0  0  0  0  0  0  0  0  0  0
   -1.9498    1.4235    1.5444 H   0  0  0  0  0  0  0  0  0  0  0  0
   -3.2995   -2.4857   -0.1525 H   0  0  0  0  0  0  0  0  0  0  0  0
   -0.3217    0.5493   -0.7600 H   0  0  0  0  0  0  0  0  0  0  0  0
   -1.5764   -3.9674    0.7723 H   0  0  0  0  0  0  0  0  0  0  0  0
    0.7479   -3.2077    0.9809 H   0  0  0  0  0  0  0  0  0  0  0  0
    2.6468   -2.6928   -0.2698 H   0  0  0  0  0  0  0  0  0  0  0  0
    1.2442    1.2098    0.8277 H   0  0  0  0  0  0  0  0  0  0  0  0
    4.9566   -1.9246   -0.0310 H   0  0  0  0  0  0  0  0  0  0  0  0
    3.5544    1.9808    1.0262 H   0  0  0  0  0  0  0  0  0  0  0  0
    5.9177    1.3978    1.3170 H   0  0  0  0  0  0  0  0  0  0  0  0
    6.5011   -0.2408    0.9421 H   0  0  0  0  0  0  0  0  0  0  0  0
    7.7138    1.7446   -1.6701 H   0  0  0  0  0  0  0  0  0  0  0  0
    7.6246    2.2735   -0.1004 H   0  0  0  0  0  0  0  0  0  0  0  0
    8.1735    0.7321   -0.4382 H   0  0  0  0  0  0  0  0  0  0  0  0
  2  1  1  6
  2  3  1  0
  2  4  1  0
  2  8  1  0
  4  5  2  0
  4  6  1  1
  4  7  1  0
  8  9  2  0
  8 13  1  0
  9 10  1  0
 10 11  2  0
 11 12  1  0
 12 13  2  0
 12 14  1  0
 14 15  2  0
 14 19  1  0
 15 16  1  0
 16 17  2  0
 17 18  1  0
 17 20  1  0
 18 19  2  0
 20 21  1  0
 21 22  1  0
  6 23  1  0
  7 24  1  0
  9 25  1  0
 13 26  1  0
 10 27  1  0
 11 28  1  0
 15 29  1  0
 19 30  1  0
 16 31  1  0
 18 32  1  0
 20 33  1  0
 20 34  1  0
 22 35  1  0
 22 36  1  0
 22 37  1  0
M  CHG  1  22   1
M  END
