
     RDKit          3D

 57 60  0  0  0  0  0  0  0  0999 V2000
    7.3783   -1.0842    0.0908 N   0  0  0  0  0  0  0  0  0  0  0  0
    5.1204   -0.5703   -0.3829 N   0  0  0  0  0  0  0  0  0  0  0  0
    2.7400    0.7122    0.2038 C   0  0  0  0  0  0  0  0  0  0  0  0
    6.2612   -1.1886   -0.7551 C   0  0  0  0  0  0  0  0  0  0  0  0
    5.0496    0.1015    0.7487 C   0  0  0  0  0  0  0  0  0  0  0  0
   -4.1322   -0.1792   -0.2342 N   0  0  0  0  0  0  0  0  0  0  0  0
    0.4168    1.3959    0.0381 N   0  0  0  0  0  0  0  0  0  0  0  0
    7.3012   -0.3898    1.2532 C   0  0  0  0  0  0  0  0  0  0  0  0
   -2.2490    0.9727   -0.9584 O   0  0  0  0  0  0  0  0  0  0  0  0
    9.7919    0.2643   -0.9159 C   0  0  0  0  0  0  0  0  0  0  0  0
    9.2821   -0.9872   -1.3225 O   0  0  0  0  0  0  0  0  0  0  0  0
    6.3599   -1.8304   -1.7909 O   0  0  0  0  0  0  0  0  0  0  0  0
    8.6355   -1.6913   -0.3182 C   0  0  0  0  0  0  0  0  0  0  0  0
    6.1636    0.2170    1.6401 C   0  0  0  0  0  0  0  0  0  0  0  0
    3.8962    0.6894    1.0709 N   0  0  0  0  0  0  0  0  0  0  0  0
    1.5509    1.3121    0.9349 C   0  0  0  0  0  0  0  0  0  0  0  0
   -0.7604    1.9491    0.6729 C   0  0  0  0  0  0  0  0  0  0  0  0
   -1.8652    2.1981   -0.3281 C   0  0  2  0  0  0  0  0  0  0  0  0
   -3.1530    2.7379    0.2852 C   0  0  1  0  0  0  0  0  0  0  0  0
   -3.0882    4.1313    0.3999 O   0  0  0  0  0  0  0  0  0  0  0  0
   -4.2077    2.2460   -0.7116 C   0  0  1  0  0  0  0  0  0  0  0  0
   -4.2237    3.0436   -1.8632 O   0  0  0  0  0  0  0  0  0  0  0  0
   -3.6327    0.8843   -1.0988 C   0  0  2  0  0  0  0  0  0  0  0  0
   -5.3720   -0.7385   -0.3258 C   0  0  0  0  0  0  0  0  0  0  0  0
   -6.3516   -0.4268   -1.1730 N   0  0  0  0  0  0  0  0  0  0  0  0
   -7.4195   -1.1806   -0.9785 C   0  0  0  0  0  0  0  0  0  0  0  0
   -7.5968   -2.1490   -0.0833 N   0  0  0  0  0  0  0  0  0  0  0  0
   -6.6024   -2.4504    0.7595 C   0  0  0  0  0  0  0  0  0  0  0  0
   -6.7779   -3.4209    1.6568 N   0  0  0  0  0  0  0  0  0  0  0  0
   -5.4063   -1.7152    0.6567 C   0  0  0  0  0  0  0  0  0  0  0  0
   -4.2177   -1.7612    1.3357 N   0  0  0  0  0  0  0  0  0  0  0  0
   -3.4891   -0.8381    0.7773 C   0  0  0  0  0  0  0  0  0  0  0  0
    2.9474    1.2926   -0.7000 H   0  0  0  0  0  0  0  0  0  0  0  0
    2.5066   -0.3058   -0.1158 H   0  0  0  0  0  0  0  0  0  0  0  0
    0.1998    0.4661   -0.3015 H   0  0  0  0  0  0  0  0  0  0  0  0
    8.2006   -0.3570    1.8538 H   0  0  0  0  0  0  0  0  0  0  0  0
   10.4011    0.6498   -1.7317 H   0  0  0  0  0  0  0  0  0  0  0  0
    9.0015    0.9930   -0.7094 H   0  0  0  0  0  0  0  0  0  0  0  0
   10.4225    0.1763   -0.0240 H   0  0  0  0  0  0  0  0  0  0  0  0
    9.2533   -1.7712    0.5830 H   0  0  0  0  0  0  0  0  0  0  0  0
    8.4393   -2.6909   -0.6976 H   0  0  0  0  0  0  0  0  0  0  0  0
    6.1085    0.7658    2.5683 H   0  0  0  0  0  0  0  0  0  0  0  0
    3.8809    1.2629    1.8991 H   0  0  0  0  0  0  0  0  0  0  0  0
    1.3422    0.7228    1.8410 H   0  0  0  0  0  0  0  0  0  0  0  0
    1.8015    2.3240    1.2682 H   0  0  0  0  0  0  0  0  0  0  0  0
   -1.1382    1.3289    1.5026 H   0  0  0  0  0  0  0  0  0  0  0  0
   -0.4982    2.9170    1.1097 H   0  0  0  0  0  0  0  0  0  0  0  0
   -1.4980    2.8896   -1.0959 H   0  0  0  0  0  0  0  0  0  0  0  0
   -3.3314    2.2636    1.2595 H   0  0  0  0  0  0  0  0  0  0  0  0
   -3.7466    4.4212    1.0394 H   0  0  0  0  0  0  0  0  0  0  0  0
   -5.2049    2.1571   -0.2637 H   0  0  0  0  0  0  0  0  0  0  0  0
   -4.1016    3.9607   -1.5880 H   0  0  0  0  0  0  0  0  0  0  0  0
   -3.9022    0.6159   -2.1241 H   0  0  0  0  0  0  0  0  0  0  0  0
   -8.2653   -0.9891   -1.6301 H   0  0  0  0  0  0  0  0  0  0  0  0
   -7.6423   -3.9331    1.6895 H   0  0  0  0  0  0  0  0  0  0  0  0
   -6.0406   -3.6870    2.2850 H   0  0  0  0  0  0  0  0  0  0  0  0
   -2.4738   -0.6055    1.0578 H   0  0  0  0  0  0  0  0  0  0  0  0
 26 27  1  0
 26 25  2  0
 27 28  2  0
 25 24  1  0
 28 29  1  0
 28 30  1  0
 24 30  2  0
 24  6  1  0
 30 31  1  0
 22 21  1  0
 20 19  1  0
 23  6  1  0
 23 21  1  0
 23  9  1  0
  6 32  1  0
 21 19  1  0
  9 18  1  0
 18 19  1  0
 18 17  1  0
 31 32  2  0
 17  7  1  0
  7 16  1  0
 16  3  1  0
  3 15  1  0
 15  5  1  0
  2  5  2  0
  2  4  1  0
  5 14  1  0
 12  4  2  0
  4  1  1  0
 14  8  2  0
  1  8  1  0
  1 13  1  0
 10 11  1  0
 13 11  1  0
  3 33  1  0
  3 34  1  0
  7 35  1  0
  8 36  1  0
 10 37  1  0
 10 38  1  0
 10 39  1  0
 13 40  1  0
 13 41  1  0
 14 42  1  0
 15 43  1  0
 16 44  1  0
 16 45  1  0
 17 46  1  0
 17 47  1  0
 18 48  1  6
 19 49  1  1
 20 50  1  0
 21 51  1  1
 22 52  1  0
 23 53  1  6
 26 54  1  0
 29 55  1  0
 29 56  1  0
 32 57  1  0
M  END
