
     RDKit          3D

 48 49  0  0  0  0  0  0  0  0999 V2000
    6.5075    2.3668    0.0791 C   0  0  0  0  0  0  0  0  0  0  0  0
    5.3405    1.4195    0.3699 C   0  0  1  0  0  0  0  0  0  0  0  0
    5.4386    0.9352    1.8173 C   0  0  0  0  0  0  0  0  0  0  0  0
    4.0313    2.1874    0.1778 C   0  0  0  0  0  0  0  0  0  0  0  0
    5.4262    0.2420   -0.6377 C   0  0  1  0  0  0  0  0  0  0  0  0
    6.6157   -0.4905   -0.5080 O   0  0  0  0  0  0  0  0  0  0  0  0
    4.2445   -0.7191   -0.5158 C   0  0  0  0  0  0  0  0  0  0  0  0
    4.2844   -1.6481    0.2829 O   0  0  0  0  0  0  0  0  0  0  0  0
    3.2042   -0.4878   -1.3248 N   0  0  0  0  0  0  0  0  0  0  0  0
    1.9593   -1.2199   -1.2521 C   0  0  0  0  0  0  0  0  0  0  0  0
    1.0108   -0.6231   -0.2168 C   0  0  0  0  0  0  0  0  0  0  0  0
   -0.3177   -1.3470   -0.1703 C   0  0  0  0  0  0  0  0  0  0  0  0
   -0.7916   -1.8943   -1.1573 O   0  0  0  0  0  0  0  0  0  0  0  0
   -0.9311   -1.3300    1.0241 N   0  0  0  0  0  0  0  0  0  0  0  0
   -2.2626   -1.8565    1.2484 C   0  0  0  0  0  0  0  0  0  0  0  0
   -3.3486   -0.8476    0.9675 C   0  0  0  0  0  0  0  0  0  0  0  0
   -3.8654   -0.7229   -0.3330 C   0  0  0  0  0  0  0  0  0  0  0  0
   -4.8209    0.2389   -0.5406 C   0  0  0  0  0  0  0  0  0  0  0  0
   -5.4885    0.5353   -1.6837 O   0  0  0  0  0  0  0  0  0  0  0  0
   -6.2089    1.7307   -1.4166 C   0  0  0  0  0  0  0  0  0  0  0  0
   -6.2289    1.8936   -0.0048 O   0  0  0  0  0  0  0  0  0  0  0  0
   -5.2719    1.0632    0.4789 C   0  0  0  0  0  0  0  0  0  0  0  0
   -4.7870    0.9574    1.7580 C   0  0  0  0  0  0  0  0  0  0  0  0
   -3.8106   -0.0211    1.9828 C   0  0  0  0  0  0  0  0  0  0  0  0
    6.4537    2.7629   -0.9378 H   0  0  0  0  0  0  0  0  0  0  0  0
    6.4884    3.2157    0.7658 H   0  0  0  0  0  0  0  0  0  0  0  0
    7.4706    1.8697    0.1947 H   0  0  0  0  0  0  0  0  0  0  0  0
    6.3866    0.4307    2.0134 H   0  0  0  0  0  0  0  0  0  0  0  0
    5.3860    1.7898    2.4940 H   0  0  0  0  0  0  0  0  0  0  0  0
    4.6305    0.2545    2.0856 H   0  0  0  0  0  0  0  0  0  0  0  0
    3.1560    1.6081    0.4767 H   0  0  0  0  0  0  0  0  0  0  0  0
    4.0411    3.0910    0.7898 H   0  0  0  0  0  0  0  0  0  0  0  0
    3.8916    2.4999   -0.8604 H   0  0  0  0  0  0  0  0  0  0  0  0
    5.4304    0.6776   -1.6443 H   0  0  0  0  0  0  0  0  0  0  0  0
    6.4848   -1.1345    0.1988 H   0  0  0  0  0  0  0  0  0  0  0  0
    3.2425    0.3027   -1.9478 H   0  0  0  0  0  0  0  0  0  0  0  0
    1.5032   -1.1994   -2.2397 H   0  0  0  0  0  0  0  0  0  0  0  0
    2.1744   -2.2618   -1.0167 H   0  0  0  0  0  0  0  0  0  0  0  0
    1.4830   -0.6178    0.7681 H   0  0  0  0  0  0  0  0  0  0  0  0
    0.8085    0.4227   -0.4703 H   0  0  0  0  0  0  0  0  0  0  0  0
   -0.5068   -0.8107    1.7756 H   0  0  0  0  0  0  0  0  0  0  0  0
   -2.3951   -2.7443    0.6307 H   0  0  0  0  0  0  0  0  0  0  0  0
   -2.3138   -2.1786    2.2883 H   0  0  0  0  0  0  0  0  0  0  0  0
   -3.5226   -1.3645   -1.1338 H   0  0  0  0  0  0  0  0  0  0  0  0
   -5.7007    2.5828   -1.8817 H   0  0  0  0  0  0  0  0  0  0  0  0
   -7.2273    1.6408   -1.7929 H   0  0  0  0  0  0  0  0  0  0  0  0
   -5.1415    1.5927    2.5583 H   0  0  0  0  0  0  0  0  0  0  0  0
   -3.4070   -0.1316    2.9819 H   0  0  0  0  0  0  0  0  0  0  0  0
 21 20  1  0
 21 22  1  0
 20 19  1  0
 22 23  2  0
 22 18  1  0
 23 24  1  0
 19 18  1  0
 18 17  2  0
 24 16  2  0
 17 16  1  0
 16 15  1  0
 15 14  1  0
 14 12  1  0
 13 12  2  0
 12 11  1  0
 11 10  1  0
 10  9  1  0
  8  7  2  0
  9  7  1  0
  2  4  1  1
  7  5  1  0
  3  2  1  0
  2  5  1  0
  2  1  1  0
  5  6  1  0
  1 25  1  0
  1 26  1  0
  1 27  1  0
  3 28  1  0
  3 29  1  0
  3 30  1  0
  4 31  1  0
  4 32  1  0
  4 33  1  0
  5 34  1  6
  6 35  1  0
  9 36  1  0
 10 37  1  0
 10 38  1  0
 11 39  1  0
 11 40  1  0
 14 41  1  0
 15 42  1  0
 15 43  1  0
 17 44  1  0
 20 45  1  0
 20 46  1  0
 23 47  1  0
 24 48  1  0
M  END
