
     RDKit          3D

 42 42  0  0  0  0  0  0  0  0999 V2000
   -1.2493    2.2425    0.9133 N   0  0  0  0  0  0  0  0  0  0  0  0
   -3.0248    0.4956    0.4390 C   0  0  0  0  0  0  0  0  0  0  0  0
   -4.9276    0.8299   -1.0099 C   0  0  0  0  0  0  0  0  0  0  0  0
   -4.9998   -0.8788    0.6742 C   0  0  0  0  0  0  0  0  0  0  0  0
    5.3656    1.8533    0.6200 C   0  0  0  0  0  0  0  0  0  0  0  0
    3.6516    2.0854   -1.1999 C   0  0  0  0  0  0  0  0  0  0  0  0
    3.7209    0.0142    0.2665 C   0  0  0  0  0  0  0  0  0  0  0  0
    2.3391   -0.4735   -0.2149 C   0  0  1  0  0  0  0  0  0  0  0  0
   -0.4101    0.0277   -0.2431 P   0  0  1  0  0  0  0  0  0  0  0  0
   -0.8206   -1.5353   -0.2827 O   0  0  0  0  0  0  0  0  0  0  0  0
   -0.4246    0.5953   -1.6231 O   0  0  0  0  0  0  0  0  0  0  0  0
   -1.6190    0.8408    0.8722 C   0  0  1  0  0  0  0  0  0  0  0  0
   -3.6425    1.1708   -0.6109 C   0  0  0  0  0  0  0  0  0  0  0  0
   -5.6104   -0.1963   -0.3697 C   0  0  0  0  0  0  0  0  0  0  0  0
   -3.7154   -0.5347    1.0716 C   0  0  0  0  0  0  0  0  0  0  0  0
    2.3206   -1.9829   -0.1207 C   0  0  0  0  0  0  0  0  0  0  0  0
    3.0000   -2.5492   -1.1064 O   0  0  0  0  0  0  0  0  0  0  0  0
    1.7899   -2.6150    0.7618 O   0  0  0  0  0  0  0  0  0  0  0  0
   -1.4000    2.6858    0.0165 H   0  0  0  0  0  0  0  0  0  0  0  0
   -1.8309    2.7308    1.5827 H   0  0  0  0  0  0  0  0  0  0  0  0
   -5.3971    1.3666   -1.8242 H   0  0  0  0  0  0  0  0  0  0  0  0
   -5.5258   -1.6767    1.1824 H   0  0  0  0  0  0  0  0  0  0  0  0
    6.0921    1.4147   -0.0679 H   0  0  0  0  0  0  0  0  0  0  0  0
    5.5329    2.9311    0.6370 H   0  0  0  0  0  0  0  0  0  0  0  0
    5.5786    1.4687    1.6187 H   0  0  0  0  0  0  0  0  0  0  0  0
    3.2665    2.0172    0.9033 H   0  0  0  0  0  0  0  0  0  0  0  0
    2.6051    1.9728   -1.4899 H   0  0  0  0  0  0  0  0  0  0  0  0
    3.8818    3.1509   -1.2442 H   0  0  0  0  0  0  0  0  0  0  0  0
    4.2591    1.5833   -1.9572 H   0  0  0  0  0  0  0  0  0  0  0  0
    4.4904   -0.4733   -0.3391 H   0  0  0  0  0  0  0  0  0  0  0  0
    3.8769   -0.3172    1.2981 H   0  0  0  0  0  0  0  0  0  0  0  0
    2.2340   -0.2037   -1.2694 H   0  0  0  0  0  0  0  0  0  0  0  0
    1.1409   -0.2607    1.5947 H   0  0  0  0  0  0  0  0  0  0  0  0
    1.3585    1.2232    0.7005 H   0  0  0  0  0  0  0  0  0  0  0  0
   -0.5343   -2.0551    0.4797 H   0  0  0  0  0  0  0  0  0  0  0  0
   -1.4506    0.4213    1.8698 H   0  0  0  0  0  0  0  0  0  0  0  0
   -3.1293    1.9756   -1.1224 H   0  0  0  0  0  0  0  0  0  0  0  0
   -6.6135   -0.4589   -0.6795 H   0  0  0  0  0  0  0  0  0  0  0  0
   -3.2484   -1.0690    1.8910 H   0  0  0  0  0  0  0  0  0  0  0  0
    3.0150   -3.5118   -0.9931 H   0  0  0  0  0  0  0  0  0  0  0  0
    1.1980    0.1498    0.5844 C   0  0  0  0  0  0  0  0  0  0  0  0
    3.9380    1.5274    0.1902 C   0  0  1  0  0  0  0  0  0  0  0  0
  6 42  1  0
 42  5  1  0
 42  7  1  0
  7  8  1  0
 11  9  2  0
  9 10  1  6
 41  8  1  0
 41  9  1  0
  8 16  1  0
  9 12  1  0
 16 18  2  0
 16 17  1  0
  1 12  1  0
 12  2  1  0
 13  2  2  0
 13  3  1  0
  2 15  1  0
  3 14  2  0
 15  4  2  0
 14  4  1  0
  1 19  1  0
  1 20  1  0
  3 21  1  0
  4 22  1  0
  5 23  1  0
  5 24  1  0
  5 25  1  0
 42 26  1  1
  6 27  1  0
  6 28  1  0
  6 29  1  0
  7 30  1  0
  7 31  1  0
  8 32  1  6
 41 33  1  0
 41 34  1  0
 10 35  1  0
 12 36  1  1
 13 37  1  0
 14 38  1  0
 15 39  1  0
 17 40  1  0
M  END
