
     RDKit          3D

 67 72  0  0  0  0  0  0  0  0999 V2000
   -6.7086    2.6273   -0.6084 O   0  0  0  0  0  0  0  0  0  0  0  0
   -5.6476    3.1655   -0.2876 C   0  0  0  0  0  0  0  0  0  0  0  0
   -5.6318    4.4098    0.2195 N   0  0  0  0  0  0  0  0  0  0  0  0
   -4.3344    2.4866   -0.4405 C   0  0  0  0  0  0  0  0  0  0  0  0
   -4.2494    1.0694   -0.5396 C   0  0  0  0  0  0  0  0  0  0  0  0
   -5.3512    0.2847   -0.5619 N   0  0  0  0  0  0  0  0  0  0  0  0
   -5.3653   -1.1503   -0.3849 C   0  0  2  0  0  0  0  0  0  0  0  0
   -6.7332   -1.6828   -0.8026 C   0  0  0  0  0  0  0  0  0  0  0  0
   -6.8235   -3.1937   -0.6240 C   0  0  0  0  0  0  0  0  0  0  0  0
   -6.5047   -3.6007    0.8058 C   0  0  1  0  0  0  0  0  0  0  0  0
   -6.5933   -5.0088    0.8891 O   0  0  0  0  0  0  0  0  0  0  0  0
   -5.1298   -3.0829    1.2129 C   0  0  0  0  0  0  0  0  0  0  0  0
   -5.0496   -1.5691    1.0536 C   0  0  0  0  0  0  0  0  0  0  0  0
   -2.9629    0.4971   -0.6151 C   0  0  0  0  0  0  0  0  0  0  0  0
   -1.8173    1.2687   -0.6262 C   0  0  0  0  0  0  0  0  0  0  0  0
   -1.9106    2.6614   -0.5824 C   0  0  0  0  0  0  0  0  0  0  0  0
   -3.1595    3.2391   -0.4950 C   0  0  0  0  0  0  0  0  0  0  0  0
   -0.4990    0.5985   -0.7421 C   0  0  0  0  0  0  0  0  0  0  0  0
   -0.3537   -0.2167   -1.7555 N   0  0  0  0  0  0  0  0  0  0  0  0
    0.8342   -0.8235   -1.9454 C   0  0  0  0  0  0  0  0  0  0  0  0
    1.9158   -0.6439   -1.1331 C   0  0  0  0  0  0  0  0  0  0  0  0
    1.7843    0.1931   -0.0053 C   0  0  0  0  0  0  0  0  0  0  0  0
    0.5386    0.8352    0.2099 C   0  0  0  0  0  0  0  0  0  0  0  0
    2.8284    0.4150    0.9273 C   0  0  0  0  0  0  0  0  0  0  0  0
    2.6448    1.2298    2.0094 C   0  0  0  0  0  0  0  0  0  0  0  0
    1.4007    1.8482    2.2261 C   0  0  0  0  0  0  0  0  0  0  0  0
    0.3677    1.6497    1.3527 C   0  0  0  0  0  0  0  0  0  0  0  0
    4.0831   -0.2100    0.7286 N   0  0  0  0  0  0  0  0  0  0  0  0
    4.3705   -1.5254    0.8963 C   0  0  0  0  0  0  0  0  0  0  0  0
    5.6240   -1.7764    0.6502 N   0  0  0  0  0  0  0  0  0  0  0  0
    6.1937   -0.5782    0.3066 C   0  0  0  0  0  0  0  0  0  0  0  0
    5.2436    0.4088    0.3514 C   0  0  0  0  0  0  0  0  0  0  0  0
    7.6080   -0.4649   -0.0480 C   0  0  0  0  0  0  0  0  0  0  0  0
    8.4052   -1.6060   -0.1531 C   0  0  0  0  0  0  0  0  0  0  0  0
    9.7462   -1.5042   -0.4942 C   0  0  0  0  0  0  0  0  0  0  0  0
   10.3173   -0.2619   -0.7361 C   0  0  0  0  0  0  0  0  0  0  0  0
    9.5324    0.8803   -0.6322 C   0  0  0  0  0  0  0  0  0  0  0  0
    8.1933    0.7804   -0.2902 C   0  0  0  0  0  0  0  0  0  0  0  0
   -6.5069    4.8855    0.3672 H   0  0  0  0  0  0  0  0  0  0  0  0
   -4.8226    4.8089    0.6608 H   0  0  0  0  0  0  0  0  0  0  0  0
   -6.2344    0.7713   -0.5159 H   0  0  0  0  0  0  0  0  0  0  0  0
   -4.6219   -1.6039   -1.0521 H   0  0  0  0  0  0  0  0  0  0  0  0
   -7.5071   -1.1940   -0.1993 H   0  0  0  0  0  0  0  0  0  0  0  0
   -6.9305   -1.4178   -1.8436 H   0  0  0  0  0  0  0  0  0  0  0  0
   -7.8237   -3.5383   -0.8979 H   0  0  0  0  0  0  0  0  0  0  0  0
   -6.1188   -3.6857   -1.3035 H   0  0  0  0  0  0  0  0  0  0  0  0
   -7.2515   -3.1309    1.4666 H   0  0  0  0  0  0  0  0  0  0  0  0
   -6.3855   -5.2694    1.7920 H   0  0  0  0  0  0  0  0  0  0  0  0
   -4.9160   -3.3580    2.2498 H   0  0  0  0  0  0  0  0  0  0  0  0
   -4.3666   -3.5646    0.5914 H   0  0  0  0  0  0  0  0  0  0  0  0
   -4.0600   -1.2131    1.3488 H   0  0  0  0  0  0  0  0  0  0  0  0
   -5.7684   -1.0842    1.7229 H   0  0  0  0  0  0  0  0  0  0  0  0
   -2.8580   -0.5775   -0.6732 H   0  0  0  0  0  0  0  0  0  0  0  0
   -1.0272    3.2831   -0.6337 H   0  0  0  0  0  0  0  0  0  0  0  0
   -3.2153    4.3200   -0.4912 H   0  0  0  0  0  0  0  0  0  0  0  0
    0.8995   -1.4759   -2.8074 H   0  0  0  0  0  0  0  0  0  0  0  0
    2.8474   -1.1439   -1.3591 H   0  0  0  0  0  0  0  0  0  0  0  0
    3.4545    1.3842    2.7108 H   0  0  0  0  0  0  0  0  0  0  0  0
    1.2633    2.4719    3.0984 H   0  0  0  0  0  0  0  0  0  0  0  0
   -0.5897    2.1129    1.5448 H   0  0  0  0  0  0  0  0  0  0  0  0
    3.6222   -2.2397    1.2059 H   0  0  0  0  0  0  0  0  0  0  0  0
    5.2755    1.4657    0.1454 H   0  0  0  0  0  0  0  0  0  0  0  0
    7.9711   -2.5795    0.0328 H   0  0  0  0  0  0  0  0  0  0  0  0
   10.3470   -2.4012   -0.5734 H   0  0  0  0  0  0  0  0  0  0  0  0
   11.3637   -0.1832   -1.0007 H   0  0  0  0  0  0  0  0  0  0  0  0
    9.9656    1.8550   -0.8159 H   0  0  0  0  0  0  0  0  0  0  0  0
    7.6032    1.6847   -0.2051 H   0  0  0  0  0  0  0  0  0  0  0  0
 29 30  2  0
 29 28  1  0
 16 17  1  0
 16 15  2  0
 17  4  2  0
 20 19  2  0
 20 21  1  0
 19 18  1  0
 30 31  1  0
  3  2  1  0
 21 22  2  0
 18 15  1  0
 18 23  2  0
 15 14  1  0
 22 23  1  0
 22 24  1  0
 23 27  1  0
  4  2  1  0
  4  5  1  0
 28 24  1  0
 28 32  1  0
 24 25  2  0
 27 26  2  0
  2  1  2  0
 25 26  1  0
 14  5  2  0
 31 32  2  0
 31 33  1  0
  5  6  1  0
 38 33  1  0
 38 37  2  0
 33 34  2  0
  6  7  1  0
 37 36  1  0
  7  8  1  0
  7 13  1  0
  8  9  1  0
 34 35  1  0
 36 35  2  0
 13 12  1  0
  9 10  1  0
 11 10  1  0
 12 10  1  0
  3 39  1  0
  3 40  1  0
  6 41  1  0
  7 42  1  6
  8 43  1  0
  8 44  1  0
  9 45  1  0
  9 46  1  0
 10 47  1  1
 11 48  1  0
 12 49  1  0
 12 50  1  0
 13 51  1  0
 13 52  1  0
 14 53  1  0
 16 54  1  0
 17 55  1  0
 20 56  1  0
 21 57  1  0
 25 58  1  0
 26 59  1  0
 27 60  1  0
 29 61  1  0
 32 62  1  0
 34 63  1  0
 35 64  1  0
 36 65  1  0
 37 66  1  0
 38 67  1  0
M  END
