
     RDKit          3D

 28 28  0  0  0  0  0  0  0  0999 V2000
   -0.7304   -1.0170    0.2959 C   0  0  2  0  0  0  0  0  0  0  0  0
   -1.1352    0.3818   -0.1667 C   0  0  2  0  0  0  0  0  0  0  0  0
   -0.0627    1.4097    0.2415 C   0  0  1  0  0  0  0  0  0  0  0  0
    1.3252    0.9837   -0.2453 C   0  0  2  0  0  0  0  0  0  0  0  0
    1.6909   -0.4090    0.2403 C   0  0  1  0  0  0  0  0  0  0  0  0
    0.6466   -1.4073   -0.2302 C   0  0  1  0  0  0  0  0  0  0  0  0
   -2.4927    0.8012    0.3938 C   0  0  0  0  0  0  0  0  0  0  0  0
   -3.5466    0.1710   -0.3031 O   0  0  0  0  0  0  0  0  0  0  0  0
   -1.6945   -1.9520   -0.1196 O   0  0  0  0  0  0  0  0  0  0  0  0
    0.9297   -2.7102    0.2447 O   0  0  0  0  0  0  0  0  0  0  0  0
    2.9751   -0.7143   -0.2643 O   0  0  0  0  0  0  0  0  0  0  0  0
   -0.4329    2.7358   -0.2263 N   0  0  0  0  0  0  0  0  0  0  0  0
   -0.6714   -0.9932    1.3993 H   0  0  0  0  0  0  0  0  0  0  0  0
   -1.2021    0.3872   -1.2640 H   0  0  0  0  0  0  0  0  0  0  0  0
   -0.0320    1.4521    1.3385 H   0  0  0  0  0  0  0  0  0  0  0  0
    1.2985    0.9656   -1.3494 H   0  0  0  0  0  0  0  0  0  0  0  0
    1.7038   -0.4030    1.3412 H   0  0  0  0  0  0  0  0  0  0  0  0
    0.6145   -1.3993   -1.3295 H   0  0  0  0  0  0  0  0  0  0  0  0
   -2.5201    0.5635    1.4685 H   0  0  0  0  0  0  0  0  0  0  0  0
   -2.5704    1.8880    0.3091 H   0  0  0  0  0  0  0  0  0  0  0  0
   -4.3569    0.6338   -0.0739 H   0  0  0  0  0  0  0  0  0  0  0  0
   -1.3397   -2.8254    0.0823 H   0  0  0  0  0  0  0  0  0  0  0  0
    1.4845   -3.1639   -0.3953 H   0  0  0  0  0  0  0  0  0  0  0  0
    3.3554   -1.4217    0.2646 H   0  0  0  0  0  0  0  0  0  0  0  0
    0.2620    3.4072    0.0737 H   0  0  0  0  0  0  0  0  0  0  0  0
   -0.4192    2.7546   -1.2405 H   0  0  0  0  0  0  0  0  0  0  0  0
    2.2537    1.9404    0.2095 O   0  0  0  0  0  0  0  0  0  0  0  0
    3.1319    1.6526   -0.0614 H   0  0  0  0  0  0  0  0  0  0  0  0
 11  5  1  0
  4  5  1  0
  4  3  1  0
  5  6  1  0
 12  3  1  0
  3  2  1  0
  6 10  1  0
  6  1  1  0
  2  1  1  0
  2  7  1  0
  1  9  1  0
  8  7  1  0
  1 13  1  1
  2 14  1  6
  3 15  1  1
  4 16  1  6
  5 17  1  1
  6 18  1  6
  7 19  1  0
  7 20  1  0
  8 21  1  0
  9 22  1  0
 10 23  1  0
 11 24  1  0
 12 25  1  0
 12 26  1  0
  4 27  1  0
 27 28  1  0
M  END
