
     RDKit          3D

 29 30  0  0  0  0  0  0  0  0999 V2000
    4.1146    0.0833   -0.1646 C   0  0  0  0  0  0  0  0  0  0  0  0
    3.2058   -0.9329    0.0674 C   0  0  0  0  0  0  0  0  0  0  0  0
   -2.2790    0.6359    0.3038 C   0  0  0  0  0  0  0  0  0  0  0  0
    1.8978   -0.7234    0.1276 N   0  0  0  0  0  0  0  0  0  0  0  0
   -4.6848    0.5828    0.2720 C   0  0  0  0  0  0  0  0  0  0  0  0
   -5.6893   -0.5602    0.2877 C   0  0  0  0  0  0  0  0  0  0  0  0
   -3.3861   -0.0956    0.2377 N   0  0  0  0  0  0  0  0  0  0  0  0
   -4.9731   -1.6572   -0.4890 C   0  0  0  0  0  0  0  0  0  0  0  0
   -3.5313   -1.5354   -0.0118 C   0  0  0  0  0  0  0  0  0  0  0  0
   -2.2829    1.8622    0.3607 O   0  0  0  0  0  0  0  0  0  0  0  0
   -0.9264   -0.0978    0.3534 C   0  0  0  0  0  0  0  0  0  0  0  0
   -0.8139   -1.2537    0.6894 O   0  0  0  0  0  0  0  0  0  0  0  0
    1.4446    0.5058   -0.0365 C   0  0  0  0  0  0  0  0  0  0  0  0
    5.8039   -0.2602   -0.2324 Cl  0  0  0  0  0  0  0  0  0  0  0  0
    3.6452    1.3776   -0.3433 C   0  0  0  0  0  0  0  0  0  0  0  0
    2.2867    1.5967   -0.2778 C   0  0  0  0  0  0  0  0  0  0  0  0
    3.5438   -1.9533    0.2068 H   0  0  0  0  0  0  0  0  0  0  0  0
   -4.7581    1.2304    1.1455 H   0  0  0  0  0  0  0  0  0  0  0  0
   -5.8792   -0.8845    1.3130 H   0  0  0  0  0  0  0  0  0  0  0  0
   -6.6421   -0.2694   -0.1518 H   0  0  0  0  0  0  0  0  0  0  0  0
   -5.3746   -2.6526   -0.3032 H   0  0  0  0  0  0  0  0  0  0  0  0
   -5.0343   -1.4653   -1.5625 H   0  0  0  0  0  0  0  0  0  0  0  0
   -2.8189   -1.8874   -0.7538 H   0  0  0  0  0  0  0  0  0  0  0  0
   -3.3767   -2.1014    0.9076 H   0  0  0  0  0  0  0  0  0  0  0  0
    4.3246    2.1984   -0.5278 H   0  0  0  0  0  0  0  0  0  0  0  0
    1.8857    2.5929   -0.4108 H   0  0  0  0  0  0  0  0  0  0  0  0
    0.0783    0.7469    0.0156 N   0  0  0  0  0  0  0  0  0  0  0  0
   -4.8019    1.2092   -0.6164 H   0  0  0  0  0  0  0  0  0  0  0  0
   -0.2133    1.6997   -0.1591 H   0  0  0  0  0  0  0  0  0  0  0  0
 14  1  1  0
  1 15  2  0
  1  2  1  0
 15 16  1  0
  2  4  2  0
 16 13  2  0
  4 13  1  0
 13 27  1  0
 27 11  1  0
 10  3  2  0
 11  3  1  0
 11 12  2  0
  3  7  1  0
  7  5  1  0
  7  9  1  0
  5  6  1  0
  9  8  1  0
  8  6  1  0
  2 17  1  0
  5 28  1  0
  5 18  1  0
  6 19  1  0
  6 20  1  0
  8 21  1  0
  8 22  1  0
  9 23  1  0
  9 24  1  0
 27 29  1  0
 15 25  1  0
 16 26  1  0
M  END
