
     RDKit          3D

 26 25  0  0  0  0  0  0  0  0999 V2000
    2.0623   -0.1639   -0.1235 P   0  0  2  0  0  0  0  0  0  0  0  0
    2.8278   -1.4073    0.0656 O   0  0  0  0  0  0  0  0  0  0  0  0
    1.9629    0.1866   -1.6786 O   0  0  0  0  0  0  0  0  0  0  0  0
    2.5225    1.1474    0.6472 O   0  0  0  0  0  0  0  0  0  0  0  0
    0.5561   -0.1816    0.4314 O   0  0  0  0  0  0  0  0  0  0  0  0
   -0.3070   -1.2532    0.0627 C   0  0  0  0  0  0  0  0  0  0  0  0
   -1.7028   -1.0213    0.5826 C   0  0  0  0  0  0  0  0  0  0  0  0
   -2.4609    0.1572    0.0261 N   0  0  2  0  0  0  0  0  0  0  0  0
   -2.3245    0.2460   -1.4532 C   0  0  0  0  0  0  0  0  0  0  0  0
   -2.0171    1.4411    0.6458 C   0  0  0  0  0  0  0  0  0  0  0  0
   -3.9010   -0.0483    0.3629 C   0  0  0  0  0  0  0  0  0  0  0  0
    1.6368    1.0683   -1.9028 H   0  0  0  0  0  0  0  0  0  0  0  0
    3.4681    1.3395    0.5817 H   0  0  0  0  0  0  0  0  0  0  0  0
    0.0283   -2.1873    0.5185 H   0  0  0  0  0  0  0  0  0  0  0  0
   -0.3105   -1.4050   -1.0191 H   0  0  0  0  0  0  0  0  0  0  0  0
   -1.7115   -0.9187    1.6673 H   0  0  0  0  0  0  0  0  0  0  0  0
   -2.2783   -1.9105    0.3249 H   0  0  0  0  0  0  0  0  0  0  0  0
   -1.3066    0.5163   -1.7175 H   0  0  0  0  0  0  0  0  0  0  0  0
   -2.5859   -0.7099   -1.8999 H   0  0  0  0  0  0  0  0  0  0  0  0
   -2.9981    1.0167   -1.8175 H   0  0  0  0  0  0  0  0  0  0  0  0
   -2.6253    2.2451    0.2404 H   0  0  0  0  0  0  0  0  0  0  0  0
   -2.1573    1.3810    1.7215 H   0  0  0  0  0  0  0  0  0  0  0  0
   -0.9742    1.6236    0.4191 H   0  0  0  0  0  0  0  0  0  0  0  0
   -4.2722   -0.9164   -0.1742 H   0  0  0  0  0  0  0  0  0  0  0  0
   -3.9968   -0.2075    1.4336 H   0  0  0  0  0  0  0  0  0  0  0  0
   -4.4627    0.8343    0.0708 H   0  0  0  0  0  0  0  0  0  0  0  0
  1  2  2  0
  1  3  1  6
  1  4  1  0
  1  5  1  0
  3 12  1  0
  4 13  1  0
  5  6  1  0
  6  7  1  0
  6 14  1  0
  6 15  1  0
  8  7  1  1
  7 16  1  0
  7 17  1  0
  8  9  1  0
  8 10  1  0
  8 11  1  0
  9 18  1  0
  9 19  1  0
  9 20  1  0
 10 21  1  0
 10 22  1  0
 10 23  1  0
 11 24  1  0
 11 25  1  0
 11 26  1  0
M  CHG  1   8   1
M  END
