
     RDKit          3D

 54 57  0  0  0  0  0  0  0  0999 V2000
   -3.1540   -2.8692    0.0141 C   0  0  0  0  0  0  0  0  0  0  0  0
   -2.0709   -1.7924    0.0462 C   0  0  2  0  0  0  0  0  0  0  0  0
   -0.7001   -2.4557   -0.0836 C   0  0  0  0  0  0  0  0  0  0  0  0
   -0.6707   -3.3876   -1.2843 C   0  0  0  0  0  0  0  0  0  0  0  0
   -1.6923   -4.3597   -1.2333 O   0  0  0  0  0  0  0  0  0  0  0  0
   -2.9751   -3.7745   -1.1935 C   0  0  0  0  0  0  0  0  0  0  0  0
   -2.1918   -0.9474    1.3184 C   0  0  1  0  0  0  0  0  0  0  0  0
   -3.6150    1.0019    0.9315 C   0  0  0  0  0  0  0  0  0  0  0  0
   -2.4419    1.6483    0.3435 C   0  0  0  0  0  0  0  0  0  0  0  0
   -1.1967    1.0728    0.6194 C   0  0  0  0  0  0  0  0  0  0  0  0
   -1.1110   -0.0187    1.4065 O   0  0  0  0  0  0  0  0  0  0  0  0
   -3.5059   -0.2325    1.4321 C   0  0  0  0  0  0  0  0  0  0  0  0
   -4.7330    1.7521    0.9194 O   0  0  0  0  0  0  0  0  0  0  0  0
   -2.5112    2.7896   -0.4488 C   0  0  0  0  0  0  0  0  0  0  0  0
   -1.3626    3.3682   -0.9756 C   0  0  0  0  0  0  0  0  0  0  0  0
   -0.1382    2.7745   -0.6870 C   0  0  0  0  0  0  0  0  0  0  0  0
   -0.0260    1.6317    0.1050 C   0  0  0  0  0  0  0  0  0  0  0  0
   -1.4390    4.6176   -1.8056 C   0  0  0  0  0  0  0  0  0  0  0  0
    1.2973    1.0182    0.3457 C   0  0  0  0  0  0  0  0  0  0  0  0
    2.1334    0.7546   -0.7471 C   0  0  0  0  0  0  0  0  0  0  0  0
    3.3856    0.1913   -0.5741 C   0  0  0  0  0  0  0  0  0  0  0  0
    3.8352   -0.1204    0.7250 C   0  0  0  0  0  0  0  0  0  0  0  0
    3.0103    0.1471    1.8047 C   0  0  0  0  0  0  0  0  0  0  0  0
    1.7494    0.7074    1.6167 C   0  0  0  0  0  0  0  0  0  0  0  0
    4.2417   -0.1033   -1.5715 O   0  0  0  0  0  0  0  0  0  0  0  0
    5.0628   -0.6675    0.8029 O   0  0  0  0  0  0  0  0  0  0  0  0
    3.8493    0.1898   -2.8963 C   0  0  0  0  0  0  0  0  0  0  0  0
    5.5531   -1.0212    2.0799 C   0  0  0  0  0  0  0  0  0  0  0  0
   -3.1065   -3.4684    0.9306 H   0  0  0  0  0  0  0  0  0  0  0  0
   -4.1502   -2.4219   -0.0236 H   0  0  0  0  0  0  0  0  0  0  0  0
   -2.2196   -1.1323   -0.8198 H   0  0  0  0  0  0  0  0  0  0  0  0
    0.0910   -1.7106   -0.1962 H   0  0  0  0  0  0  0  0  0  0  0  0
   -0.4756   -3.0239    0.8260 H   0  0  0  0  0  0  0  0  0  0  0  0
   -0.7551   -2.7948   -2.2084 H   0  0  0  0  0  0  0  0  0  0  0  0
    0.2778   -3.9261   -1.3298 H   0  0  0  0  0  0  0  0  0  0  0  0
   -3.6979   -4.5919   -1.1713 H   0  0  0  0  0  0  0  0  0  0  0  0
   -3.1602   -3.1976   -2.1123 H   0  0  0  0  0  0  0  0  0  0  0  0
   -2.0594   -1.6053    2.1818 H   0  0  0  0  0  0  0  0  0  0  0  0
   -4.3447   -0.7460    1.8863 H   0  0  0  0  0  0  0  0  0  0  0  0
   -5.4734    1.2475    1.2760 H   0  0  0  0  0  0  0  0  0  0  0  0
   -3.4755    3.2332   -0.6630 H   0  0  0  0  0  0  0  0  0  0  0  0
    0.7675    3.2132   -1.0907 H   0  0  0  0  0  0  0  0  0  0  0  0
   -1.3376    5.5107   -1.1854 H   0  0  0  0  0  0  0  0  0  0  0  0
   -0.6478    4.6523   -2.5543 H   0  0  0  0  0  0  0  0  0  0  0  0
   -2.3947    4.6922   -2.3242 H   0  0  0  0  0  0  0  0  0  0  0  0
    1.7745    0.9869   -1.7412 H   0  0  0  0  0  0  0  0  0  0  0  0
    3.3320   -0.0749    2.8130 H   0  0  0  0  0  0  0  0  0  0  0  0
    1.1374    0.9106    2.4847 H   0  0  0  0  0  0  0  0  0  0  0  0
    2.9544   -0.3653   -3.1911 H   0  0  0  0  0  0  0  0  0  0  0  0
    3.6640    1.2574   -3.0425 H   0  0  0  0  0  0  0  0  0  0  0  0
    4.6740   -0.1135   -3.5369 H   0  0  0  0  0  0  0  0  0  0  0  0
    6.5335   -1.4643    1.9227 H   0  0  0  0  0  0  0  0  0  0  0  0
    5.6619   -0.1505    2.7324 H   0  0  0  0  0  0  0  0  0  0  0  0
    4.9108   -1.7540    2.5754 H   0  0  0  0  0  0  0  0  0  0  0  0
 28 26  1  0
 26 22  1  0
 22 23  2  0
 22 21  1  0
 25 27  1  0
 25 21  1  0
 23 24  1  0
 21 20  2  0
  5  4  1  0
  5  6  1  0
 24 19  2  0
 20 19  1  0
  4  3  1  0
 19 17  1  0
  6  1  1  0
  3  2  1  0
  1  2  1  0
 11 10  1  0
 11  7  1  0
 17 16  1  0
 17 10  2  0
  2  7  1  0
 16 15  2  0
 10  9  1  0
  7 12  1  0
 15 18  1  0
 15 14  1  0
  9 14  2  0
  9  8  1  0
 12  8  2  0
  8 13  1  0
  1 29  1  0
  1 30  1  0
  2 31  1  6
  3 32  1  0
  3 33  1  0
  4 34  1  0
  4 35  1  0
  6 36  1  0
  6 37  1  0
  7 38  1  1
 12 39  1  0
 13 40  1  0
 14 41  1  0
 16 42  1  0
 18 43  1  0
 18 44  1  0
 18 45  1  0
 20 46  1  0
 23 47  1  0
 24 48  1  0
 27 49  1  0
 27 50  1  0
 27 51  1  0
 28 52  1  0
 28 53  1  0
 28 54  1  0
M  END
