
     RDKit          3D

 75 79  0  0  0  0  0  0  0  0999 V2000
   -0.1003   -1.9484   -2.4635 C   0  0  0  0  0  0  0  0  0  0  0  0
    0.9706   -2.4253   -2.7991 O   0  0  0  0  0  0  0  0  0  0  0  0
   -1.2377   -2.6867   -2.4240 N   0  0  0  0  0  0  0  0  0  0  0  0
   -1.1810   -4.1172   -2.6670 C   0  0  0  0  0  0  0  0  0  0  0  0
   -1.3039   -4.9064   -1.3672 C   0  0  0  0  0  0  0  0  0  0  0  0
   -2.8560   -4.5379   -0.5557 S   0  0  2  0  0  0  0  0  0  0  0  0
   -2.8408   -5.0415    0.8146 O   0  0  0  0  0  0  0  0  0  0  0  0
   -3.9388   -4.9592   -1.4461 O   0  0  0  0  0  0  0  0  0  0  0  0
   -2.5245   -2.2216   -1.9471 C   0  0  0  0  0  0  0  0  0  0  0  0
   -2.8253   -2.7457   -0.5459 C   0  0  0  0  0  0  0  0  0  0  0  0
   -1.0249    2.3356    0.0404 C   0  0  0  0  0  0  0  0  0  0  0  0
   -1.9736    2.0302   -0.8981 C   0  0  0  0  0  0  0  0  0  0  0  0
   -2.1926    0.9060    1.6370 C   0  0  0  0  0  0  0  0  0  0  0  0
   -3.1656    0.6380    0.6466 C   0  0  0  0  0  0  0  0  0  0  0  0
   -3.0665    1.1905   -0.5999 C   0  0  0  0  0  0  0  0  0  0  0  0
   -1.1191    1.7819    1.3326 C   0  0  0  0  0  0  0  0  0  0  0  0
   -0.1574    2.0644    2.3300 C   0  0  0  0  0  0  0  0  0  0  0  0
   -2.2717    0.3268    2.9231 C   0  0  0  0  0  0  0  0  0  0  0  0
   -0.2462    1.4964    3.5679 C   0  0  0  0  0  0  0  0  0  0  0  0
   -1.3143    0.6202    3.8515 C   0  0  0  0  0  0  0  0  0  0  0  0
   -1.3978   -0.0868    5.4262 Cl  0  0  0  0  0  0  0  0  0  0  0  0
   -1.7534    2.6303   -2.5545 S   0  0  2  0  0  0  0  0  0  0  0  0
   -2.9640    2.3209   -3.2958 O   0  0  0  0  0  0  0  0  0  0  0  0
   -0.5311    1.7564   -3.2257 N   0  0  0  0  0  0  0  0  0  0  0  0
   -0.1828   -0.4524   -2.1226 C   0  0  2  0  0  0  0  0  0  0  0  0
   -0.6481    0.3151   -3.3770 C   0  0  0  0  0  0  0  0  0  0  0  0
    1.0691    0.0952   -1.6763 N   0  0  0  0  0  0  0  0  0  0  0  0
   -1.2628    3.9956   -2.4856 O   0  0  0  0  0  0  0  0  0  0  0  0
    1.4932   -0.3278   -0.3526 C   0  0  0  0  0  0  0  0  0  0  0  0
    8.7846    1.9133    1.6517 C   0  0  0  0  0  0  0  0  0  0  0  0
    5.1946    1.1579    1.3475 N   0  0  0  0  0  0  0  0  0  0  0  0
    6.4216    1.4622    1.8714 C   0  0  0  0  0  0  0  0  0  0  0  0
    7.5623    1.6562    1.0663 C   0  0  0  0  0  0  0  0  0  0  0  0
    4.0510    1.0000    2.2312 C   0  0  0  0  0  0  0  0  0  0  0  0
    6.6512    1.5785    3.2560 C   0  0  0  0  0  0  0  0  0  0  0  0
    4.8399    1.6050    0.0063 C   0  0  0  0  0  0  0  0  0  0  0  0
    2.5506    0.5997    0.2286 C   0  0  1  0  0  0  0  0  0  0  0  0
    2.9757    0.1220    1.6095 C   0  0  0  0  0  0  0  0  0  0  0  0
    8.9986    2.0079    2.9621 N   0  0  0  0  0  0  0  0  0  0  0  0
    7.9246    1.8389    3.7258 C   0  0  0  0  0  0  0  0  0  0  0  0
    3.7952    0.7115   -0.6413 C   0  0  0  0  0  0  0  0  0  0  0  0
   -1.9793   -4.3966   -3.3568 H   0  0  0  0  0  0  0  0  0  0  0  0
   -0.2378   -4.3734   -3.1401 H   0  0  0  0  0  0  0  0  0  0  0  0
   -1.3021   -5.9818   -1.5553 H   0  0  0  0  0  0  0  0  0  0  0  0
   -0.4992   -4.6701   -0.6698 H   0  0  0  0  0  0  0  0  0  0  0  0
   -2.5843   -1.1380   -1.9285 H   0  0  0  0  0  0  0  0  0  0  0  0
   -3.2982   -2.5474   -2.6445 H   0  0  0  0  0  0  0  0  0  0  0  0
   -3.8090   -2.4242   -0.1984 H   0  0  0  0  0  0  0  0  0  0  0  0
   -2.0690   -2.4304    0.1751 H   0  0  0  0  0  0  0  0  0  0  0  0
   -4.0025   -0.0055    0.8871 H   0  0  0  0  0  0  0  0  0  0  0  0
   -3.8246    0.9916   -1.3451 H   0  0  0  0  0  0  0  0  0  0  0  0
    0.6560    2.7422    2.1047 H   0  0  0  0  0  0  0  0  0  0  0  0
   -3.0907   -0.3401    3.1592 H   0  0  0  0  0  0  0  0  0  0  0  0
    0.4917    1.7141    4.3277 H   0  0  0  0  0  0  0  0  0  0  0  0
    0.3679    2.0078   -2.8194 H   0  0  0  0  0  0  0  0  0  0  0  0
   -0.9009   -0.2918   -1.3165 H   0  0  0  0  0  0  0  0  0  0  0  0
   -1.6696    0.0541   -3.6548 H   0  0  0  0  0  0  0  0  0  0  0  0
   -0.0191    0.0330   -4.2240 H   0  0  0  0  0  0  0  0  0  0  0  0
    1.7919   -0.1174   -2.3550 H   0  0  0  0  0  0  0  0  0  0  0  0
    0.6221   -0.3096    0.3098 H   0  0  0  0  0  0  0  0  0  0  0  0
    1.8701   -1.3606   -0.3401 H   0  0  0  0  0  0  0  0  0  0  0  0
    9.6490    2.0496    1.0098 H   0  0  0  0  0  0  0  0  0  0  0  0
    7.5260    1.5933   -0.0107 H   0  0  0  0  0  0  0  0  0  0  0  0
    3.6310    1.9807    2.4972 H   0  0  0  0  0  0  0  0  0  0  0  0
    4.3675    0.5255    3.1572 H   0  0  0  0  0  0  0  0  0  0  0  0
    5.8571    1.4876    3.9814 H   0  0  0  0  0  0  0  0  0  0  0  0
    4.4580    2.6344    0.0535 H   0  0  0  0  0  0  0  0  0  0  0  0
    5.7184    1.6237   -0.6307 H   0  0  0  0  0  0  0  0  0  0  0  0
    2.1090    1.6018    0.3163 H   0  0  0  0  0  0  0  0  0  0  0  0
    2.1208    0.0993    2.2900 H   0  0  0  0  0  0  0  0  0  0  0  0
    3.3519   -0.9037    1.5368 H   0  0  0  0  0  0  0  0  0  0  0  0
    8.0748    1.9236    4.7974 H   0  0  0  0  0  0  0  0  0  0  0  0
    4.2198   -0.2832   -0.8165 H   0  0  0  0  0  0  0  0  0  0  0  0
    3.5566    1.1388   -1.6178 H   0  0  0  0  0  0  0  0  0  0  0  0
   -0.1940    2.9918   -0.1882 H   0  0  0  0  0  0  0  0  0  0  0  0
  1  2  2  0
  1  3  1  0
  1 25  1  0
  3  4  1  0
  3  9  1  0
  4  5  1  0
  4 42  1  0
  4 43  1  0
  6  5  1  6
  5 44  1  0
  5 45  1  0
  6  7  2  0
  6  8  2  0
  6 10  1  0
  9 10  1  0
  9 46  1  0
  9 47  1  0
 10 48  1  0
 10 49  1  0
 11 12  2  0
 11 16  1  0
 11 75  1  0
 12 15  1  0
 12 22  1  0
 13 14  1  0
 13 16  2  0
 13 18  1  0
 14 15  2  0
 14 50  1  0
 15 51  1  0
 16 17  1  0
 17 19  2  0
 17 52  1  0
 18 20  2  0
 18 53  1  0
 19 20  1  0
 19 54  1  0
 20 21  1  0
 22 23  2  0
 22 24  1  6
 22 28  2  0
 24 26  1  0
 24 55  1  0
 25 26  1  0
 25 27  1  0
 25 56  1  1
 26 57  1  0
 26 58  1  0
 27 29  1  0
 27 59  1  0
 29 37  1  0
 29 60  1  0
 29 61  1  0
 30 33  2  0
 30 39  1  0
 30 62  1  0
 31 32  1  0
 31 34  1  0
 31 36  1  0
 32 33  1  0
 32 35  2  0
 33 63  1  0
 34 38  1  0
 34 64  1  0
 34 65  1  0
 35 40  1  0
 35 66  1  0
 36 41  1  0
 36 67  1  0
 36 68  1  0
 37 38  1  0
 37 41  1  0
 37 69  1  1
 38 70  1  0
 38 71  1  0
 39 40  2  0
 40 72  1  0
 41 73  1  0
 41 74  1  0
M  END
