
     RDKit          3D

 45 47  0  0  0  0  0  0  0  0999 V2000
   -0.9878   -0.8283   -0.4086 C   0  0  2  0  0  0  0  0  0  0  0  0
   -2.3056   -0.2457    0.0544 C   0  0  0  0  0  0  0  0  0  0  0  0
   -3.0668    0.0640   -1.0607 C   0  0  0  0  0  0  0  0  0  0  0  0
    0.1285    0.1989   -0.2455 C   0  0  0  0  0  0  0  0  0  0  0  0
   -2.2995   -0.3245   -2.2832 C   0  0  0  0  0  0  0  0  0  0  0  0
   -2.7855   -0.0147    1.3325 C   0  0  0  0  0  0  0  0  0  0  0  0
   -4.3177    0.6312   -0.9382 C   0  0  0  0  0  0  0  0  0  0  0  0
    0.8112    0.7037   -1.3456 C   0  0  0  0  0  0  0  0  0  0  0  0
    0.5028    0.6370    1.0225 C   0  0  0  0  0  0  0  0  0  0  0  0
   -4.0444    0.5474    1.4795 C   0  0  0  0  0  0  0  0  0  0  0  0
   -4.7999    0.8717    0.3506 C   0  0  0  0  0  0  0  0  0  0  0  0
    1.8333    1.6323   -1.1920 C   0  0  0  0  0  0  0  0  0  0  0  0
    1.5210    1.5604    1.1962 C   0  0  0  0  0  0  0  0  0  0  0  0
    2.1797    2.0553    0.0798 C   0  0  0  0  0  0  0  0  0  0  0  0
   -6.0944    1.4491    0.5181 C   0  0  0  0  0  0  0  0  0  0  0  0
    3.5690    3.3152    0.3003 Br  0  0  0  0  0  0  0  0  0  0  0  0
   -1.2216   -1.0971   -1.7811 O   0  0  0  0  0  0  0  0  0  0  0  0
    2.0804   -4.8054    0.0584 N   0  0  0  0  0  0  0  0  0  0  0  0
   -7.1389    1.9166    0.6532 N   0  0  0  0  0  0  0  0  0  0  0  0
   -0.6442   -2.1420    0.2962 C   0  0  0  0  0  0  0  0  0  0  0  0
    0.6312   -2.8022   -0.2129 C   0  0  0  0  0  0  0  0  0  0  0  0
    0.9323   -4.0762    0.5650 C   0  0  0  0  0  0  0  0  0  0  0  0
    3.3242   -4.0950    0.2670 C   0  0  0  0  0  0  0  0  0  0  0  0
    2.1507   -6.1289    0.6384 C   0  0  0  0  0  0  0  0  0  0  0  0
   -2.8805   -0.9326   -2.9795 H   0  0  0  0  0  0  0  0  0  0  0  0
   -1.9438    0.5604   -2.8266 H   0  0  0  0  0  0  0  0  0  0  0  0
   -2.2115   -0.2660    2.2145 H   0  0  0  0  0  0  0  0  0  0  0  0
   -4.9164    0.8763   -1.8058 H   0  0  0  0  0  0  0  0  0  0  0  0
    0.5646    0.3726   -2.3448 H   0  0  0  0  0  0  0  0  0  0  0  0
    0.0085    0.2582    1.9077 H   0  0  0  0  0  0  0  0  0  0  0  0
   -4.4441    0.7325    2.4668 H   0  0  0  0  0  0  0  0  0  0  0  0
    2.3481    2.0080   -2.0662 H   0  0  0  0  0  0  0  0  0  0  0  0
    1.7903    1.8802    2.1937 H   0  0  0  0  0  0  0  0  0  0  0  0
   -0.5492   -1.9464    1.3685 H   0  0  0  0  0  0  0  0  0  0  0  0
   -1.4946   -2.8209    0.1836 H   0  0  0  0  0  0  0  0  0  0  0  0
    0.5335   -3.0485   -1.2727 H   0  0  0  0  0  0  0  0  0  0  0  0
    1.4595   -2.0948   -0.1267 H   0  0  0  0  0  0  0  0  0  0  0  0
    0.0626   -4.7366    0.4957 H   0  0  0  0  0  0  0  0  0  0  0  0
    1.0487   -3.8326    1.6372 H   0  0  0  0  0  0  0  0  0  0  0  0
    3.5366   -3.9022    1.3312 H   0  0  0  0  0  0  0  0  0  0  0  0
    4.1534   -4.6761   -0.1382 H   0  0  0  0  0  0  0  0  0  0  0  0
    3.3194   -3.1352   -0.2491 H   0  0  0  0  0  0  0  0  0  0  0  0
    1.2330   -6.6814    0.4301 H   0  0  0  0  0  0  0  0  0  0  0  0
    2.9808   -6.6848    0.1993 H   0  0  0  0  0  0  0  0  0  0  0  0
    2.2979   -6.1205    1.7305 H   0  0  0  0  0  0  0  0  0  0  0  0
  1  2  1  0
  1  4  1  0
  1 17  1  0
  1 20  1  1
  2  3  2  0
  2  6  1  0
  3  5  1  0
  3  7  1  0
  4  8  2  0
  4  9  1  0
  6 10  2  0
  7 11  2  0
  8 12  1  0
  9 13  2  0
 10 11  1  0
 11 15  1  0
 12 14  2  0
 13 14  1  0
 14 16  1  0
 15 19  3  0
 18 22  1  0
 18 23  1  0
 18 24  1  0
 20 21  1  0
 21 22  1  0
  5 25  1  0
  5 26  1  0
  6 27  1  0
  7 28  1  0
  8 29  1  0
  9 30  1  0
 10 31  1  0
 12 32  1  0
 13 33  1  0
 20 34  1  0
 20 35  1  0
 21 36  1  0
 21 37  1  0
 22 38  1  0
 22 39  1  0
 23 40  1  0
 23 41  1  0
 23 42  1  0
 24 43  1  0
 24 44  1  0
 24 45  1  0
 17  5  1  0
M  END
