
     RDKit          3D

 15 16  0  0  0  0  0  0  0  0999 V2000
   -1.9376    1.7155   -0.2409 O   0  0  0  0  0  0  0  0  0  0  0  0
   -1.2449    0.5869   -0.1383 C   0  0  0  0  0  0  0  0  0  0  0  0
   -1.9609   -0.5182   -0.0883 N   0  0  0  0  0  0  0  0  0  0  0  0
   -1.3185   -1.6852    0.0124 C   0  0  0  0  0  0  0  0  0  0  0  0
   -0.0187   -1.8844    0.0698 N   0  0  0  0  0  0  0  0  0  0  0  0
    0.6872   -0.7559    0.0183 C   0  0  0  0  0  0  0  0  0  0  0  0
    0.1511    0.5389   -0.0864 C   0  0  0  0  0  0  0  0  0  0  0  0
    2.0326   -0.6369    0.0546 N   0  0  0  0  0  0  0  0  0  0  0  0
    2.3725    0.6901   -0.0223 C   0  0  0  0  0  0  0  0  0  0  0  0
    1.2472    1.4539   -0.1111 C   0  0  0  0  0  0  0  0  0  0  0  0
   -1.9483   -2.5671    0.0507 H   0  0  0  0  0  0  0  0  0  0  0  0
    2.6837   -1.4016    0.1340 H   0  0  0  0  0  0  0  0  0  0  0  0
    3.4076    0.9882   -0.0078 H   0  0  0  0  0  0  0  0  0  0  0  0
    1.2181    2.5292   -0.1820 H   0  0  0  0  0  0  0  0  0  0  0  0
   -1.3539    2.4833   -0.2659 H   0  0  0  0  0  0  0  0  0  0  0  0
  1  2  1  0
 10  9  2  0
 10  7  1  0
  9  8  1  0
  2  7  2  0
  2  3  1  0
  7  6  1  0
  3  4  2  0
  8  6  1  0
  6  5  2  0
  4  5  1  0
  4 11  1  0
  8 12  1  0
  9 13  1  0
 10 14  1  0
  1 15  1  0
M  END
