
     RDKit          3D

 16 17  0  0  0  0  0  0  0  0999 V2000
    1.0082    1.1584    0.0579 C   0  0  0  0  0  0  0  0  0  0  0  0
    0.7924   -0.2278    0.0105 C   0  0  0  0  0  0  0  0  0  0  0  0
   -1.3753    0.0448   -0.0645 C   0  0  0  0  0  0  0  0  0  0  0  0
    2.3506    1.4238    0.1157 N   0  0  0  0  0  0  0  0  0  0  0  0
   -0.1308    1.9428    0.0368 C   0  0  0  0  0  0  0  0  0  0  0  0
   -0.3868   -0.8204   -0.0517 N   0  0  0  0  0  0  0  0  0  0  0  0
   -1.3265    1.3645   -0.0253 N   0  0  0  0  0  0  0  0  0  0  0  0
   -2.9639   -0.6378   -0.1434 Cl  0  0  0  0  0  0  0  0  0  0  0  0
    2.9056    0.2474    0.1033 C   0  0  0  0  0  0  0  0  0  0  0  0
    2.0224   -0.7928    0.0420 N   0  0  0  0  0  0  0  0  0  0  0  0
    2.3303   -2.2059    0.0018 C   0  0  0  0  0  0  0  0  0  0  0  0
   -0.0986    3.0254    0.0681 H   0  0  0  0  0  0  0  0  0  0  0  0
    3.9698    0.0640    0.1386 H   0  0  0  0  0  0  0  0  0  0  0  0
    2.0029   -2.6397   -0.9404 H   0  0  0  0  0  0  0  0  0  0  0  0
    3.4047   -2.3314    0.0953 H   0  0  0  0  0  0  0  0  0  0  0  0
    1.8418   -2.7213    0.8254 H   0  0  0  0  0  0  0  0  0  0  0  0
  8  3  1  0
  7  3  2  0
  7  5  1  0
  3  6  1  0
  5  1  2  0
  6  2  2  0
  1  2  1  0
  1  4  1  0
  2 10  1  0
  4  9  2  0
 10  9  1  0
 10 11  1  0
  5 12  1  0
  9 13  1  0
 11 14  1  0
 11 15  1  0
 11 16  1  0
M  END
