
     RDKit          3D

 52 52  0  0  0  0  0  0  0  0999 V2000
   -3.2841   -0.6661    1.3373 C   0  0  0  0  0  0  0  0  0  0  0  0
   -1.6996    0.8184    0.2585 N   0  0  0  0  0  0  0  0  0  0  0  0
   -2.7826   -1.6854    0.9397 O   0  0  0  0  0  0  0  0  0  0  0  0
   -4.1486   -0.6157    2.3417 O   0  0  0  0  0  0  0  0  0  0  0  0
   -3.0572    0.7065    0.7227 C   0  0  1  0  0  0  0  0  0  0  0  0
   -4.0312    0.9827   -0.4438 C   0  0  2  0  0  0  0  0  0  0  0  0
    5.3198    3.5893    1.0968 C   0  0  0  0  0  0  0  0  0  0  0  0
    4.7301    2.7759   -0.0549 C   0  0  0  0  0  0  0  0  0  0  0  0
    5.5135    1.5250   -0.3120 C   0  0  0  0  0  0  0  0  0  0  0  0
    5.1477    0.2803   -0.0094 C   0  0  0  0  0  0  0  0  0  0  0  0
    3.8530   -0.1078    0.6422 C   0  0  0  0  0  0  0  0  0  0  0  0
    2.7562   -0.5154   -0.3443 C   0  0  1  0  0  0  0  0  0  0  0  0
    2.9495   -1.8790   -0.9798 C   0  0  0  0  0  0  0  0  0  0  0  0
    1.6012   -2.5513   -1.1270 C   0  0  0  0  0  0  0  0  0  0  0  0
    0.5863   -1.4770   -0.7543 C   0  0  0  0  0  0  0  0  0  0  0  0
    1.3414   -0.5860    0.2395 C   0  0  2  0  0  0  0  0  0  0  0  0
   -0.6534    0.6610    1.0856 C   0  0  0  0  0  0  0  0  0  0  0  0
   -0.8035    0.3972    2.2712 O   0  0  0  0  0  0  0  0  0  0  0  0
   -5.4614    1.2001    0.0570 C   0  0  0  0  0  0  0  0  0  0  0  0
   -3.9674   -0.0716   -1.5463 C   0  0  0  0  0  0  0  0  0  0  0  0
   -1.5343    1.0449   -0.7086 H   0  0  0  0  0  0  0  0  0  0  0  0
   -4.3143   -1.5082    2.6817 H   0  0  0  0  0  0  0  0  0  0  0  0
   -3.2412    1.4634    1.4918 H   0  0  0  0  0  0  0  0  0  0  0  0
   -3.6892    1.9379   -0.8609 H   0  0  0  0  0  0  0  0  0  0  0  0
    5.3001    3.0184    2.0262 H   0  0  0  0  0  0  0  0  0  0  0  0
    6.3575    3.8610    0.8971 H   0  0  0  0  0  0  0  0  0  0  0  0
    4.7601    4.5115    1.2570 H   0  0  0  0  0  0  0  0  0  0  0  0
    3.6829    2.5478    0.1550 H   0  0  0  0  0  0  0  0  0  0  0  0
    4.7295    3.3892   -0.9602 H   0  0  0  0  0  0  0  0  0  0  0  0
    6.4874    1.6713   -0.7717 H   0  0  0  0  0  0  0  0  0  0  0  0
    5.8264   -0.5280   -0.2571 H   0  0  0  0  0  0  0  0  0  0  0  0
    4.0192   -0.9277    1.3462 H   0  0  0  0  0  0  0  0  0  0  0  0
    3.4757    0.7245    1.2403 H   0  0  0  0  0  0  0  0  0  0  0  0
    2.7410    0.2026   -1.1797 H   0  0  0  0  0  0  0  0  0  0  0  0
    1.4712   -2.9817   -2.1209 H   0  0  0  0  0  0  0  0  0  0  0  0
    1.5718   -3.3822   -0.4139 H   0  0  0  0  0  0  0  0  0  0  0  0
    0.3169   -0.8914   -1.6389 H   0  0  0  0  0  0  0  0  0  0  0  0
   -0.3375   -1.8809   -0.3421 H   0  0  0  0  0  0  0  0  0  0  0  0
    1.3940   -1.1020    1.2061 H   0  0  0  0  0  0  0  0  0  0  0  0
    1.3350    1.3927    1.1087 H   0  0  0  0  0  0  0  0  0  0  0  0
    0.6524    1.3099   -0.5103 H   0  0  0  0  0  0  0  0  0  0  0  0
   -5.9596    2.8087   -1.3101 H   0  0  0  0  0  0  0  0  0  0  0  0
   -6.4814    1.2229   -1.8714 H   0  0  0  0  0  0  0  0  0  0  0  0
   -7.3582    2.0267   -0.5784 H   0  0  0  0  0  0  0  0  0  0  0  0
   -5.8983    0.2487    0.3723 H   0  0  0  0  0  0  0  0  0  0  0  0
   -5.4370    1.8382    0.9446 H   0  0  0  0  0  0  0  0  0  0  0  0
   -4.4959    0.2748   -2.4336 H   0  0  0  0  0  0  0  0  0  0  0  0
   -2.9464   -0.2977   -1.8555 H   0  0  0  0  0  0  0  0  0  0  0  0
   -4.4317   -1.0079   -1.2344 H   0  0  0  0  0  0  0  0  0  0  0  0
   -6.3633    1.8476   -0.9861 C   0  0  0  0  0  0  0  0  0  0  0  0
    0.7097    0.7869    0.4484 C   0  0  0  0  0  0  0  0  0  0  0  0
    4.0100   -2.3619   -1.2955 O   0  0  0  0  0  0  0  0  0  0  0  0
  3  1  2  0
  1  4  1  0
  1  5  1  0
  5  2  1  0
 17  2  1  0
  2 21  1  0
  4 22  1  0
 13 52  2  0
  5  6  1  0
  5 23  1  1
 20  6  1  0
  6 19  1  0
  6 24  1  6
  7  8  1  0
  7 25  1  0
  7 26  1  0
  7 27  1  0
  8  9  1  0
  8 28  1  0
  8 29  1  0
  9 10  2  0
  9 30  1  0
 11 10  1  0
 10 31  1  0
 11 12  1  0
 11 32  1  0
 11 33  1  0
 16 12  1  0
 12 13  1  0
 12 34  1  6
 13 14  1  0
 15 14  1  0
 14 35  1  0
 14 36  1  0
 16 15  1  0
 15 37  1  0
 15 38  1  0
 16 51  1  0
 16 39  1  1
 17 51  1  0
 51 40  1  0
 51 41  1  0
 18 17  2  0
 50 19  1  0
 50 42  1  0
 50 43  1  0
 50 44  1  0
 19 45  1  0
 19 46  1  0
 20 47  1  0
 20 48  1  0
 20 49  1  0
M  END
