
     RDKit          3D

 68 67  0  0  0  0  0  0  0  0999 V2000
   -2.0871    0.6044  -18.5760 C   0  0  0  0  0  0  0  0  0  0  0  0
   -2.5694    0.8942  -17.1612 C   0  0  0  0  0  0  0  0  0  0  0  0
   -3.1359   -0.3380  -16.4662 C   0  0  0  0  0  0  0  0  0  0  0  0
   -3.6245   -0.0613  -15.0497 C   0  0  0  0  0  0  0  0  0  0  0  0
   -4.1856   -1.2956  -14.3547 C   0  0  0  0  0  0  0  0  0  0  0  0
   -4.6869   -1.0146  -12.9435 C   0  0  0  0  0  0  0  0  0  0  0  0
   -5.2233   -2.2537  -12.2387 C   0  0  0  0  0  0  0  0  0  0  0  0
   -5.7705   -1.9573  -10.8471 C   0  0  0  0  0  0  0  0  0  0  0  0
   -6.2824   -3.2004  -10.1305 C   0  0  0  0  0  0  0  0  0  0  0  0
   -6.8820   -2.8733   -8.7774 C   0  0  0  0  0  0  0  0  0  0  0  0
   -7.3616   -4.0554   -8.1859 O   0  0  0  0  0  0  0  0  0  0  0  0
   -7.9818   -3.8473   -6.9437 C   0  0  0  0  0  0  0  0  0  0  0  0
   -8.5243   -5.1584   -6.4333 C   0  0  0  0  0  0  0  0  0  0  0  0
   -9.5343   -5.6057   -7.2994 O   0  0  0  0  0  0  0  0  0  0  0  0
  -10.0373   -6.8730   -6.9670 C   0  0  0  0  0  0  0  0  0  0  0  0
  -11.0792   -7.2729   -7.9810 C   0  0  0  0  0  0  0  0  0  0  0  0
  -10.4730   -7.4199   -9.2392 O   0  0  0  0  0  0  0  0  0  0  0  0
  -11.3946   -7.6019  -10.2818 C   0  0  0  0  0  0  0  0  0  0  0  0
  -10.6656   -7.6490  -11.6008 C   0  0  0  0  0  0  0  0  0  0  0  0
  -10.0419   -6.4127  -11.8361 O   0  0  0  0  0  0  0  0  0  0  0  0
   -9.3877   -6.3536  -13.0764 C   0  0  0  0  0  0  0  0  0  0  0  0
   -8.6662   -5.0367  -13.2038 C   0  0  0  0  0  0  0  0  0  0  0  0
   -9.5928   -3.9806  -13.2344 O   0  0  0  0  0  0  0  0  0  0  0  0
   -8.9856   -2.7123  -13.2610 C   0  0  0  0  0  0  0  0  0  0  0  0
  -10.0670   -1.6568  -13.2426 C   0  0  0  0  0  0  0  0  0  0  0  0
  -10.8328   -1.6765  -12.0604 O   0  0  0  0  0  0  0  0  0  0  0  0
   -2.8967    0.2110  -19.1941 H   0  0  0  0  0  0  0  0  0  0  0  0
   -1.2847   -0.1357  -18.5762 H   0  0  0  0  0  0  0  0  0  0  0  0
   -1.7067    1.5023  -19.0643 H   0  0  0  0  0  0  0  0  0  0  0  0
   -1.7438    1.2966  -16.5659 H   0  0  0  0  0  0  0  0  0  0  0  0
   -3.3334    1.6776  -17.1889 H   0  0  0  0  0  0  0  0  0  0  0  0
   -3.9618   -0.7418  -17.0628 H   0  0  0  0  0  0  0  0  0  0  0  0
   -2.3705   -1.1217  -16.4394 H   0  0  0  0  0  0  0  0  0  0  0  0
   -4.3924    0.7198  -15.0783 H   0  0  0  0  0  0  0  0  0  0  0  0
   -2.7999    0.3457  -14.4537 H   0  0  0  0  0  0  0  0  0  0  0  0
   -5.0047   -1.7091  -14.9540 H   0  0  0  0  0  0  0  0  0  0  0  0
   -3.4144   -2.0730  -14.3176 H   0  0  0  0  0  0  0  0  0  0  0  0
   -5.4730   -0.2523  -12.9856 H   0  0  0  0  0  0  0  0  0  0  0  0
   -3.8759   -0.5821  -12.3471 H   0  0  0  0  0  0  0  0  0  0  0  0
   -4.4303   -3.0057  -12.1660 H   0  0  0  0  0  0  0  0  0  0  0  0
   -6.0116   -2.7050  -12.8524 H   0  0  0  0  0  0  0  0  0  0  0  0
   -6.5795   -1.2220  -10.9295 H   0  0  0  0  0  0  0  0  0  0  0  0
   -4.9903   -1.4819  -10.2431 H   0  0  0  0  0  0  0  0  0  0  0  0
   -7.0411   -3.6936  -10.7473 H   0  0  0  0  0  0  0  0  0  0  0  0
   -5.4662   -3.9188  -10.0064 H   0  0  0  0  0  0  0  0  0  0  0  0
   -7.6974   -2.1443   -8.8997 H   0  0  0  0  0  0  0  0  0  0  0  0
   -6.1267   -2.3938   -8.1366 H   0  0  0  0  0  0  0  0  0  0  0  0
   -7.2721   -3.4503   -6.2041 H   0  0  0  0  0  0  0  0  0  0  0  0
   -8.7964   -3.1132   -7.0270 H   0  0  0  0  0  0  0  0  0  0  0  0
   -8.9080   -5.0055   -5.4146 H   0  0  0  0  0  0  0  0  0  0  0  0
   -7.7118   -5.8958   -6.3591 H   0  0  0  0  0  0  0  0  0  0  0  0
   -9.2325   -7.6218   -6.9383 H   0  0  0  0  0  0  0  0  0  0  0  0
  -10.5052   -6.8720   -5.9723 H   0  0  0  0  0  0  0  0  0  0  0  0
  -11.8741   -6.5140   -8.0146 H   0  0  0  0  0  0  0  0  0  0  0  0
  -11.5478   -8.2099   -7.6488 H   0  0  0  0  0  0  0  0  0  0  0  0
  -11.9553   -8.5404  -10.1660 H   0  0  0  0  0  0  0  0  0  0  0  0
  -12.1349   -6.7890  -10.2964 H   0  0  0  0  0  0  0  0  0  0  0  0
  -11.3995   -7.8818  -12.3853 H   0  0  0  0  0  0  0  0  0  0  0  0
   -9.9310   -8.4673  -11.5988 H   0  0  0  0  0  0  0  0  0  0  0  0
   -8.6420   -7.1553  -13.1740 H   0  0  0  0  0  0  0  0  0  0  0  0
  -10.0988   -6.4780  -13.9061 H   0  0  0  0  0  0  0  0  0  0  0  0
   -8.0631   -5.0584  -14.1221 H   0  0  0  0  0  0  0  0  0  0  0  0
   -7.9648   -4.9191  -12.3656 H   0  0  0  0  0  0  0  0  0  0  0  0
   -8.3232   -2.5812  -12.3915 H   0  0  0  0  0  0  0  0  0  0  0  0
   -8.3631   -2.5848  -14.1590 H   0  0  0  0  0  0  0  0  0  0  0  0
  -10.6963   -1.7650  -14.1359 H   0  0  0  0  0  0  0  0  0  0  0  0
   -9.5908   -0.6766  -13.3041 H   0  0  0  0  0  0  0  0  0  0  0  0
  -11.2157   -2.5550  -11.9726 H   0  0  0  0  0  0  0  0  0  0  0  0
  1  2  1  0
  1 27  1  0
  1 28  1  0
  1 29  1  0
  2  3  1  0
  2 30  1  0
  2 31  1  0
  3  4  1  0
  3 32  1  0
  3 33  1  0
  4  5  1  0
  4 34  1  0
  4 35  1  0
  5  6  1  0
  5 36  1  0
  5 37  1  0
  6  7  1  0
  6 38  1  0
  6 39  1  0
  7  8  1  0
  7 40  1  0
  7 41  1  0
  8  9  1  0
  8 42  1  0
  8 43  1  0
  9 10  1  0
  9 44  1  0
  9 45  1  0
 10 11  1  0
 10 46  1  0
 10 47  1  0
 11 12  1  0
 12 13  1  0
 12 48  1  0
 12 49  1  0
 13 14  1  0
 13 50  1  0
 13 51  1  0
 14 15  1  0
 15 16  1  0
 15 52  1  0
 15 53  1  0
 16 17  1  0
 16 54  1  0
 16 55  1  0
 17 18  1  0
 18 19  1  0
 18 56  1  0
 18 57  1  0
 19 20  1  0
 19 58  1  0
 19 59  1  0
 20 21  1  0
 21 22  1  0
 21 60  1  0
 21 61  1  0
 22 23  1  0
 22 62  1  0
 22 63  1  0
 23 24  1  0
 24 25  1  0
 24 64  1  0
 24 65  1  0
 25 26  1  0
 25 66  1  0
 25 67  1  0
 26 68  1  0
M  END
