
     RDKit          3D

 27 27  0  0  0  0  0  0  0  0999 V2000
    2.4027    0.6062   -1.6876 O   0  0  0  0  0  0  0  0  0  0  0  0
    2.5788   -0.2078   -0.4612 P   0  0  1  0  0  0  0  0  0  0  0  0
    2.1419   -1.7281   -0.7520 O   0  0  0  0  0  0  0  0  0  0  0  0
    4.0668   -0.2603    0.1449 O   0  0  0  0  0  0  0  0  0  0  0  0
    1.6283    0.3897    0.9895 C   0  0  1  0  0  0  0  0  0  0  0  0
    2.0080    1.7385    1.3686 N   0  0  0  0  0  0  0  0  0  0  0  0
    0.1617    0.2697    0.6598 C   0  0  0  0  0  0  0  0  0  0  0  0
   -0.5121    1.2811   -0.0206 C   0  0  0  0  0  0  0  0  0  0  0  0
   -1.8505    1.1433   -0.3456 C   0  0  0  0  0  0  0  0  0  0  0  0
   -2.5554   -0.0072    0.0005 C   0  0  0  0  0  0  0  0  0  0  0  0
   -3.9901   -0.1310   -0.3788 C   0  0  0  0  0  0  0  0  0  0  0  0
   -4.7184   -1.0123    0.3680 N   0  0  0  0  0  0  0  0  0  0  0  0
   -4.4151    0.5373   -1.3814 N   0  0  0  0  0  0  0  0  0  0  0  0
   -1.8816   -1.0208    0.6775 C   0  0  0  0  0  0  0  0  0  0  0  0
   -0.5394   -0.8823    0.9972 C   0  0  0  0  0  0  0  0  0  0  0  0
    2.3053   -2.3579   -0.0379 H   0  0  0  0  0  0  0  0  0  0  0  0
    4.7658   -0.3375   -0.5195 H   0  0  0  0  0  0  0  0  0  0  0  0
    1.8493   -0.2745    1.8298 H   0  0  0  0  0  0  0  0  0  0  0  0
    2.9443    1.7421    1.7515 H   0  0  0  0  0  0  0  0  0  0  0  0
    2.0258    2.3565    0.5670 H   0  0  0  0  0  0  0  0  0  0  0  0
   -0.0038    2.1939   -0.3014 H   0  0  0  0  0  0  0  0  0  0  0  0
   -2.3603    1.9381   -0.8728 H   0  0  0  0  0  0  0  0  0  0  0  0
   -4.4476   -1.1681    1.3251 H   0  0  0  0  0  0  0  0  0  0  0  0
   -5.7160   -1.0233    0.2257 H   0  0  0  0  0  0  0  0  0  0  0  0
   -5.4110    0.3916   -1.5244 H   0  0  0  0  0  0  0  0  0  0  0  0
   -2.3877   -1.9383    0.9480 H   0  0  0  0  0  0  0  0  0  0  0  0
   -0.0365   -1.6865    1.5209 H   0  0  0  0  0  0  0  0  0  0  0  0
  1  2  2  0
  2  3  1  6
  4  2  1  0
  2  5  1  0
  6  5  1  0
  5  7  1  0
  7 15  2  0
  7  8  1  0
 15 14  1  0
  8  9  2  0
 14 10  2  0
  9 10  1  0
 10 11  1  0
 11 13  2  0
 11 12  1  0
  3 16  1  0
  4 17  1  0
  5 18  1  1
  6 19  1  0
  6 20  1  0
  8 21  1  0
  9 22  1  0
 12 23  1  0
 12 24  1  0
 13 25  1  0
 14 26  1  0
 15 27  1  0
M  END
