
     RDKit          3D

 31 32  0  0  0  0  0  0  0  0999 V2000
    4.6849    1.4011   -0.9662 C   0  0  0  0  0  0  0  0  0  0  0  0
   -2.9514    0.5560    1.0482 C   0  0  0  0  0  0  0  0  0  0  0  0
    3.3701    1.6091   -0.5661 C   0  0  0  0  0  0  0  0  0  0  0  0
    5.3662    0.2543   -0.5965 C   0  0  0  0  0  0  0  0  0  0  0  0
   -1.5836    0.6541    0.9912 C   0  0  0  0  0  0  0  0  0  0  0  0
    3.4097   -0.5003    0.5909 C   0  0  0  0  0  0  0  0  0  0  0  0
   -2.8923   -0.7350   -0.9358 C   0  0  0  0  0  0  0  0  0  0  0  0
   -3.6580   -0.1493    0.0677 C   0  0  0  0  0  0  0  0  0  0  0  0
    2.7319    0.6574    0.2189 C   0  0  0  0  0  0  0  0  0  0  0  0
    4.7253   -0.7050    0.1872 C   0  0  0  0  0  0  0  0  0  0  0  0
   -0.9111    0.0226   -0.0754 C   0  0  0  0  0  0  0  0  0  0  0  0
    1.3013    0.8500    0.6396 C   0  0  0  0  0  0  0  0  0  0  0  0
   -1.5768   -0.6602   -1.0157 N   0  0  0  0  0  0  0  0  0  0  0  0
   -5.7911   -0.8612   -0.8244 N   0  0  0  0  0  0  0  0  0  0  0  0
    0.4289    0.0616   -0.2036 N   0  0  0  0  0  0  0  0  0  0  0  0
   -5.7299    0.2671    1.1176 O   0  0  0  0  0  0  0  0  0  0  0  0
    5.4248   -1.8064    0.5233 O   0  0  0  0  0  0  0  0  0  0  0  0
    5.1864    2.1424   -1.5747 H   0  0  0  0  0  0  0  0  0  0  0  0
   -3.4855    1.0318    1.8596 H   0  0  0  0  0  0  0  0  0  0  0  0
    2.8463    2.5092   -0.8624 H   0  0  0  0  0  0  0  0  0  0  0  0
    6.3910    0.0957   -0.9083 H   0  0  0  0  0  0  0  0  0  0  0  0
   -1.0450    1.2040    1.7498 H   0  0  0  0  0  0  0  0  0  0  0  0
    2.9075   -1.2430    1.2033 H   0  0  0  0  0  0  0  0  0  0  0  0
   -3.3548   -1.3083   -1.7330 H   0  0  0  0  0  0  0  0  0  0  0  0
    1.1804    0.5459    1.6835 H   0  0  0  0  0  0  0  0  0  0  0  0
    1.0403    1.9124    0.5864 H   0  0  0  0  0  0  0  0  0  0  0  0
   -5.3444   -1.2062   -1.6545 H   0  0  0  0  0  0  0  0  0  0  0  0
   -6.7970   -0.8951   -0.8069 H   0  0  0  0  0  0  0  0  0  0  0  0
    0.8085   -0.3296   -1.0510 H   0  0  0  0  0  0  0  0  0  0  0  0
    4.8887   -2.3940    1.0673 H   0  0  0  0  0  0  0  0  0  0  0  0
   -5.1377   -0.2265    0.1638 C   0  0  0  0  0  0  0  0  0  0  0  0
  4  1  2  0
  4 10  1  0
  1  3  1  0
 17 10  1  0
 10  6  2  0
  3  9  2  0
  6  9  1  0
  9 12  1  0
 12 15  1  0
 15 11  1  0
  5 11  1  0
  5  2  2  0
 11 13  2  0
  2  8  1  0
 13  7  1  0
  8  7  2  0
  8 31  1  0
 31 16  2  0
 31 14  1  0
  1 18  1  0
  2 19  1  0
  3 20  1  0
  4 21  1  0
  5 22  1  0
  6 23  1  0
  7 24  1  0
 12 25  1  0
 12 26  1  0
 14 27  1  0
 14 28  1  0
 15 29  1  0
 17 30  1  0
M  END
