
     RDKit          3D

 24 24  0  0  0  0  0  0  0  0999 V2000
    0.6539    1.4643   -0.2114 C   0  0  0  0  0  0  0  0  0  0  0  0
    0.2263    1.4331   -1.3393 O   0  0  0  0  0  0  0  0  0  0  0  0
    0.5353    0.3598    0.8125 C   0  0  2  0  0  0  0  0  0  0  0  0
    1.8961   -0.3307    1.0137 C   0  0  0  0  0  0  0  0  0  0  0  0
    2.2843   -1.2068   -0.1696 C   0  0  0  0  0  0  0  0  0  0  0  0
    1.2076   -2.2490   -0.4393 C   0  0  0  0  0  0  0  0  0  0  0  0
   -0.1517   -1.6067   -0.6961 C   0  0  0  0  0  0  0  0  0  0  0  0
   -0.5436   -0.6633    0.4485 C   0  0  2  0  0  0  0  0  0  0  0  0
   -1.8784    0.0209    0.2639 C   0  0  0  0  0  0  0  0  0  0  0  0
   -2.1261    1.1431    0.6342 O   0  0  0  0  0  0  0  0  0  0  0  0
    1.3251    2.5051    0.2716 O   0  0  0  0  0  0  0  0  0  0  0  0
    0.2640    0.8317    1.7606 H   0  0  0  0  0  0  0  0  0  0  0  0
    2.6660    0.4152    1.2177 H   0  0  0  0  0  0  0  0  0  0  0  0
    1.8247   -0.9501    1.9127 H   0  0  0  0  0  0  0  0  0  0  0  0
    2.4381   -0.5943   -1.0643 H   0  0  0  0  0  0  0  0  0  0  0  0
    3.2396   -1.6942    0.0371 H   0  0  0  0  0  0  0  0  0  0  0  0
    1.4814   -2.8690   -1.2954 H   0  0  0  0  0  0  0  0  0  0  0  0
    1.1347   -2.9210    0.4224 H   0  0  0  0  0  0  0  0  0  0  0  0
   -0.1295   -1.0655   -1.6431 H   0  0  0  0  0  0  0  0  0  0  0  0
   -0.9040   -2.3898   -0.7958 H   0  0  0  0  0  0  0  0  0  0  0  0
   -0.6748   -1.2923    1.3415 H   0  0  0  0  0  0  0  0  0  0  0  0
   -2.7848   -0.7611   -0.3070 O   0  0  0  0  0  0  0  0  0  0  0  0
    1.4232    3.1826   -0.4141 H   0  0  0  0  0  0  0  0  0  0  0  0
   -3.6320   -0.2937   -0.3619 H   0  0  0  0  0  0  0  0  0  0  0  0
  5  4  1  0
  5  6  1  0
  4  3  1  0
  6  7  1  0
 10  9  2  0
  3  1  1  0
  3  8  1  0
  1  2  2  0
  9  8  1  0
  7  8  1  0
  1 11  1  0
  3 12  1  1
  4 13  1  0
  4 14  1  0
  5 15  1  0
  5 16  1  0
  6 17  1  0
  6 18  1  0
  7 19  1  0
  7 20  1  0
  8 21  1  1
  9 22  1  0
 11 23  1  0
 22 24  1  0
M  END
