
     RDKit          3D

 25 25  0  0  0  0  0  0  0  0999 V2000
   -0.3201   -0.4658    0.9541 C   0  0  1  0  0  0  0  0  0  0  0  0
    0.2059    0.7272    0.1353 C   0  0  0  0  0  0  0  0  0  0  0  0
    0.2034    0.4258   -1.3356 C   0  0  0  0  0  0  0  0  0  0  0  0
   -0.8594    0.8168   -2.1451 C   0  0  0  0  0  0  0  0  0  0  0  0
    1.2558   -0.2816   -1.9129 C   0  0  0  0  0  0  0  0  0  0  0  0
   -0.8691    0.5165   -3.5010 C   0  0  0  0  0  0  0  0  0  0  0  0
    1.2489   -0.5879   -3.2668 C   0  0  0  0  0  0  0  0  0  0  0  0
    0.1850   -0.1892   -4.0660 C   0  0  0  0  0  0  0  0  0  0  0  0
   -0.3027   -0.1141    2.4350 C   0  0  0  0  0  0  0  0  0  0  0  0
    1.0983    0.3126    4.2788 C   0  0  0  0  0  0  0  0  0  0  0  0
   -1.5916   -0.8784    0.5580 O   0  0  0  0  0  0  0  0  0  0  0  0
    0.9295   -0.0623    2.9096 O   0  0  0  0  0  0  0  0  0  0  0  0
   -1.2920    0.1127    3.0835 O   0  0  0  0  0  0  0  0  0  0  0  0
    0.3494   -1.3164    0.7951 H   0  0  0  0  0  0  0  0  0  0  0  0
   -0.4154    1.6051    0.3381 H   0  0  0  0  0  0  0  0  0  0  0  0
    1.2168    0.9704    0.4674 H   0  0  0  0  0  0  0  0  0  0  0  0
   -1.6854    1.3697   -1.7131 H   0  0  0  0  0  0  0  0  0  0  0  0
    2.0932   -0.5941   -1.2991 H   0  0  0  0  0  0  0  0  0  0  0  0
   -1.7013    0.8341   -4.1162 H   0  0  0  0  0  0  0  0  0  0  0  0
    2.0775   -1.1339   -3.6993 H   0  0  0  0  0  0  0  0  0  0  0  0
    0.1792   -0.4238   -5.1226 H   0  0  0  0  0  0  0  0  0  0  0  0
    2.1687    0.3043    4.4599 H   0  0  0  0  0  0  0  0  0  0  0  0
    0.7068    1.3116    4.4673 H   0  0  0  0  0  0  0  0  0  0  0  0
    0.6125   -0.3982    4.9464 H   0  0  0  0  0  0  0  0  0  0  0  0
   -2.2146   -0.1542    0.6856 H   0  0  0  0  0  0  0  0  0  0  0  0
  1  2  1  0
  1  9  1  0
  1 11  1  0
  1 14  1  1
  2  3  1  0
  2 15  1  0
  2 16  1  0
  3  4  2  0
  3  5  1  0
  4  6  1  0
  4 17  1  0
  5  7  2  0
  5 18  1  0
  6  8  2  0
  6 19  1  0
  7  8  1  0
  7 20  1  0
  8 21  1  0
  9 12  1  0
  9 13  2  0
 10 12  1  0
 10 22  1  0
 10 23  1  0
 10 24  1  0
 11 25  1  0
M  END
