
     RDKit          3D

 42 43  0  0  0  0  0  0  0  0999 V2000
    1.6635    0.4167   -6.4800 C   0  0  0  0  0  0  0  0  0  0  0  0
    1.7563    0.3918   -7.8638 C   0  0  0  0  0  0  0  0  0  0  0  0
    0.6698   -0.0117   -8.6272 C   0  0  0  0  0  0  0  0  0  0  0  0
   -0.5074   -0.3926   -7.9911 C   0  0  0  0  0  0  0  0  0  0  0  0
   -0.5992   -0.3684   -6.6098 C   0  0  0  0  0  0  0  0  0  0  0  0
    0.4850    0.0442   -5.8259 C   0  0  0  0  0  0  0  0  0  0  0  0
    0.4479    0.1002   -4.3659 C   0  0  0  0  0  0  0  0  0  0  0  0
   -0.6309   -0.0776   -3.5905 C   0  0  0  0  0  0  0  0  0  0  0  0
   -0.6621   -0.0328   -2.1322 C   0  0  0  0  0  0  0  0  0  0  0  0
   -1.8952   -0.0682   -1.4750 C   0  0  0  0  0  0  0  0  0  0  0  0
   -1.9812   -0.0286   -0.0971 C   0  0  0  0  0  0  0  0  0  0  0  0
   -0.8286    0.0411    0.6894 C   0  0  0  0  0  0  0  0  0  0  0  0
    0.4143    0.0735    0.0481 C   0  0  0  0  0  0  0  0  0  0  0  0
    0.4820    0.0358   -1.3331 C   0  0  0  0  0  0  0  0  0  0  0  0
   -1.0071    0.0721    2.0716 N   0  0  0  0  0  0  0  0  0  0  0  0
   -0.0804    0.0730    3.0687 C   0  0  0  0  0  0  0  0  0  0  0  0
   -0.6966    0.0920    4.4515 C   0  0  0  0  0  0  0  0  0  0  0  0
    0.3272    0.0780    5.5742 C   0  0  0  0  0  0  0  0  0  0  0  0
   -0.3714    0.1035    6.9239 C   0  0  0  0  0  0  0  0  0  0  0  0
    0.5752    0.0804    8.0913 C   0  0  0  0  0  0  0  0  0  0  0  0
    1.7771    0.0225    8.0138 O   0  0  0  0  0  0  0  0  0  0  0  0
    1.1209    0.0594    2.8767 O   0  0  0  0  0  0  0  0  0  0  0  0
   -0.0739    0.1301    9.2511 O   0  0  0  0  0  0  0  0  0  0  0  0
    2.5178    0.7336   -5.8933 H   0  0  0  0  0  0  0  0  0  0  0  0
    2.6792    0.6892   -8.3447 H   0  0  0  0  0  0  0  0  0  0  0  0
    0.7380   -0.0339   -9.7070 H   0  0  0  0  0  0  0  0  0  0  0  0
   -1.3589   -0.7157   -8.5764 H   0  0  0  0  0  0  0  0  0  0  0  0
   -1.5227   -0.6844   -6.1417 H   0  0  0  0  0  0  0  0  0  0  0  0
    1.4027    0.3271   -3.9009 H   0  0  0  0  0  0  0  0  0  0  0  0
   -1.5939   -0.2664   -4.0561 H   0  0  0  0  0  0  0  0  0  0  0  0
   -2.8080   -0.1271   -2.0561 H   0  0  0  0  0  0  0  0  0  0  0  0
   -2.9559   -0.0566    0.3767 H   0  0  0  0  0  0  0  0  0  0  0  0
    1.3278    0.1229    0.6172 H   0  0  0  0  0  0  0  0  0  0  0  0
    1.4644    0.0514   -1.7876 H   0  0  0  0  0  0  0  0  0  0  0  0
   -1.9709    0.0765    2.3719 H   0  0  0  0  0  0  0  0  0  0  0  0
   -1.3703   -0.7662    4.5427 H   0  0  0  0  0  0  0  0  0  0  0  0
   -1.3368    0.9767    4.5319 H   0  0  0  0  0  0  0  0  0  0  0  0
    0.9919    0.9385    5.4839 H   0  0  0  0  0  0  0  0  0  0  0  0
    0.9523   -0.8130    5.4969 H   0  0  0  0  0  0  0  0  0  0  0  0
   -1.0512   -0.7491    7.0242 H   0  0  0  0  0  0  0  0  0  0  0  0
   -1.0051    0.9914    7.0160 H   0  0  0  0  0  0  0  0  0  0  0  0
    0.5569    0.1076    9.9860 H   0  0  0  0  0  0  0  0  0  0  0  0
  1  2  2  0
  1  6  1  0
  1 24  1  0
  2  3  1  0
  2 25  1  0
  3  4  2  0
  3 26  1  0
  4  5  1  0
  4 27  1  0
  5  6  2  0
  5 28  1  0
  6  7  1  0
  7  8  2  0
  7 29  1  0
  8  9  1  0
  8 30  1  0
  9 10  2  0
  9 14  1  0
 10 11  1  0
 10 31  1  0
 11 12  2  0
 11 32  1  0
 12 13  1  0
 12 15  1  0
 13 14  2  0
 13 33  1  0
 14 34  1  0
 15 16  1  0
 15 35  1  0
 16 17  1  0
 16 22  2  0
 17 18  1  0
 17 36  1  0
 17 37  1  0
 18 19  1  0
 18 38  1  0
 18 39  1  0
 19 20  1  0
 19 40  1  0
 19 41  1  0
 20 21  2  0
 20 23  1  0
 23 42  1  0
M  END
