
     RDKit          3D

 16 16  0  0  0  0  0  0  0  0999 V2000
   -0.2167   -0.7669   -0.1847 C   0  0  0  0  0  0  0  0  0  0  0  0
    1.0995   -0.3449   -0.1010 C   0  0  0  0  0  0  0  0  0  0  0  0
    1.3748    1.0019    0.0708 C   0  0  0  0  0  0  0  0  0  0  0  0
    0.3580    1.9329    0.1464 C   0  0  0  0  0  0  0  0  0  0  0  0
   -0.9550    1.5079    0.0504 C   0  0  0  0  0  0  0  0  0  0  0  0
   -1.2531    0.1567   -0.0985 C   0  0  0  0  0  0  0  0  0  0  0  0
    2.3970   -1.4681   -0.2176 Cl  0  0  0  0  0  0  0  0  0  0  0  0
    2.6417    1.3987    0.1571 F   0  0  0  0  0  0  0  0  0  0  0  0
   -2.6914   -0.2440   -0.1966 C   0  0  0  0  0  0  0  0  0  0  0  0
   -3.5372    0.5325   -0.5844 O   0  0  0  0  0  0  0  0  0  0  0  0
   -2.9667   -1.5235    0.1599 N   0  0  0  0  0  0  0  0  0  0  0  0
   -0.4114   -1.8189   -0.3439 H   0  0  0  0  0  0  0  0  0  0  0  0
    0.5972    2.9794    0.2766 H   0  0  0  0  0  0  0  0  0  0  0  0
   -1.7558    2.2320    0.0999 H   0  0  0  0  0  0  0  0  0  0  0  0
   -2.3374   -2.0424    0.7459 H   0  0  0  0  0  0  0  0  0  0  0  0
   -3.9338   -1.7991    0.1875 H   0  0  0  0  0  0  0  0  0  0  0  0
  4  5  2  0
  4  3  1  0
  5  6  1  0
  8  3  1  0
  3  2  2  0
 11  9  1  0
  6  9  1  0
  6  1  2  0
  9 10  2  0
  2  1  1  0
  2  7  1  0
  1 12  1  0
  4 13  1  0
  5 14  1  0
 11 15  1  0
 11 16  1  0
M  END
