
     RDKit          3D

 29 30  0  0  0  0  0  0  0  0999 V2000
    0.7327    2.8545    0.1608 N   0  0  0  0  0  0  0  0  0  0  0  0
    1.4598    1.6963    0.1555 C   0  0  0  0  0  0  0  0  0  0  0  0
   -3.8241   -0.9744    0.1089 C   0  0  0  0  0  0  0  0  0  0  0  0
    1.0672   -0.6592   -0.2839 C   0  0  0  0  0  0  0  0  0  0  0  0
    2.8034    1.4585    0.4136 C   0  0  0  0  0  0  0  0  0  0  0  0
    2.4087   -0.8985   -0.0271 C   0  0  0  0  0  0  0  0  0  0  0  0
   -4.3322   -1.0442   -0.9828 O   0  0  0  0  0  0  0  0  0  0  0  0
   -4.3331   -1.5725    1.1825 O   0  0  0  0  0  0  0  0  0  0  0  0
   -2.5665   -0.2177    0.4327 C   0  0  0  0  0  0  0  0  0  0  0  0
   -0.7097    1.2317   -0.4069 C   0  0  0  0  0  0  0  0  0  0  0  0
   -0.5586    2.5715   -0.1778 C   0  0  0  0  0  0  0  0  0  0  0  0
    0.5814    0.6474   -0.1950 C   0  0  0  0  0  0  0  0  0  0  0  0
    3.2711    0.1585    0.3204 C   0  0  0  0  0  0  0  0  0  0  0  0
    2.8165   -2.1886   -0.1306 O   0  0  0  0  0  0  0  0  0  0  0  0
    4.1795   -2.4890    0.0707 C   0  0  0  0  0  0  0  0  0  0  0  0
    0.4142   -1.4825   -0.5516 H   0  0  0  0  0  0  0  0  0  0  0  0
   -1.7759   -0.2007   -1.5704 H   0  0  0  0  0  0  0  0  0  0  0  0
   -2.6964    1.2264   -1.1579 H   0  0  0  0  0  0  0  0  0  0  0  0
    3.4795    2.2614    0.6786 H   0  0  0  0  0  0  0  0  0  0  0  0
   -5.1447   -2.0442    0.9434 H   0  0  0  0  0  0  0  0  0  0  0  0
   -2.7876    0.4928    1.2344 H   0  0  0  0  0  0  0  0  0  0  0  0
   -1.8452   -0.9203    0.8615 H   0  0  0  0  0  0  0  0  0  0  0  0
   -1.2952    3.3581   -0.2332 H   0  0  0  0  0  0  0  0  0  0  0  0
    4.3178   -0.0229    0.5205 H   0  0  0  0  0  0  0  0  0  0  0  0
    4.8270   -1.9803   -0.6495 H   0  0  0  0  0  0  0  0  0  0  0  0
    4.5165   -2.2375    1.0805 H   0  0  0  0  0  0  0  0  0  0  0  0
    4.2842   -3.5624   -0.0703 H   0  0  0  0  0  0  0  0  0  0  0  0
    1.0909    3.7736    0.3555 H   0  0  0  0  0  0  0  0  0  0  0  0
   -1.9685    0.5137   -0.7657 C   0  0  0  0  0  0  0  0  0  0  0  0
  2  1  1  0
  1 11  1  0
  5  2  2  0
  2 12  1  0
  9  3  1  0
  3  7  2  0
  3  8  1  0
  6  4  1  0
  4 12  2  0
  4 16  1  0
 10 29  1  0
 29  9  1  0
 29 17  1  0
 29 18  1  0
 13  5  1  0
  5 19  1  0
 13  6  2  0
 14  6  1  0
  8 20  1  0
  9 21  1  0
  9 22  1  0
 12 10  1  0
 10 11  2  0
 11 23  1  0
 13 24  1  0
 15 14  1  0
 15 25  1  0
 15 26  1  0
 15 27  1  0
  1 28  1  0
M  END
