
     RDKit          3D

 34 34  0  0  0  0  0  0  0  0999 V2000
    3.7580    1.3199   -0.0544 N   0  0  0  0  0  0  0  0  0  0  0  0
    0.9985   -1.1954    0.1610 C   0  0  0  0  0  0  0  0  0  0  0  0
    2.2762   -0.6633    0.2166 C   0  0  0  0  0  0  0  0  0  0  0  0
    2.4538    0.6843   -0.0694 C   0  0  0  0  0  0  0  0  0  0  0  0
   -1.4963   -0.9988   -0.2189 C   0  0  0  0  0  0  0  0  0  0  0  0
   -1.6115   -2.5138   -0.0264 C   0  0  1  0  0  0  0  0  0  0  0  0
   -1.6801    2.4512    0.4471 C   0  0  0  0  0  0  0  0  0  0  0  0
   -3.0860   -2.8780    0.1323 C   0  0  0  0  0  0  0  0  0  0  0  0
   -3.5897   -2.4280    1.2746 O   0  0  0  0  0  0  0  0  0  0  0  0
   -0.9583   -3.2097   -1.1039 N   0  0  0  0  0  0  0  0  0  0  0  0
   -0.1041   -0.4218   -0.1840 C   0  0  0  0  0  0  0  0  0  0  0  0
    3.5574   -1.7017    0.7116 Cl  0  0  0  0  0  0  0  0  0  0  0  0
    3.8138    2.4624    0.3370 O   0  0  0  0  0  0  0  0  0  0  0  0
    4.7048    0.6859   -0.4490 O   0  0  0  0  0  0  0  0  0  0  0  0
    1.3617    1.4715   -0.3976 C   0  0  0  0  0  0  0  0  0  0  0  0
    0.0849    0.9399   -0.4717 C   0  0  0  0  0  0  0  0  0  0  0  0
   -1.0537    1.8620   -0.8140 C   0  0  0  0  0  0  0  0  0  0  0  0
   -2.8342    3.3709    0.1564 C   0  0  0  0  0  0  0  0  0  0  0  0
   -3.2434    3.6420   -0.9446 O   0  0  0  0  0  0  0  0  0  0  0  0
   -3.3627    3.8614    1.2719 O   0  0  0  0  0  0  0  0  0  0  0  0
    0.8812   -2.2454    0.3816 H   0  0  0  0  0  0  0  0  0  0  0  0
   -1.9622   -0.7380   -1.1744 H   0  0  0  0  0  0  0  0  0  0  0  0
   -2.0913   -0.4929    0.5451 H   0  0  0  0  0  0  0  0  0  0  0  0
   -1.1236   -2.7894    0.9149 H   0  0  0  0  0  0  0  0  0  0  0  0
   -2.0336    1.6642    1.1189 H   0  0  0  0  0  0  0  0  0  0  0  0
   -0.9314    3.0070    1.0189 H   0  0  0  0  0  0  0  0  0  0  0  0
   -4.5293   -2.6567    1.3425 H   0  0  0  0  0  0  0  0  0  0  0  0
   -0.9881   -4.2095   -0.9531 H   0  0  0  0  0  0  0  0  0  0  0  0
   -1.4353   -3.0349   -1.9799 H   0  0  0  0  0  0  0  0  0  0  0  0
    1.5098    2.5202   -0.6209 H   0  0  0  0  0  0  0  0  0  0  0  0
   -1.8111    1.3437   -1.4029 H   0  0  0  0  0  0  0  0  0  0  0  0
   -0.6786    2.6721   -1.4407 H   0  0  0  0  0  0  0  0  0  0  0  0
   -4.1050    4.4467    1.0594 H   0  0  0  0  0  0  0  0  0  0  0  0
   -3.7231   -3.5008   -0.6780 O   0  0  0  0  0  0  0  0  0  0  0  0
  1  4  1  0
  1 13  1  0
  1 14  2  0
  2  3  2  0
  2 11  1  0
  3  4  1  0
  3 12  1  0
  4 15  2  0
  5  6  1  0
  5 11  1  0
  6  8  1  0
  6 10  1  0
  7 17  1  0
  7 18  1  0
 34  8  2  0
  8  9  1  0
 11 16  2  0
 15 16  1  0
 16 17  1  0
 18 19  2  0
 18 20  1  0
  2 21  1  0
  5 22  1  0
  5 23  1  0
  6 24  1  1
  7 25  1  0
  7 26  1  0
  9 27  1  0
 10 28  1  0
 10 29  1  0
 15 30  1  0
 17 31  1  0
 17 32  1  0
 20 33  1  0
M  CHG  2   1   1  13  -1
M  END
