
     RDKit          3D

 13 12  0  0  0  0  0  0  0  0999 V2000
    1.7973    0.8033    0.0856 N   0  0  0  0  0  0  0  0  0  0  0  0
    0.3651    0.6874   -0.0239 C   0  0  1  0  0  0  0  0  0  0  0  0
   -0.1226    0.0764   -1.3333 C   0  0  0  0  0  0  0  0  0  0  0  0
    0.5304   -0.0933   -2.3652 O   0  0  0  0  0  0  0  0  0  0  0  0
   -1.4223   -0.3137   -1.3318 O   0  0  0  0  0  0  0  0  0  0  0  0
   -1.1984    0.5253    1.7947 O   0  0  0  0  0  0  0  0  0  0  0  0
    0.1331   -1.2368    1.5239 O   0  0  0  0  0  0  0  0  0  0  0  0
   -0.2009   -0.1172    1.1362 C   0  0  0  0  0  0  0  0  0  0  0  0
    2.1779    1.2185   -0.7430 H   0  0  0  0  0  0  0  0  0  0  0  0
    2.2253   -0.0880    0.2482 H   0  0  0  0  0  0  0  0  0  0  0  0
   -0.0751    1.7338    0.0170 H   0  0  0  0  0  0  0  0  0  0  0  0
   -1.6538   -0.6906   -2.1985 H   0  0  0  0  0  0  0  0  0  0  0  0
   -1.5210   -0.0332    2.5232 H   0  0  0  0  0  0  0  0  0  0  0  0
  1  2  1  0
  1  9  1  0
  1 10  1  0
  2  3  1  0
  2  8  1  0
  2 11  1  1
  3  4  2  0
  3  5  1  0
  5 12  1  0
  6  8  1  0
  6 13  1  0
  7  8  2  0
M  END
