
     RDKit          3D

 47 50  0  0  0  0  0  0  0  0999 V2000
   -0.6996   -1.0932   -0.3796 C   0  0  0  0  0  0  0  0  0  0  0  0
    0.0287   -0.2441   -1.2169 C   0  0  0  0  0  0  0  0  0  0  0  0
   -0.0247   -2.1414    0.2489 C   0  0  0  0  0  0  0  0  0  0  0  0
   -2.1322   -0.9173   -0.1687 C   0  0  0  0  0  0  0  0  0  0  0  0
   -3.0640   -1.8301    0.2637 C   0  0  0  0  0  0  0  0  0  0  0  0
   -4.3227   -1.1682    0.2839 C   0  0  0  0  0  0  0  0  0  0  0  0
   -4.0941    0.1563   -0.1515 C   0  0  0  0  0  0  0  0  0  0  0  0
    4.2948   -0.8216   -0.5836 C   0  0  0  0  0  0  0  0  0  0  0  0
    5.5686   -0.9548   -1.1303 C   0  0  0  0  0  0  0  0  0  0  0  0
    6.5796   -0.1030   -0.7305 C   0  0  0  0  0  0  0  0  0  0  0  0
    5.0693    1.0143    0.7485 C   0  0  0  0  0  0  0  0  0  0  0  0
    8.4543    1.9376   -0.1771 N   0  0  0  0  0  0  0  0  0  0  0  0
   -5.6268   -1.5479    0.6225 C   0  0  0  0  0  0  0  0  0  0  0  0
   -6.6405   -0.6178    0.5335 C   0  0  0  0  0  0  0  0  0  0  0  0
   -6.3956    0.7017    0.0985 C   0  0  0  0  0  0  0  0  0  0  0  0
   -5.1120    1.0962   -0.2486 C   0  0  0  0  0  0  0  0  0  0  0  0
   -7.5097    1.6836   -0.0132 C   0  0  0  0  0  0  0  0  0  0  0  0
    1.3858   -0.4301   -1.4174 C   0  0  0  0  0  0  0  0  0  0  0  0
    2.0335   -1.4781   -0.7786 C   0  0  0  0  0  0  0  0  0  0  0  0
    1.3321   -2.3354    0.0554 C   0  0  0  0  0  0  0  0  0  0  0  0
   -2.7630    0.2734   -0.4217 N   0  0  0  0  0  0  0  0  0  0  0  0
    3.3631   -1.7207   -1.0010 O   0  0  0  0  0  0  0  0  0  0  0  0
    6.3507    0.8934    0.2186 C   0  0  0  0  0  0  0  0  0  0  0  0
    4.0420    0.1666    0.3588 C   0  0  0  0  0  0  0  0  0  0  0  0
    7.4639    1.7947    0.6187 C   0  0  0  0  0  0  0  0  0  0  0  0
    7.2964    2.4402    1.8106 N   0  0  0  0  0  0  0  0  0  0  0  0
   -7.5875    2.6019   -0.9009 N   0  0  0  0  0  0  0  0  0  0  0  0
   -8.5126    1.5247    0.8969 N   0  0  0  0  0  0  0  0  0  0  0  0
   -0.4589    0.5644   -1.7461 H   0  0  0  0  0  0  0  0  0  0  0  0
   -0.5595   -2.8076    0.9133 H   0  0  0  0  0  0  0  0  0  0  0  0
   -2.8732   -2.8628    0.5100 H   0  0  0  0  0  0  0  0  0  0  0  0
    5.7604   -1.7287   -1.8628 H   0  0  0  0  0  0  0  0  0  0  0  0
    7.5673   -0.2107   -1.1577 H   0  0  0  0  0  0  0  0  0  0  0  0
    4.8409    1.7886    1.4698 H   0  0  0  0  0  0  0  0  0  0  0  0
    9.1624    2.5457    0.2253 H   0  0  0  0  0  0  0  0  0  0  0  0
   -5.8417   -2.5579    0.9474 H   0  0  0  0  0  0  0  0  0  0  0  0
   -7.6505   -0.9157    0.7821 H   0  0  0  0  0  0  0  0  0  0  0  0
   -4.9013    2.1106   -0.5658 H   0  0  0  0  0  0  0  0  0  0  0  0
    1.9307    0.2321   -2.0785 H   0  0  0  0  0  0  0  0  0  0  0  0
    1.8445   -3.1496    0.5510 H   0  0  0  0  0  0  0  0  0  0  0  0
   -2.3066    1.1336   -0.6768 H   0  0  0  0  0  0  0  0  0  0  0  0
    3.0605    0.2901    0.7967 H   0  0  0  0  0  0  0  0  0  0  0  0
    6.7396    1.9998    2.5241 H   0  0  0  0  0  0  0  0  0  0  0  0
    8.0863    2.9484    2.1751 H   0  0  0  0  0  0  0  0  0  0  0  0
   -6.8283    2.5191   -1.5666 H   0  0  0  0  0  0  0  0  0  0  0  0
   -8.2852    1.1386    1.7977 H   0  0  0  0  0  0  0  0  0  0  0  0
   -9.2109    2.2507    0.9202 H   0  0  0  0  0  0  0  0  0  0  0  0
 27 17  2  0
 17 28  1  0
 17 15  1  0
 15 14  2  0
 15 16  1  0
 14 13  1  0
 16  7  2  0
 13  6  2  0
  7  6  1  0
  7 21  1  0
  6  5  1  0
 21  4  1  0
  5  4  2  0
  4  1  1  0
  1  3  1  0
  1  2  2  0
  3 20  2  0
  2 18  1  0
 20 19  1  0
 18 19  2  0
 19 22  1  0
 22  8  1  0
  8  9  2  0
  8 24  1  0
  9 10  1  0
 24 11  2  0
 10 23  2  0
 11 23  1  0
 23 25  1  0
 25 12  2  0
 25 26  1  0
  2 29  1  0
  3 30  1  0
  5 31  1  0
  9 32  1  0
 10 33  1  0
 11 34  1  0
 12 35  1  0
 13 36  1  0
 14 37  1  0
 16 38  1  0
 18 39  1  0
 20 40  1  0
 21 41  1  0
 24 42  1  0
 26 43  1  0
 26 44  1  0
 27 45  1  0
 28 46  1  0
 28 47  1  0
M  END
