
     RDKit          3D

 33 34  0  0  0  0  0  0  0  0999 V2000
    2.3922    1.7587    0.1354 C   0  0  0  0  0  0  0  0  0  0  0  0
   -0.3625   -1.0346   -1.4587 O   0  0  0  0  0  0  0  0  0  0  0  0
    1.2919    2.8380    0.0499 C   0  0  0  0  0  0  0  0  0  0  0  0
    0.0288    2.1134   -0.4240 C   0  0  0  0  0  0  0  0  0  0  0  0
    0.2342    0.6758    0.0817 C   0  0  1  0  0  0  0  0  0  0  0  0
   -3.9351    0.4093    1.3378 C   0  0  0  0  0  0  0  0  0  0  0  0
   -4.8471   -0.3242    0.5921 C   0  0  0  0  0  0  0  0  0  0  0  0
   -4.4166   -1.0391   -0.5198 C   0  0  0  0  0  0  0  0  0  0  0  0
   -3.0806   -1.0200   -0.8817 C   0  0  0  0  0  0  0  0  0  0  0  0
   -2.1537   -0.2815   -0.1416 C   0  0  0  0  0  0  0  0  0  0  0  0
   -2.5971    0.4326    0.9718 C   0  0  0  0  0  0  0  0  0  0  0  0
   -0.7245   -0.2887   -0.5712 C   0  0  0  0  0  0  0  0  0  0  0  0
    2.2533   -0.7705    0.5743 C   0  0  0  0  0  0  0  0  0  0  0  0
    3.6915   -1.0972    0.2843 C   0  0  0  0  0  0  0  0  0  0  0  0
    1.7146    0.4175   -0.2044 C   0  0  2  0  0  0  0  0  0  0  0  0
    4.3401   -0.6503   -0.6289 O   0  0  0  0  0  0  0  0  0  0  0  0
    4.1794   -1.9784    1.1535 O   0  0  0  0  0  0  0  0  0  0  0  0
    3.2195    1.9597   -0.5435 H   0  0  0  0  0  0  0  0  0  0  0  0
    2.8155    1.7270    1.1425 H   0  0  0  0  0  0  0  0  0  0  0  0
    1.1171    3.2787    1.0325 H   0  0  0  0  0  0  0  0  0  0  0  0
    1.5600    3.6564   -0.6187 H   0  0  0  0  0  0  0  0  0  0  0  0
   -0.8888    2.5728   -0.0548 H   0  0  0  0  0  0  0  0  0  0  0  0
   -0.0278    2.1090   -1.5161 H   0  0  0  0  0  0  0  0  0  0  0  0
    0.0801    0.6674    1.1668 H   0  0  0  0  0  0  0  0  0  0  0  0
   -5.8913   -0.3401    0.8761 H   0  0  0  0  0  0  0  0  0  0  0  0
   -5.1242   -1.6129   -1.1033 H   0  0  0  0  0  0  0  0  0  0  0  0
   -2.7534   -1.5770   -1.7496 H   0  0  0  0  0  0  0  0  0  0  0  0
   -1.9064    1.0099    1.5711 H   0  0  0  0  0  0  0  0  0  0  0  0
    1.6748   -1.6736    0.3504 H   0  0  0  0  0  0  0  0  0  0  0  0
    2.1370   -0.6061    1.6500 H   0  0  0  0  0  0  0  0  0  0  0  0
    1.8264    0.2247   -1.2746 H   0  0  0  0  0  0  0  0  0  0  0  0
    5.0947   -2.1974    0.9241 H   0  0  0  0  0  0  0  0  0  0  0  0
   -4.2639    0.9644    2.2062 H   0  0  0  0  0  0  0  0  0  0  0  0
 16 14  2  0
  2 12  2  0
 11  6  2  0
 11 10  1  0
 14 13  1  0
 14 17  1  0
 12 10  1  0
 12  5  1  0
 15 13  1  0
 15  5  1  0
 15  1  1  0
  6  7  1  0
 10  9  2  0
  5  4  1  0
  1  3  1  0
  4  3  1  0
  7  8  2  0
  9  8  1  0
  1 18  1  0
  1 19  1  0
  3 20  1  0
  3 21  1  0
  4 22  1  0
  4 23  1  0
  5 24  1  1
  6 33  1  0
  7 25  1  0
  8 26  1  0
  9 27  1  0
 11 28  1  0
 13 29  1  0
 13 30  1  0
 15 31  1  6
 17 32  1  0
M  END
