
     RDKit          3D

 24 25  0  0  0  0  0  0  0  0999 V2000
    4.0180    1.8067   -1.4689 O   0  0  0  0  0  0  0  0  0  0  0  0
    3.8358    1.5402   -0.3080 C   0  0  0  0  0  0  0  0  0  0  0  0
    4.4517    2.1249    0.6968 O   0  0  0  0  0  0  0  0  0  0  0  0
    2.8510    0.4744    0.1236 C   0  0  0  0  0  0  0  0  0  0  0  0
    2.4063    0.3236    1.6624 S   0  0  0  0  0  0  0  0  0  0  0  0
    2.3493   -0.3779   -1.0061 C   0  0  0  0  0  0  0  0  0  0  0  0
    1.3127   -1.3747   -0.6371 C   0  0  0  0  0  0  0  0  0  0  0  0
   -0.0589   -1.1127   -0.3292 C   0  0  0  0  0  0  0  0  0  0  0  0
   -0.8220    0.0571   -0.2723 C   0  0  0  0  0  0  0  0  0  0  0  0
   -2.1548   -0.0594    0.0622 C   0  0  0  0  0  0  0  0  0  0  0  0
   -3.2238    1.5036    0.1494 Br  0  0  0  0  0  0  0  0  0  0  0  0
   -2.7560   -1.2949    0.3469 C   0  0  0  0  0  0  0  0  0  0  0  0
   -2.0113   -2.4568    0.2965 C   0  0  0  0  0  0  0  0  0  0  0  0
   -0.6642   -2.3547   -0.0400 C   0  0  0  0  0  0  0  0  0  0  0  0
    0.2965   -3.3129   -0.1649 N   0  0  0  0  0  0  0  0  0  0  0  0
    1.4746   -2.7259   -0.5242 C   0  0  0  0  0  0  0  0  0  0  0  0
    5.0603    2.8000    0.3594 H   0  0  0  0  0  0  0  0  0  0  0  0
    1.9815    0.2907   -1.7922 H   0  0  0  0  0  0  0  0  0  0  0  0
    3.2176   -0.8753   -1.4524 H   0  0  0  0  0  0  0  0  0  0  0  0
   -0.3768    1.0204   -0.4873 H   0  0  0  0  0  0  0  0  0  0  0  0
   -3.8046   -1.3475    0.6064 H   0  0  0  0  0  0  0  0  0  0  0  0
   -2.4707   -3.4118    0.5159 H   0  0  0  0  0  0  0  0  0  0  0  0
    0.1596   -4.3020   -0.0425 H   0  0  0  0  0  0  0  0  0  0  0  0
    2.3602   -3.3224   -0.6786 H   0  0  0  0  0  0  0  0  0  0  0  0
 11 10  1  0
 10  9  1  0
 10 12  2  0
  9  8  2  0
 12 13  1  0
  8 14  1  0
  8  7  1  0
 13 14  2  0
  6  7  1  0
  6  4  1  0
 14 15  1  0
  7 16  2  0
  5  4  2  0
  4  2  1  0
 15 16  1  0
  2  1  2  0
  2  3  1  0
  3 17  1  0
  6 18  1  0
  6 19  1  0
  9 20  1  0
 12 21  1  0
 13 22  1  0
 15 23  1  0
 16 24  1  0
M  END
