
     RDKit          3D

 87 90  0  0  0  0  0  0  0  0999 V2000
   -5.2830   -0.6160    0.4700 C   0  0  2  0  0  0  0  0  0  0  0  0
   -5.7090   -2.0840    0.5380 C   0  0  1  0  0  0  0  0  0  0  0  0
   -7.2070   -2.1400    0.8630 C   0  0  2  0  0  0  0  0  0  0  0  0
   -7.9830   -1.5780   -0.3300 C   0  0  1  0  0  0  0  0  0  0  0  0
   -7.4010   -0.2610   -0.7510 C   0  0  0  0  0  0  0  0  0  0  0  0
   -8.2380    0.6330   -1.6300 C   0  0  0  0  0  0  0  0  0  0  0  0
   -6.2250    0.1560   -0.4070 C   0  0  0  0  0  0  0  0  0  0  0  0
   -5.4670   -2.7130   -0.7230 O   0  0  0  0  0  0  0  0  0  0  0  0
   -7.4760   -1.3520    2.0250 O   0  0  0  0  0  0  0  0  0  0  0  0
   -7.9070   -2.5000   -1.4200 O   0  0  0  0  0  0  0  0  0  0  0  0
   -7.5140    1.8310   -1.9180 O   0  0  0  0  0  0  0  0  0  0  0  0
   -0.8660    2.2320    0.8090 C   0  0  2  0  0  0  0  0  0  0  0  0
   -1.7920    1.8500    1.9660 C   0  0  1  0  0  0  0  0  0  0  0  0
   -2.5210    0.5480    1.6180 C   0  0  2  0  0  0  0  0  0  0  0  0
   -3.2810    0.7370    0.3030 C   0  0  1  0  0  0  0  0  0  0  0  0
   -2.2970    1.1620   -0.7900 C   0  0  1  0  0  0  0  0  0  0  0  0
   -3.0580    1.4110   -2.0940 C   0  0  0  0  0  0  0  0  0  0  0  0
   -3.9230   -0.5280   -0.0800 N   0  0  0  0  0  0  0  0  0  0  0  0
   -1.0210    1.6630    3.1540 O   0  0  0  0  0  0  0  0  0  0  0  0
   -3.4420    0.2220    2.6610 O   0  0  0  0  0  0  0  0  0  0  0  0
   -1.6320    2.3620   -0.3900 O   0  0  0  0  0  0  0  0  0  0  0  0
    3.9930    1.3850   -0.9270 C   0  0  2  0  0  0  0  0  0  0  0  0
    3.4460    2.6800   -0.3200 C   0  0  1  0  0  0  0  0  0  0  0  0
    2.2600    2.3480    0.5900 C   0  0  2  0  0  0  0  0  0  0  0  0
    1.2020    1.5940   -0.2220 C   0  0  1  0  0  0  0  0  0  0  0  0
    1.8360    0.3410   -0.8320 C   0  0  1  0  0  0  0  0  0  0  0  0
    0.8010   -0.3850   -1.6940 C   0  0  0  0  0  0  0  0  0  0  0  0
    4.4700    3.3190    0.4440 O   0  0  0  0  0  0  0  0  0  0  0  0
    1.6970    3.5570    1.1030 O   0  0  0  0  0  0  0  0  0  0  0  0
    0.1230    1.2150    0.6350 O   0  0  0  0  0  0  0  0  0  0  0  0
    2.9500    0.7190   -1.6420 O   0  0  0  0  0  0  0  0  0  0  0  0
    1.3620   -1.6050   -2.1850 O   0  0  0  0  0  0  0  0  0  0  0  0
    7.4070   -2.4360    0.1070 C   0  0  1  0  0  0  0  0  0  0  0  0
    7.5530   -1.3320   -0.9430 C   0  0  1  0  0  0  0  0  0  0  0  0
    6.7100   -0.1230   -0.5230 C   0  0  2  0  0  0  0  0  0  0  0  0
    5.2550   -0.5670   -0.3450 C   0  0  1  0  0  0  0  0  0  0  0  0
    5.1980   -1.7010    0.6820 C   0  0  1  0  0  0  0  0  0  0  0  0
    3.7550   -2.1910    0.8220 C   0  0  0  0  0  0  0  0  0  0  0  0
    7.9100   -1.9710    1.3610 O   0  0  0  0  0  0  0  0  0  0  0  0
    8.9250   -0.9450   -1.0410 O   0  0  0  0  0  0  0  0  0  0  0  0
    6.7830    0.8840   -1.5330 O   0  0  0  0  0  0  0  0  0  0  0  0
    4.4730    0.5360    0.1170 O   0  0  0  0  0  0  0  0  0  0  0  0
    6.0270   -2.7800    0.2460 O   0  0  0  0  0  0  0  0  0  0  0  0
    3.6850   -3.1810    1.8490 O   0  0  0  0  0  0  0  0  0  0  0  0
   -5.2930   -0.1900    1.4740 H   0  0  0  0  0  0  0  0  0  0  0  0
   -5.1450   -2.5930    1.3190 H   0  0  0  0  0  0  0  0  0  0  0  0
   -7.5050   -3.1730    1.0410 H   0  0  0  0  0  0  0  0  0  0  0  0
   -9.0260   -1.4390   -0.0490 H   0  0  0  0  0  0  0  0  0  0  0  0
   -8.4690    0.1150   -2.5600 H   0  0  0  0  0  0  0  0  0  0  0  0
   -9.1650    0.8840   -1.1140 H   0  0  0  0  0  0  0  0  0  0  0  0
   -5.9020    1.1190   -0.7730 H   0  0  0  0  0  0  0  0  0  0  0  0
   -5.7150   -3.6470   -0.7500 H   0  0  0  0  0  0  0  0  0  0  0  0
   -8.4060   -1.3430    2.2870 H   0  0  0  0  0  0  0  0  0  0  0  0
   -8.3770   -2.2100   -2.2130 H   0  0  0  0  0  0  0  0  0  0  0  0
   -7.9930    2.4540   -2.4810 H   0  0  0  0  0  0  0  0  0  0  0  0
   -0.3770    3.1800    1.0330 H   0  0  0  0  0  0  0  0  0  0  0  0
   -2.5220    2.6440    2.1260 H   0  0  0  0  0  0  0  0  0  0  0  0
   -1.7950   -0.2580    1.5070 H   0  0  0  0  0  0  0  0  0  0  0  0
   -4.0410    1.5080    0.4280 H   0  0  0  0  0  0  0  0  0  0  0  0
   -1.5620    0.3720   -0.9440 H   0  0  0  0  0  0  0  0  0  0  0  0
   -3.8520    2.1370   -1.9180 H   0  0  0  0  0  0  0  0  0  0  0  0
   -2.3720    1.7990   -2.8470 H   0  0  0  0  0  0  0  0  0  0  0  0
   -3.4930    0.4750   -2.4450 H   0  0  0  0  0  0  0  0  0  0  0  0
   -3.3650   -1.3180    0.2080 H   0  0  0  0  0  0  0  0  0  0  0  0
   -0.5280    2.4470    3.4310 H   0  0  0  0  0  0  0  0  0  0  0  0
   -3.0290    0.0950    3.5260 H   0  0  0  0  0  0  0  0  0  0  0  0
    4.8090    1.6200   -1.6090 H   0  0  0  0  0  0  0  0  0  0  0  0
    3.1170    3.3460   -1.1180 H   0  0  0  0  0  0  0  0  0  0  0  0
    2.5990    1.7220    1.4170 H   0  0  0  0  0  0  0  0  0  0  0  0
    0.8280    2.2380   -1.0180 H   0  0  0  0  0  0  0  0  0  0  0  0
    2.1730   -0.3210   -0.0340 H   0  0  0  0  0  0  0  0  0  0  0  0
   -0.0810   -0.6070   -1.0930 H   0  0  0  0  0  0  0  0  0  0  0  0
    0.5190    0.2490   -2.5340 H   0  0  0  0  0  0  0  0  0  0  0  0
    5.2550    3.5550   -0.0700 H   0  0  0  0  0  0  0  0  0  0  0  0
    2.3150    4.0890    1.6230 H   0  0  0  0  0  0  0  0  0  0  0  0
    0.7600   -2.1190   -2.7410 H   0  0  0  0  0  0  0  0  0  0  0  0
    7.9710   -3.3140   -0.2070 H   0  0  0  0  0  0  0  0  0  0  0  0
    7.2070   -1.6990   -1.9090 H   0  0  0  0  0  0  0  0  0  0  0  0
    7.0880    0.2750    0.4190 H   0  0  0  0  0  0  0  0  0  0  0  0
    4.8620   -0.9190   -1.2990 H   0  0  0  0  0  0  0  0  0  0  0  0
    5.5520   -1.3370    1.6460 H   0  0  0  0  0  0  0  0  0  0  0  0
    3.1100   -1.3510    1.0820 H   0  0  0  0  0  0  0  0  0  0  0  0
    3.4250   -2.6230   -0.1230 H   0  0  0  0  0  0  0  0  0  0  0  0
    7.8490   -2.6200    2.0750 H   0  0  0  0  0  0  0  0  0  0  0  0
    9.5190   -1.6640   -1.2990 H   0  0  0  0  0  0  0  0  0  0  0  0
    7.6780    1.2070   -1.7040 H   0  0  0  0  0  0  0  0  0  0  0  0
    2.7970   -3.5370    1.9920 H   0  0  0  0  0  0  0  0  0  0  0  0
  1  2  1  0
  1  7  1  0
  1 18  1  0
  1 45  1  1
  2  3  1  0
  2  8  1  0
  2 46  1  1
  3  4  1  0
  3  9  1  0
  3 47  1  1
  4  5  1  0
  4 10  1  0
  4 48  1  1
  5  6  1  0
  5  7  2  0
  6 11  1  0
  6 49  1  0
  6 50  1  0
  7 51  1  0
  8 52  1  0
  9 53  1  0
 10 54  1  0
 11 55  1  0
 12 13  1  0
 12 21  1  0
 12 30  1  0
 12 56  1  1
 13 14  1  0
 13 19  1  0
 13 57  1  1
 14 15  1  0
 14 20  1  0
 14 58  1  6
 15 16  1  0
 15 18  1  0
 15 59  1  1
 16 17  1  0
 16 21  1  0
 16 60  1  6
 17 61  1  0
 17 62  1  0
 17 63  1  0
 18 64  1  0
 19 65  1  0
 20 66  1  0
 22 23  1  0
 22 31  1  0
 22 42  1  0
 22 67  1  6
 23 24  1  0
 23 28  1  0
 23 68  1  6
 24 25  1  0
 24 29  1  0
 24 69  1  1
 25 26  1  0
 25 30  1  0
 25 70  1  6
 26 27  1  0
 26 31  1  0
 26 71  1  1
 27 32  1  0
 27 72  1  0
 27 73  1  0
 28 74  1  0
 29 75  1  0
 32 76  1  0
 33 34  1  0
 33 39  1  0
 33 43  1  0
 33 77  1  6
 34 35  1  0
 34 40  1  0
 34 78  1  6
 35 36  1  0
 35 41  1  0
 35 79  1  1
 36 37  1  0
 36 42  1  0
 36 80  1  6
 37 38  1  0
 37 43  1  0
 37 81  1  1
 38 44  1  0
 38 82  1  0
 38 83  1  0
 39 84  1  0
 40 85  1  0
 41 86  1  0
 44 87  1  0
M  END
