
     RDKit          3D

 61 65  0  0  0  0  0  0  0  0999 V2000
    0.0422   -4.8727    0.3240 C   0  0  0  0  0  0  0  0  0  0  0  0
   -0.2441   -3.7903   -0.3859 N   0  0  0  0  0  0  0  0  0  0  0  0
    0.1779   -2.6026    0.0361 C   0  0  0  0  0  0  0  0  0  0  0  0
    0.9551   -2.4455    1.1960 C   0  0  0  0  0  0  0  0  0  0  0  0
    1.2097   -3.5960    1.9472 C   0  0  0  0  0  0  0  0  0  0  0  0
    0.7561   -4.8261    1.5117 C   0  0  0  0  0  0  0  0  0  0  0  0
   -0.2316   -1.4168   -0.8007 C   0  0  2  0  0  0  0  0  0  0  0  0
    1.0083   -0.7552   -1.3429 C   0  0  0  0  0  0  0  0  0  0  0  0
    1.9462   -0.1322   -0.5127 C   0  0  0  0  0  0  0  0  0  0  0  0
    1.8359   -0.0975    0.9627 C   0  0  0  0  0  0  0  0  0  0  0  0
    1.4262   -1.1599    1.6894 C   0  0  0  0  0  0  0  0  0  0  0  0
    1.2337   -0.7720   -2.7185 C   0  0  0  0  0  0  0  0  0  0  0  0
    2.3471   -0.1815   -3.2875 C   0  0  0  0  0  0  0  0  0  0  0  0
    3.2642    0.4358   -2.4506 C   0  0  0  0  0  0  0  0  0  0  0  0
    3.0749    0.4654   -1.0846 C   0  0  0  0  0  0  0  0  0  0  0  0
   -1.2084   -0.4503   -0.1020 C   0  0  1  0  0  0  0  0  0  0  0  0
   -1.5876    0.6994   -1.0321 C   0  0  0  0  0  0  0  0  0  0  0  0
   -2.5966    1.6294   -0.3751 C   0  0  0  0  0  0  0  0  0  0  0  0
   -3.7730    0.9191    0.1192 N   0  0  0  0  0  0  0  0  0  0  0  0
   -3.4679   -0.2199    0.9828 C   0  0  0  0  0  0  0  0  0  0  0  0
   -2.4691   -1.1813    0.3526 C   0  0  0  0  0  0  0  0  0  0  0  0
    4.6766    1.1788   -3.1306 Cl  0  0  0  0  0  0  0  0  0  0  0  0
   -5.1898    0.9618   -0.7047 S   0  0  1  0  0  0  0  0  0  0  0  0
    2.3188    1.0716    1.5451 N   0  0  0  0  0  0  0  0  0  0  0  0
    2.6070    1.0659    2.9657 C   0  0  0  0  0  0  0  0  0  0  0  0
    1.6553    2.3043    1.1250 C   0  0  0  0  0  0  0  0  0  0  0  0
    3.4204    2.2940    3.3352 C   0  0  0  0  0  0  0  0  0  0  0  0
    2.4752    3.5143    1.5267 C   0  0  0  0  0  0  0  0  0  0  0  0
    2.7007    3.4936    2.9578 N   0  0  0  0  0  0  0  0  0  0  0  0
   -5.3004    2.2827   -1.3080 O   0  0  0  0  0  0  0  0  0  0  0  0
   -5.1013   -0.2289   -2.0263 C   0  0  0  0  0  0  0  0  0  0  0  0
   -6.2341    0.5152    0.2072 O   0  0  0  0  0  0  0  0  0  0  0  0
   -0.3210   -5.8176   -0.0645 H   0  0  0  0  0  0  0  0  0  0  0  0
    1.7775   -3.5178    2.8668 H   0  0  0  0  0  0  0  0  0  0  0  0
    0.9533   -5.7297    2.0719 H   0  0  0  0  0  0  0  0  0  0  0  0
   -0.7743   -1.8330   -1.6546 H   0  0  0  0  0  0  0  0  0  0  0  0
    1.4608   -1.0849    2.7698 H   0  0  0  0  0  0  0  0  0  0  0  0
    0.5099   -1.2547   -3.3635 H   0  0  0  0  0  0  0  0  0  0  0  0
    2.4946   -0.2002   -4.3586 H   0  0  0  0  0  0  0  0  0  0  0  0
    3.8012    0.9474   -0.4438 H   0  0  0  0  0  0  0  0  0  0  0  0
   -0.7340   -0.0215    0.7860 H   0  0  0  0  0  0  0  0  0  0  0  0
   -1.9945    0.3067   -1.9713 H   0  0  0  0  0  0  0  0  0  0  0  0
   -0.7065    1.2874   -1.3014 H   0  0  0  0  0  0  0  0  0  0  0  0
   -2.8990    2.4230   -1.0544 H   0  0  0  0  0  0  0  0  0  0  0  0
   -2.1357    2.1184    0.4893 H   0  0  0  0  0  0  0  0  0  0  0  0
   -3.0520    0.1831    1.9113 H   0  0  0  0  0  0  0  0  0  0  0  0
   -4.3865   -0.7353    1.2562 H   0  0  0  0  0  0  0  0  0  0  0  0
   -2.9238   -1.7003   -0.4986 H   0  0  0  0  0  0  0  0  0  0  0  0
   -2.2302   -1.9487    1.0925 H   0  0  0  0  0  0  0  0  0  0  0  0
    1.6872    1.0410    3.5695 H   0  0  0  0  0  0  0  0  0  0  0  0
    3.1853    0.1734    3.2095 H   0  0  0  0  0  0  0  0  0  0  0  0
    1.5246    2.3064    0.0433 H   0  0  0  0  0  0  0  0  0  0  0  0
    0.6536    2.3734    1.5752 H   0  0  0  0  0  0  0  0  0  0  0  0
    3.5855    2.2919    4.4141 H   0  0  0  0  0  0  0  0  0  0  0  0
    4.4067    2.2175    2.8512 H   0  0  0  0  0  0  0  0  0  0  0  0
    1.9254    4.4175    1.2558 H   0  0  0  0  0  0  0  0  0  0  0  0
    3.4108    3.5120    0.9450 H   0  0  0  0  0  0  0  0  0  0  0  0
    3.2279    4.3113    3.2337 H   0  0  0  0  0  0  0  0  0  0  0  0
   -4.2757    0.0175   -2.6900 H   0  0  0  0  0  0  0  0  0  0  0  0
   -4.9655   -1.2247   -1.6106 H   0  0  0  0  0  0  0  0  0  0  0  0
   -6.0400   -0.1891   -2.5768 H   0  0  0  0  0  0  0  0  0  0  0  0
  1  2  2  0
  1  6  1  0
  1 33  1  0
  2  3  1  0
  3  4  2  0
  3  7  1  0
  4  5  1  0
  4 11  1  0
  5  6  2  0
  5 34  1  0
  6 35  1  0
  7  8  1  0
  7 16  1  0
  7 36  1  6
  8  9  2  0
  8 12  1  0
  9 10  1  0
  9 15  1  0
 10 11  2  0
 10 24  1  0
 11 37  1  0
 12 13  2  0
 12 38  1  0
 13 14  1  0
 13 39  1  0
 14 15  2  0
 14 22  1  0
 15 40  1  0
 16 17  1  0
 16 21  1  0
 16 41  1  1
 17 18  1  0
 17 42  1  0
 17 43  1  0
 18 19  1  0
 18 44  1  0
 18 45  1  0
 19 20  1  0
 19 23  1  0
 20 21  1  0
 20 46  1  0
 20 47  1  0
 21 48  1  0
 21 49  1  0
 23 30  2  0
 23 31  1  6
 23 32  2  0
 24 25  1  0
 24 26  1  0
 25 27  1  0
 25 50  1  0
 25 51  1  0
 26 28  1  0
 26 52  1  0
 26 53  1  0
 27 29  1  0
 27 54  1  0
 27 55  1  0
 28 29  1  0
 28 56  1  0
 28 57  1  0
 29 58  1  0
 31 59  1  0
 31 60  1  0
 31 61  1  0
M  END
