
     RDKit          3D

 30 32  0  0  0  0  0  0  0  0999 V2000
   -4.3855    1.7324   -0.2552 N   0  0  0  0  0  0  0  0  0  0  0  0
   -5.0548    0.6473    0.1837 C   0  0  0  0  0  0  0  0  0  0  0  0
   -4.5573   -0.5484    0.4784 N   0  0  0  0  0  0  0  0  0  0  0  0
   -3.2359   -0.6856    0.3163 C   0  0  0  0  0  0  0  0  0  0  0  0
   -2.4282    0.3698   -0.1422 C   0  0  0  0  0  0  0  0  0  0  0  0
   -3.0828    1.6126   -0.4217 C   0  0  0  0  0  0  0  0  0  0  0  0
   -2.6737   -1.8663    0.6176 N   0  0  0  0  0  0  0  0  0  0  0  0
   -1.3753   -2.0075    0.4431 C   0  0  0  0  0  0  0  0  0  0  0  0
   -0.5639   -0.9345   -0.0852 C   0  0  0  0  0  0  0  0  0  0  0  0
   -1.1154    0.2200   -0.3329 N   0  0  0  0  0  0  0  0  0  0  0  0
    0.8866   -1.0668   -0.3314 C   0  0  0  0  0  0  0  0  0  0  0  0
    1.4236   -2.1595   -1.0116 C   0  0  0  0  0  0  0  0  0  0  0  0
    2.7853   -2.2257   -1.2652 C   0  0  0  0  0  0  0  0  0  0  0  0
    3.6352   -1.2117   -0.8489 C   0  0  0  0  0  0  0  0  0  0  0  0
    3.0912   -0.1244   -0.1800 C   0  0  0  0  0  0  0  0  0  0  0  0
    1.7340   -0.0376    0.0793 C   0  0  0  0  0  0  0  0  0  0  0  0
   -2.3735    2.6510   -0.8547 N   0  0  0  0  0  0  0  0  0  0  0  0
   -6.3754    0.8199    0.3585 N   0  0  0  0  0  0  0  0  0  0  0  0
   -0.8273   -3.1913    0.7699 N   0  0  0  0  0  0  0  0  0  0  0  0
    4.2287    1.2707    0.3937 Br  0  0  0  0  0  0  0  0  0  0  0  0
    0.7817   -2.9540   -1.3697 H   0  0  0  0  0  0  0  0  0  0  0  0
    3.1922   -3.0736   -1.7993 H   0  0  0  0  0  0  0  0  0  0  0  0
    4.6962   -1.2747   -1.0485 H   0  0  0  0  0  0  0  0  0  0  0  0
    1.3219    0.8164    0.6003 H   0  0  0  0  0  0  0  0  0  0  0  0
   -1.3788    2.5733   -0.9769 H   0  0  0  0  0  0  0  0  0  0  0  0
   -2.8206    3.5299   -1.0498 H   0  0  0  0  0  0  0  0  0  0  0  0
   -6.8180    1.6548    0.0183 H   0  0  0  0  0  0  0  0  0  0  0  0
   -6.9565    0.0255    0.5597 H   0  0  0  0  0  0  0  0  0  0  0  0
   -1.4010   -3.8480    1.2731 H   0  0  0  0  0  0  0  0  0  0  0  0
    0.1656   -3.2818    0.8985 H   0  0  0  0  0  0  0  0  0  0  0  0
 20 15  1  0
 15 14  2  0
 15 16  1  0
 14 13  1  0
 16 11  2  0
 13 12  2  0
 11 12  1  0
 11  9  1  0
 19  8  1  0
  9  8  2  0
  9 10  1  0
  8  7  1  0
 10  5  2  0
  7  4  2  0
  5  4  1  0
  5  6  1  0
 17  6  1  0
  4  3  1  0
  6  1  2  0
  3  2  2  0
  1  2  1  0
  2 18  1  0
 12 21  1  0
 13 22  1  0
 14 23  1  0
 16 24  1  0
 17 25  1  0
 17 26  1  0
 18 27  1  0
 18 28  1  0
 19 29  1  0
 19 30  1  0
M  END
