
     RDKit          3D

 46 48  0  0  0  0  0  0  0  0999 V2000
   -1.4604    3.9731   -1.3028 C   0  0  0  0  0  0  0  0  0  0  0  0
   -0.8710    3.4067   -0.0344 C   0  0  0  0  0  0  0  0  0  0  0  0
   -0.5938    2.0187   -0.2660 O   0  0  0  0  0  0  0  0  0  0  0  0
   -0.0865    1.3139    0.7291 C   0  0  0  0  0  0  0  0  0  0  0  0
    0.1791    1.7588    1.8201 O   0  0  0  0  0  0  0  0  0  0  0  0
   -0.0067   -0.1243    0.3953 C   0  0  0  0  0  0  0  0  0  0  0  0
   -1.0668   -0.9145    0.0689 C   0  0  0  0  0  0  0  0  0  0  0  0
   -0.6805   -2.2010   -0.0912 O   0  0  0  0  0  0  0  0  0  0  0  0
    0.6536   -2.2525    0.1369 C   0  0  0  0  0  0  0  0  0  0  0  0
    1.1436   -0.9862    0.4494 C   0  0  0  0  0  0  0  0  0  0  0  0
    2.5150   -0.7889    0.6569 C   0  0  0  0  0  0  0  0  0  0  0  0
    3.3226   -1.9218    0.6009 C   0  0  0  0  0  0  0  0  0  0  0  0
    2.7954   -3.1935    0.3180 C   0  0  0  0  0  0  0  0  0  0  0  0
    1.4494   -3.3784    0.0656 C   0  0  0  0  0  0  0  0  0  0  0  0
    4.6485   -1.7641    0.8190 O   0  0  0  0  0  0  0  0  0  0  0  0
    3.0706    0.5913    0.8660 C   0  0  0  0  0  0  0  0  0  0  0  0
    2.5240    1.5294   -0.0988 N   0  0  0  0  0  0  0  0  0  0  0  0
    2.9000    2.8850    0.2366 C   0  0  0  0  0  0  0  0  0  0  0  0
    2.8959    1.2043   -1.4588 C   0  0  0  0  0  0  0  0  0  0  0  0
   -2.4851   -0.6352   -0.1224 C   0  0  0  0  0  0  0  0  0  0  0  0
   -3.2087   -1.3223   -1.1002 C   0  0  0  0  0  0  0  0  0  0  0  0
   -4.5518   -1.0441   -1.2994 C   0  0  0  0  0  0  0  0  0  0  0  0
   -5.1905   -0.0833   -0.5262 C   0  0  0  0  0  0  0  0  0  0  0  0
   -4.4805    0.5925    0.4577 C   0  0  0  0  0  0  0  0  0  0  0  0
   -3.1386    0.3154    0.6636 C   0  0  0  0  0  0  0  0  0  0  0  0
   -0.7580    3.9130   -2.1342 H   0  0  0  0  0  0  0  0  0  0  0  0
   -2.3774    3.4545   -1.5827 H   0  0  0  0  0  0  0  0  0  0  0  0
   -1.7045    5.0235   -1.1475 H   0  0  0  0  0  0  0  0  0  0  0  0
    0.0503    3.9258    0.2365 H   0  0  0  0  0  0  0  0  0  0  0  0
   -1.5706    3.5077    0.7989 H   0  0  0  0  0  0  0  0  0  0  0  0
    3.4618   -4.0475    0.2799 H   0  0  0  0  0  0  0  0  0  0  0  0
    1.0509   -4.3538   -0.1777 H   0  0  0  0  0  0  0  0  0  0  0  0
    5.1091   -2.5995    0.6876 H   0  0  0  0  0  0  0  0  0  0  0  0
    2.8010    0.9464    1.8653 H   0  0  0  0  0  0  0  0  0  0  0  0
    4.1692    0.5735    0.8322 H   0  0  0  0  0  0  0  0  0  0  0  0
    3.9893    3.0457    0.2225 H   0  0  0  0  0  0  0  0  0  0  0  0
    2.4532    3.5817   -0.4738 H   0  0  0  0  0  0  0  0  0  0  0  0
    2.5346    3.1397    1.2316 H   0  0  0  0  0  0  0  0  0  0  0  0
    2.5488    0.2062   -1.7241 H   0  0  0  0  0  0  0  0  0  0  0  0
    2.4262    1.9097   -2.1451 H   0  0  0  0  0  0  0  0  0  0  0  0
    3.9833    1.2408   -1.6284 H   0  0  0  0  0  0  0  0  0  0  0  0
   -2.7215   -2.0641   -1.7197 H   0  0  0  0  0  0  0  0  0  0  0  0
   -5.1007   -1.5765   -2.0648 H   0  0  0  0  0  0  0  0  0  0  0  0
   -6.2386    0.1335   -0.6855 H   0  0  0  0  0  0  0  0  0  0  0  0
   -4.9761    1.3283    1.0770 H   0  0  0  0  0  0  0  0  0  0  0  0
   -2.6132    0.8176    1.4655 H   0  0  0  0  0  0  0  0  0  0  0  0
  1  2  1  0
  2  3  1  0
  3  4  1  0
  5  4  2  0
  4  6  1  0
 23 24  2  0
 23 22  1  0
 24 25  1  0
 22 21  2  0
 25 20  2  0
 21 20  1  0
 20  7  1  0
  6  7  2  0
  6 10  1  0
 16 11  1  0
 16 17  1  0
  7  8  1  0
 10 11  2  0
 10  9  1  0
 19 17  1  0
 11 12  1  0
  8  9  1  0
  9 14  2  0
 17 18  1  0
 12 15  1  0
 12 13  2  0
 14 13  1  0
  1 26  1  0
  1 27  1  0
  1 28  1  0
  2 29  1  0
  2 30  1  0
 13 31  1  0
 14 32  1  0
 15 33  1  0
 16 34  1  0
 16 35  1  0
 18 36  1  0
 18 37  1  0
 18 38  1  0
 19 39  1  0
 19 40  1  0
 19 41  1  0
 21 42  1  0
 22 43  1  0
 23 44  1  0
 24 45  1  0
 25 46  1  0
M  END
