
     RDKit          3D

 42 43  0  0  0  0  0  0  0  0999 V2000
   -1.3036   -0.7053   -0.3450 C   0  0  0  0  0  0  0  0  0  0  0  0
   -4.5076    0.1498   -1.0907 C   0  0  0  0  0  0  0  0  0  0  0  0
   -6.1281    0.3853    0.6733 C   0  0  0  0  0  0  0  0  0  0  0  0
   -5.4411   -0.5654    1.4098 C   0  0  0  0  0  0  0  0  0  0  0  0
    4.1130   -1.0032    0.8406 C   0  0  0  0  0  0  0  0  0  0  0  0
    5.2593   -0.3987    1.3225 C   0  0  0  0  0  0  0  0  0  0  0  0
    7.8458    1.9312    0.2858 C   0  0  0  0  0  0  0  0  0  0  0  0
    5.9626    0.5098    0.5281 C   0  0  0  0  0  0  0  0  0  0  0  0
    5.4931    0.7964   -0.7500 C   0  0  0  0  0  0  0  0  0  0  0  0
    4.3356    0.1780   -1.2133 C   0  0  0  0  0  0  0  0  0  0  0  0
    3.6254   -0.7287   -0.4385 C   0  0  0  0  0  0  0  0  0  0  0  0
    2.3571   -1.3613   -0.9370 C   0  0  0  0  0  0  0  0  0  0  0  0
   -2.5423   -1.4092   -0.8932 C   0  0  0  0  0  0  0  0  0  0  0  0
   -3.8110   -0.8084   -0.3562 C   0  0  0  0  0  0  0  0  0  0  0  0
   -5.6571    0.7457   -0.5950 C   0  0  0  0  0  0  0  0  0  0  0  0
   -4.2922   -1.1587    0.8992 C   0  0  0  0  0  0  0  0  0  0  0  0
   -0.0930   -1.2939   -0.8814 N   0  0  0  0  0  0  0  0  0  0  0  0
   -6.2972    1.6630   -1.3534 O   0  0  0  0  0  0  0  0  0  0  0  0
   -1.3816    0.3752   -0.5467 H   0  0  0  0  0  0  0  0  0  0  0  0
   -1.2838   -0.8106    0.7443 H   0  0  0  0  0  0  0  0  0  0  0  0
   -4.1570    0.4382   -2.0758 H   0  0  0  0  0  0  0  0  0  0  0  0
   -5.8050   -0.8482    2.3913 H   0  0  0  0  0  0  0  0  0  0  0  0
    3.5896   -1.7105    1.4742 H   0  0  0  0  0  0  0  0  0  0  0  0
    5.6221   -0.6291    2.3168 H   0  0  0  0  0  0  0  0  0  0  0  0
    7.2873    2.8278    0.0038 H   0  0  0  0  0  0  0  0  0  0  0  0
    8.6965    2.2271    0.8949 H   0  0  0  0  0  0  0  0  0  0  0  0
    8.2153    1.4481   -0.6226 H   0  0  0  0  0  0  0  0  0  0  0  0
    6.0079    1.4905   -1.4006 H   0  0  0  0  0  0  0  0  0  0  0  0
    3.9891    0.4123   -2.2134 H   0  0  0  0  0  0  0  0  0  0  0  0
    2.3257   -1.3064   -2.0291 H   0  0  0  0  0  0  0  0  0  0  0  0
    2.3284   -2.4219   -0.6744 H   0  0  0  0  0  0  0  0  0  0  0  0
    1.1151   -0.7824    0.7225 H   0  0  0  0  0  0  0  0  0  0  0  0
    1.1688    0.4007   -0.5728 H   0  0  0  0  0  0  0  0  0  0  0  0
   -2.5370   -1.3464   -1.9852 H   0  0  0  0  0  0  0  0  0  0  0  0
   -2.4852   -2.4701   -0.6378 H   0  0  0  0  0  0  0  0  0  0  0  0
   -3.7737   -1.9029    1.4918 H   0  0  0  0  0  0  0  0  0  0  0  0
   -0.1034   -1.1964   -1.8909 H   0  0  0  0  0  0  0  0  0  0  0  0
   -7.5058    0.7071    1.9739 H   0  0  0  0  0  0  0  0  0  0  0  0
   -7.0840    1.9852   -0.8988 H   0  0  0  0  0  0  0  0  0  0  0  0
   -7.2558    1.0086    1.0938 O   0  0  0  0  0  0  0  0  0  0  0  0
    1.1148   -0.6805   -0.3676 C   0  0  0  0  0  0  0  0  0  0  0  0
    7.0719    1.0499    1.0736 O   0  0  0  0  0  0  0  0  0  0  0  0
  6  5  2  0
  6  8  1  0
  5 11  1  0
 42  8  1  0
 42  7  1  0
 12 11  1  0
 12 41  1  0
  8  9  2  0
 11 10  2  0
 41 17  1  0
  9 10  1  0
 17  1  1  0
  1 13  1  0
 13 14  1  0
 16 14  1  0
 16  4  2  0
 14  2  2  0
  4  3  1  0
  2 15  1  0
  3 15  2  0
  3 40  1  0
 15 18  1  0
  1 19  1  0
  1 20  1  0
  2 21  1  0
  4 22  1  0
  5 23  1  0
  6 24  1  0
  7 25  1  0
  7 26  1  0
  7 27  1  0
  9 28  1  0
 10 29  1  0
 12 30  1  0
 12 31  1  0
 41 32  1  0
 41 33  1  0
 13 34  1  0
 13 35  1  0
 16 36  1  0
 17 37  1  0
 40 38  1  0
 18 39  1  0
M  END
