
     RDKit          3D

 43 45  0  0  0  0  0  0  0  0999 V2000
    1.5713   11.1779    3.3196 C   0  0  0  0  0  0  0  0  0  0  0  0
    0.9327   12.2050    3.9431 C   0  0  0  0  0  0  0  0  0  0  0  0
   -0.2369   12.5903    3.2444 C   0  0  0  0  0  0  0  0  0  0  0  0
   -2.5133   11.4653   -1.0092 C   0  0  0  0  0  0  0  0  0  0  0  0
   -3.4275   10.2807   -0.7058 C   0  0  0  0  0  0  0  0  0  0  0  0
   -2.2481    8.5194    0.5341 C   0  0  0  0  0  0  0  0  0  0  0  0
   -1.5154    7.2187    0.4262 C   0  0  0  0  0  0  0  0  0  0  0  0
   -0.5443    6.9323    1.3842 C   0  0  0  0  0  0  0  0  0  0  0  0
    0.1550    5.7398    1.3452 C   0  0  0  0  0  0  0  0  0  0  0  0
   -1.7945    6.2784   -0.5601 C   0  0  0  0  0  0  0  0  0  0  0  0
    1.4391    3.3876   -0.7614 C   0  0  0  0  0  0  0  0  0  0  0  0
    2.1406    2.2385   -0.9005 C   0  0  0  0  0  0  0  0  0  0  0  0
    1.1296    1.4206    1.1292 C   0  0  0  0  0  0  0  0  0  0  0  0
   -0.4541   11.8638    2.1101 C   0  0  0  0  0  0  0  0  0  0  0  0
    0.7693   10.6656    1.8931 S   0  0  0  0  0  0  0  0  0  0  0  0
   -1.6007   12.0299    1.1893 C   0  0  0  0  0  0  0  0  0  0  0  0
   -2.6275   12.5680    1.5756 O   0  0  0  0  0  0  0  0  0  0  0  0
   -1.4264   11.5808   -0.0648 N   0  0  0  0  0  0  0  0  0  0  0  0
   -2.7069    9.0318   -0.6206 N   0  0  0  0  0  0  0  0  0  0  0  0
   -2.4063    9.0536    1.6228 O   0  0  0  0  0  0  0  0  0  0  0  0
   -0.1333    4.8117    0.3545 C   0  0  0  0  0  0  0  0  0  0  0  0
   -1.1113    5.0715   -0.5914 C   0  0  0  0  0  0  0  0  0  0  0  0
    0.5933    3.5857    0.2888 N   0  0  0  0  0  0  0  0  0  0  0  0
    1.9727    1.2329    0.0815 C   0  0  0  0  0  0  0  0  0  0  0  0
    0.3741    2.6341    1.2898 C   0  0  0  0  0  0  0  0  0  0  0  0
   -0.4121    2.8649    2.2004 O   0  0  0  0  0  0  0  0  0  0  0  0
    2.9986   10.3971    3.8285 Cl  0  0  0  0  0  0  0  0  0  0  0  0
    1.2786   12.6614    4.8584 H   0  0  0  0  0  0  0  0  0  0  0  0
   -0.8901   13.3872    3.5697 H   0  0  0  0  0  0  0  0  0  0  0  0
   -2.0708   11.3535   -1.9983 H   0  0  0  0  0  0  0  0  0  0  0  0
   -3.1047   12.3820   -1.0238 H   0  0  0  0  0  0  0  0  0  0  0  0
   -4.1742   10.1992   -1.4964 H   0  0  0  0  0  0  0  0  0  0  0  0
   -3.9601   10.4434    0.2288 H   0  0  0  0  0  0  0  0  0  0  0  0
   -0.3246    7.6551    2.1583 H   0  0  0  0  0  0  0  0  0  0  0  0
    0.9274    5.5396    2.0754 H   0  0  0  0  0  0  0  0  0  0  0  0
   -2.5663    6.4540   -1.2984 H   0  0  0  0  0  0  0  0  0  0  0  0
    2.8084    2.1108   -1.7384 H   0  0  0  0  0  0  0  0  0  0  0  0
    0.9906    0.6558    1.8811 H   0  0  0  0  0  0  0  0  0  0  0  0
   -0.5282   11.2314   -0.3549 H   0  0  0  0  0  0  0  0  0  0  0  0
   -2.4304    8.6020   -1.4886 H   0  0  0  0  0  0  0  0  0  0  0  0
   -1.3452    4.3332   -1.3475 H   0  0  0  0  0  0  0  0  0  0  0  0
    2.5223    0.3043   -0.0050 H   0  0  0  0  0  0  0  0  0  0  0  0
    1.5183    4.2058   -1.4630 H   0  0  0  0  0  0  0  0  0  0  0  0
  1  2  2  0
  1 27  1  0
  1 15  1  0
  2  3  1  0
  2 28  1  0
  3 14  2  0
  3 29  1  0
  4  5  1  0
  4 18  1  0
  4 30  1  0
  4 31  1  0
  5 19  1  0
  5 32  1  0
  5 33  1  0
  6  7  1  0
  6 20  2  0
  6 19  1  0
  7  8  2  0
  7 10  1  0
  8  9  1  0
  8 34  1  0
  9 21  2  0
  9 35  1  0
 10 22  2  0
 10 36  1  0
 11 12  2  0
 11 23  1  0
 11 43  1  0
 12 24  1  0
 12 37  1  0
 13 24  2  0
 13 25  1  0
 13 38  1  0
 14 16  1  0
 14 15  1  0
 16 17  2  0
 16 18  1  0
 18 39  1  0
 19 40  1  0
 21 23  1  0
 21 22  1  0
 22 41  1  0
 23 25  1  0
 24 42  1  0
 25 26  2  0
M  END
