
     RDKit          3D

 51 54  0  0  0  0  0  0  0  0999 V2000
    5.8529   -0.3820   -0.1564 N   0  0  0  0  0  0  0  0  0  0  0  0
   -1.8744   -0.2632   -0.0056 N   0  0  0  0  0  0  0  0  0  0  0  0
    2.3367   -1.2321   -0.7339 C   0  0  0  0  0  0  0  0  0  0  0  0
    1.7360   -0.1278   -0.1249 C   0  0  0  0  0  0  0  0  0  0  0  0
   -0.6556   -0.7873    0.0081 C   0  0  0  0  0  0  0  0  0  0  0  0
   -2.8383   -1.1670    0.1027 C   0  0  0  0  0  0  0  0  0  0  0  0
   -4.8743    0.3051   -0.0016 C   0  0  1  0  0  0  0  0  0  0  0  0
   -6.1847    2.0088    1.3595 C   0  0  0  0  0  0  0  0  0  0  0  0
   -6.4093    1.6192   -1.6071 C   0  0  0  0  0  0  0  0  0  0  0  0
   -3.9550   -3.0859    0.2997 C   0  0  0  0  0  0  0  0  0  0  0  0
   -1.3151   -2.9656    0.2230 C   0  0  0  0  0  0  0  0  0  0  0  0
    6.8531    0.9486   -0.0950 S   0  0  1  0  0  0  0  0  0  0  0  0
    6.3001    2.0419   -0.8749 O   0  0  0  0  0  0  0  0  0  0  0  0
    6.8465    1.4067    1.6154 C   0  0  0  0  0  0  0  0  0  0  0  0
    4.4618   -0.3038   -0.1747 C   0  0  0  0  0  0  0  0  0  0  0  0
    3.9055    0.7425    0.4039 N   0  0  0  0  0  0  0  0  0  0  0  0
    2.5831    0.8274    0.4260 C   0  0  0  0  0  0  0  0  0  0  0  0
    3.7126   -1.3238   -0.7584 C   0  0  0  0  0  0  0  0  0  0  0  0
   -0.3363   -2.0921    0.1182 N   0  0  0  0  0  0  0  0  0  0  0  0
   -2.6426   -2.5534    0.2212 C   0  0  0  0  0  0  0  0  0  0  0  0
   -4.8370   -2.1263    0.2343 N   0  0  0  0  0  0  0  0  0  0  0  0
   -4.1657   -0.9608    0.1173 N   0  0  0  0  0  0  0  0  0  0  0  0
   -5.6056    0.3491   -1.3412 C   0  0  0  0  0  0  0  0  0  0  0  0
   -7.6702    1.7391   -0.7496 C   0  0  0  0  0  0  0  0  0  0  0  0
   -7.4763    2.3760    0.6276 C   0  0  0  0  0  0  0  0  0  0  0  0
   -5.7384    0.5507    1.2366 C   0  0  0  0  0  0  0  0  0  0  0  0
    6.2848   -1.1910   -0.5851 H   0  0  0  0  0  0  0  0  0  0  0  0
    1.7433   -2.0066   -1.1940 H   0  0  0  0  0  0  0  0  0  0  0  0
   -4.0844    1.0617   -0.0126 H   0  0  0  0  0  0  0  0  0  0  0  0
   -5.3682    2.6522    1.0175 H   0  0  0  0  0  0  0  0  0  0  0  0
   -6.3158    2.2491    2.4167 H   0  0  0  0  0  0  0  0  0  0  0  0
   -5.7743    2.5044   -1.4941 H   0  0  0  0  0  0  0  0  0  0  0  0
   -6.7027    1.5985   -2.6591 H   0  0  0  0  0  0  0  0  0  0  0  0
   -4.2642   -4.1150    0.4002 H   0  0  0  0  0  0  0  0  0  0  0  0
   -1.0368   -4.0104    0.3120 H   0  0  0  0  0  0  0  0  0  0  0  0
    7.1994    0.5658    2.2070 H   0  0  0  0  0  0  0  0  0  0  0  0
    7.5205    2.2548    1.7272 H   0  0  0  0  0  0  0  0  0  0  0  0
    5.8369    1.6847    1.9041 H   0  0  0  0  0  0  0  0  0  0  0  0
    2.1663    1.7066    0.9068 H   0  0  0  0  0  0  0  0  0  0  0  0
    4.1962   -2.1649   -1.2365 H   0  0  0  0  0  0  0  0  0  0  0  0
    0.0743    1.0735   -0.0442 H   0  0  0  0  0  0  0  0  0  0  0  0
   -4.8599    0.2230   -2.1311 H   0  0  0  0  0  0  0  0  0  0  0  0
   -6.2793   -0.5111   -1.4059 H   0  0  0  0  0  0  0  0  0  0  0  0
   -8.4231    2.3199   -1.2876 H   0  0  0  0  0  0  0  0  0  0  0  0
   -8.1005    0.7389   -0.6353 H   0  0  0  0  0  0  0  0  0  0  0  0
   -8.3321    2.1054    1.2519 H   0  0  0  0  0  0  0  0  0  0  0  0
   -7.5121    3.4645    0.5307 H   0  0  0  0  0  0  0  0  0  0  0  0
   -6.5987   -0.1247    1.2402 H   0  0  0  0  0  0  0  0  0  0  0  0
   -5.1380    0.2919    2.1120 H   0  0  0  0  0  0  0  0  0  0  0  0
    0.3634    0.1081   -0.0921 N   0  0  0  0  0  0  0  0  0  0  0  0
    8.1670    0.4307   -0.4448 O   0  0  0  0  0  0  0  0  0  0  0  0
 12  1  1  1
  1 15  1  0
  1 27  1  0
  2  6  2  0
  2  5  1  0
 18  3  2  0
  3  4  1  0
  3 28  1  0
 17  4  2  0
  4 50  1  0
 50  5  1  0
  5 19  2  0
 22  6  1  0
  6 20  1  0
 23  7  1  0
 26  7  1  0
  7 22  1  0
  7 29  1  6
 25  8  1  0
  8 26  1  0
  8 30  1  0
  8 31  1  0
 24  9  1  0
  9 23  1  0
  9 32  1  0
  9 33  1  0
 21 10  2  0
 20 10  1  0
 10 34  1  0
 20 11  2  0
 19 11  1  0
 11 35  1  0
 12 51  2  0
 13 12  2  0
 14 12  1  0
 14 36  1  0
 14 37  1  0
 14 38  1  0
 15 18  1  0
 15 16  2  0
 16 17  1  0
 17 39  1  0
 18 40  1  0
 50 41  1  0
 22 21  1  0
 23 42  1  0
 23 43  1  0
 24 25  1  0
 24 44  1  0
 24 45  1  0
 25 46  1  0
 25 47  1  0
 26 48  1  0
 26 49  1  0
M  END
