
     RDKit          3D

 42 42  0  0  0  0  0  0  0  0999 V2000
    1.0182    0.4509    0.9537 C   0  0  1  0  0  0  0  0  0  0  0  0
    0.5721    0.5536   -0.3310 O   0  0  0  0  0  0  0  0  0  0  0  0
    2.5413    0.4562    0.9499 C   0  0  2  0  0  0  0  0  0  0  0  0
    3.0082   -0.7386    0.2972 O   0  0  0  0  0  0  0  0  0  0  0  0
    3.1025    0.5022    2.3251 C   0  0  1  0  0  0  0  0  0  0  0  0
    4.5438    0.6659    2.2378 O   0  0  0  0  0  0  0  0  0  0  0  0
    2.5356    1.6340    3.1257 C   0  0  1  0  0  0  0  0  0  0  0  0
    2.9938    2.8684    2.5688 O   0  0  0  0  0  0  0  0  0  0  0  0
    1.0053    1.6289    3.1248 C   0  0  2  0  0  0  0  0  0  0  0  0
    0.4510    1.5850    1.7587 O   0  0  0  0  0  0  0  0  0  0  0  0
    0.5169    2.8674    3.8067 C   0  0  0  0  0  0  0  0  0  0  0  0
   -0.8073    2.6840    4.2131 O   0  0  0  0  0  0  0  0  0  0  0  0
   -0.6892   -0.0399   -0.5468 C   0  0  0  0  0  0  0  0  0  0  0  0
   -0.8169   -0.4493   -2.0193 C   0  0  0  0  0  0  0  0  0  0  0  0
   -2.2637   -0.8711   -2.3098 C   0  0  0  0  0  0  0  0  0  0  0  0
   -2.3043   -1.7059   -3.5922 C   0  0  0  0  0  0  0  0  0  0  0  0
   -3.6457   -2.4243   -3.6878 C   0  0  0  0  0  0  0  0  0  0  0  0
   -3.5935   -3.4545   -4.8177 C   0  0  0  0  0  0  0  0  0  0  0  0
    0.6734   -0.4835    1.3766 H   0  0  0  0  0  0  0  0  0  0  0  0
    2.8878    1.3227    0.4001 H   0  0  0  0  0  0  0  0  0  0  0  0
    3.7888   -0.5428   -0.1975 H   0  0  0  0  0  0  0  0  0  0  0  0
    2.8777   -0.4319    2.8281 H   0  0  0  0  0  0  0  0  0  0  0  0
    4.9671    0.0409    2.8064 H   0  0  0  0  0  0  0  0  0  0  0  0
    2.8858    1.5509    4.1474 H   0  0  0  0  0  0  0  0  0  0  0  0
    3.5998    3.2804    3.1693 H   0  0  0  0  0  0  0  0  0  0  0  0
    0.6573    0.7589    3.6724 H   0  0  0  0  0  0  0  0  0  0  0  0
    0.5712    3.7051    3.1179 H   0  0  0  0  0  0  0  0  0  0  0  0
    1.1362    3.0713    4.6737 H   0  0  0  0  0  0  0  0  0  0  0  0
   -1.0222    3.3165    4.8808 H   0  0  0  0  0  0  0  0  0  0  0  0
   -0.7878   -0.9173    0.0816 H   0  0  0  0  0  0  0  0  0  0  0  0
   -1.4701    0.6709   -0.3002 H   0  0  0  0  0  0  0  0  0  0  0  0
   -0.1502   -1.2809   -2.2225 H   0  0  0  0  0  0  0  0  0  0  0  0
   -0.5510    0.3908   -2.6527 H   0  0  0  0  0  0  0  0  0  0  0  0
   -2.6414   -1.4619   -1.4817 H   0  0  0  0  0  0  0  0  0  0  0  0
   -2.8806    0.0134   -2.4343 H   0  0  0  0  0  0  0  0  0  0  0  0
   -1.5036   -2.4365   -3.5733 H   0  0  0  0  0  0  0  0  0  0  0  0
   -2.1802   -1.0563   -4.4502 H   0  0  0  0  0  0  0  0  0  0  0  0
   -3.8539   -2.9273   -2.7495 H   0  0  0  0  0  0  0  0  0  0  0  0
   -4.4286   -1.7025   -3.8924 H   0  0  0  0  0  0  0  0  0  0  0  0
   -2.6937   -4.0534   -4.7200 H   0  0  0  0  0  0  0  0  0  0  0  0
   -3.5848   -2.9412   -5.7763 H   0  0  0  0  0  0  0  0  0  0  0  0
   -4.4651   -4.0989   -4.7604 H   0  0  0  0  0  0  0  0  0  0  0  0
  1  2  1  0
  1  3  1  0
  1 10  1  0
  1 19  1  1
  2 13  1  0
  3  4  1  0
  3  5  1  0
  3 20  1  6
  4 21  1  0
  5  6  1  0
  5  7  1  0
  5 22  1  1
  6 23  1  0
  7  8  1  0
  7  9  1  0
  7 24  1  1
  8 25  1  0
  9 10  1  0
  9 11  1  0
  9 26  1  1
 11 12  1  0
 11 27  1  0
 11 28  1  0
 12 29  1  0
 13 14  1  0
 13 30  1  0
 13 31  1  0
 14 15  1  0
 14 32  1  0
 14 33  1  0
 15 16  1  0
 15 34  1  0
 15 35  1  0
 16 17  1  0
 16 36  1  0
 16 37  1  0
 17 18  1  0
 17 38  1  0
 17 39  1  0
 18 40  1  0
 18 41  1  0
 18 42  1  0
M  END
