
     RDKit          3D

 52 54  0  0  0  0  0  0  0  0999 V2000
    1.8335    0.3224   -1.7528 O   0  0  0  0  0  0  0  0  0  0  0  0
    2.6037   -0.0980   -0.9169 C   0  0  0  0  0  0  0  0  0  0  0  0
   -6.1696    2.1541   -0.3241 C   0  0  0  0  0  0  0  0  0  0  0  0
   -5.3677    2.6206    0.7061 C   0  0  0  0  0  0  0  0  0  0  0  0
   -4.0873    2.1081    0.8896 C   0  0  0  0  0  0  0  0  0  0  0  0
   -3.5946    1.1124    0.0539 C   0  0  0  0  0  0  0  0  0  0  0  0
   -4.4077    0.6554   -0.9839 C   0  0  0  0  0  0  0  0  0  0  0  0
   -5.6812    1.1679   -1.1743 C   0  0  0  0  0  0  0  0  0  0  0  0
   -1.1890   -1.8456    0.0731 C   0  0  2  0  0  0  0  0  0  0  0  0
   -1.3363   -3.3136    0.4839 C   0  0  0  0  0  0  0  0  0  0  0  0
   -0.3112   -4.1700   -0.2588 C   0  0  0  0  0  0  0  0  0  0  0  0
    1.1010   -3.5953   -0.1475 C   0  0  0  0  0  0  0  0  0  0  0  0
    1.1074   -2.1030   -0.4953 C   0  0  1  0  0  0  0  0  0  0  0  0
    0.1568   -1.3406    0.3084 N   0  0  0  0  0  0  0  0  0  0  0  0
    0.5308   -1.2255    1.7030 C   0  0  0  0  0  0  0  0  0  0  0  0
    2.5105   -1.5182   -0.4093 C   0  0  0  0  0  0  0  0  0  0  0  0
   -2.2090    0.5132    0.2294 C   0  0  1  0  0  0  0  0  0  0  0  0
   -1.4043    1.2849    1.0863 O   0  0  0  0  0  0  0  0  0  0  0  0
    4.7771    0.2700    0.3192 C   0  0  0  0  0  0  0  0  0  0  0  0
    3.6996    0.7771   -0.4067 C   0  0  0  0  0  0  0  0  0  0  0  0
    3.6636    2.1423   -0.6998 C   0  0  0  0  0  0  0  0  0  0  0  0
    4.6757    2.9815   -0.2664 C   0  0  0  0  0  0  0  0  0  0  0  0
    5.7480    2.4655    0.4530 C   0  0  0  0  0  0  0  0  0  0  0  0
    5.7993    1.1088    0.7403 C   0  0  0  0  0  0  0  0  0  0  0  0
    3.1848   -2.1213   -1.0293 H   0  0  0  0  0  0  0  0  0  0  0  0
    2.9020   -1.6049    0.6050 H   0  0  0  0  0  0  0  0  0  0  0  0
    2.8342    2.5487   -1.2631 H   0  0  0  0  0  0  0  0  0  0  0  0
    4.8400   -0.7847    0.5512 H   0  0  0  0  0  0  0  0  0  0  0  0
    4.6326    4.0390   -0.4917 H   0  0  0  0  0  0  0  0  0  0  0  0
    6.5420    3.1205    0.7872 H   0  0  0  0  0  0  0  0  0  0  0  0
    6.6352    0.7012    1.2930 H   0  0  0  0  0  0  0  0  0  0  0  0
    0.7748   -2.0064   -1.5349 H   0  0  0  0  0  0  0  0  0  0  0  0
    1.4872   -3.7479    0.8656 H   0  0  0  0  0  0  0  0  0  0  0  0
    1.7787   -4.1330   -0.8162 H   0  0  0  0  0  0  0  0  0  0  0  0
   -0.3299   -5.1981    0.1102 H   0  0  0  0  0  0  0  0  0  0  0  0
   -0.5934   -4.2188   -1.3163 H   0  0  0  0  0  0  0  0  0  0  0  0
   -1.2021   -3.4104    1.5670 H   0  0  0  0  0  0  0  0  0  0  0  0
   -2.3471   -3.6686    0.2645 H   0  0  0  0  0  0  0  0  0  0  0  0
   -1.3231   -1.8042   -1.0176 H   0  0  0  0  0  0  0  0  0  0  0  0
   -3.2355   -1.3873    0.2859 H   0  0  0  0  0  0  0  0  0  0  0  0
   -2.3546   -1.0396    1.7412 H   0  0  0  0  0  0  0  0  0  0  0  0
    0.8400   -2.1635    2.1829 H   0  0  0  0  0  0  0  0  0  0  0  0
    1.3484   -0.5122    1.8243 H   0  0  0  0  0  0  0  0  0  0  0  0
   -0.2999   -0.8354    2.2847 H   0  0  0  0  0  0  0  0  0  0  0  0
   -1.7066    0.5508   -0.7433 H   0  0  0  0  0  0  0  0  0  0  0  0
   -1.6734    1.1201    1.9956 H   0  0  0  0  0  0  0  0  0  0  0  0
   -4.0370   -0.1119   -1.6551 H   0  0  0  0  0  0  0  0  0  0  0  0
   -3.4768    2.5041    1.6905 H   0  0  0  0  0  0  0  0  0  0  0  0
   -6.2937    0.7985   -1.9871 H   0  0  0  0  0  0  0  0  0  0  0  0
   -5.7352    3.3919    1.3714 H   0  0  0  0  0  0  0  0  0  0  0  0
   -2.2953   -0.9649    0.6484 C   0  0  0  0  0  0  0  0  0  0  0  0
   -7.1642    2.5557   -0.4688 H   0  0  0  0  0  0  0  0  0  0  0  0
  1  2  2  0
  2 20  1  0
  2 16  1  0
 20 21  1  0
 20 19  2  0
 21 22  2  0
 22 23  1  0
 23 24  2  0
 24 19  1  0
 16 13  1  0
 13 12  1  0
 13 14  1  0
 12 11  1  0
 11 10  1  0
 10  9  1  0
  9 14  1  0
  9 51  1  0
 14 15  1  0
 51 17  1  0
 17 18  1  0
 17  6  1  0
  6  7  2  0
  6  5  1  0
  7  8  1  0
  8  3  2  0
  3  4  1  0
  4  5  2  0
 16 25  1  0
 16 26  1  0
 21 27  1  0
 19 28  1  0
 22 29  1  0
 23 30  1  0
 24 31  1  0
 13 32  1  6
 12 33  1  0
 12 34  1  0
 11 35  1  0
 11 36  1  0
 10 37  1  0
 10 38  1  0
  9 39  1  6
 51 40  1  0
 51 41  1  0
 15 42  1  0
 15 43  1  0
 15 44  1  0
 17 45  1  6
 18 46  1  0
  7 47  1  0
  5 48  1  0
  8 49  1  0
  3 52  1  0
  4 50  1  0
M  END
