
     RDKit          3D

 46 48  0  0  0  0  0  0  0  0999 V2000
   -1.3636    4.5226   -1.4309 C   0  0  0  0  0  0  0  0  0  0  0  0
   -1.2291    4.7882    1.0526 C   0  0  0  0  0  0  0  0  0  0  0  0
   -3.4017    4.1863   -0.0243 C   0  0  0  0  0  0  0  0  0  0  0  0
    2.3034    0.5745   -0.5377 O   0  0  0  0  0  0  0  0  0  0  0  0
   -4.2375   -2.1729    0.7508 C   0  0  0  0  0  0  0  0  0  0  0  0
   -2.6521   -3.0349   -0.8133 C   0  0  0  0  0  0  0  0  0  0  0  0
   -3.5510   -0.9713    0.7992 C   0  0  0  0  0  0  0  0  0  0  0  0
   -1.9641   -1.8305   -0.7921 C   0  0  0  0  0  0  0  0  0  0  0  0
    6.1312   -1.5636   -0.5776 C   0  0  0  0  0  0  0  0  0  0  0  0
   -0.2153    2.0192    0.2025 C   0  0  0  0  0  0  0  0  0  0  0  0
    4.4512   -2.7238    0.4916 N   0  0  0  0  0  0  0  0  0  0  0  0
   -2.4099    1.5853   -0.0337 N   0  0  0  0  0  0  0  0  0  0  0  0
    0.4795   -0.3923    0.4315 N   0  0  0  0  0  0  0  0  0  0  0  0
    4.7869   -0.4941   -0.7360 S   0  0  0  0  0  0  0  0  0  0  0  0
    1.7894   -0.3531    0.0570 C   0  0  0  0  0  0  0  0  0  0  0  0
   -3.8006   -3.2274   -0.0502 C   0  0  0  0  0  0  0  0  0  0  0  0
    5.7593   -2.6765    0.0950 C   0  0  0  0  0  0  0  0  0  0  0  0
   -2.4099   -0.7991    0.0247 C   0  0  0  0  0  0  0  0  0  0  0  0
   -1.5148    2.5464    0.0361 C   0  0  0  0  0  0  0  0  0  0  0  0
   -0.3966    0.6588    0.2256 C   0  0  0  0  0  0  0  0  0  0  0  0
    3.8278   -1.6508    0.1247 C   0  0  0  0  0  0  0  0  0  0  0  0
   -1.7246    0.4344    0.0612 N   0  0  0  0  0  0  0  0  0  0  0  0
   -1.8864    4.0008   -0.0860 C   0  0  1  0  0  0  0  0  0  0  0  0
   -0.2825    4.3979   -1.5149 H   0  0  0  0  0  0  0  0  0  0  0  0
   -1.8284    3.9942   -2.2650 H   0  0  0  0  0  0  0  0  0  0  0  0
   -1.5853    5.5861   -1.5404 H   0  0  0  0  0  0  0  0  0  0  0  0
   -1.4692    5.8496    0.9670 H   0  0  0  0  0  0  0  0  0  0  0  0
   -1.5771    4.4416    2.0270 H   0  0  0  0  0  0  0  0  0  0  0  0
   -0.1418    4.6969    1.0332 H   0  0  0  0  0  0  0  0  0  0  0  0
   -3.9075    3.6442   -0.8236 H   0  0  0  0  0  0  0  0  0  0  0  0
   -3.8118    3.8417    0.9264 H   0  0  0  0  0  0  0  0  0  0  0  0
   -3.6499    5.2441   -0.1294 H   0  0  0  0  0  0  0  0  0  0  0  0
   -5.1258   -2.2939    1.3588 H   0  0  0  0  0  0  0  0  0  0  0  0
   -2.2907   -3.8321   -1.4512 H   0  0  0  0  0  0  0  0  0  0  0  0
   -3.8990   -0.1691    1.4360 H   0  0  0  0  0  0  0  0  0  0  0  0
   -1.0962   -1.6996   -1.4253 H   0  0  0  0  0  0  0  0  0  0  0  0
    0.7096    2.5581    0.3102 H   0  0  0  0  0  0  0  0  0  0  0  0
    0.1308   -1.1997    0.9292 H   0  0  0  0  0  0  0  0  0  0  0  0
    6.4129   -3.5040    0.3313 H   0  0  0  0  0  0  0  0  0  0  0  0
   -4.5664   -4.5159   -0.1118 C   0  0  0  0  0  0  0  0  0  0  0  0
    2.4975   -1.4695    0.4092 N   0  0  0  0  0  0  0  0  0  0  0  0
    7.0988   -1.3137   -0.9818 H   0  0  0  0  0  0  0  0  0  0  0  0
   -5.3647   -4.4571   -0.8545 H   0  0  0  0  0  0  0  0  0  0  0  0
   -3.9250   -5.3511   -0.3904 H   0  0  0  0  0  0  0  0  0  0  0  0
   -5.0324   -4.7500    0.8450 H   0  0  0  0  0  0  0  0  0  0  0  0
    2.0618   -2.2248    0.9202 H   0  0  0  0  0  0  0  0  0  0  0  0
 23  1  1  6
  1 24  1  0
  1 25  1  0
  1 26  1  0
  2 23  1  0
  2 27  1  0
  2 28  1  0
  2 29  1  0
 23  3  1  0
  3 30  1  0
  3 31  1  0
  3 32  1  0
  4 15  2  0
  7  5  2  0
  5 16  1  0
  5 33  1  0
  8  6  1  0
  6 16  2  0
  6 34  1  0
 18  7  1  0
  7 35  1  0
 18  8  2  0
  8 36  1  0
  9 14  1  0
  9 17  2  0
  9 42  1  0
 10 19  1  0
 10 20  2  0
 10 37  1  0
 16 40  1  0
 40 43  1  0
 40 44  1  0
 40 45  1  0
 17 11  1  0
 11 21  2  0
 19 12  2  0
 12 22  1  0
 15 13  1  0
 13 20  1  0
 13 38  1  0
 21 41  1  0
 15 41  1  0
 41 46  1  0
 14 21  1  0
 17 39  1  0
 22 18  1  0
 23 19  1  0
 20 22  1  0
M  END
