
     RDKit          3D

 38 38  0  0  0  0  0  0  0  0999 V2000
    1.5998   -5.9783   -2.0026 N   0  0  0  0  0  0  0  0  0  0  0  0
    1.3667   -4.5458   -1.9139 C   0  0  0  0  0  0  0  0  0  0  0  0
   -3.5418    0.5006    2.3262 C   0  0  0  0  0  0  0  0  0  0  0  0
   -2.4271    1.4373    6.8355 C   0  0  0  0  0  0  0  0  0  0  0  0
   -2.5990    1.6460    4.3366 C   0  0  0  0  0  0  0  0  0  0  0  0
   -2.3228    0.7087    5.5036 C   0  0  0  0  0  0  0  0  0  0  0  0
    0.2927   -4.1085   -0.9204 C   0  0  0  0  0  0  0  0  0  0  0  0
    0.1117   -2.5956   -0.9014 C   0  0  0  0  0  0  0  0  0  0  0  0
   -0.8684   -2.0891    0.1598 C   0  0  1  0  0  0  0  0  0  0  0  0
   -0.9260   -0.5528    0.1509 C   0  0  0  0  0  0  0  0  0  0  0  0
   -1.7729    0.0189    1.2356 C   0  0  0  0  0  0  0  0  0  0  0  0
   -1.3705    0.6766    2.3656 C   0  0  0  0  0  0  0  0  0  0  0  0
   -3.1366   -0.0837    1.2266 N   0  0  0  0  0  0  0  0  0  0  0  0
   -2.2449   -2.6587   -0.0933 C   0  0  0  0  0  0  0  0  0  0  0  0
   -2.5136    0.9849    3.0498 N   0  0  0  0  0  0  0  0  0  0  0  0
   -2.8576   -2.5040   -1.1223 O   0  0  0  0  0  0  0  0  0  0  0  0
   -2.7070   -3.3770    0.9219 O   0  0  0  0  0  0  0  0  0  0  0  0
    0.7333   -6.4457   -2.2411 H   0  0  0  0  0  0  0  0  0  0  0  0
    1.8552   -6.3344   -1.0893 H   0  0  0  0  0  0  0  0  0  0  0  0
    1.1044   -4.1791   -2.9108 H   0  0  0  0  0  0  0  0  0  0  0  0
    2.3127   -4.0613   -1.6536 H   0  0  0  0  0  0  0  0  0  0  0  0
    0.5632   -4.4600    0.0812 H   0  0  0  0  0  0  0  0  0  0  0  0
   -0.6493   -4.6035   -1.1822 H   0  0  0  0  0  0  0  0  0  0  0  0
   -1.8928    2.4783    4.3408 H   0  0  0  0  0  0  0  0  0  0  0  0
   -3.5984    2.0749    4.4227 H   0  0  0  0  0  0  0  0  0  0  0  0
   -1.3259    0.2740    5.3935 H   0  0  0  0  0  0  0  0  0  0  0  0
   -3.0333   -0.1212    5.4743 H   0  0  0  0  0  0  0  0  0  0  0  0
   -1.6992    2.2472    6.9048 H   0  0  0  0  0  0  0  0  0  0  0  0
   -2.2453    0.7574    7.6675 H   0  0  0  0  0  0  0  0  0  0  0  0
   -3.4191    1.8708    6.9733 H   0  0  0  0  0  0  0  0  0  0  0  0
   -4.5680    0.6138    2.6440 H   0  0  0  0  0  0  0  0  0  0  0  0
   -0.2079   -2.2450   -1.8873 H   0  0  0  0  0  0  0  0  0  0  0  0
    1.0790   -2.1227   -0.7059 H   0  0  0  0  0  0  0  0  0  0  0  0
   -0.5224   -2.4138    1.1450 H   0  0  0  0  0  0  0  0  0  0  0  0
   -1.2818   -0.2143   -0.8263 H   0  0  0  0  0  0  0  0  0  0  0  0
    0.0952   -0.1822    0.2580 H   0  0  0  0  0  0  0  0  0  0  0  0
   -0.3922    0.9499    2.7268 H   0  0  0  0  0  0  0  0  0  0  0  0
   -3.5898   -3.7158    0.7089 H   0  0  0  0  0  0  0  0  0  0  0  0
  1  2  1  0
  1 18  1  0
  1 19  1  0
  2  7  1  0
  2 20  1  0
  2 21  1  0
  3 13  2  0
  3 15  1  0
  3 31  1  0
  4  6  1  0
  4 28  1  0
  4 29  1  0
  4 30  1  0
  5  6  1  0
  5 15  1  0
  5 24  1  0
  5 25  1  0
  6 26  1  0
  6 27  1  0
  7  8  1  0
  7 22  1  0
  7 23  1  0
  8  9  1  0
  8 32  1  0
  8 33  1  0
  9 10  1  0
  9 14  1  0
  9 34  1  1
 10 11  1  0
 10 35  1  0
 10 36  1  0
 11 12  2  0
 11 13  1  0
 12 15  1  0
 12 37  1  0
 14 16  2  0
 14 17  1  0
 17 38  1  0
M  END
