
     RDKit          3D

 34 36  0  0  0  0  0  0  0  0999 V2000
   -1.4361    0.2988   -0.3496 C   0  0  0  0  0  0  0  0  0  0  0  0
   -1.1083   -1.0687   -0.3537 C   0  0  0  0  0  0  0  0  0  0  0  0
    0.2974   -1.4860   -0.6982 C   0  0  0  0  0  0  0  0  0  0  0  0
    2.6398   -1.0112   -0.3480 C   0  0  0  0  0  0  0  0  0  0  0  0
    3.6404   -0.1805    0.4300 C   0  0  2  0  0  0  0  0  0  0  0  0
    5.7925    0.8218    0.2742 C   0  0  0  0  0  0  0  0  0  0  0  0
    1.2762   -0.7113    0.0368 N   0  0  0  0  0  0  0  0  0  0  0  0
   -2.0793   -2.0145   -0.0614 C   0  0  0  0  0  0  0  0  0  0  0  0
    3.4795    1.2077    0.1554 O   0  0  0  0  0  0  0  0  0  0  0  0
   -3.4037   -1.6580    0.2330 C   0  0  0  0  0  0  0  0  0  0  0  0
    4.7219    1.7862   -0.2122 C   0  0  0  0  0  0  0  0  0  0  0  0
   -4.6000    1.6872    0.5154 C   0  0  0  0  0  0  0  0  0  0  0  0
   -3.6992   -0.3195    0.2230 C   0  0  0  0  0  0  0  0  0  0  0  0
   -2.7332    0.6346   -0.0629 C   0  0  0  0  0  0  0  0  0  0  0  0
    5.0908   -0.5171    0.0878 C   0  0  0  0  0  0  0  0  0  0  0  0
   -3.2980    1.8679   -0.0234 O   0  0  0  0  0  0  0  0  0  0  0  0
   -4.8870    0.2971    0.4490 O   0  0  0  0  0  0  0  0  0  0  0  0
   -0.6859    1.0496   -0.5606 H   0  0  0  0  0  0  0  0  0  0  0  0
    0.3999   -2.5719   -0.5484 H   0  0  0  0  0  0  0  0  0  0  0  0
    0.4707   -1.3134   -1.7661 H   0  0  0  0  0  0  0  0  0  0  0  0
    2.7567   -0.8044   -1.4174 H   0  0  0  0  0  0  0  0  0  0  0  0
    2.9005   -2.0733   -0.2070 H   0  0  0  0  0  0  0  0  0  0  0  0
    3.4722   -0.3428    1.5050 H   0  0  0  0  0  0  0  0  0  0  0  0
    6.7193    0.9065   -0.2927 H   0  0  0  0  0  0  0  0  0  0  0  0
    6.0221    0.9963    1.3277 H   0  0  0  0  0  0  0  0  0  0  0  0
    1.1618   -0.8967    1.0272 H   0  0  0  0  0  0  0  0  0  0  0  0
   -1.8116   -3.0639   -0.0556 H   0  0  0  0  0  0  0  0  0  0  0  0
   -4.1506   -2.4074    0.4576 H   0  0  0  0  0  0  0  0  0  0  0  0
    4.8028    2.7793    0.2365 H   0  0  0  0  0  0  0  0  0  0  0  0
    4.7822    1.9081   -1.3014 H   0  0  0  0  0  0  0  0  0  0  0  0
   -4.6207    2.0219    1.5586 H   0  0  0  0  0  0  0  0  0  0  0  0
    5.4885   -1.3118    0.7181 H   0  0  0  0  0  0  0  0  0  0  0  0
    5.1739   -0.8456   -0.9527 H   0  0  0  0  0  0  0  0  0  0  0  0
   -5.3259    2.2431   -0.0775 H   0  0  0  0  0  0  0  0  0  0  0  0
 12 17  1  0
 12 16  1  0
 17 13  1  0
 16 14  1  0
 13 14  1  0
 13 10  2  0
 14  1  2  0
  6 11  1  0
  6 15  1  0
 11  9  1  0
 10  8  1  0
  1  2  1  0
  9  5  1  0
 15  5  1  0
  5  4  1  0
  8  2  2  0
  2  3  1  0
  4  7  1  0
  7  3  1  0
  1 18  1  0
  3 19  1  0
  3 20  1  0
  4 21  1  0
  4 22  1  0
  5 23  1  1
  6 24  1  0
  6 25  1  0
  7 26  1  0
  8 27  1  0
 10 28  1  0
 11 29  1  0
 11 30  1  0
 12 31  1  0
 15 32  1  0
 15 33  1  0
 12 34  1  0
M  END
