
     RDKit          3D

 59 60  0  0  0  0  0  0  0  0999 V2000
    6.6122   -4.0331   -0.5230 C   0  0  0  0  0  0  0  0  0  0  0  0
    2.9516   -0.7012    0.3068 N   0  0  0  0  0  0  0  0  0  0  0  0
   -3.9203   -0.6224   -3.7009 O   0  0  0  0  0  0  0  0  0  0  0  0
    5.1725   -3.6204   -0.7942 C   0  0  0  0  0  0  0  0  0  0  0  0
   -2.5934   -0.1492   -1.2293 N   0  0  0  0  0  0  0  0  0  0  0  0
   -1.1374   -1.1790    0.1735 O   0  0  0  0  0  0  0  0  0  0  0  0
    4.7932   -2.3233   -0.0902 C   0  0  0  0  0  0  0  0  0  0  0  0
    3.3559   -1.9148   -0.3858 C   0  0  0  0  0  0  0  0  0  0  0  0
    3.7092    0.6207   -1.3609 O   0  0  0  0  0  0  0  0  0  0  0  0
    2.3181   -0.8829    1.5961 C   0  0  0  0  0  0  0  0  0  0  0  0
   -4.7988    0.1949    3.2176 C   0  0  0  0  0  0  0  0  0  0  0  0
   -4.7195    1.1799    2.2421 C   0  0  0  0  0  0  0  0  0  0  0  0
   -4.7750    0.8344    0.8980 C   0  0  0  0  0  0  0  0  0  0  0  0
   -4.9076   -0.4954    0.5052 C   0  0  0  0  0  0  0  0  0  0  0  0
   -4.9858   -1.4742    1.4934 C   0  0  0  0  0  0  0  0  0  0  0  0
   -4.9342   -1.1347    2.8384 C   0  0  0  0  0  0  0  0  0  0  0  0
   -4.9112   -0.8736   -0.9482 C   0  0  0  0  0  0  0  0  0  0  0  0
   -3.5058   -1.2534   -1.4407 C   0  0  1  0  0  0  0  0  0  0  0  0
   -3.4977   -1.6966   -2.8941 C   0  0  0  0  0  0  0  0  0  0  0  0
   -1.5528   -0.1794   -0.3861 C   0  0  0  0  0  0  0  0  0  0  0  0
   -0.9394    1.1852   -0.1161 C   0  0  0  0  0  0  0  0  0  0  0  0
    1.2323    1.9853    0.4127 C   0  0  0  0  0  0  0  0  0  0  0  0
    0.7658    3.1894    0.9308 C   0  0  0  0  0  0  0  0  0  0  0  0
    1.6725    4.1004    1.4583 C   0  0  0  0  0  0  0  0  0  0  0  0
    3.0330    3.8423    1.4754 C   0  0  0  0  0  0  0  0  0  0  0  0
    3.4628    2.6453    0.9351 C   0  0  0  0  0  0  0  0  0  0  0  0
    2.6026    1.7022    0.4111 C   0  0  0  0  0  0  0  0  0  0  0  0
    3.1388    0.4845   -0.2855 C   0  0  0  0  0  0  0  0  0  0  0  0
    6.7837   -4.1924    0.5431 H   0  0  0  0  0  0  0  0  0  0  0  0
    6.8679   -4.9580   -1.0408 H   0  0  0  0  0  0  0  0  0  0  0  0
    7.3112   -3.2642   -0.8571 H   0  0  0  0  0  0  0  0  0  0  0  0
   -3.8504   -0.8878   -4.6221 H   0  0  0  0  0  0  0  0  0  0  0  0
    5.0211   -3.5051   -1.8718 H   0  0  0  0  0  0  0  0  0  0  0  0
    4.4952   -4.4190   -0.4762 H   0  0  0  0  0  0  0  0  0  0  0  0
   -2.8214    0.7245   -1.6785 H   0  0  0  0  0  0  0  0  0  0  0  0
    4.9301   -2.4406    0.9894 H   0  0  0  0  0  0  0  0  0  0  0  0
    5.4679   -1.5227   -0.4063 H   0  0  0  0  0  0  0  0  0  0  0  0
    2.6706   -2.7089   -0.0798 H   0  0  0  0  0  0  0  0  0  0  0  0
    3.2187   -1.7789   -1.4587 H   0  0  0  0  0  0  0  0  0  0  0  0
    1.2868   -1.2186    1.4816 H   0  0  0  0  0  0  0  0  0  0  0  0
    2.8684   -1.6316    2.1661 H   0  0  0  0  0  0  0  0  0  0  0  0
    2.3268    0.0361    2.1756 H   0  0  0  0  0  0  0  0  0  0  0  0
   -4.6176    2.2197    2.5260 H   0  0  0  0  0  0  0  0  0  0  0  0
   -4.7202    1.6106    0.1439 H   0  0  0  0  0  0  0  0  0  0  0  0
   -5.0923   -2.5147    1.2075 H   0  0  0  0  0  0  0  0  0  0  0  0
   -5.0010   -1.9090    3.5920 H   0  0  0  0  0  0  0  0  0  0  0  0
   -5.5704   -1.7289   -1.1142 H   0  0  0  0  0  0  0  0  0  0  0  0
   -5.3017   -0.0515   -1.5523 H   0  0  0  0  0  0  0  0  0  0  0  0
   -3.1420   -2.0933   -0.8464 H   0  0  0  0  0  0  0  0  0  0  0  0
   -4.1578   -2.5678   -2.9934 H   0  0  0  0  0  0  0  0  0  0  0  0
   -2.4841   -2.0244   -3.1539 H   0  0  0  0  0  0  0  0  0  0  0  0
   -1.3113    1.5100    0.8634 H   0  0  0  0  0  0  0  0  0  0  0  0
   -1.2434    1.9354   -0.8528 H   0  0  0  0  0  0  0  0  0  0  0  0
   -0.2860    3.4390    0.9260 H   0  0  0  0  0  0  0  0  0  0  0  0
    1.3039    5.0330    1.8631 H   0  0  0  0  0  0  0  0  0  0  0  0
    3.7404    4.5493    1.8866 H   0  0  0  0  0  0  0  0  0  0  0  0
    4.7739    2.3652    0.9348 F   0  0  0  0  0  0  0  0  0  0  0  0
    0.4575    1.0227   -0.1120 O   0  0  0  0  0  0  0  0  0  0  0  0
   -4.7592    0.4604    4.2663 H   0  0  0  0  0  0  0  0  0  0  0  0
  1  4  1  0
  1 29  1  0
  1 30  1  0
  1 31  1  0
 26 57  1  0
  8  2  1  0
  2 28  1  0
  2 10  1  0
  3 19  1  0
  3 32  1  0
  4  7  1  0
  4 33  1  0
  4 34  1  0
 20  5  1  0
  5 18  1  0
  5 35  1  0
  6 20  2  0
  7  8  1  0
  7 36  1  0
  7 37  1  0
 21 58  1  0
 58 22  1  0
  8 38  1  0
  8 39  1  0
 28  9  2  0
 10 40  1  0
 10 41  1  0
 10 42  1  0
 12 11  2  0
 11 16  1  0
 11 59  1  0
 13 12  1  0
 12 43  1  0
 13 14  2  0
 13 44  1  0
 17 14  1  0
 14 15  1  0
 15 16  2  0
 15 45  1  0
 16 46  1  0
 18 17  1  0
 17 47  1  0
 17 48  1  0
 18 19  1  0
 18 49  1  1
 19 50  1  0
 19 51  1  0
 21 20  1  0
 21 52  1  0
 21 53  1  0
 23 22  2  0
 22 27  1  0
 23 24  1  0
 23 54  1  0
 24 25  2  0
 24 55  1  0
 25 26  1  0
 25 56  1  0
 27 26  2  0
 27 28  1  0
M  END
