
     RDKit          3D

 27 29  0  0  0  0  0  0  0  0999 V2000
    2.7163    0.3860   -0.0231 C   0  0  0  0  0  0  0  0  0  0  0  0
    2.9323   -1.8583   -0.0045 C   0  0  0  0  0  0  0  0  0  0  0  0
    1.5628   -2.0242    0.0047 C   0  0  0  0  0  0  0  0  0  0  0  0
    0.8004   -0.8507   -0.0025 C   0  0  0  0  0  0  0  0  0  0  0  0
   -0.6501   -0.8852    0.0038 C   0  0  0  0  0  0  0  0  0  0  0  0
   -1.4952   -2.0036    0.0120 C   0  0  0  0  0  0  0  0  0  0  0  0
   -1.5313    0.1995    0.0022 C   0  0  0  0  0  0  0  0  0  0  0  0
    3.5301   -0.6748   -0.0190 N   0  0  0  0  0  0  0  0  0  0  0  0
   -2.7766   -1.6810    0.0153 N   0  0  0  0  0  0  0  0  0  0  0  0
   -2.7889   -0.3552    0.0094 N   0  0  0  0  0  0  0  0  0  0  0  0
   -3.9371    0.2952    0.0105 N   0  0  0  0  0  0  0  0  0  0  0  0
   -1.4541    1.6062   -0.0042 C   0  0  0  0  0  0  0  0  0  0  0  0
    3.2773    1.6053   -0.0357 N   0  0  0  0  0  0  0  0  0  0  0  0
    4.6977    1.8380   -0.0416 C   0  0  0  0  0  0  0  0  0  0  0  0
   -3.8481    1.5919    0.0038 C   0  0  0  0  0  0  0  0  0  0  0  0
   -2.6232    2.3032   -0.0035 C   0  0  0  0  0  0  0  0  0  0  0  0
    1.3773    0.3434   -0.0159 N   0  0  0  0  0  0  0  0  0  0  0  0
    3.5857   -2.7244    0.0001 H   0  0  0  0  0  0  0  0  0  0  0  0
    1.1221   -3.0097    0.0171 H   0  0  0  0  0  0  0  0  0  0  0  0
   -1.2167   -3.0463    0.0153 H   0  0  0  0  0  0  0  0  0  0  0  0
   -0.4874    2.0855   -0.0097 H   0  0  0  0  0  0  0  0  0  0  0  0
    2.6530    2.3929   -0.0360 H   0  0  0  0  0  0  0  0  0  0  0  0
    4.8631    2.9119   -0.0542 H   0  0  0  0  0  0  0  0  0  0  0  0
    5.1858    1.4289    0.8449 H   0  0  0  0  0  0  0  0  0  0  0  0
    5.1811    1.4082   -0.9206 H   0  0  0  0  0  0  0  0  0  0  0  0
   -4.7926    2.1186    0.0043 H   0  0  0  0  0  0  0  0  0  0  0  0
   -2.6363    3.3830   -0.0081 H   0  0  0  0  0  0  0  0  0  0  0  0
 15 16  1  0
 15 11  2  0
 16 12  2  0
 11 10  1  0
 12  7  1  0
 10  7  1  0
 10  9  1  0
  7  5  2  0
  9  6  2  0
  5  6  1  0
  5  4  1  0
 14 13  1  0
 17  4  1  0
 17  1  2  0
  4  3  2  0
 13  1  1  0
  1  8  1  0
  3  2  1  0
  8  2  2  0
  2 18  1  0
  3 19  1  0
  6 20  1  0
 12 21  1  0
 13 22  1  0
 14 23  1  0
 14 24  1  0
 14 25  1  0
 15 26  1  0
 16 27  1  0
M  END
