
     RDKit          3D

 15 14  0  0  0  0  0  0  0  0999 V2000
   -2.8161   -0.5115    2.7239 O   0  0  0  0  0  0  0  0  0  0  0  0
   -1.8507   -0.8011    1.8594 C   0  0  0  0  0  0  0  0  0  0  0  0
   -1.9496   -1.6615    1.0210 O   0  0  0  0  0  0  0  0  0  0  0  0
   -0.6422    0.0689    2.0689 C   0  0  0  0  0  0  0  0  0  0  0  0
    0.4295   -0.1679    1.0262 C   0  0  0  0  0  0  0  0  0  0  0  0
    1.6501    0.6677    1.2195 C   0  0  0  0  0  0  0  0  0  0  0  0
    1.8279    1.4571    2.1099 O   0  0  0  0  0  0  0  0  0  0  0  0
    2.7489    0.4659    0.1653 C   0  0  0  0  0  0  0  0  0  0  0  0
    3.7866    1.0609    0.2343 O   0  0  0  0  0  0  0  0  0  0  0  0
   -3.5800   -1.0877    2.5717 H   0  0  0  0  0  0  0  0  0  0  0  0
   -0.2572   -0.1222    3.0746 H   0  0  0  0  0  0  0  0  0  0  0  0
    0.0557    0.0243    0.0135 H   0  0  0  0  0  0  0  0  0  0  0  0
    0.7521   -1.2157    1.0066 H   0  0  0  0  0  0  0  0  0  0  0  0
    2.5263   -0.2487   -0.6436 H   0  0  0  0  0  0  0  0  0  0  0  0
   -0.9630    1.1136    2.0678 H   0  0  0  0  0  0  0  0  0  0  0  0
  1  2  1  0
  1 10  1  0
  2  3  2  0
  2  4  1  0
  4 15  1  0
  4  5  1  0
  4 11  1  0
  5  6  1  0
  5 12  1  0
  5 13  1  0
  6  7  2  0
  6  8  1  0
  8  9  2  0
  8 14  1  0
M  END
