
     RDKit          3D

 46 49  0  0  0  0  0  0  0  0999 V2000
    7.2535    1.1732    0.0259 C   0  0  0  0  0  0  0  0  0  0  0  0
    7.8851   -0.0472   -0.2491 C   0  0  0  0  0  0  0  0  0  0  0  0
    7.1400   -1.1983   -0.4034 C   0  0  0  0  0  0  0  0  0  0  0  0
    5.7622   -1.0808   -0.2732 C   0  0  0  0  0  0  0  0  0  0  0  0
   -2.7798   -0.4781    0.2541 C   0  0  0  0  0  0  0  0  0  0  0  0
   -4.9412    0.5820   -0.0203 C   0  0  0  0  0  0  0  0  0  0  0  0
   -7.7369    0.2918    0.0517 C   0  0  0  0  0  0  0  0  0  0  0  0
   -8.2251    1.1450    1.0298 C   0  0  0  0  0  0  0  0  0  0  0  0
   -9.0875    2.1708    0.6659 C   0  0  0  0  0  0  0  0  0  0  0  0
   -8.9515    1.4831   -1.6329 C   0  0  0  0  0  0  0  0  0  0  0  0
   -4.8056   -1.7148    0.6612 C   0  0  0  0  0  0  0  0  0  0  0  0
    9.2739    2.2427    0.0916 O   0  0  0  0  0  0  0  0  0  0  0  0
    8.0727    2.3580    0.1846 N   0  0  0  0  0  0  0  0  0  0  0  0
    7.5191    3.4120    0.4037 O   0  0  0  0  0  0  0  0  0  0  0  0
    4.7456   -1.9836   -0.3580 N   0  0  0  0  0  0  0  0  0  0  0  0
    3.5848   -1.2999   -0.1423 C   0  0  0  0  0  0  0  0  0  0  0  0
    2.0688   -2.1470   -0.1687 S   0  0  0  0  0  0  0  0  0  0  0  0
    0.9712   -0.7362    0.1055 C   0  0  0  0  0  0  0  0  0  0  0  0
   -0.4408   -1.2838    0.1355 C   0  0  0  0  0  0  0  0  0  0  0  0
   -0.6557   -2.4818    0.1032 O   0  0  0  0  0  0  0  0  0  0  0  0
   -1.3845   -0.3243    0.2100 N   0  0  0  0  0  0  0  0  0  0  0  0
   -3.5566    0.6318   -0.0642 C   0  0  0  0  0  0  0  0  0  0  0  0
   -5.5725   -0.6012    0.3404 C   0  0  0  0  0  0  0  0  0  0  0  0
   -6.9243   -0.7532    0.4178 O   0  0  0  0  0  0  0  0  0  0  0  0
   -9.4503    2.3439   -0.6634 C   0  0  0  0  0  0  0  0  0  0  0  0
   -8.0901    0.4531   -1.2803 C   0  0  0  0  0  0  0  0  0  0  0  0
   -3.4227   -1.6594    0.6248 C   0  0  0  0  0  0  0  0  0  0  0  0
    3.7676   -0.0295    0.0746 N   0  0  0  0  0  0  0  0  0  0  0  0
    5.1288    0.1457    0.0004 C   0  0  0  0  0  0  0  0  0  0  0  0
    5.8780    1.2999    0.1551 C   0  0  0  0  0  0  0  0  0  0  0  0
    8.9594   -0.0984   -0.3422 H   0  0  0  0  0  0  0  0  0  0  0  0
    7.6177   -2.1441   -0.6175 H   0  0  0  0  0  0  0  0  0  0  0  0
   -5.5038    1.4702   -0.2739 H   0  0  0  0  0  0  0  0  0  0  0  0
   -7.9389    1.0043    2.0646 H   0  0  0  0  0  0  0  0  0  0  0  0
   -9.4734    2.8379    1.4256 H   0  0  0  0  0  0  0  0  0  0  0  0
   -9.2336    1.6111   -2.6697 H   0  0  0  0  0  0  0  0  0  0  0  0
   -5.2929   -2.6368    0.9519 H   0  0  0  0  0  0  0  0  0  0  0  0
    4.8367   -2.9713   -0.5432 H   0  0  0  0  0  0  0  0  0  0  0  0
    1.2126   -0.2538    1.0541 H   0  0  0  0  0  0  0  0  0  0  0  0
    1.0968    0.0009   -0.6883 H   0  0  0  0  0  0  0  0  0  0  0  0
   -1.0595    0.6311    0.1649 H   0  0  0  0  0  0  0  0  0  0  0  0
   -3.0782    1.5598   -0.3535 H   0  0  0  0  0  0  0  0  0  0  0  0
  -10.1210    3.1458   -0.9422 H   0  0  0  0  0  0  0  0  0  0  0  0
   -7.7012   -0.2230   -2.0317 H   0  0  0  0  0  0  0  0  0  0  0  0
   -2.8633   -2.5402    0.8946 H   0  0  0  0  0  0  0  0  0  0  0  0
    5.4010    2.2449    0.3705 H   0  0  0  0  0  0  0  0  0  0  0  0
 12 13  1  0
 28 29  1  0
 28 16  2  0
 30 29  1  0
 30  1  2  0
 20 19  2  0
 13  1  1  0
 13 14  2  0
 17 16  1  0
 17 18  1  0
 29  4  2  0
 16 15  1  0
  1  2  1  0
 10 26  2  0
 10 25  1  0
 19 18  1  0
 19 21  1  0
 26  7  1  0
 22  6  2  0
 22  5  1  0
  6 23  1  0
  4 15  1  0
  4  3  1  0
 25  9  2  0
  2  3  2  0
  7 24  1  0
  7  8  2  0
  5 21  1  0
  5 27  2  0
 23 24  1  0
 23 11  2  0
  9  8  1  0
 27 11  1  0
  2 31  1  0
  3 32  1  0
  6 33  1  0
  8 34  1  0
  9 35  1  0
 10 36  1  0
 11 37  1  0
 15 38  1  0
 18 39  1  0
 18 40  1  0
 21 41  1  0
 22 42  1  0
 25 43  1  0
 26 44  1  0
 27 45  1  0
 30 46  1  0
M  CHG  2  12  -1  13   1
M  END
