
     RDKit          3D

 32 33  0  0  0  0  0  0  0  0999 V2000
    3.5640   -2.1964    0.5829 C   0  0  0  0  0  0  0  0  0  0  0  0
    4.6265    1.2636   -0.4886 C   0  0  0  0  0  0  0  0  0  0  0  0
   -2.6055   -1.1989   -0.6269 C   0  0  0  0  0  0  0  0  0  0  0  0
   -4.8627   -0.3436   -0.2590 C   0  0  0  0  0  0  0  0  0  0  0  0
   -4.2548    0.7846    0.3006 N   0  0  0  0  0  0  0  0  0  0  0  0
   -5.1360    1.8337    0.7974 C   0  0  0  0  0  0  0  0  0  0  0  0
   -3.9482   -1.3467   -0.7324 C   0  0  0  0  0  0  0  0  0  0  0  0
   -2.0486   -0.0317   -0.0428 C   0  0  0  0  0  0  0  0  0  0  0  0
   -2.9229    0.9255    0.3904 C   0  0  0  0  0  0  0  0  0  0  0  0
   -0.6015    0.2448    0.1118 C   0  0  0  0  0  0  0  0  0  0  0  0
   -0.1847    1.3686    0.3381 O   0  0  0  0  0  0  0  0  0  0  0  0
    0.2093   -0.8410   -0.0039 N   0  0  0  0  0  0  0  0  0  0  0  0
    1.6040   -0.8744    0.0952 C   0  0  0  0  0  0  0  0  0  0  0  0
    2.4233    0.2036   -0.2239 C   0  0  0  0  0  0  0  0  0  0  0  0
    3.8069    0.0770   -0.1286 C   0  0  0  0  0  0  0  0  0  0  0  0
    5.9288    1.0417   -0.3892 O   0  0  0  0  0  0  0  0  0  0  0  0
    4.1613    2.3215   -0.8395 O   0  0  0  0  0  0  0  0  0  0  0  0
    4.3854   -1.1224    0.2771 C   0  0  0  0  0  0  0  0  0  0  0  0
    2.1884   -2.0766    0.4972 C   0  0  0  0  0  0  0  0  0  0  0  0
    3.9973   -3.1357    0.8987 H   0  0  0  0  0  0  0  0  0  0  0  0
   -1.9709   -1.9825   -1.0224 H   0  0  0  0  0  0  0  0  0  0  0  0
   -5.7385    2.2382   -0.0126 H   0  0  0  0  0  0  0  0  0  0  0  0
   -5.7962    1.4398    1.5664 H   0  0  0  0  0  0  0  0  0  0  0  0
   -4.5333    2.6301    1.2219 H   0  0  0  0  0  0  0  0  0  0  0  0
   -4.3769   -2.2287   -1.1869 H   0  0  0  0  0  0  0  0  0  0  0  0
   -2.5716    1.8448    0.8371 H   0  0  0  0  0  0  0  0  0  0  0  0
   -0.2292   -1.7484   -0.0140 H   0  0  0  0  0  0  0  0  0  0  0  0
    2.0021    1.1371   -0.5602 H   0  0  0  0  0  0  0  0  0  0  0  0
    6.4200    1.8370   -0.6437 H   0  0  0  0  0  0  0  0  0  0  0  0
    5.4575   -1.2312    0.3557 H   0  0  0  0  0  0  0  0  0  0  0  0
    1.5594   -2.9230    0.7467 H   0  0  0  0  0  0  0  0  0  0  0  0
   -6.0829   -0.4130   -0.3168 O   0  0  0  0  0  0  0  0  0  0  0  0
 17  2  2  0
  2 16  1  0
  2 15  1  0
 15 18  1  0
 15 14  2  0
 18  1  2  0
  1 19  1  0
 14 13  1  0
 13 19  2  0
 13 12  1  0
 12 10  1  0
  6  5  1  0
  9  5  1  0
  9  8  2  0
 10 11  2  0
 10  8  1  0
  5  4  1  0
  8  3  1  0
  4 32  2  0
  4  7  1  0
  3  7  2  0
  1 20  1  0
  3 21  1  0
  6 22  1  0
  6 23  1  0
  6 24  1  0
  7 25  1  0
  9 26  1  0
 12 27  1  0
 14 28  1  0
 16 29  1  0
 18 30  1  0
 19 31  1  0
M  END
