
     RDKit          3D

 47 50  0  0  0  0  0  0  0  0999 V2000
   -1.1159    4.4731   -0.6382 O   0  0  0  0  0  0  0  0  0  0  0  0
   -4.6466   -0.8717   -0.1997 C   0  0  0  0  0  0  0  0  0  0  0  0
   -7.0429   -0.8832    0.4982 C   0  0  0  0  0  0  0  0  0  0  0  0
   -7.9976   -0.0394    1.3041 C   0  0  0  0  0  0  0  0  0  0  0  0
    1.2687    1.7960   -0.1099 C   0  0  0  0  0  0  0  0  0  0  0  0
    0.0483    2.4199   -0.3460 C   0  0  0  0  0  0  0  0  0  0  0  0
   -0.0731    3.8984   -0.4377 C   0  0  0  0  0  0  0  0  0  0  0  0
    2.6326   -0.2641    0.2271 C   0  0  0  0  0  0  0  0  0  0  0  0
    2.6803   -1.4134    1.0562 C   0  0  0  0  0  0  0  0  0  0  0  0
    3.8619   -2.0499    1.3083 C   0  0  0  0  0  0  0  0  0  0  0  0
    5.0668   -1.5769    0.7435 C   0  0  0  0  0  0  0  0  0  0  0  0
    5.0329   -0.4291   -0.0852 C   0  0  0  0  0  0  0  0  0  0  0  0
    6.3174   -2.1930    0.9641 C   0  0  0  0  0  0  0  0  0  0  0  0
    7.4304   -1.6656    0.3739 C   0  0  0  0  0  0  0  0  0  0  0  0
    7.2870   -0.5192   -0.4368 C   0  0  0  0  0  0  0  0  0  0  0  0
    1.0832    4.5229   -0.2767 O   0  0  0  0  0  0  0  0  0  0  0  0
   -5.7944   -0.3513    0.4021 N   0  0  0  0  0  0  0  0  0  0  0  0
   -2.2359   -1.7412   -1.3173 C   0  0  0  0  0  0  0  0  0  0  0  0
   -7.3652   -1.9508    0.0093 O   0  0  0  0  0  0  0  0  0  0  0  0
   -3.3957   -2.4822   -1.4673 C   0  0  0  0  0  0  0  0  0  0  0  0
    0.1775   -0.3380   -0.1901 C   0  0  0  0  0  0  0  0  0  0  0  0
    1.3428    0.4078   -0.0303 C   0  0  0  0  0  0  0  0  0  0  0  0
    3.7977    0.2093   -0.3275 C   0  0  0  0  0  0  0  0  0  0  0  0
   -4.6017   -2.0668   -0.9195 C   0  0  0  0  0  0  0  0  0  0  0  0
   -3.4768   -0.1232   -0.0534 C   0  0  0  0  0  0  0  0  0  0  0  0
   -2.2720   -0.5439   -0.6030 C   0  0  0  0  0  0  0  0  0  0  0  0
   -1.0523    0.2712   -0.4278 C   0  0  0  0  0  0  0  0  0  0  0  0
   -1.1052    1.6591   -0.5024 C   0  0  0  0  0  0  0  0  0  0  0  0
    6.1484    0.0792   -0.6637 N   0  0  0  0  0  0  0  0  0  0  0  0
   -7.8393    1.0283    1.1579 H   0  0  0  0  0  0  0  0  0  0  0  0
   -9.0232   -0.2838    1.0402 H   0  0  0  0  0  0  0  0  0  0  0  0
   -7.8618   -0.2513    2.3665 H   0  0  0  0  0  0  0  0  0  0  0  0
    2.1650    2.3835    0.0347 H   0  0  0  0  0  0  0  0  0  0  0  0
    1.7708   -1.7794    1.5149 H   0  0  0  0  0  0  0  0  0  0  0  0
    3.8860   -2.9197    1.9530 H   0  0  0  0  0  0  0  0  0  0  0  0
    6.3797   -3.0719    1.5941 H   0  0  0  0  0  0  0  0  0  0  0  0
    8.4079   -2.1054    0.5139 H   0  0  0  0  0  0  0  0  0  0  0  0
    8.1643   -0.0920   -0.9113 H   0  0  0  0  0  0  0  0  0  0  0  0
    0.9560    5.4811   -0.3420 H   0  0  0  0  0  0  0  0  0  0  0  0
   -5.6590    0.5355    0.8632 H   0  0  0  0  0  0  0  0  0  0  0  0
   -1.3151   -2.0816   -1.7731 H   0  0  0  0  0  0  0  0  0  0  0  0
   -3.3701   -3.4056   -2.0313 H   0  0  0  0  0  0  0  0  0  0  0  0
    0.2284   -1.4183   -0.1295 H   0  0  0  0  0  0  0  0  0  0  0  0
    3.7932    1.0727   -0.9815 H   0  0  0  0  0  0  0  0  0  0  0  0
   -5.4844   -2.6681   -1.0564 H   0  0  0  0  0  0  0  0  0  0  0  0
   -3.5071    0.7956    0.5223 H   0  0  0  0  0  0  0  0  0  0  0  0
   -2.0463    2.1538   -0.7043 H   0  0  0  0  0  0  0  0  0  0  0  0
 19  3  2  0
  3 17  1  0
  3  4  1  0
 17  2  1  0
  2 24  2  0
  2 25  1  0
 24 20  1  0
 25 26  2  0
 20 18  2  0
 26 18  1  0
 26 27  1  0
 10  9  2  0
 10 11  1  0
  9  8  1  0
 27 21  2  0
 27 28  1  0
 21 22  1  0
 28  6  2  0
 22  8  1  0
 22  5  2  0
  8 23  2  0
 11 13  2  0
 11 12  1  0
  1  7  2  0
 13 14  1  0
  6  5  1  0
  6  7  1  0
  7 16  1  0
 23 12  1  0
 12 29  2  0
 14 15  2  0
 15 29  1  0
  4 30  1  0
  4 31  1  0
  4 32  1  0
  5 33  1  0
  9 34  1  0
 10 35  1  0
 13 36  1  0
 14 37  1  0
 15 38  1  0
 16 39  1  0
 17 40  1  0
 18 41  1  0
 20 42  1  0
 21 43  1  0
 23 44  1  0
 24 45  1  0
 25 46  1  0
 28 47  1  0
M  END
