
     RDKit          3D

 20 19  0  0  0  0  0  0  0  0999 V2000
   -2.4685    0.6010   -0.1432 N   0  0  0  0  0  0  0  0  0  0  0  0
   -3.0663    1.5559    0.2824 O   0  0  0  0  0  0  0  0  0  0  0  0
   -2.8242   -0.5464   -0.0148 O   0  0  0  0  0  0  0  0  0  0  0  0
   -1.1925    0.8318   -0.8661 C   0  0  0  0  0  0  0  0  0  0  0  0
   -0.0023    0.3307   -0.0240 C   0  0  2  0  0  0  0  0  0  0  0  0
   -0.0393    0.8762    1.2562 O   0  0  0  0  0  0  0  0  0  0  0  0
    1.2574    0.7375   -0.7945 C   0  0  0  0  0  0  0  0  0  0  0  0
    2.5258    0.2244   -0.1676 C   0  0  0  0  0  0  0  0  0  0  0  0
    2.5836   -0.7131    0.5866 O   0  0  0  0  0  0  0  0  0  0  0  0
    3.5805    0.9132   -0.5719 O   0  0  0  0  0  0  0  0  0  0  0  0
   -0.0844   -1.1901    0.1658 C   0  0  0  0  0  0  0  0  0  0  0  0
   -0.2901   -1.7306    1.2149 O   0  0  0  0  0  0  0  0  0  0  0  0
    0.0729   -1.8127   -0.9906 O   0  0  0  0  0  0  0  0  0  0  0  0
   -1.2672    0.3208   -1.8243 H   0  0  0  0  0  0  0  0  0  0  0  0
   -1.1052    1.9027   -1.0392 H   0  0  0  0  0  0  0  0  0  0  0  0
    0.0888    1.8303    1.1990 H   0  0  0  0  0  0  0  0  0  0  0  0
    1.2220    0.3793   -1.8270 H   0  0  0  0  0  0  0  0  0  0  0  0
    1.2992    1.8274   -0.8651 H   0  0  0  0  0  0  0  0  0  0  0  0
    4.3911    0.5420   -0.1901 H   0  0  0  0  0  0  0  0  0  0  0  0
   -0.0012   -2.7717   -0.8719 H   0  0  0  0  0  0  0  0  0  0  0  0
  1  2  1  0
  1  3  2  0
  1  4  1  0
  4  5  1  0
  4 14  1  0
  4 15  1  0
  5  6  1  1
  5  7  1  0
  5 11  1  0
  6 16  1  0
  7  8  1  0
  7 17  1  0
  7 18  1  0
  8  9  2  0
  8 10  1  0
 10 19  1  0
 11 12  2  0
 11 13  1  0
 13 20  1  0
M  CHG  2   1   1   2  -1
M  END
