
     RDKit          3D

 18 17  0  0  0  0  0  0  0  0999 V2000
   -0.6260   -0.0026   -0.9283 C   0  0  0  0  0  0  0  0  0  0  0  0
    0.2976   -0.0069    0.2785 C   0  0  0  0  0  0  0  0  0  0  0  0
   -0.4885    0.0003    1.5838 C   0  0  0  0  0  0  0  0  0  0  0  0
    0.4294   -0.0019    2.7903 C   0  0  0  0  0  0  0  0  0  0  0  0
    0.0969   -0.0246   -2.2463 C   0  0  0  0  0  0  0  0  0  0  0  0
   -0.7489   -0.0163   -3.2732 O   0  0  0  0  0  0  0  0  0  0  0  0
   -0.3532   -0.0021    3.9652 O   0  0  0  0  0  0  0  0  0  0  0  0
    1.2947   -0.0470   -2.3849 O   0  0  0  0  0  0  0  0  0  0  0  0
   -1.3021   -0.8631   -0.8970 H   0  0  0  0  0  0  0  0  0  0  0  0
   -1.2754    0.8785   -0.9115 H   0  0  0  0  0  0  0  0  0  0  0  0
    0.9563    0.8650    0.2427 H   0  0  0  0  0  0  0  0  0  0  0  0
    0.9456   -0.8867    0.2458 H   0  0  0  0  0  0  0  0  0  0  0  0
   -1.1447   -0.8752    1.6244 H   0  0  0  0  0  0  0  0  0  0  0  0
   -1.1355    0.8827    1.6204 H   0  0  0  0  0  0  0  0  0  0  0  0
    1.0849    0.8784    2.7455 H   0  0  0  0  0  0  0  0  0  0  0  0
    1.0829   -0.8834    2.7439 H   0  0  0  0  0  0  0  0  0  0  0  0
   -0.2558   -0.0303   -4.1069 H   0  0  0  0  0  0  0  0  0  0  0  0
    0.2396    0.0034    4.7216 H   0  0  0  0  0  0  0  0  0  0  0  0
  1  2  1  0
  1  5  1  0
  1  9  1  0
  1 10  1  0
  2  3  1  0
  2 11  1  0
  2 12  1  0
  3  4  1  0
  3 13  1  0
  3 14  1  0
  4  7  1  0
  4 15  1  0
  4 16  1  0
  5  6  1  0
  5  8  2  0
  6 17  1  0
  7 18  1  0
M  END
