
     RDKit          3D

 32 33  0  0  0  0  0  0  0  0999 V2000
   -0.0427   -0.0104    3.7147 C   0  0  0  0  0  0  0  0  0  0  0  0
    0.9941    0.4749    2.9243 C   0  0  0  0  0  0  0  0  0  0  0  0
    0.8997    0.5276    1.5433 C   0  0  0  0  0  0  0  0  0  0  0  0
   -0.2599    0.0718    0.9139 C   0  0  0  0  0  0  0  0  0  0  0  0
   -1.3096   -0.4075    1.7013 C   0  0  0  0  0  0  0  0  0  0  0  0
   -1.2052   -0.4417    3.0782 C   0  0  0  0  0  0  0  0  0  0  0  0
    0.1114   -0.0811    5.1930 C   0  0  0  0  0  0  0  0  0  0  0  0
   -1.0433    0.0798    5.9002 N   0  0  0  0  0  0  0  0  0  0  0  0
    1.2128   -0.3189    5.7972 N   0  0  0  0  0  0  0  0  0  0  0  0
   -0.4719    0.0720   -0.4676 N   0  0  0  0  0  0  0  0  0  0  0  0
    0.4211    0.2500   -1.4648 C   0  0  0  0  0  0  0  0  0  0  0  0
    1.6167    0.4592   -1.2420 O   0  0  0  0  0  0  0  0  0  0  0  0
   -0.0840    0.1667   -2.8543 C   0  0  0  0  0  0  0  0  0  0  0  0
   -1.4463    0.1144   -3.1779 C   0  0  0  0  0  0  0  0  0  0  0  0
   -1.8771    0.0240   -4.4843 C   0  0  0  0  0  0  0  0  0  0  0  0
   -0.9346   -0.0180   -5.5103 C   0  0  0  0  0  0  0  0  0  0  0  0
    0.4136    0.0451   -5.2274 C   0  0  0  0  0  0  0  0  0  0  0  0
    0.8577    0.1510   -3.9061 C   0  0  0  0  0  0  0  0  0  0  0  0
    2.1713    0.2283   -3.7027 O   0  0  0  0  0  0  0  0  0  0  0  0
    1.8999    0.8450    3.3880 H   0  0  0  0  0  0  0  0  0  0  0  0
    1.7255    0.9279    0.9803 H   0  0  0  0  0  0  0  0  0  0  0  0
   -2.2166   -0.7666    1.2297 H   0  0  0  0  0  0  0  0  0  0  0  0
   -2.0344   -0.8345    3.6523 H   0  0  0  0  0  0  0  0  0  0  0  0
   -0.9420    0.1534    6.9001 H   0  0  0  0  0  0  0  0  0  0  0  0
   -1.7595    0.6727    5.5152 H   0  0  0  0  0  0  0  0  0  0  0  0
    1.9500   -0.5220    5.1324 H   0  0  0  0  0  0  0  0  0  0  0  0
   -1.4045   -0.1983   -0.7351 H   0  0  0  0  0  0  0  0  0  0  0  0
   -2.2029    0.1610   -2.4053 H   0  0  0  0  0  0  0  0  0  0  0  0
   -2.9348   -0.0101   -4.7044 H   0  0  0  0  0  0  0  0  0  0  0  0
   -1.2579   -0.0938   -6.5405 H   0  0  0  0  0  0  0  0  0  0  0  0
    1.1471    0.0225   -6.0231 H   0  0  0  0  0  0  0  0  0  0  0  0
    2.3085    0.3516   -2.7335 H   0  0  0  0  0  0  0  0  0  0  0  0
  1  2  2  0
  1  6  1  0
  1  7  1  0
  2  3  1  0
  2 20  1  0
  3  4  2  0
  3 21  1  0
  4  5  1  0
  4 10  1  0
  5  6  2  0
  5 22  1  0
  6 23  1  0
  7  8  1  0
  7  9  2  0
  8 24  1  0
  8 25  1  0
  9 26  1  0
 10 11  1  0
 10 27  1  0
 11 12  2  0
 11 13  1  0
 13 14  2  0
 13 18  1  0
 14 15  1  0
 14 28  1  0
 15 16  2  0
 15 29  1  0
 16 17  1  0
 16 30  1  0
 17 18  2  0
 17 31  1  0
 18 19  1  0
 19 32  1  0
M  END
