
     RDKit          3D

 16 16  0  0  0  0  0  0  0  0999 V2000
    1.7955   -0.0799   -0.0416 C   0  0  0  0  0  0  0  0  0  0  0  0
    0.3815    0.2322   -0.0004 C   0  0  0  0  0  0  0  0  0  0  0  0
    2.6731    0.7555   -0.0439 O   0  0  0  0  0  0  0  0  0  0  0  0
   -0.2168    1.4758    0.0403 C   0  0  0  0  0  0  0  0  0  0  0  0
   -1.6054    1.2679    0.0689 C   0  0  0  0  0  0  0  0  0  0  0  0
   -1.8253   -0.0994    0.0449 C   0  0  0  0  0  0  0  0  0  0  0  0
   -0.6196   -0.7043    0.0033 N   0  0  0  0  0  0  0  0  0  0  0  0
   -3.0993   -0.8657    0.0602 C   0  0  0  0  0  0  0  0  0  0  0  0
    0.3003    2.4225    0.0473 H   0  0  0  0  0  0  0  0  0  0  0  0
   -2.3747    2.0229    0.1030 H   0  0  0  0  0  0  0  0  0  0  0  0
   -0.4819   -1.7028   -0.0188 H   0  0  0  0  0  0  0  0  0  0  0  0
   -3.1956   -1.5021   -0.8212 H   0  0  0  0  0  0  0  0  0  0  0  0
   -3.1703   -1.5096    0.9385 H   0  0  0  0  0  0  0  0  0  0  0  0
   -3.9474   -0.1848    0.0754 H   0  0  0  0  0  0  0  0  0  0  0  0
    2.0319   -1.3913   -0.0769 O   0  0  0  0  0  0  0  0  0  0  0  0
    2.9862   -1.5540   -0.1011 H   0  0  0  0  0  0  0  0  0  0  0  0
  1  2  1  0
  1  3  2  0
  2  4  2  0
  2  7  1  0
  4  5  1  0
  5  6  2  0
  6  8  1  0
  6  7  1  0
  4  9  1  0
  5 10  1  0
  7 11  1  0
  8 12  1  0
  8 13  1  0
  8 14  1  0
  1 15  1  0
 15 16  1  0
M  END
