
     RDKit          3D

 78 82  0  0  0  0  0  0  0  0999 V2000
    2.6719    0.8203   -1.5212 C   0  0  2  0  0  0  0  0  0  0  0  0
    1.4283   -3.0448   -0.4573 C   0  0  0  0  0  0  0  0  0  0  0  0
    0.0328   -3.3480    1.4788 C   0  0  0  0  0  0  0  0  0  0  0  0
    0.8401   -2.4822    2.2044 C   0  0  0  0  0  0  0  0  0  0  0  0
    1.9486   -1.8945    1.6081 C   0  0  0  0  0  0  0  0  0  0  0  0
    1.0894    2.3477   -0.2614 C   0  0  0  0  0  0  0  0  0  0  0  0
    1.0435    3.0924    1.0436 C   0  0  0  0  0  0  0  0  0  0  0  0
    0.3833    3.2816    3.3763 C   0  0  0  0  0  0  0  0  0  0  0  0
    1.7459    4.2773    1.2229 C   0  0  0  0  0  0  0  0  0  0  0  0
   -1.6614    1.3588    1.6883 C   0  0  0  0  0  0  0  0  0  0  0  0
   -2.3359    0.0111    1.8160 C   0  0  0  0  0  0  0  0  0  0  0  0
    0.3277   -3.6287    0.1495 C   0  0  0  0  0  0  0  0  0  0  0  0
    1.0984    4.4621    3.5040 C   0  0  0  0  0  0  0  0  0  0  0  0
   -3.2839    0.4109   -1.7723 C   0  0  0  0  0  0  0  0  0  0  0  0
   -1.2952   -0.5764   -0.8948 C   0  0  0  0  0  0  0  0  0  0  0  0
   -5.0737   -1.6730    1.6979 C   0  0  0  0  0  0  0  0  0  0  0  0
   -3.5010   -2.7845    0.2839 C   0  0  0  0  0  0  0  0  0  0  0  0
    1.7878    4.9721    2.4156 C   0  0  0  0  0  0  0  0  0  0  0  0
   -2.6898    0.5317   -3.0196 C   0  0  0  0  0  0  0  0  0  0  0  0
   -0.6808   -0.4699   -2.1338 C   0  0  0  0  0  0  0  0  0  0  0  0
   -5.7032   -2.8774    1.9721 C   0  0  0  0  0  0  0  0  0  0  0  0
   -4.1147   -4.0031    0.5454 C   0  0  0  0  0  0  0  0  0  0  0  0
   -2.6007   -0.1411   -0.6924 C   0  0  0  0  0  0  0  0  0  0  0  0
   -3.9652   -1.6047    0.8562 C   0  0  0  0  0  0  0  0  0  0  0  0
    0.3610    2.6072    2.1628 C   0  0  0  0  0  0  0  0  0  0  0  0
   -1.3913    0.0875   -3.1771 C   0  0  0  0  0  0  0  0  0  0  0  0
   -5.2064   -4.0272    1.3890 C   0  0  0  0  0  0  0  0  0  0  0  0
    2.2243   -2.1757    0.2785 C   0  0  0  0  0  0  0  0  0  0  0  0
    4.8151    0.1770   -3.3179 C   0  0  0  0  0  0  0  0  0  0  0  0
    3.8577    1.7525   -1.7815 C   0  0  0  0  0  0  0  0  0  0  0  0
    3.6639   -0.8071   -3.0942 C   0  0  2  0  0  0  0  0  0  0  0  0
    2.5815   -0.7352   -4.1611 C   0  0  0  0  0  0  0  0  0  0  0  0
    2.0028    1.1114   -0.1804 C   0  0  0  0  0  0  0  0  0  0  0  0
   -3.2874   -0.2642    0.6466 C   0  0  1  0  0  0  0  0  0  0  0  0
    3.0808   -0.5881   -1.7464 N   0  0  0  0  0  0  0  0  0  0  0  0
    4.4745    1.5663   -3.0807 N   0  0  0  0  0  0  0  0  0  0  0  0
   -2.2449    2.3451    1.2773 O   0  0  0  0  0  0  0  0  0  0  0  0
   -0.8049    0.2043   -4.3803 F   0  0  0  0  0  0  0  0  0  0  0  0
   -5.8098   -5.2002    1.6449 F   0  0  0  0  0  0  0  0  0  0  0  0
    2.4336    4.7808    0.1819 F   0  0  0  0  0  0  0  0  0  0  0  0
    3.6735   -1.4973   -0.4970 S   0  0  1  0  0  0  0  0  0  0  0  0
    1.9182    1.0019   -2.2948 H   0  0  0  0  0  0  0  0  0  0  0  0
    1.6510   -3.2622   -1.4941 H   0  0  0  0  0  0  0  0  0  0  0  0
   -0.8289   -3.8023    1.9498 H   0  0  0  0  0  0  0  0  0  0  0  0
    0.6159   -2.2686    3.2412 H   0  0  0  0  0  0  0  0  0  0  0  0
    2.5786   -1.2241    2.1765 H   0  0  0  0  0  0  0  0  0  0  0  0
    0.0860    2.0319   -0.5511 H   0  0  0  0  0  0  0  0  0  0  0  0
    1.4267    3.0202   -1.0498 H   0  0  0  0  0  0  0  0  0  0  0  0
   -0.1610    2.8750    4.2185 H   0  0  0  0  0  0  0  0  0  0  0  0
    0.0401    0.5703    2.4982 H   0  0  0  0  0  0  0  0  0  0  0  0
   -1.6061   -0.7954    1.9230 H   0  0  0  0  0  0  0  0  0  0  0  0
   -2.9085    0.0175    2.7482 H   0  0  0  0  0  0  0  0  0  0  0  0
   -0.2991   -4.3026   -0.4188 H   0  0  0  0  0  0  0  0  0  0  0  0
    1.1202    4.9870    4.4492 H   0  0  0  0  0  0  0  0  0  0  0  0
   -0.7324   -1.0217   -0.0849 H   0  0  0  0  0  0  0  0  0  0  0  0
   -5.4600   -0.7671    2.1501 H   0  0  0  0  0  0  0  0  0  0  0  0
   -2.6566   -2.7686   -0.3924 H   0  0  0  0  0  0  0  0  0  0  0  0
    2.3536    5.8916    2.4886 H   0  0  0  0  0  0  0  0  0  0  0  0
   -3.2261    0.9682   -3.8519 H   0  0  0  0  0  0  0  0  0  0  0  0
    0.3332   -0.8189   -2.2769 H   0  0  0  0  0  0  0  0  0  0  0  0
   -6.5660   -2.9180    2.6238 H   0  0  0  0  0  0  0  0  0  0  0  0
   -3.7493   -4.9157    0.0925 H   0  0  0  0  0  0  0  0  0  0  0  0
    5.6389   -0.0961   -2.6493 H   0  0  0  0  0  0  0  0  0  0  0  0
    5.1918    0.0709   -4.3375 H   0  0  0  0  0  0  0  0  0  0  0  0
    3.5350    2.7914   -1.6910 H   0  0  0  0  0  0  0  0  0  0  0  0
    4.6098    1.5856   -1.0041 H   0  0  0  0  0  0  0  0  0  0  0  0
    4.0718   -1.8148   -3.1240 H   0  0  0  0  0  0  0  0  0  0  0  0
    3.0270   -0.9397   -5.1351 H   0  0  0  0  0  0  0  0  0  0  0  0
    1.8160   -1.4904   -3.9854 H   0  0  0  0  0  0  0  0  0  0  0  0
    2.0923    0.2360   -4.2275 H   0  0  0  0  0  0  0  0  0  0  0  0
    1.3952    0.2653    0.1354 H   0  0  0  0  0  0  0  0  0  0  0  0
    2.7614    1.2614    0.5891 H   0  0  0  0  0  0  0  0  0  0  0  0
   -4.0697    0.4985    0.6795 H   0  0  0  0  0  0  0  0  0  0  0  0
    3.8499    1.8995   -3.8052 H   0  0  0  0  0  0  0  0  0  0  0  0
   -0.3635    1.3905    2.0710 N   0  0  0  0  0  0  0  0  0  0  0  0
    4.3631   -0.6774    0.4905 O   0  0  0  0  0  0  0  0  0  0  0  0
    4.3936   -2.6223   -1.0787 O   0  0  0  0  0  0  0  0  0  0  0  0
   -4.3010    0.7596   -1.6401 H   0  0  0  0  0  0  0  0  0  0  0  0
 39 27  1  0
 27 21  1  0
 27 22  2  0
 21 16  2  0
 22 17  1  0
 16 24  1  0
 17 24  2  0
 24 34  1  0
 19 26  1  0
 19 14  2  0
 38 26  1  0
 26 20  2  0
 14 23  1  0
 20 15  1  0
 23 15  2  0
 23 34  1  0
 12  3  1  0
 12  2  2  0
  3  4  2  0
 34 11  1  0
  2 28  1  0
 11 10  1  0
  4  5  1  0
 76 41  2  0
 28  5  2  0
 41 28  1  1
 10 75  1  0
 10 37  2  0
 41 77  2  0
 41 35  1  0
 30  1  1  0
 30 36  1  0
 75 25  1  0
  1 35  1  0
  1 33  1  0
 35 31  1  0
  6 33  1  0
  6  7  1  0
 36 29  1  0
 29 31  1  0
 25  7  1  0
 25  8  2  0
 31 32  1  0
  7  9  2  0
  8 13  1  0
  9 40  1  0
  9 18  1  0
 13 18  2  0
  1 42  1  6
  2 43  1  0
  3 44  1  0
  4 45  1  0
  5 46  1  0
  6 47  1  0
  6 48  1  0
  8 49  1  0
 75 50  1  0
 11 51  1  0
 11 52  1  0
 12 53  1  0
 13 54  1  0
 14 78  1  0
 15 55  1  0
 16 56  1  0
 17 57  1  0
 18 58  1  0
 19 59  1  0
 20 60  1  0
 21 61  1  0
 22 62  1  0
 29 63  1  0
 29 64  1  0
 30 65  1  0
 30 66  1  0
 31 67  1  1
 32 68  1  0
 32 69  1  0
 32 70  1  0
 33 71  1  0
 33 72  1  0
 34 73  1  6
 36 74  1  0
M  END
