
     RDKit          3D

 24 25  0  0  0  0  0  0  0  0999 V2000
   -4.0537   -1.0792   -0.3634 C   0  0  0  0  0  0  0  0  0  0  0  0
   -2.6710   -1.1352   -0.3881 C   0  0  0  0  0  0  0  0  0  0  0  0
   -1.9358   -0.0341    0.0457 C   0  0  0  0  0  0  0  0  0  0  0  0
   -2.6564    1.0736    0.4942 C   0  0  0  0  0  0  0  0  0  0  0  0
   -4.6629    0.0794    0.0951 C   0  0  0  0  0  0  0  0  0  0  0  0
   -0.4633   -0.0301    0.0413 C   0  0  0  0  0  0  0  0  0  0  0  0
    0.2536   -1.1859    0.3568 C   0  0  0  0  0  0  0  0  0  0  0  0
    1.6360   -1.1825    0.3555 C   0  0  0  0  0  0  0  0  0  0  0  0
    2.3392   -0.0214    0.0413 C   0  0  0  0  0  0  0  0  0  0  0  0
    1.6310    1.1361   -0.2766 C   0  0  0  0  0  0  0  0  0  0  0  0
    0.2470    1.1279   -0.2780 C   0  0  0  0  0  0  0  0  0  0  0  0
    3.8212   -0.0664    0.0585 C   0  0  0  0  0  0  0  0  0  0  0  0
   -3.9795    1.1359    0.5200 N   0  0  0  0  0  0  0  0  0  0  0  0
    4.4597   -1.0660    0.2884 O   0  0  0  0  0  0  0  0  0  0  0  0
    4.3793    1.1072   -0.2020 O   0  0  0  0  0  0  0  0  0  0  0  0
   -4.6507   -1.9147   -0.7017 H   0  0  0  0  0  0  0  0  0  0  0  0
   -2.1699   -2.0197   -0.7603 H   0  0  0  0  0  0  0  0  0  0  0  0
   -2.1294    1.9455    0.8677 H   0  0  0  0  0  0  0  0  0  0  0  0
   -5.7439    0.1570    0.1204 H   0  0  0  0  0  0  0  0  0  0  0  0
   -0.2709   -2.0933    0.6274 H   0  0  0  0  0  0  0  0  0  0  0  0
    2.1694   -2.0876    0.6123 H   0  0  0  0  0  0  0  0  0  0  0  0
    2.1473    2.0495   -0.5371 H   0  0  0  0  0  0  0  0  0  0  0  0
   -0.2823    2.0310   -0.5532 H   0  0  0  0  0  0  0  0  0  0  0  0
    5.3443    1.0271   -0.1755 H   0  0  0  0  0  0  0  0  0  0  0  0
 14 12  2  0
  8  7  2  0
  8  9  1  0
  4 13  2  0
  4  3  1  0
  7  6  1  0
 13  5  1  0
 12 15  1  0
 12  9  1  0
  9 10  2  0
  6  3  1  0
  6 11  2  0
  3  2  2  0
  5  1  2  0
 10 11  1  0
  2  1  1  0
  1 16  1  0
  2 17  1  0
  4 18  1  0
  5 19  1  0
  7 20  1  0
  8 21  1  0
 10 22  1  0
 11 23  1  0
 15 24  1  0
M  END
