
     RDKit          3D

 19 19  0  0  0  0  0  0  0  0999 V2000
    3.3576   -0.1628    0.0203 O   0  0  0  0  0  0  0  0  0  0  0  0
    2.0399   -0.2665    0.5004 C   0  0  0  0  0  0  0  0  0  0  0  0
    1.1126   -0.1766   -0.7021 C   0  0  0  0  0  0  0  0  0  0  0  0
   -0.2740   -0.2912   -0.3090 N   0  0  0  0  0  0  0  0  0  0  0  0
   -0.9525   -1.4640   -0.1062 C   0  0  0  0  0  0  0  0  0  0  0  0
   -2.1957   -1.0982    0.3128 C   0  0  0  0  0  0  0  0  0  0  0  0
   -2.2893    0.2641    0.3755 N   0  0  0  0  0  0  0  0  0  0  0  0
   -1.1195    0.7233    0.0011 C   0  0  0  0  0  0  0  0  0  0  0  0
   -0.7415    2.1579   -0.0918 C   0  0  0  0  0  0  0  0  0  0  0  0
    3.9586   -0.2418    0.7665 H   0  0  0  0  0  0  0  0  0  0  0  0
    1.8648   -1.2170    1.0196 H   0  0  0  0  0  0  0  0  0  0  0  0
    1.7966    0.5355    1.2094 H   0  0  0  0  0  0  0  0  0  0  0  0
    1.2545    0.7728   -1.2187 H   0  0  0  0  0  0  0  0  0  0  0  0
    1.3378   -0.9715   -1.4135 H   0  0  0  0  0  0  0  0  0  0  0  0
   -0.5017   -2.4260   -0.2855 H   0  0  0  0  0  0  0  0  0  0  0  0
   -3.0251   -1.7403    0.5672 H   0  0  0  0  0  0  0  0  0  0  0  0
   -0.4492    2.4384   -1.1049 H   0  0  0  0  0  0  0  0  0  0  0  0
   -1.5923    2.7715    0.1947 H   0  0  0  0  0  0  0  0  0  0  0  0
    0.0902    2.4076    0.5694 H   0  0  0  0  0  0  0  0  0  0  0  0
  6  5  2  0
  6  7  1  0
  5  4  1  0
  7  8  2  0
  4  3  1  0
  4  8  1  0
  3  2  1  0
  8  9  1  0
  1  2  1  0
  1 10  1  0
  2 11  1  0
  2 12  1  0
  3 13  1  0
  3 14  1  0
  5 15  1  0
  6 16  1  0
  9 17  1  0
  9 18  1  0
  9 19  1  0
M  END
