
     RDKit          3D

 40 43  0  0  0  0  0  0  0  0999 V2000
   -0.1533    0.4756   -0.3378 C   0  0  0  0  0  0  0  0  0  0  0  0
    0.4171    1.7790   -0.1830 C   0  0  0  0  0  0  0  0  0  0  0  0
    1.8130    1.8182    0.0300 C   0  0  0  0  0  0  0  0  0  0  0  0
    2.5517    0.6790    0.0980 N   0  0  0  0  0  0  0  0  0  0  0  0
    0.5988   -0.6057   -0.2684 N   0  0  0  0  0  0  0  0  0  0  0  0
    4.0871   -1.6543    0.2468 C   0  0  0  0  0  0  0  0  0  0  0  0
    4.8310   -2.8215    0.3163 C   0  0  0  0  0  0  0  0  0  0  0  0
    4.2104   -4.0568    0.1734 C   0  0  0  0  0  0  0  0  0  0  0  0
    2.8396   -4.1145   -0.0406 C   0  0  0  0  0  0  0  0  0  0  0  0
    2.0939   -2.9468   -0.1106 C   0  0  0  0  0  0  0  0  0  0  0  0
    2.7086   -1.7024    0.0319 C   0  0  0  0  0  0  0  0  0  0  0  0
    1.9141   -0.4524   -0.0455 C   0  0  0  0  0  0  0  0  0  0  0  0
    2.4597    3.0522    0.1814 C   0  0  0  0  0  0  0  0  0  0  0  0
    1.7501    4.2428    0.1279 C   0  0  0  0  0  0  0  0  0  0  0  0
    2.3707    5.4530    0.2223 N   0  0  0  0  0  0  0  0  0  0  0  0
    0.3456    4.1906   -0.0746 C   0  0  0  0  0  0  0  0  0  0  0  0
   -0.2945    2.9924   -0.2222 C   0  0  0  0  0  0  0  0  0  0  0  0
   -1.4724    0.3171   -0.5451 N   0  0  0  0  0  0  0  0  0  0  0  0
   -2.0857   -0.9669   -0.8075 C   0  0  0  0  0  0  0  0  0  0  0  0
   -3.5412   -0.9322   -0.4831 C   0  0  0  0  0  0  0  0  0  0  0  0
   -4.0946   -0.4291    1.0715 S   0  0  0  0  0  0  0  0  0  0  0  0
   -5.7333   -0.7033    0.6450 C   0  0  0  0  0  0  0  0  0  0  0  0
   -5.8481   -1.1606   -0.6307 C   0  0  0  0  0  0  0  0  0  0  0  0
   -4.5874   -1.2875   -1.2789 C   0  0  0  0  0  0  0  0  0  0  0  0
    5.8993   -2.7675    0.4813 H   0  0  0  0  0  0  0  0  0  0  0  0
    4.7927   -4.9675    0.2301 H   0  0  0  0  0  0  0  0  0  0  0  0
    2.3480   -5.0719   -0.1550 H   0  0  0  0  0  0  0  0  0  0  0  0
    1.0265   -2.9976   -0.2755 H   0  0  0  0  0  0  0  0  0  0  0  0
    3.5313    3.0569    0.3413 H   0  0  0  0  0  0  0  0  0  0  0  0
    3.2953    5.4724    0.6194 H   0  0  0  0  0  0  0  0  0  0  0  0
    1.8073    6.2480    0.4740 H   0  0  0  0  0  0  0  0  0  0  0  0
   -0.2217    5.1123   -0.1112 H   0  0  0  0  0  0  0  0  0  0  0  0
   -1.3679    3.0071   -0.3649 H   0  0  0  0  0  0  0  0  0  0  0  0
   -2.0174    1.1283   -0.7859 H   0  0  0  0  0  0  0  0  0  0  0  0
   -1.9671   -1.2635   -1.8544 H   0  0  0  0  0  0  0  0  0  0  0  0
   -1.5728   -1.7192   -0.2083 H   0  0  0  0  0  0  0  0  0  0  0  0
   -6.5218   -0.5028    1.3538 H   0  0  0  0  0  0  0  0  0  0  0  0
   -6.7942   -1.3912   -1.0988 H   0  0  0  0  0  0  0  0  0  0  0  0
   -4.4615   -1.6275   -2.2979 H   0  0  0  0  0  0  0  0  0  0  0  0
    4.5746   -0.6956    0.3601 H   0  0  0  0  0  0  0  0  0  0  0  0
 21 22  1  0
 21 20  1  0
 22 23  2  0
 23 24  1  0
 20 24  2  0
 20 19  1  0
 19 18  1  0
 18  1  1  0
  7  6  2  0
  7  8  1  0
  6 11  1  0
  1  5  2  0
  1  2  1  0
  5 12  1  0
  8  9  2  0
 11 12  1  0
 11 10  2  0
 12  4  2  0
  2 17  1  0
  2  3  2  0
 17 16  2  0
  9 10  1  0
  4  3  1  0
  3 13  1  0
 16 14  1  0
 13 14  2  0
 14 15  1  0
  6 40  1  0
  7 25  1  0
  8 26  1  0
  9 27  1  0
 10 28  1  0
 13 29  1  0
 15 30  1  0
 15 31  1  0
 16 32  1  0
 17 33  1  0
 18 34  1  0
 19 35  1  0
 19 36  1  0
 22 37  1  0
 23 38  1  0
 24 39  1  0
M  END
