
     RDKit          3D

 21 21  0  0  0  0  0  0  0  0999 V2000
    0.6008   -0.0463   -3.5078 O   0  0  0  0  0  0  0  0  0  0  0  0
   -0.4260   -0.0343   -2.5553 C   0  0  0  0  0  0  0  0  0  0  0  0
    0.1644   -0.0455   -1.1700 C   0  0  0  0  0  0  0  0  0  0  0  0
    1.5277   -0.0266   -0.9622 C   0  0  0  0  0  0  0  0  0  0  0  0
    2.0842   -0.0346    0.2534 N   0  0  0  0  0  0  0  0  0  0  0  0
    1.3399   -0.0600    1.3366 C   0  0  0  0  0  0  0  0  0  0  0  0
   -0.0672   -0.0791    1.2394 C   0  0  0  0  0  0  0  0  0  0  0  0
   -0.6605   -0.0719   -0.0280 C   0  0  0  0  0  0  0  0  0  0  0  0
   -2.1174   -0.0907   -0.1375 C   0  0  0  0  0  0  0  0  0  0  0  0
   -2.8630   -0.1151    0.8280 O   0  0  0  0  0  0  0  0  0  0  0  0
   -0.7622   -0.1029    2.3695 O   0  0  0  0  0  0  0  0  0  0  0  0
    2.0032   -0.0694    2.6776 C   0  0  0  0  0  0  0  0  0  0  0  0
    0.1963   -0.0152   -4.3794 H   0  0  0  0  0  0  0  0  0  0  0  0
   -1.0865   -0.9040   -2.6685 H   0  0  0  0  0  0  0  0  0  0  0  0
   -1.0616    0.8550   -2.6614 H   0  0  0  0  0  0  0  0  0  0  0  0
    2.2184   -0.0051   -1.7934 H   0  0  0  0  0  0  0  0  0  0  0  0
   -2.5456   -0.0807   -1.1484 H   0  0  0  0  0  0  0  0  0  0  0  0
   -1.7173   -0.1146    2.1495 H   0  0  0  0  0  0  0  0  0  0  0  0
    1.7075    0.7929    3.2775 H   0  0  0  0  0  0  0  0  0  0  0  0
    1.7391   -0.9605    3.2492 H   0  0  0  0  0  0  0  0  0  0  0  0
    3.0836   -0.0480    2.5548 H   0  0  0  0  0  0  0  0  0  0  0  0
  1  2  1  0
  1 13  1  0
  2  3  1  0
  2 14  1  0
  2 15  1  0
  3  4  2  0
  3  8  1  0
  4  5  1  0
  4 16  1  0
  5  6  2  0
  6  7  1  0
  6 12  1  0
  7  8  2  0
  7 11  1  0
  8  9  1  0
  9 10  2  0
  9 17  1  0
 11 18  1  0
 12 19  1  0
 12 20  1  0
 12 21  1  0
M  END
