
     RDKit          3D

 52 55  0  0  0  0  0  0  0  0999 V2000
    1.8022   -0.2927    2.1301 C   0  0  0  0  0  0  0  0  0  0  0  0
   -1.3122    0.7435    0.2914 C   0  0  0  0  0  0  0  0  0  0  0  0
    0.0925    0.4057    0.5692 C   0  0  0  0  0  0  0  0  0  0  0  0
   -3.2390    1.6222   -0.3821 C   0  0  0  0  0  0  0  0  0  0  0  0
   -4.7728   -0.7552    1.9379 C   0  0  0  0  0  0  0  0  0  0  0  0
   -1.8618    1.8692   -0.3816 C   0  0  0  0  0  0  0  0  0  0  0  0
   -7.1088   -1.7594   -0.9113 C   0  0  0  0  0  0  0  0  0  0  0  0
    5.4111   -1.8019   -0.1441 C   0  0  0  0  0  0  0  0  0  0  0  0
    1.0387    0.3574   -0.4506 C   0  0  0  0  0  0  0  0  0  0  0  0
    2.3537   -0.0057   -0.1987 C   0  0  0  0  0  0  0  0  0  0  0  0
    2.7335   -0.3274    1.0976 C   0  0  0  0  0  0  0  0  0  0  0  0
    0.4946    0.0677    1.8619 C   0  0  0  0  0  0  0  0  0  0  0  0
   -3.4177    0.4633    0.2770 N   0  0  0  0  0  0  0  0  0  0  0  0
   -2.2500   -0.0891    0.6698 N   0  0  0  0  0  0  0  0  0  0  0  0
   -4.6576   -0.2465    0.5031 C   0  0  1  0  0  0  0  0  0  0  0  0
   -6.0729   -1.5336    2.1224 C   0  0  0  0  0  0  0  0  0  0  0  0
   -6.1841   -2.6568    1.1037 C   0  0  0  0  0  0  0  0  0  0  0  0
   -6.0276   -2.1370   -0.2594 N   0  0  0  0  0  0  0  0  0  0  0  0
   -4.7912   -1.4012   -0.4958 C   0  0  0  0  0  0  0  0  0  0  0  0
   -8.0569   -1.4666   -1.5108 N   0  0  0  0  0  0  0  0  0  0  0  0
   -4.2590    2.3893   -0.8421 N   0  0  0  0  0  0  0  0  0  0  0  0
   -1.9428    3.8447   -1.6454 O   0  0  0  0  0  0  0  0  0  0  0  0
    0.0057    3.3628   -0.6344 N   0  0  0  0  0  0  0  0  0  0  0  0
    3.9967   -0.7078    1.4441 O   0  0  0  0  0  0  0  0  0  0  0  0
    4.9873   -0.6558    0.5066 C   0  0  0  0  0  0  0  0  0  0  0  0
    6.4582   -1.7509   -1.0535 C   0  0  0  0  0  0  0  0  0  0  0  0
    7.0596   -0.5327   -1.2996 C   0  0  0  0  0  0  0  0  0  0  0  0
    6.6605    0.6336   -0.6723 C   0  0  0  0  0  0  0  0  0  0  0  0
    5.6196    0.5488    0.2284 C   0  0  0  0  0  0  0  0  0  0  0  0
    5.1982    1.6511    0.8512 F   0  0  0  0  0  0  0  0  0  0  0  0
    8.0672   -0.4682   -2.1778 F   0  0  0  0  0  0  0  0  0  0  0  0
    2.1058   -0.5440    3.1382 H   0  0  0  0  0  0  0  0  0  0  0  0
   -3.9225   -1.4024    2.1647 H   0  0  0  0  0  0  0  0  0  0  0  0
   -4.7318    0.0891    2.6280 H   0  0  0  0  0  0  0  0  0  0  0  0
    4.9229   -2.7441    0.0678 H   0  0  0  0  0  0  0  0  0  0  0  0
    0.7501    0.5920   -1.4671 H   0  0  0  0  0  0  0  0  0  0  0  0
    3.0555   -0.0440   -1.0211 H   0  0  0  0  0  0  0  0  0  0  0  0
   -0.2232    0.0971    2.6711 H   0  0  0  0  0  0  0  0  0  0  0  0
   -5.4700    0.4658    0.3336 H   0  0  0  0  0  0  0  0  0  0  0  0
   -6.1131   -1.9559    3.1278 H   0  0  0  0  0  0  0  0  0  0  0  0
   -6.9332   -0.8653    2.0237 H   0  0  0  0  0  0  0  0  0  0  0  0
   -5.3946   -3.3960    1.2568 H   0  0  0  0  0  0  0  0  0  0  0  0
   -7.1384   -3.1761    1.1736 H   0  0  0  0  0  0  0  0  0  0  0  0
   -4.7735   -1.0419   -1.5244 H   0  0  0  0  0  0  0  0  0  0  0  0
   -3.9568   -2.0944   -0.3709 H   0  0  0  0  0  0  0  0  0  0  0  0
   -5.0946    1.9253   -1.1597 H   0  0  0  0  0  0  0  0  0  0  0  0
   -3.9536    3.1286   -1.4567 H   0  0  0  0  0  0  0  0  0  0  0  0
    0.5328    2.8273    0.0325 H   0  0  0  0  0  0  0  0  0  0  0  0
    0.4230    4.2121   -0.9778 H   0  0  0  0  0  0  0  0  0  0  0  0
    6.7927   -2.6446   -1.5619 H   0  0  0  0  0  0  0  0  0  0  0  0
    7.1436    1.5803   -0.8763 H   0  0  0  0  0  0  0  0  0  0  0  0
   -1.2750    3.0887   -0.9348 C   0  0  0  0  0  0  0  0  0  0  0  0
 31 27  1  0
 26 27  1  0
 26  8  2  0
 27 28  2  0
  8 25  1  0
 23 52  1  0
 28 29  1  0
 22 52  2  0
 25 29  2  0
 25 24  1  0
 29 30  1  0
 52  6  1  0
 24 11  1  0
 10 11  1  0
 10  9  2  0
 11  1  2  0
  9  3  1  0
  6  2  1  0
  6  4  2  0
  1 12  1  0
  3 12  2  0
  3  2  1  0
  2 14  2  0
 21  4  1  0
  4 13  1  0
 14 13  1  0
 13 15  1  0
 15 19  1  0
 15  5  1  0
 19 18  1  0
  5 16  1  0
 18  7  1  0
 18 17  1  0
 16 17  1  0
  7 20  3  0
  1 32  1  0
  5 33  1  0
  5 34  1  0
  8 35  1  0
  9 36  1  0
 10 37  1  0
 12 38  1  0
 15 39  1  6
 16 40  1  0
 16 41  1  0
 17 42  1  0
 17 43  1  0
 19 44  1  0
 19 45  1  0
 21 46  1  0
 21 47  1  0
 23 48  1  0
 23 49  1  0
 26 50  1  0
 28 51  1  0
M  END
