
     RDKit          3D

 41 42  0  0  0  0  0  0  0  0999 V2000
    6.6073   -0.3721    0.6095 O   0  0  0  0  0  0  0  0  0  0  0  0
    5.4736    0.2622    0.8641 C   0  0  0  0  0  0  0  0  0  0  0  0
    5.3839    1.1753    1.6485 O   0  0  0  0  0  0  0  0  0  0  0  0
    4.3249   -0.2706    0.0861 C   0  0  0  0  0  0  0  0  0  0  0  0
    4.4672   -1.3080   -0.8345 C   0  0  0  0  0  0  0  0  0  0  0  0
    3.3622   -1.7627   -1.5353 C   0  0  0  0  0  0  0  0  0  0  0  0
    2.1136   -1.2022   -1.3135 C   0  0  0  0  0  0  0  0  0  0  0  0
    3.0747    0.2991    0.2955 C   0  0  0  0  0  0  0  0  0  0  0  0
    1.9605   -0.1721   -0.3876 C   0  0  0  0  0  0  0  0  0  0  0  0
    0.6460    0.4867   -0.1162 C   0  0  0  0  0  0  0  0  0  0  0  0
    0.5856    1.6378    0.2761 O   0  0  0  0  0  0  0  0  0  0  0  0
   -0.4383   -0.2998   -0.3261 N   0  0  0  0  0  0  0  0  0  0  0  0
   -1.7799    0.0510   -0.1340 C   0  0  0  0  0  0  0  0  0  0  0  0
   -2.2750    1.3265   -0.3198 C   0  0  0  0  0  0  0  0  0  0  0  0
   -3.6332    1.6047   -0.1313 C   0  0  0  0  0  0  0  0  0  0  0  0
   -4.1134    2.9926   -0.3427 C   0  0  0  0  0  0  0  0  0  0  0  0
   -3.3405    3.8744   -0.6633 O   0  0  0  0  0  0  0  0  0  0  0  0
   -5.5795    3.2778   -0.1531 C   0  0  0  0  0  0  0  0  0  0  0  0
   -4.4894    0.5734    0.2350 C   0  0  0  0  0  0  0  0  0  0  0  0
   -4.0129   -0.7166    0.4103 C   0  0  0  0  0  0  0  0  0  0  0  0
   -2.6625   -0.9882    0.2342 C   0  0  0  0  0  0  0  0  0  0  0  0
   -2.0997   -2.1910    0.3806 O   0  0  0  0  0  0  0  0  0  0  0  0
   -2.9135   -3.3296    0.6579 C   0  0  0  0  0  0  0  0  0  0  0  0
   -2.0101   -4.5371    0.7155 C   0  0  0  0  0  0  0  0  0  0  0  0
    7.3250    0.0048    1.1403 H   0  0  0  0  0  0  0  0  0  0  0  0
    5.4314   -1.7621   -1.0149 H   0  0  0  0  0  0  0  0  0  0  0  0
    3.4721   -2.5559   -2.2617 H   0  0  0  0  0  0  0  0  0  0  0  0
    1.2730   -1.5622   -1.8934 H   0  0  0  0  0  0  0  0  0  0  0  0
    2.9648    1.1086    1.0044 H   0  0  0  0  0  0  0  0  0  0  0  0
   -0.2716   -1.2825   -0.4799 H   0  0  0  0  0  0  0  0  0  0  0  0
   -1.6137    2.1234   -0.6230 H   0  0  0  0  0  0  0  0  0  0  0  0
   -5.8941    3.0476    0.8662 H   0  0  0  0  0  0  0  0  0  0  0  0
   -5.7867    4.3263   -0.3537 H   0  0  0  0  0  0  0  0  0  0  0  0
   -6.1882    2.6665   -0.8210 H   0  0  0  0  0  0  0  0  0  0  0  0
   -5.5446    0.7517    0.3898 H   0  0  0  0  0  0  0  0  0  0  0  0
   -4.7042   -1.4989    0.6920 H   0  0  0  0  0  0  0  0  0  0  0  0
   -3.4350   -3.1903    1.6092 H   0  0  0  0  0  0  0  0  0  0  0  0
   -3.6669   -3.4461   -0.1266 H   0  0  0  0  0  0  0  0  0  0  0  0
   -1.4937   -4.6913   -0.2319 H   0  0  0  0  0  0  0  0  0  0  0  0
   -1.2681   -4.4415    1.5077 H   0  0  0  0  0  0  0  0  0  0  0  0
   -2.6087   -5.4241    0.9196 H   0  0  0  0  0  0  0  0  0  0  0  0
  3  2  2  0
  1  2  1  0
  2  4  1  0
  5  4  2  0
  5  6  1  0
  4  8  1  0
  6  7  2  0
  8  9  2  0
  7  9  1  0
  9 10  1  0
 10 11  2  0
 10 12  1  0
 18 16  1  0
 12 13  1  0
 14 13  2  0
 14 15  1  0
 13 21  1  0
 16 15  1  0
 16 17  2  0
 15 19  2  0
 21 22  1  0
 21 20  2  0
 22 23  1  0
 19 20  1  0
 24 23  1  0
  1 25  1  0
  5 26  1  0
  6 27  1  0
  7 28  1  0
  8 29  1  0
 12 30  1  0
 14 31  1  0
 18 32  1  0
 18 33  1  0
 18 34  1  0
 19 35  1  0
 20 36  1  0
 23 37  1  0
 23 38  1  0
 24 39  1  0
 24 40  1  0
 24 41  1  0
M  END
