
     RDKit          3D

 38 39  0  0  0  0  0  0  0  0999 V2000
   -1.4701   -0.9591    0.9603 O   0  0  0  0  0  0  0  0  0  0  0  0
   -1.5706    0.0397   -0.0303 C   0  0  2  0  0  0  0  0  0  0  0  0
   -0.3675    0.9724    0.0027 C   0  0  0  0  0  0  0  0  0  0  0  0
    0.8057    0.2138   -0.1362 O   0  0  0  0  0  0  0  0  0  0  0  0
    1.9683    0.9829   -0.0413 C   0  0  0  0  0  0  0  0  0  0  0  0
    3.1729    0.0873   -0.1344 C   0  0  0  0  0  0  0  0  0  0  0  0
    3.0863   -1.2912   -0.3018 C   0  0  0  0  0  0  0  0  0  0  0  0
    4.2308   -2.0761   -0.3794 C   0  0  0  0  0  0  0  0  0  0  0  0
    5.4860   -1.4936   -0.2901 C   0  0  0  0  0  0  0  0  0  0  0  0
    5.5999   -0.1196   -0.1212 C   0  0  0  0  0  0  0  0  0  0  0  0
    4.4460    0.6321   -0.0491 C   0  0  0  0  0  0  0  0  0  0  0  0
    4.5537    1.9651    0.1138 F   0  0  0  0  0  0  0  0  0  0  0  0
   -2.8531    0.8611    0.0623 C   0  0  0  0  0  0  0  0  0  0  0  0
   -4.0566    0.1293   -0.2589 N   0  0  0  0  0  0  0  0  0  0  0  0
   -5.1912    1.0063   -0.5014 C   0  0  0  0  0  0  0  0  0  0  0  0
   -6.3763    0.0503   -0.5789 C   0  0  0  0  0  0  0  0  0  0  0  0
   -5.9678   -1.1206    0.3382 C   0  0  0  0  0  0  0  0  0  0  0  0
   -4.5290   -0.7988    0.7590 C   0  0  0  0  0  0  0  0  0  0  0  0
   -1.5271   -0.5377    1.8252 H   0  0  0  0  0  0  0  0  0  0  0  0
   -1.5759   -0.4912   -0.9878 H   0  0  0  0  0  0  0  0  0  0  0  0
   -0.4521    1.7117   -0.8057 H   0  0  0  0  0  0  0  0  0  0  0  0
   -0.3575    1.5356    0.9498 H   0  0  0  0  0  0  0  0  0  0  0  0
    2.0052    1.7397   -0.8390 H   0  0  0  0  0  0  0  0  0  0  0  0
    1.9925    1.5372    0.9088 H   0  0  0  0  0  0  0  0  0  0  0  0
    2.1149   -1.7603   -0.3712 H   0  0  0  0  0  0  0  0  0  0  0  0
    4.1370   -3.1461   -0.5081 H   0  0  0  0  0  0  0  0  0  0  0  0
    6.3786   -2.1015   -0.3508 H   0  0  0  0  0  0  0  0  0  0  0  0
    6.5670    0.3602   -0.0453 H   0  0  0  0  0  0  0  0  0  0  0  0
   -2.9136    1.3305    1.0635 H   0  0  0  0  0  0  0  0  0  0  0  0
   -2.7721    1.6841   -0.6535 H   0  0  0  0  0  0  0  0  0  0  0  0
   -5.3340    1.7243    0.3251 H   0  0  0  0  0  0  0  0  0  0  0  0
   -5.0458    1.5887   -1.4140 H   0  0  0  0  0  0  0  0  0  0  0  0
   -7.3033    0.5297   -0.2656 H   0  0  0  0  0  0  0  0  0  0  0  0
   -6.5216   -0.2946   -1.6032 H   0  0  0  0  0  0  0  0  0  0  0  0
   -6.6172   -1.2089    1.2086 H   0  0  0  0  0  0  0  0  0  0  0  0
   -6.0183   -2.0698   -0.1958 H   0  0  0  0  0  0  0  0  0  0  0  0
   -3.8990   -1.6839    0.8178 H   0  0  0  0  0  0  0  0  0  0  0  0
   -4.5231   -0.3275    1.7569 H   0  0  0  0  0  0  0  0  0  0  0  0
  1  2  1  0
  2  3  1  0
  2 13  1  0
  3  4  1  0
  4  5  1  0
  5  6  1  0
  6  7  2  0
  6 11  1  0
  7  8  1  0
  8  9  2  0
  9 10  1  0
 10 11  2  0
 11 12  1  0
 13 14  1  0
 14 15  1  0
 14 18  1  0
 15 16  1  0
 16 17  1  0
 17 18  1  0
  1 19  1  0
  2 20  1  6
  3 21  1  0
  3 22  1  0
  5 23  1  0
  5 24  1  0
  7 25  1  0
  8 26  1  0
  9 27  1  0
 10 28  1  0
 13 29  1  0
 13 30  1  0
 15 31  1  0
 15 32  1  0
 16 33  1  0
 16 34  1  0
 17 35  1  0
 17 36  1  0
 18 37  1  0
 18 38  1  0
M  END
