
     RDKit          3D

 44 47  0  0  0  0  0  0  0  0999 V2000
    1.0800    0.9667   -2.0470 C   0  0  0  0  0  0  0  0  0  0  0  0
    2.5222    2.5435   -0.6186 C   0  0  0  0  0  0  0  0  0  0  0  0
    2.2836    1.8979    0.7232 C   0  0  0  0  0  0  0  0  0  0  0  0
    0.9804    1.2991    0.8599 N   0  0  0  0  0  0  0  0  0  0  0  0
   -0.0128    2.0701    1.3819 C   0  0  0  0  0  0  0  0  0  0  0  0
   -1.4215    1.6378    1.3298 C   0  0  0  0  0  0  0  0  0  0  0  0
   -2.4511    2.0530    2.1156 C   0  0  0  0  0  0  0  0  0  0  0  0
   -3.6227    1.4194    1.6241 C   0  0  0  0  0  0  0  0  0  0  0  0
   -3.2070    0.6820    0.5647 C   0  0  0  0  0  0  0  0  0  0  0  0
    0.8104   -0.0378    0.3059 C   0  0  2  0  0  0  0  0  0  0  0  0
    1.9560   -0.9424    0.7285 C   0  0  0  0  0  0  0  0  0  0  0  0
    2.0709   -1.2752    2.0771 C   0  0  0  0  0  0  0  0  0  0  0  0
    3.0923   -2.0937    2.5281 C   0  0  0  0  0  0  0  0  0  0  0  0
    4.0007   -2.5814    1.6056 C   0  0  0  0  0  0  0  0  0  0  0  0
    3.9169   -2.2759    0.2631 C   0  0  0  0  0  0  0  0  0  0  0  0
    2.8857   -1.4512   -0.1689 C   0  0  0  0  0  0  0  0  0  0  0  0
    0.5775   -0.0085   -1.1820 C   0  0  0  0  0  0  0  0  0  0  0  0
    0.7653    0.8624   -3.4070 C   0  0  0  0  0  0  0  0  0  0  0  0
   -0.0137   -0.1651   -3.8991 C   0  0  0  0  0  0  0  0  0  0  0  0
   -0.2061   -1.0334   -1.7054 C   0  0  0  0  0  0  0  0  0  0  0  0
   -0.5184   -1.1463   -3.0504 C   0  0  0  0  0  0  0  0  0  0  0  0
   -1.3597   -2.2783   -3.5608 C   0  0  0  0  0  0  0  0  0  0  0  0
    3.2961    3.4799   -0.7164 O   0  0  0  0  0  0  0  0  0  0  0  0
    1.8840    2.0734   -1.7230 N   0  0  0  0  0  0  0  0  0  0  0  0
    0.2162    3.1404    1.9242 O   0  0  0  0  0  0  0  0  0  0  0  0
   -1.8927    0.8007    0.3724 O   0  0  0  0  0  0  0  0  0  0  0  0
   -4.1256   -0.4054   -0.6043 Br  0  0  0  0  0  0  0  0  0  0  0  0
    3.0604    1.1466    0.8804 H   0  0  0  0  0  0  0  0  0  0  0  0
    2.4359    2.6554    1.4869 H   0  0  0  0  0  0  0  0  0  0  0  0
   -2.3860    2.7282    2.9527 H   0  0  0  0  0  0  0  0  0  0  0  0
   -4.6284    1.5040    1.9996 H   0  0  0  0  0  0  0  0  0  0  0  0
   -0.0739   -0.4765    0.7656 H   0  0  0  0  0  0  0  0  0  0  0  0
    1.3538   -0.8877    2.7911 H   0  0  0  0  0  0  0  0  0  0  0  0
    3.1766   -2.3534    3.5751 H   0  0  0  0  0  0  0  0  0  0  0  0
    4.6398   -2.6724   -0.4375 H   0  0  0  0  0  0  0  0  0  0  0  0
    2.8170   -1.2120   -1.2223 H   0  0  0  0  0  0  0  0  0  0  0  0
    1.1400    1.6112   -4.0953 H   0  0  0  0  0  0  0  0  0  0  0  0
   -0.2372   -0.1948   -4.9586 H   0  0  0  0  0  0  0  0  0  0  0  0
   -0.6010   -1.7706   -1.0134 H   0  0  0  0  0  0  0  0  0  0  0  0
   -0.7795   -3.2001   -3.6348 H   0  0  0  0  0  0  0  0  0  0  0  0
   -2.2011   -2.4805   -2.8976 H   0  0  0  0  0  0  0  0  0  0  0  0
   -1.7585   -2.0630   -4.5513 H   0  0  0  0  0  0  0  0  0  0  0  0
    2.1361    2.6169   -2.5388 H   0  0  0  0  0  0  0  0  0  0  0  0
    4.9902   -3.3805    2.0319 F   0  0  0  0  0  0  0  0  0  0  0  0
 22 21  1  0
 19 21  2  0
 19 18  1  0
 21 20  1  0
 18  1  2  0
 20 17  2  0
  1 17  1  0
  1 24  1  0
 17 10  1  0
 24  2  1  0
  3  2  1  0
  3  4  1  0
 25  5  2  0
  2 23  2  0
  4  5  1  0
  4 10  1  0
  5  6  1  0
 10 11  1  0
 26  6  1  0
 26  9  1  0
  6  7  2  0
 11 16  1  0
 11 12  2  0
 16 15  2  0
  9 27  1  0
  9  8  2  0
  7  8  1  0
 12 13  1  0
 15 14  1  0
 13 14  2  0
 14 44  1  0
  3 28  1  0
  3 29  1  0
  7 30  1  0
  8 31  1  0
 10 32  1  1
 12 33  1  0
 13 34  1  0
 15 35  1  0
 16 36  1  0
 18 37  1  0
 19 38  1  0
 20 39  1  0
 22 40  1  0
 22 41  1  0
 22 42  1  0
 24 43  1  0
M  END
