
     RDKit          3D

 38 41  0  0  0  0  0  0  0  0999 V2000
   -0.0063    1.0815   -1.6551 C   0  0  0  0  0  0  0  0  0  0  0  0
   -0.5951    0.1196   -0.6610 C   0  0  0  0  0  0  0  0  0  0  0  0
    1.6910   -0.8703   -0.2751 C   0  0  0  0  0  0  0  0  0  0  0  0
    2.2374   -1.9018   -0.9911 C   0  0  0  0  0  0  0  0  0  0  0  0
    3.6326   -1.9523   -1.1832 C   0  0  0  0  0  0  0  0  0  0  0  0
    3.9599   -0.0377    0.0091 C   0  0  0  0  0  0  0  0  0  0  0  0
    4.8598    0.9227    0.5247 C   0  0  0  0  0  0  0  0  0  0  0  0
    4.4012    1.9754    1.2681 C   0  0  0  0  0  0  0  0  0  0  0  0
    2.5721    0.1057    0.2670 C   0  0  0  0  0  0  0  0  0  0  0  0
    3.0236    2.1126    1.5341 C   0  0  0  0  0  0  0  0  0  0  0  0
    2.1293    1.1985    1.0464 C   0  0  0  0  0  0  0  0  0  0  0  0
   -4.6403   -0.0696    0.3628 C   0  0  0  0  0  0  0  0  0  0  0  0
   -2.9161    1.0717   -0.9209 C   0  0  0  0  0  0  0  0  0  0  0  0
   -1.9754    0.1071   -0.3469 C   0  0  0  0  0  0  0  0  0  0  0  0
   -2.5025   -0.8430    0.5523 C   0  0  0  0  0  0  0  0  0  0  0  0
   -1.6469   -1.7764    1.1458 C   0  0  0  0  0  0  0  0  0  0  0  0
   -0.3070   -1.7528    0.8563 C   0  0  0  0  0  0  0  0  0  0  0  0
    0.2282   -0.8126   -0.0340 C   0  0  0  0  0  0  0  0  0  0  0  0
   -4.2191    0.8864   -0.5074 N   0  0  0  0  0  0  0  0  0  0  0  0
    4.4665   -1.0654   -0.7145 N   0  0  0  0  0  0  0  0  0  0  0  0
   -3.8335   -0.9162    0.8927 N   0  0  0  0  0  0  0  0  0  0  0  0
   -2.6564    1.9820   -1.6865 O   0  0  0  0  0  0  0  0  0  0  0  0
   -0.5306    1.0401   -2.6075 H   0  0  0  0  0  0  0  0  0  0  0  0
   -0.0647    2.1114   -1.3042 H   0  0  0  0  0  0  0  0  0  0  0  0
    1.0391    0.8528   -1.8460 H   0  0  0  0  0  0  0  0  0  0  0  0
    1.6140   -2.6733   -1.4233 H   0  0  0  0  0  0  0  0  0  0  0  0
    4.0571   -2.7692   -1.7575 H   0  0  0  0  0  0  0  0  0  0  0  0
    5.9150    0.8016    0.3153 H   0  0  0  0  0  0  0  0  0  0  0  0
    5.0963    2.7071    1.6585 H   0  0  0  0  0  0  0  0  0  0  0  0
    2.6739    2.9463    2.1283 H   0  0  0  0  0  0  0  0  0  0  0  0
    1.0746    1.3092    1.2617 H   0  0  0  0  0  0  0  0  0  0  0  0
   -6.3086   -0.8397    1.4273 H   0  0  0  0  0  0  0  0  0  0  0  0
   -6.4370    0.8812    1.0245 H   0  0  0  0  0  0  0  0  0  0  0  0
   -6.6714   -0.3312   -0.2292 H   0  0  0  0  0  0  0  0  0  0  0  0
   -2.0597   -2.5028    1.8329 H   0  0  0  0  0  0  0  0  0  0  0  0
    0.3550   -2.4688    1.3268 H   0  0  0  0  0  0  0  0  0  0  0  0
   -4.8987    1.5350   -0.8838 H   0  0  0  0  0  0  0  0  0  0  0  0
   -6.0982   -0.0922    0.6682 C   0  0  0  0  0  0  0  0  0  0  0  0
 38 12  1  0
 19 12  1  0
 19 13  1  0
 12 21  2  0
 22 13  2  0
 13 14  1  0
 21 15  1  0
 15 14  1  0
 15 16  2  0
 14  2  2  0
 16 17  1  0
  2  1  1  0
  2 18  1  0
 17 18  2  0
  4  5  2  0
  4  3  1  0
 18  3  1  0
  5 20  1  0
  3  9  2  0
 20  6  2  0
  9  6  1  0
  9 11  1  0
  6  7  1  0
 11 10  2  0
  7  8  2  0
 10  8  1  0
  1 23  1  0
  1 24  1  0
  1 25  1  0
  4 26  1  0
  5 27  1  0
  7 28  1  0
  8 29  1  0
 10 30  1  0
 11 31  1  0
 38 32  1  0
 38 33  1  0
 38 34  1  0
 16 35  1  0
 17 36  1  0
 19 37  1  0
M  END
