
     RDKit          3D

 30 30  0  0  0  0  0  0  0  0999 V2000
    1.8041   -0.0677    4.1932 F   0  0  0  0  0  0  0  0  0  0  0  0
    1.5315   -0.2691    2.9059 C   0  0  2  0  0  0  0  0  0  0  0  0
    1.5308   -1.5908    2.7127 F   0  0  0  0  0  0  0  0  0  0  0  0
    2.5450    0.2417    2.2031 F   0  0  0  0  0  0  0  0  0  0  0  0
    0.2076    0.4291    2.4889 C   0  0  2  0  0  0  0  0  0  0  0  0
    0.2319    1.7054    3.0426 O   0  0  0  0  0  0  0  0  0  0  0  0
   -1.0160   -0.2443    3.1485 C   0  0  1  0  0  0  0  0  0  0  0  0
   -1.1911   -1.4899    2.7075 F   0  0  0  0  0  0  0  0  0  0  0  0
   -0.9179   -0.2996    4.4781 F   0  0  0  0  0  0  0  0  0  0  0  0
   -2.1193    0.4429    2.8615 F   0  0  0  0  0  0  0  0  0  0  0  0
    0.0079    0.4397    0.9808 C   0  0  0  0  0  0  0  0  0  0  0  0
    0.2997   -0.6407    0.1510 C   0  0  0  0  0  0  0  0  0  0  0  0
    0.0812   -0.5902   -1.2143 C   0  0  0  0  0  0  0  0  0  0  0  0
   -0.5460    1.5725    0.3829 C   0  0  0  0  0  0  0  0  0  0  0  0
   -0.7741    1.6333   -0.9760 C   0  0  0  0  0  0  0  0  0  0  0  0
   -0.4658    0.5516   -1.8131 C   0  0  0  0  0  0  0  0  0  0  0  0
   -0.7196    0.6508   -3.1508 N   0  0  0  0  0  0  0  0  0  0  0  0
   -0.5862   -0.4029   -4.1047 C   0  0  0  0  0  0  0  0  0  0  0  0
    0.7614   -0.3821   -4.7983 C   0  0  1  0  0  0  0  0  0  0  0  0
    0.8662   -1.3824   -5.6836 F   0  0  0  0  0  0  0  0  0  0  0  0
    0.9601    0.7617   -5.4671 F   0  0  0  0  0  0  0  0  0  0  0  0
    1.7809   -0.5042   -3.9377 F   0  0  0  0  0  0  0  0  0  0  0  0
    0.7887    2.2873    2.5102 H   0  0  0  0  0  0  0  0  0  0  0  0
    0.7129   -1.5599    0.5388 H   0  0  0  0  0  0  0  0  0  0  0  0
    0.3484   -1.4582   -1.8003 H   0  0  0  0  0  0  0  0  0  0  0  0
   -0.8228    2.4362    0.9729 H   0  0  0  0  0  0  0  0  0  0  0  0
   -1.2057    2.5320   -1.3996 H   0  0  0  0  0  0  0  0  0  0  0  0
   -1.1502    1.5006   -3.4728 H   0  0  0  0  0  0  0  0  0  0  0  0
   -1.3590   -0.2985   -4.8677 H   0  0  0  0  0  0  0  0  0  0  0  0
   -0.7327   -1.3835   -3.6472 H   0  0  0  0  0  0  0  0  0  0  0  0
  2  1  1  1
  2  3  1  0
  2  4  1  0
  2  5  1  0
  5  6  1  1
  5  7  1  0
  5 11  1  0
  6 23  1  0
  7  8  1  6
  7  9  1  0
  7 10  1  0
 11 12  2  0
 11 14  1  0
 12 13  1  0
 12 24  1  0
 13 16  2  0
 13 25  1  0
 14 15  2  0
 14 26  1  0
 15 16  1  0
 15 27  1  0
 16 17  1  0
 17 18  1  0
 17 28  1  0
 18 19  1  0
 18 29  1  0
 18 30  1  0
 19 20  1  6
 19 21  1  0
 19 22  1  0
M  END
