
     RDKit          3D

 37 38  0  0  0  0  0  0  0  0999 V2000
   -4.9921    0.4934   -0.0317 C   0  0  0  0  0  0  0  0  0  0  0  0
   -3.6849    0.9148    0.1354 C   0  0  0  0  0  0  0  0  0  0  0  0
   -2.6086    0.1842   -0.3753 C   0  0  0  0  0  0  0  0  0  0  0  0
   -2.8741   -0.9967   -1.0676 C   0  0  0  0  0  0  0  0  0  0  0  0
   -4.1834   -1.4166   -1.2375 C   0  0  0  0  0  0  0  0  0  0  0  0
    6.4111    0.5407   -0.7660 O   0  0  0  0  0  0  0  0  0  0  0  0
   -5.2414   -0.6870   -0.7290 C   0  0  0  0  0  0  0  0  0  0  0  0
   -6.1152    1.3055    0.5458 C   0  0  1  0  0  0  0  0  0  0  0  0
    8.6457    0.0391   -0.1096 O   0  0  0  0  0  0  0  0  0  0  0  0
   -6.8494   -1.2723   -0.9795 Cl  0  0  0  0  0  0  0  0  0  0  0  0
   -5.6742    2.3961    1.1774 F   0  0  0  0  0  0  0  0  0  0  0  0
   -6.9665    1.7211   -0.3983 F   0  0  0  0  0  0  0  0  0  0  0  0
   -6.8262    0.6034    1.4353 F   0  0  0  0  0  0  0  0  0  0  0  0
   -1.3447    0.7104   -0.1417 N   0  0  0  0  0  0  0  0  0  0  0  0
   -0.1285    0.2044   -0.5238 C   0  0  0  0  0  0  0  0  0  0  0  0
    0.0074   -0.8335   -1.1440 O   0  0  0  0  0  0  0  0  0  0  0  0
    0.9077    1.0035   -0.1263 N   0  0  0  0  0  0  0  0  0  0  0  0
    2.2743    0.8075   -0.3171 C   0  0  0  0  0  0  0  0  0  0  0  0
    3.1222    1.7630    0.2531 C   0  0  0  0  0  0  0  0  0  0  0  0
    4.4947    1.6674    0.1276 C   0  0  0  0  0  0  0  0  0  0  0  0
    5.0376    0.6098   -0.5829 C   0  0  0  0  0  0  0  0  0  0  0  0
    4.2187   -0.3427   -1.1584 C   0  0  0  0  0  0  0  0  0  0  0  0
    2.8400   -0.2499   -1.0329 C   0  0  0  0  0  0  0  0  0  0  0  0
    7.3048   -0.2008    0.3633 S   0  0  1  0  0  0  0  0  0  0  0  0
    6.8887    0.2458    1.6714 O   0  0  0  0  0  0  0  0  0  0  0  0
    6.8329   -1.7488    0.2083 N   0  0  0  0  0  0  0  0  0  0  0  0
   -3.4811    1.8302    0.6756 H   0  0  0  0  0  0  0  0  0  0  0  0
   -2.0801   -1.5973   -1.4777 H   0  0  0  0  0  0  0  0  0  0  0  0
   -4.3746   -2.3331   -1.7785 H   0  0  0  0  0  0  0  0  0  0  0  0
   -1.3436    1.5774    0.3732 H   0  0  0  0  0  0  0  0  0  0  0  0
    0.6785    1.8368    0.3950 H   0  0  0  0  0  0  0  0  0  0  0  0
    2.7018    2.5964    0.8028 H   0  0  0  0  0  0  0  0  0  0  0  0
    5.1302    2.4228    0.5700 H   0  0  0  0  0  0  0  0  0  0  0  0
    4.6471   -1.1636   -1.7177 H   0  0  0  0  0  0  0  0  0  0  0  0
    2.2266   -1.0038   -1.4957 H   0  0  0  0  0  0  0  0  0  0  0  0
    7.3044   -2.2703   -0.5212 H   0  0  0  0  0  0  0  0  0  0  0  0
    6.7808   -2.2520    1.0851 H   0  0  0  0  0  0  0  0  0  0  0  0
  4  5  2  0
  4  3  1  0
  5  7  1  0
 16 15  2  0
 14  3  1  0
 14 15  1  0
  3  2  2  0
 15 17  1  0
  7 10  1  0
  7  1  2  0
  2  1  1  0
  1  8  1  0
 17 18  1  0
  8 12  1  6
  8 11  1  0
  8 13  1  0
 19 18  2  0
 19 20  1  0
 18 23  1  0
 20 21  2  0
 23 22  2  0
 21 22  1  0
 21  6  1  0
 24  6  1  6
 26 24  1  0
 24  9  2  0
 24 25  2  0
  2 27  1  0
  4 28  1  0
  5 29  1  0
 14 30  1  0
 17 31  1  0
 19 32  1  0
 20 33  1  0
 22 34  1  0
 23 35  1  0
 26 36  1  0
 26 37  1  0
M  END
