
     RDKit          3D

 63 62  0  0  0  0  0  0  0  0999 V2000
  -10.4143    1.7528    1.0205 O   0  0  0  0  0  0  0  0  0  0  0  0
   -9.4781    2.5128    1.0085 C   0  0  0  0  0  0  0  0  0  0  0  0
   -9.6027    3.8175    1.2377 O   0  0  0  0  0  0  0  0  0  0  0  0
   -8.0502    2.1286    0.7390 C   0  0  0  0  0  0  0  0  0  0  0  0
   -7.8471    0.6433    0.4930 C   0  0  0  0  0  0  0  0  0  0  0  0
   -6.3809    0.3173    0.2354 C   0  0  0  0  0  0  0  0  0  0  0  0
   -6.1685   -1.1655   -0.0157 C   0  0  0  0  0  0  0  0  0  0  0  0
   -4.7381   -1.5705   -0.2627 C   0  0  0  0  0  0  0  0  0  0  0  0
   -3.8440   -0.7645   -0.3774 O   0  0  0  0  0  0  0  0  0  0  0  0
   -4.4880   -3.0616   -0.3527 C   0  0  0  0  0  0  0  0  0  0  0  0
   -3.1126   -3.4141   -0.8131 C   0  0  0  0  0  0  0  0  0  0  0  0
   -2.2248   -4.0834   -0.0856 C   0  0  0  0  0  0  0  0  0  0  0  0
   -0.8398   -4.4280   -0.5307 C   0  0  0  0  0  0  0  0  0  0  0  0
    0.2251   -3.7431    0.3370 C   0  0  0  0  0  0  0  0  0  0  0  0
    1.6110   -4.1625   -0.0393 C   0  0  0  0  0  0  0  0  0  0  0  0
    2.6089   -3.3841   -0.4549 C   0  0  0  0  0  0  0  0  0  0  0  0
    2.5884   -1.8895   -0.6117 C   0  0  0  0  0  0  0  0  0  0  0  0
    3.3149   -1.2356    0.5282 C   0  0  0  0  0  0  0  0  0  0  0  0
    4.4696   -0.5744    0.4840 C   0  0  0  0  0  0  0  0  0  0  0  0
    5.3152   -0.2866   -0.7238 C   0  0  0  0  0  0  0  0  0  0  0  0
    5.2379    1.1719   -1.0768 C   0  0  0  0  0  0  0  0  0  0  0  0
    6.1508    2.1108   -0.8347 C   0  0  0  0  0  0  0  0  0  0  0  0
    7.4895    1.9361   -0.1777 C   0  0  0  0  0  0  0  0  0  0  0  0
    8.6047    2.2425   -1.1372 C   0  0  0  0  0  0  0  0  0  0  0  0
    9.4194    3.2962   -1.1138 C   0  0  0  0  0  0  0  0  0  0  0  0
    9.4378    4.4097   -0.1132 C   0  0  0  0  0  0  0  0  0  0  0  0
   10.6729    4.3522    0.7850 C   0  0  0  0  0  0  0  0  0  0  0  0
  -10.5308    4.0375    1.4067 H   0  0  0  0  0  0  0  0  0  0  0  0
   -7.6994    2.7118   -0.1188 H   0  0  0  0  0  0  0  0  0  0  0  0
   -7.4416    2.4646    1.5846 H   0  0  0  0  0  0  0  0  0  0  0  0
   -8.2020    0.0718    1.3546 H   0  0  0  0  0  0  0  0  0  0  0  0
   -8.4496    0.3211   -0.3605 H   0  0  0  0  0  0  0  0  0  0  0  0
   -6.0246    0.8933   -0.6226 H   0  0  0  0  0  0  0  0  0  0  0  0
   -5.7806    0.6386    1.0914 H   0  0  0  0  0  0  0  0  0  0  0  0
   -6.5510   -1.7632    0.8193 H   0  0  0  0  0  0  0  0  0  0  0  0
   -6.7526   -1.4958   -0.8829 H   0  0  0  0  0  0  0  0  0  0  0  0
   -4.6937   -3.4867    0.6360 H   0  0  0  0  0  0  0  0  0  0  0  0
   -5.2482   -3.4918   -1.0144 H   0  0  0  0  0  0  0  0  0  0  0  0
   -2.8436   -3.0974   -1.8173 H   0  0  0  0  0  0  0  0  0  0  0  0
   -2.4955   -4.3967    0.9211 H   0  0  0  0  0  0  0  0  0  0  0  0
   -0.6951   -5.5125   -0.4761 H   0  0  0  0  0  0  0  0  0  0  0  0
   -0.6979   -4.1432   -1.5763 H   0  0  0  0  0  0  0  0  0  0  0  0
    0.1023   -2.6609    0.2700 H   0  0  0  0  0  0  0  0  0  0  0  0
    0.0476   -4.0081    1.3850 H   0  0  0  0  0  0  0  0  0  0  0  0
    1.8039   -5.2299    0.0361 H   0  0  0  0  0  0  0  0  0  0  0  0
    3.5625   -3.8547   -0.6761 H   0  0  0  0  0  0  0  0  0  0  0  0
    3.0397   -1.6182   -1.5680 H   0  0  0  0  0  0  0  0  0  0  0  0
    1.5615   -1.5176   -0.6378 H   0  0  0  0  0  0  0  0  0  0  0  0
    2.8343   -1.3480    1.4961 H   0  0  0  0  0  0  0  0  0  0  0  0
    4.8530   -0.1644    1.4141 H   0  0  0  0  0  0  0  0  0  0  0  0
    6.3460   -0.5813   -0.5151 H   0  0  0  0  0  0  0  0  0  0  0  0
    4.9900   -0.8810   -1.5805 H   0  0  0  0  0  0  0  0  0  0  0  0
    4.3096    1.4794   -1.5496 H   0  0  0  0  0  0  0  0  0  0  0  0
    5.9244    3.1273   -1.1439 H   0  0  0  0  0  0  0  0  0  0  0  0
    7.5401    2.5900    0.6968 H   0  0  0  0  0  0  0  0  0  0  0  0
    7.6082    0.9161    0.1946 H   0  0  0  0  0  0  0  0  0  0  0  0
    8.7278    1.5198   -1.9386 H   0  0  0  0  0  0  0  0  0  0  0  0
   10.1787    3.3596   -1.8890 H   0  0  0  0  0  0  0  0  0  0  0  0
    9.4306    5.3642   -0.6479 H   0  0  0  0  0  0  0  0  0  0  0  0
    8.5375    4.3988    0.5024 H   0  0  0  0  0  0  0  0  0  0  0  0
   10.7014    5.2027    1.4669 H   0  0  0  0  0  0  0  0  0  0  0  0
   10.6765    3.4398    1.3823 H   0  0  0  0  0  0  0  0  0  0  0  0
   11.5925    4.3671    0.1978 H   0  0  0  0  0  0  0  0  0  0  0  0
 21 22  2  0
 21 20  1  0
 19 18  2  0
 19 20  1  0
 22 23  1  0
 27 26  1  0
 18 17  1  0
 24 25  2  0
 24 23  1  0
 25 26  1  0
 17 16  1  0
 16 15  2  0
 15 14  1  0
 14 13  1  0
 13 12  1  0
 12 11  2  0
 11 10  1  0
  9  8  2  0
 10  8  1  0
  8  7  1  0
  7  6  1  0
  5  6  1  0
  5  4  1  0
  4  2  1  0
  2  1  2  0
  2  3  1  0
  3 28  1  0
  4 29  1  0
  4 30  1  0
  5 31  1  0
  5 32  1  0
  6 33  1  0
  6 34  1  0
  7 35  1  0
  7 36  1  0
 10 37  1  0
 10 38  1  0
 11 39  1  0
 12 40  1  0
 13 41  1  0
 13 42  1  0
 14 43  1  0
 14 44  1  0
 15 45  1  0
 16 46  1  0
 17 47  1  0
 17 48  1  0
 18 49  1  0
 19 50  1  0
 20 51  1  0
 20 52  1  0
 21 53  1  0
 22 54  1  0
 23 55  1  0
 23 56  1  0
 24 57  1  0
 25 58  1  0
 26 59  1  0
 26 60  1  0
 27 61  1  0
 27 62  1  0
 27 63  1  0
M  END
