
     RDKit          3D

 57 59  0  0  0  0  0  0  0  0999 V2000
   -1.7876    1.5539    1.7638 N   0  0  0  0  0  0  0  0  0  0  0  0
   -1.4348    0.9136    3.0184 C   0  0  1  0  0  0  0  0  0  0  0  0
   -2.5741    0.2174    3.7895 C   0  0  1  0  0  0  0  0  0  0  0  0
   -2.0352   -0.4384    5.0587 C   0  0  0  0  0  0  0  0  0  0  0  0
   -3.6927    1.2147    4.0970 C   0  0  0  0  0  0  0  0  0  0  0  0
   -4.9191    0.5863    4.7461 C   0  0  0  0  0  0  0  0  0  0  0  0
   -0.3555   -0.1003    2.6793 C   0  0  0  0  0  0  0  0  0  0  0  0
   -0.5394   -1.0202    1.9104 O   0  0  0  0  0  0  0  0  0  0  0  0
    2.1640   -0.9417    3.0417 S   0  0  1  0  0  0  0  0  0  0  0  0
    3.2571   -0.2795    3.7154 O   0  0  0  0  0  0  0  0  0  0  0  0
    1.7595   -2.2761    3.4098 O   0  0  0  0  0  0  0  0  0  0  0  0
    0.8579    0.0996    3.2780 N   0  0  0  0  0  0  0  0  0  0  0  0
    2.4676   -0.9465    1.4406 N   0  0  0  0  0  0  0  0  0  0  0  0
    2.8505    0.3048    0.7974 C   0  0  0  0  0  0  0  0  0  0  0  0
    3.2114    0.0241   -0.6521 C   0  0  1  0  0  0  0  0  0  0  0  0
    2.1125   -0.6005   -1.3197 O   0  0  0  0  0  0  0  0  0  0  0  0
    1.5385    0.2737   -2.2596 C   0  0  1  0  0  0  0  0  0  0  0  0
    0.1053    0.1912   -2.1964 N   0  0  0  0  0  0  0  0  0  0  0  0
   -0.7141   -0.3512   -3.1483 C   0  0  0  0  0  0  0  0  0  0  0  0
   -0.3799   -0.8619   -4.3299 N   0  0  0  0  0  0  0  0  0  0  0  0
   -1.4403   -1.2848   -4.9968 C   0  0  0  0  0  0  0  0  0  0  0  0
   -2.7176   -1.2491   -4.6275 N   0  0  0  0  0  0  0  0  0  0  0  0
   -3.0371   -0.7342   -3.4345 C   0  0  0  0  0  0  0  0  0  0  0  0
   -4.3158   -0.7007   -3.0582 N   0  0  0  0  0  0  0  0  0  0  0  0
   -1.9923   -0.2525   -2.6250 C   0  0  0  0  0  0  0  0  0  0  0  0
   -1.9660    0.3250   -1.3805 N   0  0  0  0  0  0  0  0  0  0  0  0
   -0.7103    0.5705   -1.1623 C   0  0  0  0  0  0  0  0  0  0  0  0
    2.0961    1.6591   -1.9317 C   0  0  2  0  0  0  0  0  0  0  0  0
    2.0664    2.4606   -3.0727 O   0  0  0  0  0  0  0  0  0  0  0  0
    3.4971    1.3027   -1.4287 C   0  0  2  0  0  0  0  0  0  0  0  0
    4.3470    0.9930   -2.5000 O   0  0  0  0  0  0  0  0  0  0  0  0
   -2.3451    0.9348    1.1864 H   0  0  0  0  0  0  0  0  0  0  0  0
   -2.3463    2.3782    1.9379 H   0  0  0  0  0  0  0  0  0  0  0  0
   -1.0135    1.6873    3.6686 H   0  0  0  0  0  0  0  0  0  0  0  0
   -2.9856   -0.5647    3.1393 H   0  0  0  0  0  0  0  0  0  0  0  0
   -1.5674    0.3010    5.7137 H   0  0  0  0  0  0  0  0  0  0  0  0
   -2.8300   -0.9230    5.6238 H   0  0  0  0  0  0  0  0  0  0  0  0
   -1.2922   -1.2091    4.8472 H   0  0  0  0  0  0  0  0  0  0  0  0
   -4.0097    1.6964    3.1686 H   0  0  0  0  0  0  0  0  0  0  0  0
   -3.3006    2.0122    4.7379 H   0  0  0  0  0  0  0  0  0  0  0  0
   -5.7285    1.3124    4.8248 H   0  0  0  0  0  0  0  0  0  0  0  0
   -5.2866   -0.2542    4.1542 H   0  0  0  0  0  0  0  0  0  0  0  0
   -4.7167    0.2187    5.7518 H   0  0  0  0  0  0  0  0  0  0  0  0
    1.0225    0.9028    3.8722 H   0  0  0  0  0  0  0  0  0  0  0  0
    1.7746   -1.4852    0.9282 H   0  0  0  0  0  0  0  0  0  0  0  0
    2.0558    1.0584    0.8642 H   0  0  0  0  0  0  0  0  0  0  0  0
    3.7297    0.7073    1.2993 H   0  0  0  0  0  0  0  0  0  0  0  0
    4.0673   -0.6555   -0.6804 H   0  0  0  0  0  0  0  0  0  0  0  0
    1.8157   -0.0148   -3.2785 H   0  0  0  0  0  0  0  0  0  0  0  0
   -1.2492   -1.7175   -5.9729 H   0  0  0  0  0  0  0  0  0  0  0  0
   -5.0374   -1.0101   -3.6861 H   0  0  0  0  0  0  0  0  0  0  0  0
   -4.5898   -0.2836   -2.1864 H   0  0  0  0  0  0  0  0  0  0  0  0
   -0.3359    1.0337   -0.2609 H   0  0  0  0  0  0  0  0  0  0  0  0
    1.5271    2.1093   -1.1085 H   0  0  0  0  0  0  0  0  0  0  0  0
    2.1233    3.3841   -2.8068 H   0  0  0  0  0  0  0  0  0  0  0  0
    3.9179    2.0880   -0.7873 H   0  0  0  0  0  0  0  0  0  0  0  0
    4.2255    1.6666   -3.1797 H   0  0  0  0  0  0  0  0  0  0  0  0
  1  2  1  0
  1 32  1  0
  1 33  1  0
  2  3  1  0
  2  7  1  0
  2 34  1  1
  3  4  1  0
  3  5  1  0
  3 35  1  6
  4 36  1  0
  4 37  1  0
  4 38  1  0
  5  6  1  0
  5 39  1  0
  5 40  1  0
  6 41  1  0
  6 42  1  0
  6 43  1  0
  7  8  2  0
  7 12  1  0
  9 10  2  0
  9 11  2  0
  9 12  1  6
  9 13  1  0
 12 44  1  0
 13 14  1  0
 13 45  1  0
 14 15  1  0
 14 46  1  0
 14 47  1  0
 15 16  1  0
 15 30  1  0
 15 48  1  1
 16 17  1  0
 17 18  1  0
 17 28  1  0
 17 49  1  6
 18 19  1  0
 18 27  1  0
 19 20  2  0
 19 25  1  0
 20 21  1  0
 21 22  2  0
 21 50  1  0
 22 23  1  0
 23 24  1  0
 23 25  2  0
 24 51  1  0
 24 52  1  0
 25 26  1  0
 26 27  2  0
 27 53  1  0
 28 29  1  0
 28 30  1  0
 28 54  1  1
 29 55  1  0
 30 31  1  0
 30 56  1  1
 31 57  1  0
M  END
