
     RDKit          3D

 32 34  0  0  0  0  0  0  0  0999 V2000
    2.1535   -2.8259    0.1454 N   0  0  0  0  0  0  0  0  0  0  0  0
    0.9650   -2.3014    0.2127 N   0  0  0  0  0  0  0  0  0  0  0  0
    0.7763   -0.9928    0.1608 C   0  0  0  0  0  0  0  0  0  0  0  0
    1.8935   -0.1495   -0.0379 C   0  0  0  0  0  0  0  0  0  0  0  0
    3.1022   -0.6652   -0.0517 N   0  0  0  0  0  0  0  0  0  0  0  0
    3.2007   -1.9932    0.0690 C   0  0  0  0  0  0  0  0  0  0  0  0
   -3.2798    0.2879    0.6772 C   0  0  0  0  0  0  0  0  0  0  0  0
   -2.2435    0.9337    1.3465 C   0  0  0  0  0  0  0  0  0  0  0  0
   -0.9318    0.5307    1.1750 C   0  0  0  0  0  0  0  0  0  0  0  0
   -0.6120   -0.5286    0.3289 C   0  0  0  0  0  0  0  0  0  0  0  0
   -1.6466   -1.1874   -0.3299 C   0  0  0  0  0  0  0  0  0  0  0  0
   -2.9566   -0.7799   -0.1600 C   0  0  0  0  0  0  0  0  0  0  0  0
    1.6978    4.0497   -0.7313 C   0  0  0  0  0  0  0  0  0  0  0  0
    2.6583    3.5235    0.1227 C   0  0  0  0  0  0  0  0  0  0  0  0
    2.7160    2.1561    0.3452 C   0  0  0  0  0  0  0  0  0  0  0  0
    1.7968    1.3052   -0.2662 C   0  0  0  0  0  0  0  0  0  0  0  0
    0.8366    1.8385   -1.1249 C   0  0  0  0  0  0  0  0  0  0  0  0
    0.7937    3.2034   -1.3611 C   0  0  0  0  0  0  0  0  0  0  0  0
    4.4226   -2.5360    0.0728 N   0  0  0  0  0  0  0  0  0  0  0  0
   -4.2305   -1.5951   -0.9996 Cl  0  0  0  0  0  0  0  0  0  0  0  0
   -2.4674    1.7591    2.0122 H   0  0  0  0  0  0  0  0  0  0  0  0
   -0.1550    1.0488    1.7217 H   0  0  0  0  0  0  0  0  0  0  0  0
   -1.4301   -2.0174   -0.9896 H   0  0  0  0  0  0  0  0  0  0  0  0
    1.6565    5.1162   -0.9104 H   0  0  0  0  0  0  0  0  0  0  0  0
    3.3665    4.1776    0.6140 H   0  0  0  0  0  0  0  0  0  0  0  0
    3.4690    1.7462    1.0057 H   0  0  0  0  0  0  0  0  0  0  0  0
    0.1323    1.1882   -1.6264 H   0  0  0  0  0  0  0  0  0  0  0  0
    0.0531    3.6074   -2.0387 H   0  0  0  0  0  0  0  0  0  0  0  0
    5.2361   -1.9472    0.1050 H   0  0  0  0  0  0  0  0  0  0  0  0
    4.5366   -3.5197    0.2437 H   0  0  0  0  0  0  0  0  0  0  0  0
   -4.6567    1.3899    1.3915 H   0  0  0  0  0  0  0  0  0  0  0  0
   -4.5666    0.6362    0.7964 O   0  0  0  0  0  0  0  0  0  0  0  0
 13 18  2  0
 13 14  1  0
 18 17  1  0
 14 15  2  0
 17 16  2  0
 15 16  1  0
 16  4  1  0
  5  4  2  0
  5  6  1  0
 19  6  1  0
  4  3  1  0
  6  1  2  0
  3 10  1  0
  3  2  2  0
  1  2  1  0
 10 11  2  0
 10  9  1  0
 11 12  1  0
  9  8  2  0
 12 20  1  0
 12  7  2  0
  8  7  1  0
  7 32  1  0
  8 21  1  0
  9 22  1  0
 11 23  1  0
 13 24  1  0
 14 25  1  0
 15 26  1  0
 17 27  1  0
 18 28  1  0
 19 29  1  0
 19 30  1  0
 32 31  1  0
M  END
