
     RDKit          3D

 59 63  0  0  0  0  0  0  0  0999 V2000
    2.9358   -0.5829    0.2018 C   0  0  0  0  0  0  0  0  0  0  0  0
    0.8885    3.0453   -0.4570 C   0  0  0  0  0  0  0  0  0  0  0  0
    0.8629    0.6927    0.3627 C   0  0  0  0  0  0  0  0  0  0  0  0
   -1.1302    1.9414    0.5817 C   0  0  1  0  0  0  0  0  0  0  0  0
   -1.7292    3.3244    0.4985 C   0  0  0  0  0  0  0  0  0  0  0  0
   -1.2753    4.2297   -0.4561 C   0  0  0  0  0  0  0  0  0  0  0  0
   -0.1041    3.8319   -1.2968 C   0  0  0  0  0  0  0  0  0  0  0  0
   -2.7779    3.6704    1.3440 C   0  0  0  0  0  0  0  0  0  0  0  0
   -3.3884    4.9102    1.2319 C   0  0  0  0  0  0  0  0  0  0  0  0
   -4.0062   -0.4053   -0.1374 C   0  0  0  0  0  0  0  0  0  0  0  0
   -1.9792    1.0212   -0.3105 C   0  0  0  0  0  0  0  0  0  0  0  0
   -4.1677   -0.7355   -1.4851 C   0  0  0  0  0  0  0  0  0  0  0  0
    6.4205   -2.0092    0.4240 C   0  0  0  0  0  0  0  0  0  0  0  0
    7.1029   -1.2327   -0.4961 C   0  0  0  0  0  0  0  0  0  0  0  0
    6.4174   -0.2257   -1.1580 C   0  0  0  0  0  0  0  0  0  0  0  0
    5.0722    0.0032   -0.9280 C   0  0  0  0  0  0  0  0  0  0  0  0
    4.3697   -0.7813   -0.0146 C   0  0  0  0  0  0  0  0  0  0  0  0
    5.0736   -1.7861    0.6543 C   0  0  0  0  0  0  0  0  0  0  0  0
    4.4122   -2.5915    1.6107 N   0  0  0  0  0  0  0  0  0  0  0  0
    4.3253   -3.9239    1.6903 C   0  0  0  0  0  0  0  0  0  0  0  0
    3.6512   -4.2208    2.7675 N   0  0  0  0  0  0  0  0  0  0  0  0
    3.3358   -3.0549    3.3377 N   0  0  0  0  0  0  0  0  0  0  0  0
    3.7833   -2.0744    2.6646 N   0  0  0  0  0  0  0  0  0  0  0  0
    2.3252    0.6012    0.1338 C   0  0  0  0  0  0  0  0  0  0  0  0
    0.2197   -0.2742    0.7579 O   0  0  0  0  0  0  0  0  0  0  0  0
    0.2557    1.8852    0.1607 N   0  0  0  0  0  0  0  0  0  0  0  0
   -2.9419    5.8143    0.2765 C   0  0  0  0  0  0  0  0  0  0  0  0
   -1.8841    5.4761   -0.5548 C   0  0  0  0  0  0  0  0  0  0  0  0
   -4.9194   -0.9052    0.7978 C   0  0  0  0  0  0  0  0  0  0  0  0
   -5.9642   -1.7105    0.4003 C   0  0  0  0  0  0  0  0  0  0  0  0
   -6.1328   -2.0437   -0.9435 C   0  0  0  0  0  0  0  0  0  0  0  0
   -5.2225   -1.5448   -1.8718 C   0  0  0  0  0  0  0  0  0  0  0  0
   -2.9872    0.4023    0.3565 N   0  0  0  0  0  0  0  0  0  0  0  0
   -7.2689   -2.9097   -1.3220 C   0  0  0  0  0  0  0  0  0  0  0  0
   -7.3255   -3.1587   -2.6242 O   0  0  0  0  0  0  0  0  0  0  0  0
   -8.0716   -3.3507   -0.5323 O   0  0  0  0  0  0  0  0  0  0  0  0
    2.3431   -1.4640    0.4213 H   0  0  0  0  0  0  0  0  0  0  0  0
    1.6966    2.7136   -1.1031 H   0  0  0  0  0  0  0  0  0  0  0  0
    1.3187    3.6972    0.3083 H   0  0  0  0  0  0  0  0  0  0  0  0
   -1.1984    1.6025    1.6204 H   0  0  0  0  0  0  0  0  0  0  0  0
    0.3999    4.7120   -1.6974 H   0  0  0  0  0  0  0  0  0  0  0  0
   -0.4232    3.2300   -2.1507 H   0  0  0  0  0  0  0  0  0  0  0  0
   -3.1175    2.9744    2.1020 H   0  0  0  0  0  0  0  0  0  0  0  0
   -4.2029    5.1721    1.8941 H   0  0  0  0  0  0  0  0  0  0  0  0
   -3.4831   -0.3729   -2.2329 H   0  0  0  0  0  0  0  0  0  0  0  0
    6.9470   -2.7807    0.9699 H   0  0  0  0  0  0  0  0  0  0  0  0
    8.1526   -1.4076   -0.6838 H   0  0  0  0  0  0  0  0  0  0  0  0
    4.5544    0.7699   -1.4879 H   0  0  0  0  0  0  0  0  0  0  0  0
    4.7369   -4.6071    0.9659 H   0  0  0  0  0  0  0  0  0  0  0  0
    2.9026    1.5006   -0.0316 H   0  0  0  0  0  0  0  0  0  0  0  0
   -3.4071    6.7875    0.1895 H   0  0  0  0  0  0  0  0  0  0  0  0
   -1.5198    6.1888   -1.2849 H   0  0  0  0  0  0  0  0  0  0  0  0
   -4.8081   -0.6559    1.8463 H   0  0  0  0  0  0  0  0  0  0  0  0
   -6.6567   -2.0806    1.1440 H   0  0  0  0  0  0  0  0  0  0  0  0
   -5.3200   -1.7823   -2.9222 H   0  0  0  0  0  0  0  0  0  0  0  0
   -2.9837    0.5070    1.3600 H   0  0  0  0  0  0  0  0  0  0  0  0
   -8.0851   -3.7283   -2.8154 H   0  0  0  0  0  0  0  0  0  0  0  0
    7.2537    0.7557   -2.3059 Cl  0  0  0  0  0  0  0  0  0  0  0  0
   -1.7812    0.9355   -1.5029 O   0  0  0  0  0  0  0  0  0  0  0  0
 21 20  2  0
 21 22  1  0
 20 19  1  0
 22 23  2  0
 19 23  1  0
 19 18  1  0
  7  2  1  0
  7  6  1  0
 13 18  2  0
 13 14  1  0
  2 26  1  0
 18 17  1  0
 28  6  1  0
 28 27  2  0
  6  5  2  0
 14 15  2  0
 59 11  2  0
 17  1  1  0
 17 16  2  0
 24  1  2  0
 24  3  1  0
 27  9  1  0
 26  3  1  0
 26  4  1  0
 15 16  1  0
 15 58  1  0
  3 25  2  0
  5  4  1  0
  5  8  1  0
 11  4  1  0
 11 33  1  0
 12 32  2  0
 12 10  1  0
  9  8  2  0
 32 31  1  0
 33 10  1  0
 36 34  2  0
 10 29  2  0
 31 34  1  0
 31 30  2  0
 34 35  1  0
 29 30  1  0
  1 37  1  0
  2 38  1  0
  2 39  1  0
  4 40  1  1
  7 41  1  0
  7 42  1  0
  8 43  1  0
  9 44  1  0
 12 45  1  0
 13 46  1  0
 14 47  1  0
 16 48  1  0
 20 49  1  0
 24 50  1  0
 27 51  1  0
 28 52  1  0
 29 53  1  0
 30 54  1  0
 32 55  1  0
 33 56  1  0
 35 57  1  0
M  END
