
     RDKit          3D

 50 50  0  0  0  0  0  0  0  0999 V2000
    4.3685    0.1883   -0.8243 C   0  0  2  0  0  0  0  0  0  0  0  0
    4.9389    1.5965   -1.0191 C   0  0  0  0  0  0  0  0  0  0  0  0
    5.1970    2.3025    0.2972 C   0  0  0  0  0  0  0  0  0  0  0  0
    3.8911    2.4599    1.0563 C   0  0  0  0  0  0  0  0  0  0  0  0
    3.0212    1.2299    1.0477 C   0  0  0  0  0  0  0  0  0  0  0  0
    3.2236    0.2092    0.1920 C   0  0  0  0  0  0  0  0  0  0  0  0
    2.3888   -0.9964    0.1648 C   0  0  0  0  0  0  0  0  0  0  0  0
    1.0464   -1.0352    0.1681 C   0  0  0  0  0  0  0  0  0  0  0  0
    0.2574   -2.2512    0.0740 C   0  0  0  0  0  0  0  0  0  0  0  0
   -1.0989   -2.2381    0.0385 C   0  0  0  0  0  0  0  0  0  0  0  0
   -1.9581   -1.0869    0.1220 C   0  0  0  0  0  0  0  0  0  0  0  0
   -3.2985   -1.1743    0.0008 C   0  0  0  0  0  0  0  0  0  0  0  0
   -4.2231   -0.0568    0.0813 C   0  0  0  0  0  0  0  0  0  0  0  0
   -5.5360   -0.3425   -0.0845 C   0  0  0  0  0  0  0  0  0  0  0  0
   -6.6662    0.5876   -0.0422 C   0  0  0  0  0  0  0  0  0  0  0  0
    5.4718   -0.7655   -0.3460 C   0  0  0  0  0  0  0  0  0  0  0  0
    3.8556   -0.2957   -2.1869 C   0  0  0  0  0  0  0  0  0  0  0  0
    1.9248    1.2714    2.0737 C   0  0  0  0  0  0  0  0  0  0  0  0
    0.9795   -3.5628   -0.0159 C   0  0  0  0  0  0  0  0  0  0  0  0
   -3.6532    1.3026    0.3451 C   0  0  0  0  0  0  0  0  0  0  0  0
   -6.6396    1.7842    0.1503 O   0  0  0  0  0  0  0  0  0  0  0  0
   -7.8129   -0.0661   -0.2498 O   0  0  0  0  0  0  0  0  0  0  0  0
    5.8534    1.5322   -1.6167 H   0  0  0  0  0  0  0  0  0  0  0  0
    4.2285    2.1910   -1.6055 H   0  0  0  0  0  0  0  0  0  0  0  0
    5.9102    1.7332    0.8998 H   0  0  0  0  0  0  0  0  0  0  0  0
    5.6504    3.2813    0.1265 H   0  0  0  0  0  0  0  0  0  0  0  0
    4.0880    2.7473    2.0936 H   0  0  0  0  0  0  0  0  0  0  0  0
    3.3126    3.2909    0.6328 H   0  0  0  0  0  0  0  0  0  0  0  0
    2.9295   -1.9330    0.0604 H   0  0  0  0  0  0  0  0  0  0  0  0
    0.5097   -0.0950    0.2071 H   0  0  0  0  0  0  0  0  0  0  0  0
   -1.6062   -3.1922   -0.0699 H   0  0  0  0  0  0  0  0  0  0  0  0
   -1.5085   -0.1163    0.2948 H   0  0  0  0  0  0  0  0  0  0  0  0
   -3.7388   -2.1513   -0.1768 H   0  0  0  0  0  0  0  0  0  0  0  0
   -5.8038   -1.3762   -0.2713 H   0  0  0  0  0  0  0  0  0  0  0  0
    6.2711   -0.8283   -1.0884 H   0  0  0  0  0  0  0  0  0  0  0  0
    5.9132   -0.4376    0.5959 H   0  0  0  0  0  0  0  0  0  0  0  0
    5.0962   -1.7790   -0.1934 H   0  0  0  0  0  0  0  0  0  0  0  0
    4.6509   -0.2207   -2.9315 H   0  0  0  0  0  0  0  0  0  0  0  0
    3.5248   -1.3349   -2.1659 H   0  0  0  0  0  0  0  0  0  0  0  0
    3.0168    0.3129   -2.5304 H   0  0  0  0  0  0  0  0  0  0  0  0
    2.2963    1.7040    3.0046 H   0  0  0  0  0  0  0  0  0  0  0  0
    1.1014    1.9120    1.7442 H   0  0  0  0  0  0  0  0  0  0  0  0
    1.5058    0.2930    2.2984 H   0  0  0  0  0  0  0  0  0  0  0  0
    1.6236   -3.7228    0.8510 H   0  0  0  0  0  0  0  0  0  0  0  0
    0.2818   -4.3962   -0.0734 H   0  0  0  0  0  0  0  0  0  0  0  0
    1.6223   -3.6018   -0.8983 H   0  0  0  0  0  0  0  0  0  0  0  0
   -2.9028    1.5498   -0.4075 H   0  0  0  0  0  0  0  0  0  0  0  0
   -4.4040    2.0819    0.3462 H   0  0  0  0  0  0  0  0  0  0  0  0
   -3.1455    1.3118    1.3116 H   0  0  0  0  0  0  0  0  0  0  0  0
   -8.5523    0.5577   -0.2114 H   0  0  0  0  0  0  0  0  0  0  0  0
 21 15  2  0
 15 14  1  0
 15 22  1  0
 14 13  2  0
 13 12  1  0
 13 20  1  0
 12 11  2  0
 11 10  1  0
 18  5  1  0
 10  9  2  0
  9 19  1  0
  9  8  1  0
  8  7  2  0
  5  4  1  0
  5  6  2  0
  4  3  1  0
  7  6  1  0
  6  1  1  0
  3  2  1  0
  1 17  1  6
  1  2  1  0
  1 16  1  0
  2 23  1  0
  2 24  1  0
  3 25  1  0
  3 26  1  0
  4 27  1  0
  4 28  1  0
  7 29  1  0
  8 30  1  0
 10 31  1  0
 11 32  1  0
 12 33  1  0
 14 34  1  0
 16 35  1  0
 16 36  1  0
 16 37  1  0
 17 38  1  0
 17 39  1  0
 17 40  1  0
 18 41  1  0
 18 42  1  0
 18 43  1  0
 19 44  1  0
 19 45  1  0
 19 46  1  0
 20 47  1  0
 20 48  1  0
 20 49  1  0
 22 50  1  0
M  END
