
     RDKit          3D

 34 33  0  0  0  0  0  0  0  0999 V2000
   -3.9309   -0.6733   -0.0397 C   0  0  0  0  0  0  0  0  0  0  0  0
   -5.3258    0.0657    0.0206 B   0  0  0  0  0  0  0  0  0  0  0  0
    6.0804   -0.3530    0.0408 C   0  0  0  0  0  0  0  0  0  0  0  0
    4.7745    0.4268    0.0538 C   0  0  0  0  0  0  0  0  0  0  0  0
    3.5572   -0.4833    0.0168 C   0  0  0  0  0  0  0  0  0  0  0  0
    1.1408   -0.5628   -0.0134 C   0  0  0  0  0  0  0  0  0  0  0  0
   -0.1374    0.2609    0.0166 C   0  0  0  0  0  0  0  0  0  0  0  0
   -1.3915   -0.6023   -0.0418 C   0  0  0  0  0  0  0  0  0  0  0  0
   -2.6834    0.2054    0.0088 C   0  0  0  0  0  0  0  0  0  0  0  0
    7.2241    0.5484    0.0679 N   0  0  0  0  0  0  0  0  0  0  0  0
    2.3222    0.2766    0.0554 N   0  0  0  0  0  0  0  0  0  0  0  0
   -6.4420   -0.7140    0.1555 O   0  0  0  0  0  0  0  0  0  0  0  0
   -5.3635    1.4263   -0.0732 O   0  0  0  0  0  0  0  0  0  0  0  0
   -3.8892   -1.4073    0.7742 H   0  0  0  0  0  0  0  0  0  0  0  0
   -3.9097   -1.2814   -0.9537 H   0  0  0  0  0  0  0  0  0  0  0  0
    6.1243   -0.9877    0.9304 H   0  0  0  0  0  0  0  0  0  0  0  0
    6.0820   -1.0346   -0.8223 H   0  0  0  0  0  0  0  0  0  0  0  0
    4.7347    1.0572    0.9466 H   0  0  0  0  0  0  0  0  0  0  0  0
    4.7490    1.1008   -0.8108 H   0  0  0  0  0  0  0  0  0  0  0  0
    3.6186   -1.1409   -0.8666 H   0  0  0  0  0  0  0  0  0  0  0  0
    3.5773   -1.1469    0.8881 H   0  0  0  0  0  0  0  0  0  0  0  0
    1.1517   -1.2387    0.8486 H   0  0  0  0  0  0  0  0  0  0  0  0
    1.1362   -1.2098   -0.9068 H   0  0  0  0  0  0  0  0  0  0  0  0
   -0.1486    0.8708    0.9255 H   0  0  0  0  0  0  0  0  0  0  0  0
   -0.1398    0.9610   -0.8268 H   0  0  0  0  0  0  0  0  0  0  0  0
   -1.3780   -1.2055   -0.9569 H   0  0  0  0  0  0  0  0  0  0  0  0
   -1.3795   -1.3157    0.7900 H   0  0  0  0  0  0  0  0  0  0  0  0
   -2.6917    0.9165   -0.8231 H   0  0  0  0  0  0  0  0  0  0  0  0
   -2.6887    0.8111    0.9211 H   0  0  0  0  0  0  0  0  0  0  0  0
    8.0785    0.0065    0.0935 H   0  0  0  0  0  0  0  0  0  0  0  0
    7.2585    1.0632   -0.8036 H   0  0  0  0  0  0  0  0  0  0  0  0
    2.3108    0.9145   -0.7335 H   0  0  0  0  0  0  0  0  0  0  0  0
   -7.2817   -0.2440    0.1741 H   0  0  0  0  0  0  0  0  0  0  0  0
   -6.2395    1.8226   -0.0350 H   0  0  0  0  0  0  0  0  0  0  0  0
  7  8  1  0
  7  6  1  0
  8  9  1  0
 11  6  1  0
 11  5  1  0
  3 10  1  0
  3  4  1  0
  5  4  1  0
  9  1  1  0
  1  2  1  0
 12  2  1  0
  2 13  1  0
  1 14  1  0
  1 15  1  0
  3 16  1  0
  3 17  1  0
  4 18  1  0
  4 19  1  0
  5 20  1  0
  5 21  1  0
  6 22  1  0
  6 23  1  0
  7 24  1  0
  7 25  1  0
  8 26  1  0
  8 27  1  0
  9 28  1  0
  9 29  1  0
 10 30  1  0
 10 31  1  0
 11 32  1  0
 12 33  1  0
 13 34  1  0
M  END
