
     RDKit          3D

 20 21  0  0  0  0  0  0  0  0999 V2000
    1.3434   -1.4374   -0.2568 C   0  0  0  0  0  0  0  0  0  0  0  0
    2.6722    1.6766    0.6742 N   0  0  0  0  0  0  0  0  0  0  0  0
   -0.2033   -2.1898   -0.0578 S   0  0  0  0  0  0  0  0  0  0  0  0
   -0.9839   -0.6416   -0.0059 C   0  0  0  0  0  0  0  0  0  0  0  0
   -0.0517    0.4022   -0.1321 C   0  0  0  0  0  0  0  0  0  0  0  0
    1.2970   -0.0862   -0.2860 C   0  0  0  0  0  0  0  0  0  0  0  0
   -2.3486   -0.3974    0.1301 C   0  0  0  0  0  0  0  0  0  0  0  0
   -2.7791    0.9154    0.1368 C   0  0  0  0  0  0  0  0  0  0  0  0
    2.4935    0.7950   -0.4697 C   0  0  0  0  0  0  0  0  0  0  0  0
   -1.8653    1.9704    0.0150 C   0  0  0  0  0  0  0  0  0  0  0  0
   -0.5133    1.7239   -0.1147 C   0  0  0  0  0  0  0  0  0  0  0  0
    2.2234   -2.0577   -0.3481 H   0  0  0  0  0  0  0  0  0  0  0  0
    2.9632    1.1329    1.4769 H   0  0  0  0  0  0  0  0  0  0  0  0
    3.4295    2.3202    0.4837 H   0  0  0  0  0  0  0  0  0  0  0  0
    2.3378    1.4213   -1.3528 H   0  0  0  0  0  0  0  0  0  0  0  0
    3.3648    0.1648   -0.6901 H   0  0  0  0  0  0  0  0  0  0  0  0
   -3.0540   -1.2126    0.2246 H   0  0  0  0  0  0  0  0  0  0  0  0
    0.1925    2.5405   -0.1862 H   0  0  0  0  0  0  0  0  0  0  0  0
   -3.8352    1.1284    0.2389 H   0  0  0  0  0  0  0  0  0  0  0  0
   -2.2258    2.9909    0.0283 H   0  0  0  0  0  0  0  0  0  0  0  0
  1  3  1  0
  1  6  2  0
  2  9  1  0
  3  4  1  0
  4  5  2  0
  4  7  1  0
  5  6  1  0
  5 11  1  0
  6  9  1  0
  7  8  2  0
  8 10  1  0
 10 11  2  0
  1 12  1  0
  2 13  1  0
  2 14  1  0
  9 15  1  0
  9 16  1  0
  7 17  1  0
 11 18  1  0
  8 19  1  0
 10 20  1  0
M  END
