
     RDKit          3D

 64 67  0  0  0  0  0  0  0  0999 V2000
   22.3263   41.2749   25.6901 C   0  0  0  0  0  0  0  0  0  0  0  0
   21.9377   41.1100   24.3727 C   0  0  0  0  0  0  0  0  0  0  0  0
   21.4609   42.1852   23.6186 C   0  0  0  0  0  0  0  0  0  0  0  0
   21.3825   43.4367   24.2368 C   0  0  0  0  0  0  0  0  0  0  0  0
   21.7700   43.6063   25.5526 C   0  0  0  0  0  0  0  0  0  0  0  0
   22.2481   42.5284   26.2955 C   0  0  0  0  0  0  0  0  0  0  0  0
   21.0571   42.0025   22.2141 C   0  0  0  0  0  0  0  0  0  0  0  0
   20.4755   40.8072   21.7780 C   0  0  0  0  0  0  0  0  0  0  0  0
   20.1028   40.6280   20.4617 C   0  0  0  0  0  0  0  0  0  0  0  0
   20.3038   41.6461   19.5259 C   0  0  0  0  0  0  0  0  0  0  0  0
   20.8810   42.8443   19.9418 C   0  0  0  0  0  0  0  0  0  0  0  0
   21.2468   43.0089   21.2704 C   0  0  0  0  0  0  0  0  0  0  0  0
   22.6542   42.7613   27.7003 C   0  0  0  0  0  0  0  0  0  0  0  0
   23.1450   41.6779   28.2871 O   0  0  0  0  0  0  0  0  0  0  0  0
   22.5543   43.8273   28.2614 O   0  0  0  0  0  0  0  0  0  0  0  0
   19.9139   41.3854   18.2679 O   0  0  0  0  0  0  0  0  0  0  0  0
   20.1084   42.3701   17.2629 C   0  0  0  0  0  0  0  0  0  0  0  0
   19.6128   41.8109   15.9463 C   0  0  0  0  0  0  0  0  0  0  0  0
   21.7956   40.5747   15.4148 C   0  0  0  0  0  0  0  0  0  0  0  0
   20.2798   40.5097   15.5040 C   0  0  0  0  0  0  0  0  0  0  0  0
   22.2680   41.6351   14.5962 O   0  0  0  0  0  0  0  0  0  0  0  0
   22.1835   41.5428   13.2537 C   0  0  0  0  0  0  0  0  0  0  0  0
   21.7932   40.4061   12.5512 C   0  0  0  0  0  0  0  0  0  0  0  0
   21.7582   40.4255   11.1619 C   0  0  0  0  0  0  0  0  0  0  0  0
   22.1309   41.5549   10.4455 C   0  0  0  0  0  0  0  0  0  0  0  0
   22.5405   42.6843   11.1558 C   0  0  0  0  0  0  0  0  0  0  0  0
   22.5499   42.6844   12.5368 C   0  0  0  0  0  0  0  0  0  0  0  0
   22.1496   41.5153    9.0411 N   0  0  0  0  0  0  0  0  0  0  0  0
   21.5939   42.4363    8.2011 C   0  0  0  0  0  0  0  0  0  0  0  0
   20.7132   43.4088    8.7173 C   0  0  0  0  0  0  0  0  0  0  0  0
   20.1354   44.3639    7.9127 C   0  0  0  0  0  0  0  0  0  0  0  0
   20.3976   44.4010    6.5443 C   0  0  0  0  0  0  0  0  0  0  0  0
   21.2419   43.4518    6.0161 C   0  0  0  0  0  0  0  0  0  0  0  0
   21.8502   42.4635    6.8036 C   0  0  0  0  0  0  0  0  0  0  0  0
   22.7308   41.5332    6.0681 C   0  0  0  0  0  0  0  0  0  0  0  0
   23.0064   41.6462    4.8956 O   0  0  0  0  0  0  0  0  0  0  0  0
   23.2094   40.5274    6.8000 O   0  0  0  0  0  0  0  0  0  0  0  0
   22.6960   40.4170   26.2344 H   0  0  0  0  0  0  0  0  0  0  0  0
   22.0308   40.1309   23.9206 H   0  0  0  0  0  0  0  0  0  0  0  0
   20.9966   44.2879   23.6908 H   0  0  0  0  0  0  0  0  0  0  0  0
   21.6938   44.5854   26.0054 H   0  0  0  0  0  0  0  0  0  0  0  0
   20.2913   40.0057   22.4824 H   0  0  0  0  0  0  0  0  0  0  0  0
   19.6463   39.6982   20.1460 H   0  0  0  0  0  0  0  0  0  0  0  0
   21.0570   43.6563   19.2499 H   0  0  0  0  0  0  0  0  0  0  0  0
   21.7126   43.9420   21.5611 H   0  0  0  0  0  0  0  0  0  0  0  0
   23.4001   41.8832   29.1988 H   0  0  0  0  0  0  0  0  0  0  0  0
   21.1680   42.6427   17.1996 H   0  0  0  0  0  0  0  0  0  0  0  0
   19.5542   43.2811   17.5129 H   0  0  0  0  0  0  0  0  0  0  0  0
   19.7613   42.5874   15.1922 H   0  0  0  0  0  0  0  0  0  0  0  0
   18.5333   41.6523   16.0036 H   0  0  0  0  0  0  0  0  0  0  0  0
   22.2030   39.6134   15.0857 H   0  0  0  0  0  0  0  0  0  0  0  0
   22.2247   40.7724   16.3977 H   0  0  0  0  0  0  0  0  0  0  0  0
   19.8500   40.2086   14.5460 H   0  0  0  0  0  0  0  0  0  0  0  0
   20.0398   39.7055   16.2038 H   0  0  0  0  0  0  0  0  0  0  0  0
   21.5007   39.4962   13.0565 H   0  0  0  0  0  0  0  0  0  0  0  0
   21.4327   39.5382   10.6331 H   0  0  0  0  0  0  0  0  0  0  0  0
   22.8602   43.5735   10.6271 H   0  0  0  0  0  0  0  0  0  0  0  0
   22.8598   43.5760   13.0689 H   0  0  0  0  0  0  0  0  0  0  0  0
   22.5928   40.7149    8.6227 H   0  0  0  0  0  0  0  0  0  0  0  0
   20.4702   43.3972    9.7705 H   0  0  0  0  0  0  0  0  0  0  0  0
   19.4612   45.0845    8.3583 H   0  0  0  0  0  0  0  0  0  0  0  0
   19.9445   45.1505    5.9108 H   0  0  0  0  0  0  0  0  0  0  0  0
   21.4502   43.4618    4.9549 H   0  0  0  0  0  0  0  0  0  0  0  0
   23.7774   39.9609    6.2559 H   0  0  0  0  0  0  0  0  0  0  0  0
  1  2  2  0
  1  6  1  0
  1 38  1  0
  2  3  1  0
  2 39  1  0
  3  4  2  0
  3  7  1  0
  4  5  1  0
  4 40  1  0
  5  6  2  0
  5 41  1  0
  6 13  1  0
  7  8  2  0
  7 12  1  0
  8  9  1  0
  8 42  1  0
  9 10  2  0
  9 43  1  0
 10 11  1  0
 10 16  1  0
 11 12  2  0
 11 44  1  0
 12 45  1  0
 13 14  1  0
 13 15  2  0
 14 46  1  0
 16 17  1  0
 17 18  1  0
 17 47  1  0
 17 48  1  0
 18 20  1  0
 18 49  1  0
 18 50  1  0
 19 20  1  0
 19 21  1  0
 19 51  1  0
 19 52  1  0
 20 53  1  0
 20 54  1  0
 21 22  1  0
 22 23  2  0
 22 27  1  0
 23 24  1  0
 23 55  1  0
 24 25  2  0
 24 56  1  0
 25 26  1  0
 25 28  1  0
 26 27  2  0
 26 57  1  0
 27 58  1  0
 28 29  1  0
 28 59  1  0
 29 30  2  0
 29 34  1  0
 30 31  1  0
 30 60  1  0
 31 32  2  0
 31 61  1  0
 32 33  1  0
 32 62  1  0
 33 34  2  0
 33 63  1  0
 34 35  1  0
 35 36  2  0
 35 37  1  0
 37 64  1  0
M  END
