
     RDKit          3D

 51 54  0  0  0  0  0  0  0  0999 V2000
    5.5382    0.0104   -0.3195 C   0  0  0  0  0  0  0  0  0  0  0  0
    6.3438   -1.0765   -0.0309 C   0  0  0  0  0  0  0  0  0  0  0  0
    7.6355   -0.6222   -0.3385 C   0  0  0  0  0  0  0  0  0  0  0  0
   -4.8031    0.6457    0.5336 N   0  0  0  0  0  0  0  0  0  0  0  0
    0.9955   -0.9009    0.5876 C   0  0  0  0  0  0  0  0  0  0  0  0
   -0.3598   -0.3852    0.5803 C   0  0  0  0  0  0  0  0  0  0  0  0
   -1.5214   -1.1112    0.7489 C   0  0  0  0  0  0  0  0  0  0  0  0
   -2.5926   -0.2127    0.6264 C   0  0  0  0  0  0  0  0  0  0  0  0
   -2.0551    1.0378    0.3984 C   0  0  0  0  0  0  0  0  0  0  0  0
   -2.9100    2.2444    0.2811 C   0  0  0  0  0  0  0  0  0  0  0  0
   -4.2737    1.7801   -0.2151 C   0  0  0  0  0  0  0  0  0  0  0  0
   -4.0256   -0.4346    0.8147 C   0  0  0  0  0  0  0  0  0  0  0  0
   -6.2440    0.5540    0.6404 C   0  0  0  0  0  0  0  0  0  0  0  0
   -4.4655   -1.4927    1.2496 O   0  0  0  0  0  0  0  0  0  0  0  0
   -6.9395    0.3109   -0.6863 C   0  0  0  0  0  0  0  0  0  0  0  0
   -6.4753   -0.8846   -1.2511 O   0  0  0  0  0  0  0  0  0  0  0  0
   -7.0423   -1.1417   -2.5096 C   0  0  0  0  0  0  0  0  0  0  0  0
   -0.7135    0.9419    0.3740 N   0  0  0  0  0  0  0  0  0  0  0  0
    1.2549   -2.2106    1.0223 C   0  0  0  0  0  0  0  0  0  0  0  0
    2.5660   -2.6212    0.9868 C   0  0  0  0  0  0  0  0  0  0  0  0
    3.5688   -1.8461    0.5764 N   0  0  0  0  0  0  0  0  0  0  0  0
    1.9868   -0.1247    0.1713 N   0  0  0  0  0  0  0  0  0  0  0  0
    3.2198   -0.6289    0.1918 C   0  0  0  0  0  0  0  0  0  0  0  0
    4.1839    0.2369   -0.2393 N   0  0  0  0  0  0  0  0  0  0  0  0
    7.6377    0.6199   -0.7731 N   0  0  0  0  0  0  0  0  0  0  0  0
    6.3514    0.9968   -0.7580 N   0  0  0  0  0  0  0  0  0  0  0  0
    5.9688    2.3255   -1.1694 C   0  0  0  0  0  0  0  0  0  0  0  0
    6.0413   -2.0364    0.3410 H   0  0  0  0  0  0  0  0  0  0  0  0
    8.5628   -1.1688   -0.2520 H   0  0  0  0  0  0  0  0  0  0  0  0
   -1.5889   -2.1744    0.9166 H   0  0  0  0  0  0  0  0  0  0  0  0
    0.7077    2.0417   -0.7229 H   0  0  0  0  0  0  0  0  0  0  0  0
   -0.4286    2.9898    0.2449 H   0  0  0  0  0  0  0  0  0  0  0  0
    0.8902    2.1265    1.0308 H   0  0  0  0  0  0  0  0  0  0  0  0
   -2.9963    2.7449    1.2509 H   0  0  0  0  0  0  0  0  0  0  0  0
   -2.5178    2.9764   -0.4254 H   0  0  0  0  0  0  0  0  0  0  0  0
   -4.1962    1.5315   -1.2790 H   0  0  0  0  0  0  0  0  0  0  0  0
   -4.9865    2.5989   -0.1267 H   0  0  0  0  0  0  0  0  0  0  0  0
   -6.4944   -0.2359    1.3457 H   0  0  0  0  0  0  0  0  0  0  0  0
   -6.6258    1.4909    1.0544 H   0  0  0  0  0  0  0  0  0  0  0  0
   -8.0235    0.2768   -0.5036 H   0  0  0  0  0  0  0  0  0  0  0  0
   -6.7671    1.1551   -1.3705 H   0  0  0  0  0  0  0  0  0  0  0  0
   -6.6093   -2.0652   -2.8924 H   0  0  0  0  0  0  0  0  0  0  0  0
   -8.1305   -1.2668   -2.4561 H   0  0  0  0  0  0  0  0  0  0  0  0
   -6.8327   -0.3383   -3.2266 H   0  0  0  0  0  0  0  0  0  0  0  0
    0.4784   -2.8704    1.3785 H   0  0  0  0  0  0  0  0  0  0  0  0
    2.8349   -3.6208    1.3087 H   0  0  0  0  0  0  0  0  0  0  0  0
    3.8324    1.1364   -0.5313 H   0  0  0  0  0  0  0  0  0  0  0  0
    5.5030    2.8758   -0.3514 H   0  0  0  0  0  0  0  0  0  0  0  0
    6.8676    2.8531   -1.4718 H   0  0  0  0  0  0  0  0  0  0  0  0
    5.2843    2.2979   -2.0176 H   0  0  0  0  0  0  0  0  0  0  0  0
    0.1699    2.0840    0.2194 C   0  0  0  0  0  0  0  0  0  0  0  0
 17 16  1  0
 16 15  1  0
 15 13  1  0
 14 12  2  0
 13  4  1  0
 12  8  1  0
 12  4  1  0
 19 20  2  0
 19  5  1  0
 20 21  1  0
  7  8  1  0
  7  6  2  0
  8  9  2  0
  4 11  1  0
  6  5  1  0
  6 18  1  0
  5 22  2  0
  9 18  1  0
  9 10  1  0
 21 23  2  0
 18 51  1  0
 10 11  1  0
 22 23  1  0
 23 24  1  0
 24  1  1  0
 27 26  1  0
  1 26  1  0
  1  2  2  0
 26 25  1  0
  2  3  1  0
 25  3  2  0
  2 28  1  0
  3 29  1  0
  7 30  1  0
 51 31  1  0
 51 32  1  0
 51 33  1  0
 10 34  1  0
 10 35  1  0
 11 36  1  0
 11 37  1  0
 13 38  1  0
 13 39  1  0
 15 40  1  0
 15 41  1  0
 17 42  1  0
 17 43  1  0
 17 44  1  0
 19 45  1  0
 20 46  1  0
 24 47  1  0
 27 48  1  0
 27 49  1  0
 27 50  1  0
M  END
