
     RDKit          3D

 49 52  0  0  0  0  0  0  0  0999 V2000
    1.0161   -0.1712    1.3108 C   0  0  2  0  0  0  0  0  0  0  0  0
   -4.9134   -0.1724    0.4370 C   0  0  0  0  0  0  0  0  0  0  0  0
   -4.2345   -0.4121   -0.7775 C   0  0  0  0  0  0  0  0  0  0  0  0
   -6.3062   -0.0052    0.4325 C   0  0  0  0  0  0  0  0  0  0  0  0
   -4.9080   -0.5095   -1.9949 C   0  0  0  0  0  0  0  0  0  0  0  0
   -6.9424   -0.0978   -0.7771 C   0  0  0  0  0  0  0  0  0  0  0  0
   -6.2770   -0.3479   -1.9837 C   0  0  0  0  0  0  0  0  0  0  0  0
   -2.9044   -0.5152   -0.4953 N   0  0  0  0  0  0  0  0  0  0  0  0
   -2.7201   -0.3751    0.8562 C   0  0  0  0  0  0  0  0  0  0  0  0
   -3.9292   -0.1613    1.4626 C   0  0  0  0  0  0  0  0  0  0  0  0
   -1.4077   -0.4094    1.5346 C   0  0  0  0  0  0  0  0  0  0  0  0
   -1.3434   -0.6059    2.7407 O   0  0  0  0  0  0  0  0  0  0  0  0
   -0.3261   -0.2143    0.7599 N   0  0  0  0  0  0  0  0  0  0  0  0
    1.3248    1.1997    1.9454 C   0  0  0  0  0  0  0  0  0  0  0  0
    1.8439    1.9924    0.7792 C   0  0  0  0  0  0  0  0  0  0  0  0
    2.2348    1.1363   -0.2485 C   0  0  0  0  0  0  0  0  0  0  0  0
    2.0479   -0.3011    0.1704 C   0  0  1  0  0  0  0  0  0  0  0  0
    1.9518    3.3658    0.6320 C   0  0  0  0  0  0  0  0  0  0  0  0
    2.4484    3.8794   -0.5627 C   0  0  0  0  0  0  0  0  0  0  0  0
    2.8270    3.0264   -1.5935 C   0  0  0  0  0  0  0  0  0  0  0  0
    2.7217    1.6470   -1.4418 C   0  0  0  0  0  0  0  0  0  0  0  0
    3.3423   -0.9345    0.6980 C   0  0  0  0  0  0  0  0  0  0  0  0
    4.4601   -1.0309   -0.3299 C   0  0  0  0  0  0  0  0  0  0  0  0
    5.6681   -1.7456    0.2549 C   0  0  0  0  0  0  0  0  0  0  0  0
    6.8292   -1.8543   -0.6933 C   0  0  0  0  0  0  0  0  0  0  0  0
    6.8490   -1.4343   -1.8236 O   0  0  0  0  0  0  0  0  0  0  0  0
    7.8624   -2.4810   -0.1368 O   0  0  0  0  0  0  0  0  0  0  0  0
    1.1122   -0.9834    2.0312 H   0  0  0  0  0  0  0  0  0  0  0  0
   -6.8586    0.1862    1.3435 H   0  0  0  0  0  0  0  0  0  0  0  0
   -4.3819   -0.7030   -2.9203 H   0  0  0  0  0  0  0  0  0  0  0  0
   -6.8446   -0.4118   -2.9027 H   0  0  0  0  0  0  0  0  0  0  0  0
   -2.2068   -0.8083   -1.1599 H   0  0  0  0  0  0  0  0  0  0  0  0
   -4.0881    0.0078    2.5153 H   0  0  0  0  0  0  0  0  0  0  0  0
   -0.4494    0.1252   -0.1816 H   0  0  0  0  0  0  0  0  0  0  0  0
    0.4544    1.6459    2.4268 H   0  0  0  0  0  0  0  0  0  0  0  0
    2.0941    1.0926    2.7160 H   0  0  0  0  0  0  0  0  0  0  0  0
    1.6632   -0.9244   -0.6436 H   0  0  0  0  0  0  0  0  0  0  0  0
    1.6461    4.0343    1.4280 H   0  0  0  0  0  0  0  0  0  0  0  0
    2.5307    4.9507   -0.6950 H   0  0  0  0  0  0  0  0  0  0  0  0
    3.2011    3.4378   -2.5220 H   0  0  0  0  0  0  0  0  0  0  0  0
    3.0091    0.9878   -2.2521 H   0  0  0  0  0  0  0  0  0  0  0  0
    3.6957   -0.3691    1.5673 H   0  0  0  0  0  0  0  0  0  0  0  0
    3.1014   -1.9381    1.0614 H   0  0  0  0  0  0  0  0  0  0  0  0
    4.1045   -1.5645   -1.2156 H   0  0  0  0  0  0  0  0  0  0  0  0
    4.7527   -0.0325   -0.6598 H   0  0  0  0  0  0  0  0  0  0  0  0
    6.0130   -1.2333    1.1589 H   0  0  0  0  0  0  0  0  0  0  0  0
    5.3986   -2.7563    0.5781 H   0  0  0  0  0  0  0  0  0  0  0  0
    8.5949   -2.5378   -0.7682 H   0  0  0  0  0  0  0  0  0  0  0  0
   -8.2809    0.0554   -0.8256 F   0  0  0  0  0  0  0  0  0  0  0  0
  1 13  1  0
  1 14  1  0
  1 17  1  0
  2  3  1  0
  2  4  2  0
  2 10  1  0
  3  5  2  0
  3  8  1  0
  4  6  1  0
  5  7  1  0
  6  7  2  0
  6 49  1  0
  8  9  1  0
  9 10  2  0
  9 11  1  0
 11 12  2  0
 11 13  1  0
 14 15  1  0
 15 16  2  0
 15 18  1  0
 16 17  1  0
 16 21  1  0
 17 22  1  0
 18 19  2  0
 19 20  1  0
 20 21  2  0
 22 23  1  0
 23 24  1  0
 24 25  1  0
 25 26  2  0
 25 27  1  0
  1 28  1  1
  4 29  1  0
  5 30  1  0
  7 31  1  0
  8 32  1  0
 10 33  1  0
 13 34  1  0
 14 35  1  0
 14 36  1  0
 17 37  1  6
 18 38  1  0
 19 39  1  0
 20 40  1  0
 21 41  1  0
 22 42  1  0
 22 43  1  0
 23 44  1  0
 23 45  1  0
 24 46  1  0
 24 47  1  0
 27 48  1  0
M  END
