
     RDKit          3D

 59 61  0  0  0  0  0  0  0  0999 V2000
    3.3404    0.1421    1.3515 N   0  0  0  0  0  0  0  0  0  0  0  0
    4.4332    0.8976    1.3082 C   0  0  0  0  0  0  0  0  0  0  0  0
    5.3132    0.7750    2.3471 N   0  0  0  0  0  0  0  0  0  0  0  0
    4.6679    1.8234    0.2779 C   0  0  0  0  0  0  0  0  0  0  0  0
    3.7354    1.9508   -0.7320 C   0  0  0  0  0  0  0  0  0  0  0  0
    2.5891    1.1533   -0.6724 C   0  0  0  0  0  0  0  0  0  0  0  0
    2.4329    0.2691    0.3810 C   0  0  0  0  0  0  0  0  0  0  0  0
    3.9469    2.8987   -1.8727 C   0  0  0  0  0  0  0  0  0  0  0  0
    1.2294   -0.6265    0.4677 C   0  0  0  0  0  0  0  0  0  0  0  0
   -0.7934   -2.4265    0.4288 O   0  0  0  0  0  0  0  0  0  0  0  0
    1.6912   -3.4821   -1.9017 N   0  0  0  0  0  0  0  0  0  0  0  0
   -1.8862   -3.2879    0.6386 C   0  0  0  0  0  0  0  0  0  0  0  0
   -3.0443   -2.4654    1.1616 C   0  0  0  0  0  0  0  0  0  0  0  0
   -3.4187   -1.4370    0.2108 N   0  0  0  0  0  0  0  0  0  0  0  0
   -4.3779   -0.4736    0.7252 C   0  0  1  0  0  0  0  0  0  0  0  0
   -4.4205    0.7468   -0.2020 C   0  0  0  0  0  0  0  0  0  0  0  0
   -5.7656   -1.0895    0.8396 C   0  0  0  0  0  0  0  0  0  0  0  0
    0.4069   -3.7563   -1.2756 C   0  0  0  0  0  0  0  0  0  0  0  0
   -3.0964    1.4536   -0.3027 C   0  0  0  0  0  0  0  0  0  0  0  0
   -2.3257    1.3918   -1.4610 C   0  0  0  0  0  0  0  0  0  0  0  0
   -1.0929    2.0294   -1.5271 C   0  0  0  0  0  0  0  0  0  0  0  0
   -0.6028    2.7380   -0.4407 C   0  0  0  0  0  0  0  0  0  0  0  0
   -1.3777    2.7845    0.7025 C   0  0  0  0  0  0  0  0  0  0  0  0
   -0.9186    3.4653    1.7673 F   0  0  0  0  0  0  0  0  0  0  0  0
   -2.6062    2.1641    0.7929 C   0  0  0  0  0  0  0  0  0  0  0  0
    0.4139   -3.0702    0.1126 C   0  0  1  0  0  0  0  0  0  0  0  0
    1.5736   -2.0464    0.0165 C   0  0  1  0  0  0  0  0  0  0  0  0
    2.0146   -2.1360   -1.4535 C   0  0  0  0  0  0  0  0  0  0  0  0
    5.2513   -0.0783    2.8783 H   0  0  0  0  0  0  0  0  0  0  0  0
    6.2565    1.0896    2.1925 H   0  0  0  0  0  0  0  0  0  0  0  0
    5.5687    2.4258    0.2840 H   0  0  0  0  0  0  0  0  0  0  0  0
    1.8344    1.2195   -1.4456 H   0  0  0  0  0  0  0  0  0  0  0  0
    4.2814    2.3592   -2.7608 H   0  0  0  0  0  0  0  0  0  0  0  0
    3.0225    3.4116   -2.1392 H   0  0  0  0  0  0  0  0  0  0  0  0
    4.7003    3.6501   -1.6410 H   0  0  0  0  0  0  0  0  0  0  0  0
    0.8681   -0.6368    1.4980 H   0  0  0  0  0  0  0  0  0  0  0  0
    0.4269   -0.2174   -0.1500 H   0  0  0  0  0  0  0  0  0  0  0  0
    2.3822   -4.1224   -1.5281 H   0  0  0  0  0  0  0  0  0  0  0  0
   -2.1814   -3.7921   -0.2912 H   0  0  0  0  0  0  0  0  0  0  0  0
   -1.6372   -4.0694    1.3699 H   0  0  0  0  0  0  0  0  0  0  0  0
   -3.8821   -3.1471    1.3294 H   0  0  0  0  0  0  0  0  0  0  0  0
   -2.7755   -2.0517    2.1473 H   0  0  0  0  0  0  0  0  0  0  0  0
   -2.5723   -0.9431   -0.0473 H   0  0  0  0  0  0  0  0  0  0  0  0
   -4.0838   -0.1189    1.7293 H   0  0  0  0  0  0  0  0  0  0  0  0
   -4.7481    0.4277   -1.1949 H   0  0  0  0  0  0  0  0  0  0  0  0
   -5.1765    1.4386    0.1771 H   0  0  0  0  0  0  0  0  0  0  0  0
   -6.4797   -0.3559    1.2159 H   0  0  0  0  0  0  0  0  0  0  0  0
   -6.1138   -1.4385   -0.1344 H   0  0  0  0  0  0  0  0  0  0  0  0
   -5.7805   -1.9372    1.5250 H   0  0  0  0  0  0  0  0  0  0  0  0
   -0.3858   -3.3023   -1.8814 H   0  0  0  0  0  0  0  0  0  0  0  0
    0.2174   -4.8291   -1.2319 H   0  0  0  0  0  0  0  0  0  0  0  0
   -2.6944    0.8460   -2.3207 H   0  0  0  0  0  0  0  0  0  0  0  0
   -0.5063    1.9757   -2.4354 H   0  0  0  0  0  0  0  0  0  0  0  0
    0.3561    3.2378   -0.4775 H   0  0  0  0  0  0  0  0  0  0  0  0
   -3.1805    2.2318    1.7094 H   0  0  0  0  0  0  0  0  0  0  0  0
    0.6359   -3.8116    0.8935 H   0  0  0  0  0  0  0  0  0  0  0  0
    2.3965   -2.4092    0.6399 H   0  0  0  0  0  0  0  0  0  0  0  0
    3.0725   -1.9178   -1.5996 H   0  0  0  0  0  0  0  0  0  0  0  0
    1.4477   -1.4171   -2.0574 H   0  0  0  0  0  0  0  0  0  0  0  0
  1  7  2  0
  1  2  1  0
  3  2  1  0
  2  4  2  0
  3 29  1  0
  3 30  1  0
  4  5  1  0
  4 31  1  0
  6  5  2  0
  5  8  1  0
  7  6  1  0
  6 32  1  0
  9  7  1  0
  8 33  1  0
  8 34  1  0
  8 35  1  0
  9 27  1  0
  9 36  1  0
  9 37  1  0
 12 10  1  0
 10 26  1  0
 18 11  1  0
 28 11  1  0
 11 38  1  0
 13 12  1  0
 12 39  1  0
 12 40  1  0
 13 14  1  0
 13 41  1  0
 13 42  1  0
 15 14  1  0
 14 43  1  0
 17 15  1  0
 15 16  1  0
 15 44  1  1
 19 16  1  0
 16 45  1  0
 16 46  1  0
 17 47  1  0
 17 48  1  0
 17 49  1  0
 26 18  1  0
 18 50  1  0
 18 51  1  0
 25 19  1  0
 19 20  2  0
 21 20  1  0
 20 52  1  0
 22 21  2  0
 21 53  1  0
 23 22  1  0
 22 54  1  0
 24 23  1  0
 23 25  2  0
 25 55  1  0
 26 27  1  0
 26 56  1  1
 27 28  1  0
 27 57  1  1
 28 58  1  0
 28 59  1  0
M  END
