
     RDKit          3D

 61 65  0  0  0  0  0  0  0  0999 V2000
    2.4042    1.1070    0.0695 N   0  0  0  0  0  0  0  0  0  0  0  0
    1.2296    1.8296    0.1174 C   0  0  0  0  0  0  0  0  0  0  0  0
    0.9411    3.1486   -0.0964 C   0  0  0  0  0  0  0  0  0  0  0  0
   -0.4010    3.5288    0.0459 C   0  0  0  0  0  0  0  0  0  0  0  0
   -1.4110    2.5989    0.3951 C   0  0  0  0  0  0  0  0  0  0  0  0
   -1.0890    1.2469    0.6174 C   0  0  0  0  0  0  0  0  0  0  0  0
   -2.1311    0.2321    0.9734 C   0  0  0  0  0  0  0  0  0  0  0  0
   -2.7792   -0.3810   -0.2647 C   0  0  0  0  0  0  0  0  0  0  0  0
   -3.7883   -1.3518    0.1137 N   0  0  0  0  0  0  0  0  0  0  0  0
   -4.4172   -1.9849   -1.0276 C   0  0  0  0  0  0  0  0  0  0  0  0
   -5.4104   -3.0363   -0.6069 C   0  0  0  0  0  0  0  0  0  0  0  0
   -6.6601   -3.1160   -1.2136 C   0  0  0  0  0  0  0  0  0  0  0  0
   -7.5696   -4.1014   -0.8476 C   0  0  0  0  0  0  0  0  0  0  0  0
   -7.2395   -5.0194    0.1392 C   0  0  0  0  0  0  0  0  0  0  0  0
   -5.9953   -4.9451    0.7554 C   0  0  0  0  0  0  0  0  0  0  0  0
   -5.0900   -3.9607    0.3864 C   0  0  0  0  0  0  0  0  0  0  0  0
    0.2406    0.8771    0.4652 C   0  0  0  0  0  0  0  0  0  0  0  0
    0.8071   -0.3589    0.6158 N   0  0  0  0  0  0  0  0  0  0  0  0
    2.0915   -0.1805    0.3784 C   0  0  0  0  0  0  0  0  0  0  0  0
    3.0151   -1.1499    0.4575 N   0  0  0  0  0  0  0  0  0  0  0  0
    4.3855   -1.0005    0.0182 C   0  0  0  0  0  0  0  0  0  0  0  0
   -2.7249    2.9760    0.5268 N   0  0  0  0  0  0  0  0  0  0  0  0
   -3.0324    4.2153    0.3390 C   0  0  0  0  0  0  0  0  0  0  0  0
   -4.3007    4.6501    0.5183 N   0  0  0  0  0  0  0  0  0  0  0  0
   -2.1123    5.1705    0.0006 N   0  0  0  0  0  0  0  0  0  0  0  0
   -0.7696    4.9140   -0.1683 C   0  0  0  0  0  0  0  0  0  0  0  0
   -0.0025    5.8167   -0.4705 O   0  0  0  0  0  0  0  0  0  0  0  0
    3.3155    1.4721   -0.1538 H   0  0  0  0  0  0  0  0  0  0  0  0
    1.6985    3.8745   -0.3609 H   0  0  0  0  0  0  0  0  0  0  0  0
   -1.6805   -0.5668    1.5653 H   0  0  0  0  0  0  0  0  0  0  0  0
   -2.9055    0.6966    1.5873 H   0  0  0  0  0  0  0  0  0  0  0  0
   -3.1796    0.4233   -0.9007 H   0  0  0  0  0  0  0  0  0  0  0  0
   -2.0155   -0.8938   -0.8576 H   0  0  0  0  0  0  0  0  0  0  0  0
   -4.5012   -0.8854    0.6635 H   0  0  0  0  0  0  0  0  0  0  0  0
   -4.9138   -1.2692   -1.7009 H   0  0  0  0  0  0  0  0  0  0  0  0
   -3.6275   -2.4565   -1.6227 H   0  0  0  0  0  0  0  0  0  0  0  0
   -6.9279   -2.3958   -1.9786 H   0  0  0  0  0  0  0  0  0  0  0  0
   -8.5383   -4.1452   -1.3288 H   0  0  0  0  0  0  0  0  0  0  0  0
   -7.9475   -5.7844    0.4310 H   0  0  0  0  0  0  0  0  0  0  0  0
   -5.7311   -5.6576    1.5268 H   0  0  0  0  0  0  0  0  0  0  0  0
   -4.1253   -3.9030    0.8749 H   0  0  0  0  0  0  0  0  0  0  0  0
    2.6445   -2.0851    0.5235 H   0  0  0  0  0  0  0  0  0  0  0  0
    4.4551   -0.9398   -1.0740 H   0  0  0  0  0  0  0  0  0  0  0  0
    4.7942   -0.0703    0.4212 H   0  0  0  0  0  0  0  0  0  0  0  0
   -5.0042    3.9331    0.5823 H   0  0  0  0  0  0  0  0  0  0  0  0
   -4.6020    5.4944    0.0605 H   0  0  0  0  0  0  0  0  0  0  0  0
   -2.4101    6.1304   -0.1172 H   0  0  0  0  0  0  0  0  0  0  0  0
    5.2269   -2.1673    0.5252 C   0  0  0  0  0  0  0  0  0  0  0  0
    6.6582   -2.0327    0.0870 C   0  0  0  0  0  0  0  0  0  0  0  0
    7.5706   -1.3124    0.8549 C   0  0  0  0  0  0  0  0  0  0  0  0
    8.8844   -1.1534    0.4353 C   0  0  0  0  0  0  0  0  0  0  0  0
    9.3059   -1.7146   -0.7633 C   0  0  0  0  0  0  0  0  0  0  0  0
    8.4049   -2.4342   -1.5373 C   0  0  0  0  0  0  0  0  0  0  0  0
    7.0916   -2.5901   -1.1136 C   0  0  0  0  0  0  0  0  0  0  0  0
    5.1629   -2.2028    1.6148 H   0  0  0  0  0  0  0  0  0  0  0  0
    4.8084   -3.1043    0.1479 H   0  0  0  0  0  0  0  0  0  0  0  0
    7.2521   -0.8753    1.7944 H   0  0  0  0  0  0  0  0  0  0  0  0
    9.5800   -0.5930    1.0465 H   0  0  0  0  0  0  0  0  0  0  0  0
   10.3311   -1.5958   -1.0894 H   0  0  0  0  0  0  0  0  0  0  0  0
    8.7247   -2.8784   -2.4710 H   0  0  0  0  0  0  0  0  0  0  0  0
    6.3974   -3.1599   -1.7206 H   0  0  0  0  0  0  0  0  0  0  0  0
 21 20  1  0
 15 14  2  0
 15 16  1  0
 14 13  1  0
 16 11  2  0
 20 19  1  0
 13 12  2  0
 11 12  1  0
 11 10  1  0
 19 18  2  0
 19  1  1  0
  9 10  1  0
  9  8  1  0
 18 17  1  0
  1  2  1  0
  8  7  1  0
 17  2  2  0
 17  6  1  0
  7  6  1  0
  2  3  1  0
  6  5  2  0
  3  4  2  0
  5  4  1  0
  5 22  1  0
  4 26  1  0
 22 23  2  0
 26 27  2  0
 26 25  1  0
 23 25  1  0
 23 24  1  0
  1 28  1  0
  3 29  1  0
  7 30  1  0
  7 31  1  0
  8 32  1  0
  8 33  1  0
  9 34  1  0
 10 35  1  0
 10 36  1  0
 12 37  1  0
 13 38  1  0
 14 39  1  0
 15 40  1  0
 16 41  1  0
 20 42  1  0
 21 43  1  0
 21 44  1  0
 24 45  1  0
 24 46  1  0
 25 47  1  0
 21 48  1  0
 48 49  1  0
 49 50  2  0
 50 51  1  0
 51 52  2  0
 52 53  1  0
 53 54  2  0
 54 49  1  0
 48 55  1  0
 48 56  1  0
 50 57  1  0
 51 58  1  0
 52 59  1  0
 53 60  1  0
 54 61  1  0
M  END
