
     RDKit          3D

 48 51  0  0  0  0  0  0  0  0999 V2000
    5.9860    0.9535   -0.3418 O   0  0  0  0  0  0  0  0  0  0  0  0
    4.7068    0.8229    0.2413 C   0  0  1  0  0  0  0  0  0  0  0  0
    3.8324    1.9840   -0.1702 C   0  0  0  0  0  0  0  0  0  0  0  0
    2.5097    2.1167   -0.1418 C   0  0  0  0  0  0  0  0  0  0  0  0
    1.4791    1.1324    0.3215 C   0  0  1  0  0  0  0  0  0  0  0  0
    0.2373    1.5570   -0.2092 O   0  0  0  0  0  0  0  0  0  0  0  0
   -0.8419    0.7963    0.2724 C   0  0  1  0  0  0  0  0  0  0  0  0
   -2.1405    1.3550   -0.2652 C   0  0  2  0  0  0  0  0  0  0  0  0
   -2.3145    2.6609    0.2189 O   0  0  0  0  0  0  0  0  0  0  0  0
   -3.2922    0.4393    0.1575 C   0  0  1  0  0  0  0  0  0  0  0  0
   -4.4396    0.9558   -0.4680 O   0  0  0  0  0  0  0  0  0  0  0  0
   -5.6774    0.5983    0.1102 C   0  0  0  0  0  0  0  0  0  0  0  0
   -6.1604   -0.7645   -0.2974 C   0  0  0  0  0  0  0  0  0  0  0  0
   -5.4391   -1.8784   -0.2218 C   0  0  0  0  0  0  0  0  0  0  0  0
   -4.0463   -2.0015    0.3281 C   0  0  0  0  0  0  0  0  0  0  0  0
   -3.0190   -1.0219   -0.2242 C   0  0  2  0  0  0  0  0  0  0  0  0
   -1.7704   -1.4227    0.3114 O   0  0  0  0  0  0  0  0  0  0  0  0
   -0.6956   -0.6565   -0.1718 C   0  0  2  0  0  0  0  0  0  0  0  0
    0.6143   -1.2185    0.3439 C   0  0  0  0  0  0  0  0  0  0  0  0
    1.7595   -0.3147   -0.0955 C   0  0  2  0  0  0  0  0  0  0  0  0
    2.9381   -0.7845    0.5027 O   0  0  0  0  0  0  0  0  0  0  0  0
    4.1466   -0.5379   -0.1802 C   0  0  2  0  0  0  0  0  0  0  0  0
    5.0910   -1.6780    0.1570 C   0  0  0  0  0  0  0  0  0  0  0  0
    4.5186   -2.8762   -0.3127 O   0  0  0  0  0  0  0  0  0  0  0  0
    5.1513   -3.5842   -0.1641 H   0  0  0  0  0  0  0  0  0  0  0  0
    6.0619   -1.4868   -0.3082 H   0  0  0  0  0  0  0  0  0  0  0  0
    5.2519   -1.7015    1.2445 H   0  0  0  0  0  0  0  0  0  0  0  0
    3.9767   -0.5288   -1.2675 H   0  0  0  0  0  0  0  0  0  0  0  0
    1.8455   -0.3477   -1.1922 H   0  0  0  0  0  0  0  0  0  0  0  0
    0.5873   -1.2640    1.4380 H   0  0  0  0  0  0  0  0  0  0  0  0
    0.7765   -2.2315   -0.0312 H   0  0  0  0  0  0  0  0  0  0  0  0
   -0.6863   -0.6790   -1.2746 H   0  0  0  0  0  0  0  0  0  0  0  0
   -2.9957   -1.0980   -1.3229 H   0  0  0  0  0  0  0  0  0  0  0  0
   -4.0773   -1.8945    1.4195 H   0  0  0  0  0  0  0  0  0  0  0  0
   -3.6802   -3.0108    0.1319 H   0  0  0  0  0  0  0  0  0  0  0  0
   -5.8997   -2.8025   -0.5523 H   0  0  0  0  0  0  0  0  0  0  0  0
   -7.1738   -0.8269   -0.6789 H   0  0  0  0  0  0  0  0  0  0  0  0
   -5.6150    0.6653    1.2062 H   0  0  0  0  0  0  0  0  0  0  0  0
   -6.3953    1.3537   -0.2110 H   0  0  0  0  0  0  0  0  0  0  0  0
   -3.4002    0.4956    1.2540 H   0  0  0  0  0  0  0  0  0  0  0  0
   -2.0877    1.3449   -1.3667 H   0  0  0  0  0  0  0  0  0  0  0  0
   -3.1517    2.9941   -0.1215 H   0  0  0  0  0  0  0  0  0  0  0  0
   -0.8642    0.8247    1.3758 H   0  0  0  0  0  0  0  0  0  0  0  0
    1.4323    1.1567    1.4251 H   0  0  0  0  0  0  0  0  0  0  0  0
    2.1041    3.0735   -0.4548 H   0  0  0  0  0  0  0  0  0  0  0  0
    4.3909    2.8528   -0.5063 H   0  0  0  0  0  0  0  0  0  0  0  0
    4.7836    0.8192    1.3399 H   0  0  0  0  0  0  0  0  0  0  0  0
    6.4465    1.6791    0.0906 H   0  0  0  0  0  0  0  0  0  0  0  0
  1  2  1  0
  1 48  1  0
  2  3  1  0
  2 22  1  0
  2 47  1  1
  3  4  2  0
  3 46  1  0
  4  5  1  0
  4 45  1  0
  5  6  1  0
  5 20  1  0
  5 44  1  1
  6  7  1  0
  7  8  1  0
  7 18  1  0
  7 43  1  1
  8 10  1  0
  8 41  1  6
  8  9  1  0
  9 42  1  0
 10 11  1  0
 10 16  1  0
 10 40  1  1
 11 12  1  0
 12 13  1  0
 12 38  1  0
 12 39  1  0
 13 14  2  0
 13 37  1  0
 14 15  1  0
 14 36  1  0
 15 16  1  0
 15 34  1  0
 15 35  1  0
 16 17  1  0
 16 33  1  6
 17 18  1  0
 18 19  1  0
 18 32  1  6
 19 20  1  0
 19 30  1  0
 19 31  1  0
 20 21  1  0
 20 29  1  6
 21 22  1  0
 22 23  1  0
 22 28  1  6
 23 24  1  0
 23 26  1  0
 23 27  1  0
 24 25  1  0
M  END
