
     RDKit          3D

 72 73  0  0  0  0  0  0  0  0999 V2000
   -3.1338   -0.4796    0.4774 C   0  0  0  0  0  0  0  0  0  0  0  0
   -4.2619    0.1094   -0.0790 C   0  0  0  0  0  0  0  0  0  0  0  0
   -4.2129    1.4378   -0.5162 C   0  0  0  0  0  0  0  0  0  0  0  0
   -3.0209    2.1348   -0.3709 C   0  0  0  0  0  0  0  0  0  0  0  0
   -1.8684    1.5722    0.1803 C   0  0  0  0  0  0  0  0  0  0  0  0
   -1.9584    0.2505    0.6007 C   0  0  0  0  0  0  0  0  0  0  0  0
   -0.6052    2.3938    0.4263 C   0  0  1  0  0  0  0  0  0  0  0  0
    0.6590    1.5648    0.2118 C   0  0  0  0  0  0  0  0  0  0  0  0
   -0.5058    3.6301   -0.5022 C   0  0  0  0  0  0  0  0  0  0  0  0
   -0.7039    2.9647    1.8649 C   0  0  0  0  0  0  0  0  0  0  0  0
   -0.7482    1.9662    3.0120 C   0  0  0  0  0  0  0  0  0  0  0  0
   -0.4058    3.3675   -1.9973 C   0  0  0  0  0  0  0  0  0  0  0  0
    0.7331    0.6149   -0.8120 C   0  0  0  0  0  0  0  0  0  0  0  0
    1.8806   -0.1068   -1.0985 C   0  0  0  0  0  0  0  0  0  0  0  0
    3.0267    0.1273   -0.3247 C   0  0  0  0  0  0  0  0  0  0  0  0
    1.9052   -1.1209   -2.2040 C   0  0  0  0  0  0  0  0  0  0  0  0
    2.9912    1.0787    0.6860 C   0  0  0  0  0  0  0  0  0  0  0  0
    1.8188    1.7848    0.9407 C   0  0  0  0  0  0  0  0  0  0  0  0
   -5.4489   -0.5209   -0.2395 O   0  0  0  0  0  0  0  0  0  0  0  0
   -8.5114   -3.9896    0.3243 O   0  0  0  0  0  0  0  0  0  0  0  0
   -5.5500   -1.8590    0.1598 C   0  0  0  0  0  0  0  0  0  0  0  0
   -6.9497   -2.3277   -0.1982 C   0  0  0  0  0  0  0  0  0  0  0  0
   -7.4045   -3.2667    0.6512 N   0  0  0  0  0  0  0  0  0  0  0  0
   -7.5715   -1.8975   -1.1465 O   0  0  0  0  0  0  0  0  0  0  0  0
    7.6001   -1.5032    0.4513 C   0  0  1  0  0  0  0  0  0  0  0  0
    7.2271   -2.0692    1.8253 C   0  0  0  0  0  0  0  0  0  0  0  0
    8.2698   -0.1386    0.6378 C   0  0  0  0  0  0  0  0  0  0  0  0
    8.5889   -2.4661   -0.2108 C   0  0  0  0  0  0  0  0  0  0  0  0
    5.2955   -0.4359    0.1130 C   0  0  0  0  0  0  0  0  0  0  0  0
    4.1085   -0.6166   -0.6340 O   0  0  0  0  0  0  0  0  0  0  0  0
    6.3362   -1.4023   -0.4351 C   0  0  1  0  0  0  0  0  0  0  0  0
    6.6298   -1.0967   -1.7805 O   0  0  0  0  0  0  0  0  0  0  0  0
   -5.4190    2.0828   -1.1334 C   0  0  0  0  0  0  0  0  0  0  0  0
   -3.1454   -1.5033    0.8271 H   0  0  0  0  0  0  0  0  0  0  0  0
   -3.0096    3.1629   -0.7115 H   0  0  0  0  0  0  0  0  0  0  0  0
   -1.0985   -0.2386    1.0391 H   0  0  0  0  0  0  0  0  0  0  0  0
   -1.3540    4.2927   -0.3049 H   0  0  0  0  0  0  0  0  0  0  0  0
    0.3761    4.1926   -0.1836 H   0  0  0  0  0  0  0  0  0  0  0  0
    0.1262    3.6600    2.0215 H   0  0  0  0  0  0  0  0  0  0  0  0
   -1.6043    3.5851    1.8994 H   0  0  0  0  0  0  0  0  0  0  0  0
   -1.6548    1.3624    2.9935 H   0  0  0  0  0  0  0  0  0  0  0  0
    0.1039    1.2865    2.9975 H   0  0  0  0  0  0  0  0  0  0  0  0
   -0.7292    2.4954    3.9656 H   0  0  0  0  0  0  0  0  0  0  0  0
   -1.2315    2.7596   -2.3695 H   0  0  0  0  0  0  0  0  0  0  0  0
   -0.4262    4.3119   -2.5429 H   0  0  0  0  0  0  0  0  0  0  0  0
    0.5230    2.8615   -2.2595 H   0  0  0  0  0  0  0  0  0  0  0  0
   -0.1422    0.4238   -1.4216 H   0  0  0  0  0  0  0  0  0  0  0  0
    2.6807   -0.9022   -2.9400 H   0  0  0  0  0  0  0  0  0  0  0  0
    2.1033   -2.1259   -1.8263 H   0  0  0  0  0  0  0  0  0  0  0  0
    0.9494   -1.1452   -2.7257 H   0  0  0  0  0  0  0  0  0  0  0  0
    3.8608    1.2879    1.2951 H   0  0  0  0  0  0  0  0  0  0  0  0
    1.8437    2.5196    1.7345 H   0  0  0  0  0  0  0  0  0  0  0  0
   -9.2362   -3.6131    0.8398 H   0  0  0  0  0  0  0  0  0  0  0  0
   -4.8330   -2.4970   -0.3737 H   0  0  0  0  0  0  0  0  0  0  0  0
   -5.3552   -1.9787    1.2320 H   0  0  0  0  0  0  0  0  0  0  0  0
   -6.8062   -3.7022    1.3397 H   0  0  0  0  0  0  0  0  0  0  0  0
    6.6713   -3.0057    1.7367 H   0  0  0  0  0  0  0  0  0  0  0  0
    8.1309   -2.2801    2.3997 H   0  0  0  0  0  0  0  0  0  0  0  0
    6.6257   -1.3776    2.4170 H   0  0  0  0  0  0  0  0  0  0  0  0
    7.6247    0.5699    1.1609 H   0  0  0  0  0  0  0  0  0  0  0  0
    9.1796   -0.2436    1.2320 H   0  0  0  0  0  0  0  0  0  0  0  0
    8.5688    0.3164   -0.3099 H   0  0  0  0  0  0  0  0  0  0  0  0
    8.9391   -2.0987   -1.1753 H   0  0  0  0  0  0  0  0  0  0  0  0
    9.4637   -2.6038    0.4271 H   0  0  0  0  0  0  0  0  0  0  0  0
    8.1381   -3.4484   -0.3705 H   0  0  0  0  0  0  0  0  0  0  0  0
    5.6475    0.5999    0.0223 H   0  0  0  0  0  0  0  0  0  0  0  0
    5.1068   -0.6278    1.1739 H   0  0  0  0  0  0  0  0  0  0  0  0
    5.8825   -2.4004   -0.4608 H   0  0  0  0  0  0  0  0  0  0  0  0
    7.0704   -0.2410   -1.8154 H   0  0  0  0  0  0  0  0  0  0  0  0
   -6.2626    2.1160   -0.4419 H   0  0  0  0  0  0  0  0  0  0  0  0
   -5.1964    3.1053   -1.4349 H   0  0  0  0  0  0  0  0  0  0  0  0
   -5.7560    1.5417   -2.0189 H   0  0  0  0  0  0  0  0  0  0  0  0
 25 27  1  1
 26 25  1  0
 28 25  1  0
 25 31  1  0
 31 29  1  0
 31 32  1  0
 29 30  1  0
 30 15  1  0
 17 15  2  0
 17 18  1  0
 15 14  1  0
 18  8  2  0
 20 23  1  0
 23 22  1  0
 12  9  1  0
  1  2  2  0
  1  6  1  0
 19  2  1  0
 19 21  1  0
 14 16  1  0
 14 13  2  0
  2  3  1  0
  6  5  2  0
  8 13  1  0
  8  7  1  0
 22 21  1  0
 22 24  2  0
  5  4  1  0
  5  7  1  0
  3  4  2  0
  3 33  1  0
  7  9  1  6
  7 10  1  0
 10 11  1  0
  1 34  1  0
  4 35  1  0
  6 36  1  0
  9 37  1  0
  9 38  1  0
 10 39  1  0
 10 40  1  0
 11 41  1  0
 11 42  1  0
 11 43  1  0
 12 44  1  0
 12 45  1  0
 12 46  1  0
 13 47  1  0
 16 48  1  0
 16 49  1  0
 16 50  1  0
 17 51  1  0
 18 52  1  0
 20 53  1  0
 21 54  1  0
 21 55  1  0
 23 56  1  0
 26 57  1  0
 26 58  1  0
 26 59  1  0
 27 60  1  0
 27 61  1  0
 27 62  1  0
 28 63  1  0
 28 64  1  0
 28 65  1  0
 29 66  1  0
 29 67  1  0
 31 68  1  6
 32 69  1  0
 33 70  1  0
 33 71  1  0
 33 72  1  0
M  END
