
     RDKit          3D

 28 30  0  0  0  0  0  0  0  0999 V2000
   -1.8188    0.0180    1.3526 N   0  0  0  0  0  0  0  0  0  0  0  0
   -1.8199    0.0181    2.6634 C   0  0  0  0  0  0  0  0  0  0  0  0
   -0.6585    0.0067    3.4454 C   0  0  0  0  0  0  0  0  0  0  0  0
    0.5724   -0.0059    2.8335 C   0  0  0  0  0  0  0  0  0  0  0  0
    0.5957   -0.0043    1.4168 C   0  0  0  0  0  0  0  0  0  0  0  0
    1.8184   -0.0146    0.6797 C   0  0  0  0  0  0  0  0  0  0  0  0
    1.8203   -0.0140   -0.6739 C   0  0  0  0  0  0  0  0  0  0  0  0
    0.5996   -0.0034   -1.4145 C   0  0  0  0  0  0  0  0  0  0  0  0
    0.5804   -0.0044   -2.8313 C   0  0  0  0  0  0  0  0  0  0  0  0
   -0.6490    0.0057   -3.4465 C   0  0  0  0  0  0  0  0  0  0  0  0
   -1.8124    0.0169   -2.6677 C   0  0  0  0  0  0  0  0  0  0  0  0
   -1.8150    0.0179   -1.3569 N   0  0  0  0  0  0  0  0  0  0  0  0
   -0.6301    0.0076   -0.7253 C   0  0  0  0  0  0  0  0  0  0  0  0
   -0.6322    0.0075    0.7241 C   0  0  0  0  0  0  0  0  0  0  0  0
    1.8351   -0.0229    3.6351 C   0  0  0  0  0  0  0  0  0  0  0  0
    1.8453   -0.0176   -3.6293 C   0  0  0  0  0  0  0  0  0  0  0  0
   -2.7902    0.0274    3.1495 H   0  0  0  0  0  0  0  0  0  0  0  0
   -0.7409    0.0076    4.5245 H   0  0  0  0  0  0  0  0  0  0  0  0
    2.7588   -0.0228    1.2145 H   0  0  0  0  0  0  0  0  0  0  0  0
    2.7624   -0.0224   -1.2057 H   0  0  0  0  0  0  0  0  0  0  0  0
   -0.7287    0.0049   -4.5260 H   0  0  0  0  0  0  0  0  0  0  0  0
   -2.7812    0.0253   -3.1571 H   0  0  0  0  0  0  0  0  0  0  0  0
    2.4360   -0.9066    3.4139 H   0  0  0  0  0  0  0  0  0  0  0  0
    2.4576    0.8471    3.4198 H   0  0  0  0  0  0  0  0  0  0  0  0
    1.6185   -0.0235    4.7014 H   0  0  0  0  0  0  0  0  0  0  0  0
    2.4477   -0.9001   -3.4083 H   0  0  0  0  0  0  0  0  0  0  0  0
    1.6318   -0.0169   -4.6962 H   0  0  0  0  0  0  0  0  0  0  0  0
    2.4652    0.8536   -3.4112 H   0  0  0  0  0  0  0  0  0  0  0  0
  1  2  2  0
  1 14  1  0
  2  3  1  0
  2 17  1  0
  3  4  2  0
  3 18  1  0
  4  5  1  0
  4 15  1  0
  5  6  1  0
  5 14  2  0
  6  7  2  0
  6 19  1  0
  7  8  1  0
  7 20  1  0
  8  9  1  0
  8 13  2  0
  9 10  2  0
  9 16  1  0
 10 11  1  0
 10 21  1  0
 11 12  2  0
 11 22  1  0
 12 13  1  0
 13 14  1  0
 15 23  1  0
 15 24  1  0
 15 25  1  0
 16 26  1  0
 16 27  1  0
 16 28  1  0
M  END
