
     RDKit          3D

 46 50  0  0  0  0  0  0  0  0999 V2000
   -0.1445    1.2028    0.7795 C   0  0  0  0  0  0  0  0  0  0  0  0
   -2.7306    0.2098   -0.1330 C   0  0  1  0  0  0  0  0  0  0  0  0
   -6.4274   -0.4550    1.4942 C   0  0  0  0  0  0  0  0  0  0  0  0
   -5.6404   -1.8074   -0.7985 C   0  0  0  0  0  0  0  0  0  0  0  0
   -4.8182   -0.8248   -0.2618 C   0  0  0  0  0  0  0  0  0  0  0  0
    0.4278    1.8752   -1.4803 C   0  0  0  0  0  0  0  0  0  0  0  0
    3.5436    0.2139    0.1105 C   0  0  0  0  0  0  0  0  0  0  0  0
    5.1361   -1.5305   -0.0073 C   0  0  0  0  0  0  0  0  0  0  0  0
    6.1293   -0.6893    0.4788 C   0  0  0  0  0  0  0  0  0  0  0  0
    5.8289    0.6328    0.7894 C   0  0  0  0  0  0  0  0  0  0  0  0
    4.5302    1.0683    0.5999 C   0  0  0  0  0  0  0  0  0  0  0  0
    2.7819    2.3279    0.5405 C   0  0  0  0  0  0  0  0  0  0  0  0
    2.2705    1.0013    0.0243 C   0  0  2  0  0  0  0  0  0  0  0  0
    1.1601    0.4295    0.9214 C   0  0  0  0  0  0  0  0  0  0  0  0
   -1.7034    0.7582   -1.1248 C   0  0  0  0  0  0  0  0  0  0  0  0
   -3.4708    1.3523    0.5516 C   0  0  0  0  0  0  0  0  0  0  0  0
   -5.2191   -0.1393    0.8871 C   0  0  0  0  0  0  0  0  0  0  0  0
   -7.2399   -1.4428    0.9593 C   0  0  0  0  0  0  0  0  0  0  0  0
   -6.8503   -2.1121   -0.1945 C   0  0  0  0  0  0  0  0  0  0  0  0
    1.7491    1.1222   -1.4185 C   0  0  0  0  0  0  0  0  0  0  0  0
    3.8268   -1.0987   -0.2011 C   0  0  0  0  0  0  0  0  0  0  0  0
    4.0208    2.3559    0.8509 N   0  0  0  0  0  0  0  0  0  0  0  0
   -0.5622    1.2580   -0.6116 N   0  0  0  0  0  0  0  0  0  0  0  0
   -4.4481    0.8354    1.4309 O   0  0  0  0  0  0  0  0  0  0  0  0
   -3.6404   -0.5630   -0.8813 O   0  0  0  0  0  0  0  0  0  0  0  0
   -1.9685    0.7715   -2.3140 O   0  0  0  0  0  0  0  0  0  0  0  0
    5.5398   -3.1740   -0.3881 Cl  0  0  0  0  0  0  0  0  0  0  0  0
   -0.8982    0.7333    1.4044 H   0  0  0  0  0  0  0  0  0  0  0  0
   -0.0307    2.2255    1.1519 H   0  0  0  0  0  0  0  0  0  0  0  0
   -2.2579   -0.4305    0.6208 H   0  0  0  0  0  0  0  0  0  0  0  0
   -5.3211   -2.3276   -1.6931 H   0  0  0  0  0  0  0  0  0  0  0  0
    0.5627    2.9148   -1.1651 H   0  0  0  0  0  0  0  0  0  0  0  0
    0.0558    1.8941   -2.5004 H   0  0  0  0  0  0  0  0  0  0  0  0
    7.1351   -1.0625    0.6153 H   0  0  0  0  0  0  0  0  0  0  0  0
    6.5963    1.2958    1.1670 H   0  0  0  0  0  0  0  0  0  0  0  0
    2.1636    3.2133    0.6464 H   0  0  0  0  0  0  0  0  0  0  0  0
    1.4718    0.4381    1.9674 H   0  0  0  0  0  0  0  0  0  0  0  0
    0.9881   -0.6135    0.6415 H   0  0  0  0  0  0  0  0  0  0  0  0
   -2.7977    1.9633    1.1500 H   0  0  0  0  0  0  0  0  0  0  0  0
   -3.9342    1.9956   -0.2053 H   0  0  0  0  0  0  0  0  0  0  0  0
   -8.1800   -1.6806    1.4385 H   0  0  0  0  0  0  0  0  0  0  0  0
   -7.4825   -2.8783   -0.6227 H   0  0  0  0  0  0  0  0  0  0  0  0
    1.6109    0.1176   -1.8269 H   0  0  0  0  0  0  0  0  0  0  0  0
    2.4852    1.6276   -2.0467 H   0  0  0  0  0  0  0  0  0  0  0  0
    3.0694   -1.7734   -0.5813 H   0  0  0  0  0  0  0  0  0  0  0  0
   -6.7225    0.0822    2.3871 H   0  0  0  0  0  0  0  0  0  0  0  0
 22 12  2  0
 22 11  1  0
 13 12  1  1
 10 11  2  0
 10  9  1  0
 11  7  1  0
 20  6  1  0
 20 13  1  0
  6 23  1  0
  9  8  2  0
 13  7  1  0
 13 14  1  0
  7 21  2  0
  8 21  1  0
  8 27  1  0
 23  1  1  0
 23 15  1  0
 14  1  1  0
 26 15  2  0
 15  2  1  0
  2 16  1  0
  2 25  1  0
 16 24  1  0
 25  5  1  0
 24 17  1  0
  5 17  1  0
  5  4  2  0
 17  3  2  0
  4 19  1  0
  3 18  1  0
 19 18  2  0
  1 28  1  0
  1 29  1  0
  2 30  1  1
  3 46  1  0
  4 31  1  0
  6 32  1  0
  6 33  1  0
  9 34  1  0
 10 35  1  0
 12 36  1  0
 14 37  1  0
 14 38  1  0
 16 39  1  0
 16 40  1  0
 18 41  1  0
 19 42  1  0
 20 43  1  0
 20 44  1  0
 21 45  1  0
M  END
