
     RDKit          3D

 30 31  0  0  0  0  0  0  0  0999 V2000
    3.9259    0.5449    1.9033 O   0  0  0  0  0  0  0  0  0  0  0  0
    4.0609   -0.2994    1.0506 C   0  0  0  0  0  0  0  0  0  0  0  0
    5.2028   -0.9309    0.8256 O   0  0  0  0  0  0  0  0  0  0  0  0
    2.9677   -0.7389    0.1463 C   0  0  0  0  0  0  0  0  0  0  0  0
    1.7159   -0.1562    0.3076 C   0  0  0  0  0  0  0  0  0  0  0  0
    3.1604   -1.7039   -0.8415 C   0  0  0  0  0  0  0  0  0  0  0  0
    2.1006   -2.0799   -1.6506 C   0  0  0  0  0  0  0  0  0  0  0  0
    0.8510   -1.5031   -1.4802 C   0  0  0  0  0  0  0  0  0  0  0  0
    0.6533   -0.5303   -0.5043 C   0  0  0  0  0  0  0  0  0  0  0  0
   -0.6900    0.0484   -0.2966 C   0  0  0  0  0  0  0  0  0  0  0  0
   -1.7612   -0.8063   -0.0591 C   0  0  0  0  0  0  0  0  0  0  0  0
   -3.0147   -0.2730    0.1914 C   0  0  0  0  0  0  0  0  0  0  0  0
   -4.1561   -1.2074    0.4484 C   0  0  0  0  0  0  0  0  0  0  0  0
   -5.2943   -0.5766    0.6529 O   0  0  0  0  0  0  0  0  0  0  0  0
   -4.0263   -2.4059    0.4608 O   0  0  0  0  0  0  0  0  0  0  0  0
   -3.2575    1.0301    0.2273 N   0  0  0  0  0  0  0  0  0  0  0  0
   -2.2477    1.8498    0.0039 C   0  0  0  0  0  0  0  0  0  0  0  0
   -0.9490    1.4206   -0.2733 C   0  0  0  0  0  0  0  0  0  0  0  0
    0.0861    2.4242   -0.6491 C   0  0  0  0  0  0  0  0  0  0  0  0
   -0.0590    3.5567    0.0188 O   0  0  0  0  0  0  0  0  0  0  0  0
    0.9303    2.2303   -1.4839 O   0  0  0  0  0  0  0  0  0  0  0  0
    5.8854   -0.6097    1.4334 H   0  0  0  0  0  0  0  0  0  0  0  0
    1.5673    0.5799    1.0876 H   0  0  0  0  0  0  0  0  0  0  0  0
    4.1266   -2.1670   -0.9842 H   0  0  0  0  0  0  0  0  0  0  0  0
    2.2464   -2.8271   -2.4187 H   0  0  0  0  0  0  0  0  0  0  0  0
    0.0301   -1.8007   -2.1205 H   0  0  0  0  0  0  0  0  0  0  0  0
   -1.6114   -1.8771   -0.0507 H   0  0  0  0  0  0  0  0  0  0  0  0
   -6.0023   -1.2194    0.8112 H   0  0  0  0  0  0  0  0  0  0  0  0
   -2.4811    2.9074    0.0241 H   0  0  0  0  0  0  0  0  0  0  0  0
    0.5835    4.2146   -0.2894 H   0  0  0  0  0  0  0  0  0  0  0  0
 15 13  2  0
 14 13  1  0
 13 12  1  0
 12 16  1  0
 12 11  2  0
 16 17  2  0
 11 10  1  0
 17 18  1  0
 10 18  2  0
 10  9  1  0
 18 19  1  0
  9  8  2  0
  9  5  1  0
  8  7  1  0
  5  4  2  0
 19 21  2  0
 19 20  1  0
  7  6  2  0
  4  6  1  0
  4  2  1  0
  1  2  2  0
  2  3  1  0
  3 22  1  0
  5 23  1  0
  6 24  1  0
  7 25  1  0
  8 26  1  0
 11 27  1  0
 14 28  1  0
 17 29  1  0
 20 30  1  0
M  END
