
     RDKit          3D

 40 41  0  0  0  0  0  0  0  0999 V2000
   -0.1066    3.5162   -1.1301 C   0  0  0  0  0  0  0  0  0  0  0  0
   -0.6169    2.5492   -0.2276 O   0  0  0  0  0  0  0  0  0  0  0  0
    0.0349    1.3912   -0.0956 C   0  0  0  0  0  0  0  0  0  0  0  0
    1.2041    1.0508   -0.7707 C   0  0  0  0  0  0  0  0  0  0  0  0
    1.7621   -0.2014   -0.5569 C   0  0  0  0  0  0  0  0  0  0  0  0
    2.9360   -0.5543   -1.2764 N   0  0  0  0  0  0  0  0  0  0  0  0
    4.3884   -0.7342   -0.5613 S   0  0  1  0  0  0  0  0  0  0  0  0
    4.2281   -1.4090    0.7038 O   0  0  0  0  0  0  0  0  0  0  0  0
    5.3226   -1.1790   -1.5676 O   0  0  0  0  0  0  0  0  0  0  0  0
    4.9077    0.9873   -0.1282 C   0  0  1  0  0  0  0  0  0  0  0  0
    4.1067    1.4728    0.8056 F   0  0  0  0  0  0  0  0  0  0  0  0
    6.1504    0.9699    0.3198 F   0  0  0  0  0  0  0  0  0  0  0  0
    4.8367    1.7534   -1.2053 F   0  0  0  0  0  0  0  0  0  0  0  0
    1.1974   -1.1298    0.3028 C   0  0  0  0  0  0  0  0  0  0  0  0
    0.0432   -0.7795    0.9997 C   0  0  0  0  0  0  0  0  0  0  0  0
   -0.6059   -1.5778    1.8511 O   0  0  0  0  0  0  0  0  0  0  0  0
   -0.0805   -2.8708    2.1013 C   0  0  0  0  0  0  0  0  0  0  0  0
   -0.5189    0.4803    0.8023 C   0  0  0  0  0  0  0  0  0  0  0  0
   -1.6235    0.8426    1.5275 O   0  0  0  0  0  0  0  0  0  0  0  0
   -2.8516    0.5543    1.0540 C   0  0  0  0  0  0  0  0  0  0  0  0
   -3.9242    0.9214    1.8659 C   0  0  0  0  0  0  0  0  0  0  0  0
   -5.2104    0.6628    1.4498 C   0  0  0  0  0  0  0  0  0  0  0  0
   -5.4520    0.0376    0.2234 C   0  0  0  0  0  0  0  0  0  0  0  0
   -6.7860   -0.2226   -0.1939 C   0  0  0  0  0  0  0  0  0  0  0  0
   -7.8757   -0.4233   -0.5104 N   0  0  0  0  0  0  0  0  0  0  0  0
   -4.3645   -0.3203   -0.5729 C   0  0  0  0  0  0  0  0  0  0  0  0
   -4.6381   -1.0917   -2.0859 Cl  0  0  0  0  0  0  0  0  0  0  0  0
   -3.0671   -0.0684   -0.1714 C   0  0  0  0  0  0  0  0  0  0  0  0
    0.8916    3.8530   -0.8412 H   0  0  0  0  0  0  0  0  0  0  0  0
   -0.0749    3.1370   -2.1539 H   0  0  0  0  0  0  0  0  0  0  0  0
   -0.7885    4.3608   -1.0885 H   0  0  0  0  0  0  0  0  0  0  0  0
    1.6816    1.7393   -1.4539 H   0  0  0  0  0  0  0  0  0  0  0  0
    2.9819   -0.2880   -2.2544 H   0  0  0  0  0  0  0  0  0  0  0  0
    1.6395   -2.1094    0.4035 H   0  0  0  0  0  0  0  0  0  0  0  0
   -0.7445   -3.3342    2.8255 H   0  0  0  0  0  0  0  0  0  0  0  0
   -0.0610   -3.4810    1.1958 H   0  0  0  0  0  0  0  0  0  0  0  0
    0.9261   -2.8222    2.5221 H   0  0  0  0  0  0  0  0  0  0  0  0
   -3.7416    1.4061    2.8154 H   0  0  0  0  0  0  0  0  0  0  0  0
   -2.2440   -0.3568   -0.8114 H   0  0  0  0  0  0  0  0  0  0  0  0
   -6.0456    0.9446    2.0760 H   0  0  0  0  0  0  0  0  0  0  0  0
  1  2  1  0
  2  3  1  0
  3  4  2  0
  3 18  1  0
  4  5  1  0
  5  6  1  0
  5 14  2  0
  7  6  1  6
  7  8  2  0
  7  9  2  0
  7 10  1  0
 10 11  1  1
 10 12  1  0
 10 13  1  0
 14 15  1  0
 15 16  1  0
 15 18  2  0
 16 17  1  0
 18 19  1  0
 19 20  1  0
 20 21  2  0
 20 28  1  0
 21 22  1  0
 22 23  2  0
 23 24  1  0
 23 26  1  0
 24 25  3  0
 26 27  1  0
 26 28  2  0
  1 29  1  0
  1 30  1  0
  1 31  1  0
  4 32  1  0
  6 33  1  0
 14 34  1  0
 17 35  1  0
 17 36  1  0
 17 37  1  0
 21 38  1  0
 28 39  1  0
 22 40  1  0
M  END
