
     RDKit          3D

 39 41  0  0  0  0  0  0  0  0999 V2000
    0.4664   -1.9706    1.8395 O   0  0  0  0  0  0  0  0  0  0  0  0
    1.2827   -1.6555    0.9965 C   0  0  0  0  0  0  0  0  0  0  0  0
    1.2412   -0.4786    0.3315 N   0  0  0  0  0  0  0  0  0  0  0  0
    0.2853    0.5266    0.7856 C   0  0  1  0  0  0  0  0  0  0  0  0
    0.7591    1.9155    0.3324 C   0  0  0  0  0  0  0  0  0  0  0  0
    2.1861    2.0371    0.5192 N   0  0  0  0  0  0  0  0  0  0  0  0
    2.9899    1.1122    0.0265 C   0  0  0  0  0  0  0  0  0  0  0  0
    2.2584   -0.0352   -0.6121 C   0  0  1  0  0  0  0  0  0  0  0  0
    3.2037   -1.1290   -1.1228 C   0  0  0  0  0  0  0  0  0  0  0  0
    2.7089   -2.1019   -1.6724 O   0  0  0  0  0  0  0  0  0  0  0  0
    4.5213   -0.9476   -0.9948 N   0  0  0  0  0  0  0  0  0  0  0  0
    4.9822    0.1473   -0.3978 C   0  0  0  0  0  0  0  0  0  0  0  0
    6.2961    0.2615   -0.2830 N   0  0  0  0  0  0  0  0  0  0  0  0
    4.2807    1.1931    0.1209 N   0  0  0  0  0  0  0  0  0  0  0  0
   -1.0911    0.2602    0.2517 C   0  0  0  0  0  0  0  0  0  0  0  0
   -2.1075    0.4602    0.9733 N   0  0  0  0  0  0  0  0  0  0  0  0
   -3.3875    0.3007    0.4263 C   0  0  0  0  0  0  0  0  0  0  0  0
   -4.3700   -0.2922    1.2184 C   0  0  0  0  0  0  0  0  0  0  0  0
   -5.6502   -0.4778    0.7260 C   0  0  0  0  0  0  0  0  0  0  0  0
   -3.7313    0.7431   -0.8502 C   0  0  0  0  0  0  0  0  0  0  0  0
   -5.0232    0.5686   -1.3263 C   0  0  0  0  0  0  0  0  0  0  0  0
   -6.0016   -0.0539   -0.5562 C   0  0  0  0  0  0  0  0  0  0  0  0
   -7.3896   -0.2699   -1.0838 C   0  0  0  0  0  0  0  0  0  0  0  0
    2.1112   -2.3136    0.7168 H   0  0  0  0  0  0  0  0  0  0  0  0
    0.2522    0.5120    1.8766 H   0  0  0  0  0  0  0  0  0  0  0  0
    0.4970    2.0952   -0.7148 H   0  0  0  0  0  0  0  0  0  0  0  0
    0.2587    2.6746    0.9263 H   0  0  0  0  0  0  0  0  0  0  0  0
    2.5737    2.8366    0.9986 H   0  0  0  0  0  0  0  0  0  0  0  0
    1.7600    0.3444   -1.5137 H   0  0  0  0  0  0  0  0  0  0  0  0
    6.9027   -0.4637   -0.6259 H   0  0  0  0  0  0  0  0  0  0  0  0
    6.7030    1.0643    0.1653 H   0  0  0  0  0  0  0  0  0  0  0  0
   -1.1494   -0.0811   -0.7879 H   0  0  0  0  0  0  0  0  0  0  0  0
   -4.1176   -0.6152    2.2206 H   0  0  0  0  0  0  0  0  0  0  0  0
   -6.3948   -0.9531    1.3540 H   0  0  0  0  0  0  0  0  0  0  0  0
   -3.0004    1.2566   -1.4631 H   0  0  0  0  0  0  0  0  0  0  0  0
   -5.2732    0.9326   -2.3160 H   0  0  0  0  0  0  0  0  0  0  0  0
   -7.5238   -1.2999   -1.4207 H   0  0  0  0  0  0  0  0  0  0  0  0
   -8.1422   -0.0831   -0.3176 H   0  0  0  0  0  0  0  0  0  0  0  0
   -7.6025    0.3797   -1.9318 H   0  0  0  0  0  0  0  0  0  0  0  0
  1  2  2  0
 10  9  2  0
  2  3  1  0
  9 11  1  0
  9  8  1  0
 11 12  2  0
  3  8  1  0
  3  4  1  0
  8  7  1  0
 12 13  1  0
 12 14  1  0
  4  5  1  0
  4 15  1  0
  7 14  2  0
  7  6  1  0
  5  6  1  0
 16 15  2  0
 16 17  1  0
 20 17  1  0
 20 21  2  0
 17 18  2  0
 21 22  1  0
 18 19  1  0
 22 19  2  0
 22 23  1  0
  2 24  1  0
  4 25  1  1
  5 26  1  0
  5 27  1  0
  6 28  1  0
  8 29  1  6
 13 30  1  0
 13 31  1  0
 15 32  1  0
 18 33  1  0
 19 34  1  0
 20 35  1  0
 21 36  1  0
 23 37  1  0
 23 38  1  0
 23 39  1  0
M  END
