
     RDKit          3D

 19 19  0  0  0  0  0  0  0  0999 V2000
   -3.1688   -0.4255    0.6347 N   0  0  0  0  0  0  0  0  0  0  0  0
   -2.4449    0.1699   -0.4804 C   0  0  0  0  0  0  0  0  0  0  0  0
   -0.9573    0.1242   -0.2547 C   0  0  0  0  0  0  0  0  0  0  0  0
   -0.3076   -1.0779    0.0237 C   0  0  0  0  0  0  0  0  0  0  0  0
    1.0605   -1.1325    0.2240 C   0  0  0  0  0  0  0  0  0  0  0  0
    1.8418    0.0291    0.1599 C   0  0  0  0  0  0  0  0  0  0  0  0
    1.1953    1.2371   -0.1143 C   0  0  0  0  0  0  0  0  0  0  0  0
   -0.1778    1.2738   -0.3136 C   0  0  0  0  0  0  0  0  0  0  0  0
    3.1994   -0.0144    0.4162 N   0  0  0  0  0  0  0  0  0  0  0  0
   -3.0591    0.1592    1.4541 H   0  0  0  0  0  0  0  0  0  0  0  0
   -4.1595   -0.4276    0.4263 H   0  0  0  0  0  0  0  0  0  0  0  0
   -2.6980   -0.4028   -1.3779 H   0  0  0  0  0  0  0  0  0  0  0  0
   -2.7343    1.2077   -0.6949 H   0  0  0  0  0  0  0  0  0  0  0  0
   -0.8850   -1.9930    0.0857 H   0  0  0  0  0  0  0  0  0  0  0  0
   -0.6486    2.2278   -0.5242 H   0  0  0  0  0  0  0  0  0  0  0  0
    1.5350   -2.0839    0.4360 H   0  0  0  0  0  0  0  0  0  0  0  0
    1.7712    2.1541   -0.1678 H   0  0  0  0  0  0  0  0  0  0  0  0
    3.6411   -0.9025    0.2380 H   0  0  0  0  0  0  0  0  0  0  0  0
    3.7359    0.7434    0.0245 H   0  0  0  0  0  0  0  0  0  0  0  0
  1  2  1  0
  2  3  1  0
  3  4  2  0
  3  8  1  0
  4  5  1  0
  5  6  2  0
  6  7  1  0
  6  9  1  0
  7  8  2  0
  1 10  1  0
  1 11  1  0
  2 12  1  0
  2 13  1  0
  4 14  1  0
  8 15  1  0
  5 16  1  0
  7 17  1  0
  9 18  1  0
  9 19  1  0
M  END
