
     RDKit          3D

 28 28  0  0  0  0  0  0  0  0999 V2000
   -2.8142    1.6000    0.2644 C   0  0  0  0  0  0  0  0  0  0  0  0
   -2.2375    1.8816    1.2833 O   0  0  0  0  0  0  0  0  0  0  0  0
   -2.8897    0.2167   -0.3332 C   0  0  0  0  0  0  0  0  0  0  0  0
   -1.7791   -0.6778    0.1905 C   0  0  1  0  0  0  0  0  0  0  0  0
   -1.9406   -2.1443   -0.1180 C   0  0  0  0  0  0  0  0  0  0  0  0
   -1.5624   -3.0232    0.6158 O   0  0  0  0  0  0  0  0  0  0  0  0
   -2.4988   -2.3579   -1.2995 O   0  0  0  0  0  0  0  0  0  0  0  0
   -0.1902   -0.1542   -0.5512 S   0  0  0  0  0  0  0  0  0  0  0  0
    0.9593   -0.4957    0.8216 C   0  0  0  0  0  0  0  0  0  0  0  0
    2.3293   -0.0818    0.3772 C   0  0  0  0  0  0  0  0  0  0  0  0
    2.7181    1.2539    0.4502 C   0  0  0  0  0  0  0  0  0  0  0  0
    3.9751    1.6466    0.0131 C   0  0  0  0  0  0  0  0  0  0  0  0
    4.8564    0.7069   -0.5076 C   0  0  0  0  0  0  0  0  0  0  0  0
    4.4742   -0.6257   -0.5885 C   0  0  0  0  0  0  0  0  0  0  0  0
    3.2152   -1.0160   -0.1521 C   0  0  0  0  0  0  0  0  0  0  0  0
   -3.8674   -0.1960   -0.0608 H   0  0  0  0  0  0  0  0  0  0  0  0
   -2.8804    0.2913   -1.4194 H   0  0  0  0  0  0  0  0  0  0  0  0
   -1.6891   -0.5707    1.2720 H   0  0  0  0  0  0  0  0  0  0  0  0
   -2.5417   -3.3085   -1.4838 H   0  0  0  0  0  0  0  0  0  0  0  0
    0.6336    0.0746    1.6925 H   0  0  0  0  0  0  0  0  0  0  0  0
    0.9284   -1.5564    1.0681 H   0  0  0  0  0  0  0  0  0  0  0  0
    2.0329    1.9898    0.8551 H   0  0  0  0  0  0  0  0  0  0  0  0
    4.2670    2.6868    0.0784 H   0  0  0  0  0  0  0  0  0  0  0  0
    5.8370    1.0122   -0.8485 H   0  0  0  0  0  0  0  0  0  0  0  0
    5.1568   -1.3633   -0.9908 H   0  0  0  0  0  0  0  0  0  0  0  0
    2.9204   -2.0567   -0.2168 H   0  0  0  0  0  0  0  0  0  0  0  0
   -3.5006    2.4759   -0.4571 O   0  0  0  0  0  0  0  0  0  0  0  0
   -3.4773    3.3474   -0.0336 H   0  0  0  0  0  0  0  0  0  0  0  0
 13 14  2  0
 13 12  1  0
 14 15  1  0
 12 11  2  0
 15 10  2  0
 11 10  1  0
  6  5  2  0
 10  9  1  0
  7  5  1  0
  5  4  1  0
  9  8  1  0
  8  4  1  0
  4  3  1  0
  3  1  1  0
  2  1  2  0
  3 16  1  0
  3 17  1  0
  4 18  1  1
  7 19  1  0
  9 20  1  0
  9 21  1  0
 11 22  1  0
 12 23  1  0
 13 24  1  0
 14 25  1  0
 15 26  1  0
  1 27  1  0
 27 28  1  0
M  END
