
     RDKit          3D

 28 29  0  0  0  0  0  0  0  0999 V2000
    5.4709   -0.5716    0.0396 C   0  0  0  0  0  0  0  0  0  0  0  0
    3.9845   -0.5537    0.0189 C   0  0  0  0  0  0  0  0  0  0  0  0
    3.1057    0.9226    0.0454 S   0  0  0  0  0  0  0  0  0  0  0  0
    3.2346   -1.6117   -0.0025 N   0  0  0  0  0  0  0  0  0  0  0  0
    1.9030   -1.3144    0.0022 C   0  0  0  0  0  0  0  0  0  0  0  0
    0.9301   -2.4458   -0.0228 C   0  0  0  0  0  0  0  0  0  0  0  0
    1.6222    0.0326    0.0274 C   0  0  0  0  0  0  0  0  0  0  0  0
    0.3385    0.7137    0.0314 C   0  0  0  0  0  0  0  0  0  0  0  0
   -0.7533   -0.0439    0.0197 N   0  0  0  0  0  0  0  0  0  0  0  0
    0.2356    2.1090    0.0452 C   0  0  0  0  0  0  0  0  0  0  0  0
   -1.0403    2.6333    0.0452 C   0  0  0  0  0  0  0  0  0  0  0  0
   -2.1346    1.8834    0.0338 N   0  0  0  0  0  0  0  0  0  0  0  0
   -1.9278    0.5727    0.0212 C   0  0  0  0  0  0  0  0  0  0  0  0
   -3.0191   -0.2550    0.0082 N   0  0  0  0  0  0  0  0  0  0  0  0
   -4.3181    0.1754    0.0053 C   0  0  0  0  0  0  0  0  0  0  0  0
   -5.3534   -0.5629   -0.0012 N   0  0  0  0  0  0  0  0  0  0  0  0
   -5.0337   -1.9045   -0.0041 O   0  0  0  0  0  0  0  0  0  0  0  0
    5.8496   -0.2854    1.0219 H   0  0  0  0  0  0  0  0  0  0  0  0
    5.8271   -1.5738   -0.1869 H   0  0  0  0  0  0  0  0  0  0  0  0
    5.8890    0.1225   -0.6884 H   0  0  0  0  0  0  0  0  0  0  0  0
    0.2803   -2.3978   -0.8951 H   0  0  0  0  0  0  0  0  0  0  0  0
    1.4736   -3.3882   -0.0427 H   0  0  0  0  0  0  0  0  0  0  0  0
    0.2804   -2.4350    0.8509 H   0  0  0  0  0  0  0  0  0  0  0  0
    1.0935    2.7655    0.0545 H   0  0  0  0  0  0  0  0  0  0  0  0
   -1.1899    3.7068    0.0550 H   0  0  0  0  0  0  0  0  0  0  0  0
   -2.8267   -1.2457    0.0022 H   0  0  0  0  0  0  0  0  0  0  0  0
   -4.4753    1.2440    0.0083 H   0  0  0  0  0  0  0  0  0  0  0  0
   -5.8869   -2.3489   -0.0073 H   0  0  0  0  0  0  0  0  0  0  0  0
  1  2  1  0
  1 18  1  0
  1 19  1  0
  1 20  1  0
  2  3  1  0
  2  4  2  0
  3  7  1  0
  4  5  1  0
  5  6  1  0
  5  7  2  0
  6 21  1  0
  6 22  1  0
  6 23  1  0
  7  8  1  0
  8  9  2  0
  8 10  1  0
  9 13  1  0
 10 11  2  0
 10 24  1  0
 11 12  1  0
 11 25  1  0
 12 13  2  0
 13 14  1  0
 14 15  1  0
 14 26  1  0
 15 16  2  0
 15 27  1  0
 16 17  1  0
 17 28  1  0
M  END
