
     RDKit          3D

 53 53  0  0  0  0  0  0  0  0999 V2000
   -3.1310   -5.0268    3.3306 C   0  0  0  0  0  0  0  0  0  0  0  0
   -1.6326   -4.7320    3.2652 C   0  0  0  0  0  0  0  0  0  0  0  0
   -0.8349   -5.6563    4.1770 C   0  0  0  0  0  0  0  0  0  0  0  0
    0.6682   -5.4260    4.0883 C   0  0  0  0  0  0  0  0  0  0  0  0
    1.4683   -6.3287    5.0197 C   0  0  0  0  0  0  0  0  0  0  0  0
    2.9708   -6.1055    4.9165 C   0  0  0  0  0  0  0  0  0  0  0  0
   -4.1918   -3.4242   -0.2154 C   0  0  1  0  0  0  0  0  0  0  0  0
   -3.8186   -1.9556   -0.3596 C   0  0  0  0  0  0  0  0  0  0  0  0
   -4.4281   -1.3452   -1.6194 C   0  0  2  0  0  0  0  0  0  0  0  0
   -4.0114   -2.1574   -2.8401 C   0  0  0  0  0  0  0  0  0  0  0  0
   -4.3654   -3.6323   -2.6873 C   0  0  0  0  0  0  0  0  0  0  0  0
   -3.7543   -4.2482   -1.4249 C   0  0  2  0  0  0  0  0  0  0  0  0
   -4.0502    0.1230   -1.7587 C   0  0  0  0  0  0  0  0  0  0  0  0
   -4.0429   -5.7552   -1.2729 C   0  0  1  0  0  0  0  0  0  0  0  0
   -5.5235   -6.0819   -1.0952 C   0  0  0  0  0  0  0  0  0  0  0  0
   -3.4509   -6.5537   -2.4322 C   0  0  0  0  0  0  0  0  0  0  0  0
   -3.5636   -3.9907    0.9490 O   0  0  0  0  0  0  0  0  0  0  0  0
   -4.1422   -2.4483    2.9816 O   0  0  0  0  0  0  0  0  0  0  0  0
   -4.1349   -3.8327    2.4375 P   0  0  2  0  0  0  0  0  0  0  0  0
   -3.3413   -6.0287    2.9483 H   0  0  0  0  0  0  0  0  0  0  0  0
   -3.4770   -5.0058    4.3682 H   0  0  0  0  0  0  0  0  0  0  0  0
   -1.4428   -3.6929    3.5486 H   0  0  0  0  0  0  0  0  0  0  0  0
   -1.2837   -4.8440    2.2360 H   0  0  0  0  0  0  0  0  0  0  0  0
   -1.1661   -5.5153    5.2114 H   0  0  0  0  0  0  0  0  0  0  0  0
   -1.0591   -6.6978    3.9236 H   0  0  0  0  0  0  0  0  0  0  0  0
    0.8911   -4.3788    4.3199 H   0  0  0  0  0  0  0  0  0  0  0  0
    0.9989   -5.5860    3.0562 H   0  0  0  0  0  0  0  0  0  0  0  0
    1.1440   -6.1602    6.0511 H   0  0  0  0  0  0  0  0  0  0  0  0
    1.2370   -7.3747    4.7961 H   0  0  0  0  0  0  0  0  0  0  0  0
    3.5198   -6.7590    5.5953 H   0  0  0  0  0  0  0  0  0  0  0  0
    3.3312   -6.3020    3.9048 H   0  0  0  0  0  0  0  0  0  0  0  0
    3.2348   -5.0759    5.1643 H   0  0  0  0  0  0  0  0  0  0  0  0
   -5.2813   -3.5033   -0.1084 H   0  0  0  0  0  0  0  0  0  0  0  0
   -2.7269   -1.8636   -0.3993 H   0  0  0  0  0  0  0  0  0  0  0  0
   -4.1541   -1.4033    0.5212 H   0  0  0  0  0  0  0  0  0  0  0  0
   -5.5204   -1.4109   -1.5301 H   0  0  0  0  0  0  0  0  0  0  0  0
   -2.9295   -2.0543   -2.9864 H   0  0  0  0  0  0  0  0  0  0  0  0
   -4.4861   -1.7522   -3.7380 H   0  0  0  0  0  0  0  0  0  0  0  0
   -5.4553   -3.7397   -2.6682 H   0  0  0  0  0  0  0  0  0  0  0  0
   -4.0188   -4.1784   -3.5667 H   0  0  0  0  0  0  0  0  0  0  0  0
   -2.6632   -4.1392   -1.5065 H   0  0  0  0  0  0  0  0  0  0  0  0
   -2.9683    0.2396   -1.8558 H   0  0  0  0  0  0  0  0  0  0  0  0
   -4.5116    0.5663   -2.6429 H   0  0  0  0  0  0  0  0  0  0  0  0
   -4.3702    0.7020   -0.8905 H   0  0  0  0  0  0  0  0  0  0  0  0
   -3.5263   -6.0878   -0.3677 H   0  0  0  0  0  0  0  0  0  0  0  0
   -6.1153   -5.7700   -1.9576 H   0  0  0  0  0  0  0  0  0  0  0  0
   -5.6622   -7.1582   -0.9787 H   0  0  0  0  0  0  0  0  0  0  0  0
   -5.9457   -5.6064   -0.2094 H   0  0  0  0  0  0  0  0  0  0  0  0
   -3.9809   -6.3749   -3.3695 H   0  0  0  0  0  0  0  0  0  0  0  0
   -3.5082   -7.6244   -2.2290 H   0  0  0  0  0  0  0  0  0  0  0  0
   -2.3998   -6.3037   -2.5922 H   0  0  0  0  0  0  0  0  0  0  0  0
   -5.6021   -4.5063    2.3943 O   0  0  0  0  0  0  0  0  0  0  0  0
   -6.3155   -3.8807    2.5741 H   0  0  0  0  0  0  0  0  0  0  0  0
  1  2  1  0
  1 19  1  0
  1 20  1  0
  1 21  1  0
  2  3  1  0
  2 22  1  0
  2 23  1  0
  3  4  1  0
  3 24  1  0
  3 25  1  0
  4  5  1  0
  4 26  1  0
  4 27  1  0
  5  6  1  0
  5 28  1  0
  5 29  1  0
  6 30  1  0
  6 31  1  0
  6 32  1  0
  7  8  1  0
  7 12  1  0
  7 17  1  0
  7 33  1  1
  8  9  1  0
  8 34  1  0
  8 35  1  0
  9 10  1  0
  9 13  1  0
  9 36  1  1
 10 11  1  0
 10 37  1  0
 10 38  1  0
 11 12  1  0
 11 39  1  0
 11 40  1  0
 12 14  1  0
 12 41  1  6
 13 42  1  0
 13 43  1  0
 13 44  1  0
 14 15  1  0
 14 16  1  0
 14 45  1  1
 15 46  1  0
 15 47  1  0
 15 48  1  0
 16 49  1  0
 16 50  1  0
 16 51  1  0
 19 17  1  6
 18 19  2  0
 52 19  1  0
 52 53  1  0
M  END
