
     RDKit          3D

 47 50  0  0  0  0  0  0  0  0999 V2000
    4.9555   -1.4675   -0.1721 C   0  0  0  0  0  0  0  0  0  0  0  0
    5.7010   -2.0177   -1.2082 C   0  0  0  0  0  0  0  0  0  0  0  0
    7.0684   -2.2240   -1.0656 C   0  0  0  0  0  0  0  0  0  0  0  0
    7.7042   -1.8746    0.1168 C   0  0  0  0  0  0  0  0  0  0  0  0
    6.9663   -1.3215    1.1574 C   0  0  0  0  0  0  0  0  0  0  0  0
   -2.9076   -0.2044   -0.0000 C   0  0  0  0  0  0  0  0  0  0  0  0
   -3.7212   -1.3508   -0.0498 C   0  0  0  0  0  0  0  0  0  0  0  0
   -5.0848   -1.2261    0.0544 C   0  0  0  0  0  0  0  0  0  0  0  0
   -5.6685    0.0303    0.2075 C   0  0  0  0  0  0  0  0  0  0  0  0
   -4.8952    1.1691    0.2564 C   0  0  0  0  0  0  0  0  0  0  0  0
   -3.5098    1.0469    0.1516 C   0  0  0  0  0  0  0  0  0  0  0  0
    3.4762   -1.2383   -0.3240 C   0  0  0  0  0  0  0  0  0  0  0  0
    1.7121    2.0874   -0.0437 C   0  0  0  0  0  0  0  0  0  0  0  0
    0.3936    2.5086   -0.0084 C   0  0  0  0  0  0  0  0  0  0  0  0
   -0.6777    1.7316   -0.0302 N   0  0  0  0  0  0  0  0  0  0  0  0
   -0.4675    0.4158   -0.0912 C   0  0  0  0  0  0  0  0  0  0  0  0
    0.8107   -0.1458   -0.1632 C   0  0  0  0  0  0  0  0  0  0  0  0
    1.9366    0.6773   -0.1522 C   0  0  0  0  0  0  0  0  0  0  0  0
    3.1802    0.1701   -0.2111 N   0  0  0  0  0  0  0  0  0  0  0  0
    2.8311    3.0530   -0.0034 C   0  0  0  0  0  0  0  0  0  0  0  0
    2.5666    4.2774    0.4861 N   0  0  0  0  0  0  0  0  0  0  0  0
    3.9583    2.7633   -0.4106 O   0  0  0  0  0  0  0  0  0  0  0  0
    5.6017   -1.1206    1.0136 C   0  0  0  0  0  0  0  0  0  0  0  0
   -6.1761   -2.2484    0.0381 C   0  0  0  0  0  0  0  0  0  0  0  0
   -7.4408   -1.4157    0.1956 C   0  0  0  0  0  0  0  0  0  0  0  0
   -7.0518   -0.1156    0.2874 N   0  0  0  0  0  0  0  0  0  0  0  0
   -8.5849   -1.8213    0.2345 O   0  0  0  0  0  0  0  0  0  0  0  0
    5.2103   -2.2895   -2.1353 H   0  0  0  0  0  0  0  0  0  0  0  0
    7.6344   -2.6539   -1.8819 H   0  0  0  0  0  0  0  0  0  0  0  0
    8.7690   -2.0320    0.2298 H   0  0  0  0  0  0  0  0  0  0  0  0
    7.4551   -1.0472    2.0834 H   0  0  0  0  0  0  0  0  0  0  0  0
   -3.2728   -2.3312   -0.1712 H   0  0  0  0  0  0  0  0  0  0  0  0
   -5.3368    2.1499    0.3760 H   0  0  0  0  0  0  0  0  0  0  0  0
   -2.8980    1.9328    0.1876 H   0  0  0  0  0  0  0  0  0  0  0  0
    3.1348   -1.6468   -1.2826 H   0  0  0  0  0  0  0  0  0  0  0  0
    2.9416   -1.7877    0.4575 H   0  0  0  0  0  0  0  0  0  0  0  0
    0.1736    3.5711    0.0159 H   0  0  0  0  0  0  0  0  0  0  0  0
    0.9117   -1.2201   -0.2377 H   0  0  0  0  0  0  0  0  0  0  0  0
    3.9228    0.8365   -0.3695 H   0  0  0  0  0  0  0  0  0  0  0  0
   -1.2900   -1.4059   -0.1801 H   0  0  0  0  0  0  0  0  0  0  0  0
    1.7392    4.4796    1.0186 H   0  0  0  0  0  0  0  0  0  0  0  0
    3.3205    4.9408    0.5594 H   0  0  0  0  0  0  0  0  0  0  0  0
    5.0350   -0.6924    1.8321 H   0  0  0  0  0  0  0  0  0  0  0  0
   -6.2177   -2.8226   -0.8905 H   0  0  0  0  0  0  0  0  0  0  0  0
   -6.1026   -2.9698    0.8554 H   0  0  0  0  0  0  0  0  0  0  0  0
   -7.7016    0.6467    0.4065 H   0  0  0  0  0  0  0  0  0  0  0  0
   -1.5362   -0.4316   -0.1021 N   0  0  0  0  0  0  0  0  0  0  0  0
 15 14  1  0
 15 16  2  0
 14 13  2  0
 21 20  1  0
 47 16  1  0
 47  6  1  0
 16 17  1  0
 20 13  1  0
 20 22  2  0
 13 18  1  0
 11  6  1  0
 11 10  2  0
  6  7  2  0
 17 18  2  0
 18 19  1  0
 10  9  1  0
  7  8  1  0
 19 12  1  0
  9  8  2  0
  9 26  1  0
  8 24  1  0
 12  1  1  0
 26 25  1  0
  2  1  2  0
  2  3  1  0
 24 25  1  0
  1 23  1  0
  3  4  2  0
 25 27  2  0
 23  5  2  0
  4  5  1  0
  2 28  1  0
  3 29  1  0
  4 30  1  0
  5 31  1  0
  7 32  1  0
 10 33  1  0
 11 34  1  0
 12 35  1  0
 12 36  1  0
 14 37  1  0
 17 38  1  0
 19 39  1  0
 47 40  1  0
 21 41  1  0
 21 42  1  0
 23 43  1  0
 24 44  1  0
 24 45  1  0
 26 46  1  0
M  END
