
     RDKit          3D

 63 66  0  0  0  0  0  0  0  0999 V2000
   -0.0152    5.9477    3.2034 C   0  0  2  0  0  0  0  0  0  0  0  0
   -0.8342    4.7560    3.0231 N   0  0  0  0  0  0  0  0  0  0  0  0
    0.1206    6.5730    1.9109 N   0  0  0  0  0  0  0  0  0  0  0  0
    1.2713    5.5559    3.9143 C   0  0  0  0  0  0  0  0  0  0  0  0
    2.4830    5.4801    3.2838 C   0  0  0  0  0  0  0  0  0  0  0  0
    3.6557    5.1001    3.9812 C   0  0  0  0  0  0  0  0  0  0  0  0
    4.9052    4.9995    3.3312 C   0  0  0  0  0  0  0  0  0  0  0  0
    6.0324    4.6018    4.0023 C   0  0  0  0  0  0  0  0  0  0  0  0
    5.9398    4.3154    5.3843 C   0  0  0  0  0  0  0  0  0  0  0  0
    4.7479    4.4139    6.0477 C   0  0  0  0  0  0  0  0  0  0  0  0
    3.5730    4.7976    5.3619 C   0  0  0  0  0  0  0  0  0  0  0  0
    2.3151    4.8942    6.0023 C   0  0  0  0  0  0  0  0  0  0  0  0
    1.2030    5.2607    5.2987 C   0  0  0  0  0  0  0  0  0  0  0  0
    7.3277    4.3601    3.2810 C   0  0  0  0  0  0  0  0  0  0  0  0
    7.4950    2.8488    2.9748 C   0  0  2  0  0  0  0  0  0  0  0  0
    8.7892    2.5394    2.2478 C   0  0  0  0  0  0  0  0  0  0  0  0
    8.8890    1.8099    1.2936 O   0  0  0  0  0  0  0  0  0  0  0  0
    9.8195    3.1393    2.8213 O   0  0  0  0  0  0  0  0  0  0  0  0
   11.1340    2.8935    2.2953 C   0  0  0  0  0  0  0  0  0  0  0  0
   12.1103    3.7151    3.1012 C   0  0  0  0  0  0  0  0  0  0  0  0
    6.2761    2.3283    2.2651 C   0  0  0  0  0  0  0  0  0  0  0  0
    5.3353    1.5909    2.9728 C   0  0  0  0  0  0  0  0  0  0  0  0
    4.1056    1.2719    2.4172 C   0  0  0  0  0  0  0  0  0  0  0  0
    3.8023    1.6861    1.1280 C   0  0  0  0  0  0  0  0  0  0  0  0
    4.7496    2.3877    0.3905 C   0  0  0  0  0  0  0  0  0  0  0  0
    5.9726    2.7062    0.9597 C   0  0  0  0  0  0  0  0  0  0  0  0
    2.5754    1.4046    0.6010 O   0  0  0  0  0  0  0  0  0  0  0  0
    1.5952    2.4168    0.8147 C   0  0  2  0  0  0  0  0  0  0  0  0
    0.1867    1.8227    0.7584 C   0  0  0  0  0  0  0  0  0  0  0  0
   -0.6841    2.9453    0.4676 N   0  0  0  0  0  0  0  0  0  0  0  0
    0.0505    3.7293   -0.5246 C   0  0  0  0  0  0  0  0  0  0  0  0
    1.5610    3.5162   -0.2602 C   0  0  0  0  0  0  0  0  0  0  0  0
   -0.5098    6.6859    3.8514 H   0  0  0  0  0  0  0  0  0  0  0  0
   -1.7946    5.0335    2.8584 H   0  0  0  0  0  0  0  0  0  0  0  0
   -0.8390    4.1904    3.8624 H   0  0  0  0  0  0  0  0  0  0  0  0
    0.6476    7.4345    1.9819 H   0  0  0  0  0  0  0  0  0  0  0  0
    0.6236    5.9634    1.2779 H   0  0  0  0  0  0  0  0  0  0  0  0
    2.5792    5.7186    2.2301 H   0  0  0  0  0  0  0  0  0  0  0  0
    4.9564    5.2128    2.2695 H   0  0  0  0  0  0  0  0  0  0  0  0
    6.8306    4.0076    5.9202 H   0  0  0  0  0  0  0  0  0  0  0  0
    4.6921    4.1939    7.1073 H   0  0  0  0  0  0  0  0  0  0  0  0
    2.2430    4.6785    7.0617 H   0  0  0  0  0  0  0  0  0  0  0  0
    0.2502    5.3391    5.8111 H   0  0  0  0  0  0  0  0  0  0  0  0
    8.1657    4.7062    3.8873 H   0  0  0  0  0  0  0  0  0  0  0  0
    7.3492    4.9259    2.3471 H   0  0  0  0  0  0  0  0  0  0  0  0
    7.5769    2.3327    3.9398 H   0  0  0  0  0  0  0  0  0  0  0  0
   11.3628    1.8285    2.3708 H   0  0  0  0  0  0  0  0  0  0  0  0
   11.1673    3.1708    1.2401 H   0  0  0  0  0  0  0  0  0  0  0  0
   13.1209    3.5232    2.7418 H   0  0  0  0  0  0  0  0  0  0  0  0
   11.9169    4.7828    2.9992 H   0  0  0  0  0  0  0  0  0  0  0  0
   12.0775    3.4539    4.1589 H   0  0  0  0  0  0  0  0  0  0  0  0
    5.5490    1.2909    3.9917 H   0  0  0  0  0  0  0  0  0  0  0  0
    3.3742    0.7164    2.9912 H   0  0  0  0  0  0  0  0  0  0  0  0
    4.5263    2.6976   -0.6226 H   0  0  0  0  0  0  0  0  0  0  0  0
    6.6790    3.2880    0.3803 H   0  0  0  0  0  0  0  0  0  0  0  0
    1.7532    2.8656    1.8034 H   0  0  0  0  0  0  0  0  0  0  0  0
    0.1336    1.0813   -0.0476 H   0  0  0  0  0  0  0  0  0  0  0  0
   -0.1035    1.3286    1.6867 H   0  0  0  0  0  0  0  0  0  0  0  0
   -0.7594    3.5074    1.3171 H   0  0  0  0  0  0  0  0  0  0  0  0
   -0.2502    4.7766   -0.4707 H   0  0  0  0  0  0  0  0  0  0  0  0
   -0.2011    3.3792   -1.5287 H   0  0  0  0  0  0  0  0  0  0  0  0
    2.0768    3.1827   -1.1625 H   0  0  0  0  0  0  0  0  0  0  0  0
    2.0605    4.4275    0.0743 H   0  0  0  0  0  0  0  0  0  0  0  0
  1  2  1  0
  1  3  1  0
  1  4  1  0
  1 33  1  1
  2 34  1  0
  2 35  1  0
  3 36  1  0
  3 37  1  0
  4  5  2  0
  4 13  1  0
  5  6  1  0
  5 38  1  0
  6  7  2  0
  6 11  1  0
  7  8  1  0
  7 39  1  0
  8  9  2  0
  8 14  1  0
  9 10  1  0
  9 40  1  0
 10 11  2  0
 10 41  1  0
 11 12  1  0
 12 13  2  0
 12 42  1  0
 13 43  1  0
 14 15  1  0
 14 44  1  0
 14 45  1  0
 15 16  1  0
 15 21  1  0
 15 46  1  1
 16 17  2  0
 16 18  1  0
 18 19  1  0
 19 20  1  0
 19 47  1  0
 19 48  1  0
 20 49  1  0
 20 50  1  0
 20 51  1  0
 21 22  2  0
 21 26  1  0
 22 23  1  0
 22 52  1  0
 23 24  2  0
 23 53  1  0
 24 25  1  0
 24 27  1  0
 25 26  2  0
 25 54  1  0
 26 55  1  0
 27 28  1  0
 28 29  1  0
 28 32  1  0
 28 56  1  1
 29 30  1  0
 29 57  1  0
 29 58  1  0
 30 31  1  0
 30 59  1  0
 31 32  1  0
 31 60  1  0
 31 61  1  0
 32 62  1  0
 32 63  1  0
M  END
