
     RDKit          3D

 46 48  0  0  0  0  0  0  0  0999 V2000
    0.9268    6.3958   -0.4134 N   0  0  0  0  0  0  0  0  0  0  0  0
    1.6393    5.1043   -0.2485 C   0  0  0  0  0  0  0  0  0  0  0  0
    0.6533    3.9550   -0.1807 C   0  0  0  0  0  0  0  0  0  0  0  0
    1.3975    2.6400   -0.0554 C   0  0  0  0  0  0  0  0  0  0  0  0
    0.4234    1.6233    0.0903 O   0  0  0  0  0  0  0  0  0  0  0  0
    0.8125    0.3470    0.2250 C   0  0  0  0  0  0  0  0  0  0  0  0
    2.1345   -0.0689    0.1234 C   0  0  0  0  0  0  0  0  0  0  0  0
    2.4760   -1.4194    0.2329 C   0  0  0  0  0  0  0  0  0  0  0  0
    1.4641   -2.3550    0.4400 C   0  0  0  0  0  0  0  0  0  0  0  0
    0.1473   -1.9404    0.5325 C   0  0  0  0  0  0  0  0  0  0  0  0
   -0.2027   -0.5985    0.4374 C   0  0  0  0  0  0  0  0  0  0  0  0
   -1.6186   -0.1711    0.6433 C   0  0  0  0  0  0  0  0  0  0  0  0
   -1.9247    0.7173    1.4167 O   0  0  0  0  0  0  0  0  0  0  0  0
   -2.5117   -0.8879   -0.0880 N   0  0  0  0  0  0  0  0  0  0  0  0
   -3.9104   -0.8624   -0.0478 C   0  0  0  0  0  0  0  0  0  0  0  0
   -4.6613    0.1020    0.6264 C   0  0  0  0  0  0  0  0  0  0  0  0
   -6.0487    0.0341    0.5976 C   0  0  0  0  0  0  0  0  0  0  0  0
   -6.7078   -0.9714   -0.0933 C   0  0  0  0  0  0  0  0  0  0  0  0
   -5.9579   -1.9260   -0.7689 C   0  0  0  0  0  0  0  0  0  0  0  0
   -4.5752   -1.8744   -0.7463 C   0  0  0  0  0  0  0  0  0  0  0  0
    3.8711   -1.8306    0.1232 C   0  0  0  0  0  0  0  0  0  0  0  0
    5.0331   -1.0293    0.1794 C   0  0  0  0  0  0  0  0  0  0  0  0
    6.1278   -1.7481    0.0374 N   0  0  0  0  0  0  0  0  0  0  0  0
    5.6991   -2.9959   -0.1129 N   0  0  0  0  0  0  0  0  0  0  0  0
    4.3670   -3.1079   -0.0693 C   0  0  0  0  0  0  0  0  0  0  0  0
    1.5763    7.1814   -0.4264 H   0  0  0  0  0  0  0  0  0  0  0  0
    0.4004    6.4323   -1.2861 H   0  0  0  0  0  0  0  0  0  0  0  0
    0.2674    6.5690    0.3452 H   0  0  0  0  0  0  0  0  0  0  0  0
    6.3627   -3.7412   -0.2538 H   0  0  0  0  0  0  0  0  0  0  0  0
    2.3170    5.0106   -1.0943 H   0  0  0  0  0  0  0  0  0  0  0  0
    2.2298    5.1838    0.6616 H   0  0  0  0  0  0  0  0  0  0  0  0
   -0.0075    4.0845    0.6795 H   0  0  0  0  0  0  0  0  0  0  0  0
    0.0327    3.9415   -1.0802 H   0  0  0  0  0  0  0  0  0  0  0  0
    2.0123    2.4684   -0.9456 H   0  0  0  0  0  0  0  0  0  0  0  0
    2.0645    2.6574    0.8139 H   0  0  0  0  0  0  0  0  0  0  0  0
    2.9183    0.6537   -0.0570 H   0  0  0  0  0  0  0  0  0  0  0  0
    1.6964   -3.4061    0.5463 H   0  0  0  0  0  0  0  0  0  0  0  0
   -0.6211   -2.6815    0.7154 H   0  0  0  0  0  0  0  0  0  0  0  0
   -2.1189   -1.5583   -0.7315 H   0  0  0  0  0  0  0  0  0  0  0  0
   -4.1807    0.9024    1.1635 H   0  0  0  0  0  0  0  0  0  0  0  0
   -6.6170    0.7895    1.1250 H   0  0  0  0  0  0  0  0  0  0  0  0
   -7.7888   -1.0115   -0.1073 H   0  0  0  0  0  0  0  0  0  0  0  0
   -6.4496   -2.7212   -1.3140 H   0  0  0  0  0  0  0  0  0  0  0  0
   -4.0025   -2.6311   -1.2701 H   0  0  0  0  0  0  0  0  0  0  0  0
    5.1045    0.0377    0.3290 H   0  0  0  0  0  0  0  0  0  0  0  0
    3.8753   -4.0597   -0.1875 H   0  0  0  0  0  0  0  0  0  0  0  0
  1  2  1  0
  1 26  1  0
  1 27  1  0
  1 28  1  0
  2  3  1  0
  2 30  1  0
  2 31  1  0
  3  4  1  0
  3 32  1  0
  3 33  1  0
  4  5  1  0
  4 34  1  0
  4 35  1  0
  5  6  1  0
  6  7  2  0
  6 11  1  0
  7  8  1  0
  7 36  1  0
  8  9  2  0
  8 21  1  0
  9 10  1  0
  9 37  1  0
 10 11  2  0
 10 38  1  0
 11 12  1  0
 12 13  2  0
 12 14  1  0
 14 15  1  0
 14 39  1  0
 15 16  2  0
 15 20  1  0
 16 17  1  0
 16 40  1  0
 17 18  2  0
 17 41  1  0
 18 19  1  0
 18 42  1  0
 19 20  2  0
 19 43  1  0
 20 44  1  0
 21 22  1  0
 21 25  2  0
 22 23  2  0
 22 45  1  0
 23 24  1  0
 24 25  1  0
 24 29  1  0
 25 46  1  0
M  CHG  1   1   1
M  END
