
     RDKit          3D

 24 23  0  0  0  0  0  0  0  0999 V2000
   -0.4766    2.9311    4.6147 N   0  0  0  0  0  0  0  0  0  0  0  0
    0.6468    2.1506    4.1475 C   0  0  2  0  0  0  0  0  0  0  0  0
    1.9874    2.8074    4.4762 C   0  0  0  0  0  0  0  0  0  0  0  0
    2.3134    3.9910    4.3303 O   0  0  0  0  0  0  0  0  0  0  0  0
    0.5426    1.8260    2.6330 C   0  0  2  0  0  0  0  0  0  0  0  0
    1.6721    0.8734    2.1964 C   0  0  1  0  0  0  0  0  0  0  0  0
    1.8080   -0.2019    3.1078 O   0  0  0  0  0  0  0  0  0  0  0  0
    0.5453    3.0822    1.7896 C   0  0  0  0  0  0  0  0  0  0  0  0
    1.4128    0.3727    0.7692 C   0  0  0  0  0  0  0  0  0  0  0  0
    1.9469   -0.9375    0.6918 O   0  0  0  0  0  0  0  0  0  0  0  0
    2.9322    1.9808    5.0000 O   0  0  0  0  0  0  0  0  0  0  0  0
   -0.1731    3.8037    5.0026 H   0  0  0  0  0  0  0  0  0  0  0  0
   -0.9906    2.4253    5.3088 H   0  0  0  0  0  0  0  0  0  0  0  0
    0.6220    1.1680    4.7165 H   0  0  0  0  0  0  0  0  0  0  0  0
   -0.4327    1.2825    2.4723 H   0  0  0  0  0  0  0  0  0  0  0  0
    2.6674    1.4041    2.2430 H   0  0  0  0  0  0  0  0  0  0  0  0
    1.0268   -0.7626    3.0265 H   0  0  0  0  0  0  0  0  0  0  0  0
    1.5690    3.2832    1.3876 H   0  0  0  0  0  0  0  0  0  0  0  0
   -0.1570    2.9770    0.9274 H   0  0  0  0  0  0  0  0  0  0  0  0
    0.2264    3.9668    2.3918 H   0  0  0  0  0  0  0  0  0  0  0  0
    1.9119    1.0512    0.0295 H   0  0  0  0  0  0  0  0  0  0  0  0
    0.3109    0.3363    0.5508 H   0  0  0  0  0  0  0  0  0  0  0  0
    1.9230   -1.1908   -0.2380 H   0  0  0  0  0  0  0  0  0  0  0  0
    3.7451    2.4836    5.1768 H   0  0  0  0  0  0  0  0  0  0  0  0
  1  2  1  0
  1 12  1  0
  1 13  1  0
  2  3  1  0
  2  5  1  0
  2 14  1  1
  3  4  2  0
  3 11  1  0
  5  6  1  0
  5  8  1  0
  5 15  1  1
  6  7  1  0
  6  9  1  0
  6 16  1  6
  7 17  1  0
  8 18  1  0
  8 19  1  0
  8 20  1  0
  9 10  1  0
  9 21  1  0
  9 22  1  0
 10 23  1  0
 11 24  1  0
M  END
