
     RDKit          3D

 24 25  0  0  0  0  0  0  0  0999 V2000
    3.3220   -0.5063   -0.1419 N   0  0  0  0  0  0  0  0  0  0  0  0
    0.0221    0.9679    0.0557 C   0  0  0  0  0  0  0  0  0  0  0  0
   -1.3347    0.5983   -0.0012 C   0  0  0  0  0  0  0  0  0  0  0  0
   -2.3787    1.5415   -0.1384 C   0  0  0  0  0  0  0  0  0  0  0  0
   -3.6796    1.1230   -0.1896 C   0  0  0  0  0  0  0  0  0  0  0  0
   -3.9898   -0.2516   -0.1039 C   0  0  0  0  0  0  0  0  0  0  0  0
   -1.6462   -0.7815    0.0857 C   0  0  0  0  0  0  0  0  0  0  0  0
    4.7401   -0.2311   -0.1419 C   0  0  0  0  0  0  0  0  0  0  0  0
    2.4214    0.4131    0.2280 C   0  0  0  0  0  0  0  0  0  0  0  0
    0.9864    0.0013    0.1686 C   0  0  0  0  0  0  0  0  0  0  0  0
   -2.9986   -1.1856    0.0319 C   0  0  0  0  0  0  0  0  0  0  0  0
   -0.6851   -1.7257    0.2251 N   0  0  0  0  0  0  0  0  0  0  0  0
    0.5618   -1.3469    0.2608 C   0  0  0  0  0  0  0  0  0  0  0  0
    2.7377    1.5380    0.5935 O   0  0  0  0  0  0  0  0  0  0  0  0
    3.0161   -1.3674   -0.5618 H   0  0  0  0  0  0  0  0  0  0  0  0
   -2.1345    2.5946   -0.2031 H   0  0  0  0  0  0  0  0  0  0  0  0
   -4.4785    1.8445   -0.2955 H   0  0  0  0  0  0  0  0  0  0  0  0
   -5.0248   -0.5649   -0.1461 H   0  0  0  0  0  0  0  0  0  0  0  0
    5.2638   -1.1391   -0.4260 H   0  0  0  0  0  0  0  0  0  0  0  0
    5.0026    0.5559   -0.8505 H   0  0  0  0  0  0  0  0  0  0  0  0
    5.0844    0.0692    0.8471 H   0  0  0  0  0  0  0  0  0  0  0  0
   -3.2270   -2.2414    0.1006 H   0  0  0  0  0  0  0  0  0  0  0  0
    1.2905   -2.1401    0.3959 H   0  0  0  0  0  0  0  0  0  0  0  0
    0.2939    2.0151   -0.0002 H   0  0  0  0  0  0  0  0  0  0  0  0
  6  5  1  0
  6 11  2  0
  5  4  2  0
 11  7  1  0
  4  3  1  0
  7  3  1  0
  7 12  2  0
  3  2  2  0
 12 13  1  0
  2 10  1  0
 13 10  2  0
 10  9  1  0
  1  9  1  0
  1  8  1  0
  9 14  2  0
  1 15  1  0
  2 24  1  0
  4 16  1  0
  5 17  1  0
  6 18  1  0
  8 19  1  0
  8 20  1  0
  8 21  1  0
 11 22  1  0
 13 23  1  0
M  END
