
     RDKit          3D

 26 27  0  0  0  0  0  0  0  0999 V2000
    2.8905    0.4342   -0.5934 C   0  0  0  0  0  0  0  0  0  0  0  0
    5.1700    0.0819   -0.3523 C   0  0  0  0  0  0  0  0  0  0  0  0
   -1.9122    0.2592    0.4487 C   0  0  0  0  0  0  0  0  0  0  0  0
   -3.9223    2.1779    0.9241 O   0  0  0  0  0  0  0  0  0  0  0  0
   -3.2562    0.0231    0.1712 C   0  0  0  0  0  0  0  0  0  0  0  0
   -3.6453   -1.2054   -0.3597 C   0  0  0  0  0  0  0  0  0  0  0  0
   -2.6915   -2.1807   -0.6072 C   0  0  0  0  0  0  0  0  0  0  0  0
   -1.3550   -1.9382   -0.3284 C   0  0  0  0  0  0  0  0  0  0  0  0
   -0.9550   -0.7176    0.2104 C   0  0  0  0  0  0  0  0  0  0  0  0
    0.4911   -0.4437    0.4814 C   0  0  0  0  0  0  0  0  0  0  0  0
    1.2215    0.2331   -1.0613 S   0  0  0  0  0  0  0  0  0  0  0  0
    3.4203    1.8270    0.2793 S   0  0  0  0  0  0  0  0  0  0  0  0
    5.0386    1.2755    0.2934 C   0  0  0  0  0  0  0  0  0  0  0  0
    3.9371   -0.4027   -0.8599 C   0  0  0  0  0  0  0  0  0  0  0  0
   -5.4758    0.7776    0.1526 O   0  0  0  0  0  0  0  0  0  0  0  0
    6.1128   -0.4339   -0.4627 H   0  0  0  0  0  0  0  0  0  0  0  0
   -1.6071    1.2127    0.8611 H   0  0  0  0  0  0  0  0  0  0  0  0
   -4.6828   -1.4131   -0.5802 H   0  0  0  0  0  0  0  0  0  0  0  0
   -2.9935   -3.1339   -1.0193 H   0  0  0  0  0  0  0  0  0  0  0  0
   -0.6155   -2.7053   -0.5245 H   0  0  0  0  0  0  0  0  0  0  0  0
    0.6147    0.2870    1.2797 H   0  0  0  0  0  0  0  0  0  0  0  0
    1.0279   -1.3533    0.7477 H   0  0  0  0  0  0  0  0  0  0  0  0
    5.8120    1.8578    0.7712 H   0  0  0  0  0  0  0  0  0  0  0  0
    3.8236   -1.3305   -1.4025 H   0  0  0  0  0  0  0  0  0  0  0  0
   -6.0743    1.5098    0.3629 H   0  0  0  0  0  0  0  0  0  0  0  0
   -4.2297    1.1064    0.4594 C   0  0  0  0  0  0  0  0  0  0  0  0
  2 13  2  0
  2 14  1  0
 13 12  1  0
 14  1  2  0
 12  1  1  0
  1 11  1  0
 11 10  1  0
 10  9  1  0
  8  9  1  0
  8  7  2  0
  9  3  2  0
  7  6  1  0
  3  5  1  0
  6  5  2  0
  5 26  1  0
  4 26  2  0
 26 15  1  0
  2 16  1  0
  3 17  1  0
  6 18  1  0
  7 19  1  0
  8 20  1  0
 10 21  1  0
 10 22  1  0
 13 23  1  0
 14 24  1  0
 15 25  1  0
M  END
