
     RDKit          3D

 58 57  0  0  0  0  0  0  0  0999 V2000
    5.0769    1.4030    0.1145 N   0  0  0  0  0  0  0  0  0  0  0  0
   -3.1564   -0.6819   -0.7528 C   0  0  0  0  0  0  0  0  0  0  0  0
   -2.5783   -0.9501    0.6297 C   0  0  0  0  0  0  0  0  0  0  0  0
   -0.4682   -1.2449    1.6666 C   0  0  2  0  0  0  0  0  0  0  0  0
    1.0138   -1.2963    1.2715 C   0  0  2  0  0  0  0  0  0  0  0  0
    1.5911    0.0607    0.8659 C   0  0  0  0  0  0  0  0  0  0  0  0
    3.6379    1.3801    0.2458 C   0  0  0  0  0  0  0  0  0  0  0  0
    1.8636   -4.2843   -0.9124 C   0  0  0  0  0  0  0  0  0  0  0  0
   -6.2351    3.7249   -0.3865 C   0  0  0  0  0  0  0  0  0  0  0  0
   -6.3487    2.2928   -0.5216 N   0  0  0  0  0  0  0  0  0  0  0  0
   -7.3328    1.8866   -1.3887 O   0  0  0  0  0  0  0  0  0  0  0  0
   -5.3268    1.4328   -0.2633 C   0  0  0  0  0  0  0  0  0  0  0  0
   -4.2903    1.8454    0.2444 O   0  0  0  0  0  0  0  0  0  0  0  0
   -5.5859    0.0114   -0.5693 C   0  0  0  0  0  0  0  0  0  0  0  0
   -4.6411   -0.9191   -0.7648 C   0  0  0  0  0  0  0  0  0  0  0  0
   -5.0447   -2.3372   -1.0324 C   0  0  0  0  0  0  0  0  0  0  0  0
   -1.1757   -0.7809    0.5606 O   0  0  0  0  0  0  0  0  0  0  0  0
   -0.7009   -0.4894    2.8152 O   0  0  0  0  0  0  0  0  0  0  0  0
    1.1889   -2.2580    0.2060 N   0  0  0  0  0  0  0  0  0  0  0  0
    1.7655   -3.4650    0.3504 C   0  0  0  0  0  0  0  0  0  0  0  0
    2.1987   -3.8793    1.4177 O   0  0  0  0  0  0  0  0  0  0  0  0
    3.0985    0.0124    0.6497 C   0  0  0  0  0  0  0  0  0  0  0  0
    5.7689    1.4249    1.2969 O   0  0  0  0  0  0  0  0  0  0  0  0
    5.7604    1.4910   -1.0500 C   0  0  0  0  0  0  0  0  0  0  0  0
    5.1728    1.5225   -2.1214 O   0  0  0  0  0  0  0  0  0  0  0  0
    7.2702    1.5364   -0.9442 C   0  0  0  0  0  0  0  0  0  0  0  0
    7.9435    1.7028   -2.2950 C   0  0  0  0  0  0  0  0  0  0  0  0
   -2.9097    0.3345   -1.0546 H   0  0  0  0  0  0  0  0  0  0  0  0
   -2.6896   -1.3643   -1.4690 H   0  0  0  0  0  0  0  0  0  0  0  0
   -3.0258   -0.2618    1.3513 H   0  0  0  0  0  0  0  0  0  0  0  0
   -2.8161   -1.9718    0.9552 H   0  0  0  0  0  0  0  0  0  0  0  0
   -0.7924   -2.2621    1.9273 H   0  0  0  0  0  0  0  0  0  0  0  0
    1.5619   -1.6684    2.1392 H   0  0  0  0  0  0  0  0  0  0  0  0
    1.0938    0.4208   -0.0394 H   0  0  0  0  0  0  0  0  0  0  0  0
    1.3829    0.7968    1.6487 H   0  0  0  0  0  0  0  0  0  0  0  0
    3.3521    2.1353    0.9831 H   0  0  0  0  0  0  0  0  0  0  0  0
    3.2100    1.6853   -0.7073 H   0  0  0  0  0  0  0  0  0  0  0  0
    2.9138   -4.3962   -1.1844 H   0  0  0  0  0  0  0  0  0  0  0  0
    1.4675   -5.2825   -0.7304 H   0  0  0  0  0  0  0  0  0  0  0  0
    1.3372   -3.8505   -1.7605 H   0  0  0  0  0  0  0  0  0  0  0  0
   -5.5297    3.9611    0.4036 H   0  0  0  0  0  0  0  0  0  0  0  0
   -5.8981    4.1955   -1.3131 H   0  0  0  0  0  0  0  0  0  0  0  0
   -7.2052    4.1381   -0.1137 H   0  0  0  0  0  0  0  0  0  0  0  0
   -8.1268    1.7590   -0.8520 H   0  0  0  0  0  0  0  0  0  0  0  0
   -6.6193   -0.3034   -0.6351 H   0  0  0  0  0  0  0  0  0  0  0  0
   -4.7365   -2.6364   -2.0369 H   0  0  0  0  0  0  0  0  0  0  0  0
   -4.5461   -3.0204   -0.3405 H   0  0  0  0  0  0  0  0  0  0  0  0
   -6.1194   -2.4874   -0.9445 H   0  0  0  0  0  0  0  0  0  0  0  0
   -0.4348    0.4252    2.6640 H   0  0  0  0  0  0  0  0  0  0  0  0
    0.8416   -1.9983   -0.7036 H   0  0  0  0  0  0  0  0  0  0  0  0
    3.5834   -0.3232    1.5714 H   0  0  0  0  0  0  0  0  0  0  0  0
    3.3477   -0.7145   -0.1268 H   0  0  0  0  0  0  0  0  0  0  0  0
    5.9323    0.5043    1.5443 H   0  0  0  0  0  0  0  0  0  0  0  0
    7.5651    2.3486   -0.2759 H   0  0  0  0  0  0  0  0  0  0  0  0
    7.6206    0.6193   -0.4616 H   0  0  0  0  0  0  0  0  0  0  0  0
    7.7180    0.8779   -2.9695 H   0  0  0  0  0  0  0  0  0  0  0  0
    7.6429    2.6287   -2.7842 H   0  0  0  0  0  0  0  0  0  0  0  0
    9.0248    1.7348   -2.1636 H   0  0  0  0  0  0  0  0  0  0  0  0
  9 10  1  0
 16 15  1  0
 14 15  2  0
 14 12  1  0
 15  2  1  0
 10 12  1  0
 10 11  1  0
 12 13  2  0
  2  3  1  0
  3 17  1  0
  8 20  1  0
 17  4  1  0
 20 19  1  0
 20 21  2  0
 19  5  1  0
  4 18  1  0
  4  5  1  0
 25 24  2  0
 23  1  1  0
  5  6  1  0
  6 22  1  0
 24  1  1  0
 24 26  1  0
  1  7  1  0
 22  7  1  0
 27 26  1  0
  2 28  1  0
  2 29  1  0
  3 30  1  0
  3 31  1  0
  4 32  1  1
  5 33  1  1
  6 34  1  0
  6 35  1  0
  7 36  1  0
  7 37  1  0
  8 38  1  0
  8 39  1  0
  8 40  1  0
  9 41  1  0
  9 42  1  0
  9 43  1  0
 11 44  1  0
 14 45  1  0
 16 46  1  0
 16 47  1  0
 16 48  1  0
 18 49  1  0
 19 50  1  0
 22 51  1  0
 22 52  1  0
 23 53  1  0
 26 54  1  0
 26 55  1  0
 27 56  1  0
 27 57  1  0
 27 58  1  0
M  END
