
     RDKit          3D

 45 47  0  0  0  0  0  0  0  0999 V2000
    7.0645   -0.9974    0.8307 O   0  0  0  0  0  0  0  0  0  0  0  0
    6.3717   -0.2510    0.1866 C   0  0  0  0  0  0  0  0  0  0  0  0
    6.7871    0.9464   -0.3242 N   0  0  0  0  0  0  0  0  0  0  0  0
    4.9183   -0.5251   -0.1492 C   0  0  2  0  0  0  0  0  0  0  0  0
    4.3173    0.9181   -1.0777 S   0  0  0  0  0  0  0  0  0  0  0  0
    5.8876    1.7206   -1.0172 C   0  0  0  0  0  0  0  0  0  0  0  0
    6.1227    2.7899   -1.5091 O   0  0  0  0  0  0  0  0  0  0  0  0
    4.0827   -0.7913    1.1047 C   0  0  0  0  0  0  0  0  0  0  0  0
   -6.3952    1.0483   -1.0931 C   0  0  0  0  0  0  0  0  0  0  0  0
    2.6427   -1.0499    0.7631 C   0  0  0  0  0  0  0  0  0  0  0  0
    2.2565   -2.2517    0.1670 C   0  0  0  0  0  0  0  0  0  0  0  0
    0.9418   -2.4885   -0.1830 C   0  0  0  0  0  0  0  0  0  0  0  0
   -0.0346   -1.5177    0.0564 C   0  0  0  0  0  0  0  0  0  0  0  0
    0.3330   -0.3147    0.6509 C   0  0  0  0  0  0  0  0  0  0  0  0
    1.6636   -0.0946    0.9928 C   0  0  0  0  0  0  0  0  0  0  0  0
   -1.2909   -1.8332   -0.3145 O   0  0  0  0  0  0  0  0  0  0  0  0
   -2.3250   -0.8885   -0.0999 C   0  0  0  0  0  0  0  0  0  0  0  0
   -3.6166   -1.4826   -0.6354 C   0  0  0  0  0  0  0  0  0  0  0  0
   -9.3407    1.3175    0.4135 C   0  0  0  0  0  0  0  0  0  0  0  0
   -6.8426    1.1548    0.2185 C   0  0  0  0  0  0  0  0  0  0  0  0
   -6.1861    0.3715    1.1628 C   0  0  0  0  0  0  0  0  0  0  0  0
   -5.1865   -0.4540    0.8851 N   0  0  0  0  0  0  0  0  0  0  0  0
   -5.3490    0.1920   -1.3953 C   0  0  0  0  0  0  0  0  0  0  0  0
   -4.7680   -0.5526   -0.3746 C   0  0  0  0  0  0  0  0  0  0  0  0
    7.7353    1.2761   -0.1841 H   0  0  0  0  0  0  0  0  0  0  0  0
    4.8864   -1.3954   -0.8096 H   0  0  0  0  0  0  0  0  0  0  0  0
    4.5146   -1.6566    1.6125 H   0  0  0  0  0  0  0  0  0  0  0  0
    4.1657    0.0595    1.7830 H   0  0  0  0  0  0  0  0  0  0  0  0
   -6.8597    1.6357   -1.8764 H   0  0  0  0  0  0  0  0  0  0  0  0
   -4.9861    0.1017   -2.4108 H   0  0  0  0  0  0  0  0  0  0  0  0
    2.9966   -3.0207   -0.0241 H   0  0  0  0  0  0  0  0  0  0  0  0
    1.9335    0.8474    1.4550 H   0  0  0  0  0  0  0  0  0  0  0  0
    0.6573   -3.4270   -0.6422 H   0  0  0  0  0  0  0  0  0  0  0  0
   -0.3917    0.4616    0.8544 H   0  0  0  0  0  0  0  0  0  0  0  0
   -2.4298   -0.6666    0.9679 H   0  0  0  0  0  0  0  0  0  0  0  0
   -2.0987    0.0512   -0.6164 H   0  0  0  0  0  0  0  0  0  0  0  0
   -3.5199   -1.6709   -1.7062 H   0  0  0  0  0  0  0  0  0  0  0  0
   -3.8074   -2.4403   -0.1452 H   0  0  0  0  0  0  0  0  0  0  0  0
  -10.1685    1.9728    0.6864 H   0  0  0  0  0  0  0  0  0  0  0  0
   -9.4852    1.0099   -0.6229 H   0  0  0  0  0  0  0  0  0  0  0  0
   -9.3990    0.4258    1.0388 H   0  0  0  0  0  0  0  0  0  0  0  0
   -7.9861    2.9376   -0.0112 H   0  0  0  0  0  0  0  0  0  0  0  0
   -7.8980    2.3484    1.6362 H   0  0  0  0  0  0  0  0  0  0  0  0
   -6.4915    0.4195    2.2046 H   0  0  0  0  0  0  0  0  0  0  0  0
   -8.0017    2.0302    0.5965 C   0  0  0  0  0  0  0  0  0  0  0  0
  1  2  2  0
  2  3  1  0
  2  4  1  0
  3  6  1  0
  4  5  1  0
  4  8  1  0
  5  6  1  0
  6  7  2  0
  8 10  1  0
  9 20  2  0
  9 23  1  0
 10 11  2  0
 10 15  1  0
 11 12  1  0
 12 13  2  0
 13 14  1  0
 13 16  1  0
 14 15  2  0
 16 17  1  0
 17 18  1  0
 18 24  1  0
 19 45  1  0
 45 20  1  0
 20 21  1  0
 21 22  2  0
 22 24  1  0
 23 24  2  0
  3 25  1  0
  4 26  1  6
  8 27  1  0
  8 28  1  0
  9 29  1  0
 23 30  1  0
 11 31  1  0
 15 32  1  0
 12 33  1  0
 14 34  1  0
 17 35  1  0
 17 36  1  0
 18 37  1  0
 18 38  1  0
 19 39  1  0
 19 40  1  0
 19 41  1  0
 45 42  1  0
 45 43  1  0
 21 44  1  0
M  END
