
     RDKit          3D

 50 53  0  0  0  0  0  0  0  0999 V2000
   -5.3386    1.5959   -0.0620 C   0  0  0  0  0  0  0  0  0  0  0  0
    3.4192    2.2819    0.7821 C   0  0  0  0  0  0  0  0  0  0  0  0
    5.3712    0.7229   -0.4828 C   0  0  0  0  0  0  0  0  0  0  0  0
    6.3971   -0.0571   -1.1548 C   0  0  0  0  0  0  0  0  0  0  0  0
    7.7579    0.0027   -1.1501 C   0  0  0  0  0  0  0  0  0  0  0  0
    7.0945   -1.6365   -2.4907 C   0  0  0  0  0  0  0  0  0  0  0  0
    4.0154    0.4366   -0.6503 C   0  0  0  0  0  0  0  0  0  0  0  0
    0.8710   -1.1142    2.1167 C   0  0  1  0  0  0  0  0  0  0  0  0
   -2.5681   -0.7816    0.4448 C   0  0  0  0  0  0  0  0  0  0  0  0
   -4.7355    0.3359   -0.0527 C   0  0  0  0  0  0  0  0  0  0  0  0
   -5.4941   -0.7764   -0.4188 C   0  0  0  0  0  0  0  0  0  0  0  0
   -6.8231   -0.6192   -0.7857 C   0  0  0  0  0  0  0  0  0  0  0  0
   -7.4025    0.6373   -0.7902 C   0  0  0  0  0  0  0  0  0  0  0  0
   -6.6624    1.7520   -0.4276 C   0  0  0  0  0  0  0  0  0  0  0  0
   -1.1370   -0.4204    0.8006 C   0  0  2  0  0  0  0  0  0  0  0  0
   -0.2605   -0.5720   -0.4523 C   0  0  0  0  0  0  0  0  0  0  0  0
    3.0472    1.2117   -0.0226 C   0  0  0  0  0  0  0  0  0  0  0  0
    4.7663    2.5533    0.9742 C   0  0  0  0  0  0  0  0  0  0  0  0
    5.7335    1.7875    0.3469 C   0  0  0  0  0  0  0  0  0  0  0  0
    8.2098   -1.0281   -2.0222 C   0  0  0  0  0  0  0  0  0  0  0  0
    1.6798   -1.2207    0.8332 C   0  0  0  0  0  0  0  0  0  0  0  0
   -0.6098   -1.3310    1.9118 C   0  0  0  0  0  0  0  0  0  0  0  0
    1.3575   -2.0037    3.0283 F   0  0  0  0  0  0  0  0  0  0  0  0
    1.0861    0.1298    2.6526 F   0  0  0  0  0  0  0  0  0  0  0  0
   -3.3903    0.2880    0.3232 N   0  0  0  0  0  0  0  0  0  0  0  0
    1.1279   -0.2936   -0.1340 N   0  0  0  0  0  0  0  0  0  0  0  0
   -2.9066   -1.9356    0.2550 O   0  0  0  0  0  0  0  0  0  0  0  0
    0.8931    1.8886   -0.6862 O   0  0  0  0  0  0  0  0  0  0  0  0
    5.9956   -1.0559   -1.9710 O   0  0  0  0  0  0  0  0  0  0  0  0
   -9.0640    0.8205   -1.2489 Cl  0  0  0  0  0  0  0  0  0  0  0  0
   -4.7671    2.4722    0.2191 H   0  0  0  0  0  0  0  0  0  0  0  0
    2.6675    2.8927    1.2647 H   0  0  0  0  0  0  0  0  0  0  0  0
    8.3714    0.6938   -0.5955 H   0  0  0  0  0  0  0  0  0  0  0  0
    6.9330   -2.4587   -3.1683 H   0  0  0  0  0  0  0  0  0  0  0  0
    3.7057   -0.3869   -1.2815 H   0  0  0  0  0  0  0  0  0  0  0  0
   -5.0695   -1.7662   -0.4227 H   0  0  0  0  0  0  0  0  0  0  0  0
   -7.3993   -1.4900   -1.0679 H   0  0  0  0  0  0  0  0  0  0  0  0
   -7.1072    2.7376   -0.4287 H   0  0  0  0  0  0  0  0  0  0  0  0
   -1.0877    0.6215    1.1300 H   0  0  0  0  0  0  0  0  0  0  0  0
   -0.3190   -1.5992   -0.8216 H   0  0  0  0  0  0  0  0  0  0  0  0
   -0.5943    0.0881   -1.2493 H   0  0  0  0  0  0  0  0  0  0  0  0
    5.0653    3.3750    1.6113 H   0  0  0  0  0  0  0  0  0  0  0  0
    6.7778    2.0272    0.5009 H   0  0  0  0  0  0  0  0  0  0  0  0
    9.2289   -1.2799   -2.2649 H   0  0  0  0  0  0  0  0  0  0  0  0
    2.7279   -1.0107    1.0386 H   0  0  0  0  0  0  0  0  0  0  0  0
    1.6121   -2.2389    0.4445 H   0  0  0  0  0  0  0  0  0  0  0  0
   -0.7635   -2.3755    1.6320 H   0  0  0  0  0  0  0  0  0  0  0  0
   -1.1443   -1.1539    2.8477 H   0  0  0  0  0  0  0  0  0  0  0  0
   -2.9802    1.1854    0.5326 H   0  0  0  0  0  0  0  0  0  0  0  0
    1.5959    0.9753   -0.2895 C   0  0  0  0  0  0  0  0  0  0  0  0
 30 13  1  0
 13 12  2  0
 13 14  1  0
 12 11  1  0
 14  1  2  0
 11 10  2  0
  1 10  1  0
 10 25  1  0
 25  9  1  0
  9 27  2  0
  9 15  1  0
 28 50  2  0
 16 15  1  0
 16 26  1  0
 50 26  1  0
 50 17  1  0
 15 22  1  0
 26 21  1  0
 17  2  2  0
 17  7  1  0
  2 18  1  0
  7  3  2  0
 22  8  1  0
 21  8  1  0
 18 19  2  0
  3 19  1  0
  3  4  1  0
  8 24  1  1
  8 23  1  0
  5  4  2  0
  5 20  1  0
  4 29  1  0
 20  6  2  0
 29  6  1  0
  1 31  1  0
  2 32  1  0
  5 33  1  0
  6 34  1  0
  7 35  1  0
 11 36  1  0
 12 37  1  0
 14 38  1  0
 15 39  1  1
 16 40  1  0
 16 41  1  0
 18 42  1  0
 19 43  1  0
 20 44  1  0
 21 45  1  0
 21 46  1  0
 22 47  1  0
 22 48  1  0
 25 49  1  0
M  END
