
     RDKit          3D

 36 38  0  0  0  0  0  0  0  0999 V2000
   -0.1188   -0.8899    1.3930 C   0  0  0  0  0  0  0  0  0  0  0  0
   -3.4717   -0.5936   -0.3718 C   0  0  0  0  0  0  0  0  0  0  0  0
   -4.4134    1.4670    0.6783 C   0  0  0  0  0  0  0  0  0  0  0  0
   -1.4475   -1.4196   -0.9357 C   0  0  0  0  0  0  0  0  0  0  0  0
   -0.1142   -1.7865   -0.8742 C   0  0  0  0  0  0  0  0  0  0  0  0
    2.6004    0.3181   -0.1219 C   0  0  0  0  0  0  0  0  0  0  0  0
    4.3896    3.3919   -0.8216 C   0  0  0  0  0  0  0  0  0  0  0  0
    3.6743    1.2056   -0.2435 C   0  0  0  0  0  0  0  0  0  0  0  0
    4.9640    0.7972    0.0822 C   0  0  0  0  0  0  0  0  0  0  0  0
    5.1608   -0.5058    0.5293 C   0  0  0  0  0  0  0  0  0  0  0  0
    4.1135   -1.3972    0.6606 C   0  0  0  0  0  0  0  0  0  0  0  0
    2.8279   -0.9708    0.3289 C   0  0  0  0  0  0  0  0  0  0  0  0
    0.5299   -1.5102    0.3183 C   0  0  0  0  0  0  0  0  0  0  0  0
   -1.4494   -0.5285    1.2964 C   0  0  0  0  0  0  0  0  0  0  0  0
   -2.1300   -0.7984    0.1096 C   0  0  0  0  0  0  0  0  0  0  0  0
   -4.6153    0.0048    0.3632 C   0  0  0  0  0  0  0  0  0  0  0  0
   -3.4810   -1.0954   -1.6227 C   0  0  0  0  0  0  0  0  0  0  0  0
    1.8389   -1.8980    0.4605 O   0  0  0  0  0  0  0  0  0  0  0  0
   -3.4591    2.1210    0.3466 O   0  0  0  0  0  0  0  0  0  0  0  0
   -5.4322    1.9539    1.3763 O   0  0  0  0  0  0  0  0  0  0  0  0
   -2.2713   -1.5983   -1.9885 O   0  0  0  0  0  0  0  0  0  0  0  0
    0.4326   -0.6965    2.3044 H   0  0  0  0  0  0  0  0  0  0  0  0
    0.3970   -2.2647   -1.6996 H   0  0  0  0  0  0  0  0  0  0  0  0
    1.6078    0.6592   -0.3875 H   0  0  0  0  0  0  0  0  0  0  0  0
    4.8731    3.6067    0.1348 H   0  0  0  0  0  0  0  0  0  0  0  0
    5.1512    3.0740   -1.5381 H   0  0  0  0  0  0  0  0  0  0  0  0
    3.9218    4.3015   -1.1900 H   0  0  0  0  0  0  0  0  0  0  0  0
    5.8119    1.4621   -0.0014 H   0  0  0  0  0  0  0  0  0  0  0  0
    6.1625   -0.8269    0.7829 H   0  0  0  0  0  0  0  0  0  0  0  0
    4.2801   -2.4070    1.0119 H   0  0  0  0  0  0  0  0  0  0  0  0
   -1.9443   -0.0530    2.1327 H   0  0  0  0  0  0  0  0  0  0  0  0
   -5.5383   -0.0973   -0.2140 H   0  0  0  0  0  0  0  0  0  0  0  0
   -4.7960   -0.5270    1.3029 H   0  0  0  0  0  0  0  0  0  0  0  0
   -4.2660   -1.1636   -2.3598 H   0  0  0  0  0  0  0  0  0  0  0  0
   -5.2843    2.8916    1.5709 H   0  0  0  0  0  0  0  0  0  0  0  0
    3.3570    2.4355   -0.6866 O   0  0  0  0  0  0  0  0  0  0  0  0
 21 17  1  0
 21  4  1  0
 17  2  2  0
 19  3  2  0
  4  5  2  0
  4 15  1  0
  2 16  1  0
  2 15  1  0
  5 13  1  0
 16  3  1  0
  3 20  1  0
 15 14  2  0
 13 18  1  0
 13  1  2  0
 18 12  1  0
 14  1  1  0
 11 12  1  0
 11 10  2  0
 12  6  2  0
 10  9  1  0
  6  8  1  0
  9  8  2  0
  8 36  1  0
 36  7  1  0
  1 22  1  0
  5 23  1  0
  6 24  1  0
  7 25  1  0
  7 26  1  0
  7 27  1  0
  9 28  1  0
 10 29  1  0
 11 30  1  0
 14 31  1  0
 16 32  1  0
 16 33  1  0
 17 34  1  0
 20 35  1  0
M  END
