
     RDKit          3D

 78 85  0  0  0  0  0  0  0  0999 V2000
    7.9776    0.5158   -1.4767 C   0  0  0  0  0  0  0  0  0  0  0  0
    8.5215   -0.6522   -0.9860 N   0  0  0  0  0  0  0  0  0  0  0  0
    0.6247    0.5619    2.2277 O   0  0  0  0  0  0  0  0  0  0  0  0
    5.1837   -2.1709    0.8813 C   0  0  0  0  0  0  0  0  0  0  0  0
    6.3506   -2.9525    0.9541 C   0  0  0  0  0  0  0  0  0  0  0  0
    7.5534   -2.5707    0.3754 C   0  0  0  0  0  0  0  0  0  0  0  0
    7.5667   -1.3535   -0.3066 C   0  0  0  0  0  0  0  0  0  0  0  0
    6.3980   -0.5867   -0.3839 C   0  0  0  0  0  0  0  0  0  0  0  0
    3.6770    3.6920   -0.4517 C   0  0  0  0  0  0  0  0  0  0  0  0
    0.6260    0.1837    1.0718 C   0  0  0  0  0  0  0  0  0  0  0  0
   -1.2915   -1.4117    1.3302 C   0  0  2  0  0  0  0  0  0  0  0  0
   -2.2877   -0.4525    2.0076 C   0  0  0  0  0  0  0  0  0  0  0  0
   -4.5323    0.3985    1.4050 C   0  0  2  0  0  0  0  0  0  0  0  0
    3.3496    2.2802   -0.5138 N   0  0  0  0  0  0  0  0  0  0  0  0
    6.6594    0.5867   -1.1268 C   0  0  0  0  0  0  0  0  0  0  0  0
   -2.0946   -2.0694    0.3841 O   0  0  0  0  0  0  0  0  0  0  0  0
   -5.7136   -0.0955    0.5650 C   0  0  0  0  0  0  0  0  0  0  0  0
   -6.7032   -1.8899   -0.7731 C   0  0  0  0  0  0  0  0  0  0  0  0
   -6.2014   -3.2992   -1.0713 C   0  0  0  0  0  0  0  0  0  0  0  0
   -4.6811   -3.1537   -1.0580 C   0  0  0  0  0  0  0  0  0  0  0  0
   -4.4626   -2.1885    0.1002 C   0  0  1  0  0  0  0  0  0  0  0  0
   -3.2287   -1.3037    0.0649 C   0  0  1  0  0  0  0  0  0  0  0  0
   -0.6883   -2.4104    2.2908 C   0  0  0  0  0  0  0  0  0  0  0  0
   -4.2916    1.9091    1.2458 C   0  0  0  0  0  0  0  0  0  0  0  0
   -3.6340    2.2653   -0.0552 C   0  0  0  0  0  0  0  0  0  0  0  0
   -4.3762    2.4558   -1.2193 C   0  0  0  0  0  0  0  0  0  0  0  0
    5.5386    1.5416   -1.3650 C   0  0  0  0  0  0  0  0  0  0  0  0
   -0.2921   -0.6704    0.5677 N   0  0  0  0  0  0  0  0  0  0  0  0
   -2.1853    0.0912    3.0804 O   0  0  0  0  0  0  0  0  0  0  0  0
   -3.7466    2.7087   -2.4305 C   0  0  0  0  0  0  0  0  0  0  0  0
   -2.3609    2.7722   -2.5004 C   0  0  0  0  0  0  0  0  0  0  0  0
   -1.6101    2.6023   -1.3445 C   0  0  0  0  0  0  0  0  0  0  0  0
   -2.2437    2.3560   -0.1320 C   0  0  0  0  0  0  0  0  0  0  0  0
    4.5017    1.4396   -0.2178 C   0  0  2  0  0  0  0  0  0  0  0  0
   -3.3288   -0.3674    1.1552 N   0  0  0  0  0  0  0  0  0  0  0  0
   -6.7053    0.6089    0.4416 O   0  0  0  0  0  0  0  0  0  0  0  0
    2.2223    1.9984    0.3541 C   0  0  0  0  0  0  0  0  0  0  0  0
   -5.6334   -1.3224    0.0430 N   0  0  0  0  0  0  0  0  0  0  0  0
   -3.1430   -0.7011   -1.1634 O   0  0  0  0  0  0  0  0  0  0  0  0
    1.6815    0.6105    0.0604 C   0  0  1  0  0  0  0  0  0  0  0  0
    2.8086   -0.3773    0.1088 C   0  0  0  0  0  0  0  0  0  0  0  0
    4.0869   -0.0064    0.0360 C   0  0  0  0  0  0  0  0  0  0  0  0
    5.1923   -0.9639    0.1976 C   0  0  0  0  0  0  0  0  0  0  0  0
    8.5899    1.1997   -2.0436 H   0  0  0  0  0  0  0  0  0  0  0  0
    9.4797   -0.9305   -1.1134 H   0  0  0  0  0  0  0  0  0  0  0  0
    4.2905   -2.5161    1.3879 H   0  0  0  0  0  0  0  0  0  0  0  0
    6.3124   -3.8871    1.4994 H   0  0  0  0  0  0  0  0  0  0  0  0
    8.4338   -3.1941    0.4618 H   0  0  0  0  0  0  0  0  0  0  0  0
    4.4427    3.9560   -1.1785 H   0  0  0  0  0  0  0  0  0  0  0  0
    2.7920    4.2821   -0.6909 H   0  0  0  0  0  0  0  0  0  0  0  0
    4.0332    4.0042    0.5417 H   0  0  0  0  0  0  0  0  0  0  0  0
   -4.8303    0.2202    2.4452 H   0  0  0  0  0  0  0  0  0  0  0  0
   -6.8278   -1.3048   -1.6874 H   0  0  0  0  0  0  0  0  0  0  0  0
   -7.6514   -1.8832   -0.2363 H   0  0  0  0  0  0  0  0  0  0  0  0
   -6.5214   -3.9877   -0.2870 H   0  0  0  0  0  0  0  0  0  0  0  0
   -6.5818   -3.6737   -2.0200 H   0  0  0  0  0  0  0  0  0  0  0  0
   -4.1616   -4.0974   -0.9022 H   0  0  0  0  0  0  0  0  0  0  0  0
   -4.3356   -2.7217   -1.9980 H   0  0  0  0  0  0  0  0  0  0  0  0
   -4.4431   -2.7424    1.0458 H   0  0  0  0  0  0  0  0  0  0  0  0
   -0.0736   -1.8980    3.0278 H   0  0  0  0  0  0  0  0  0  0  0  0
   -1.4671   -2.9625    2.8159 H   0  0  0  0  0  0  0  0  0  0  0  0
   -0.0596   -3.1173    1.7496 H   0  0  0  0  0  0  0  0  0  0  0  0
   -5.2476    2.4186    1.3610 H   0  0  0  0  0  0  0  0  0  0  0  0
   -3.6655    2.2348    2.0773 H   0  0  0  0  0  0  0  0  0  0  0  0
   -5.4565    2.4035   -1.1809 H   0  0  0  0  0  0  0  0  0  0  0  0
    5.9075    2.5639   -1.4460 H   0  0  0  0  0  0  0  0  0  0  0  0
    5.0259    1.3134   -2.3052 H   0  0  0  0  0  0  0  0  0  0  0  0
   -0.1515   -1.0095   -0.3740 H   0  0  0  0  0  0  0  0  0  0  0  0
   -4.3409    2.8550   -3.3232 H   0  0  0  0  0  0  0  0  0  0  0  0
   -1.8699    2.9634   -3.4455 H   0  0  0  0  0  0  0  0  0  0  0  0
   -0.5300    2.6666   -1.3866 H   0  0  0  0  0  0  0  0  0  0  0  0
   -1.6494    2.2513    0.7686 H   0  0  0  0  0  0  0  0  0  0  0  0
    5.0054    1.7856    0.7060 H   0  0  0  0  0  0  0  0  0  0  0  0
    2.4882    2.0826    1.4185 H   0  0  0  0  0  0  0  0  0  0  0  0
    1.4485    2.7467    0.1647 H   0  0  0  0  0  0  0  0  0  0  0  0
   -2.5973    0.0974   -1.1200 H   0  0  0  0  0  0  0  0  0  0  0  0
    1.2332    0.6060   -0.9414 H   0  0  0  0  0  0  0  0  0  0  0  0
    2.5605   -1.4277    0.2277 H   0  0  0  0  0  0  0  0  0  0  0  0
 20 19  1  0
 20 21  1  0
 23 11  1  0
 19 18  1  0
 16 11  1  0
 16 22  1  0
 21 22  1  0
 21 38  1  0
 18 38  1  0
 11 28  1  6
 11 12  1  0
 22 39  1  6
 22 35  1  0
 28 10  1  0
 38 17  1  0
 37 14  1  0
 37 40  1  0
  9 14  1  0
 12 35  1  0
 12 29  2  0
 10 40  1  0
 10  3  2  0
 35 13  1  0
 14 34  1  0
 40 41  1  0
 17 36  2  0
 17 13  1  0
 13 24  1  0
 41 42  2  0
 34 27  1  0
 34 42  1  0
 27 15  1  0
 42 43  1  0
 24 25  1  0
 15  1  2  0
 15  8  1  0
 25 26  2  0
 25 33  1  0
 43  8  2  0
 43  4  1  0
 26 30  1  0
 33 32  2  0
  1  2  1  0
  8  7  1  0
 30 31  2  0
  4  5  2  0
 32 31  1  0
  2  7  1  0
  7  6  2  0
  5  6  1  0
  1 44  1  0
  2 45  1  0
  4 46  1  0
  5 47  1  0
  6 48  1  0
  9 49  1  0
  9 50  1  0
  9 51  1  0
 13 52  1  1
 18 53  1  0
 18 54  1  0
 19 55  1  0
 19 56  1  0
 20 57  1  0
 20 58  1  0
 21 59  1  1
 23 60  1  0
 23 61  1  0
 23 62  1  0
 24 63  1  0
 24 64  1  0
 26 65  1  0
 27 66  1  0
 27 67  1  0
 28 68  1  0
 30 69  1  0
 31 70  1  0
 32 71  1  0
 33 72  1  0
 34 73  1  1
 37 74  1  0
 37 75  1  0
 39 76  1  0
 40 77  1  6
 41 78  1  0
M  END
