
     RDKit          3D

 55 58  0  0  0  0  0  0  0  0999 V2000
   -3.8012    0.1878    0.1489 C   0  0  0  0  0  0  0  0  0  0  0  0
   -3.6381   -1.1123    0.6114 C   0  0  0  0  0  0  0  0  0  0  0  0
   -2.6355    0.9729   -0.3848 C   0  0  0  0  0  0  0  0  0  0  0  0
   -5.9905   -1.2426    1.1231 C   0  0  0  0  0  0  0  0  0  0  0  0
   -0.1648    1.1354   -0.7192 C   0  0  0  0  0  0  0  0  0  0  0  0
   -6.4220    2.6661   -0.3198 C   0  0  0  0  0  0  0  0  0  0  0  0
    1.1916    0.5065   -0.4435 C   0  0  1  0  0  0  0  0  0  0  0  0
    1.1190   -0.9762   -0.7689 C   0  0  0  0  0  0  0  0  0  0  0  0
    2.2970    1.2120   -1.2362 C   0  0  0  0  0  0  0  0  0  0  0  0
    3.6738    0.6790   -0.9502 C   0  0  0  0  0  0  0  0  0  0  0  0
    4.2839    0.9514    0.2668 C   0  0  0  0  0  0  0  0  0  0  0  0
    4.3466   -0.1167   -1.8777 C   0  0  0  0  0  0  0  0  0  0  0  0
    5.5459    0.4408    0.5724 C   0  0  0  0  0  0  0  0  0  0  0  0
    5.6003   -0.6230   -1.5763 C   0  0  0  0  0  0  0  0  0  0  0  0
    6.2124   -0.3543   -0.3578 C   0  0  0  0  0  0  0  0  0  0  0  0
    7.3166    0.2834    2.1454 C   0  0  0  0  0  0  0  0  0  0  0  0
   -5.0860    0.7610    0.1635 C   0  0  0  0  0  0  0  0  0  0  0  0
   -2.2906   -1.7866    0.6084 C   0  0  0  0  0  0  0  0  0  0  0  0
   -4.7391   -1.8234    1.0984 C   0  0  0  0  0  0  0  0  0  0  0  0
   -1.2807    0.3983    0.0080 C   0  0  2  0  0  0  0  0  0  0  0  0
   -6.1764    0.0542    0.6538 C   0  0  0  0  0  0  0  0  0  0  0  0
   -5.1689    2.0157   -0.3266 O   0  0  0  0  0  0  0  0  0  0  0  0
   -1.2441   -1.1039   -0.2683 C   0  0  1  0  0  0  0  0  0  0  0  0
    0.0827   -1.6484   -0.0058 N   0  0  0  0  0  0  0  0  0  0  0  0
    6.0398    0.7683    1.7834 O   0  0  0  0  0  0  0  0  0  0  0  0
   -2.7012    1.0199   -1.4789 H   0  0  0  0  0  0  0  0  0  0  0  0
   -2.6914    2.0100   -0.0459 H   0  0  0  0  0  0  0  0  0  0  0  0
   -6.8412   -1.7955    1.5005 H   0  0  0  0  0  0  0  0  0  0  0  0
   -0.1656    2.1918   -0.4336 H   0  0  0  0  0  0  0  0  0  0  0  0
   -0.3568    1.1055   -1.7998 H   0  0  0  0  0  0  0  0  0  0  0  0
   -6.8184    2.7827    0.6925 H   0  0  0  0  0  0  0  0  0  0  0  0
   -6.2601    3.6532   -0.7464 H   0  0  0  0  0  0  0  0  0  0  0  0
   -7.1623    2.1391   -0.9276 H   0  0  0  0  0  0  0  0  0  0  0  0
    1.4136    0.6083    0.6260 H   0  0  0  0  0  0  0  0  0  0  0  0
    0.9686   -1.0968   -1.8591 H   0  0  0  0  0  0  0  0  0  0  0  0
    2.0731   -1.4548   -0.5346 H   0  0  0  0  0  0  0  0  0  0  0  0
   -0.1203   -3.3846   -1.2386 H   0  0  0  0  0  0  0  0  0  0  0  0
    1.1820   -3.4165   -0.0417 H   0  0  0  0  0  0  0  0  0  0  0  0
   -0.4767   -3.6219    0.4793 H   0  0  0  0  0  0  0  0  0  0  0  0
    2.0861    1.1257   -2.3064 H   0  0  0  0  0  0  0  0  0  0  0  0
    2.2592    2.2795   -1.0003 H   0  0  0  0  0  0  0  0  0  0  0  0
    3.7792    1.5724    0.9992 H   0  0  0  0  0  0  0  0  0  0  0  0
    3.8885   -0.3386   -2.8338 H   0  0  0  0  0  0  0  0  0  0  0  0
    6.1190   -1.2407   -2.2983 H   0  0  0  0  0  0  0  0  0  0  0  0
    7.1925   -0.7643   -0.1564 H   0  0  0  0  0  0  0  0  0  0  0  0
    7.5152    0.6520    3.1487 H   0  0  0  0  0  0  0  0  0  0  0  0
    7.3517   -0.8093    2.1602 H   0  0  0  0  0  0  0  0  0  0  0  0
    8.0987    0.6506    1.4753 H   0  0  0  0  0  0  0  0  0  0  0  0
   -1.9033   -1.8285    1.6333 H   0  0  0  0  0  0  0  0  0  0  0  0
   -2.4369   -2.8233    0.2991 H   0  0  0  0  0  0  0  0  0  0  0  0
   -4.6032   -2.8379    1.4542 H   0  0  0  0  0  0  0  0  0  0  0  0
   -1.1418    0.5335    1.0890 H   0  0  0  0  0  0  0  0  0  0  0  0
   -7.1674    0.4868    0.6722 H   0  0  0  0  0  0  0  0  0  0  0  0
   -1.5224   -1.2595   -1.3309 H   0  0  0  0  0  0  0  0  0  0  0  0
    0.1599   -3.0796   -0.2180 C   0  0  0  0  0  0  0  0  0  0  0  0
  6 22  1  0
 21  4  2  0
 21 17  1  0
 22 17  1  0
  4 19  1  0
 17  1  2  0
 19  2  2  0
  1  2  1  0
  1  3  1  0
  2 18  1  0
  3 20  1  0
 18 23  1  0
 20 23  1  0
 20  5  1  0
 16 25  1  0
 23 24  1  0
 25 13  1  0
  5  7  1  0
 13 11  2  0
 13 15  1  0
 24 55  1  0
 24  8  1  0
 11 10  1  0
  7  8  1  0
  7  9  1  0
 15 14  2  0
 10  9  1  0
 10 12  2  0
 14 12  1  0
  3 26  1  0
  3 27  1  0
  4 28  1  0
  5 29  1  0
  5 30  1  0
  6 31  1  0
  6 32  1  0
  6 33  1  0
  7 34  1  1
  8 35  1  0
  8 36  1  0
 55 37  1  0
 55 38  1  0
 55 39  1  0
  9 40  1  0
  9 41  1  0
 11 42  1  0
 12 43  1  0
 14 44  1  0
 15 45  1  0
 16 46  1  0
 16 47  1  0
 16 48  1  0
 18 49  1  0
 18 50  1  0
 19 51  1  0
 20 52  1  1
 21 53  1  0
 23 54  1  6
M  END
