
     RDKit          3D

 43 45  0  0  0  0  0  0  0  0999 V2000
    2.8169   -3.2040   -1.3173 O   0  0  0  0  0  0  0  0  0  0  0  0
    2.4212   -2.1170   -0.9164 C   0  0  0  0  0  0  0  0  0  0  0  0
    3.3002   -1.0356   -0.4695 C   0  0  0  0  0  0  0  0  0  0  0  0
    4.6854   -1.2365   -0.4789 C   0  0  0  0  0  0  0  0  0  0  0  0
    5.5155   -0.2226   -0.0635 C   0  0  0  0  0  0  0  0  0  0  0  0
    4.9922    1.0023    0.3665 C   0  0  0  0  0  0  0  0  0  0  0  0
    1.0838   -1.8323   -0.8709 N   0  0  0  0  0  0  0  0  0  0  0  0
    0.5253   -0.6500   -0.4523 C   0  0  0  0  0  0  0  0  0  0  0  0
    1.3285    0.3578   -0.0411 C   0  0  0  0  0  0  0  0  0  0  0  0
    2.7476    0.1835   -0.0470 C   0  0  0  0  0  0  0  0  0  0  0  0
    3.6269    1.2111    0.3787 C   0  0  0  0  0  0  0  0  0  0  0  0
    3.0365    2.3497    0.7756 O   0  0  0  0  0  0  0  0  0  0  0  0
    3.8506    3.4119    1.2327 C   0  0  0  0  0  0  0  0  0  0  0  0
   -0.9426   -0.5675   -0.4538 C   0  0  0  0  0  0  0  0  0  0  0  0
   -1.7285   -1.6677   -0.1153 C   0  0  0  0  0  0  0  0  0  0  0  0
   -3.1121   -1.5657   -0.0980 C   0  0  0  0  0  0  0  0  0  0  0  0
   -3.7477   -0.3748   -0.4265 C   0  0  0  0  0  0  0  0  0  0  0  0
   -2.9600    0.7237   -0.7670 C   0  0  0  0  0  0  0  0  0  0  0  0
   -1.5802    0.6311   -0.7818 C   0  0  0  0  0  0  0  0  0  0  0  0
   -5.2499   -0.2761   -0.4478 C   0  0  0  0  0  0  0  0  0  0  0  0
   -5.7376    0.9205    0.2054 N   0  0  0  0  0  0  0  0  0  0  0  0
   -7.1395    1.1404   -0.0772 C   0  0  0  0  0  0  0  0  0  0  0  0
   -5.4898    0.8940    1.6311 C   0  0  0  0  0  0  0  0  0  0  0  0
    0.4713   -2.5554   -1.2248 H   0  0  0  0  0  0  0  0  0  0  0  0
    5.0912   -2.1813   -0.8117 H   0  0  0  0  0  0  0  0  0  0  0  0
    6.5882   -0.3626   -0.0647 H   0  0  0  0  0  0  0  0  0  0  0  0
    5.6764    1.7765    0.6869 H   0  0  0  0  0  0  0  0  0  0  0  0
    0.8864    1.2724    0.3215 H   0  0  0  0  0  0  0  0  0  0  0  0
    4.5231    3.7743    0.4509 H   0  0  0  0  0  0  0  0  0  0  0  0
    3.1763    4.2157    1.5169 H   0  0  0  0  0  0  0  0  0  0  0  0
    4.4435    3.1221    2.1040 H   0  0  0  0  0  0  0  0  0  0  0  0
   -1.2707   -2.6062    0.1733 H   0  0  0  0  0  0  0  0  0  0  0  0
   -0.9924    1.4928   -1.0720 H   0  0  0  0  0  0  0  0  0  0  0  0
   -3.7015   -2.4286    0.1879 H   0  0  0  0  0  0  0  0  0  0  0  0
   -3.4361    1.6607   -1.0264 H   0  0  0  0  0  0  0  0  0  0  0  0
   -5.5803   -0.2478   -1.4913 H   0  0  0  0  0  0  0  0  0  0  0  0
   -5.6821   -1.1943   -0.0137 H   0  0  0  0  0  0  0  0  0  0  0  0
   -7.7924    0.3380    0.3006 H   0  0  0  0  0  0  0  0  0  0  0  0
   -7.4668    2.0748    0.3800 H   0  0  0  0  0  0  0  0  0  0  0  0
   -7.2980    1.2204   -1.1536 H   0  0  0  0  0  0  0  0  0  0  0  0
   -4.4232    0.7928    1.8329 H   0  0  0  0  0  0  0  0  0  0  0  0
   -5.8234    1.8287    2.0840 H   0  0  0  0  0  0  0  0  0  0  0  0
   -6.0086    0.0676    2.1425 H   0  0  0  0  0  0  0  0  0  0  0  0
  1  2  2  0
  2  3  1  0
  2  7  1  0
  3  4  1  0
  3 10  2  0
  4  5  2  0
  5  6  1  0
  6 11  2  0
  7  8  1  0
  8  9  2  0
  8 14  1  0
  9 10  1  0
 10 11  1  0
 11 12  1  0
 12 13  1  0
 14 15  2  0
 14 19  1  0
 15 16  1  0
 16 17  2  0
 17 18  1  0
 17 20  1  0
 18 19  2  0
 20 21  1  0
 21 22  1  0
 21 23  1  0
  7 24  1  0
  4 25  1  0
  5 26  1  0
  6 27  1  0
  9 28  1  0
 13 29  1  0
 13 30  1  0
 13 31  1  0
 15 32  1  0
 19 33  1  0
 16 34  1  0
 18 35  1  0
 20 36  1  0
 20 37  1  0
 22 38  1  0
 22 39  1  0
 22 40  1  0
 23 41  1  0
 23 42  1  0
 23 43  1  0
M  END
