
     RDKit          3D

 39 40  0  0  0  0  0  0  0  0999 V2000
   -0.8315    1.2498   -1.6239 C   0  0  0  0  0  0  0  0  0  0  0  0
   -1.9902    0.4952   -1.0278 C   0  0  0  0  0  0  0  0  0  0  0  0
   -2.7224    1.0409    0.0245 C   0  0  0  0  0  0  0  0  0  0  0  0
   -3.7949    0.3552    0.5648 C   0  0  0  0  0  0  0  0  0  0  0  0
   -4.1636   -0.8906    0.0587 C   0  0  0  0  0  0  0  0  0  0  0  0
   -3.4385   -1.4365   -0.9979 C   0  0  0  0  0  0  0  0  0  0  0  0
   -2.3596   -0.7474   -1.5291 C   0  0  0  0  0  0  0  0  0  0  0  0
   -5.3209   -1.5860    0.6722 C   0  0  0  0  0  0  0  0  0  0  0  0
    1.0092    0.4168   -0.3169 C   0  0  0  0  0  0  0  0  0  0  0  0
    4.8936   -1.7776    0.3025 C   0  0  0  0  0  0  0  0  0  0  0  0
    4.7898    0.6863   -0.0314 N   0  0  0  0  0  0  0  0  0  0  0  0
    4.0542   -0.5485   -0.0282 C   0  0  2  0  0  0  0  0  0  0  0  0
    1.9924    0.6379    0.6217 N   0  0  0  0  0  0  0  0  0  0  0  0
    2.2064    1.8749    1.1420 C   0  0  0  0  0  0  0  0  0  0  0  0
    1.4516    2.9366    0.8178 C   0  0  0  0  0  0  0  0  0  0  0  0
    0.3734    2.7928   -0.1217 C   0  0  0  0  0  0  0  0  0  0  0  0
   -0.3788    3.6924   -0.4539 O   0  0  0  0  0  0  0  0  0  0  0  0
    0.2269    1.5044   -0.6487 N   0  0  0  0  0  0  0  0  0  0  0  0
   -5.5850   -2.7551    0.1054 O   0  0  0  0  0  0  0  0  0  0  0  0
   -5.9623   -1.1388    1.5932 O   0  0  0  0  0  0  0  0  0  0  0  0
    6.0218   -1.7365    0.7211 O   0  0  0  0  0  0  0  0  0  0  0  0
   -0.4141    0.7061   -2.4691 H   0  0  0  0  0  0  0  0  0  0  0  0
   -1.1678    2.2156   -1.9931 H   0  0  0  0  0  0  0  0  0  0  0  0
   -2.4644    2.0144    0.4217 H   0  0  0  0  0  0  0  0  0  0  0  0
   -4.3540    0.7940    1.3801 H   0  0  0  0  0  0  0  0  0  0  0  0
   -3.6974   -2.4016   -1.4108 H   0  0  0  0  0  0  0  0  0  0  0  0
   -1.7970   -1.1860   -2.3432 H   0  0  0  0  0  0  0  0  0  0  0  0
    5.3751    0.7625    0.7914 H   0  0  0  0  0  0  0  0  0  0  0  0
    5.4049    0.7319   -0.8327 H   0  0  0  0  0  0  0  0  0  0  0  0
    3.6375   -0.7059   -1.0273 H   0  0  0  0  0  0  0  0  0  0  0  0
    3.0097    1.9491    1.8593 H   0  0  0  0  0  0  0  0  0  0  0  0
    1.6321    3.9011    1.2660 H   0  0  0  0  0  0  0  0  0  0  0  0
   -6.3422   -3.1712    0.5437 H   0  0  0  0  0  0  0  0  0  0  0  0
    4.7764   -3.6694    0.3114 H   0  0  0  0  0  0  0  0  0  0  0  0
    0.8396   -0.6727   -0.8239 O   0  0  0  0  0  0  0  0  0  0  0  0
    2.8821   -0.4590    0.9615 C   0  0  0  0  0  0  0  0  0  0  0  0
    4.2292   -2.9033    0.0803 O   0  0  0  0  0  0  0  0  0  0  0  0
    2.3109   -1.3829    0.9874 H   0  0  0  0  0  0  0  0  0  0  0  0
    3.2565   -0.2805    1.9699 H   0  0  0  0  0  0  0  0  0  0  0  0
  2  1  1  0
  2  3  2  0
  4  3  1  0
  5  4  2  0
  6  5  1  0
  6  7  2  0
  7  2  1  0
  8  5  1  0
  8 20  2  0
  9 18  1  0
 10 12  1  0
 12 11  1  0
 12 36  1  0
 36 13  1  0
 13  9  1  0
 13 14  1  0
 14 15  2  0
 15 16  1  0
 16 17  2  0
 18  1  1  0
 18 16  1  0
 19  8  1  0
 35  9  2  0
 37 10  1  0
 21 10  2  0
  1 22  1  0
  1 23  1  0
  3 24  1  0
  4 25  1  0
  6 26  1  0
  7 27  1  0
 11 28  1  0
 11 29  1  0
 12 30  1  6
 36 38  1  0
 36 39  1  0
 14 31  1  0
 15 32  1  0
 19 33  1  0
 37 34  1  0
M  END
