
     RDKit          3D

 34 35  0  0  0  0  0  0  0  0999 V2000
   -0.2257    0.8801    3.7229 S   0  0  0  0  0  0  0  0  0  0  0  0
    0.1451   -0.8250    4.2370 C   0  0  0  0  0  0  0  0  0  0  0  0
    0.5081   -0.8663    5.7126 C   0  0  0  0  0  0  0  0  0  0  0  0
    0.8582   -2.2807    6.1550 C   0  0  0  0  0  0  0  0  0  0  0  0
    1.1117    0.4538   -1.3310 N   0  0  0  0  0  0  0  0  0  0  0  0
    0.3477    0.1280   -2.3366 C   0  0  0  0  0  0  0  0  0  0  0  0
   -0.9382   -0.1251   -1.9921 N   0  0  0  0  0  0  0  0  0  0  0  0
   -1.0212    0.0498   -0.6347 C   0  0  0  0  0  0  0  0  0  0  0  0
    0.2789    0.4137   -0.2396 C   0  0  0  0  0  0  0  0  0  0  0  0
   -2.0762   -0.0626    0.2571 C   0  0  0  0  0  0  0  0  0  0  0  0
   -1.7976    0.2010    1.5880 C   0  0  0  0  0  0  0  0  0  0  0  0
   -0.5028    0.5460    1.9878 C   0  0  0  0  0  0  0  0  0  0  0  0
    0.5497    0.6737    1.0987 C   0  0  0  0  0  0  0  0  0  0  0  0
    0.0904   -0.2723   -4.7245 C   0  0  0  0  0  0  0  0  0  0  0  0
    0.8586   -0.2598   -5.7977 O   0  0  0  0  0  0  0  0  0  0  0  0
    0.2383   -0.5815   -7.0446 C   0  0  0  0  0  0  0  0  0  0  0  0
   -1.0916   -0.5299   -4.7118 O   0  0  0  0  0  0  0  0  0  0  0  0
    1.0745    1.6390    3.8439 O   0  0  0  0  0  0  0  0  0  0  0  0
    0.9634   -1.1850    3.6077 H   0  0  0  0  0  0  0  0  0  0  0  0
   -0.7456   -1.4208    4.0253 H   0  0  0  0  0  0  0  0  0  0  0  0
   -0.3256   -0.4866    6.3086 H   0  0  0  0  0  0  0  0  0  0  0  0
    1.3561   -0.2041    5.8964 H   0  0  0  0  0  0  0  0  0  0  0  0
    1.1383   -2.2989    7.2080 H   0  0  0  0  0  0  0  0  0  0  0  0
    0.0145   -2.9589    6.0227 H   0  0  0  0  0  0  0  0  0  0  0  0
    1.6966   -2.6756    5.5799 H   0  0  0  0  0  0  0  0  0  0  0  0
   -1.6779   -0.3827   -2.6275 H   0  0  0  0  0  0  0  0  0  0  0  0
   -3.0733   -0.3309   -0.0645 H   0  0  0  0  0  0  0  0  0  0  0  0
   -2.5929    0.1425    2.3208 H   0  0  0  0  0  0  0  0  0  0  0  0
    1.5383    0.9645    1.4300 H   0  0  0  0  0  0  0  0  0  0  0  0
    1.8106    0.2478   -3.7238 H   0  0  0  0  0  0  0  0  0  0  0  0
    1.0236   -0.5082   -7.7899 H   0  0  0  0  0  0  0  0  0  0  0  0
   -0.1618   -1.5944   -7.0372 H   0  0  0  0  0  0  0  0  0  0  0  0
   -0.5566    0.1228   -7.2860 H   0  0  0  0  0  0  0  0  0  0  0  0
    0.8253    0.0496   -3.6183 N   0  0  0  0  0  0  0  0  0  0  0  0
  1  2  1  1
  1 12  1  0
  1 18  2  0
  2  3  1  0
  2 19  1  0
  2 20  1  0
  3  4  1  0
  3 21  1  0
  3 22  1  0
  4 23  1  0
  4 24  1  0
  4 25  1  0
  5  6  2  0
  5  9  1  0
  6  7  1  0
  6 34  1  0
  7  8  1  0
  7 26  1  0
  8  9  2  0
  8 10  1  0
  9 13  1  0
 10 11  2  0
 10 27  1  0
 11 12  1  0
 11 28  1  0
 12 13  2  0
 13 29  1  0
 34 14  1  0
 34 30  1  0
 14 15  1  0
 14 17  2  0
 15 16  1  0
 16 31  1  0
 16 32  1  0
 16 33  1  0
M  END
