
     RDKit          3D

 21 20  0  0  0  0  0  0  0  0999 V2000
    0.8996    1.4080   -3.0900 C   0  0  0  0  0  0  0  0  0  0  0  0
    1.4009    0.3576   -2.1384 C   0  0  0  0  0  0  0  0  0  0  0  0
    0.9180   -1.4459   -0.5380 C   0  0  0  0  0  0  0  0  0  0  0  0
    1.2602   -0.9113    0.8331 C   0  0  0  0  0  0  0  0  0  0  0  0
    2.5880    0.1644   -1.9437 O   0  0  0  0  0  0  0  0  0  0  0  0
    0.4878   -0.4222   -1.4808 N   0  0  0  0  0  0  0  0  0  0  0  0
    0.0824   -0.3331    1.4042 O   0  0  0  0  0  0  0  0  0  0  0  0
    0.1301    0.2480    2.8891 P   0  0  1  0  0  0  0  0  0  0  0  0
    1.2430    1.1618    3.2076 O   0  0  0  0  0  0  0  0  0  0  0  0
   -1.3498    0.8377    2.9142 O   0  0  0  0  0  0  0  0  0  0  0  0
    0.1721   -1.0091    3.8765 O   0  0  0  0  0  0  0  0  0  0  0  0
   -1.3247   -0.1097   -1.6017 Br  0  0  0  0  0  0  0  0  0  0  0  0
    1.7555    1.8819   -3.5633 H   0  0  0  0  0  0  0  0  0  0  0  0
    0.2631    0.9844   -3.8669 H   0  0  0  0  0  0  0  0  0  0  0  0
    0.3244    2.1772   -2.5741 H   0  0  0  0  0  0  0  0  0  0  0  0
    0.1451   -2.2103   -0.4682 H   0  0  0  0  0  0  0  0  0  0  0  0
    1.8046   -1.9331   -0.9436 H   0  0  0  0  0  0  0  0  0  0  0  0
    1.6200   -1.7434    1.4446 H   0  0  0  0  0  0  0  0  0  0  0  0
    2.0533   -0.1644    0.7692 H   0  0  0  0  0  0  0  0  0  0  0  0
   -1.5408    1.3742    3.6953 H   0  0  0  0  0  0  0  0  0  0  0  0
   -0.5483   -1.6462    3.7758 H   0  0  0  0  0  0  0  0  0  0  0  0
  1  2  1  0
  1 13  1  0
  1 14  1  0
  1 15  1  0
  2  5  2  0
  2  6  1  0
  3  4  1  0
  3  6  1  0
  3 16  1  0
  3 17  1  0
  4  7  1  0
  4 18  1  0
  4 19  1  0
  6 12  1  0
  8  7  1  6
  8  9  2  0
  8 10  1  0
  8 11  1  0
 10 20  1  0
 11 21  1  0
M  END
