
     RDKit          3D

 54 58  0  0  0  0  0  0  0  0999 V2000
   -4.1666    0.6678   -1.4586 C   0  0  0  0  0  0  0  0  0  0  0  0
   -5.0450   -0.3004   -1.8474 C   0  0  0  0  0  0  0  0  0  0  0  0
   -3.8569   -0.3084    0.7489 C   0  0  0  0  0  0  0  0  0  0  0  0
   -5.3306   -2.4215    1.0085 C   0  0  0  0  0  0  0  0  0  0  0  0
    4.2651    0.4294   -2.0954 C   0  0  0  0  0  0  0  0  0  0  0  0
   -4.7802   -1.3069    0.3807 C   0  0  0  0  0  0  0  0  0  0  0  0
   -3.5530    0.6623   -0.1697 C   0  0  0  0  0  0  0  0  0  0  0  0
    3.4332    0.8873   -1.0720 C   0  0  0  0  0  0  0  0  0  0  0  0
   -5.3691   -1.3139   -0.9153 C   0  0  0  0  0  0  0  0  0  0  0  0
    3.7486    0.0786    0.0062 C   0  0  0  0  0  0  0  0  0  0  0  0
    3.0792    0.1796    1.2968 C   0  0  0  0  0  0  0  0  0  0  0  0
   -2.6911    1.8291    0.1912 C   0  0  0  0  0  0  0  0  0  0  0  0
    2.4094    1.9654   -1.0184 C   0  0  0  0  0  0  0  0  0  0  0  0
    2.1331    1.3564    1.3865 C   0  0  0  0  0  0  0  0  0  0  0  0
    0.5158    2.9397    0.2899 C   0  0  0  0  0  0  0  0  0  0  0  0
    0.4530    0.5337   -0.3251 C   0  0  0  0  0  0  0  0  0  0  0  0
   -0.6682    2.6972    1.2160 C   0  0  0  0  0  0  0  0  0  0  0  0
   -0.7378    0.3457    0.6102 C   0  0  0  0  0  0  0  0  0  0  0  0
    1.3779    1.6891    0.0862 C   0  0  1  0  0  0  0  0  0  0  0  0
    4.7549   -3.2076   -0.1190 C   0  0  0  0  0  0  0  0  0  0  0  0
    6.8653   -1.8401    0.1248 C   0  0  0  0  0  0  0  0  0  0  0  0
   -6.1434   -2.9696    0.1053 N   0  0  0  0  0  0  0  0  0  0  0  0
    5.0251   -0.5724   -1.6723 N   0  0  0  0  0  0  0  0  0  0  0  0
   -6.2025   -2.3455   -1.0629 N   0  0  0  0  0  0  0  0  0  0  0  0
    4.7172   -0.7787   -0.4105 N   0  0  0  0  0  0  0  0  0  0  0  0
   -1.4842    1.5877    0.7482 N   0  0  0  0  0  0  0  0  0  0  0  0
    3.2641   -0.5754    2.2316 O   0  0  0  0  0  0  0  0  0  0  0  0
   -3.1252    2.9607    0.0083 O   0  0  0  0  0  0  0  0  0  0  0  0
   -3.9143    1.4606   -2.1510 H   0  0  0  0  0  0  0  0  0  0  0  0
   -5.4874   -0.2910   -2.8348 H   0  0  0  0  0  0  0  0  0  0  0  0
   -3.4124   -0.3064    1.7367 H   0  0  0  0  0  0  0  0  0  0  0  0
   -5.2014   -2.8393    1.9929 H   0  0  0  0  0  0  0  0  0  0  0  0
    4.3421    0.7818   -3.1128 H   0  0  0  0  0  0  0  0  0  0  0  0
    2.8962    2.9268   -0.8180 H   0  0  0  0  0  0  0  0  0  0  0  0
    1.9085    2.0714   -1.9839 H   0  0  0  0  0  0  0  0  0  0  0  0
    1.4558    1.1807    2.2234 H   0  0  0  0  0  0  0  0  0  0  0  0
    2.7416    2.2255    1.6697 H   0  0  0  0  0  0  0  0  0  0  0  0
    0.1399    3.2749   -0.6821 H   0  0  0  0  0  0  0  0  0  0  0  0
    1.1228    3.7543    0.6943 H   0  0  0  0  0  0  0  0  0  0  0  0
    0.9981   -0.4120   -0.3847 H   0  0  0  0  0  0  0  0  0  0  0  0
    0.0701    0.7304   -1.3315 H   0  0  0  0  0  0  0  0  0  0  0  0
   -0.3240    2.4632    2.2275 H   0  0  0  0  0  0  0  0  0  0  0  0
   -1.2803    3.5916    1.2887 H   0  0  0  0  0  0  0  0  0  0  0  0
   -1.3768   -0.4350    0.2096 H   0  0  0  0  0  0  0  0  0  0  0  0
   -0.4146    0.0117    1.6002 H   0  0  0  0  0  0  0  0  0  0  0  0
    5.2075   -4.0211    0.4478 H   0  0  0  0  0  0  0  0  0  0  0  0
    3.6791   -3.2330    0.0565 H   0  0  0  0  0  0  0  0  0  0  0  0
    4.9374   -3.3902   -1.1786 H   0  0  0  0  0  0  0  0  0  0  0  0
    7.1484   -2.0406   -0.9077 H   0  0  0  0  0  0  0  0  0  0  0  0
    7.2803   -0.8755    0.4172 H   0  0  0  0  0  0  0  0  0  0  0  0
    7.3199   -2.6055    0.7534 H   0  0  0  0  0  0  0  0  0  0  0  0
    5.1325   -1.7122    1.3651 H   0  0  0  0  0  0  0  0  0  0  0  0
   -6.6967   -3.8028    0.2424 H   0  0  0  0  0  0  0  0  0  0  0  0
    5.3573   -1.8784    0.3147 C   0  0  1  0  0  0  0  0  0  0  0  0
 20 54  1  0
 21 54  1  0
 54 25  1  0
 25 23  1  0
 25 10  1  0
 27 11  2  0
 23  5  2  0
 10 11  1  0
 10  8  2  0
 11 14  1  0
  5  8  1  0
  8 13  1  0
 19 14  1  1
 13 19  1  0
 19 16  1  0
 19 15  1  0
 16 18  1  0
 15 17  1  0
 18 26  1  0
 17 26  1  0
 26 12  1  0
 12  7  1  0
 12 28  2  0
  7  3  2  0
  7  1  1  0
  3  6  1  0
  1  2  2  0
  6  4  2  0
  6  9  1  0
  4 22  1  0
  2  9  1  0
  9 24  2  0
 22 24  1  0
  1 29  1  0
  2 30  1  0
  3 31  1  0
  4 32  1  0
  5 33  1  0
 13 34  1  0
 13 35  1  0
 14 36  1  0
 14 37  1  0
 15 38  1  0
 15 39  1  0
 16 40  1  0
 16 41  1  0
 17 42  1  0
 17 43  1  0
 18 44  1  0
 18 45  1  0
 20 46  1  0
 20 47  1  0
 20 48  1  0
 21 49  1  0
 21 50  1  0
 21 51  1  0
 54 52  1  1
 22 53  1  0
M  END
