
     RDKit          3D

 17 17  0  0  0  0  0  0  0  0999 V2000
    2.8722   -0.0995    0.0135 C   0  0  0  0  0  0  0  0  0  0  0  0
    3.4428    1.0954    0.0315 O   0  0  0  0  0  0  0  0  0  0  0  0
    3.4890   -1.1338    0.0158 O   0  0  0  0  0  0  0  0  0  0  0  0
    1.3855   -0.0266   -0.0066 C   0  0  0  0  0  0  0  0  0  0  0  0
    0.7044    1.1874   -0.0124 C   0  0  0  0  0  0  0  0  0  0  0  0
   -0.6789    1.2112   -0.0253 C   0  0  0  0  0  0  0  0  0  0  0  0
   -1.3677    0.0095   -0.0324 C   0  0  0  0  0  0  0  0  0  0  0  0
   -0.7109   -1.2109   -0.0281 C   0  0  0  0  0  0  0  0  0  0  0  0
    0.6711   -1.2207   -0.0155 C   0  0  0  0  0  0  0  0  0  0  0  0
   -2.8278    0.0291   -0.0411 N   0  0  0  0  0  0  0  0  0  0  0  0
   -3.4042   -1.0311   -0.0508 O   0  0  0  0  0  0  0  0  0  0  0  0
   -3.3773    1.1030   -0.0364 O   0  0  0  0  0  0  0  0  0  0  0  0
    4.4034    0.9946    0.0521 H   0  0  0  0  0  0  0  0  0  0  0  0
    1.2377    2.1264   -0.0062 H   0  0  0  0  0  0  0  0  0  0  0  0
   -1.1989    2.1570   -0.0284 H   0  0  0  0  0  0  0  0  0  0  0  0
   -1.2564   -2.1423   -0.0325 H   0  0  0  0  0  0  0  0  0  0  0  0
    1.1928   -2.1668   -0.0114 H   0  0  0  0  0  0  0  0  0  0  0  0
  1  2  1  0
  1  3  2  0
  1  4  1  0
  2 13  1  0
  4  5  2  0
  4  9  1  0
  5  6  1  0
  5 14  1  0
  6  7  2  0
  6 15  1  0
  7  8  1  0
  7 10  1  0
  8  9  2  0
  8 16  1  0
  9 17  1  0
 10 11  1  0
 10 12  2  0
M  CHG  2  10   1  11  -1
M  END
