
     RDKit          3D

 33 34  0  0  0  0  0  0  0  0999 V2000
   -4.8160    1.2243    0.0398 C   0  0  0  0  0  0  0  0  0  0  0  0
   -4.4367   -0.1153    0.0133 C   0  0  0  0  0  0  0  0  0  0  0  0
   -3.0857   -0.4489    0.0073 C   0  0  0  0  0  0  0  0  0  0  0  0
   -2.0946    0.5311    0.0267 C   0  0  0  0  0  0  0  0  0  0  0  0
   -2.4961    1.8717    0.0543 C   0  0  0  0  0  0  0  0  0  0  0  0
   -3.8375    2.2095    0.0604 C   0  0  0  0  0  0  0  0  0  0  0  0
   -0.6956    0.1078    0.0177 C   0  0  0  0  0  0  0  0  0  0  0  0
    0.3748    0.9132    0.0227 C   0  0  0  0  0  0  0  0  0  0  0  0
    1.7731    0.4904    0.0151 C   0  0  0  0  0  0  0  0  0  0  0  0
    2.7693    1.4707    0.0214 C   0  0  0  0  0  0  0  0  0  0  0  0
    4.1117    1.1273    0.0159 C   0  0  0  0  0  0  0  0  0  0  0  0
    4.5207   -0.2076    0.0039 C   0  0  0  0  0  0  0  0  0  0  0  0
    3.5173   -1.1842   -0.0030 C   0  0  0  0  0  0  0  0  0  0  0  0
    2.1755   -0.8499    0.0024 C   0  0  0  0  0  0  0  0  0  0  0  0
   -5.4290   -1.2200   -0.0085 C   0  0  0  0  0  0  0  0  0  0  0  0
    6.9509    0.4166    0.0074 O   0  0  0  0  0  0  0  0  0  0  0  0
    6.3562   -1.9199   -0.0089 O   0  0  0  0  0  0  0  0  0  0  0  0
   -6.6821   -0.7902   -0.0054 O   0  0  0  0  0  0  0  0  0  0  0  0
   -5.1309   -2.3903   -0.0278 O   0  0  0  0  0  0  0  0  0  0  0  0
    6.0407   -0.5957    0.0003 B   0  0  0  0  0  0  0  0  0  0  0  0
   -5.8584    1.5104    0.0454 H   0  0  0  0  0  0  0  0  0  0  0  0
   -2.7948   -1.4919   -0.0138 H   0  0  0  0  0  0  0  0  0  0  0  0
   -1.7585    2.6633    0.0719 H   0  0  0  0  0  0  0  0  0  0  0  0
   -4.1269    3.2516    0.0826 H   0  0  0  0  0  0  0  0  0  0  0  0
   -0.5538   -0.9682    0.0053 H   0  0  0  0  0  0  0  0  0  0  0  0
    0.2324    1.9894    0.0323 H   0  0  0  0  0  0  0  0  0  0  0  0
    2.4852    2.5165    0.0312 H   0  0  0  0  0  0  0  0  0  0  0  0
    4.8486    1.9206    0.0213 H   0  0  0  0  0  0  0  0  0  0  0  0
    3.7852   -2.2335   -0.0127 H   0  0  0  0  0  0  0  0  0  0  0  0
    1.4386   -1.6427   -0.0033 H   0  0  0  0  0  0  0  0  0  0  0  0
    7.8757    0.1513    0.0062 H   0  0  0  0  0  0  0  0  0  0  0  0
    7.2960   -2.1270   -0.0087 H   0  0  0  0  0  0  0  0  0  0  0  0
   -7.2912   -1.5434   -0.0219 H   0  0  0  0  0  0  0  0  0  0  0  0
 19 15  2  0
 15 18  1  0
 15  2  1  0
  1  2  2  0
  1  6  1  0
  2  3  1  0
  6  5  2  0
  3  4  2  0
  5  4  1  0
  4  7  1  0
  7  8  2  0
  8  9  1  0
  9 10  2  0
  9 14  1  0
 10 11  1  0
 14 13  2  0
 11 12  2  0
 13 12  1  0
 12 20  1  0
 20 16  1  0
 20 17  1  0
  1 21  1  0
  3 22  1  0
  5 23  1  0
  6 24  1  0
  7 25  1  0
  8 26  1  0
 10 27  1  0
 11 28  1  0
 13 29  1  0
 14 30  1  0
 16 31  1  0
 17 32  1  0
 18 33  1  0
M  END
