
     RDKit          3D

 47 51  0  0  0  0  0  0  0  0999 V2000
   -2.7759   -1.5580    1.8256 N   0  0  0  0  0  0  0  0  0  0  0  0
   -3.9386   -1.4483    1.1321 C   0  0  0  0  0  0  0  0  0  0  0  0
   -4.9301   -2.2398    1.5147 N   0  0  0  0  0  0  0  0  0  0  0  0
   -6.1074   -2.1876    0.8839 C   0  0  0  0  0  0  0  0  0  0  0  0
   -6.3977   -1.3365   -0.1547 C   0  0  0  0  0  0  0  0  0  0  0  0
   -5.3516   -0.5075   -0.5662 C   0  0  0  0  0  0  0  0  0  0  0  0
   -5.4168    0.6835   -1.8111 S   0  0  0  0  0  0  0  0  0  0  0  0
   -3.7666    1.1098   -1.5444 C   0  0  0  0  0  0  0  0  0  0  0  0
   -3.1697    0.3891   -0.5629 C   0  0  0  0  0  0  0  0  0  0  0  0
   -1.7447    0.5786   -0.2290 C   0  0  0  0  0  0  0  0  0  0  0  0
   -0.8313   -0.4630   -0.3686 C   0  0  0  0  0  0  0  0  0  0  0  0
    0.5212   -0.2976   -0.0953 C   0  0  0  0  0  0  0  0  0  0  0  0
    0.9725    0.9520    0.3145 C   0  0  0  0  0  0  0  0  0  0  0  0
    2.2522    1.3939    0.6805 N   0  0  0  0  0  0  0  0  0  0  0  0
    2.1575    2.7200    1.3128 C   0  0  0  0  0  0  0  0  0  0  0  0
    0.7743    3.2398    0.9146 C   0  0  0  0  0  0  0  0  0  0  0  0
    0.0639    2.0016    0.4618 C   0  0  0  0  0  0  0  0  0  0  0  0
   -1.2762    1.8257    0.1930 C   0  0  0  0  0  0  0  0  0  0  0  0
    3.4730    0.8013    0.5804 C   0  0  0  0  0  0  0  0  0  0  0  0
    4.4520    1.3378    1.0693 O   0  0  0  0  0  0  0  0  0  0  0  0
    3.5831   -0.5139   -0.1641 C   0  0  0  0  0  0  0  0  0  0  0  0
    5.0122   -0.8742   -0.4449 C   0  0  0  0  0  0  0  0  0  0  0  0
    5.7214   -1.6985    0.4222 C   0  0  0  0  0  0  0  0  0  0  0  0
    7.0461   -2.0259    0.1645 C   0  0  0  0  0  0  0  0  0  0  0  0
    7.6785   -1.5292   -0.9676 C   0  0  0  0  0  0  0  0  0  0  0  0
    6.9771   -0.7066   -1.8401 C   0  0  0  0  0  0  0  0  0  0  0  0
    5.6526   -0.3835   -1.5790 C   0  0  0  0  0  0  0  0  0  0  0  0
   -4.0884   -0.5532    0.0351 C   0  0  0  0  0  0  0  0  0  0  0  0
   -2.1147   -0.8023    1.8023 H   0  0  0  0  0  0  0  0  0  0  0  0
   -2.8380   -2.0379    2.7088 H   0  0  0  0  0  0  0  0  0  0  0  0
   -6.8679   -2.8679    1.2508 H   0  0  0  0  0  0  0  0  0  0  0  0
   -7.3749   -1.3134   -0.6149 H   0  0  0  0  0  0  0  0  0  0  0  0
   -3.3032    1.8651   -2.1617 H   0  0  0  0  0  0  0  0  0  0  0  0
   -1.1761   -1.4354   -0.6957 H   0  0  0  0  0  0  0  0  0  0  0  0
    1.1682   -1.1526   -0.2006 H   0  0  0  0  0  0  0  0  0  0  0  0
    2.2531    2.6177    2.3955 H   0  0  0  0  0  0  0  0  0  0  0  0
    0.2722    3.7351    1.7449 H   0  0  0  0  0  0  0  0  0  0  0  0
   -1.9690    2.6488    0.3196 H   0  0  0  0  0  0  0  0  0  0  0  0
    3.1169   -1.2947    0.4432 H   0  0  0  0  0  0  0  0  0  0  0  0
    3.0140   -0.4620   -1.0952 H   0  0  0  0  0  0  0  0  0  0  0  0
    5.2327   -2.0923    1.3056 H   0  0  0  0  0  0  0  0  0  0  0  0
    7.5839   -2.6710    0.8473 H   0  0  0  0  0  0  0  0  0  0  0  0
    8.7101   -1.7852   -1.1713 H   0  0  0  0  0  0  0  0  0  0  0  0
    7.4610   -0.3172   -2.7265 H   0  0  0  0  0  0  0  0  0  0  0  0
    5.1103    0.2549   -2.2667 H   0  0  0  0  0  0  0  0  0  0  0  0
    2.9621    3.3618    0.9629 H   0  0  0  0  0  0  0  0  0  0  0  0
    0.8426    3.9629    0.0986 H   0  0  0  0  0  0  0  0  0  0  0  0
  1  2  1  0
  1 29  1  0
  1 30  1  0
  2 28  2  0
  2  3  1  0
  3  4  2  0
  4  5  1  0
  4 31  1  0
  5 32  1  0
  6  5  2  0
  7  6  1  0
  8  7  1  0
  8 33  1  0
  9  8  2  0
  9 28  1  0
 10  9  1  0
 11 10  2  0
 11 34  1  0
 12 11  1  0
 12 35  1  0
 13 12  2  0
 13 17  1  0
 14 13  1  0
 15 14  1  0
 15 16  1  0
 15 36  1  0
 16 17  1  0
 16 37  1  0
 17 18  2  0
 18 10  1  0
 18 38  1  0
 19 14  1  0
 19 20  2  0
 21 19  1  0
 21 39  1  0
 21 40  1  0
 22 21  1  0
 23 22  2  0
 23 41  1  0
 24 23  1  0
 24 42  1  0
 25 24  2  0
 25 26  1  0
 25 43  1  0
 26 27  2  0
 26 44  1  0
 27 22  1  0
 27 45  1  0
 28  6  1  0
 15 46  1  0
 16 47  1  0
M  END
