
     RDKit          3D

 48 51  0  0  0  0  0  0  0  0999 V2000
    4.6163    0.0783   -0.1809 N   0  0  0  0  0  0  0  0  0  0  0  0
    4.5273    1.2580   -0.8521 N   0  0  0  0  0  0  0  0  0  0  0  0
    3.2641    1.5746   -0.8181 C   0  0  0  0  0  0  0  0  0  0  0  0
    2.4862    0.6120   -0.1312 C   0  0  0  0  0  0  0  0  0  0  0  0
    3.4164   -0.3589    0.2579 C   0  0  0  0  0  0  0  0  0  0  0  0
    3.2239   -1.5452    0.8609 N   0  0  0  0  0  0  0  0  0  0  0  0
    1.0648    0.5418    0.1471 C   0  0  0  0  0  0  0  0  0  0  0  0
    0.5652   -0.3989    0.7554 O   0  0  0  0  0  0  0  0  0  0  0  0
    0.3189    1.5917   -0.3061 N   0  0  0  0  0  0  0  0  0  0  0  0
   -1.0616    1.7484   -0.1134 C   0  0  0  0  0  0  0  0  0  0  0  0
   -1.5472    3.0008    0.2881 C   0  0  0  0  0  0  0  0  0  0  0  0
   -2.9200    3.1532    0.4465 C   0  0  0  0  0  0  0  0  0  0  0  0
   -3.7971    2.1013    0.2428 C   0  0  0  0  0  0  0  0  0  0  0  0
   -3.3058    0.8607   -0.1539 C   0  0  0  0  0  0  0  0  0  0  0  0
   -1.9383    0.6984   -0.3492 C   0  0  0  0  0  0  0  0  0  0  0  0
   -4.1824   -0.3074   -0.4466 C   0  0  0  0  0  0  0  0  0  0  0  0
   -3.8324   -1.2064   -1.1864 O   0  0  0  0  0  0  0  0  0  0  0  0
   -5.3948   -0.2997    0.1770 N   0  0  0  0  0  0  0  0  0  0  0  0
   -6.3872   -1.2421    0.0197 C   0  0  0  0  0  0  0  0  0  0  0  0
   -7.4707   -1.1170    0.7383 N   0  0  0  0  0  0  0  0  0  0  0  0
   -8.2763   -2.1549    0.3838 O   0  0  0  0  0  0  0  0  0  0  0  0
   -7.6691   -2.8903   -0.5418 C   0  0  0  0  0  0  0  0  0  0  0  0
   -6.4542   -2.3780   -0.8333 C   0  0  0  0  0  0  0  0  0  0  0  0
   -0.6143    4.1459    0.5383 C   0  0  0  0  0  0  0  0  0  0  0  0
    5.8668   -0.5642   -0.0474 C   0  0  0  0  0  0  0  0  0  0  0  0
    6.6135   -0.8467   -1.1847 C   0  0  0  0  0  0  0  0  0  0  0  0
    7.8443   -1.4712   -1.0540 C   0  0  0  0  0  0  0  0  0  0  0  0
    8.3209   -1.8264    0.2021 C   0  0  0  0  0  0  0  0  0  0  0  0
    7.5694   -1.5401    1.3331 C   0  0  0  0  0  0  0  0  0  0  0  0
    6.3445   -0.8976    1.2139 C   0  0  0  0  0  0  0  0  0  0  0  0
    2.9376    2.4908   -1.2893 H   0  0  0  0  0  0  0  0  0  0  0  0
    4.0002   -2.0464    1.2580 H   0  0  0  0  0  0  0  0  0  0  0  0
    2.3307   -1.6804    1.3047 H   0  0  0  0  0  0  0  0  0  0  0  0
    0.8057    2.3776   -0.7062 H   0  0  0  0  0  0  0  0  0  0  0  0
   -3.3109    4.1171    0.7464 H   0  0  0  0  0  0  0  0  0  0  0  0
   -4.8569    2.2809    0.3691 H   0  0  0  0  0  0  0  0  0  0  0  0
   -1.5606   -0.2517   -0.6965 H   0  0  0  0  0  0  0  0  0  0  0  0
   -5.5884    0.4163    0.8615 H   0  0  0  0  0  0  0  0  0  0  0  0
   -8.2042   -3.7508   -0.9123 H   0  0  0  0  0  0  0  0  0  0  0  0
   -5.7319   -2.7500   -1.5341 H   0  0  0  0  0  0  0  0  0  0  0  0
   -0.1187    4.4748   -0.3787 H   0  0  0  0  0  0  0  0  0  0  0  0
   -1.1504    5.0037    0.9391 H   0  0  0  0  0  0  0  0  0  0  0  0
    0.1688    3.8773    1.2495 H   0  0  0  0  0  0  0  0  0  0  0  0
    6.2323   -0.5808   -2.1616 H   0  0  0  0  0  0  0  0  0  0  0  0
    8.4283   -1.6886   -1.9384 H   0  0  0  0  0  0  0  0  0  0  0  0
    9.2778   -2.3222    0.2989 H   0  0  0  0  0  0  0  0  0  0  0  0
    7.9413   -1.8007    2.3148 H   0  0  0  0  0  0  0  0  0  0  0  0
    5.7775   -0.6424    2.1007 H   0  0  0  0  0  0  0  0  0  0  0  0
 25  1  1  0
  1  5  1  0
  1  2  1  0
  2  3  2  0
  4  3  1  0
  3 31  1  0
  5  4  2  0
  4  7  1  0
  6  5  1  0
  6 32  1  0
  6 33  1  0
  8  7  2  0
  7  9  1  0
  9 10  1  0
  9 34  1  0
 10 11  2  0
 10 15  1  0
 24 11  1  0
 11 12  1  0
 12 13  2  0
 12 35  1  0
 14 13  1  0
 13 36  1  0
 15 14  2  0
 14 16  1  0
 15 37  1  0
 17 16  2  0
 16 18  1  0
 18 19  1  0
 18 38  1  0
 19 23  1  0
 19 20  2  0
 20 21  1  0
 22 21  1  0
 23 22  2  0
 22 39  1  0
 23 40  1  0
 24 41  1  0
 24 42  1  0
 24 43  1  0
 30 25  1  0
 26 25  2  0
 27 26  1  0
 26 44  1  0
 28 27  2  0
 27 45  1  0
 28 29  1  0
 28 46  1  0
 29 30  2  0
 29 47  1  0
 30 48  1  0
M  END
