
     RDKit          3D

 21 23  0  0  0  0  0  0  0  0999 V2000
   -2.9764   -1.4815    0.0095 C   0  0  0  0  0  0  0  0  0  0  0  0
   -1.6123   -1.7074    0.0133 C   0  0  0  0  0  0  0  0  0  0  0  0
    1.2334    0.6819    0.0046 C   0  0  0  0  0  0  0  0  0  0  0  0
   -0.0156    1.9007   -0.0039 S   0  0  0  0  0  0  0  0  0  0  0  0
   -0.7347   -0.6226    0.0090 C   0  0  0  0  0  0  0  0  0  0  0  0
   -3.4822   -0.1791    0.0020 C   0  0  0  0  0  0  0  0  0  0  0  0
   -2.6306    0.9119   -0.0024 C   0  0  0  0  0  0  0  0  0  0  0  0
    2.6028    0.9214    0.0049 C   0  0  0  0  0  0  0  0  0  0  0  0
    3.4584   -0.1666    0.0125 C   0  0  0  0  0  0  0  0  0  0  0  0
    2.9572   -1.4707    0.0196 C   0  0  0  0  0  0  0  0  0  0  0  0
    1.5939   -1.7017    0.0190 C   0  0  0  0  0  0  0  0  0  0  0  0
   -1.2603    0.6774    0.0009 C   0  0  0  0  0  0  0  0  0  0  0  0
    0.7125   -0.6200    0.0114 C   0  0  0  0  0  0  0  0  0  0  0  0
   -3.6598   -2.3199    0.0124 H   0  0  0  0  0  0  0  0  0  0  0  0
   -1.2310   -2.7210    0.0188 H   0  0  0  0  0  0  0  0  0  0  0  0
   -4.5523   -0.0192   -0.0023 H   0  0  0  0  0  0  0  0  0  0  0  0
   -3.0234    1.9203   -0.0062 H   0  0  0  0  0  0  0  0  0  0  0  0
    2.9919    1.9312   -0.0012 H   0  0  0  0  0  0  0  0  0  0  0  0
    4.5279   -0.0029    0.0130 H   0  0  0  0  0  0  0  0  0  0  0  0
    3.6435   -2.3068    0.0257 H   0  0  0  0  0  0  0  0  0  0  0  0
    1.2163   -2.7167    0.0251 H   0  0  0  0  0  0  0  0  0  0  0  0
  4  3  1  0
  4 12  1  0
  8  3  1  0
  8  9  2  0
  3 13  2  0
  9 10  1  0
 12  7  2  0
 12  5  1  0
  7  6  1  0
 13  5  1  0
 13 11  1  0
 10 11  2  0
  5  2  2  0
  6  1  2  0
  2  1  1  0
  1 14  1  0
  2 15  1  0
  6 16  1  0
  7 17  1  0
  8 18  1  0
  9 19  1  0
 10 20  1  0
 11 21  1  0
M  END
