
     RDKit          3D

 21 20  0  0  0  0  0  0  0  0999 V2000
    1.6979   -1.3451    0.6163 N   0  0  0  0  0  0  0  0  0  0  0  0
    1.4393   -0.1797   -0.2209 C   0  0  2  0  0  0  0  0  0  0  0  0
    2.5583    0.8360   -0.0181 C   0  0  0  0  0  0  0  0  0  0  0  0
    3.8459    0.2726   -0.3867 N   0  0  0  0  0  0  0  0  0  0  0  0
    0.0784    0.4857    0.0078 C   0  0  0  0  0  0  0  0  0  0  0  0
   -1.0828   -0.4663   -0.2196 C   0  0  0  0  0  0  0  0  0  0  0  0
   -2.4324    0.1710   -0.0420 C   0  0  0  0  0  0  0  0  0  0  0  0
   -2.6297    1.2889    0.3653 O   0  0  0  0  0  0  0  0  0  0  0  0
   -3.4170   -0.6571   -0.3818 O   0  0  0  0  0  0  0  0  0  0  0  0
    1.4728   -1.1322    1.5822 H   0  0  0  0  0  0  0  0  0  0  0  0
    1.0996   -2.1164    0.3499 H   0  0  0  0  0  0  0  0  0  0  0  0
    1.4879   -0.5190   -1.2620 H   0  0  0  0  0  0  0  0  0  0  0  0
    2.5137    1.1937    1.0234 H   0  0  0  0  0  0  0  0  0  0  0  0
    2.3603    1.7062   -0.6493 H   0  0  0  0  0  0  0  0  0  0  0  0
    4.5807    0.9255   -0.1469 H   0  0  0  0  0  0  0  0  0  0  0  0
    4.0035   -0.5494    0.1830 H   0  0  0  0  0  0  0  0  0  0  0  0
    0.0406    0.8865    1.0257 H   0  0  0  0  0  0  0  0  0  0  0  0
   -0.0117    1.3404   -0.6678 H   0  0  0  0  0  0  0  0  0  0  0  0
   -1.0360   -0.9026   -1.2224 H   0  0  0  0  0  0  0  0  0  0  0  0
   -1.0346   -1.3147    0.4713 H   0  0  0  0  0  0  0  0  0  0  0  0
   -4.2734   -0.2253   -0.2467 H   0  0  0  0  0  0  0  0  0  0  0  0
  1  2  1  0
  1 10  1  0
  1 11  1  0
  2  3  1  0
  2  5  1  0
  2 12  1  6
  3  4  1  0
  3 13  1  0
  3 14  1  0
  4 15  1  0
  4 16  1  0
  5  6  1  0
  5 17  1  0
  5 18  1  0
  6  7  1  0
  6 19  1  0
  6 20  1  0
  7  8  2  0
  7  9  1  0
  9 21  1  0
M  END
