
     RDKit          3D

 33 34  0  0  0  0  0  0  0  0999 V2000
   -2.3684   -1.6421   -0.4888 C   0  0  0  0  0  0  0  0  0  0  0  0
   -0.0300   -2.1813    0.0084 C   0  0  0  0  0  0  0  0  0  0  0  0
   -1.4433   -2.7953   -0.0961 C   0  0  0  0  0  0  0  0  0  0  0  0
    3.9165   -0.1785   -1.4552 C   0  0  0  0  0  0  0  0  0  0  0  0
    4.8453    0.4105   -0.6089 C   0  0  0  0  0  0  0  0  0  0  0  0
    4.4408    0.9065    0.6255 C   0  0  0  0  0  0  0  0  0  0  0  0
    3.1142    0.8129    1.0092 C   0  0  0  0  0  0  0  0  0  0  0  0
    2.1704    0.2185    0.1675 C   0  0  0  0  0  0  0  0  0  0  0  0
    2.5874   -0.2749   -1.0692 C   0  0  0  0  0  0  0  0  0  0  0  0
    0.7520    0.1370    0.6234 C   0  0  0  0  0  0  0  0  0  0  0  0
   -2.2098    0.9179   -0.3985 C   0  0  0  0  0  0  0  0  0  0  0  0
   -3.6354    1.2210   -0.0265 C   0  0  0  0  0  0  0  0  0  0  0  0
   -0.2297   -0.6574   -0.2012 C   0  0  2  0  0  0  0  0  0  0  0  0
   -1.7042   -0.4133    0.1292 C   0  0  2  0  0  0  0  0  0  0  0  0
   -4.1502    2.1862   -0.7824 O   0  0  0  0  0  0  0  0  0  0  0  0
    0.4159    0.6701    1.6614 O   0  0  0  0  0  0  0  0  0  0  0  0
   -4.2495    0.6904    0.8658 O   0  0  0  0  0  0  0  0  0  0  0  0
   -2.3994   -1.5299   -1.5775 H   0  0  0  0  0  0  0  0  0  0  0  0
   -3.3935   -1.7914   -0.1493 H   0  0  0  0  0  0  0  0  0  0  0  0
    0.4048   -2.3859    0.9886 H   0  0  0  0  0  0  0  0  0  0  0  0
    0.6558   -2.5947   -0.7305 H   0  0  0  0  0  0  0  0  0  0  0  0
   -1.7448   -3.2028    0.8701 H   0  0  0  0  0  0  0  0  0  0  0  0
   -1.4806   -3.6158   -0.8126 H   0  0  0  0  0  0  0  0  0  0  0  0
    5.8826    0.4829   -0.9089 H   0  0  0  0  0  0  0  0  0  0  0  0
    5.1625    1.3654    1.2884 H   0  0  0  0  0  0  0  0  0  0  0  0
    2.8071    1.2004    1.9714 H   0  0  0  0  0  0  0  0  0  0  0  0
    1.8829   -0.7335   -1.7500 H   0  0  0  0  0  0  0  0  0  0  0  0
   -2.0983    0.9686   -1.4855 H   0  0  0  0  0  0  0  0  0  0  0  0
   -1.6090    1.7429    0.0008 H   0  0  0  0  0  0  0  0  0  0  0  0
   -0.0808   -0.4306   -1.2621 H   0  0  0  0  0  0  0  0  0  0  0  0
   -1.8347   -0.4495    1.2147 H   0  0  0  0  0  0  0  0  0  0  0  0
   -5.0514    2.3893   -0.4902 H   0  0  0  0  0  0  0  0  0  0  0  0
    4.2247   -0.5644   -2.4174 H   0  0  0  0  0  0  0  0  0  0  0  0
 16 10  2  0
 17 12  2  0
 10 13  1  0
 10  8  1  0
  9  8  1  0
  9  4  2  0
 12 11  1  0
 12 15  1  0
 13 14  1  0
 13  2  1  0
 11 14  1  0
  8  7  2  0
  4  5  1  0
 14  1  1  0
  2  3  1  0
  1  3  1  0
  7  6  1  0
  5  6  2  0
  1 18  1  0
  1 19  1  0
  2 20  1  0
  2 21  1  0
  3 22  1  0
  3 23  1  0
  4 33  1  0
  5 24  1  0
  6 25  1  0
  7 26  1  0
  9 27  1  0
 11 28  1  0
 11 29  1  0
 13 30  1  6
 14 31  1  1
 15 32  1  0
M  END
