
     RDKit          3D

 43 45  0  0  0  0  0  0  0  0999 V2000
    2.0601    2.5071    0.5687 O   0  0  0  0  0  0  0  0  0  0  0  0
    2.9440   -0.1633    1.5893 O   0  0  0  0  0  0  0  0  0  0  0  0
    3.9222    3.4853    1.3270 O   0  0  0  0  0  0  0  0  0  0  0  0
    5.9685    1.7297   -1.8792 C   0  0  0  0  0  0  0  0  0  0  0  0
    5.7356    0.3796   -2.0815 C   0  0  0  0  0  0  0  0  0  0  0  0
   -2.2595   -2.6819   -2.1007 C   0  0  0  0  0  0  0  0  0  0  0  0
   -1.4089   -3.7381   -1.8217 C   0  0  0  0  0  0  0  0  0  0  0  0
   -1.9877   -1.4165   -1.6092 C   0  0  0  0  0  0  0  0  0  0  0  0
    5.1893    2.4381   -0.9742 C   0  0  0  0  0  0  0  0  0  0  0  0
    4.7251   -0.2623   -1.3772 C   0  0  0  0  0  0  0  0  0  0  0  0
   -3.7971    2.7017   -0.2380 C   0  0  0  0  0  0  0  0  0  0  0  0
   -4.1490    1.0032    1.4456 C   0  0  0  0  0  0  0  0  0  0  0  0
   -2.5617    2.1442   -0.5246 C   0  0  0  0  0  0  0  0  0  0  0  0
   -2.9018    0.4747    1.1576 C   0  0  0  0  0  0  0  0  0  0  0  0
    1.1881   -2.0040    0.3876 C   0  0  0  0  0  0  0  0  0  0  0  0
    2.1350   -1.1373   -0.2846 N   0  0  0  0  0  0  0  0  0  0  0  0
    3.2593    2.6111    0.5835 C   0  0  0  0  0  0  0  0  0  0  0  0
    2.9511   -0.3008    0.3770 C   0  0  0  0  0  0  0  0  0  0  0  0
   -4.5815    2.1172    0.7424 C   0  0  0  0  0  0  0  0  0  0  0  0
   -0.2901   -3.5135   -1.0342 C   0  0  0  0  0  0  0  0  0  0  0  0
   -2.0963    1.0260    0.1595 C   0  0  0  0  0  0  0  0  0  0  0  0
   -0.8708   -1.2104   -0.8101 C   0  0  0  0  0  0  0  0  0  0  0  0
    4.1680    1.8035   -0.2772 C   0  0  0  0  0  0  0  0  0  0  0  0
    3.9326    0.4404   -0.4784 C   0  0  0  0  0  0  0  0  0  0  0  0
    0.0015   -2.2609   -0.4968 C   0  0  0  0  0  0  0  0  0  0  0  0
    3.3016    4.0391    1.8250 H   0  0  0  0  0  0  0  0  0  0  0  0
    6.7551    2.2369   -2.4212 H   0  0  0  0  0  0  0  0  0  0  0  0
    6.3442   -0.1825   -2.7770 H   0  0  0  0  0  0  0  0  0  0  0  0
   -3.1324   -2.8452   -2.7182 H   0  0  0  0  0  0  0  0  0  0  0  0
   -1.6096   -4.7249   -2.2152 H   0  0  0  0  0  0  0  0  0  0  0  0
   -2.6499   -0.5952   -1.8487 H   0  0  0  0  0  0  0  0  0  0  0  0
    5.3699    3.4952   -0.8323 H   0  0  0  0  0  0  0  0  0  0  0  0
    4.5763   -1.3258   -1.5155 H   0  0  0  0  0  0  0  0  0  0  0  0
   -4.1429    3.5703   -0.7803 H   0  0  0  0  0  0  0  0  0  0  0  0
   -4.7676    0.5594    2.2131 H   0  0  0  0  0  0  0  0  0  0  0  0
   -1.9487    2.5816   -1.3011 H   0  0  0  0  0  0  0  0  0  0  0  0
    1.6653   -2.9351    0.6920 H   0  0  0  0  0  0  0  0  0  0  0  0
    0.8513   -1.5042    1.2980 H   0  0  0  0  0  0  0  0  0  0  0  0
    2.2246   -1.2187   -1.2855 H   0  0  0  0  0  0  0  0  0  0  0  0
    0.7491   -4.8702   -0.7249 Cl  0  0  0  0  0  0  0  0  0  0  0  0
   -0.4815    0.4120   -0.1962 S   0  0  0  0  0  0  0  0  0  0  0  0
   -6.1326    2.7841    1.1048 Cl  0  0  0  0  0  0  0  0  0  0  0  0
   -2.3627   -0.8897    2.0596 Cl  0  0  0  0  0  0  0  0  0  0  0  0
  1 17  2  0
  2 18  2  0
  3 17  1  0
  3 26  1  0
 19 42  1  0
 20 40  1  0
  5  4  2  0
  9  4  1  0
  4 27  1  0
 14 43  1  0
 10  5  1  0
  5 28  1  0
  6  7  2  0
  6  8  1  0
  6 29  1  0
  7 20  1  0
  7 30  1  0
  8 22  2  0
  8 31  1  0
 23  9  2  0
  9 32  1  0
 24 10  2  0
 10 33  1  0
 13 11  2  0
 11 19  1  0
 11 34  1  0
 14 12  1  0
 19 12  2  0
 12 35  1  0
 13 21  1  0
 13 36  1  0
 21 14  2  0
 25 15  1  0
 15 16  1  0
 15 37  1  0
 15 38  1  0
 16 18  1  0
 16 39  1  0
 22 41  1  0
 41 21  1  0
 17 23  1  0
 18 24  1  0
 20 25  2  0
 22 25  1  0
 24 23  1  0
M  END
