
     RDKit          3D

 31 33  0  0  0  0  0  0  0  0999 V2000
    4.5134    1.8286   -1.2859 F   0  0  0  0  0  0  0  0  0  0  0  0
    3.5246    1.1551   -0.6987 C   0  0  0  0  0  0  0  0  0  0  0  0
    3.3455   -0.1778   -1.0237 C   0  0  0  0  0  0  0  0  0  0  0  0
    2.3235   -0.8787   -0.4100 C   0  0  0  0  0  0  0  0  0  0  0  0
    2.7242    1.8126    0.2177 C   0  0  0  0  0  0  0  0  0  0  0  0
    1.7021    1.1098    0.8315 C   0  0  0  0  0  0  0  0  0  0  0  0
    1.5067   -0.2277    0.5074 C   0  0  0  0  0  0  0  0  0  0  0  0
    0.1960   -1.1196    1.2695 S   0  0  1  0  0  0  0  0  0  0  0  0
    0.4945   -2.5318    1.2442 O   0  0  0  0  0  0  0  0  0  0  0  0
   -0.1745   -0.4651    2.5035 O   0  0  0  0  0  0  0  0  0  0  0  0
   -1.1082   -0.8792    0.2114 N   0  0  0  0  0  0  0  0  0  0  0  0
   -1.4619   -1.6465   -0.9042 C   0  0  0  0  0  0  0  0  0  0  0  0
   -0.8919   -2.9729   -1.2490 C   0  0  0  0  0  0  0  0  0  0  0  0
   -2.3789   -1.0667   -1.6043 N   0  0  0  0  0  0  0  0  0  0  0  0
   -2.6590    0.1328   -0.9880 C   0  0  0  0  0  0  0  0  0  0  0  0
   -1.8749    0.2889    0.1591 C   0  0  0  0  0  0  0  0  0  0  0  0
   -1.9691    1.4175    0.9636 C   0  0  0  0  0  0  0  0  0  0  0  0
   -2.8734    2.3916    0.5685 C   0  0  0  0  0  0  0  0  0  0  0  0
   -3.6637    2.2460   -0.5758 C   0  0  0  0  0  0  0  0  0  0  0  0
   -3.5696    1.1136   -1.3650 C   0  0  0  0  0  0  0  0  0  0  0  0
    3.9970   -0.6643   -1.7364 H   0  0  0  0  0  0  0  0  0  0  0  0
    2.1861   -1.9242   -0.6485 H   0  0  0  0  0  0  0  0  0  0  0  0
    2.8997    2.8524    0.4574 H   0  0  0  0  0  0  0  0  0  0  0  0
    1.0828    1.6120    1.5609 H   0  0  0  0  0  0  0  0  0  0  0  0
   -1.0744   -3.7090   -0.4688 H   0  0  0  0  0  0  0  0  0  0  0  0
   -1.3741   -3.3075   -2.1633 H   0  0  0  0  0  0  0  0  0  0  0  0
    0.1816   -2.9330   -1.4277 H   0  0  0  0  0  0  0  0  0  0  0  0
   -1.3911    1.5480    1.8652 H   0  0  0  0  0  0  0  0  0  0  0  0
   -2.9702    3.2847    1.1711 H   0  0  0  0  0  0  0  0  0  0  0  0
   -4.3594    3.0301   -0.8431 H   0  0  0  0  0  0  0  0  0  0  0  0
   -4.1792    0.9889   -2.2501 H   0  0  0  0  0  0  0  0  0  0  0  0
 10  8  2  0
  9  8  2  0
  8  7  1  6
  8 11  1  0
  6  7  2  0
  6  5  1  0
 13 12  1  0
  7  4  1  0
  5  2  2  0
  4  3  2  0
 11 12  1  0
 11 16  1  0
 12 14  2  0
  2  3  1  0
  2  1  1  0
 16 17  2  0
 16 15  1  0
 14 15  1  0
 17 18  1  0
 15 20  2  0
 18 19  2  0
 20 19  1  0
  3 21  1  0
  4 22  1  0
  5 23  1  0
  6 24  1  0
 13 25  1  0
 13 26  1  0
 13 27  1  0
 17 28  1  0
 18 29  1  0
 19 30  1  0
 20 31  1  0
M  END
