
     RDKit          3D

 27 29  0  0  0  0  0  0  0  0999 V2000
   -1.2682   -2.1516    0.7272 C   0  0  0  0  0  0  0  0  0  0  0  0
   -2.2132   -2.4500   -0.2336 C   0  0  0  0  0  0  0  0  0  0  0  0
   -2.7489   -1.4599   -1.0522 C   0  0  0  0  0  0  0  0  0  0  0  0
   -2.3380   -0.1612   -0.8495 C   0  0  0  0  0  0  0  0  0  0  0  0
   -1.4099    0.2052    0.1211 C   0  0  0  0  0  0  0  0  0  0  0  0
   -1.0185    1.5775    0.4972 C   0  0  0  0  0  0  0  0  0  0  0  0
    0.0260    1.8226    1.2055 N   0  0  0  0  0  0  0  0  0  0  0  0
    0.8813    0.7074    1.4892 C   0  0  1  0  0  0  0  0  0  0  0  0
    0.1042   -0.4737    1.8028 N   0  0  0  0  0  0  0  0  0  0  0  0
   -0.8412   -0.8308    0.8919 C   0  0  0  0  0  0  0  0  0  0  0  0
    1.8453    0.4719    0.3406 C   0  0  0  0  0  0  0  0  0  0  0  0
    2.1478    1.2927   -0.7035 C   0  0  0  0  0  0  0  0  0  0  0  0
    3.1423    0.7526   -1.5671 C   0  0  0  0  0  0  0  0  0  0  0  0
    3.5801   -0.4694   -1.1621 C   0  0  0  0  0  0  0  0  0  0  0  0
    2.7854   -0.9734    0.2720 S   0  0  0  0  0  0  0  0  0  0  0  0
   -1.7984    2.6176    0.1037 N   0  0  0  0  0  0  0  0  0  0  0  0
   -2.8652    0.7872   -1.6391 F   0  0  0  0  0  0  0  0  0  0  0  0
   -0.8372   -2.9330    1.3399 H   0  0  0  0  0  0  0  0  0  0  0  0
   -2.5295   -3.4759   -0.3679 H   0  0  0  0  0  0  0  0  0  0  0  0
   -3.4657   -1.6921   -1.8279 H   0  0  0  0  0  0  0  0  0  0  0  0
    1.4647    0.9398    2.3836 H   0  0  0  0  0  0  0  0  0  0  0  0
    0.5482   -1.2064    2.3337 H   0  0  0  0  0  0  0  0  0  0  0  0
    1.6776    2.2535   -0.8550 H   0  0  0  0  0  0  0  0  0  0  0  0
    3.5093    1.2530   -2.4520 H   0  0  0  0  0  0  0  0  0  0  0  0
    4.3150   -1.1052   -1.6310 H   0  0  0  0  0  0  0  0  0  0  0  0
   -1.5804    3.5001    0.5388 H   0  0  0  0  0  0  0  0  0  0  0  0
   -2.7789    2.4707   -0.0604 H   0  0  0  0  0  0  0  0  0  0  0  0
  1  2  2  0
  1 10  1  0
  1 18  1  0
  2  3  1  0
  2 19  1  0
  3  4  2  0
  3 20  1  0
  4  5  1  0
  4 17  1  0
  5  6  1  0
  5 10  2  0
  6  7  2  0
  6 16  1  0
  7  8  1  0
  8  9  1  0
  8 11  1  0
  8 21  1  1
  9 10  1  0
  9 22  1  0
 11 12  2  0
 11 15  1  0
 12 13  1  0
 12 23  1  0
 13 14  2  0
 13 24  1  0
 14 15  1  0
 14 25  1  0
 16 26  1  0
 16 27  1  0
M  END
