
     RDKit          3D

 45 48  0  0  0  0  0  0  0  0999 V2000
   -2.0802    2.1105    1.1021 C   0  0  0  0  0  0  0  0  0  0  0  0
   -1.9798    0.8249    0.5794 C   0  0  0  0  0  0  0  0  0  0  0  0
    2.6854    0.1198   -0.5842 C   0  0  0  0  0  0  0  0  0  0  0  0
    4.1154    0.9363   -2.3489 C   0  0  0  0  0  0  0  0  0  0  0  0
    5.1178    0.1023   -0.3207 C   0  0  0  0  0  0  0  0  0  0  0  0
    6.2621   -0.1917    0.4581 C   0  0  0  0  0  0  0  0  0  0  0  0
    6.1407   -0.7019    1.7209 C   0  0  0  0  0  0  0  0  0  0  0  0
    4.8621   -0.9317    2.2671 C   0  0  0  0  0  0  0  0  0  0  0  0
    3.7358   -0.6621    1.5376 C   0  0  0  0  0  0  0  0  0  0  0  0
   -3.1768    0.2307    0.1757 C   0  0  0  0  0  0  0  0  0  0  0  0
   -2.4974   -2.8270   -1.9368 C   0  0  0  0  0  0  0  0  0  0  0  0
   -4.3420   -3.2848   -0.4672 C   0  0  0  0  0  0  0  0  0  0  0  0
   -4.2390   -2.0076    0.0620 C   0  0  0  0  0  0  0  0  0  0  0  0
    0.4239    1.8256   -0.4464 O   0  0  0  0  0  0  0  0  0  0  0  0
    0.3696    0.6825   -0.0337 C   0  0  0  0  0  0  0  0  0  0  0  0
    1.4135   -0.1951   -0.0765 N   0  0  0  0  0  0  0  0  0  0  0  0
    3.8291   -0.1522    0.2203 C   0  0  0  0  0  0  0  0  0  0  0  0
    5.2343    0.6585   -1.6148 C   0  0  0  0  0  0  0  0  0  0  0  0
    2.8348    0.6505   -1.8399 C   0  0  0  0  0  0  0  0  0  0  0  0
   -0.7615    0.1456    0.5287 N   0  0  0  0  0  0  0  0  0  0  0  0
   -3.2303    2.7505    1.2028 N   0  0  0  0  0  0  0  0  0  0  0  0
   -4.3341    0.8715    0.3257 N   0  0  0  0  0  0  0  0  0  0  0  0
   -4.3265    2.1005    0.8163 C   0  0  0  0  0  0  0  0  0  0  0  0
   -5.6307    2.8210    0.9365 C   0  0  0  0  0  0  0  0  0  0  0  0
   -3.2502   -1.1339   -0.3897 C   0  0  0  0  0  0  0  0  0  0  0  0
   -3.4716   -3.6979   -1.4679 C   0  0  0  0  0  0  0  0  0  0  0  0
   -2.3819   -1.5539   -1.3976 C   0  0  0  0  0  0  0  0  0  0  0  0
   -1.1984    2.6264    1.4623 H   0  0  0  0  0  0  0  0  0  0  0  0
    4.2048    1.3622   -3.3396 H   0  0  0  0  0  0  0  0  0  0  0  0
    7.2413   -0.0010    0.0361 H   0  0  0  0  0  0  0  0  0  0  0  0
    7.0236   -0.9217    2.3066 H   0  0  0  0  0  0  0  0  0  0  0  0
    4.7703   -1.3188    3.2735 H   0  0  0  0  0  0  0  0  0  0  0  0
    2.7666   -0.8327    1.9870 H   0  0  0  0  0  0  0  0  0  0  0  0
   -1.8258   -3.1360   -2.7269 H   0  0  0  0  0  0  0  0  0  0  0  0
   -5.1044   -3.9579   -0.0978 H   0  0  0  0  0  0  0  0  0  0  0  0
   -4.9236   -1.6876    0.8368 H   0  0  0  0  0  0  0  0  0  0  0  0
    1.3089   -1.0939    0.3691 H   0  0  0  0  0  0  0  0  0  0  0  0
    6.2203    0.8607   -2.0144 H   0  0  0  0  0  0  0  0  0  0  0  0
    1.9662    0.8354   -2.4563 H   0  0  0  0  0  0  0  0  0  0  0  0
   -0.7881   -0.8452    0.7198 H   0  0  0  0  0  0  0  0  0  0  0  0
   -5.7133    3.5849    0.1606 H   0  0  0  0  0  0  0  0  0  0  0  0
   -6.4687    2.1369    0.8283 H   0  0  0  0  0  0  0  0  0  0  0  0
   -5.7046    3.3297    1.8970 H   0  0  0  0  0  0  0  0  0  0  0  0
   -3.5554   -4.6937   -1.8831 H   0  0  0  0  0  0  0  0  0  0  0  0
   -1.6316   -0.8809   -1.7919 H   0  0  0  0  0  0  0  0  0  0  0  0
  4 19  2  0
  4 18  1  0
 14 15  2  0
 19  3  1  0
 24 23  1  0
 21 23  1  0
 21  1  2  0
 23 22  2  0
 15 16  1  0
 15 20  1  0
 18  5  2  0
 16  3  1  0
  1  2  1  0
 22 10  1  0
  3 17  2  0
 27 11  2  0
 27 25  1  0
  2 10  2  0
  2 20  1  0
 10 25  1  0
 11 26  1  0
  5 17  1  0
  5  6  1  0
 25 13  2  0
 17  9  1  0
  6  7  2  0
 26 12  2  0
 13 12  1  0
  9  8  2  0
  7  8  1  0
  1 28  1  0
  4 29  1  0
  6 30  1  0
  7 31  1  0
  8 32  1  0
  9 33  1  0
 11 34  1  0
 12 35  1  0
 13 36  1  0
 16 37  1  0
 18 38  1  0
 19 39  1  0
 20 40  1  0
 24 41  1  0
 24 42  1  0
 24 43  1  0
 26 44  1  0
 27 45  1  0
M  END
