
     RDKit          3D

  9  8  0  0  0  0  0  0  0  0999 V2000
    1.2417   -0.2353    0.0188 C   0  0  0  0  0  0  0  0  0  0  0  0
   -0.0190    0.6012   -0.0045 C   0  0  0  0  0  0  0  0  0  0  0  0
   -1.1386   -0.2616   -0.0302 O   0  0  0  0  0  0  0  0  0  0  0  0
    1.2779   -0.8738    0.9027 H   0  0  0  0  0  0  0  0  0  0  0  0
    1.3141   -0.8687   -0.8665 H   0  0  0  0  0  0  0  0  0  0  0  0
    2.1188    0.4114    0.0383 H   0  0  0  0  0  0  0  0  0  0  0  0
   -0.0393    1.2535    0.8775 H   0  0  0  0  0  0  0  0  0  0  0  0
   -0.0029    1.2592   -0.8824 H   0  0  0  0  0  0  0  0  0  0  0  0
   -1.9333    0.2790   -0.0350 H   0  0  0  0  0  0  0  0  0  0  0  0
  1  2  1  0
  1  4  1  0
  1  5  1  0
  1  6  1  0
  2  3  1  0
  2  7  1  0
  2  8  1  0
  3  9  1  0
M  END
