
     RDKit          3D

 32 33  0  0  0  0  0  0  0  0999 V2000
   -1.2606   -1.0040   -0.3162 N   0  0  0  0  0  0  0  0  0  0  0  0
   -2.5157   -0.4638   -0.3954 C   0  0  0  0  0  0  0  0  0  0  0  0
   -2.5638    0.4671    0.6566 C   0  0  0  0  0  0  0  0  0  0  0  0
   -3.7234    1.2115    0.8699 C   0  0  0  0  0  0  0  0  0  0  0  0
   -4.7978    0.9988    0.0233 C   0  0  0  0  0  0  0  0  0  0  0  0
   -4.7318    0.0632   -1.0199 C   0  0  0  0  0  0  0  0  0  0  0  0
   -3.5894   -0.6859   -1.2488 C   0  0  0  0  0  0  0  0  0  0  0  0
   -0.6215   -0.4149    0.7304 C   0  0  0  0  0  0  0  0  0  0  0  0
   -1.3674    0.4706    1.3360 N   0  0  0  0  0  0  0  0  0  0  0  0
    0.7887   -0.7425    1.0713 C   0  0  0  0  0  0  0  0  0  0  0  0
    1.7884   -0.0604    0.1321 C   0  0  0  0  0  0  0  0  0  0  0  0
    3.2289   -0.4284    0.4630 C   0  0  0  0  0  0  0  0  0  0  0  0
    4.2374    0.2638   -0.4441 C   0  0  0  0  0  0  0  0  0  0  0  0
    5.6743   -0.1251   -0.1309 C   0  0  0  0  0  0  0  0  0  0  0  0
    6.6065    0.5764   -1.0021 N   0  0  0  0  0  0  0  0  0  0  0  0
   -0.8786   -1.7227   -0.9107 H   0  0  0  0  0  0  0  0  0  0  0  0
   -3.7778    1.9338    1.6744 H   0  0  0  0  0  0  0  0  0  0  0  0
   -5.7097    1.5640    0.1664 H   0  0  0  0  0  0  0  0  0  0  0  0
   -5.5934   -0.0771   -1.6595 H   0  0  0  0  0  0  0  0  0  0  0  0
   -3.5396   -1.4077   -2.0534 H   0  0  0  0  0  0  0  0  0  0  0  0
    0.9718   -0.4278    2.0995 H   0  0  0  0  0  0  0  0  0  0  0  0
    0.9316   -1.8263    1.0350 H   0  0  0  0  0  0  0  0  0  0  0  0
    1.5714   -0.3394   -0.9030 H   0  0  0  0  0  0  0  0  0  0  0  0
    1.6590    1.0238    0.1960 H   0  0  0  0  0  0  0  0  0  0  0  0
    3.4382   -0.1695    1.5062 H   0  0  0  0  0  0  0  0  0  0  0  0
    3.3491   -1.5145    0.3868 H   0  0  0  0  0  0  0  0  0  0  0  0
    4.0175    0.0150   -1.4885 H   0  0  0  0  0  0  0  0  0  0  0  0
    4.1323    1.3496   -0.3550 H   0  0  0  0  0  0  0  0  0  0  0  0
    5.9006    0.1500    0.9031 H   0  0  0  0  0  0  0  0  0  0  0  0
    5.7633   -1.2204   -0.1828 H   0  0  0  0  0  0  0  0  0  0  0  0
    7.5546    0.3131   -0.7659 H   0  0  0  0  0  0  0  0  0  0  0  0
    6.4698    0.2650   -1.9563 H   0  0  0  0  0  0  0  0  0  0  0  0
  1  2  1  0
  1  8  1  0
  2  3  2  0
  2  7  1  0
  3  4  1  0
  3  9  1  0
  4  5  2  0
  5  6  1  0
  6  7  2  0
  8  9  2  0
  8 10  1  0
 10 11  1  0
 11 12  1  0
 12 13  1  0
 13 14  1  0
 14 15  1  0
  1 16  1  0
  4 17  1  0
  5 18  1  0
  6 19  1  0
  7 20  1  0
 10 21  1  0
 10 22  1  0
 11 23  1  0
 11 24  1  0
 12 25  1  0
 12 26  1  0
 13 27  1  0
 13 28  1  0
 14 29  1  0
 14 30  1  0
 15 31  1  0
 15 32  1  0
M  END
