
     RDKit          3D

 73 72  0  0  0  0  0  0  0  0999 V2000
   -9.6159   -0.5983    1.4135 O   0  0  0  0  0  0  0  0  0  0  0  0
   -8.3578    0.1308    1.1690 P   0  0  2  0  0  0  0  0  0  0  0  0
   -7.6067    0.3777    2.5580 O   0  0  0  0  0  0  0  0  0  0  0  0
   -8.4486    1.5290    0.4184 O   0  0  0  0  0  0  0  0  0  0  0  0
   -9.3799    2.5367    0.8596 C   0  0  0  0  0  0  0  0  0  0  0  0
   -9.3793    3.6522   -0.1558 C   0  0  0  0  0  0  0  0  0  0  0  0
   -9.8915    3.2021   -1.4381 N   0  0  0  0  0  0  0  0  0  0  0  0
   -7.3113   -0.5573    0.1812 O   0  0  0  0  0  0  0  0  0  0  0  0
   -7.0183   -1.9520    0.3217 C   0  0  0  0  0  0  0  0  0  0  0  0
   -5.9027   -2.3035   -0.6203 C   0  0  0  0  0  0  0  0  0  0  0  0
   -4.7282   -1.6136   -0.1932 O   0  0  0  0  0  0  0  0  0  0  0  0
   -3.6048   -1.8250   -0.8741 C   0  0  0  0  0  0  0  0  0  0  0  0
   -3.5401   -2.5703   -1.8192 O   0  0  0  0  0  0  0  0  0  0  0  0
   -2.4620   -1.0193   -0.3208 C   0  0  0  0  0  0  0  0  0  0  0  0
   -1.1032   -1.4438   -0.8559 C   0  0  0  0  0  0  0  0  0  0  0  0
    0.0297   -0.6356   -0.2360 C   0  0  0  0  0  0  0  0  0  0  0  0
    1.4030   -1.0613   -0.7389 C   0  0  0  0  0  0  0  0  0  0  0  0
    2.5448   -0.2786   -0.1033 C   0  0  0  0  0  0  0  0  0  0  0  0
    3.9190   -0.7093   -0.6005 C   0  0  0  0  0  0  0  0  0  0  0  0
    5.0633    0.0558    0.0521 C   0  0  0  0  0  0  0  0  0  0  0  0
    6.4379   -0.3789   -0.4407 C   0  0  0  0  0  0  0  0  0  0  0  0
   -6.7660    0.8524    2.5072 H   0  0  0  0  0  0  0  0  0  0  0  0
  -10.3796    2.1051    0.9458 H   0  0  0  0  0  0  0  0  0  0  0  0
   -9.0759    2.9169    1.8375 H   0  0  0  0  0  0  0  0  0  0  0  0
  -10.0423    4.4277    0.2340 H   0  0  0  0  0  0  0  0  0  0  0  0
   -8.3754    4.0967   -0.1989 H   0  0  0  0  0  0  0  0  0  0  0  0
   -9.9902    3.9963   -2.0564 H   0  0  0  0  0  0  0  0  0  0  0  0
   -9.2158    2.5929   -1.8809 H   0  0  0  0  0  0  0  0  0  0  0  0
   -6.7388   -2.1900    1.3516 H   0  0  0  0  0  0  0  0  0  0  0  0
   -7.8924   -2.5512    0.0589 H   0  0  0  0  0  0  0  0  0  0  0  0
   -5.7511   -3.3847   -0.5864 H   0  0  0  0  0  0  0  0  0  0  0  0
   -6.1597   -2.0284   -1.6458 H   0  0  0  0  0  0  0  0  0  0  0  0
   -2.6515    0.0336   -0.5573 H   0  0  0  0  0  0  0  0  0  0  0  0
   -2.4843   -1.0829    0.7706 H   0  0  0  0  0  0  0  0  0  0  0  0
   -0.9437   -2.5061   -0.6505 H   0  0  0  0  0  0  0  0  0  0  0  0
   -1.0777   -1.3314   -1.9428 H   0  0  0  0  0  0  0  0  0  0  0  0
   -0.1201    0.4292   -0.4448 H   0  0  0  0  0  0  0  0  0  0  0  0
   -0.0053   -0.7385    0.8543 H   0  0  0  0  0  0  0  0  0  0  0  0
    1.5425   -2.1303   -0.5435 H   0  0  0  0  0  0  0  0  0  0  0  0
    1.4446   -0.9450   -1.8276 H   0  0  0  0  0  0  0  0  0  0  0  0
    2.4079    0.7908   -0.2982 H   0  0  0  0  0  0  0  0  0  0  0  0
    2.5001   -0.3952    0.9854 H   0  0  0  0  0  0  0  0  0  0  0  0
    4.0486   -1.7819   -0.4178 H   0  0  0  0  0  0  0  0  0  0  0  0
    3.9697   -0.5806   -1.6875 H   0  0  0  0  0  0  0  0  0  0  0  0
    4.9358    1.1285   -0.1309 H   0  0  0  0  0  0  0  0  0  0  0  0
    5.0102   -0.0729    1.1390 H   0  0  0  0  0  0  0  0  0  0  0  0
    6.5625   -1.4527   -0.2618 H   0  0  0  0  0  0  0  0  0  0  0  0
    6.4939   -0.2459   -1.5270 H   0  0  0  0  0  0  0  0  0  0  0  0
    7.5820    0.3794    0.2198 C   0  0  0  0  0  0  0  0  0  0  0  0
    8.9576   -0.0581   -0.2678 C   0  0  0  0  0  0  0  0  0  0  0  0
   10.1009    0.6944    0.4009 C   0  0  0  0  0  0  0  0  0  0  0  0
   11.4775    0.2536   -0.0807 C   0  0  0  0  0  0  0  0  0  0  0  0
   12.6199    0.9999    0.5965 C   0  0  0  0  0  0  0  0  0  0  0  0
   13.9971    0.5563    0.1197 C   0  0  0  0  0  0  0  0  0  0  0  0
   15.1401    1.2965    0.8033 C   0  0  0  0  0  0  0  0  0  0  0  0
   16.5116    0.8409    0.3246 C   0  0  0  0  0  0  0  0  0  0  0  0
    7.4591    1.4533    0.0399 H   0  0  0  0  0  0  0  0  0  0  0  0
    7.5236    0.2474    1.3061 H   0  0  0  0  0  0  0  0  0  0  0  0
    9.0781   -1.1330   -0.0921 H   0  0  0  0  0  0  0  0  0  0  0  0
    9.0191    0.0785   -1.3533 H   0  0  0  0  0  0  0  0  0  0  0  0
    9.9823    1.7691    0.2234 H   0  0  0  0  0  0  0  0  0  0  0  0
   10.0363    0.5595    1.4865 H   0  0  0  0  0  0  0  0  0  0  0  0
   11.5935   -0.8222    0.0920 H   0  0  0  0  0  0  0  0  0  0  0  0
   11.5452    0.3936   -1.1655 H   0  0  0  0  0  0  0  0  0  0  0  0
   12.5054    2.0756    0.4222 H   0  0  0  0  0  0  0  0  0  0  0  0
   12.5497    0.8613    1.6812 H   0  0  0  0  0  0  0  0  0  0  0  0
   14.1097   -0.5205    0.2891 H   0  0  0  0  0  0  0  0  0  0  0  0
   14.0702    0.6997   -0.9644 H   0  0  0  0  0  0  0  0  0  0  0  0
   15.0296    2.3715    0.6296 H   0  0  0  0  0  0  0  0  0  0  0  0
   15.0640    1.1565    1.8860 H   0  0  0  0  0  0  0  0  0  0  0  0
   16.6274    1.0014   -0.7490 H   0  0  0  0  0  0  0  0  0  0  0  0
   17.3138    1.3822    0.8275 H   0  0  0  0  0  0  0  0  0  0  0  0
   16.6608   -0.2236    0.5143 H   0  0  0  0  0  0  0  0  0  0  0  0
 19 20  1  0
 19 18  1  0
 20 21  1  0
 13 12  2  0
 17 18  1  0
 17 16  1  0
 15 14  1  0
 15 16  1  0
 12 14  1  0
 12 11  1  0
 11 10  1  0
 10  9  1  0
  9  8  1  0
  2  8  1  6
  1  2  2  0
  3  2  1  0
  2  4  1  0
  4  5  1  0
  5  6  1  0
  6  7  1  0
  3 22  1  0
  5 23  1  0
  5 24  1  0
  6 25  1  0
  6 26  1  0
  7 27  1  0
  7 28  1  0
  9 29  1  0
  9 30  1  0
 10 31  1  0
 10 32  1  0
 14 33  1  0
 14 34  1  0
 15 35  1  0
 15 36  1  0
 16 37  1  0
 16 38  1  0
 17 39  1  0
 17 40  1  0
 18 41  1  0
 18 42  1  0
 19 43  1  0
 19 44  1  0
 20 45  1  0
 20 46  1  0
 21 47  1  0
 21 48  1  0
 21 49  1  0
 49 50  1  0
 50 51  1  0
 51 52  1  0
 52 53  1  0
 53 54  1  0
 54 55  1  0
 55 56  1  0
 49 57  1  0
 49 58  1  0
 50 59  1  0
 50 60  1  0
 51 61  1  0
 51 62  1  0
 52 63  1  0
 52 64  1  0
 53 65  1  0
 53 66  1  0
 54 67  1  0
 54 68  1  0
 55 69  1  0
 55 70  1  0
 56 71  1  0
 56 72  1  0
 56 73  1  0
M  END
