
     RDKit          3D

 20 19  0  0  0  0  0  0  0  0999 V2000
    0.3966   -0.0372   -2.7210 C   0  0  0  0  0  0  0  0  0  0  0  0
   -0.3230   -0.1789   -1.3831 C   0  0  1  0  0  0  0  0  0  0  0  0
    0.6374    0.0884   -0.2009 C   0  0  2  0  0  0  0  0  0  0  0  0
    0.0318   -0.3993    1.1248 C   0  0  1  0  0  0  0  0  0  0  0  0
    0.8663    0.0030    2.3359 C   0  0  0  0  0  0  0  0  0  0  0  0
    1.4233   -0.6203   -2.9856 O   0  0  0  0  0  0  0  0  0  0  0  0
   -1.3881    0.7617   -1.3820 O   0  0  0  0  0  0  0  0  0  0  0  0
    0.9574    1.4700   -0.1716 O   0  0  0  0  0  0  0  0  0  0  0  0
   -1.2791    0.1608    1.2606 O   0  0  0  0  0  0  0  0  0  0  0  0
    0.0948   -0.3706    3.4842 O   0  0  0  0  0  0  0  0  0  0  0  0
   -0.1129    0.6363   -3.4436 H   0  0  0  0  0  0  0  0  0  0  0  0
   -0.6955   -1.2158   -1.3271 H   0  0  0  0  0  0  0  0  0  0  0  0
    1.5681   -0.4623   -0.3807 H   0  0  0  0  0  0  0  0  0  0  0  0
   -0.0382   -1.4994    1.0924 H   0  0  0  0  0  0  0  0  0  0  0  0
    1.0435    1.0835    2.3000 H   0  0  0  0  0  0  0  0  0  0  0  0
    1.8353   -0.5168    2.3201 H   0  0  0  0  0  0  0  0  0  0  0  0
   -1.8456    0.6420   -0.5308 H   0  0  0  0  0  0  0  0  0  0  0  0
    0.1275    1.9258   -0.3902 H   0  0  0  0  0  0  0  0  0  0  0  0
   -1.5090    0.0558    2.1986 H   0  0  0  0  0  0  0  0  0  0  0  0
    0.4148    0.1303    4.2440 H   0  0  0  0  0  0  0  0  0  0  0  0
  1  2  1  0
  1  6  2  0
  1 11  1  0
  2  3  1  0
  2  7  1  0
  2 12  1  1
  3  4  1  0
  3  8  1  0
  3 13  1  6
  4  5  1  0
  4  9  1  0
  4 14  1  6
  5 10  1  0
  5 15  1  0
  5 16  1  0
  7 17  1  0
  8 18  1  0
  9 19  1  0
 10 20  1  0
M  END
