
     RDKit          3D

 31 32  0  0  0  0  0  0  0  0999 V2000
   -2.2373   -0.1606    0.1006 C   0  0  0  0  0  0  0  0  0  0  0  0
   -0.9932   -0.1671    1.9256 N   0  0  0  0  0  0  0  0  0  0  0  0
   -0.1424    0.3415    1.1139 C   0  0  0  0  0  0  0  0  0  0  0  0
    3.5664    0.2870   -1.1869 C   0  0  0  0  0  0  0  0  0  0  0  0
    2.8026    1.1484   -0.4349 C   0  0  0  0  0  0  0  0  0  0  0  0
   -5.5961   -0.9763   -1.2245 C   0  0  0  0  0  0  0  0  0  0  0  0
   -3.3163   -0.3269   -0.6730 N   0  0  0  0  0  0  0  0  0  0  0  0
   -2.1896   -0.4599    1.3693 N   0  0  0  0  0  0  0  0  0  0  0  0
    1.2339    0.7836    1.4871 C   0  0  0  0  0  0  0  0  0  0  0  0
    2.2063    0.3806    0.5066 N   0  0  0  0  0  0  0  0  0  0  0  0
    2.5246   -0.9140    0.3959 N   0  0  0  0  0  0  0  0  0  0  0  0
    3.3559   -0.9887   -0.6247 C   0  0  0  0  0  0  0  0  0  0  0  0
   -0.7515    0.5178   -0.5077 S   0  0  0  0  0  0  0  0  0  0  0  0
    3.7837   -2.4655   -2.1130 H   0  0  0  0  0  0  0  0  0  0  0  0
    5.0297   -2.3003   -0.8891 H   0  0  0  0  0  0  0  0  0  0  0  0
    3.5177   -3.1161   -0.4933 H   0  0  0  0  0  0  0  0  0  0  0  0
    4.1907    0.5445   -2.0278 H   0  0  0  0  0  0  0  0  0  0  0  0
   -5.8732    0.0435   -1.4918 H   0  0  0  0  0  0  0  0  0  0  0  0
   -5.2836   -1.4973   -2.1306 H   0  0  0  0  0  0  0  0  0  0  0  0
   -6.4843   -1.4788   -0.8452 H   0  0  0  0  0  0  0  0  0  0  0  0
   -4.8413   -0.4827    0.7297 H   0  0  0  0  0  0  0  0  0  0  0  0
   -4.2723   -2.0253    0.1144 H   0  0  0  0  0  0  0  0  0  0  0  0
   -3.2040   -0.2605   -1.6714 H   0  0  0  0  0  0  0  0  0  0  0  0
    1.2697    1.8694    1.5836 H   0  0  0  0  0  0  0  0  0  0  0  0
    1.4856    0.3609    2.4594 H   0  0  0  0  0  0  0  0  0  0  0  0
    1.5565    2.8768   -0.7325 H   0  0  0  0  0  0  0  0  0  0  0  0
    2.9204    3.1476    0.3475 H   0  0  0  0  0  0  0  0  0  0  0  0
    3.1838    3.0003   -1.3856 H   0  0  0  0  0  0  0  0  0  0  0  0
    2.6012    2.6173   -0.5510 C   0  0  0  0  0  0  0  0  0  0  0  0
    3.9507   -2.2868   -1.0505 C   0  0  0  0  0  0  0  0  0  0  0  0
   -4.5049   -0.9953   -0.1728 C   0  0  0  0  0  0  0  0  0  0  0  0
 30 12  1  0
 11 12  2  0
 11 10  1  0
  2  8  1  0
  2  3  2  0
 12  4  1  0
  8  1  2  0
  9 10  1  0
  9  3  1  0
 10  5  1  0
  3 13  1  0
  4  5  2  0
  1  7  1  0
  1 13  1  0
  5 29  1  0
  7 31  1  0
 31  6  1  0
 30 14  1  0
 30 15  1  0
 30 16  1  0
  4 17  1  0
  6 18  1  0
  6 19  1  0
  6 20  1  0
 31 21  1  0
 31 22  1  0
  7 23  1  0
  9 24  1  0
  9 25  1  0
 29 26  1  0
 29 27  1  0
 29 28  1  0
M  END
