
     RDKit          3D

 62 67  0  0  0  0  0  0  0  0999 V2000
    0.8455   -3.8240   -0.8403 C   0  0  0  0  0  0  0  0  0  0  0  0
    2.4694   -2.0813   -0.1598 C   0  0  0  0  0  0  0  0  0  0  0  0
    3.5565   -2.9732   -0.0029 C   0  0  0  0  0  0  0  0  0  0  0  0
    4.7753   -2.4307    0.2738 C   0  0  0  0  0  0  0  0  0  0  0  0
   -4.4337    0.3952    0.2059 C   0  0  0  0  0  0  0  0  0  0  0  0
    4.9282   -1.0310    0.4055 C   0  0  0  0  0  0  0  0  0  0  0  0
    3.7744   -0.2368    0.2085 C   0  0  0  0  0  0  0  0  0  0  0  0
   -0.0196   -1.8903   -0.2339 C   0  0  0  0  0  0  0  0  0  0  0  0
   -1.0082   -2.8190   -0.5905 C   0  0  0  0  0  0  0  0  0  0  0  0
    3.8589    1.1865    0.3323 C   0  0  0  0  0  0  0  0  0  0  0  0
   -2.3552   -2.4857   -0.5386 C   0  0  0  0  0  0  0  0  0  0  0  0
   -2.6954   -1.2060   -0.1176 C   0  0  0  0  0  0  0  0  0  0  0  0
    5.0735    1.7282    0.6979 C   0  0  0  0  0  0  0  0  0  0  0  0
    6.2099    0.9262    0.9188 C   0  0  0  0  0  0  0  0  0  0  0  0
    2.6813    3.2626    0.7497 C   0  0  0  0  0  0  0  0  0  0  0  0
    1.2738    3.8385    0.7228 C   0  0  0  0  0  0  0  0  0  0  0  0
    0.7550    3.9593   -0.7028 C   0  0  2  0  0  0  0  0  0  0  0  0
   -0.5873    4.5226   -0.7060 N   0  0  0  0  0  0  0  0  0  0  0  0
    0.8738    2.6024   -1.3931 C   0  0  0  0  0  0  0  0  0  0  0  0
    2.2711    2.0157   -1.2772 C   0  0  0  0  0  0  0  0  0  0  0  0
    2.7083    1.9549    0.1178 N   0  0  0  0  0  0  0  0  0  0  0  0
    2.5776   -0.7920   -0.0685 N   0  0  0  0  0  0  0  0  0  0  0  0
    6.1535   -0.4305    0.7616 C   0  0  0  0  0  0  0  0  0  0  0  0
    1.1798   -2.5722   -0.3978 N   0  0  0  0  0  0  0  0  0  0  0  0
   -0.4284   -4.0122   -0.9692 N   0  0  0  0  0  0  0  0  0  0  0  0
   -0.3521   -0.6140    0.1931 C   0  0  0  0  0  0  0  0  0  0  0  0
   -1.6983   -0.2860    0.2470 C   0  0  0  0  0  0  0  0  0  0  0  0
   -4.0157   -0.9227   -0.0851 O   0  0  0  0  0  0  0  0  0  0  0  0
   -5.9405    0.4558    0.0607 C   0  0  2  0  0  0  0  0  0  0  0  0
   -6.4041    0.0874   -1.3359 C   0  0  0  0  0  0  0  0  0  0  0  0
   -6.5042    1.7628    0.6420 C   0  0  0  0  0  0  0  0  0  0  0  0
   -7.0733    1.0787    1.7638 O   0  0  0  0  0  0  0  0  0  0  0  0
   -6.7032   -0.1976    1.2249 C   0  0  0  0  0  0  0  0  0  0  0  0
    1.5989   -4.5620   -1.0708 H   0  0  0  0  0  0  0  0  0  0  0  0
    3.4336   -4.0446   -0.0688 H   0  0  0  0  0  0  0  0  0  0  0  0
    5.6336   -3.0750    0.4167 H   0  0  0  0  0  0  0  0  0  0  0  0
   -4.1378    0.6789    1.2241 H   0  0  0  0  0  0  0  0  0  0  0  0
   -3.9721    1.1123   -0.4855 H   0  0  0  0  0  0  0  0  0  0  0  0
   -3.1198   -3.1999   -0.8176 H   0  0  0  0  0  0  0  0  0  0  0  0
    5.1776    2.7991    0.8103 H   0  0  0  0  0  0  0  0  0  0  0  0
    7.1387    1.4033    1.2024 H   0  0  0  0  0  0  0  0  0  0  0  0
    3.3656    3.9743    0.2593 H   0  0  0  0  0  0  0  0  0  0  0  0
    3.0176    3.1596    1.7829 H   0  0  0  0  0  0  0  0  0  0  0  0
    0.6090    3.1900    1.3045 H   0  0  0  0  0  0  0  0  0  0  0  0
    1.2785    4.8175    1.2071 H   0  0  0  0  0  0  0  0  0  0  0  0
    1.4030    4.6685   -1.2328 H   0  0  0  0  0  0  0  0  0  0  0  0
   -0.9039    4.6299   -1.6625 H   0  0  0  0  0  0  0  0  0  0  0  0
   -1.2290    3.8590   -0.2851 H   0  0  0  0  0  0  0  0  0  0  0  0
    0.1520    1.9103   -0.9482 H   0  0  0  0  0  0  0  0  0  0  0  0
    0.6150    2.6940   -2.4516 H   0  0  0  0  0  0  0  0  0  0  0  0
    2.2803    1.0142   -1.7019 H   0  0  0  0  0  0  0  0  0  0  0  0
    2.9743    2.6282   -1.8643 H   0  0  0  0  0  0  0  0  0  0  0  0
    7.0269   -1.0504    0.9212 H   0  0  0  0  0  0  0  0  0  0  0  0
    0.4015    0.1111    0.4612 H   0  0  0  0  0  0  0  0  0  0  0  0
   -1.9615    0.7075    0.5829 H   0  0  0  0  0  0  0  0  0  0  0  0
   -6.1816   -0.9538   -1.5683 H   0  0  0  0  0  0  0  0  0  0  0  0
   -7.4814    0.2259   -1.4350 H   0  0  0  0  0  0  0  0  0  0  0  0
   -5.9173    0.7107   -2.0885 H   0  0  0  0  0  0  0  0  0  0  0  0
   -5.7688    2.5189    0.9368 H   0  0  0  0  0  0  0  0  0  0  0  0
   -7.2616    2.2416    0.0133 H   0  0  0  0  0  0  0  0  0  0  0  0
   -7.5734   -0.7857    0.9155 H   0  0  0  0  0  0  0  0  0  0  0  0
   -6.1088   -0.7931    1.9241 H   0  0  0  0  0  0  0  0  0  0  0  0
 32 33  1  0
 32 31  1  0
 33 29  1  0
 31 29  1  0
 29  5  1  6
 29 30  1  0
  5 28  1  0
 18 17  1  0
 28 12  1  0
 16 17  1  0
 16 15  1  0
 12 27  2  0
 12 11  1  0
 27 26  1  0
 17 19  1  0
 11  9  2  0
 26  8  2  0
 15 21  1  0
  9  8  1  0
  9 25  1  0
 19 20  1  0
  8 24  1  0
 21 20  1  0
 21 10  1  0
 25  1  2  0
 24  1  1  0
 24  2  1  0
 22  2  1  0
 22  7  2  0
 10  7  1  0
 10 13  2  0
  2  3  2  0
  7  6  1  0
 13 14  1  0
  3  4  1  0
  6  4  2  0
  6 23  1  0
 14 23  2  0
  1 34  1  0
  3 35  1  0
  4 36  1  0
  5 37  1  0
  5 38  1  0
 11 39  1  0
 13 40  1  0
 14 41  1  0
 15 42  1  0
 15 43  1  0
 16 44  1  0
 16 45  1  0
 17 46  1  6
 18 47  1  0
 18 48  1  0
 19 49  1  0
 19 50  1  0
 20 51  1  0
 20 52  1  0
 23 53  1  0
 26 54  1  0
 27 55  1  0
 30 56  1  0
 30 57  1  0
 30 58  1  0
 31 59  1  0
 31 60  1  0
 33 61  1  0
 33 62  1  0
M  END
