
     RDKit          3D

 42 45  0  0  0  0  0  0  0  0999 V2000
   -2.1495   -0.0307   -0.6346 C   0  0  0  0  0  0  0  0  0  0  0  0
    4.3060   -0.0586    0.4326 C   0  0  0  0  0  0  0  0  0  0  0  0
   -1.5501   -1.1320   -1.2456 C   0  0  0  0  0  0  0  0  0  0  0  0
   -2.0621   -2.4037   -1.0548 C   0  0  0  0  0  0  0  0  0  0  0  0
    2.1241    1.0169   -0.3347 C   0  0  0  0  0  0  0  0  0  0  0  0
   -3.1927   -2.6118   -0.2828 C   0  0  0  0  0  0  0  0  0  0  0  0
   -3.8011   -1.5224    0.3199 C   0  0  0  0  0  0  0  0  0  0  0  0
   -3.2801   -0.2498    0.1532 C   0  0  0  0  0  0  0  0  0  0  0  0
   -3.5844    1.1459    2.0118 C   0  0  1  0  0  0  0  0  0  0  0  0
    2.9656   -0.1173    0.0500 C   0  0  0  0  0  0  0  0  0  0  0  0
    2.6637   -1.4884    0.0756 C   0  0  0  0  0  0  0  0  0  0  0  0
   -2.2771    2.3541   -1.1964 N   0  0  0  0  0  0  0  0  0  0  0  0
    0.7904    0.7831   -0.2444 N   0  0  0  0  0  0  0  0  0  0  0  0
   -1.5652    1.3005   -0.8300 C   0  0  0  0  0  0  0  0  0  0  0  0
    3.6863   -2.2383    0.4362 N   0  0  0  0  0  0  0  0  0  0  0  0
    2.5803    2.0828   -0.7170 O   0  0  0  0  0  0  0  0  0  0  0  0
    5.1625    0.9515    0.6131 N   0  0  0  0  0  0  0  0  0  0  0  0
    6.3711    0.6441    1.0052 C   0  0  0  0  0  0  0  0  0  0  0  0
    6.8080   -0.6789    1.2424 C   0  0  0  0  0  0  0  0  0  0  0  0
    5.9231   -1.6936    1.0597 C   0  0  0  0  0  0  0  0  0  0  0  0
    4.6762   -1.3691    0.6571 N   0  0  0  0  0  0  0  0  0  0  0  0
   -0.2101    1.6539   -0.6601 C   0  0  0  0  0  0  0  0  0  0  0  0
   -0.1587    2.9977   -0.9621 C   0  0  0  0  0  0  0  0  0  0  0  0
   -1.4217    3.3549   -1.2740 N   0  0  0  0  0  0  0  0  0  0  0  0
   -1.8682    4.6567   -1.7091 C   0  0  0  0  0  0  0  0  0  0  0  0
   -3.9179    0.8225    0.7381 O   0  0  0  0  0  0  0  0  0  0  0  0
   -3.9194    0.1544    2.8733 F   0  0  0  0  0  0  0  0  0  0  0  0
   -2.2487    1.3037    2.1470 F   0  0  0  0  0  0  0  0  0  0  0  0
   -1.2807   -3.7489   -1.8129 Cl  0  0  0  0  0  0  0  0  0  0  0  0
   -0.6924   -0.9881   -1.8899 H   0  0  0  0  0  0  0  0  0  0  0  0
   -3.5976   -3.6047   -0.1462 H   0  0  0  0  0  0  0  0  0  0  0  0
   -4.6927   -1.6694    0.9140 H   0  0  0  0  0  0  0  0  0  0  0  0
   -4.1016    2.0617    2.2863 H   0  0  0  0  0  0  0  0  0  0  0  0
    1.7309   -1.9702   -0.1826 H   0  0  0  0  0  0  0  0  0  0  0  0
    0.4830   -0.0606    0.2137 H   0  0  0  0  0  0  0  0  0  0  0  0
    7.0611    1.4663    1.1518 H   0  0  0  0  0  0  0  0  0  0  0  0
    7.8172   -0.8834    1.5641 H   0  0  0  0  0  0  0  0  0  0  0  0
    6.1350   -2.7419    1.2111 H   0  0  0  0  0  0  0  0  0  0  0  0
    0.6508    3.7047   -0.9692 H   0  0  0  0  0  0  0  0  0  0  0  0
   -2.7115    4.9819   -1.1043 H   0  0  0  0  0  0  0  0  0  0  0  0
   -1.0552    5.3664   -1.5898 H   0  0  0  0  0  0  0  0  0  0  0  0
   -2.1657    4.6309   -2.7560 H   0  0  0  0  0  0  0  0  0  0  0  0
 27  9  1  0
 28  9  1  0
  9 26  1  0
  7  6  2  0
  7  8  1  0
 26  8  1  0
  6  4  1  0
  8  1  2  0
 19 18  1  0
 19 20  2  0
 18 17  2  0
 20 21  1  0
  4  3  2  0
  4 29  1  0
 17  2  1  0
  1  3  1  0
  1 14  1  0
 21  2  1  0
 21 15  1  0
  2 10  2  0
 14 12  2  0
 14 22  1  0
 12 24  1  0
 13 22  1  0
 13  5  1  0
 22 23  2  0
 15 11  2  0
 10  5  1  0
 10 11  1  0
 24 23  1  0
 24 25  1  0
  5 16  2  0
  3 30  1  0
  6 31  1  0
  7 32  1  0
  9 33  1  1
 11 34  1  0
 13 35  1  0
 18 36  1  0
 19 37  1  0
 20 38  1  0
 23 39  1  0
 25 40  1  0
 25 41  1  0
 25 42  1  0
M  END
