
     RDKit          3D

 30 32  0  0  0  0  0  0  0  0999 V2000
    3.4219   -1.0850   -0.0963 C   0  0  0  0  0  0  0  0  0  0  0  0
    1.9942   -0.6323    0.1673 C   0  0  1  0  0  0  0  0  0  0  0  0
   -0.2775   -0.2697   -0.8256 C   0  0  0  0  0  0  0  0  0  0  0  0
   -0.6101    1.0740   -1.1219 C   0  0  0  0  0  0  0  0  0  0  0  0
   -1.8586    1.5660   -0.8585 C   0  0  0  0  0  0  0  0  0  0  0  0
   -2.8529    0.7434   -0.2807 C   0  0  0  0  0  0  0  0  0  0  0  0
   -2.5306   -0.6060    0.0177 C   0  0  0  0  0  0  0  0  0  0  0  0
   -1.2306   -1.0822   -0.2665 C   0  0  0  0  0  0  0  0  0  0  0  0
    2.1930    0.7295    0.5938 N   0  0  0  0  0  0  0  0  0  0  0  0
    3.4949    1.0723    0.6808 C   0  0  0  0  0  0  0  0  0  0  0  0
    4.2175   -0.0325    0.2312 N   0  0  0  0  0  0  0  0  0  0  0  0
   -3.5231   -1.4367    0.5913 C   0  0  0  0  0  0  0  0  0  0  0  0
   -4.7731   -0.9482    0.8560 C   0  0  0  0  0  0  0  0  0  0  0  0
   -5.0927    0.3948    0.5598 C   0  0  0  0  0  0  0  0  0  0  0  0
   -4.1543    1.2205    0.0034 C   0  0  0  0  0  0  0  0  0  0  0  0
    1.1149   -0.7746   -1.0783 C   0  0  0  0  0  0  0  0  0  0  0  0
    3.7710   -2.1586   -0.5241 O   0  0  0  0  0  0  0  0  0  0  0  0
    3.9772    2.1150    1.0618 O   0  0  0  0  0  0  0  0  0  0  0  0
    1.5775   -1.2419    0.9769 H   0  0  0  0  0  0  0  0  0  0  0  0
    5.2245   -0.0303    0.1511 H   0  0  0  0  0  0  0  0  0  0  0  0
    1.4707    1.2946    1.0100 H   0  0  0  0  0  0  0  0  0  0  0  0
    1.5731   -0.2297   -1.9066 H   0  0  0  0  0  0  0  0  0  0  0  0
    1.0924   -1.8302   -1.3532 H   0  0  0  0  0  0  0  0  0  0  0  0
    0.1373    1.7156   -1.5730 H   0  0  0  0  0  0  0  0  0  0  0  0
   -0.9935   -2.1149   -0.0330 H   0  0  0  0  0  0  0  0  0  0  0  0
   -2.0989    2.5952   -1.0965 H   0  0  0  0  0  0  0  0  0  0  0  0
   -4.3967    2.2508   -0.2280 H   0  0  0  0  0  0  0  0  0  0  0  0
   -3.2781   -2.4670    0.8196 H   0  0  0  0  0  0  0  0  0  0  0  0
   -5.5250   -1.5911    1.2950 H   0  0  0  0  0  0  0  0  0  0  0  0
   -6.0858    0.7670    0.7752 H   0  0  0  0  0  0  0  0  0  0  0  0
  1  2  1  0
  1 11  1  0
  1 17  2  0
  2  9  1  0
  2 16  1  0
  3  4  2  0
  3  8  1  0
  3 16  1  0
  4  5  1  0
  5  6  2  0
  6  7  1  0
  6 15  1  0
  7  8  2  0
  7 12  1  0
  9 10  1  0
 10 11  1  0
 10 18  2  0
 12 13  2  0
 13 14  1  0
 14 15  2  0
  2 19  1  1
 11 20  1  0
  9 21  1  0
 16 22  1  0
 16 23  1  0
  4 24  1  0
  8 25  1  0
  5 26  1  0
 15 27  1  0
 12 28  1  0
 13 29  1  0
 14 30  1  0
M  END
