
     RDKit          3D

 54 58  0  0  0  0  0  0  0  0999 V2000
   -0.7247    2.3332   -1.3962 N   0  0  0  0  0  0  0  0  0  0  0  0
    1.6150    2.1112   -1.7736 N   0  0  0  0  0  0  0  0  0  0  0  0
    1.5798    1.2207   -0.7870 C   0  0  0  0  0  0  0  0  0  0  0  0
    0.4666    0.8179   -0.0538 C   0  0  0  0  0  0  0  0  0  0  0  0
   -0.7614    1.4369   -0.3989 C   0  0  0  0  0  0  0  0  0  0  0  0
    2.1129   -0.2940    0.6945 C   0  0  0  0  0  0  0  0  0  0  0  0
   -2.1622    0.2559    1.2692 C   0  0  0  0  0  0  0  0  0  0  0  0
   -3.1423   -0.8241    0.8383 C   0  0  0  0  0  0  0  0  0  0  0  0
   -3.1785    1.8130   -0.2511 C   0  0  0  0  0  0  0  0  0  0  0  0
   -6.7579   -0.4972   -0.0119 C   0  0  0  0  0  0  0  0  0  0  0  0
   -7.8136   -2.6645    0.1002 C   0  0  0  0  0  0  0  0  0  0  0  0
    4.0039    0.5753   -0.7209 C   0  0  2  0  0  0  0  0  0  0  0  0
    0.4158    2.6122   -2.0109 C   0  0  0  0  0  0  0  0  0  0  0  0
    4.9281    1.2309    0.3104 C   0  0  1  0  0  0  0  0  0  0  0  0
   -4.1593    0.7405   -0.6902 C   0  0  0  0  0  0  0  0  0  0  0  0
   -5.4998   -1.0569    0.2599 C   0  0  0  0  0  0  0  0  0  0  0  0
   -7.8893   -1.2894   -0.0946 C   0  0  0  0  0  0  0  0  0  0  0  0
   -6.5778   -3.2277    0.3743 C   0  0  0  0  0  0  0  0  0  0  0  0
    6.2544    0.5278    0.0207 C   0  0  1  0  0  0  0  0  0  0  0  0
   -5.4333   -2.4426    0.4459 C   0  0  0  0  0  0  0  0  0  0  0  0
    5.7600   -0.8874   -0.2780 C   0  0  1  0  0  0  0  0  0  0  0  0
    5.6313   -1.7353    0.9732 C   0  0  0  0  0  0  0  0  0  0  0  0
   -1.9415    1.2054    0.1976 N   0  0  0  0  0  0  0  0  0  0  0  0
   -4.3791   -0.2315    0.3723 N   0  0  0  0  0  0  0  0  0  0  0  0
    0.8358   -0.1364    0.8652 N   0  0  0  0  0  0  0  0  0  0  0  0
    2.6263    0.5009   -0.2897 N   0  0  0  0  0  0  0  0  0  0  0  0
    4.9018    2.6123    0.1506 O   0  0  0  0  0  0  0  0  0  0  0  0
    6.8293    1.1439   -1.1003 O   0  0  0  0  0  0  0  0  0  0  0  0
    4.4946   -0.7173   -0.9234 O   0  0  0  0  0  0  0  0  0  0  0  0
    5.0621   -2.9700    0.6210 O   0  0  0  0  0  0  0  0  0  0  0  0
    2.7268   -0.9888    1.2474 H   0  0  0  0  0  0  0  0  0  0  0  0
   -2.5760    0.7938    2.1280 H   0  0  0  0  0  0  0  0  0  0  0  0
   -1.2298   -0.2028    1.5808 H   0  0  0  0  0  0  0  0  0  0  0  0
   -2.6698   -1.4611    0.0746 H   0  0  0  0  0  0  0  0  0  0  0  0
   -3.3436   -1.4503    1.7084 H   0  0  0  0  0  0  0  0  0  0  0  0
   -2.9827    2.4951   -1.0723 H   0  0  0  0  0  0  0  0  0  0  0  0
   -3.6097    2.3869    0.5752 H   0  0  0  0  0  0  0  0  0  0  0  0
   -8.7007   -3.2809    0.0410 H   0  0  0  0  0  0  0  0  0  0  0  0
    3.9993    1.1552   -1.6500 H   0  0  0  0  0  0  0  0  0  0  0  0
    0.3506    3.3456   -2.8075 H   0  0  0  0  0  0  0  0  0  0  0  0
    4.6046    0.9403    1.3196 H   0  0  0  0  0  0  0  0  0  0  0  0
   -5.0951    1.2283   -0.9555 H   0  0  0  0  0  0  0  0  0  0  0  0
   -3.7799    0.2487   -1.5981 H   0  0  0  0  0  0  0  0  0  0  0  0
   -8.8438   -0.8225   -0.3021 H   0  0  0  0  0  0  0  0  0  0  0  0
   -6.4894   -4.2965    0.5230 H   0  0  0  0  0  0  0  0  0  0  0  0
    6.9286    0.5448    0.8868 H   0  0  0  0  0  0  0  0  0  0  0  0
   -4.4882   -2.9306    0.6401 H   0  0  0  0  0  0  0  0  0  0  0  0
    6.4252   -1.3998   -0.9806 H   0  0  0  0  0  0  0  0  0  0  0  0
    6.6359   -1.8497    1.4015 H   0  0  0  0  0  0  0  0  0  0  0  0
    5.0260   -1.2134    1.7271 H   0  0  0  0  0  0  0  0  0  0  0  0
    5.3251    3.0198    0.9127 H   0  0  0  0  0  0  0  0  0  0  0  0
    7.6333    0.6683   -1.3322 H   0  0  0  0  0  0  0  0  0  0  0  0
    4.9388   -3.4826    1.4248 H   0  0  0  0  0  0  0  0  0  0  0  0
   -6.8613    0.5729   -0.1363 H   0  0  0  0  0  0  0  0  0  0  0  0
 30 22  1  0
 22 21  1  0
 21 19  1  0
 21 29  1  0
 28 19  1  0
 19 14  1  0
 29 12  1  0
 12 14  1  0
 12 26  1  0
 14 27  1  0
 26  3  1  0
 26  6  1  0
  2  3  2  0
  2 13  1  0
  3  4  1  0
  6 25  2  0
 13  1  2  0
  4 25  1  0
  4  5  2  0
  1  5  1  0
  5 23  1  0
 23  9  1  0
 23  7  1  0
  9 15  1  0
  7  8  1  0
 17 10  2  0
 17 11  1  0
 10 16  1  0
 15 24  1  0
 11 18  2  0
  8 24  1  0
 16 24  1  0
 16 20  2  0
 18 20  1  0
  6 31  1  0
  7 32  1  0
  7 33  1  0
  8 34  1  0
  8 35  1  0
  9 36  1  0
  9 37  1  0
 10 54  1  0
 11 38  1  0
 12 39  1  6
 13 40  1  0
 14 41  1  1
 15 42  1  0
 15 43  1  0
 17 44  1  0
 18 45  1  0
 19 46  1  1
 20 47  1  0
 21 48  1  6
 22 49  1  0
 22 50  1  0
 27 51  1  0
 28 52  1  0
 30 53  1  0
M  END
