
     RDKit          3D

 34 33  0  0  0  0  0  0  0  0999 V2000
    5.8348   -1.3388   -0.0238 O   0  0  0  0  0  0  0  0  0  0  0  0
    5.6113   -0.1338    0.0006 C   0  0  0  0  0  0  0  0  0  0  0  0
    6.7256    0.8831    0.0129 C   0  0  0  0  0  0  0  0  0  0  0  0
    4.3685    0.3674    0.0171 N   0  0  0  0  0  0  0  0  0  0  0  0
    3.1798   -0.4599    0.0067 C   0  0  0  0  0  0  0  0  0  0  0  0
    1.9273    0.4016    0.0183 C   0  0  0  0  0  0  0  0  0  0  0  0
    0.6572   -0.4385    0.0066 C   0  0  0  0  0  0  0  0  0  0  0  0
   -0.6081    0.4098    0.0160 C   0  0  0  0  0  0  0  0  0  0  0  0
   -1.8772   -0.4316    0.0032 C   0  0  0  0  0  0  0  0  0  0  0  0
   -3.1317    0.4272    0.0121 C   0  0  0  0  0  0  0  0  0  0  0  0
   -4.3177   -0.4038   -0.0020 N   0  0  0  0  0  0  0  0  0  0  0  0
   -5.5624    0.0925    0.0207 C   0  0  0  0  0  0  0  0  0  0  0  0
   -5.7906    1.2962    0.0566 O   0  0  0  0  0  0  0  0  0  0  0  0
   -6.6728   -0.9289    0.0001 C   0  0  0  0  0  0  0  0  0  0  0  0
    7.3452    0.7553   -0.8746 H   0  0  0  0  0  0  0  0  0  0  0  0
    6.3753    1.9130    0.0412 H   0  0  0  0  0  0  0  0  0  0  0  0
    7.3640    0.7130    0.8798 H   0  0  0  0  0  0  0  0  0  0  0  0
    4.2492    1.3670    0.0372 H   0  0  0  0  0  0  0  0  0  0  0  0
    3.1789   -1.1005   -0.8802 H   0  0  0  0  0  0  0  0  0  0  0  0
    3.1795   -1.1240    0.8762 H   0  0  0  0  0  0  0  0  0  0  0  0
    1.9326    1.0431    0.9056 H   0  0  0  0  0  0  0  0  0  0  0  0
    1.9333    1.0671   -0.8512 H   0  0  0  0  0  0  0  0  0  0  0  0
    0.6548   -1.0848   -0.8775 H   0  0  0  0  0  0  0  0  0  0  0  0
    0.6533   -1.1065    0.8745 H   0  0  0  0  0  0  0  0  0  0  0  0
   -0.6066    1.0551    0.9009 H   0  0  0  0  0  0  0  0  0  0  0  0
   -0.6038    1.0786   -0.8512 H   0  0  0  0  0  0  0  0  0  0  0  0
   -1.8804   -1.0739   -0.8836 H   0  0  0  0  0  0  0  0  0  0  0  0
   -1.8834   -1.0965    0.8730 H   0  0  0  0  0  0  0  0  0  0  0  0
   -3.1354    1.0666    0.8997 H   0  0  0  0  0  0  0  0  0  0  0  0
   -3.1304    1.0924   -0.8566 H   0  0  0  0  0  0  0  0  0  0  0  0
   -4.1951   -1.4026   -0.0359 H   0  0  0  0  0  0  0  0  0  0  0  0
   -6.3187   -1.9575   -0.0323 H   0  0  0  0  0  0  0  0  0  0  0  0
   -7.2949   -0.8074    0.8867 H   0  0  0  0  0  0  0  0  0  0  0  0
   -7.3095   -0.7571   -0.8676 H   0  0  0  0  0  0  0  0  0  0  0  0
  1  2  2  0
  2  3  1  0
  2  4  1  0
  4  5  1  0
  5  6  1  0
  6  7  1  0
  7  8  1  0
  8  9  1  0
  9 10  1  0
 10 11  1  0
 11 12  1  0
 12 13  2  0
 12 14  1  0
  3 15  1  0
  3 16  1  0
  3 17  1  0
  4 18  1  0
  5 19  1  0
  5 20  1  0
  6 21  1  0
  6 22  1  0
  7 23  1  0
  7 24  1  0
  8 25  1  0
  8 26  1  0
  9 27  1  0
  9 28  1  0
 10 29  1  0
 10 30  1  0
 11 31  1  0
 14 32  1  0
 14 33  1  0
 14 34  1  0
M  END
