
     RDKit          3D

 50 52  0  0  0  0  0  0  0  0999 V2000
    1.1189   -0.8230   -0.6878 O   0  0  0  0  0  0  0  0  0  0  0  0
    1.1080    0.3155   -0.2621 C   0  0  0  0  0  0  0  0  0  0  0  0
    2.2390    0.9689    0.1537 N   0  0  0  0  0  0  0  0  0  0  0  0
    3.5086    0.4242    0.1240 C   0  0  0  0  0  0  0  0  0  0  0  0
    3.9851   -0.8651    0.0038 C   0  0  0  0  0  0  0  0  0  0  0  0
    5.3855   -0.7261    0.0998 C   0  0  0  0  0  0  0  0  0  0  0  0
    6.4186   -1.8191   -0.0013 C   0  0  1  0  0  0  0  0  0  0  0  0
    5.9373   -3.0542    0.7655 C   0  0  0  0  0  0  0  0  0  0  0  0
    6.6057   -2.1865   -1.4795 C   0  0  0  0  0  0  0  0  0  0  0  0
    7.7596   -1.3568    0.5702 C   0  0  0  0  0  0  0  0  0  0  0  0
    5.7271    0.5354    0.2644 N   0  0  0  0  0  0  0  0  0  0  0  0
    4.5808    1.2298    0.2646 N   0  0  0  0  0  0  0  0  0  0  0  0
    4.5851    2.6607    0.4463 C   0  0  0  0  0  0  0  0  0  0  0  0
   -0.0147    1.0861   -0.1370 N   0  0  0  0  0  0  0  0  0  0  0  0
   -1.3274    0.7141   -0.4312 C   0  0  0  0  0  0  0  0  0  0  0  0
   -1.7818   -0.6051   -0.4286 C   0  0  0  0  0  0  0  0  0  0  0  0
   -3.1181   -0.8787   -0.6826 C   0  0  0  0  0  0  0  0  0  0  0  0
   -4.0057    0.1514   -0.9361 C   0  0  0  0  0  0  0  0  0  0  0  0
   -3.5706    1.4663   -0.9383 C   0  0  0  0  0  0  0  0  0  0  0  0
   -2.2372    1.7409   -0.6926 C   0  0  0  0  0  0  0  0  0  0  0  0
   -5.3226   -0.1387   -1.2225 O   0  0  0  0  0  0  0  0  0  0  0  0
   -6.2382   -0.0740   -0.2348 C   0  0  0  0  0  0  0  0  0  0  0  0
   -5.9413    0.2001    1.0952 C   0  0  0  0  0  0  0  0  0  0  0  0
   -6.9931    0.2352    1.9989 C   0  0  0  0  0  0  0  0  0  0  0  0
   -8.2638    0.0253    1.6811 N   0  0  0  0  0  0  0  0  0  0  0  0
   -8.5260   -0.2380    0.4033 C   0  0  0  0  0  0  0  0  0  0  0  0
   -7.5655   -0.3009   -0.5882 C   0  0  0  0  0  0  0  0  0  0  0  0
    2.1425    1.8862    0.5626 H   0  0  0  0  0  0  0  0  0  0  0  0
    3.4151   -1.7668   -0.1254 H   0  0  0  0  0  0  0  0  0  0  0  0
    5.0089   -3.4512    0.3510 H   0  0  0  0  0  0  0  0  0  0  0  0
    6.6846   -3.8483    0.7123 H   0  0  0  0  0  0  0  0  0  0  0  0
    5.7632   -2.8284    1.8189 H   0  0  0  0  0  0  0  0  0  0  0  0
    6.9583   -1.3293   -2.0562 H   0  0  0  0  0  0  0  0  0  0  0  0
    7.3418   -2.9868   -1.5863 H   0  0  0  0  0  0  0  0  0  0  0  0
    5.6719   -2.5311   -1.9270 H   0  0  0  0  0  0  0  0  0  0  0  0
    7.6748   -1.0732    1.6204 H   0  0  0  0  0  0  0  0  0  0  0  0
    8.4891   -2.1653    0.4995 H   0  0  0  0  0  0  0  0  0  0  0  0
    8.1551   -0.5015    0.0225 H   0  0  0  0  0  0  0  0  0  0  0  0
    4.2108    2.9435    1.4310 H   0  0  0  0  0  0  0  0  0  0  0  0
    5.6090    3.0076    0.3509 H   0  0  0  0  0  0  0  0  0  0  0  0
    3.9813    3.1487   -0.3179 H   0  0  0  0  0  0  0  0  0  0  0  0
    0.1136    2.0679    0.0583 H   0  0  0  0  0  0  0  0  0  0  0  0
   -1.1124   -1.4249   -0.2245 H   0  0  0  0  0  0  0  0  0  0  0  0
   -3.4628   -1.9051   -0.6792 H   0  0  0  0  0  0  0  0  0  0  0  0
   -4.2619    2.2750   -1.1388 H   0  0  0  0  0  0  0  0  0  0  0  0
   -1.8983    2.7698   -0.7014 H   0  0  0  0  0  0  0  0  0  0  0  0
   -4.9334    0.3847    1.4397 H   0  0  0  0  0  0  0  0  0  0  0  0
   -6.7814    0.4467    3.0412 H   0  0  0  0  0  0  0  0  0  0  0  0
   -9.5656   -0.4077    0.1461 H   0  0  0  0  0  0  0  0  0  0  0  0
   -7.8412   -0.5173   -1.6116 H   0  0  0  0  0  0  0  0  0  0  0  0
 24 25  1  0
 24 23  2  0
 25 26  2  0
 23 22  1  0
 26 27  1  0
 22 27  2  0
 22 21  1  0
 21 18  1  0
 18 19  2  0
 18 17  1  0
 19 20  1  0
 17 16  2  0
 20 15  2  0
 16 15  1  0
 15 14  1  0
 14  2  1  0
  2  1  2  0
  2  3  1  0
  3  4  1  0
  5  4  2  0
  5  6  1  0
  4 12  1  0
  7 10  1  1
 12 13  1  0
 12 11  1  0
  6  7  1  0
  6 11  2  0
  8  7  1  0
  7  9  1  0
  3 28  1  0
  5 29  1  0
  8 30  1  0
  8 31  1  0
  8 32  1  0
  9 33  1  0
  9 34  1  0
  9 35  1  0
 10 36  1  0
 10 37  1  0
 10 38  1  0
 13 39  1  0
 13 40  1  0
 13 41  1  0
 14 42  1  0
 16 43  1  0
 17 44  1  0
 19 45  1  0
 20 46  1  0
 23 47  1  0
 24 48  1  0
 26 49  1  0
 27 50  1  0
M  END
