
     RDKit          3D

 30 30  0  0  0  0  0  0  0  0999 V2000
    0.5713   -0.4992    3.1442 C   0  0  0  0  0  0  0  0  0  0  0  0
   -0.0906    0.0126    1.8757 C   0  0  2  0  0  0  0  0  0  0  0  0
    0.7926   -0.3540    0.6759 C   0  0  0  0  0  0  0  0  0  0  0  0
    0.2910    0.1256   -0.6841 C   0  0  1  0  0  0  0  0  0  0  0  0
    1.3222   -0.1800   -1.7709 C   0  0  0  0  0  0  0  0  0  0  0  0
    0.8641    0.2852   -3.1486 C   0  0  0  0  0  0  0  0  0  0  0  0
   -0.4902   -0.3134   -3.5148 C   0  0  0  0  0  0  0  0  0  0  0  0
   -1.5297   -0.0155   -2.4401 C   0  0  0  0  0  0  0  0  0  0  0  0
   -1.0624   -0.4785   -1.0635 C   0  0  0  0  0  0  0  0  0  0  0  0
   -0.3865    1.4323    2.0079 N   0  0  0  0  0  0  0  0  0  0  0  0
   -0.2906   -0.3338    4.2458 O   0  0  0  0  0  0  0  0  0  0  0  0
    0.8341   -1.5553    2.9971 H   0  0  0  0  0  0  0  0  0  0  0  0
    1.5192    0.0405    3.2921 H   0  0  0  0  0  0  0  0  0  0  0  0
   -1.0501   -0.5071    1.7740 H   0  0  0  0  0  0  0  0  0  0  0  0
    1.7965    0.0573    0.8442 H   0  0  0  0  0  0  0  0  0  0  0  0
    0.9130   -1.4430    0.6419 H   0  0  0  0  0  0  0  0  0  0  0  0
    0.1745    1.2173   -0.6434 H   0  0  0  0  0  0  0  0  0  0  0  0
    2.2778    0.2863   -1.5129 H   0  0  0  0  0  0  0  0  0  0  0  0
    1.5033   -1.2615   -1.7944 H   0  0  0  0  0  0  0  0  0  0  0  0
    0.7883    1.3783   -3.1552 H   0  0  0  0  0  0  0  0  0  0  0  0
    1.6111    0.0233   -3.9024 H   0  0  0  0  0  0  0  0  0  0  0  0
   -0.8250    0.0691   -4.4824 H   0  0  0  0  0  0  0  0  0  0  0  0
   -0.3884   -1.3985   -3.6294 H   0  0  0  0  0  0  0  0  0  0  0  0
   -1.7213    1.0628   -2.4125 H   0  0  0  0  0  0  0  0  0  0  0  0
   -2.4812   -0.4906   -2.6923 H   0  0  0  0  0  0  0  0  0  0  0  0
   -0.9761   -1.5723   -1.0576 H   0  0  0  0  0  0  0  0  0  0  0  0
   -1.8199   -0.2278   -0.3155 H   0  0  0  0  0  0  0  0  0  0  0  0
    0.4785    1.9630    1.9989 H   0  0  0  0  0  0  0  0  0  0  0  0
   -0.9092    1.7512    1.2014 H   0  0  0  0  0  0  0  0  0  0  0  0
    0.1446   -0.7039    5.0188 H   0  0  0  0  0  0  0  0  0  0  0  0
  1  2  1  0
  1 11  1  0
  1 12  1  0
  1 13  1  0
  2  3  1  0
  2 10  1  0
  2 14  1  6
  3  4  1  0
  3 15  1  0
  3 16  1  0
  4  5  1  0
  4  9  1  0
  4 17  1  1
  5  6  1  0
  5 18  1  0
  5 19  1  0
  6  7  1  0
  6 20  1  0
  6 21  1  0
  7  8  1  0
  7 22  1  0
  7 23  1  0
  8  9  1  0
  8 24  1  0
  8 25  1  0
  9 26  1  0
  9 27  1  0
 10 28  1  0
 10 29  1  0
 11 30  1  0
M  END
