
     RDKit          3D

 42 44  0  0  0  0  0  0  0  0999 V2000
   -0.2248   -3.8361    0.6264 F   0  0  0  0  0  0  0  0  0  0  0  0
   -1.3141   -3.0542    0.5129 C   0  0  0  0  0  0  0  0  0  0  0  0
   -1.1519   -1.7302    0.1747 C   0  0  0  0  0  0  0  0  0  0  0  0
   -2.5665   -3.5959    0.7289 C   0  0  0  0  0  0  0  0  0  0  0  0
   -3.6753   -2.7744    0.6128 C   0  0  0  0  0  0  0  0  0  0  0  0
   -3.5396   -1.4308    0.2715 C   0  0  0  0  0  0  0  0  0  0  0  0
   -4.6701   -0.6988    0.1940 O   0  0  0  0  0  0  0  0  0  0  0  0
   -2.2657   -0.9023    0.0358 C   0  0  0  0  0  0  0  0  0  0  0  0
   -2.0544    0.5076   -0.3530 C   0  0  0  0  0  0  0  0  0  0  0  0
   -1.1458    1.2820    0.3627 C   0  0  0  0  0  0  0  0  0  0  0  0
   -2.6911    1.0701   -1.4602 C   0  0  0  0  0  0  0  0  0  0  0  0
   -2.4195    2.3740   -1.8501 C   0  0  0  0  0  0  0  0  0  0  0  0
   -1.4902    3.1360   -1.1597 C   0  0  0  0  0  0  0  0  0  0  0  0
   -0.8642    2.5733   -0.0565 C   0  0  0  0  0  0  0  0  0  0  0  0
    0.4248    3.4601    0.7689 S   0  0  1  0  0  0  0  0  0  0  0  0
    0.3377    4.8686    0.4387 O   0  0  0  0  0  0  0  0  0  0  0  0
    0.4618    3.0266    2.1512 O   0  0  0  0  0  0  0  0  0  0  0  0
    1.8275    2.9203    0.0318 N   0  0  0  0  0  0  0  0  0  0  0  0
    2.0960    1.5350   -0.0059 C   0  0  0  0  0  0  0  0  0  0  0  0
    2.3784    0.8422    1.1749 C   0  0  0  0  0  0  0  0  0  0  0  0
    2.6142   -0.5122    1.1111 C   0  0  0  0  0  0  0  0  0  0  0  0
    2.0792    0.8781   -1.2237 C   0  0  0  0  0  0  0  0  0  0  0  0
    2.3452   -0.4897   -1.2925 C   0  0  0  0  0  0  0  0  0  0  0  0
    2.3180   -1.0604   -2.4924 O   0  0  0  0  0  0  0  0  0  0  0  0
    2.5998   -1.2043   -0.1047 C   0  0  0  0  0  0  0  0  0  0  0  0
    2.8384   -2.6498   -0.1799 C   0  0  0  0  0  0  0  0  0  0  0  0
    3.0748   -3.2247    0.9802 O   0  0  0  0  0  0  0  0  0  0  0  0
    2.8209   -3.2717   -1.2307 O   0  0  0  0  0  0  0  0  0  0  0  0
   -0.1597   -1.3347   -0.0045 H   0  0  0  0  0  0  0  0  0  0  0  0
   -2.6813   -4.6393    0.9911 H   0  0  0  0  0  0  0  0  0  0  0  0
   -4.6632   -3.1758    0.7980 H   0  0  0  0  0  0  0  0  0  0  0  0
   -4.4766    0.2456    0.1636 H   0  0  0  0  0  0  0  0  0  0  0  0
   -0.6675    0.8674    1.2403 H   0  0  0  0  0  0  0  0  0  0  0  0
   -3.3798    0.4769   -2.0487 H   0  0  0  0  0  0  0  0  0  0  0  0
   -2.9218    2.7931   -2.7110 H   0  0  0  0  0  0  0  0  0  0  0  0
   -1.2652    4.1439   -1.4801 H   0  0  0  0  0  0  0  0  0  0  0  0
    1.9693    3.3912   -0.8571 H   0  0  0  0  0  0  0  0  0  0  0  0
    2.4257    1.3582    2.1215 H   0  0  0  0  0  0  0  0  0  0  0  0
    2.8261   -1.0438    2.0281 H   0  0  0  0  0  0  0  0  0  0  0  0
    1.8504    1.4159   -2.1360 H   0  0  0  0  0  0  0  0  0  0  0  0
    2.4952   -2.0190   -2.3815 H   0  0  0  0  0  0  0  0  0  0  0  0
    3.2201   -4.1757    0.8626 H   0  0  0  0  0  0  0  0  0  0  0  0
 16 15  2  0
  1  2  1  0
  4  2  2  0
  4  5  1  0
 15 18  1  6
 18 19  1  0
  2  3  1  0
 20 19  2  0
 20 21  1  0
  5  6  2  0
 15 17  2  0
 15 14  1  0
  3  8  2  0
 19 22  1  0
 21 25  2  0
  6  8  1  0
  6  7  1  0
 10 14  2  0
 10  9  1  0
  8  9  1  0
 14 13  1  0
  9 11  2  0
 25 23  1  0
 25 26  1  0
 22 23  2  0
 28 26  2  0
 23 24  1  0
 26 27  1  0
 13 12  2  0
 11 12  1  0
  3 29  1  0
  4 30  1  0
  5 31  1  0
  7 32  1  0
 10 33  1  0
 11 34  1  0
 12 35  1  0
 13 36  1  0
 18 37  1  0
 20 38  1  0
 21 39  1  0
 22 40  1  0
 24 41  1  0
 27 42  1  0
M  END
