
     RDKit          3D

 42 45  0  0  0  0  0  0  0  0999 V2000
    3.7252    0.8694    0.7721 C   0  0  0  0  0  0  0  0  0  0  0  0
    4.5101   -0.2449    1.4472 C   0  0  0  0  0  0  0  0  0  0  0  0
    5.2228   -1.1019    0.4079 C   0  0  0  0  0  0  0  0  0  0  0  0
    4.2236   -1.5916   -0.6333 C   0  0  0  0  0  0  0  0  0  0  0  0
    3.4472   -0.4297   -1.2341 C   0  0  0  0  0  0  0  0  0  0  0  0
    2.7879    0.3386   -0.1980 N   0  0  0  0  0  0  0  0  0  0  0  0
    1.9002    1.3569   -0.7101 C   0  0  0  0  0  0  0  0  0  0  0  0
    0.6714    1.5541    0.1727 C   0  0  1  0  0  0  0  0  0  0  0  0
   -0.0830    2.8618   -0.0754 C   0  0  0  0  0  0  0  0  0  0  0  0
   -1.5269    2.5479    0.3007 C   0  0  0  0  0  0  0  0  0  0  0  0
   -1.6034    1.1099    0.0628 N   0  0  0  0  0  0  0  0  0  0  0  0
   -0.3976    0.5185   -0.0337 C   0  0  0  0  0  0  0  0  0  0  0  0
   -0.1900   -0.7362   -0.2665 N   0  0  0  0  0  0  0  0  0  0  0  0
   -1.2644   -1.5768   -0.4216 C   0  0  0  0  0  0  0  0  0  0  0  0
   -1.0980   -2.7603   -0.6811 O   0  0  0  0  0  0  0  0  0  0  0  0
   -2.6128   -1.0061   -0.2536 C   0  0  0  0  0  0  0  0  0  0  0  0
   -2.7553    0.3639   -0.0047 C   0  0  0  0  0  0  0  0  0  0  0  0
   -4.0217    0.9287    0.1669 C   0  0  0  0  0  0  0  0  0  0  0  0
   -5.1345    0.1169    0.0835 C   0  0  0  0  0  0  0  0  0  0  0  0
   -5.0090   -1.2507   -0.1696 C   0  0  0  0  0  0  0  0  0  0  0  0
   -3.7563   -1.8031   -0.3352 C   0  0  0  0  0  0  0  0  0  0  0  0
    3.1727    1.4396    1.5240 H   0  0  0  0  0  0  0  0  0  0  0  0
    4.4304    1.5788    0.2995 H   0  0  0  0  0  0  0  0  0  0  0  0
    5.2224    0.1899    2.1520 H   0  0  0  0  0  0  0  0  0  0  0  0
    3.8209   -0.8664    2.0266 H   0  0  0  0  0  0  0  0  0  0  0  0
    6.0013   -0.5073   -0.0824 H   0  0  0  0  0  0  0  0  0  0  0  0
    5.7269   -1.9460    0.8838 H   0  0  0  0  0  0  0  0  0  0  0  0
    4.7295   -2.1424   -1.4294 H   0  0  0  0  0  0  0  0  0  0  0  0
    3.5158   -2.2814   -0.1634 H   0  0  0  0  0  0  0  0  0  0  0  0
    4.1343    0.1928   -1.8365 H   0  0  0  0  0  0  0  0  0  0  0  0
    2.6835   -0.8127   -1.9146 H   0  0  0  0  0  0  0  0  0  0  0  0
    2.4094    2.3285   -0.8177 H   0  0  0  0  0  0  0  0  0  0  0  0
    1.5661    1.0811   -1.7132 H   0  0  0  0  0  0  0  0  0  0  0  0
    0.9710    1.5014    1.2269 H   0  0  0  0  0  0  0  0  0  0  0  0
    0.3192    3.6935    0.4989 H   0  0  0  0  0  0  0  0  0  0  0  0
   -0.0268    3.1280   -1.1336 H   0  0  0  0  0  0  0  0  0  0  0  0
   -1.7472    2.7629    1.3483 H   0  0  0  0  0  0  0  0  0  0  0  0
   -2.2491    3.0762   -0.3196 H   0  0  0  0  0  0  0  0  0  0  0  0
   -4.1360    1.9855    0.3661 H   0  0  0  0  0  0  0  0  0  0  0  0
   -6.1162    0.5511    0.2190 H   0  0  0  0  0  0  0  0  0  0  0  0
   -5.8912   -1.8728   -0.2347 H   0  0  0  0  0  0  0  0  0  0  0  0
   -3.6465   -2.8620   -0.5276 H   0  0  0  0  0  0  0  0  0  0  0  0
  3  4  1  0
  3  2  1  0
  4  5  1  0
  2  1  1  0
  5  6  1  0
  1  6  1  0
  6  7  1  0
  7  8  1  0
  9 10  1  0
  9  8  1  0
 10 11  1  0
  8 12  1  0
 12 11  1  0
 12 13  2  0
 11 17  1  0
 18 17  1  0
 18 19  2  0
 17 16  2  0
 13 14  1  0
 19 20  1  0
 16 14  1  0
 16 21  1  0
 14 15  2  0
 20 21  2  0
  1 22  1  0
  1 23  1  0
  2 24  1  0
  2 25  1  0
  3 26  1  0
  3 27  1  0
  4 28  1  0
  4 29  1  0
  5 30  1  0
  5 31  1  0
  7 32  1  0
  7 33  1  0
  8 34  1  1
  9 35  1  0
  9 36  1  0
 10 37  1  0
 10 38  1  0
 18 39  1  0
 19 40  1  0
 20 41  1  0
 21 42  1  0
M  END
