
     RDKit          3D

 15 14  0  0  0  0  0  0  0  0999 V2000
    1.6126   -0.4344    1.4029 O   0  0  0  0  0  0  0  0  0  0  0  0
    1.2278   -0.4386   -0.0219 P   0  0  1  0  0  0  0  0  0  0  0  0
    2.3977   -0.2163   -1.0901 O   0  0  0  0  0  0  0  0  0  0  0  0
    0.5180   -1.7694   -0.5403 O   0  0  0  0  0  0  0  0  0  0  0  0
   -0.0422    0.8372   -0.4086 C   0  0  2  0  0  0  0  0  0  0  0  0
    0.3535    2.0034    0.2158 F   0  0  0  0  0  0  0  0  0  0  0  0
   -1.3968    0.4327    0.1557 C   0  0  0  0  0  0  0  0  0  0  0  0
   -1.6504    0.5477    1.3370 O   0  0  0  0  0  0  0  0  0  0  0  0
   -2.2155   -0.0713   -0.7717 N   0  0  0  0  0  0  0  0  0  0  0  0
   -3.4718   -0.4490   -0.4213 O   0  0  0  0  0  0  0  0  0  0  0  0
    3.1891    0.2102   -0.7339 H   0  0  0  0  0  0  0  0  0  0  0  0
    0.9150   -2.2185   -1.2982 H   0  0  0  0  0  0  0  0  0  0  0  0
   -0.0747    1.0117   -1.4879 H   0  0  0  0  0  0  0  0  0  0  0  0
   -2.0269   -0.0334   -1.7635 H   0  0  0  0  0  0  0  0  0  0  0  0
   -3.4795   -1.4153   -0.4436 H   0  0  0  0  0  0  0  0  0  0  0  0
  1  2  2  0
  2  3  1  6
  2  4  1  0
  2  5  1  0
  3 11  1  0
  4 12  1  0
  5  6  1  0
  5  7  1  0
  5 13  1  6
  7  8  2  0
  7  9  1  0
  9 10  1  0
  9 14  1  0
 10 15  1  0
M  END
