
     RDKit          3D

 25 25  0  0  0  0  0  0  0  0999 V2000
    3.1931   -0.9957   -0.5723 C   0  0  0  0  0  0  0  0  0  0  0  0
    2.4926   -0.4546    0.6739 C   0  0  0  0  0  0  0  0  0  0  0  0
    1.2168    0.2750    0.3508 C   0  0  0  0  0  0  0  0  0  0  0  0
    1.1869    1.6641    0.3062 C   0  0  0  0  0  0  0  0  0  0  0  0
    0.0309    2.3530   -0.0323 C   0  0  0  0  0  0  0  0  0  0  0  0
   -1.1205    1.6396   -0.3250 C   0  0  0  0  0  0  0  0  0  0  0  0
   -1.1408    0.2482   -0.2850 C   0  0  0  0  0  0  0  0  0  0  0  0
   -2.4211   -0.5000   -0.5516 C   0  0  0  0  0  0  0  0  0  0  0  0
   -3.1070   -0.9755    0.7303 C   0  0  0  0  0  0  0  0  0  0  0  0
    0.0406   -0.4223    0.0521 C   0  0  0  0  0  0  0  0  0  0  0  0
    0.1070   -1.7742    0.1146 O   0  0  0  0  0  0  0  0  0  0  0  0
    4.1189   -1.5076   -0.3065 H   0  0  0  0  0  0  0  0  0  0  0  0
    2.5622   -1.7038   -1.1081 H   0  0  0  0  0  0  0  0  0  0  0  0
    3.4446   -0.1853   -1.2577 H   0  0  0  0  0  0  0  0  0  0  0  0
    2.3012   -1.2736    1.3709 H   0  0  0  0  0  0  0  0  0  0  0  0
    3.1663    0.2318    1.1914 H   0  0  0  0  0  0  0  0  0  0  0  0
    2.0925    2.2122    0.5408 H   0  0  0  0  0  0  0  0  0  0  0  0
    0.0280    3.4346   -0.0662 H   0  0  0  0  0  0  0  0  0  0  0  0
   -2.0305    2.1654   -0.5906 H   0  0  0  0  0  0  0  0  0  0  0  0
   -3.1016    0.1552   -1.0976 H   0  0  0  0  0  0  0  0  0  0  0  0
   -2.2518   -1.3499   -1.2222 H   0  0  0  0  0  0  0  0  0  0  0  0
   -4.0319   -1.5057    0.5020 H   0  0  0  0  0  0  0  0  0  0  0  0
   -2.4726   -1.6493    1.3076 H   0  0  0  0  0  0  0  0  0  0  0  0
   -3.3543   -0.1279    1.3699 H   0  0  0  0  0  0  0  0  0  0  0  0
   -0.7031   -2.1774   -0.2141 H   0  0  0  0  0  0  0  0  0  0  0  0
  1  2  1  0
  2  3  1  0
  3  4  2  0
  3 10  1  0
  4  5  1  0
  5  6  2  0
  6  7  1  0
  7  8  1  0
  7 10  2  0
  8  9  1  0
 10 11  1  0
  1 12  1  0
  1 13  1  0
  1 14  1  0
  2 15  1  0
  2 16  1  0
  4 17  1  0
  5 18  1  0
  6 19  1  0
  8 20  1  0
  8 21  1  0
  9 22  1  0
  9 23  1  0
  9 24  1  0
 11 25  1  0
M  END
