
     RDKit          3D

 17 17  0  0  0  0  0  0  0  0999 V2000
    0.2159   -0.0353    2.0132 C   0  0  0  0  0  0  0  0  0  0  0  0
   -0.7949   -0.0449    2.7034 O   0  0  0  0  0  0  0  0  0  0  0  0
    1.4241    0.0072    2.5431 O   0  0  0  0  0  0  0  0  0  0  0  0
    0.1907   -0.0715    0.5550 C   0  0  0  0  0  0  0  0  0  0  0  0
   -1.0537   -0.1256   -0.1121 C   0  0  0  0  0  0  0  0  0  0  0  0
   -1.0960   -0.1638   -1.5016 C   0  0  0  0  0  0  0  0  0  0  0  0
    0.0809   -0.1484   -2.2359 C   0  0  0  0  0  0  0  0  0  0  0  0
    1.3229   -0.0940   -1.5880 C   0  0  0  0  0  0  0  0  0  0  0  0
    1.3603   -0.0565   -0.2146 C   0  0  0  0  0  0  0  0  0  0  0  0
   -2.2140   -0.1434    0.5395 O   0  0  0  0  0  0  0  0  0  0  0  0
   -0.0236   -0.1878   -3.5685 O   0  0  0  0  0  0  0  0  0  0  0  0
    1.3620    0.0271    3.5097 H   0  0  0  0  0  0  0  0  0  0  0  0
   -2.0529   -0.2070   -2.0069 H   0  0  0  0  0  0  0  0  0  0  0  0
    2.2421   -0.0819   -2.1607 H   0  0  0  0  0  0  0  0  0  0  0  0
    2.3237   -0.0144    0.2747 H   0  0  0  0  0  0  0  0  0  0  0  0
   -2.0215   -0.1138    1.5016 H   0  0  0  0  0  0  0  0  0  0  0  0
    0.8485   -0.1728   -3.9798 H   0  0  0  0  0  0  0  0  0  0  0  0
  1  2  2  0
  1  3  1  0
  1  4  1  0
  3 12  1  0
  4  5  2  0
  4  9  1  0
  5  6  1  0
  5 10  1  0
  6  7  2  0
  6 13  1  0
  7  8  1  0
  7 11  1  0
  8  9  2  0
  8 14  1  0
  9 15  1  0
 10 16  1  0
 11 17  1  0
M  END
