
     RDKit          3D

 43 47  0  0  0  0  0  0  0  0999 V2000
    5.0160   -0.5552   -0.5644 C   0  0  0  0  0  0  0  0  0  0  0  0
    5.4520    0.3464    0.4029 C   0  0  0  0  0  0  0  0  0  0  0  0
    6.1579   -0.0972    1.5121 C   0  0  0  0  0  0  0  0  0  0  0  0
    4.2222   -0.0727   -1.7491 C   0  0  0  0  0  0  0  0  0  0  0  0
    0.8981    0.9734   -0.8200 C   0  0  0  0  0  0  0  0  0  0  0  0
    2.0442   -0.9349   -1.2010 N   0  0  0  0  0  0  0  0  0  0  0  0
   -0.1843    1.8778   -0.4868 C   0  0  0  0  0  0  0  0  0  0  0  0
   -2.2356    2.7277    0.1027 C   0  0  0  0  0  0  0  0  0  0  0  0
   -3.4215    0.3800    0.2797 C   0  0  0  0  0  0  0  0  0  0  0  0
   -4.0901    1.5915    0.5385 C   0  0  0  0  0  0  0  0  0  0  0  0
   -3.3892   -2.0985    0.5414 C   0  0  0  0  0  0  0  0  0  0  0  0
   -5.5023   -1.0313    0.3294 C   0  0  0  0  0  0  0  0  0  0  0  0
    6.4364   -1.4502    1.6635 C   0  0  0  0  0  0  0  0  0  0  0  0
    6.0070   -2.3544    0.7016 C   0  0  0  0  0  0  0  0  0  0  0  0
    5.2983   -1.9073   -0.4062 C   0  0  0  0  0  0  0  0  0  0  0  0
    2.8244    0.1164   -1.4153 N   0  0  0  0  0  0  0  0  0  0  0  0
    2.1920    1.2819   -1.1958 C   0  0  0  0  0  0  0  0  0  0  0  0
    0.8750   -0.4370   -0.8449 C   0  0  0  0  0  0  0  0  0  0  0  0
   -0.1513    3.2483   -0.4261 C   0  0  0  0  0  0  0  0  0  0  0  0
   -1.3734    3.7542   -0.0745 N   0  0  0  0  0  0  0  0  0  0  0  0
   -1.5282    1.5243   -0.1483 C   0  0  0  0  0  0  0  0  0  0  0  0
   -2.1356    0.3531   -0.0549 N   0  0  0  0  0  0  0  0  0  0  0  0
   -3.5039    2.7758    0.4508 N   0  0  0  0  0  0  0  0  0  0  0  0
   -4.1146   -0.9182    0.3869 C   0  0  0  0  0  0  0  0  0  0  0  0
   -4.0681   -3.3008    0.6390 C   0  0  0  0  0  0  0  0  0  0  0  0
   -5.3921   -3.4078    0.5926 N   0  0  0  0  0  0  0  0  0  0  0  0
   -6.0829   -2.2852    0.4386 C   0  0  0  0  0  0  0  0  0  0  0  0
    5.2408    1.4038    0.2886 H   0  0  0  0  0  0  0  0  0  0  0  0
    6.4946    0.6133    2.2560 H   0  0  0  0  0  0  0  0  0  0  0  0
    4.6009    0.8842   -2.1071 H   0  0  0  0  0  0  0  0  0  0  0  0
    4.2828   -0.7812   -2.5750 H   0  0  0  0  0  0  0  0  0  0  0  0
   -5.1292    1.5939    0.8421 H   0  0  0  0  0  0  0  0  0  0  0  0
   -6.1414   -0.1714    0.1845 H   0  0  0  0  0  0  0  0  0  0  0  0
    6.9881   -1.7974    2.5274 H   0  0  0  0  0  0  0  0  0  0  0  0
    6.2240   -3.4089    0.8129 H   0  0  0  0  0  0  0  0  0  0  0  0
    4.9658   -2.6163   -1.1549 H   0  0  0  0  0  0  0  0  0  0  0  0
    2.6892    2.2296   -1.3292 H   0  0  0  0  0  0  0  0  0  0  0  0
    0.0443   -1.0884   -0.6221 H   0  0  0  0  0  0  0  0  0  0  0  0
    0.6731    3.9184   -0.6105 H   0  0  0  0  0  0  0  0  0  0  0  0
   -1.5910    4.7329    0.0251 H   0  0  0  0  0  0  0  0  0  0  0  0
   -3.5112   -4.2230    0.7633 H   0  0  0  0  0  0  0  0  0  0  0  0
   -7.1621   -2.3808    0.3936 H   0  0  0  0  0  0  0  0  0  0  0  0
   -2.3095   -2.0838    0.5902 H   0  0  0  0  0  0  0  0  0  0  0  0
 27 12  2  0
 27 26  1  0
 12 24  1  0
 10 23  2  0
 10  9  1  0
 23  8  1  0
 26 25  2  0
 24  9  1  0
 24 11  2  0
  9 22  2  0
  8 20  1  0
  8 21  2  0
 25 11  1  0
 20 19  1  0
 22 21  1  0
 21  7  1  0
 19  7  2  0
  7  5  1  0
  5 18  1  0
  5 17  2  0
 18  6  2  0
 17 16  1  0
  6 16  1  0
 16  4  1  0
  4  1  1  0
  2  1  2  0
  2  3  1  0
  1 15  1  0
  3 13  2  0
 15 14  2  0
 13 14  1  0
  2 28  1  0
  3 29  1  0
  4 30  1  0
  4 31  1  0
 10 32  1  0
 11 43  1  0
 12 33  1  0
 13 34  1  0
 14 35  1  0
 15 36  1  0
 17 37  1  0
 18 38  1  0
 19 39  1  0
 20 40  1  0
 25 41  1  0
 27 42  1  0
M  END
