
     RDKit          3D

 21 22  0  0  0  0  0  0  0  0999 V2000
    0.8314    1.0741    0.0314 C   0  0  0  0  0  0  0  0  0  0  0  0
    3.5177    0.8528    0.0781 Cl  0  0  0  0  0  0  0  0  0  0  0  0
    1.9101    0.2250    0.0807 C   0  0  0  0  0  0  0  0  0  0  0  0
    1.7288   -1.1668    0.1339 C   0  0  0  0  0  0  0  0  0  0  0  0
   -3.0145   -0.6323    0.0489 C   0  0  0  0  0  0  0  0  0  0  0  0
   -2.8641    0.8011   -0.0083 C   0  0  0  0  0  0  0  0  0  0  0  0
   -1.6540    1.4019   -0.0155 C   0  0  0  0  0  0  0  0  0  0  0  0
   -4.0561   -1.2401    0.0608 O   0  0  0  0  0  0  0  0  0  0  0  0
   -1.8691   -1.3682    0.0952 O   0  0  0  0  0  0  0  0  0  0  0  0
   -1.5209    2.8857   -0.0718 C   0  0  0  0  0  0  0  0  0  0  0  0
   -0.4740    0.5723    0.0338 C   0  0  0  0  0  0  0  0  0  0  0  0
   -0.6401   -0.8117    0.0876 C   0  0  0  0  0  0  0  0  0  0  0  0
    0.4395   -1.6784    0.1363 C   0  0  0  0  0  0  0  0  0  0  0  0
    2.8168   -1.9330    0.1804 O   0  0  0  0  0  0  0  0  0  0  0  0
    0.9984    2.1418   -0.0102 H   0  0  0  0  0  0  0  0  0  0  0  0
   -2.4955    3.3669   -0.1023 H   0  0  0  0  0  0  0  0  0  0  0  0
   -0.9804    3.2599    0.7993 H   0  0  0  0  0  0  0  0  0  0  0  0
   -0.9600    3.1934   -0.9561 H   0  0  0  0  0  0  0  0  0  0  0  0
   -3.7763    1.3810   -0.0452 H   0  0  0  0  0  0  0  0  0  0  0  0
    0.2740   -2.7486    0.1772 H   0  0  0  0  0  0  0  0  0  0  0  0
    2.5784   -2.8679    0.2035 H   0  0  0  0  0  0  0  0  0  0  0  0
  2  3  1  0
  3  1  2  0
  3  4  1  0
  1 11  1  0
 11  7  1  0
 11 12  2  0
  7 10  1  0
  7  6  2  0
  6  5  1  0
  5  8  2  0
  5  9  1  0
  9 12  1  0
 12 13  1  0
 13  4  2  0
  4 14  1  0
  1 15  1  0
 10 16  1  0
 10 17  1  0
 10 18  1  0
  6 19  1  0
 13 20  1  0
 14 21  1  0
M  END
