
     RDKit          3D

 46 48  0  0  0  0  0  0  0  0999 V2000
   -3.1976   -1.6430    0.6128 C   0  0  0  0  0  0  0  0  0  0  0  0
   -2.4130    0.4020   -0.3993 C   0  0  0  0  0  0  0  0  0  0  0  0
   -4.5003   -1.2041    0.5204 C   0  0  0  0  0  0  0  0  0  0  0  0
   -3.7249    0.8382   -0.4961 C   0  0  0  0  0  0  0  0  0  0  0  0
   -2.1387   -0.8497    0.1544 C   0  0  0  0  0  0  0  0  0  0  0  0
   -4.7616    0.0422   -0.0379 C   0  0  0  0  0  0  0  0  0  0  0  0
    3.4419   -0.3574    0.9386 C   0  0  0  0  0  0  0  0  0  0  0  0
    3.2635   -0.9115   -1.2734 C   0  0  0  0  0  0  0  0  0  0  0  0
    0.3406   -0.8014    0.0418 C   0  0  0  0  0  0  0  0  0  0  0  0
    7.0341    1.9791    0.1856 C   0  0  0  0  0  0  0  0  0  0  0  0
    7.1153    0.4625    0.0487 C   0  0  0  0  0  0  0  0  0  0  0  0
    5.7017    2.5106   -0.3322 C   0  0  0  0  0  0  0  0  0  0  0  0
    5.9404   -0.2219    0.7392 C   0  0  0  0  0  0  0  0  0  0  0  0
    4.5228    1.8278    0.3533 C   0  0  0  0  0  0  0  0  0  0  0  0
    4.5998    0.3030    0.2101 C   0  0  2  0  0  0  0  0  0  0  0  0
    1.5116   -1.7495    0.2704 C   0  0  0  0  0  0  0  0  0  0  0  0
    4.3454   -0.1282   -1.1503 N   0  0  0  0  0  0  0  0  0  0  0  0
    2.7503   -1.0862    0.0178 N   0  0  0  0  0  0  0  0  0  0  0  0
   -6.7450    1.0787    1.3716 N   0  0  0  0  0  0  0  0  0  0  0  0
   -0.8615   -1.3887    0.2696 N   0  0  0  0  0  0  0  0  0  0  0  0
    2.7845   -1.4069   -2.2695 O   0  0  0  0  0  0  0  0  0  0  0  0
    0.5061    0.3475   -0.3050 O   0  0  0  0  0  0  0  0  0  0  0  0
   -6.4328    0.5879   -0.1751 S   0  0  1  0  0  0  0  0  0  0  0  0
   -2.9946   -2.6152    1.0451 H   0  0  0  0  0  0  0  0  0  0  0  0
   -1.6243    1.0378   -0.7647 H   0  0  0  0  0  0  0  0  0  0  0  0
   -5.3011   -1.8364    0.8799 H   0  0  0  0  0  0  0  0  0  0  0  0
   -3.9225    1.8046   -0.9392 H   0  0  0  0  0  0  0  0  0  0  0  0
    7.1493    2.2527    1.2396 H   0  0  0  0  0  0  0  0  0  0  0  0
    7.8606    2.4502   -0.3505 H   0  0  0  0  0  0  0  0  0  0  0  0
    7.1378    0.1873   -1.0113 H   0  0  0  0  0  0  0  0  0  0  0  0
    8.0475    0.0901    0.4774 H   0  0  0  0  0  0  0  0  0  0  0  0
    5.6328    3.5881   -0.1707 H   0  0  0  0  0  0  0  0  0  0  0  0
    5.6413    2.3646   -1.4160 H   0  0  0  0  0  0  0  0  0  0  0  0
    5.9893   -1.3049    0.6039 H   0  0  0  0  0  0  0  0  0  0  0  0
    5.9841   -0.0289    1.8146 H   0  0  0  0  0  0  0  0  0  0  0  0
    4.5290    2.0718    1.4192 H   0  0  0  0  0  0  0  0  0  0  0  0
    3.5750    2.1874   -0.0547 H   0  0  0  0  0  0  0  0  0  0  0  0
    1.5012   -2.1193    1.2970 H   0  0  0  0  0  0  0  0  0  0  0  0
    1.4208   -2.6178   -0.3843 H   0  0  0  0  0  0  0  0  0  0  0  0
    4.9029    0.1370   -1.9463 H   0  0  0  0  0  0  0  0  0  0  0  0
   -6.2880    1.9543    1.6052 H   0  0  0  0  0  0  0  0  0  0  0  0
   -7.7439    1.1476    1.5437 H   0  0  0  0  0  0  0  0  0  0  0  0
   -0.8317   -2.3464    0.5897 H   0  0  0  0  0  0  0  0  0  0  0  0
    3.1801   -0.2661    2.1140 O   0  0  0  0  0  0  0  0  0  0  0  0
   -6.4688    1.6828   -1.1358 O   0  0  0  0  0  0  0  0  0  0  0  0
   -7.2986   -0.5601   -0.4053 O   0  0  0  0  0  0  0  0  0  0  0  0
 12 14  1  0
 12 10  1  0
 14 15  1  0
 10 11  1  0
 44  7  2  0
 15  7  1  1
 15 13  1  0
 15 17  1  0
 11 13  1  0
  7 18  1  0
 17  8  1  0
 18 16  1  0
 18  8  1  0
 16  9  1  0
  8 21  2  0
 22  9  2  0
  9 20  1  0
 20  5  1  0
  5  2  1  0
  5  1  2  0
  2  4  2  0
  1  3  1  0
  4  6  1  0
  3  6  2  0
  6 23  1  0
 23 19  1  1
 46 23  2  0
 23 45  2  0
  1 24  1  0
  2 25  1  0
  3 26  1  0
  4 27  1  0
 10 28  1  0
 10 29  1  0
 11 30  1  0
 11 31  1  0
 12 32  1  0
 12 33  1  0
 13 34  1  0
 13 35  1  0
 14 36  1  0
 14 37  1  0
 16 38  1  0
 16 39  1  0
 17 40  1  0
 19 41  1  0
 19 42  1  0
 20 43  1  0
M  END
