
     RDKit          3D

 17 17  0  0  0  0  0  0  0  0999 V2000
   -0.0963    0.0228   -2.1032 C   0  0  0  0  0  0  0  0  0  0  0  0
   -1.1286   -0.0008   -2.7379 O   0  0  0  0  0  0  0  0  0  0  0  0
    1.0988    0.0444   -2.6896 O   0  0  0  0  0  0  0  0  0  0  0  0
   -0.0245    0.0295   -0.6363 C   0  0  0  0  0  0  0  0  0  0  0  0
   -1.2126    0.0078    0.0999 C   0  0  0  0  0  0  0  0  0  0  0  0
   -1.2017    0.0080    1.4768 C   0  0  0  0  0  0  0  0  0  0  0  0
    0.0142    0.0300    2.1823 C   0  0  0  0  0  0  0  0  0  0  0  0
    1.2092    0.0516    1.4428 C   0  0  0  0  0  0  0  0  0  0  0  0
    1.1854    0.0514    0.0649 C   0  0  0  0  0  0  0  0  0  0  0  0
    0.0331    0.0694    3.5407 N   0  0  0  0  0  0  0  0  0  0  0  0
    0.9865    0.0377   -3.6509 H   0  0  0  0  0  0  0  0  0  0  0  0
   -2.1637   -0.0123   -0.4163 H   0  0  0  0  0  0  0  0  0  0  0  0
   -2.1362   -0.0119    2.0245 H   0  0  0  0  0  0  0  0  0  0  0  0
    2.1587    0.0672    1.9641 H   0  0  0  0  0  0  0  0  0  0  0  0
    2.1282    0.0662   -0.4654 H   0  0  0  0  0  0  0  0  0  0  0  0
    0.8881   -0.1753    4.0114 H   0  0  0  0  0  0  0  0  0  0  0  0
   -0.8006   -0.2001    4.0352 H   0  0  0  0  0  0  0  0  0  0  0  0
  1  2  2  0
  1  3  1  0
  1  4  1  0
  3 11  1  0
  4  5  2  0
  4  9  1  0
  5  6  1  0
  5 12  1  0
  6  7  2  0
  6 13  1  0
  7  8  1  0
  7 10  1  0
  8  9  2  0
  8 14  1  0
  9 15  1  0
 10 16  1  0
 10 17  1  0
M  END
