
     RDKit          3D

 80 82  0  0  0  0  0  0  0  0999 V2000
   -6.0431    1.1277    0.1123 C   0  0  0  0  0  0  0  0  0  0  0  0
   -5.0430    2.1020    0.0679 C   0  0  0  0  0  0  0  0  0  0  0  0
   -5.2760    3.3855   -0.4264 C   0  0  0  0  0  0  0  0  0  0  0  0
   -6.5534    3.6866   -0.8911 C   0  0  0  0  0  0  0  0  0  0  0  0
   -7.5620    2.7350   -0.8685 C   0  0  0  0  0  0  0  0  0  0  0  0
   -7.3060    1.4683   -0.3657 C   0  0  0  0  0  0  0  0  0  0  0  0
   -4.1835    4.4147   -0.4393 C   0  0  0  0  0  0  0  0  0  0  0  0
   -5.7731   -0.2372    0.6760 C   0  0  0  0  0  0  0  0  0  0  0  0
    5.3546    0.3632   -0.8564 C   0  0  0  0  0  0  0  0  0  0  0  0
    5.8414    1.6394   -0.5805 C   0  0  0  0  0  0  0  0  0  0  0  0
    6.5886    2.2965   -1.5491 C   0  0  0  0  0  0  0  0  0  0  0  0
    6.8398    1.7100   -2.7772 C   0  0  0  0  0  0  0  0  0  0  0  0
    6.3506    0.4292   -3.0669 C   0  0  0  0  0  0  0  0  0  0  0  0
    6.5413   -0.1361   -4.3070 N   0  0  0  0  0  0  0  0  0  0  0  0
    5.6192   -0.2385   -2.0797 C   0  0  0  0  0  0  0  0  0  0  0  0
   -3.7989    1.8058    0.5577 O   0  0  0  0  0  0  0  0  0  0  0  0
   -2.9562    1.1036   -0.3211 C   0  0  0  0  0  0  0  0  0  0  0  0
   -2.0979    0.1228    0.4617 C   0  0  0  0  0  0  0  0  0  0  0  0
   -2.3603   -0.2119    1.6007 O   0  0  0  0  0  0  0  0  0  0  0  0
   -1.0600   -0.3513   -0.2538 N   0  0  0  0  0  0  0  0  0  0  0  0
    1.1839   -1.2323    0.2564 C   0  0  1  0  0  0  0  0  0  0  0  0
    1.7288   -0.7323   -0.9464 O   0  0  0  0  0  0  0  0  0  0  0  0
    1.4287   -0.3201    1.4552 C   0  0  0  0  0  0  0  0  0  0  0  0
    2.8783   -0.2502    1.9398 C   0  0  2  0  0  0  0  0  0  0  0  0
    2.9788    0.5662    3.2288 C   0  0  0  0  0  0  0  0  0  0  0  0
    4.3806    0.6758    3.8299 C   0  0  1  0  0  0  0  0  0  0  0  0
    4.3426    1.5709    5.0652 C   0  0  0  0  0  0  0  0  0  0  0  0
    4.9635   -0.6912    4.1756 C   0  0  0  0  0  0  0  0  0  0  0  0
    3.7631    0.3066    0.9361 N   0  0  0  0  0  0  0  0  0  0  0  0
    4.5721   -0.4208    0.1506 C   0  0  0  0  0  0  0  0  0  0  0  0
    4.6893   -1.6365    0.2340 O   0  0  0  0  0  0  0  0  0  0  0  0
   -0.3109   -1.5415    0.0932 C   0  0  2  0  0  0  0  0  0  0  0  0
   -0.5631   -2.6401   -0.9492 C   0  0  0  0  0  0  0  0  0  0  0  0
   -2.0282   -2.9428   -1.0854 C   0  0  0  0  0  0  0  0  0  0  0  0
   -2.7847   -2.3764   -2.1081 C   0  0  0  0  0  0  0  0  0  0  0  0
   -4.1508   -2.6117   -2.2004 C   0  0  0  0  0  0  0  0  0  0  0  0
   -4.7813   -3.4231   -1.2669 C   0  0  0  0  0  0  0  0  0  0  0  0
   -4.0369   -3.9958   -0.2432 C   0  0  0  0  0  0  0  0  0  0  0  0
   -2.6732   -3.7548   -0.1548 C   0  0  0  0  0  0  0  0  0  0  0  0
   -6.7555    4.6782   -1.2780 H   0  0  0  0  0  0  0  0  0  0  0  0
   -8.5497    2.9843   -1.2339 H   0  0  0  0  0  0  0  0  0  0  0  0
   -8.0975    0.7291   -0.3388 H   0  0  0  0  0  0  0  0  0  0  0  0
   -3.8340    4.6442    0.5683 H   0  0  0  0  0  0  0  0  0  0  0  0
   -3.3144    4.0862   -1.0114 H   0  0  0  0  0  0  0  0  0  0  0  0
   -4.5364    5.3429   -0.8864 H   0  0  0  0  0  0  0  0  0  0  0  0
   -5.2915   -0.1826    1.6515 H   0  0  0  0  0  0  0  0  0  0  0  0
   -6.7030   -0.7929    0.7869 H   0  0  0  0  0  0  0  0  0  0  0  0
   -5.1185   -0.8315    0.0347 H   0  0  0  0  0  0  0  0  0  0  0  0
    5.6790    2.1071    0.3820 H   0  0  0  0  0  0  0  0  0  0  0  0
    6.9888    3.2804   -1.3409 H   0  0  0  0  0  0  0  0  0  0  0  0
    7.4227    2.2416   -3.5200 H   0  0  0  0  0  0  0  0  0  0  0  0
    7.3200    0.2176   -4.8388 H   0  0  0  0  0  0  0  0  0  0  0  0
    6.4796   -1.1405   -4.3505 H   0  0  0  0  0  0  0  0  0  0  0  0
    5.2415   -1.2343   -2.2782 H   0  0  0  0  0  0  0  0  0  0  0  0
   -2.3242    1.7934   -0.8930 H   0  0  0  0  0  0  0  0  0  0  0  0
   -3.5286    0.5212   -1.0547 H   0  0  0  0  0  0  0  0  0  0  0  0
   -0.9559   -0.0134   -1.1997 H   0  0  0  0  0  0  0  0  0  0  0  0
    1.6853   -2.1894    0.4393 H   0  0  0  0  0  0  0  0  0  0  0  0
    1.5584    0.2140   -0.9936 H   0  0  0  0  0  0  0  0  0  0  0  0
    0.8240   -0.6871    2.2889 H   0  0  0  0  0  0  0  0  0  0  0  0
    1.0597    0.6900    1.2384 H   0  0  0  0  0  0  0  0  0  0  0  0
    3.2187   -1.2684    2.1329 H   0  0  0  0  0  0  0  0  0  0  0  0
    2.3106    0.1153    3.9705 H   0  0  0  0  0  0  0  0  0  0  0  0
    2.5866    1.5730    3.0404 H   0  0  0  0  0  0  0  0  0  0  0  0
    5.0367    1.1511    3.0928 H   0  0  0  0  0  0  0  0  0  0  0  0
    5.3398    1.7056    5.4875 H   0  0  0  0  0  0  0  0  0  0  0  0
    3.9459    2.5603    4.8301 H   0  0  0  0  0  0  0  0  0  0  0  0
    3.7109    1.1371    5.8445 H   0  0  0  0  0  0  0  0  0  0  0  0
    5.1231   -1.3098    3.2918 H   0  0  0  0  0  0  0  0  0  0  0  0
    5.9292   -0.5893    4.6740 H   0  0  0  0  0  0  0  0  0  0  0  0
    4.2982   -1.2375    4.8495 H   0  0  0  0  0  0  0  0  0  0  0  0
    3.6398    1.2834    0.7182 H   0  0  0  0  0  0  0  0  0  0  0  0
   -0.6843   -1.8911    1.0575 H   0  0  0  0  0  0  0  0  0  0  0  0
   -0.1495   -2.3321   -1.9128 H   0  0  0  0  0  0  0  0  0  0  0  0
   -0.0178   -3.5354   -0.6397 H   0  0  0  0  0  0  0  0  0  0  0  0
   -2.2983   -1.7489   -2.8464 H   0  0  0  0  0  0  0  0  0  0  0  0
   -4.7213   -2.1617   -3.0031 H   0  0  0  0  0  0  0  0  0  0  0  0
   -5.8452   -3.6094   -1.3366 H   0  0  0  0  0  0  0  0  0  0  0  0
   -4.5206   -4.6315    0.4876 H   0  0  0  0  0  0  0  0  0  0  0  0
   -2.0997   -4.2036    0.6483 H   0  0  0  0  0  0  0  0  0  0  0  0
  1  2  2  0
  1  6  1  0
  1  8  1  0
  2  3  1  0
  2 16  1  0
  3  4  2  0
  3  7  1  0
  4  5  1  0
  4 40  1  0
  5  6  2  0
  5 41  1  0
  6 42  1  0
  7 43  1  0
  7 44  1  0
  7 45  1  0
  8 46  1  0
  8 47  1  0
  8 48  1  0
  9 10  2  0
  9 15  1  0
  9 30  1  0
 10 11  1  0
 10 49  1  0
 11 12  2  0
 11 50  1  0
 12 13  1  0
 12 51  1  0
 13 14  1  0
 13 15  2  0
 14 52  1  0
 14 53  1  0
 15 54  1  0
 16 17  1  0
 17 18  1  0
 17 55  1  0
 17 56  1  0
 18 19  2  0
 18 20  1  0
 20 32  1  0
 20 57  1  0
 21 22  1  0
 21 23  1  0
 21 32  1  0
 21 58  1  1
 22 59  1  0
 23 24  1  0
 23 60  1  0
 23 61  1  0
 24 25  1  0
 24 29  1  0
 24 62  1  1
 25 26  1  0
 25 63  1  0
 25 64  1  0
 26 27  1  0
 26 28  1  0
 26 65  1  6
 27 66  1  0
 27 67  1  0
 27 68  1  0
 28 69  1  0
 28 70  1  0
 28 71  1  0
 29 30  1  0
 29 72  1  0
 30 31  2  0
 32 33  1  0
 32 73  1  1
 33 34  1  0
 33 74  1  0
 33 75  1  0
 34 35  2  0
 34 39  1  0
 35 36  1  0
 35 76  1  0
 36 37  2  0
 36 77  1  0
 37 38  1  0
 37 78  1  0
 38 39  2  0
 38 79  1  0
 39 80  1  0
M  END
