
     RDKit          3D

 70 72  0  0  0  0  0  0  0  0999 V2000
    2.9350   -0.6189   -0.7513 C   0  0  2  0  0  0  0  0  0  0  0  0
    3.2477   -1.9418   -0.0488 C   0  0  1  0  0  0  0  0  0  0  0  0
    4.0966   -1.6810    1.1938 C   0  0  2  0  0  0  0  0  0  0  0  0
    5.3639   -0.9453    0.7915 C   0  0  1  0  0  0  0  0  0  0  0  0
    4.9875    0.3312    0.0387 C   0  0  1  0  0  0  0  0  0  0  0  0
    6.1959    1.0520   -0.5316 C   0  0  0  0  0  0  0  0  0  0  0  0
   -1.2259    2.7834   -0.1578 C   0  0  1  0  0  0  0  0  0  0  0  0
   -1.4619    1.2750   -0.1755 C   0  0  1  0  0  0  0  0  0  0  0  0
   -0.2158    0.5324    0.3214 C   0  0  2  0  0  0  0  0  0  0  0  0
    1.0253    0.8659   -0.5031 C   0  0  1  0  0  0  0  0  0  0  0  0
    1.2758    2.3717   -0.4920 C   0  0  2  0  0  0  0  0  0  0  0  0
    0.0240    3.0886   -0.9822 C   0  0  0  0  0  0  0  0  0  0  0  0
   -3.8263    0.9356    0.2675 C   0  0  1  0  0  0  0  0  0  0  0  0
   -4.7056    0.3683    1.3819 C   0  0  1  0  0  0  0  0  0  0  0  0
   -4.4988   -1.1385    1.5516 C   0  0  2  0  0  0  0  0  0  0  0  0
   -4.6891   -1.8279    0.2015 C   0  0  1  0  0  0  0  0  0  0  0  0
   -3.8485   -1.1506   -0.8900 C   0  0  1  0  0  0  0  0  0  0  0  0
   -4.1989   -1.6717   -2.2678 C   0  0  0  0  0  0  0  0  0  0  0  0
    5.7948    2.2721   -1.2119 N   0  0  0  0  0  0  0  0  0  0  0  0
    2.3832    2.7150   -1.3672 N   0  0  0  0  0  0  0  0  0  0  0  0
   -2.4033    3.5048   -0.6174 N   0  0  0  0  0  0  0  0  0  0  0  0
   -5.3698   -1.7407    2.5444 N   0  0  0  0  0  0  0  0  0  0  0  0
    4.1378    0.0315   -1.0610 O   0  0  0  0  0  0  0  0  0  0  0  0
    4.4330   -2.8984    1.8136 O   0  0  0  0  0  0  0  0  0  0  0  0
    6.1435   -0.5672    1.9020 O   0  0  0  0  0  0  0  0  0  0  0  0
    2.1152    0.1611    0.0642 O   0  0  0  0  0  0  0  0  0  0  0  0
   -0.4099   -0.8604    0.2721 O   0  0  0  0  0  0  0  0  0  0  0  0
   -2.4965    0.8486    0.6944 O   0  0  0  0  0  0  0  0  0  0  0  0
   -4.0711    0.2490   -0.9228 O   0  0  0  0  0  0  0  0  0  0  0  0
   -4.4632    0.9903    2.6181 O   0  0  0  0  0  0  0  0  0  0  0  0
   -4.3152   -3.1787    0.3351 O   0  0  0  0  0  0  0  0  0  0  0  0
   -3.3277   -1.0968   -3.2116 O   0  0  0  0  0  0  0  0  0  0  0  0
    2.1094   -2.7598    0.3145 N   0  0  0  0  0  0  0  0  0  0  0  0
    2.4486   -0.8116   -1.7152 H   0  0  0  0  0  0  0  0  0  0  0  0
    3.8610   -2.5225   -0.7471 H   0  0  0  0  0  0  0  0  0  0  0  0
    3.5334   -1.0391    1.8908 H   0  0  0  0  0  0  0  0  0  0  0  0
    5.9372   -1.5972    0.1117 H   0  0  0  0  0  0  0  0  0  0  0  0
    4.4760    1.0126    0.7342 H   0  0  0  0  0  0  0  0  0  0  0  0
    6.8501    1.3204    0.2984 H   0  0  0  0  0  0  0  0  0  0  0  0
    6.7615    0.3526   -1.1650 H   0  0  0  0  0  0  0  0  0  0  0  0
   -1.0479    3.0859    0.8812 H   0  0  0  0  0  0  0  0  0  0  0  0
   -1.6673    0.9603   -1.2102 H   0  0  0  0  0  0  0  0  0  0  0  0
   -0.0290    0.8572    1.3575 H   0  0  0  0  0  0  0  0  0  0  0  0
    0.8696    0.5442   -1.5436 H   0  0  0  0  0  0  0  0  0  0  0  0
    1.4513    2.6689    0.5559 H   0  0  0  0  0  0  0  0  0  0  0  0
   -0.1555    2.8098   -2.0279 H   0  0  0  0  0  0  0  0  0  0  0  0
    0.1986    4.1685   -0.9714 H   0  0  0  0  0  0  0  0  0  0  0  0
   -4.0881    1.9758    0.0558 H   0  0  0  0  0  0  0  0  0  0  0  0
   -5.7470    0.5275    1.0611 H   0  0  0  0  0  0  0  0  0  0  0  0
   -3.4647   -1.3104    1.8759 H   0  0  0  0  0  0  0  0  0  0  0  0
   -5.7519   -1.7404   -0.0756 H   0  0  0  0  0  0  0  0  0  0  0  0
   -2.7902   -1.3682   -0.6940 H   0  0  0  0  0  0  0  0  0  0  0  0
   -4.1136   -2.7651   -2.2630 H   0  0  0  0  0  0  0  0  0  0  0  0
   -5.2503   -1.4320   -2.4810 H   0  0  0  0  0  0  0  0  0  0  0  0
    6.6156    2.8229   -1.4264 H   0  0  0  0  0  0  0  0  0  0  0  0
    5.3750    2.0452   -2.1035 H   0  0  0  0  0  0  0  0  0  0  0  0
    2.4940    3.7218   -1.3693 H   0  0  0  0  0  0  0  0  0  0  0  0
    3.2581    2.3513   -1.0108 H   0  0  0  0  0  0  0  0  0  0  0  0
   -2.2347    4.5010   -0.5430 H   0  0  0  0  0  0  0  0  0  0  0  0
   -2.5455    3.3231   -1.6053 H   0  0  0  0  0  0  0  0  0  0  0  0
   -5.1999   -1.3069    3.4428 H   0  0  0  0  0  0  0  0  0  0  0  0
   -6.3367   -1.5306    2.3192 H   0  0  0  0  0  0  0  0  0  0  0  0
    3.6270   -3.4342    1.7636 H   0  0  0  0  0  0  0  0  0  0  0  0
    6.4075   -1.3646    2.3716 H   0  0  0  0  0  0  0  0  0  0  0  0
   -1.0997   -1.0868    0.9033 H   0  0  0  0  0  0  0  0  0  0  0  0
   -4.7891    1.8943    2.5755 H   0  0  0  0  0  0  0  0  0  0  0  0
   -4.8193   -3.7079   -0.2880 H   0  0  0  0  0  0  0  0  0  0  0  0
   -3.5586   -1.4455   -4.0772 H   0  0  0  0  0  0  0  0  0  0  0  0
    1.3498   -2.1767    0.6475 H   0  0  0  0  0  0  0  0  0  0  0  0
    1.7554   -3.2489   -0.4971 H   0  0  0  0  0  0  0  0  0  0  0  0
  1 23  1  0
  1 26  1  0
  1  2  1  0
  1 34  1  6
  2  3  1  0
  2 33  1  0
  2 35  1  6
  3  4  1  0
  3 24  1  0
  3 36  1  1
  4  5  1  0
  4 25  1  0
  4 37  1  6
  5  6  1  0
  5 23  1  0
  5 38  1  1
  6 19  1  0
  6 39  1  0
  6 40  1  0
  7 12  1  0
  7 21  1  0
  7  8  1  0
  7 41  1  1
  8  9  1  0
  8 28  1  0
  8 42  1  6
  9 10  1  0
  9 27  1  0
  9 43  1  1
 10 11  1  0
 10 26  1  0
 10 44  1  6
 11 20  1  0
 11 12  1  0
 11 45  1  1
 12 46  1  0
 12 47  1  0
 13 28  1  0
 13 14  1  0
 13 29  1  0
 13 48  1  6
 14 30  1  0
 14 15  1  0
 14 49  1  6
 15 22  1  0
 15 16  1  0
 15 50  1  1
 16 17  1  0
 16 31  1  0
 16 51  1  6
 17 29  1  0
 17 18  1  0
 17 52  1  1
 18 32  1  0
 18 53  1  0
 18 54  1  0
 19 55  1  0
 19 56  1  0
 20 57  1  0
 20 58  1  0
 21 59  1  0
 21 60  1  0
 22 61  1  0
 22 62  1  0
 24 63  1  0
 25 64  1  0
 27 65  1  0
 30 66  1  0
 31 67  1  0
 32 68  1  0
 33 69  1  0
 33 70  1  0
M  END
