
     RDKit          3D

 36 36  0  0  0  0  0  0  0  0999 V2000
    3.8508   -0.8981    1.0925 N   0  0  0  0  0  0  0  0  0  0  0  0
   -2.8875    0.2175    1.1010 C   0  0  0  0  0  0  0  0  0  0  0  0
   -2.6560   -1.5092   -0.5432 C   0  0  0  0  0  0  0  0  0  0  0  0
   -1.3124   -1.1918   -0.7142 C   0  0  0  0  0  0  0  0  0  0  0  0
   -0.7741   -0.1257    0.0184 C   0  0  0  0  0  0  0  0  0  0  0  0
   -1.5459    0.5663    0.9561 C   0  0  0  0  0  0  0  0  0  0  0  0
   -0.1056    1.3843   -2.2941 C   0  0  0  0  0  0  0  0  0  0  0  0
    1.5250   -0.4850    0.4772 C   0  0  0  0  0  0  0  0  0  0  0  0
    2.9867   -0.2308    0.1451 C   0  0  0  0  0  0  0  0  0  0  0  0
   -3.4451   -0.8026    0.3503 C   0  0  0  0  0  0  0  0  0  0  0  0
    1.1692    2.6437   -0.5519 C   0  0  0  0  0  0  0  0  0  0  0  0
    0.5900    0.2331   -0.1989 N   0  0  0  0  0  0  0  0  0  0  0  0
    1.2078   -1.3376    1.2903 O   0  0  0  0  0  0  0  0  0  0  0  0
    3.7425   -1.9001    1.0084 H   0  0  0  0  0  0  0  0  0  0  0  0
    4.8111   -0.6995    0.8452 H   0  0  0  0  0  0  0  0  0  0  0  0
   -3.4965    0.7487    1.8230 H   0  0  0  0  0  0  0  0  0  0  0  0
   -3.0845   -2.3252   -1.1134 H   0  0  0  0  0  0  0  0  0  0  0  0
   -0.2215   -2.9788   -1.1518 H   0  0  0  0  0  0  0  0  0  0  0  0
   -1.0304   -2.2815   -2.5460 H   0  0  0  0  0  0  0  0  0  0  0  0
    0.4510   -1.5598   -1.9298 H   0  0  0  0  0  0  0  0  0  0  0  0
    1.8651    0.9633   -1.6620 H   0  0  0  0  0  0  0  0  0  0  0  0
   -1.2509    2.6417    1.4567 H   0  0  0  0  0  0  0  0  0  0  0  0
   -1.4122    1.5741    2.8365 H   0  0  0  0  0  0  0  0  0  0  0  0
    0.0914    1.6098    1.9255 H   0  0  0  0  0  0  0  0  0  0  0  0
   -1.0750    1.7119   -1.9175 H   0  0  0  0  0  0  0  0  0  0  0  0
    0.2355    2.1240   -3.0186 H   0  0  0  0  0  0  0  0  0  0  0  0
   -0.2447    0.4452   -2.8270 H   0  0  0  0  0  0  0  0  0  0  0  0
    3.2007    0.8394    0.1744 H   0  0  0  0  0  0  0  0  0  0  0  0
    3.1414   -0.5382   -0.9014 H   0  0  0  0  0  0  0  0  0  0  0  0
   -4.4898   -1.0585    0.4731 H   0  0  0  0  0  0  0  0  0  0  0  0
    1.8610    2.5950    0.2887 H   0  0  0  0  0  0  0  0  0  0  0  0
    1.5966    3.3183   -1.2949 H   0  0  0  0  0  0  0  0  0  0  0  0
    0.2390    3.0866   -0.1981 H   0  0  0  0  0  0  0  0  0  0  0  0
   -0.4811   -2.0361   -1.6373 C   0  0  0  0  0  0  0  0  0  0  0  0
    0.9341    1.2762   -1.1867 C   0  0  1  0  0  0  0  0  0  0  0  0
   -0.9910    1.6512    1.8341 C   0  0  0  0  0  0  0  0  0  0  0  0
  7 35  1  0
 11 35  1  0
 35 12  1  0
 34  4  1  0
 12  5  1  0
 12  8  1  0
 13  8  2  0
  4  5  2  0
  4  3  1  0
  5  6  1  0
  8  9  1  0
  3 10  2  0
 36  6  1  0
  6  2  2  0
 10  2  1  0
  9  1  1  0
  1 14  1  0
  1 15  1  0
  2 16  1  0
  3 17  1  0
 34 18  1  0
 34 19  1  0
 34 20  1  0
 35 21  1  6
 36 22  1  0
 36 23  1  0
 36 24  1  0
  7 25  1  0
  7 26  1  0
  7 27  1  0
  9 28  1  0
  9 29  1  0
 10 30  1  0
 11 31  1  0
 11 32  1  0
 11 33  1  0
M  END
