
     RDKit          3D

 38 40  0  0  0  0  0  0  0  0999 V2000
    5.0515    2.1955    1.6527 C   0  0  0  0  0  0  0  0  0  0  0  0
    4.2715    2.4475    0.5007 O   0  0  0  0  0  0  0  0  0  0  0  0
    3.5426    1.4404   -0.0159 C   0  0  0  0  0  0  0  0  0  0  0  0
    2.7850    1.7387   -1.1486 C   0  0  0  0  0  0  0  0  0  0  0  0
    2.0050    0.7604   -1.7398 C   0  0  0  0  0  0  0  0  0  0  0  0
    1.9588   -0.5336   -1.2293 C   0  0  0  0  0  0  0  0  0  0  0  0
    1.1113   -1.5919   -1.8883 C   0  0  0  0  0  0  0  0  0  0  0  0
    0.2073   -2.2410   -0.9646 N   0  0  0  0  0  0  0  0  0  0  0  0
    0.3327   -3.5131   -0.4806 C   0  0  0  0  0  0  0  0  0  0  0  0
   -0.6501   -3.7762    0.4308 C   0  0  0  0  0  0  0  0  0  0  0  0
   -1.4372   -2.5921    0.5275 C   0  0  0  0  0  0  0  0  0  0  0  0
   -2.5715   -2.2273    1.2604 C   0  0  0  0  0  0  0  0  0  0  0  0
   -3.0912   -0.9595    1.1080 C   0  0  0  0  0  0  0  0  0  0  0  0
   -2.5047   -0.0285    0.2261 C   0  0  0  0  0  0  0  0  0  0  0  0
   -3.0597    1.3396    0.0232 C   0  0  0  0  0  0  0  0  0  0  0  0
   -2.9270    1.9527   -1.0246 O   0  0  0  0  0  0  0  0  0  0  0  0
   -3.6886    1.8555    1.0953 N   0  0  0  0  0  0  0  0  0  0  0  0
   -4.3564    3.0356    0.9975 O   0  0  0  0  0  0  0  0  0  0  0  0
   -1.3926   -0.3751   -0.5260 C   0  0  0  0  0  0  0  0  0  0  0  0
   -0.8673   -1.6495   -0.3594 C   0  0  0  0  0  0  0  0  0  0  0  0
    2.7185   -0.8198   -0.1026 C   0  0  0  0  0  0  0  0  0  0  0  0
    3.5037    0.1487    0.5079 C   0  0  0  0  0  0  0  0  0  0  0  0
    4.4361    1.8990    2.5063 H   0  0  0  0  0  0  0  0  0  0  0  0
    5.8041    1.4227    1.4754 H   0  0  0  0  0  0  0  0  0  0  0  0
    5.5573    3.1272    1.8931 H   0  0  0  0  0  0  0  0  0  0  0  0
    2.8060    2.7414   -1.5571 H   0  0  0  0  0  0  0  0  0  0  0  0
    1.4213    1.0143   -2.6175 H   0  0  0  0  0  0  0  0  0  0  0  0
    0.5376   -1.1543   -2.7080 H   0  0  0  0  0  0  0  0  0  0  0  0
    1.7347   -2.3711   -2.3292 H   0  0  0  0  0  0  0  0  0  0  0  0
    1.1282   -4.1498   -0.8362 H   0  0  0  0  0  0  0  0  0  0  0  0
   -0.7929   -4.7032    0.9624 H   0  0  0  0  0  0  0  0  0  0  0  0
   -3.0449   -2.9306    1.9333 H   0  0  0  0  0  0  0  0  0  0  0  0
   -3.9864   -0.6990    1.6580 H   0  0  0  0  0  0  0  0  0  0  0  0
   -3.7478    1.3988    1.9930 H   0  0  0  0  0  0  0  0  0  0  0  0
   -3.7163    3.7324    1.1964 H   0  0  0  0  0  0  0  0  0  0  0  0
   -0.9518    0.3362   -1.2119 H   0  0  0  0  0  0  0  0  0  0  0  0
    2.7070   -1.8170    0.3224 H   0  0  0  0  0  0  0  0  0  0  0  0
    4.0751   -0.1216    1.3856 H   0  0  0  0  0  0  0  0  0  0  0  0
 12 13  1  0
 12 11  2  0
 10 11  1  0
 10  9  2  0
 13 14  2  0
 11 20  1  0
  9  8  1  0
 17 18  1  0
 17 15  1  0
 20  8  1  0
 20 19  2  0
 14 19  1  0
 14 15  1  0
  8  7  1  0
 15 16  2  0
  7  6  1  0
  6 21  2  0
  6  5  1  0
 21 22  1  0
  5  4  2  0
 22  3  2  0
  4  3  1  0
  3  2  1  0
  2  1  1  0
  1 23  1  0
  1 24  1  0
  1 25  1  0
  4 26  1  0
  5 27  1  0
  7 28  1  0
  7 29  1  0
  9 30  1  0
 10 31  1  0
 12 32  1  0
 13 33  1  0
 17 34  1  0
 18 35  1  0
 19 36  1  0
 21 37  1  0
 22 38  1  0
M  END
