
     RDKit          3D

 22 22  0  0  0  0  0  0  0  0999 V2000
   -1.3383    0.1177    0.0171 C   0  0  0  0  0  0  0  0  0  0  0  0
   -0.3673    1.1147    0.0111 C   0  0  0  0  0  0  0  0  0  0  0  0
   -0.9685   -1.2191    0.0232 C   0  0  0  0  0  0  0  0  0  0  0  0
    0.9722    0.7623    0.0119 C   0  0  0  0  0  0  0  0  0  0  0  0
    0.3813   -1.5729    0.0235 C   0  0  0  0  0  0  0  0  0  0  0  0
    0.6435   -2.8888    0.0287 O   0  0  0  0  0  0  0  0  0  0  0  0
    1.3546   -0.5801    0.0182 C   0  0  0  0  0  0  0  0  0  0  0  0
   -2.7660    0.5351    0.0163 C   0  0  0  0  0  0  0  0  0  0  0  0
    1.9944   -3.3121    0.0285 C   0  0  0  0  0  0  0  0  0  0  0  0
   -3.1211    1.6885    0.0095 O   0  0  0  0  0  0  0  0  0  0  0  0
   -3.6053   -0.4879    0.0242 O   0  0  0  0  0  0  0  0  0  0  0  0
    1.9801    1.8564    0.0068 C   0  0  0  0  0  0  0  0  0  0  0  0
    3.2266    1.4111    0.0094 O   0  0  0  0  0  0  0  0  0  0  0  0
    1.6920    3.0282    0.0014 O   0  0  0  0  0  0  0  0  0  0  0  0
   -0.6585    2.1555    0.0062 H   0  0  0  0  0  0  0  0  0  0  0  0
   -1.7088   -2.0080    0.0270 H   0  0  0  0  0  0  0  0  0  0  0  0
    2.4041   -0.8381    0.0194 H   0  0  0  0  0  0  0  0  0  0  0  0
    1.9763   -4.3987    0.0310 H   0  0  0  0  0  0  0  0  0  0  0  0
    2.5266   -2.9696   -0.8623 H   0  0  0  0  0  0  0  0  0  0  0  0
    2.5280   -2.9658    0.9171 H   0  0  0  0  0  0  0  0  0  0  0  0
   -4.5204   -0.1692    0.0255 H   0  0  0  0  0  0  0  0  0  0  0  0
    3.8470    2.1555    0.0072 H   0  0  0  0  0  0  0  0  0  0  0  0
 10  8  2  0
 14 12  2  0
  8  1  1  0
  8 11  1  0
  2  1  2  0
  2  4  1  0
 12 13  1  0
 12  4  1  0
  1  3  1  0
  4  7  2  0
  3  5  2  0
  7  5  1  0
  5  6  1  0
  6  9  1  0
  2 15  1  0
  3 16  1  0
  7 17  1  0
  9 18  1  0
  9 19  1  0
  9 20  1  0
 11 21  1  0
 13 22  1  0
M  END
