
     RDKit          3D

 59 63  0  0  0  0  0  0  0  0999 V2000
    5.1303   -0.8248    0.5469 C   0  0  0  0  0  0  0  0  0  0  0  0
    3.7424   -2.4824    0.0408 C   0  0  0  0  0  0  0  0  0  0  0  0
    1.1477   -2.6534   -0.5099 N   0  0  0  0  0  0  0  0  0  0  0  0
    1.6263   -1.4421   -0.2165 C   0  0  0  0  0  0  0  0  0  0  0  0
    3.0047   -1.2910    0.0575 C   0  0  0  0  0  0  0  0  0  0  0  0
    3.9138   -0.2257    0.3780 C   0  0  0  0  0  0  0  0  0  0  0  0
    3.6257    1.2432    0.4331 C   0  0  2  0  0  0  0  0  0  0  0  0
    3.4062    1.8271   -0.9688 C   0  0  0  0  0  0  0  0  0  0  0  0
    3.1686    3.3267   -0.8979 C   0  0  0  0  0  0  0  0  0  0  0  0
    4.3986    3.5330    1.0828 C   0  0  0  0  0  0  0  0  0  0  0  0
    4.7216    2.0482    1.1293 C   0  0  0  0  0  0  0  0  0  0  0  0
   -2.8889   -1.0846    0.6112 C   0  0  0  0  0  0  0  0  0  0  0  0
   -3.5003    0.2336    0.1250 C   0  0  1  0  0  0  0  0  0  0  0  0
   -2.7310    0.7161   -1.1100 C   0  0  0  0  0  0  0  0  0  0  0  0
   -1.2284    0.8108   -0.8692 C   0  0  0  0  0  0  0  0  0  0  0  0
   -4.9267    0.0731   -0.1678 N   0  0  0  0  0  0  0  0  0  0  0  0
   -5.5437    1.2837   -0.6907 C   0  0  0  0  0  0  0  0  0  0  0  0
   -7.1513   -0.5640    0.6342 C   0  0  0  0  0  0  0  0  0  0  0  0
    5.0224   -2.1786    0.3454 N   0  0  0  0  0  0  0  0  0  0  0  0
    3.2676   -3.7019   -0.2349 N   0  0  0  0  0  0  0  0  0  0  0  0
    1.9805   -3.6924   -0.5078 C   0  0  0  0  0  0  0  0  0  0  0  0
    4.2189    3.9976   -0.2375 O   0  0  0  0  0  0  0  0  0  0  0  0
    0.7729   -0.4010   -0.2125 N   0  0  0  0  0  0  0  0  0  0  0  0
   -0.6592   -0.5203   -0.4037 C   0  0  1  0  0  0  0  0  0  0  0  0
   -1.3888   -0.9735    0.8559 C   0  0  0  0  0  0  0  0  0  0  0  0
   -7.0086    1.0494   -1.0078 C   0  0  0  0  0  0  0  0  0  0  0  0
   -7.7333    0.6096    0.1172 O   0  0  0  0  0  0  0  0  0  0  0  0
   -5.6908   -0.3661    0.9911 C   0  0  0  0  0  0  0  0  0  0  0  0
    6.0841   -0.3894    0.7950 H   0  0  0  0  0  0  0  0  0  0  0  0
    2.7064    1.4004    1.0152 H   0  0  0  0  0  0  0  0  0  0  0  0
    4.2879    1.6207   -1.5830 H   0  0  0  0  0  0  0  0  0  0  0  0
    2.5568    1.3531   -1.4687 H   0  0  0  0  0  0  0  0  0  0  0  0
    3.1007    3.7508   -1.9014 H   0  0  0  0  0  0  0  0  0  0  0  0
    2.2100    3.5261   -0.3943 H   0  0  0  0  0  0  0  0  0  0  0  0
    3.4975    3.7306    1.6830 H   0  0  0  0  0  0  0  0  0  0  0  0
    5.2125    4.1164    1.5165 H   0  0  0  0  0  0  0  0  0  0  0  0
    4.8266    1.7359    2.1712 H   0  0  0  0  0  0  0  0  0  0  0  0
    5.6853    1.8716    0.6414 H   0  0  0  0  0  0  0  0  0  0  0  0
   -3.3605   -1.4165    1.5362 H   0  0  0  0  0  0  0  0  0  0  0  0
   -3.0851   -1.8584   -0.1399 H   0  0  0  0  0  0  0  0  0  0  0  0
   -3.3588    0.9871    0.9244 H   0  0  0  0  0  0  0  0  0  0  0  0
   -2.9288    0.0248   -1.9367 H   0  0  0  0  0  0  0  0  0  0  0  0
   -3.0787    1.6990   -1.4292 H   0  0  0  0  0  0  0  0  0  0  0  0
   -0.7288    1.1323   -1.7861 H   0  0  0  0  0  0  0  0  0  0  0  0
   -1.0275    1.5779   -0.1112 H   0  0  0  0  0  0  0  0  0  0  0  0
   -5.4484    2.1266    0.0167 H   0  0  0  0  0  0  0  0  0  0  0  0
   -5.0622    1.5857   -1.6201 H   0  0  0  0  0  0  0  0  0  0  0  0
   -7.7134   -0.8457    1.5262 H   0  0  0  0  0  0  0  0  0  0  0  0
   -7.2368   -1.3857   -0.0920 H   0  0  0  0  0  0  0  0  0  0  0  0
    5.7773   -2.8413    0.4139 H   0  0  0  0  0  0  0  0  0  0  0  0
    1.5325   -4.6497   -0.7553 H   0  0  0  0  0  0  0  0  0  0  0  0
    1.0997    0.4595    0.1953 H   0  0  0  0  0  0  0  0  0  0  0  0
   -0.8240   -1.2625   -1.1886 H   0  0  0  0  0  0  0  0  0  0  0  0
   -1.1962   -0.2521    1.6579 H   0  0  0  0  0  0  0  0  0  0  0  0
   -0.9970   -1.9364    1.1888 H   0  0  0  0  0  0  0  0  0  0  0  0
   -7.4641    1.9800   -1.3497 H   0  0  0  0  0  0  0  0  0  0  0  0
   -7.0866    0.3157   -1.8235 H   0  0  0  0  0  0  0  0  0  0  0  0
   -5.3187   -1.3237    1.3543 H   0  0  0  0  0  0  0  0  0  0  0  0
   -5.6103    0.3526    1.8262 H   0  0  0  0  0  0  0  0  0  0  0  0
 26 17  1  0
 26 27  1  0
 17 16  1  0
 27 18  1  0
 16 13  1  0
 16 28  1  0
 22 10  1  0
 22  9  1  0
 10 11  1  0
 13 14  1  0
 13 12  1  0
  9  8  1  0
 18 28  1  0
 14 15  1  0
 15 24  1  0
 12 25  1  0
 11  7  1  0
 25 24  1  0
  8  7  1  0
  7  6  1  0
 24 23  1  0
 23  4  1  0
  6  5  1  0
  6  1  2  0
  4  5  2  0
  4  3  1  0
  5  2  1  0
  1 19  1  0
  3 21  2  0
  2 19  1  0
  2 20  2  0
 21 20  1  0
  1 29  1  0
  7 30  1  1
  8 31  1  0
  8 32  1  0
  9 33  1  0
  9 34  1  0
 10 35  1  0
 10 36  1  0
 11 37  1  0
 11 38  1  0
 12 39  1  0
 12 40  1  0
 13 41  1  1
 14 42  1  0
 14 43  1  0
 15 44  1  0
 15 45  1  0
 17 46  1  0
 17 47  1  0
 18 48  1  0
 18 49  1  0
 19 50  1  0
 21 51  1  0
 23 52  1  0
 24 53  1  6
 25 54  1  0
 25 55  1  0
 26 56  1  0
 26 57  1  0
 28 58  1  0
 28 59  1  0
M  END
