
     RDKit          3D

 25 26  0  0  0  0  0  0  0  0999 V2000
   -1.6974    1.2992   -0.0508 C   0  0  0  0  0  0  0  0  0  0  0  0
   -0.7095    0.3165   -0.0332 C   0  0  0  0  0  0  0  0  0  0  0  0
   -1.0663   -1.0421    0.0174 C   0  0  0  0  0  0  0  0  0  0  0  0
   -2.3884   -1.4652    0.0538 C   0  0  0  0  0  0  0  0  0  0  0  0
   -3.3534   -0.4793    0.0361 C   0  0  0  0  0  0  0  0  0  0  0  0
   -3.0122    0.8882   -0.0162 C   0  0  0  0  0  0  0  0  0  0  0  0
    0.1171   -1.7156    0.0187 N   0  0  0  0  0  0  0  0  0  0  0  0
    1.0978   -0.7844   -0.0290 C   0  0  0  0  0  0  0  0  0  0  0  0
    0.6520    0.4408   -0.0601 N   0  0  0  0  0  0  0  0  0  0  0  0
    2.5268   -1.1910   -0.0433 C   0  0  0  0  0  0  0  0  0  0  0  0
    3.3842   -0.1708   -0.0660 N   0  0  0  0  0  0  0  0  0  0  0  0
    5.5193    0.9428    0.0640 C   0  0  0  0  0  0  0  0  0  0  0  0
    6.8283    0.7706    0.0809 O   0  0  0  0  0  0  0  0  0  0  0  0
    4.9676    2.0090    0.1564 O   0  0  0  0  0  0  0  0  0  0  0  0
    2.8374   -2.3723   -0.0338 O   0  0  0  0  0  0  0  0  0  0  0  0
    4.8048   -0.3755   -0.0914 C   0  0  0  0  0  0  0  0  0  0  0  0
   -1.4423    2.3494   -0.0919 H   0  0  0  0  0  0  0  0  0  0  0  0
   -2.6583   -2.5114    0.0944 H   0  0  0  0  0  0  0  0  0  0  0  0
    3.0251    0.7741   -0.0773 H   0  0  0  0  0  0  0  0  0  0  0  0
    7.2812    1.6217    0.1819 H   0  0  0  0  0  0  0  0  0  0  0  0
    5.1205   -1.0459    0.7126 H   0  0  0  0  0  0  0  0  0  0  0  0
    5.1279   -0.8386   -1.0294 H   0  0  0  0  0  0  0  0  0  0  0  0
    0.2534   -2.7154    0.0443 H   0  0  0  0  0  0  0  0  0  0  0  0
   -4.2608    2.0792   -0.0377 Cl  0  0  0  0  0  0  0  0  0  0  0  0
   -5.0121   -0.9454    0.0791 Cl  0  0  0  0  0  0  0  0  0  0  0  0
  2  1  2  0
  1  6  1  0
  1 17  1  0
  3  2  1  0
  9  2  1  0
  7  3  1  0
  3  4  2  0
  6 24  1  0
  4  5  1  0
  4 18  1  0
  5 25  1  0
  5  6  2  0
  7  8  1  0
 10  8  1  0
  8  9  2  0
 11 10  1  0
 10 15  2  0
 16 11  1  0
 11 19  1  0
 14 12  2  0
 13 12  1  0
 12 16  1  0
 13 20  1  0
 16 21  1  0
 16 22  1  0
  7 23  1  0
M  END
