
     RDKit          3D

 24 24  0  0  0  0  0  0  0  0999 V2000
   -2.6456    0.8348   -0.1050 C   0  0  0  0  0  0  0  0  0  0  0  0
   -3.0926   -0.0223   -0.8261 O   0  0  0  0  0  0  0  0  0  0  0  0
   -1.1838    1.0203    0.1980 C   0  0  0  0  0  0  0  0  0  0  0  0
   -0.3244   -0.0783   -0.4080 C   0  0  2  0  0  0  0  0  0  0  0  0
   -0.6991   -1.4362    0.1478 C   0  0  0  0  0  0  0  0  0  0  0  0
   -0.3145   -2.4171   -0.6547 O   0  0  0  0  0  0  0  0  0  0  0  0
   -1.2376   -1.6132    1.2116 O   0  0  0  0  0  0  0  0  0  0  0  0
    1.1511    0.1538   -0.1489 C   0  0  0  0  0  0  0  0  0  0  0  0
    2.0397    0.2610   -1.2136 C   0  0  0  0  0  0  0  0  0  0  0  0
    3.3921    0.4820   -0.9874 C   0  0  0  0  0  0  0  0  0  0  0  0
    3.8716    0.5948    0.3100 C   0  0  0  0  0  0  0  0  0  0  0  0
    2.9912    0.4856    1.3791 C   0  0  0  0  0  0  0  0  0  0  0  0
    1.6403    0.2657    1.1510 C   0  0  0  0  0  0  0  0  0  0  0  0
   -3.3951    1.7428    0.5051 O   0  0  0  0  0  0  0  0  0  0  0  0
   -0.8715    1.9872   -0.2062 H   0  0  0  0  0  0  0  0  0  0  0  0
   -1.0480    1.0907    1.2793 H   0  0  0  0  0  0  0  0  0  0  0  0
   -4.3285    1.6116    0.2798 H   0  0  0  0  0  0  0  0  0  0  0  0
   -0.4760   -0.0997   -1.4894 H   0  0  0  0  0  0  0  0  0  0  0  0
   -0.5154   -3.2757   -0.2524 H   0  0  0  0  0  0  0  0  0  0  0  0
    1.6728    0.1742   -2.2293 H   0  0  0  0  0  0  0  0  0  0  0  0
    0.9688    0.1808    1.9972 H   0  0  0  0  0  0  0  0  0  0  0  0
    4.0702    0.5653   -1.8266 H   0  0  0  0  0  0  0  0  0  0  0  0
    4.9252    0.7661    0.4882 H   0  0  0  0  0  0  0  0  0  0  0  0
    3.3560    0.5724    2.3943 H   0  0  0  0  0  0  0  0  0  0  0  0
  1  2  2  0
  1  3  1  0
  1 14  1  0
  3  4  1  0
  4  5  1  0
  4  8  1  0
  5  6  1  0
  5  7  2  0
  8  9  2  0
  8 13  1  0
  9 10  1  0
 10 11  2  0
 11 12  1  0
 12 13  2  0
  3 15  1  0
  3 16  1  0
 14 17  1  0
  4 18  1  6
  6 19  1  0
  9 20  1  0
 13 21  1  0
 10 22  1  0
 11 23  1  0
 12 24  1  0
M  END
