
     RDKit          3D

 58 60  0  0  0  0  0  0  0  0999 V2000
   -5.4249   -2.9295   -0.7096 N   0  0  0  0  0  0  0  0  0  0  0  0
   -6.5233   -2.1552   -0.7072 C   0  0  0  0  0  0  0  0  0  0  0  0
   -6.5804   -0.8835   -0.3710 N   0  0  0  0  0  0  0  0  0  0  0  0
   -5.4505   -0.3417    0.1168 C   0  0  0  0  0  0  0  0  0  0  0  0
   -4.2480   -1.0770    0.2828 C   0  0  0  0  0  0  0  0  0  0  0  0
   -4.2980   -2.4143   -0.2668 C   0  0  0  0  0  0  0  0  0  0  0  0
   -7.6660   -2.7626   -1.0903 N   0  0  0  0  0  0  0  0  0  0  0  0
   -3.2164   -3.2027   -0.3707 N   0  0  0  0  0  0  0  0  0  0  0  0
    9.5805   -1.9070    1.1733 O   0  0  0  0  0  0  0  0  0  0  0  0
   10.5679   -1.5140   -0.7858 O   0  0  0  0  0  0  0  0  0  0  0  0
    1.2219    2.1798   -0.7934 C   0  0  0  0  0  0  0  0  0  0  0  0
   -0.0214    2.7179   -1.1262 C   0  0  0  0  0  0  0  0  0  0  0  0
   -4.4683    1.5241    0.9673 C   0  0  0  0  0  0  0  0  0  0  0  0
    0.2842    1.3647    1.2547 C   0  0  0  0  0  0  0  0  0  0  0  0
    6.0194    0.1343   -0.2723 C   0  0  0  0  0  0  0  0  0  0  0  0
    4.7983    0.2264    0.6343 C   0  0  0  0  0  0  0  0  0  0  0  0
    7.1762   -0.6040    0.3894 C   0  0  0  0  0  0  0  0  0  0  0  0
    3.6582    0.9585   -0.0419 C   0  0  0  0  0  0  0  0  0  0  0  0
    8.3748   -0.7121   -0.5380 C   0  0  0  0  0  0  0  0  0  0  0  0
   -5.5319    0.9564    0.4595 N   0  0  0  0  0  0  0  0  0  0  0  0
   -2.3334    3.0922   -0.5166 O   0  0  0  0  0  0  0  0  0  0  0  0
    9.5454   -1.4387    0.0624 C   0  0  0  0  0  0  0  0  0  0  0  0
   -3.1468   -0.4629    0.9309 C   0  0  0  0  0  0  0  0  0  0  0  0
    1.3846    1.5039    0.4051 C   0  0  0  0  0  0  0  0  0  0  0  0
   -3.2529    0.8843    1.2445 C   0  0  0  0  0  0  0  0  0  0  0  0
   -0.9573    1.8800    0.9327 C   0  0  0  0  0  0  0  0  0  0  0  0
   -1.1068    2.5819   -0.2752 C   0  0  0  0  0  0  0  0  0  0  0  0
   -3.6087    4.0443   -1.7463 H   0  0  0  0  0  0  0  0  0  0  0  0
   -1.9430    4.6396   -1.8572 H   0  0  0  0  0  0  0  0  0  0  0  0
   -2.3839    3.0862   -2.5982 H   0  0  0  0  0  0  0  0  0  0  0  0
   -1.1902   -1.3033    0.5324 H   0  0  0  0  0  0  0  0  0  0  0  0
   -1.4149   -0.7344    2.1667 H   0  0  0  0  0  0  0  0  0  0  0  0
   -2.1669   -2.2313    1.6785 H   0  0  0  0  0  0  0  0  0  0  0  0
   -7.6041   -3.6437   -1.5702 H   0  0  0  0  0  0  0  0  0  0  0  0
   -8.4640   -2.1884   -1.3006 H   0  0  0  0  0  0  0  0  0  0  0  0
   -2.2860   -2.8292   -0.3443 H   0  0  0  0  0  0  0  0  0  0  0  0
   -3.3295   -4.0576   -0.8914 H   0  0  0  0  0  0  0  0  0  0  0  0
    2.0385    2.3122   -1.4898 H   0  0  0  0  0  0  0  0  0  0  0  0
   -0.1079    3.2493   -2.0649 H   0  0  0  0  0  0  0  0  0  0  0  0
   -4.5655    2.5771    1.2172 H   0  0  0  0  0  0  0  0  0  0  0  0
    0.4077    0.8255    2.1874 H   0  0  0  0  0  0  0  0  0  0  0  0
    5.7464   -0.3751   -1.2025 H   0  0  0  0  0  0  0  0  0  0  0  0
    6.3445    1.1399   -0.5586 H   0  0  0  0  0  0  0  0  0  0  0  0
    4.4702   -0.7806    0.9081 H   0  0  0  0  0  0  0  0  0  0  0  0
    5.0662    0.7396    1.5625 H   0  0  0  0  0  0  0  0  0  0  0  0
    7.4603   -0.0844    1.3080 H   0  0  0  0  0  0  0  0  0  0  0  0
    6.8454   -1.6026    0.6864 H   0  0  0  0  0  0  0  0  0  0  0  0
    3.9565    1.9867   -0.2801 H   0  0  0  0  0  0  0  0  0  0  0  0
    3.4024    0.4653   -0.9877 H   0  0  0  0  0  0  0  0  0  0  0  0
    8.0963   -1.2246   -1.4646 H   0  0  0  0  0  0  0  0  0  0  0  0
    8.7142    0.2820   -0.8467 H   0  0  0  0  0  0  0  0  0  0  0  0
   -2.5347    2.6676    2.1468 H   0  0  0  0  0  0  0  0  0  0  0  0
   -1.7864    1.2318    2.7852 H   0  0  0  0  0  0  0  0  0  0  0  0
   11.3038   -1.9912   -0.3744 H   0  0  0  0  0  0  0  0  0  0  0  0
   -1.9217   -1.2264    1.3411 C   0  0  0  0  0  0  0  0  0  0  0  0
   -2.1354    1.6922    1.8577 C   0  0  0  0  0  0  0  0  0  0  0  0
    2.5430    0.9519    0.8320 O   0  0  0  0  0  0  0  0  0  0  0  0
   -2.5631    3.7459   -1.7446 C   0  0  0  0  0  0  0  0  0  0  0  0
  1  2  2  0
  1  6  1  0
  2  3  1  0
  2  7  1  0
  3  4  2  0
  4  5  1  0
  4 20  1  0
  5  6  2  0
  5 23  1  0
  6  8  1  0
 58 21  1  0
 58 28  1  0
 58 29  1  0
 58 30  1  0
 55 23  1  0
 55 31  1  0
 55 32  1  0
 55 33  1  0
  7 34  1  0
  7 35  1  0
  8 36  1  0
  8 37  1  0
  9 22  2  0
 10 22  1  0
 11 12  2  0
 11 24  1  0
 11 38  1  0
 12 27  1  0
 12 39  1  0
 13 20  2  0
 13 25  1  0
 13 40  1  0
 14 24  2  0
 14 26  1  0
 14 41  1  0
 15 16  1  0
 15 17  1  0
 15 42  1  0
 15 43  1  0
 16 18  1  0
 16 44  1  0
 16 45  1  0
 17 19  1  0
 17 46  1  0
 17 47  1  0
 18 57  1  0
 18 48  1  0
 18 49  1  0
 19 22  1  0
 19 50  1  0
 19 51  1  0
 56 25  1  0
 56 26  1  0
 56 52  1  0
 56 53  1  0
 21 27  1  0
 57 24  1  0
 23 25  2  0
 26 27  2  0
 10 54  1  0
M  END
