
     RDKit          3D

 72 76  0  0  0  0  0  0  0  0999 V2000
   12.5737    1.4162    1.3321 C   0  0  0  0  0  0  0  0  0  0  0  0
   12.4010    1.7882   -0.0570 N   0  0  0  0  0  0  0  0  0  0  0  0
   13.5666    2.4934   -0.5475 C   0  0  0  0  0  0  0  0  0  0  0  0
   12.1163    0.6522   -0.9079 C   0  0  0  0  0  0  0  0  0  0  0  0
   10.8411   -0.0874   -0.5759 C   0  0  0  0  0  0  0  0  0  0  0  0
    9.7494    0.8133   -0.6515 O   0  0  0  0  0  0  0  0  0  0  0  0
    8.5060    0.3381   -0.4549 C   0  0  0  0  0  0  0  0  0  0  0  0
    7.4659    1.2675   -0.5478 C   0  0  0  0  0  0  0  0  0  0  0  0
    6.1584    0.8718   -0.3704 C   0  0  0  0  0  0  0  0  0  0  0  0
    8.1985   -0.9895   -0.1739 C   0  0  0  0  0  0  0  0  0  0  0  0
    6.8781   -1.3763    0.0016 C   0  0  0  0  0  0  0  0  0  0  0  0
    5.8338   -0.4601   -0.0927 C   0  0  0  0  0  0  0  0  0  0  0  0
    4.4509   -0.8615    0.0819 C   0  0  0  0  0  0  0  0  0  0  0  0
    4.2169   -2.1914    0.2672 O   0  0  0  0  0  0  0  0  0  0  0  0
    3.2863   -0.1623    0.0939 C   0  0  0  0  0  0  0  0  0  0  0  0
    2.2550   -1.1288    0.2986 C   0  0  0  0  0  0  0  0  0  0  0  0
    2.8923   -2.3545    0.3948 C   0  0  0  0  0  0  0  0  0  0  0  0
    2.3353   -3.5322    0.5765 N   0  0  0  0  0  0  0  0  0  0  0  0
    1.0183   -3.4475    0.6644 C   0  0  0  0  0  0  0  0  0  0  0  0
    0.2627   -2.3575    0.5959 N   0  0  0  0  0  0  0  0  0  0  0  0
    0.8513   -1.1785    0.4108 C   0  0  0  0  0  0  0  0  0  0  0  0
    0.0848   -0.0764    0.3201 N   0  0  0  0  0  0  0  0  0  0  0  0
   -1.3503   -0.0810    0.4974 C   0  0  0  0  0  0  0  0  0  0  0  0
   -1.9510    1.2175   -0.0325 C   0  0  0  0  0  0  0  0  0  0  0  0
   -3.4468    1.2209    0.1021 C   0  0  0  0  0  0  0  0  0  0  0  0
   -4.2543    0.6836   -0.8929 C   0  0  0  0  0  0  0  0  0  0  0  0
   -5.6342    0.6301   -0.7826 C   0  0  0  0  0  0  0  0  0  0  0  0
   -4.0754    1.7132    1.2394 C   0  0  0  0  0  0  0  0  0  0  0  0
   -5.4511    1.6664    1.3717 C   0  0  0  0  0  0  0  0  0  0  0  0
   -6.2522    1.1246    0.3658 C   0  0  0  0  0  0  0  0  0  0  0  0
   -7.6332    1.1450    0.5754 N   0  0  0  0  0  0  0  0  0  0  0  0
   -8.6090    0.5029   -0.1530 C   0  0  0  0  0  0  0  0  0  0  0  0
   -8.3851   -0.2128   -1.1010 O   0  0  0  0  0  0  0  0  0  0  0  0
   -9.8690    0.7723    0.3285 N   0  0  0  0  0  0  0  0  0  0  0  0
  -11.0868    0.2875   -0.1616 C   0  0  0  0  0  0  0  0  0  0  0  0
  -11.2114   -0.8712   -0.9274 C   0  0  0  0  0  0  0  0  0  0  0  0
  -12.4694   -1.2874   -1.3362 C   0  0  0  0  0  0  0  0  0  0  0  0
  -13.6123   -0.5814   -0.9945 C   0  0  0  0  0  0  0  0  0  0  0  0
  -13.4865    0.5667   -0.2277 C   0  0  0  0  0  0  0  0  0  0  0  0
  -12.2373    0.9987    0.1820 C   0  0  0  0  0  0  0  0  0  0  0  0
   12.8489    2.2947    1.9156 H   0  0  0  0  0  0  0  0  0  0  0  0
   11.6481    1.0305    1.7587 H   0  0  0  0  0  0  0  0  0  0  0  0
   13.3572    0.6579    1.4853 H   0  0  0  0  0  0  0  0  0  0  0  0
   14.4828    1.8827   -0.5420 H   0  0  0  0  0  0  0  0  0  0  0  0
   13.4026    2.8290   -1.5728 H   0  0  0  0  0  0  0  0  0  0  0  0
   13.7588    3.3767    0.0626 H   0  0  0  0  0  0  0  0  0  0  0  0
   12.0598    1.0010   -1.9430 H   0  0  0  0  0  0  0  0  0  0  0  0
   12.9227   -0.1013   -0.8844 H   0  0  0  0  0  0  0  0  0  0  0  0
   10.7257   -0.9009   -1.3005 H   0  0  0  0  0  0  0  0  0  0  0  0
   10.8913   -0.5475    0.4166 H   0  0  0  0  0  0  0  0  0  0  0  0
    7.6933    2.3029   -0.7691 H   0  0  0  0  0  0  0  0  0  0  0  0
    5.3771    1.6160   -0.4568 H   0  0  0  0  0  0  0  0  0  0  0  0
    8.9692   -1.7425   -0.0910 H   0  0  0  0  0  0  0  0  0  0  0  0
    6.6732   -2.4165    0.2140 H   0  0  0  0  0  0  0  0  0  0  0  0
    3.1856    0.9039   -0.0272 H   0  0  0  0  0  0  0  0  0  0  0  0
    0.4864   -4.3798    0.8149 H   0  0  0  0  0  0  0  0  0  0  0  0
    0.5511    0.8138    0.3319 H   0  0  0  0  0  0  0  0  0  0  0  0
   -1.7695   -0.9321   -0.0389 H   0  0  0  0  0  0  0  0  0  0  0  0
   -1.6201   -0.2157    1.5507 H   0  0  0  0  0  0  0  0  0  0  0  0
   -1.5269    2.0696    0.5089 H   0  0  0  0  0  0  0  0  0  0  0  0
   -1.6699    1.3419   -1.0818 H   0  0  0  0  0  0  0  0  0  0  0  0
   -3.7981    0.2927   -1.7948 H   0  0  0  0  0  0  0  0  0  0  0  0
   -6.2130    0.2044   -1.5848 H   0  0  0  0  0  0  0  0  0  0  0  0
   -3.4880    2.1461    2.0405 H   0  0  0  0  0  0  0  0  0  0  0  0
   -5.9066    2.0604    2.2734 H   0  0  0  0  0  0  0  0  0  0  0  0
   -7.9121    1.5928    1.4323 H   0  0  0  0  0  0  0  0  0  0  0  0
   -9.9626    1.5187    0.9965 H   0  0  0  0  0  0  0  0  0  0  0  0
  -10.3434   -1.4448   -1.2077 H   0  0  0  0  0  0  0  0  0  0  0  0
  -12.5499   -2.1876   -1.9313 H   0  0  0  0  0  0  0  0  0  0  0  0
  -14.5866   -0.9212   -1.3178 H   0  0  0  0  0  0  0  0  0  0  0  0
  -14.3629    1.1366    0.0513 H   0  0  0  0  0  0  0  0  0  0  0  0
  -12.1571    1.9031    0.7756 H   0  0  0  0  0  0  0  0  0  0  0  0
  1  2  1  0
  2  3  1  0
  2  4  1  0
  4  5  1  0
  6  5  1  0
  6  7  1  0
 10  7  2  0
 10 11  1  0
  7  8  1  0
 11 12  2  0
  8  9  2  0
 12  9  1  0
 12 13  1  0
 15 13  2  0
 15 16  1  0
 13 14  1  0
 22 23  1  0
 22 21  1  0
 16 21  1  0
 16 17  2  0
 14 17  1  0
 23 24  1  0
 26 27  2  0
 26 25  1  0
 39 40  2  0
 39 38  1  0
 21 20  2  0
 24 25  1  0
 33 32  2  0
 27 30  1  0
 40 35  1  0
 17 18  1  0
 25 28  2  0
 38 37  2  0
 32 31  1  0
 32 34  1  0
 20 19  1  0
 30 31  1  0
 30 29  2  0
 35 34  1  0
 35 36  2  0
 18 19  2  0
 28 29  1  0
 37 36  1  0
  1 41  1  0
  1 42  1  0
  1 43  1  0
  3 44  1  0
  3 45  1  0
  3 46  1  0
  4 47  1  0
  4 48  1  0
  5 49  1  0
  5 50  1  0
  8 51  1  0
  9 52  1  0
 10 53  1  0
 11 54  1  0
 15 55  1  0
 19 56  1  0
 22 57  1  0
 23 58  1  0
 23 59  1  0
 24 60  1  0
 24 61  1  0
 26 62  1  0
 27 63  1  0
 28 64  1  0
 29 65  1  0
 31 66  1  0
 34 67  1  0
 36 68  1  0
 37 69  1  0
 38 70  1  0
 39 71  1  0
 40 72  1  0
M  END
