
     RDKit          3D

 20 20  0  0  0  0  0  0  0  0999 V2000
    2.3437   -1.3095   -0.0871 O   0  0  0  0  0  0  0  0  0  0  0  0
    1.9674   -0.1522   -0.0685 C   0  0  0  0  0  0  0  0  0  0  0  0
    2.8375    0.8533   -0.0751 O   0  0  0  0  0  0  0  0  0  0  0  0
    0.5650    0.2841   -0.0327 C   0  0  0  0  0  0  0  0  0  0  0  0
    0.2614    1.6538    0.0306 C   0  0  0  0  0  0  0  0  0  0  0  0
   -1.0380    2.0961    0.0856 C   0  0  0  0  0  0  0  0  0  0  0  0
   -2.0714    1.1567    0.0752 C   0  0  0  0  0  0  0  0  0  0  0  0
   -1.8285   -0.1984    0.0078 C   0  0  0  0  0  0  0  0  0  0  0  0
   -2.9607   -1.1824   -0.0168 C   0  0  0  0  0  0  0  0  0  0  0  0
   -0.4884   -0.6651   -0.0470 C   0  0  0  0  0  0  0  0  0  0  0  0
   -0.2719   -1.9990   -0.1485 N   0  0  0  0  0  0  0  0  0  0  0  0
    3.7381    0.4980   -0.0911 H   0  0  0  0  0  0  0  0  0  0  0  0
    1.0628    2.3787    0.0405 H   0  0  0  0  0  0  0  0  0  0  0  0
   -1.2573    3.1536    0.1367 H   0  0  0  0  0  0  0  0  0  0  0  0
   -3.0995    1.4977    0.1188 H   0  0  0  0  0  0  0  0  0  0  0  0
   -2.9468   -1.7956   -0.9212 H   0  0  0  0  0  0  0  0  0  0  0  0
   -2.9314   -1.8667    0.8356 H   0  0  0  0  0  0  0  0  0  0  0  0
   -3.9198   -0.6690    0.0160 H   0  0  0  0  0  0  0  0  0  0  0  0
   -1.0136   -2.6315    0.0942 H   0  0  0  0  0  0  0  0  0  0  0  0
    0.6653   -2.3427   -0.0251 H   0  0  0  0  0  0  0  0  0  0  0  0
  9  8  1  0
  7  8  2  0
  7  6  1  0
  8 10  1  0
  6  5  2  0
 10 11  1  0
 10  4  2  0
  5  4  1  0
  4  2  1  0
  2  1  2  0
  2  3  1  0
  3 12  1  0
  5 13  1  0
  6 14  1  0
  7 15  1  0
  9 16  1  0
  9 17  1  0
  9 18  1  0
 11 19  1  0
 11 20  1  0
M  END
