
     RDKit          3D

 26 27  0  0  0  0  0  0  0  0999 V2000
    0.8523    1.2585   -0.4307 C   0  0  0  0  0  0  0  0  0  0  0  0
    0.6087    0.2590   -1.3266 C   0  0  0  0  0  0  0  0  0  0  0  0
    1.5658   -0.7784   -1.2379 C   0  0  0  0  0  0  0  0  0  0  0  0
    2.4917   -0.5264   -0.2689 C   0  0  0  0  0  0  0  0  0  0  0  0
   -2.1161    1.0674    0.7035 C   0  0  0  0  0  0  0  0  0  0  0  0
   -1.9414   -0.1440    1.3671 C   0  0  0  0  0  0  0  0  0  0  0  0
   -2.7746   -1.2128    1.0988 C   0  0  0  0  0  0  0  0  0  0  0  0
   -3.7687   -1.0630    0.1432 C   0  0  0  0  0  0  0  0  0  0  0  0
   -3.9531    0.1354   -0.5313 C   0  0  0  0  0  0  0  0  0  0  0  0
   -3.1287    1.2063   -0.2421 C   0  0  0  0  0  0  0  0  0  0  0  0
   -1.2731    2.1569    1.0047 N   0  0  0  0  0  0  0  0  0  0  0  0
   -4.6406   -2.1877   -0.1533 N   0  0  0  0  0  0  0  0  0  0  0  0
    0.6542    3.6493    0.5358 O   0  0  0  0  0  0  0  0  0  0  0  0
   -0.8764    2.9346   -1.3504 O   0  0  0  0  0  0  0  0  0  0  0  0
   -5.4854   -2.0433   -1.0050 O   0  0  0  0  0  0  0  0  0  0  0  0
   -4.4755   -3.2117    0.4669 O   0  0  0  0  0  0  0  0  0  0  0  0
    2.2357    0.9604    0.5439 S   0  0  0  0  0  0  0  0  0  0  0  0
   -0.1544    2.6497   -0.1298 S   0  0  1  0  0  0  0  0  0  0  0  0
    3.9387   -1.5892    0.1879 Br  0  0  0  0  0  0  0  0  0  0  0  0
   -0.2150    0.2584   -2.0255 H   0  0  0  0  0  0  0  0  0  0  0  0
    1.5666   -1.6592   -1.8624 H   0  0  0  0  0  0  0  0  0  0  0  0
   -1.1512   -0.2549    2.0982 H   0  0  0  0  0  0  0  0  0  0  0  0
   -2.6327   -2.1469    1.6219 H   0  0  0  0  0  0  0  0  0  0  0  0
   -4.7376    0.2518   -1.2642 H   0  0  0  0  0  0  0  0  0  0  0  0
   -3.2903    2.1520   -0.7376 H   0  0  0  0  0  0  0  0  0  0  0  0
   -0.8637    2.1246    1.9341 H   0  0  0  0  0  0  0  0  0  0  0  0
  9 10  2  0
  9  8  1  0
 15 12  1  0
 10  5  1  0
 12 16  2  0
 12  8  1  0
  8  7  2  0
  5 11  1  0
  5  6  2  0
 18 11  1  1
  7  6  1  0
 13 18  2  0
 14 18  2  0
 18  1  1  0
  1 17  1  0
  1  2  2  0
 17  4  1  0
  2  3  1  0
  3  4  2  0
  4 19  1  0
  2 20  1  0
  3 21  1  0
  6 22  1  0
  7 23  1  0
  9 24  1  0
 10 25  1  0
 11 26  1  0
M  CHG  2  12   1  15  -1
M  END
