
     RDKit          3D

 63 62  0  0  0  0  0  0  0  0999 V2000
    1.2090    0.0180  -12.0847 C   0  0  0  0  0  0  0  0  0  0  0  0
    0.0924    0.0224  -11.0691 C   0  0  0  0  0  0  0  0  0  0  0  0
   -1.0908    0.0635  -11.3767 O   0  0  0  0  0  0  0  0  0  0  0  0
    0.4950   -0.0137   -9.7863 N   0  0  0  0  0  0  0  0  0  0  0  0
   -0.4399   -0.0132   -8.6829 C   0  0  0  0  0  0  0  0  0  0  0  0
    0.3314   -0.0375   -7.3721 C   0  0  0  0  0  0  0  0  0  0  0  0
   -0.8653   -0.0392   -6.0110 S   0  0  0  0  0  0  0  0  0  0  0  0
    0.2169   -0.0412   -4.6024 C   0  0  0  0  0  0  0  0  0  0  0  0
    1.4145   -0.0438   -4.7119 O   0  0  0  0  0  0  0  0  0  0  0  0
   -0.5337   -0.0407   -3.2968 C   0  0  0  0  0  0  0  0  0  0  0  0
    0.3593   -0.0391   -2.0648 C   0  0  0  0  0  0  0  0  0  0  0  0
   -0.4616   -0.0375   -0.7809 C   0  0  0  0  0  0  0  0  0  0  0  0
    0.4017   -0.0271    0.4745 C   0  0  0  0  0  0  0  0  0  0  0  0
   -0.4159   -0.0254    1.7600 C   0  0  0  0  0  0  0  0  0  0  0  0
    0.4416   -0.0156    3.0197 C   0  0  0  0  0  0  0  0  0  0  0  0
   -0.3792   -0.0141    4.3033 C   0  0  0  0  0  0  0  0  0  0  0  0
    0.4739   -0.0041    5.5659 C   0  0  0  0  0  0  0  0  0  0  0  0
   -0.3508   -0.0029    6.8470 C   0  0  0  0  0  0  0  0  0  0  0  0
    0.4982    0.0069    8.1125 C   0  0  0  0  0  0  0  0  0  0  0  0
   -0.3311    0.0094    9.3907 C   0  0  0  0  0  0  0  0  0  0  0  0
    0.5133    0.0179   10.6593 C   0  0  0  0  0  0  0  0  0  0  0  0
   -0.3209    0.0181   11.9343 C   0  0  0  0  0  0  0  0  0  0  0  0
    0.5170    0.0296   13.2073 C   0  0  0  0  0  0  0  0  0  0  0  0
   -0.3333    0.0231   14.4704 C   0  0  0  0  0  0  0  0  0  0  0  0
    1.8633   -0.8432  -11.9447 H   0  0  0  0  0  0  0  0  0  0  0  0
    0.8036   -0.0110  -13.0926 H   0  0  0  0  0  0  0  0  0  0  0  0
    1.8238    0.9133  -11.9820 H   0  0  0  0  0  0  0  0  0  0  0  0
    1.4816   -0.0594   -9.5871 H   0  0  0  0  0  0  0  0  0  0  0  0
   -1.0993   -0.8828   -8.7455 H   0  0  0  0  0  0  0  0  0  0  0  0
   -1.0730    0.8765   -8.7270 H   0  0  0  0  0  0  0  0  0  0  0  0
    0.9716    0.8407   -7.2850 H   0  0  0  0  0  0  0  0  0  0  0  0
    0.9514   -0.9319   -7.3050 H   0  0  0  0  0  0  0  0  0  0  0  0
   -1.1962   -0.9126   -3.2895 H   0  0  0  0  0  0  0  0  0  0  0  0
   -1.1976    0.8301   -3.2907 H   0  0  0  0  0  0  0  0  0  0  0  0
    1.0133    0.8369   -2.0806 H   0  0  0  0  0  0  0  0  0  0  0  0
    1.0121   -0.9159   -2.0783 H   0  0  0  0  0  0  0  0  0  0  0  0
   -1.1150   -0.9168   -0.7645 H   0  0  0  0  0  0  0  0  0  0  0  0
   -1.1253    0.8342   -0.7722 H   0  0  0  0  0  0  0  0  0  0  0  0
    1.0555    0.8518    0.4580 H   0  0  0  0  0  0  0  0  0  0  0  0
    1.0651   -0.8992    0.4663 H   0  0  0  0  0  0  0  0  0  0  0  0
   -1.0714   -0.9035    1.7745 H   0  0  0  0  0  0  0  0  0  0  0  0
   -1.0790    0.8471    1.7668 H   0  0  0  0  0  0  0  0  0  0  0  0
    1.0964    0.8630    3.0061 H   0  0  0  0  0  0  0  0  0  0  0  0
    1.1053   -0.8876    3.0137 H   0  0  0  0  0  0  0  0  0  0  0  0
   -1.0344   -0.8927    4.3159 H   0  0  0  0  0  0  0  0  0  0  0  0
   -1.0432    0.8578    4.3077 H   0  0  0  0  0  0  0  0  0  0  0  0
    1.1287    0.8747    5.5547 H   0  0  0  0  0  0  0  0  0  0  0  0
    1.1379   -0.8760    5.5621 H   0  0  0  0  0  0  0  0  0  0  0  0
   -1.0057   -0.8815    6.8576 H   0  0  0  0  0  0  0  0  0  0  0  0
   -1.0150    0.8689    6.8500 H   0  0  0  0  0  0  0  0  0  0  0  0
    1.1538    0.8852    8.1032 H   0  0  0  0  0  0  0  0  0  0  0  0
    1.1614   -0.8655    8.1116 H   0  0  0  0  0  0  0  0  0  0  0  0
   -0.9873   -0.8684    9.3988 H   0  0  0  0  0  0  0  0  0  0  0  0
   -0.9938    0.8822    9.3912 H   0  0  0  0  0  0  0  0  0  0  0  0
    1.1689    0.8961   10.6535 H   0  0  0  0  0  0  0  0  0  0  0  0
    1.1766   -0.8545   10.6598 H   0  0  0  0  0  0  0  0  0  0  0  0
   -0.9748   -0.8616   11.9404 H   0  0  0  0  0  0  0  0  0  0  0  0
   -0.9869    0.8885   11.9323 H   0  0  0  0  0  0  0  0  0  0  0  0
    1.1661    0.9110   13.2053 H   0  0  0  0  0  0  0  0  0  0  0  0
    1.1846   -0.8378   13.2086 H   0  0  0  0  0  0  0  0  0  0  0  0
    0.2807    0.0305   15.3717 H   0  0  0  0  0  0  0  0  0  0  0  0
   -0.9864    0.8972   14.5081 H   0  0  0  0  0  0  0  0  0  0  0  0
   -0.9686   -0.8639   14.5109 H   0  0  0  0  0  0  0  0  0  0  0  0
  1  2  1  0
  1 25  1  0
  1 26  1  0
  1 27  1  0
  2  3  2  0
  2  4  1  0
  4  5  1  0
  4 28  1  0
  5  6  1  0
  5 29  1  0
  5 30  1  0
  6  7  1  0
  6 31  1  0
  6 32  1  0
  7  8  1  0
  8  9  2  0
  8 10  1  0
 10 11  1  0
 10 33  1  0
 10 34  1  0
 11 12  1  0
 11 35  1  0
 11 36  1  0
 12 13  1  0
 12 37  1  0
 12 38  1  0
 13 14  1  0
 13 39  1  0
 13 40  1  0
 14 15  1  0
 14 41  1  0
 14 42  1  0
 15 16  1  0
 15 43  1  0
 15 44  1  0
 16 17  1  0
 16 45  1  0
 16 46  1  0
 17 18  1  0
 17 47  1  0
 17 48  1  0
 18 19  1  0
 18 49  1  0
 18 50  1  0
 19 20  1  0
 19 51  1  0
 19 52  1  0
 20 21  1  0
 20 53  1  0
 20 54  1  0
 21 22  1  0
 21 55  1  0
 21 56  1  0
 22 23  1  0
 22 57  1  0
 22 58  1  0
 23 24  1  0
 23 59  1  0
 23 60  1  0
 24 61  1  0
 24 62  1  0
 24 63  1  0
M  END
