
     RDKit          3D

 26 27  0  0  0  0  0  0  0  0999 V2000
   -1.5382   -0.8050   -0.9288 C   0  0  0  0  0  0  0  0  0  0  0  0
   -2.5098   -0.5233    1.2412 C   0  0  0  0  0  0  0  0  0  0  0  0
   -2.6302   -0.1801   -1.5089 C   0  0  0  0  0  0  0  0  0  0  0  0
   -3.6122    0.1059    0.6779 C   0  0  0  0  0  0  0  0  0  0  0  0
   -1.4635   -0.9834    0.4510 C   0  0  0  0  0  0  0  0  0  0  0  0
   -3.6598    0.2718   -0.6958 C   0  0  0  0  0  0  0  0  0  0  0  0
    2.9438    0.1858    0.3017 C   0  0  0  0  0  0  0  0  0  0  0  0
    4.1358    0.3109   -0.4864 C   0  0  0  0  0  0  0  0  0  0  0  0
    1.8626   -0.8180    0.1553 C   0  0  0  0  0  0  0  0  0  0  0  0
   -0.2590   -1.6387    1.0779 C   0  0  0  0  0  0  0  0  0  0  0  0
    2.9445    1.1361    1.1775 N   0  0  0  0  0  0  0  0  0  0  0  0
    4.7918    1.3439   -0.0353 N   0  0  0  0  0  0  0  0  0  0  0  0
    4.5630   -0.4955   -1.4757 N   0  0  0  0  0  0  0  0  0  0  0  0
    0.9006   -0.7694    1.0804 N   0  0  0  0  0  0  0  0  0  0  0  0
    1.9099   -1.6162   -0.7707 O   0  0  0  0  0  0  0  0  0  0  0  0
    4.0464    1.8378    0.9898 O   0  0  0  0  0  0  0  0  0  0  0  0
   -5.0299    1.0544   -1.4147 Cl  0  0  0  0  0  0  0  0  0  0  0  0
   -0.7378   -1.1620   -1.5651 H   0  0  0  0  0  0  0  0  0  0  0  0
   -2.4725   -0.6536    2.3160 H   0  0  0  0  0  0  0  0  0  0  0  0
   -2.6793   -0.0506   -2.5816 H   0  0  0  0  0  0  0  0  0  0  0  0
   -4.4159    0.4667    1.3054 H   0  0  0  0  0  0  0  0  0  0  0  0
   -0.4753   -1.9082    2.1113 H   0  0  0  0  0  0  0  0  0  0  0  0
   -0.0027   -2.5575    0.5528 H   0  0  0  0  0  0  0  0  0  0  0  0
    3.8736   -1.0865   -1.9081 H   0  0  0  0  0  0  0  0  0  0  0  0
    5.2803   -0.1420   -2.0870 H   0  0  0  0  0  0  0  0  0  0  0  0
    0.9371   -0.0455    1.7818 H   0  0  0  0  0  0  0  0  0  0  0  0
 17  6  1  0
  6  4  2  0
  6  3  1  0
  4  2  1  0
  3  1  2  0
  2  5  2  0
  1  5  1  0
  5 10  1  0
 10 14  1  0
 14  9  1  0
 11  7  2  0
 11 16  1  0
  9  7  1  0
  9 15  2  0
  7  8  1  0
 16 12  1  0
  8 12  2  0
  8 13  1  0
  1 18  1  0
  2 19  1  0
  3 20  1  0
  4 21  1  0
 10 22  1  0
 10 23  1  0
 13 24  1  0
 13 25  1  0
 14 26  1  0
M  END
