
     RDKit          3D

 51 53  0  0  0  0  0  0  0  0999 V2000
    4.1255    2.0933   -1.7064 C   0  0  0  0  0  0  0  0  0  0  0  0
    3.8610    2.9421    0.6248 C   0  0  0  0  0  0  0  0  0  0  0  0
    5.3537   -1.6040    1.5755 C   0  0  0  0  0  0  0  0  0  0  0  0
    5.0920   -2.4813   -0.7473 C   0  0  0  0  0  0  0  0  0  0  0  0
   -7.8803   -1.1333   -0.6215 O   0  0  0  0  0  0  0  0  0  0  0  0
   -0.8768    1.6397    0.6356 O   0  0  0  0  0  0  0  0  0  0  0  0
   -7.7762    0.8669    0.3577 O   0  0  0  0  0  0  0  0  0  0  0  0
   -3.6794   -1.3624   -0.5482 C   0  0  0  0  0  0  0  0  0  0  0  0
   -3.6404    0.8052    0.5003 C   0  0  0  0  0  0  0  0  0  0  0  0
   -5.0562   -1.3267   -0.5856 C   0  0  0  0  0  0  0  0  0  0  0  0
   -5.0240    0.8279    0.4591 C   0  0  0  0  0  0  0  0  0  0  0  0
    1.1503   -1.3307    0.4279 C   0  0  0  0  0  0  0  0  0  0  0  0
    2.4838   -1.6856    0.3840 C   0  0  0  0  0  0  0  0  0  0  0  0
    1.7959    0.9421    0.0635 C   0  0  0  0  0  0  0  0  0  0  0  0
    5.5685    1.2141    0.1577 C   0  0  0  0  0  0  0  0  0  0  0  0
    5.8742   -0.1561   -0.4106 C   0  0  0  0  0  0  0  0  0  0  0  0
   -1.5644   -0.4290   -0.0099 N   0  0  0  0  0  0  0  0  0  0  0  0
   -7.2285   -0.2296   -0.1514 C   0  0  0  0  0  0  0  0  0  0  0  0
   -2.9481   -0.2969   -0.0093 C   0  0  0  0  0  0  0  0  0  0  0  0
   -5.7526   -0.2276   -0.0836 C   0  0  0  0  0  0  0  0  0  0  0  0
    0.7909    0.0043    0.2547 C   0  0  0  0  0  0  0  0  0  0  0  0
    3.5000   -0.7521    0.1618 C   0  0  0  0  0  0  0  0  0  0  0  0
    3.1456    0.5978    0.0177 C   0  0  0  0  0  0  0  0  0  0  0  0
    4.1683    1.7016   -0.2220 C   0  0  2  0  0  0  0  0  0  0  0  0
    4.9425   -1.2405    0.1405 C   0  0  2  0  0  0  0  0  0  0  0  0
    4.8430    2.8914   -1.9105 H   0  0  0  0  0  0  0  0  0  0  0  0
    4.3675    1.2543   -2.3608 H   0  0  0  0  0  0  0  0  0  0  0  0
    3.1344    2.4534   -1.9877 H   0  0  0  0  0  0  0  0  0  0  0  0
    2.9344    3.4372    0.3337 H   0  0  0  0  0  0  0  0  0  0  0  0
    3.7913    2.6922    1.6850 H   0  0  0  0  0  0  0  0  0  0  0  0
    4.6638    3.6724    0.5072 H   0  0  0  0  0  0  0  0  0  0  0  0
    6.3846   -1.9641    1.5924 H   0  0  0  0  0  0  0  0  0  0  0  0
    5.2836   -0.7492    2.2488 H   0  0  0  0  0  0  0  0  0  0  0  0
    4.7189   -2.3937    1.9806 H   0  0  0  0  0  0  0  0  0  0  0  0
    4.5628   -3.3510   -0.3580 H   0  0  0  0  0  0  0  0  0  0  0  0
    4.7299   -2.2911   -1.7590 H   0  0  0  0  0  0  0  0  0  0  0  0
    6.1466   -2.7559   -0.8169 H   0  0  0  0  0  0  0  0  0  0  0  0
   -3.1589   -2.2262   -0.9432 H   0  0  0  0  0  0  0  0  0  0  0  0
   -3.1181    1.6438    0.9273 H   0  0  0  0  0  0  0  0  0  0  0  0
   -5.5922   -2.1632   -1.0119 H   0  0  0  0  0  0  0  0  0  0  0  0
   -5.5273    1.6950    0.8632 H   0  0  0  0  0  0  0  0  0  0  0  0
    0.4143   -2.0993    0.6279 H   0  0  0  0  0  0  0  0  0  0  0  0
    2.7384   -2.7262    0.5390 H   0  0  0  0  0  0  0  0  0  0  0  0
    1.5107    1.9785   -0.0610 H   0  0  0  0  0  0  0  0  0  0  0  0
    5.6597    1.1922    1.2488 H   0  0  0  0  0  0  0  0  0  0  0  0
    6.3033    1.9437   -0.1937 H   0  0  0  0  0  0  0  0  0  0  0  0
    5.7930   -0.1284   -1.5017 H   0  0  0  0  0  0  0  0  0  0  0  0
    6.9087   -0.4365   -0.1929 H   0  0  0  0  0  0  0  0  0  0  0  0
   -1.2297   -1.3013   -0.3902 H   0  0  0  0  0  0  0  0  0  0  0  0
   -8.7407    0.8176    0.2841 H   0  0  0  0  0  0  0  0  0  0  0  0
   -0.6155    0.4930    0.3198 C   0  0  0  0  0  0  0  0  0  0  0  0
 24  1  1  6
  1 26  1  0
  1 27  1  0
  1 28  1  0
  2 24  1  0
  2 29  1  0
  2 30  1  0
  2 31  1  0
 25  3  1  1
  3 32  1  0
  3 33  1  0
  3 34  1  0
  4 25  1  0
  4 35  1  0
  4 36  1  0
  4 37  1  0
  5 18  2  0
  6 51  2  0
  7 18  1  0
  8 10  2  0
  8 19  1  0
  8 38  1  0
  9 11  1  0
  9 19  2  0
  9 39  1  0
 10 20  1  0
 10 40  1  0
 11 20  2  0
 11 41  1  0
 12 13  2  0
 12 21  1  0
 12 42  1  0
 13 22  1  0
 13 43  1  0
 14 21  2  0
 14 23  1  0
 14 44  1  0
 15 16  1  0
 15 24  1  0
 15 45  1  0
 15 46  1  0
 16 25  1  0
 16 47  1  0
 16 48  1  0
 17 51  1  0
 17 19  1  0
 17 49  1  0
 18 20  1  0
 51 21  1  0
 22 23  2  0
 22 25  1  0
 23 24  1  0
  7 50  1  0
M  END
