
     RDKit          3D

 27 27  0  0  0  0  0  0  0  0999 V2000
   -0.7774    3.4226   -0.7194 C   0  0  0  0  0  0  0  0  0  0  0  0
   -1.5574    2.2548   -0.1869 C   0  0  0  0  0  0  0  0  0  0  0  0
   -2.8195    2.4441    0.3664 C   0  0  0  0  0  0  0  0  0  0  0  0
   -3.5650    1.3746    0.8384 C   0  0  0  0  0  0  0  0  0  0  0  0
   -3.0649    0.0839    0.7694 C   0  0  0  0  0  0  0  0  0  0  0  0
   -1.8027   -0.1060    0.2295 C   0  0  0  0  0  0  0  0  0  0  0  0
   -1.0423    0.9547   -0.2443 C   0  0  0  0  0  0  0  0  0  0  0  0
    0.3230    0.7236   -0.8287 C   0  0  0  0  0  0  0  0  0  0  0  0
    1.4462    0.6223    0.1712 C   0  0  0  0  0  0  0  0  0  0  0  0
    2.7113   -0.0135   -0.4046 C   0  0  1  0  0  0  0  0  0  0  0  0
    3.8301    0.0460    0.6257 C   0  0  0  0  0  0  0  0  0  0  0  0
    0.4911    0.7009   -2.0216 O   0  0  0  0  0  0  0  0  0  0  0  0
    2.4994   -1.3201   -0.8391 O   0  0  0  0  0  0  0  0  0  0  0  0
    4.3077   -0.9237    1.1543 O   0  0  0  0  0  0  0  0  0  0  0  0
    4.2016    1.2922    0.8748 O   0  0  0  0  0  0  0  0  0  0  0  0
   -1.1172   -1.8655    0.1105 Br  0  0  0  0  0  0  0  0  0  0  0  0
    0.2514    3.4332   -0.3571 H   0  0  0  0  0  0  0  0  0  0  0  0
   -0.7360    3.4046   -1.8092 H   0  0  0  0  0  0  0  0  0  0  0  0
   -1.2379    4.3626   -0.4217 H   0  0  0  0  0  0  0  0  0  0  0  0
   -3.2234    3.4466    0.4287 H   0  0  0  0  0  0  0  0  0  0  0  0
   -4.5452    1.5444    1.2634 H   0  0  0  0  0  0  0  0  0  0  0  0
   -3.6504   -0.7513    1.1288 H   0  0  0  0  0  0  0  0  0  0  0  0
    1.6428    1.6466    0.5095 H   0  0  0  0  0  0  0  0  0  0  0  0
    1.1088    0.0870    1.0635 H   0  0  0  0  0  0  0  0  0  0  0  0
    3.0327    0.5621   -1.2774 H   0  0  0  0  0  0  0  0  0  0  0  0
    2.2664   -1.8724   -0.0846 H   0  0  0  0  0  0  0  0  0  0  0  0
    4.8985    1.3105    1.5484 H   0  0  0  0  0  0  0  0  0  0  0  0
 12  8  2  0
 16  6  1  0
 13 10  1  0
  6  5  2  0
  6  7  1  0
  8  7  1  0
  8  9  1  0
  5  4  1  0
  7  2  2  0
 10  9  1  0
 10 11  1  0
  4  3  2  0
 14 11  2  0
  2  3  1  0
  2  1  1  0
 11 15  1  0
  1 17  1  0
  1 18  1  0
  1 19  1  0
  3 20  1  0
  4 21  1  0
  5 22  1  0
  9 23  1  0
  9 24  1  0
 10 25  1  6
 13 26  1  0
 15 27  1  0
M  END
