
     RDKit          3D

 30 31  0  0  0  0  0  0  0  0999 V2000
    3.8371   -2.5060   -0.0184 C   0  0  0  0  0  0  0  0  0  0  0  0
    2.6745   -2.9416    0.6032 C   0  0  0  0  0  0  0  0  0  0  0  0
    3.9315   -1.1948   -0.4573 C   0  0  0  0  0  0  0  0  0  0  0  0
    1.6210   -2.0615    0.7870 C   0  0  0  0  0  0  0  0  0  0  0  0
   -3.8130    1.7344    0.2352 C   0  0  0  0  0  0  0  0  0  0  0  0
    3.5312    2.0448    0.2960 C   0  0  0  0  0  0  0  0  0  0  0  0
   -0.6045   -0.0841    0.0761 C   0  0  0  0  0  0  0  0  0  0  0  0
    2.8768   -0.2972   -0.3025 C   0  0  0  0  0  0  0  0  0  0  0  0
   -2.8176    0.8202   -0.0119 C   0  0  0  0  0  0  0  0  0  0  0  0
    1.7183   -0.7490    0.3355 C   0  0  0  0  0  0  0  0  0  0  0  0
   -5.0088    1.3840   -0.2833 N   0  0  0  0  0  0  0  0  0  0  0  0
   -5.0196    0.2797   -0.9082 N   0  0  0  0  0  0  0  0  0  0  0  0
   -1.5178    0.8988    0.3846 N   0  0  0  0  0  0  0  0  0  0  0  0
    0.6423    0.1441    0.5430 N   0  0  0  0  0  0  0  0  0  0  0  0
   -0.9424   -1.0626   -0.5683 O   0  0  0  0  0  0  0  0  0  0  0  0
    3.6304    3.3445   -0.2369 O   0  0  0  0  0  0  0  0  0  0  0  0
   -3.5016   -0.4563   -0.9145 S   0  0  0  0  0  0  0  0  0  0  0  0
    4.6666   -3.1861   -0.1610 H   0  0  0  0  0  0  0  0  0  0  0  0
    2.5904   -3.9614    0.9551 H   0  0  0  0  0  0  0  0  0  0  0  0
    4.8376   -0.8577   -0.9469 H   0  0  0  0  0  0  0  0  0  0  0  0
    0.7246   -2.3905    1.2955 H   0  0  0  0  0  0  0  0  0  0  0  0
    2.8557    2.0198    1.1632 H   0  0  0  0  0  0  0  0  0  0  0  0
    4.5019    1.6729    0.6485 H   0  0  0  0  0  0  0  0  0  0  0  0
   -1.2452    1.7071    0.9258 H   0  0  0  0  0  0  0  0  0  0  0  0
    0.8378    1.0199    1.0040 H   0  0  0  0  0  0  0  0  0  0  0  0
    3.9708    3.9253    0.4496 H   0  0  0  0  0  0  0  0  0  0  0  0
    3.0120    1.1163   -0.7945 C   0  0  0  0  0  0  0  0  0  0  0  0
   -3.7019    2.6571    0.7844 H   0  0  0  0  0  0  0  0  0  0  0  0
    2.0522    1.4875   -1.1623 H   0  0  0  0  0  0  0  0  0  0  0  0
    3.7069    1.1381   -1.6370 H   0  0  0  0  0  0  0  0  0  0  0  0
  1  2  2  0
  1  3  1  0
  2  4  1  0
  3  8  2  0
  4 10  2  0
  5  9  2  0
  5 11  1  0
  6 27  1  0
  6 16  1  0
 27  8  1  0
  7 13  1  0
  7 14  1  0
  7 15  2  0
  8 10  1  0
  9 13  1  0
  9 17  1  0
 10 14  1  0
 11 12  2  0
 12 17  1  0
  1 18  1  0
  2 19  1  0
  3 20  1  0
  4 21  1  0
  5 28  1  0
  6 22  1  0
  6 23  1  0
 27 29  1  0
 27 30  1  0
 13 24  1  0
 14 25  1  0
 16 26  1  0
M  END
