
     RDKit          3D

  7  6  0  0  0  0  0  0  0  0999 V2000
    0.1037   -0.4734   -0.1022 Sb  0  0  0  0  0  0  0  0  0  0  0  0
   -0.2764    0.6199    1.4820 O   0  0  0  0  0  0  0  0  0  0  0  0
   -1.1637    0.6287   -1.1248 O   0  0  0  0  0  0  0  0  0  0  0  0
    1.6709    0.6283   -0.5648 O   0  0  0  0  0  0  0  0  0  0  0  0
   -0.2039    0.0978    2.2890 H   0  0  0  0  0  0  0  0  0  0  0  0
   -1.4829    0.1601   -1.9045 H   0  0  0  0  0  0  0  0  0  0  0  0
    2.3315    0.1091   -1.0376 H   0  0  0  0  0  0  0  0  0  0  0  0
  1  2  1  0
  1  3  1  0
  1  4  1  0
  2  5  1  0
  3  6  1  0
  4  7  1  0
M  END
