
     RDKit          3D

104107  0  0  0  0  0  0  0  0999 V2000
   -1.4261   -0.6530    1.0921 C   0  0  0  0  0  0  0  0  0  0  0  0
   -2.5273    0.0864    0.8805 C   0  0  0  0  0  0  0  0  0  0  0  0
   -3.3232    0.2630   -0.3847 C   0  0  2  0  0  0  0  0  0  0  0  0
   -3.3200    1.7165   -0.8605 C   0  0  0  0  0  0  0  0  0  0  0  0
   -4.7361   -0.2572   -0.1399 C   0  0  0  0  0  0  0  0  0  0  0  0
   -5.4315   -0.2354   -1.3901 O   0  0  0  0  0  0  0  0  0  0  0  0
   -6.6936   -0.6455   -1.4156 C   0  0  0  0  0  0  0  0  0  0  0  0
   -7.2812   -1.0465   -0.4412 O   0  0  0  0  0  0  0  0  0  0  0  0
   -7.2908   -0.5177   -2.7856 C   0  0  0  0  0  0  0  0  0  0  0  0
   -2.9987    0.7602    2.1388 C   0  0  0  0  0  0  0  0  0  0  0  0
   -1.7797    0.6717    3.0450 C   0  0  2  0  0  0  0  0  0  0  0  0
   -0.9087    1.7615    2.8438 O   0  0  0  0  0  0  0  0  0  0  0  0
   -1.0728   -0.6279    2.5894 C   0  0  1  0  0  0  0  0  0  0  0  0
   -1.7836   -1.7878    3.3211 C   0  0  0  0  0  0  0  0  0  0  0  0
    0.3416   -0.5887    3.1007 C   0  0  0  0  0  0  0  0  0  0  0  0
    1.5122   -1.0420    2.6644 C   0  0  0  0  0  0  0  0  0  0  0  0
    2.7714   -0.8162    3.4907 C   0  0  1  0  0  0  0  0  0  0  0  0
    2.8986   -1.8677    4.5845 C   0  0  0  0  0  0  0  0  0  0  0  0
    4.0551   -1.6152    5.3452 O   0  0  0  0  0  0  0  0  0  0  0  0
    4.2292   -2.5430    6.3833 C   0  0  0  0  0  0  0  0  0  0  0  0
    3.8911   -0.8894    2.4491 C   0  0  0  0  0  0  0  0  0  0  0  0
    3.4030   -1.9478    1.4683 C   0  0  0  0  0  0  0  0  0  0  0  0
    1.8856   -1.7085    1.3592 C   0  0  1  0  0  0  0  0  0  0  0  0
    1.1378   -2.9958    0.9574 C   0  0  1  0  0  0  0  0  0  0  0  0
    1.0759   -3.9942    2.1111 C   0  0  0  0  0  0  0  0  0  0  0  0
   -0.2197   -2.8329    0.2100 C   0  0  1  0  0  0  0  0  0  0  0  0
   -1.2118   -3.6324    0.8197 O   0  0  0  0  0  0  0  0  0  0  0  0
   -0.7983   -1.4291   -0.0448 C   0  0  2  0  0  0  0  0  0  0  0  0
    0.1628   -0.6471   -0.7449 O   0  0  0  0  0  0  0  0  0  0  0  0
   -0.0686   -0.2909   -2.0662 C   0  0  1  0  0  0  0  0  0  0  0  0
   -0.1263    1.0947   -2.2147 O   0  0  0  0  0  0  0  0  0  0  0  0
    1.0469    1.7925   -1.8351 C   0  0  1  0  0  0  0  0  0  0  0  0
    2.2531    1.3101   -2.6562 C   0  0  1  0  0  0  0  0  0  0  0  0
    3.4509    1.8529   -2.1564 O   0  0  0  0  0  0  0  0  0  0  0  0
    2.3590   -0.2069   -2.5994 C   0  0  2  0  0  0  0  0  0  0  0  0
    3.3388   -0.6113   -3.5549 O   0  0  0  0  0  0  0  0  0  0  0  0
    4.4552   -1.2236   -3.1675 C   0  0  0  0  0  0  0  0  0  0  0  0
    4.7222   -1.4965   -2.0255 O   0  0  0  0  0  0  0  0  0  0  0  0
    5.3344   -1.5194   -4.3464 C   0  0  0  0  0  0  0  0  0  0  0  0
    1.0375   -0.8500   -2.9743 C   0  0  1  0  0  0  0  0  0  0  0  0
    1.1716   -2.2395   -2.8754 O   0  0  0  0  0  0  0  0  0  0  0  0
    0.7967    3.2655   -2.0822 C   0  0  0  0  0  0  0  0  0  0  0  0
   -0.1470    3.7262   -1.1537 O   0  0  0  0  0  0  0  0  0  0  0  0
   -0.6487    5.0370   -1.3269 C   0  0  1  0  0  0  0  0  0  0  0  0
    0.4754    6.0768   -1.3962 C   0  0  0  0  0  0  0  0  0  0  0  0
   -1.5348    5.1318   -2.5744 C   0  0  0  0  0  0  0  0  0  0  0  0
   -1.4946    5.3405   -0.1189 C   0  0  0  0  0  0  0  0  0  0  0  0
   -1.7521    4.5217    0.8919 C   0  0  0  0  0  0  0  0  0  0  0  0
   -2.8948   -0.3481   -1.1829 H   0  0  0  0  0  0  0  0  0  0  0  0
   -2.3044    2.0543   -1.0533 H   0  0  0  0  0  0  0  0  0  0  0  0
   -3.8945    1.8232   -1.7812 H   0  0  0  0  0  0  0  0  0  0  0  0
   -3.7602    2.3844   -0.1191 H   0  0  0  0  0  0  0  0  0  0  0  0
   -4.7040   -1.2794    0.2471 H   0  0  0  0  0  0  0  0  0  0  0  0
   -5.2629    0.3668    0.5877 H   0  0  0  0  0  0  0  0  0  0  0  0
   -6.5678   -0.7461   -3.5663 H   0  0  0  0  0  0  0  0  0  0  0  0
   -8.1545   -1.1698   -2.8846 H   0  0  0  0  0  0  0  0  0  0  0  0
   -7.6230    0.5114   -2.9364 H   0  0  0  0  0  0  0  0  0  0  0  0
   -3.3269    1.7926    1.9897 H   0  0  0  0  0  0  0  0  0  0  0  0
   -3.8551    0.2302    2.5709 H   0  0  0  0  0  0  0  0  0  0  0  0
   -2.0559    0.5990    4.1051 H   0  0  0  0  0  0  0  0  0  0  0  0
   -1.3327    2.5460    3.2038 H   0  0  0  0  0  0  0  0  0  0  0  0
   -1.4065   -2.7510    2.9972 H   0  0  0  0  0  0  0  0  0  0  0  0
   -1.6275   -1.7053    4.3986 H   0  0  0  0  0  0  0  0  0  0  0  0
   -2.8598   -1.7767    3.1378 H   0  0  0  0  0  0  0  0  0  0  0  0
    0.3782   -0.1303    4.0889 H   0  0  0  0  0  0  0  0  0  0  0  0
    2.7397    0.1626    3.9789 H   0  0  0  0  0  0  0  0  0  0  0  0
    2.0016   -1.8319    5.2204 H   0  0  0  0  0  0  0  0  0  0  0  0
    2.9356   -2.8809    4.1571 H   0  0  0  0  0  0  0  0  0  0  0  0
    5.1435   -2.2877    6.9186 H   0  0  0  0  0  0  0  0  0  0  0  0
    3.3955   -2.5256    7.0958 H   0  0  0  0  0  0  0  0  0  0  0  0
    4.3245   -3.5692    6.0075 H   0  0  0  0  0  0  0  0  0  0  0  0
    3.9738    0.0761    1.9420 H   0  0  0  0  0  0  0  0  0  0  0  0
    4.8685   -1.1127    2.8787 H   0  0  0  0  0  0  0  0  0  0  0  0
    3.8841   -1.8802    0.4923 H   0  0  0  0  0  0  0  0  0  0  0  0
    3.6182   -2.9480    1.8541 H   0  0  0  0  0  0  0  0  0  0  0  0
    1.7483   -0.9734    0.5689 H   0  0  0  0  0  0  0  0  0  0  0  0
    1.7949   -3.4489    0.2082 H   0  0  0  0  0  0  0  0  0  0  0  0
    0.4727   -3.6349    2.9436 H   0  0  0  0  0  0  0  0  0  0  0  0
    0.6795   -4.9579    1.7957 H   0  0  0  0  0  0  0  0  0  0  0  0
    2.0800   -4.1782    2.4937 H   0  0  0  0  0  0  0  0  0  0  0  0
   -0.0344   -3.2148   -0.8000 H   0  0  0  0  0  0  0  0  0  0  0  0
   -1.9797   -3.6579    0.2402 H   0  0  0  0  0  0  0  0  0  0  0  0
   -1.6209   -1.6301   -0.7439 H   0  0  0  0  0  0  0  0  0  0  0  0
   -1.0395   -0.6696   -2.4115 H   0  0  0  0  0  0  0  0  0  0  0  0
    1.2588    1.6380   -0.7687 H   0  0  0  0  0  0  0  0  0  0  0  0
    2.0948    1.6023   -3.7041 H   0  0  0  0  0  0  0  0  0  0  0  0
    3.7270    2.5798   -2.7199 H   0  0  0  0  0  0  0  0  0  0  0  0
    2.6586   -0.5211   -1.5953 H   0  0  0  0  0  0  0  0  0  0  0  0
    5.6645   -0.5891   -4.8108 H   0  0  0  0  0  0  0  0  0  0  0  0
    6.2074   -2.0867   -4.0366 H   0  0  0  0  0  0  0  0  0  0  0  0
    4.7900   -2.0832   -5.1038 H   0  0  0  0  0  0  0  0  0  0  0  0
    0.7821   -0.5501   -4.0006 H   0  0  0  0  0  0  0  0  0  0  0  0
    0.4717   -2.6535   -3.3893 H   0  0  0  0  0  0  0  0  0  0  0  0
    1.7461    3.8049   -1.9819 H   0  0  0  0  0  0  0  0  0  0  0  0
    0.4609    3.3952   -3.1201 H   0  0  0  0  0  0  0  0  0  0  0  0
    1.0735    5.9766   -2.3034 H   0  0  0  0  0  0  0  0  0  0  0  0
    0.0555    7.0832   -1.3986 H   0  0  0  0  0  0  0  0  0  0  0  0
    1.1392    5.9923   -0.5346 H   0  0  0  0  0  0  0  0  0  0  0  0
   -2.2953    4.3500   -2.5647 H   0  0  0  0  0  0  0  0  0  0  0  0
   -2.0415    6.0970   -2.6092 H   0  0  0  0  0  0  0  0  0  0  0  0
   -0.9567    5.0438   -3.4958 H   0  0  0  0  0  0  0  0  0  0  0  0
   -1.9148    6.3426   -0.1124 H   0  0  0  0  0  0  0  0  0  0  0  0
   -2.3747    4.8500    1.7151 H   0  0  0  0  0  0  0  0  0  0  0  0
   -1.3713    3.5107    0.9390 H   0  0  0  0  0  0  0  0  0  0  0  0
  1  2  2  0
  1 13  1  0
  1 28  1  0
  2  3  1  0
  2 10  1  0
  3  4  1  0
  3  5  1  0
  3 49  1  6
  4 50  1  0
  4 51  1  0
  4 52  1  0
  5  6  1  0
  5 53  1  0
  5 54  1  0
  6  7  1  0
  7  8  2  0
  7  9  1  0
  9 55  1  0
  9 56  1  0
  9 57  1  0
 10 11  1  0
 10 58  1  0
 10 59  1  0
 11 12  1  0
 11 13  1  0
 11 60  1  1
 12 61  1  0
 13 14  1  1
 13 15  1  0
 14 62  1  0
 14 63  1  0
 14 64  1  0
 15 16  2  0
 15 65  1  0
 16 17  1  0
 16 23  1  0
 17 18  1  0
 17 21  1  0
 17 66  1  1
 18 19  1  0
 18 67  1  0
 18 68  1  0
 19 20  1  0
 20 69  1  0
 20 70  1  0
 20 71  1  0
 21 22  1  0
 21 72  1  0
 21 73  1  0
 22 23  1  0
 22 74  1  0
 22 75  1  0
 23 24  1  0
 23 76  1  6
 24 25  1  0
 24 26  1  0
 24 77  1  6
 25 78  1  0
 25 79  1  0
 25 80  1  0
 26 27  1  0
 26 28  1  0
 26 81  1  6
 27 82  1  0
 28 29  1  0
 28 83  1  6
 29 30  1  0
 30 31  1  0
 30 40  1  0
 30 84  1  6
 31 32  1  0
 32 33  1  0
 32 42  1  0
 32 85  1  1
 33 34  1  0
 33 35  1  0
 33 86  1  6
 34 87  1  0
 35 36  1  0
 35 40  1  0
 35 88  1  1
 36 37  1  0
 37 38  2  0
 37 39  1  0
 39 89  1  0
 39 90  1  0
 39 91  1  0
 40 41  1  0
 40 92  1  6
 41 93  1  0
 42 43  1  0
 42 94  1  0
 42 95  1  0
 44 43  1  1
 44 45  1  0
 44 46  1  0
 44 47  1  0
 45 96  1  0
 45 97  1  0
 45 98  1  0
 46 99  1  0
 46100  1  0
 46101  1  0
 47 48  2  0
 47102  1  0
 48103  1  0
 48104  1  0
M  END
