
     RDKit          3D

 14 14  0  0  0  0  0  0  0  0999 V2000
   -1.1580   -0.7341    0.1604 C   0  0  0  0  0  0  0  0  0  0  0  0
   -0.8008    0.6208    0.2242 C   0  0  0  0  0  0  0  0  0  0  0  0
    0.5319    0.9949    0.1459 C   0  0  0  0  0  0  0  0  0  0  0  0
    1.4962    0.0126    0.0030 C   0  0  0  0  0  0  0  0  0  0  0  0
    1.1773   -1.3248   -0.0645 C   0  0  0  0  0  0  0  0  0  0  0  0
   -0.1640   -1.6871    0.0165 C   0  0  0  0  0  0  0  0  0  0  0  0
   -2.4475   -1.1322    0.2337 O   0  0  0  0  0  0  0  0  0  0  0  0
   -1.8150    1.4995    0.3617 O   0  0  0  0  0  0  0  0  0  0  0  0
    2.7857    0.3917   -0.0707 F   0  0  0  0  0  0  0  0  0  0  0  0
    0.8172    2.0395    0.1936 H   0  0  0  0  0  0  0  0  0  0  0  0
    1.9463   -2.0765   -0.1769 H   0  0  0  0  0  0  0  0  0  0  0  0
   -0.4414   -2.7325   -0.0332 H   0  0  0  0  0  0  0  0  0  0  0  0
   -3.0317   -0.3724    0.3381 H   0  0  0  0  0  0  0  0  0  0  0  0
   -1.4887    2.4057    0.3891 H   0  0  0  0  0  0  0  0  0  0  0  0
  7  1  1  0
  1  6  2  0
  1  2  1  0
  8  2  1  0
  6  5  1  0
  2  3  2  0
  5  4  2  0
  3  4  1  0
  4  9  1  0
  3 10  1  0
  5 11  1  0
  6 12  1  0
  7 13  1  0
  8 14  1  0
M  END
