
     RDKit          3D

 36 38  0  0  0  0  0  0  0  0999 V2000
    2.9254    0.8389   -1.0819 N   0  0  0  0  0  0  0  0  0  0  0  0
    4.1143    0.4107   -0.3269 C   0  0  0  0  0  0  0  0  0  0  0  0
    3.6701   -0.7651    0.5490 C   0  0  0  0  0  0  0  0  0  0  0  0
    2.1763   -0.5124    0.7441 C   0  0  1  0  0  0  0  0  0  0  0  0
    1.8011    0.0374   -0.6401 C   0  0  1  0  0  0  0  0  0  0  0  0
    0.5156    0.8194   -0.5564 C   0  0  0  0  0  0  0  0  0  0  0  0
    0.4852    2.0424   -0.6147 O   0  0  0  0  0  0  0  0  0  0  0  0
    1.3897   -1.7086    1.1616 C   0  0  0  0  0  0  0  0  0  0  0  0
    0.1952   -2.0659    0.7016 C   0  0  0  0  0  0  0  0  0  0  0  0
   -0.7025   -1.3695   -0.2840 C   0  0  1  0  0  0  0  0  0  0  0  0
   -2.1817   -1.5867    0.0856 C   0  0  1  0  0  0  0  0  0  0  0  0
   -2.8778   -0.3781   -0.5223 C   0  0  0  0  0  0  0  0  0  0  0  0
   -1.8763    0.7593   -0.3053 C   0  0  2  0  0  0  0  0  0  0  0  0
   -0.5968    0.0910   -0.3684 N   0  0  0  0  0  0  0  0  0  0  0  0
   -2.0624    1.4335    1.0410 C   0  0  0  0  0  0  0  0  0  0  0  0
   -1.4048    1.2040    2.0215 O   0  0  0  0  0  0  0  0  0  0  0  0
   -2.7294   -2.9193   -0.3886 C   0  0  0  0  0  0  0  0  0  0  0  0
   -3.0700    2.2953    1.0059 O   0  0  0  0  0  0  0  0  0  0  0  0
    2.7300    1.8142   -0.8996 H   0  0  0  0  0  0  0  0  0  0  0  0
    4.9254    0.1183   -0.9979 H   0  0  0  0  0  0  0  0  0  0  0  0
    4.4918    1.2298    0.2896 H   0  0  0  0  0  0  0  0  0  0  0  0
    3.8155   -1.7146    0.0272 H   0  0  0  0  0  0  0  0  0  0  0  0
    4.2199   -0.8193    1.4886 H   0  0  0  0  0  0  0  0  0  0  0  0
    2.0537    0.2874    1.4874 H   0  0  0  0  0  0  0  0  0  0  0  0
    1.6559   -0.8148   -1.3196 H   0  0  0  0  0  0  0  0  0  0  0  0
    1.8535   -2.3510    1.9039 H   0  0  0  0  0  0  0  0  0  0  0  0
   -0.2180   -3.0019    1.0656 H   0  0  0  0  0  0  0  0  0  0  0  0
   -0.5300   -1.7964   -1.2825 H   0  0  0  0  0  0  0  0  0  0  0  0
   -2.2690   -1.5320    1.1763 H   0  0  0  0  0  0  0  0  0  0  0  0
   -3.0208   -0.5197   -1.5963 H   0  0  0  0  0  0  0  0  0  0  0  0
   -3.8553   -0.1794   -0.0841 H   0  0  0  0  0  0  0  0  0  0  0  0
   -1.9650    1.5143   -1.0893 H   0  0  0  0  0  0  0  0  0  0  0  0
   -2.1996   -3.7589    0.0634 H   0  0  0  0  0  0  0  0  0  0  0  0
   -3.7822   -3.0209   -0.1247 H   0  0  0  0  0  0  0  0  0  0  0  0
   -2.6436   -3.0128   -1.4729 H   0  0  0  0  0  0  0  0  0  0  0  0
   -3.2011    2.6932    1.8798 H   0  0  0  0  0  0  0  0  0  0  0  0
  2  3  1  0
  2  1  1  0
  3  4  1  0
  1  5  1  0
  4  5  1  0
  4  8  1  0
  5  6  1  0
  8  9  2  0
  7  6  2  0
  6 14  1  0
  9 10  1  0
 14 10  1  0
 14 13  1  0
 10 11  1  0
 16 15  2  0
 13 15  1  0
 13 12  1  0
 15 18  1  0
 11 12  1  0
 11 17  1  0
  1 19  1  0
  2 20  1  0
  2 21  1  0
  3 22  1  0
  3 23  1  0
  4 24  1  1
  5 25  1  6
  8 26  1  0
  9 27  1  0
 10 28  1  6
 11 29  1  1
 12 30  1  0
 12 31  1  0
 13 32  1  6
 17 33  1  0
 17 34  1  0
 17 35  1  0
 18 36  1  0
M  END
