
     RDKit          3D

 30 32  0  0  0  0  0  0  0  0999 V2000
    4.2770   -0.6954   -0.0195 O   0  0  0  0  0  0  0  0  0  0  0  0
    4.2768    0.5047   -0.0120 C   0  0  0  0  0  0  0  0  0  0  0  0
    5.3680    1.2574   -0.0111 O   0  0  0  0  0  0  0  0  0  0  0  0
    3.0437    1.3721   -0.0046 C   0  0  0  0  0  0  0  0  0  0  0  0
    1.9339    0.5105   -0.0076 O   0  0  0  0  0  0  0  0  0  0  0  0
    0.7841    1.2206   -0.0043 N   0  0  0  0  0  0  0  0  0  0  0  0
   -0.2552    0.4833   -0.0080 C   0  0  0  0  0  0  0  0  0  0  0  0
   -1.6003    1.0785   -0.0043 C   0  0  0  0  0  0  0  0  0  0  0  0
   -1.9942    2.4037    0.0030 C   0  0  0  0  0  0  0  0  0  0  0  0
   -3.3559    2.6872    0.0061 C   0  0  0  0  0  0  0  0  0  0  0  0
   -4.2945    1.6600    0.0014 C   0  0  0  0  0  0  0  0  0  0  0  0
   -3.8957    0.3274   -0.0059 C   0  0  0  0  0  0  0  0  0  0  0  0
   -0.4363   -0.9791   -0.0146 C   0  0  0  0  0  0  0  0  0  0  0  0
    0.4708   -2.0292   -0.0196 C   0  0  0  0  0  0  0  0  0  0  0  0
   -0.0223   -3.3311   -0.0232 C   0  0  0  0  0  0  0  0  0  0  0  0
   -1.3890   -3.5799   -0.0216 C   0  0  0  0  0  0  0  0  0  0  0  0
   -2.3014   -2.5295   -0.0174 C   0  0  0  0  0  0  0  0  0  0  0  0
   -1.8205   -1.2335   -0.0141 C   0  0  0  0  0  0  0  0  0  0  0  0
   -2.5410    0.0425   -0.0084 C   0  0  0  0  0  0  0  0  0  0  0  0
    6.1545    0.6947   -0.0210 H   0  0  0  0  0  0  0  0  0  0  0  0
    3.0556    2.0150    0.8821 H   0  0  0  0  0  0  0  0  0  0  0  0
    3.0531    2.0237   -0.8849 H   0  0  0  0  0  0  0  0  0  0  0  0
   -1.2644    3.2022    0.0068 H   0  0  0  0  0  0  0  0  0  0  0  0
   -3.6884    3.7164    0.0138 H   0  0  0  0  0  0  0  0  0  0  0  0
   -5.3493    1.8996    0.0042 H   0  0  0  0  0  0  0  0  0  0  0  0
   -4.6382   -0.4602   -0.0094 H   0  0  0  0  0  0  0  0  0  0  0  0
    1.5375   -1.8615   -0.0210 H   0  0  0  0  0  0  0  0  0  0  0  0
    0.6724   -4.1598   -0.0266 H   0  0  0  0  0  0  0  0  0  0  0  0
   -1.7475   -4.6005   -0.0224 H   0  0  0  0  0  0  0  0  0  0  0  0
   -3.3647   -2.7312   -0.0159 H   0  0  0  0  0  0  0  0  0  0  0  0
  1  2  2  0
  4  2  1  0
  4  5  1  0
  2  3  1  0
  5  6  1  0
  6  7  2  0
  9  8  2  0
  9 10  1  0
  7  8  1  0
  7 13  1  0
  8 19  1  0
 10 11  2  0
 13 14  1  0
 13 18  2  0
 14 15  2  0
 19 18  1  0
 19 12  2  0
 11 12  1  0
 18 17  1  0
 15 16  1  0
 17 16  2  0
  3 20  1  0
  4 21  1  0
  4 22  1  0
  9 23  1  0
 10 24  1  0
 11 25  1  0
 12 26  1  0
 14 27  1  0
 15 28  1  0
 16 29  1  0
 17 30  1  0
M  END
