
     RDKit          3D

 19 19  0  0  0  0  0  0  0  0999 V2000
   -1.4381    1.6830    0.8207 O   0  0  0  0  0  0  0  0  0  0  0  0
   -1.7283    0.9499   -0.0881 C   0  0  0  0  0  0  0  0  0  0  0  0
   -2.8216    1.0773   -0.8234 O   0  0  0  0  0  0  0  0  0  0  0  0
   -0.9079   -0.2516   -0.5126 C   0  0  2  0  0  0  0  0  0  0  0  0
   -1.6636   -1.7398    0.2446 S   0  0  0  0  0  0  0  0  0  0  0  0
    0.5600   -0.0964   -0.2357 C   0  0  0  0  0  0  0  0  0  0  0  0
    1.4385    0.0149   -1.3086 C   0  0  0  0  0  0  0  0  0  0  0  0
    2.8031    0.1686   -1.0959 C   0  0  0  0  0  0  0  0  0  0  0  0
    3.3028    0.2135    0.1967 C   0  0  0  0  0  0  0  0  0  0  0  0
    2.4311    0.1031    1.2741 C   0  0  0  0  0  0  0  0  0  0  0  0
    1.0704   -0.0512    1.0599 C   0  0  0  0  0  0  0  0  0  0  0  0
   -3.3552    1.8179   -0.4972 H   0  0  0  0  0  0  0  0  0  0  0  0
   -1.0571   -0.4176   -1.5814 H   0  0  0  0  0  0  0  0  0  0  0  0
   -1.4836   -1.3985    1.5260 H   0  0  0  0  0  0  0  0  0  0  0  0
    1.0560   -0.0202   -2.3219 H   0  0  0  0  0  0  0  0  0  0  0  0
    3.4725    0.2506   -1.9421 H   0  0  0  0  0  0  0  0  0  0  0  0
    4.3654    0.3291    0.3662 H   0  0  0  0  0  0  0  0  0  0  0  0
    2.8132    0.1359    2.2862 H   0  0  0  0  0  0  0  0  0  0  0  0
    0.4127   -0.1411    1.9144 H   0  0  0  0  0  0  0  0  0  0  0  0
 10 11  1  0
 10  9  2  0
 11  6  2  0
  1  2  2  0
  9  8  1  0
  3  2  1  0
  2  4  1  0
  6  4  1  0
  6  7  1  0
  5  4  1  0
  8  7  2  0
  3 12  1  0
  4 13  1  6
  5 14  1  0
  7 15  1  0
  8 16  1  0
  9 17  1  0
 10 18  1  0
 11 19  1  0
M  END
