
     RDKit          3D

 51 53  0  0  0  0  0  0  0  0999 V2000
   -2.9433    3.0676    1.7289 O   0  0  0  0  0  0  0  0  0  0  0  0
   -2.9141    2.0041    1.1170 C   0  0  0  0  0  0  0  0  0  0  0  0
   -4.0628    1.3127    0.8503 N   0  0  0  0  0  0  0  0  0  0  0  0
   -4.1481    0.1151    0.1833 C   0  0  0  0  0  0  0  0  0  0  0  0
   -5.3903   -0.5062   -0.0338 C   0  0  0  0  0  0  0  0  0  0  0  0
   -6.6593    0.1182    0.4638 C   0  0  0  0  0  0  0  0  0  0  0  0
   -5.3961   -1.7072   -0.7151 C   0  0  0  0  0  0  0  0  0  0  0  0
   -4.2270   -2.3244   -1.1900 C   0  0  0  0  0  0  0  0  0  0  0  0
   -4.3099   -3.6245   -1.9349 C   0  0  0  0  0  0  0  0  0  0  0  0
   -3.0230   -1.6963   -0.9582 C   0  0  0  0  0  0  0  0  0  0  0  0
   -2.9655   -0.4729   -0.2748 C   0  0  0  0  0  0  0  0  0  0  0  0
   -1.7337    0.2103   -0.0236 C   0  0  0  0  0  0  0  0  0  0  0  0
   -1.6857    1.3912    0.6263 C   0  0  0  0  0  0  0  0  0  0  0  0
   -0.4183    2.1489    0.9066 C   0  0  0  0  0  0  0  0  0  0  0  0
    0.7241    1.6626    0.1649 N   0  0  0  0  0  0  0  0  0  0  0  0
    0.8077    2.1292   -1.2176 C   0  0  0  0  0  0  0  0  0  0  0  0
    1.6380    3.3823   -1.4170 C   0  0  0  0  0  0  0  0  0  0  0  0
    3.0130    3.0715   -1.2792 O   0  0  0  0  0  0  0  0  0  0  0  0
    1.5718    0.7536    0.6962 C   0  0  0  0  0  0  0  0  0  0  0  0
    1.2332   -0.0639    2.1257 S   0  0  0  0  0  0  0  0  0  0  0  0
    2.7102    0.5548   -0.0041 N   0  0  0  0  0  0  0  0  0  0  0  0
    3.6574   -0.4575    0.2348 C   0  0  0  0  0  0  0  0  0  0  0  0
    3.2993   -1.8039    0.2458 C   0  0  0  0  0  0  0  0  0  0  0  0
    4.2565   -2.7851    0.4218 C   0  0  0  0  0  0  0  0  0  0  0  0
    5.6004   -2.4403    0.5688 C   0  0  0  0  0  0  0  0  0  0  0  0
    6.4916   -3.4405    0.7270 O   0  0  0  0  0  0  0  0  0  0  0  0
    5.9652   -1.0995    0.5401 C   0  0  0  0  0  0  0  0  0  0  0  0
    4.9951   -0.1185    0.3809 C   0  0  0  0  0  0  0  0  0  0  0  0
   -4.9173    1.7434    1.1777 H   0  0  0  0  0  0  0  0  0  0  0  0
   -6.8222    1.1097    0.0348 H   0  0  0  0  0  0  0  0  0  0  0  0
   -7.5195   -0.4947    0.2022 H   0  0  0  0  0  0  0  0  0  0  0  0
   -6.6568    0.2319    1.5506 H   0  0  0  0  0  0  0  0  0  0  0  0
   -6.3501   -2.1941   -0.8871 H   0  0  0  0  0  0  0  0  0  0  0  0
   -4.8698   -4.3720   -1.3715 H   0  0  0  0  0  0  0  0  0  0  0  0
   -4.8190   -3.4988   -2.8924 H   0  0  0  0  0  0  0  0  0  0  0  0
   -3.3202   -4.0317   -2.1375 H   0  0  0  0  0  0  0  0  0  0  0  0
   -2.0972   -2.1420   -1.3040 H   0  0  0  0  0  0  0  0  0  0  0  0
   -0.8215   -0.2516   -0.3834 H   0  0  0  0  0  0  0  0  0  0  0  0
   -0.5615    3.2016    0.6510 H   0  0  0  0  0  0  0  0  0  0  0  0
   -0.1959    2.1187    1.9737 H   0  0  0  0  0  0  0  0  0  0  0  0
    1.1747    1.3242   -1.8581 H   0  0  0  0  0  0  0  0  0  0  0  0
   -0.2091    2.3397   -1.5529 H   0  0  0  0  0  0  0  0  0  0  0  0
    1.4296    3.7707   -2.4198 H   0  0  0  0  0  0  0  0  0  0  0  0
    1.3274    4.1483   -0.7005 H   0  0  0  0  0  0  0  0  0  0  0  0
    3.4749    3.8123   -0.8772 H   0  0  0  0  0  0  0  0  0  0  0  0
    3.0270    1.3368   -0.5761 H   0  0  0  0  0  0  0  0  0  0  0  0
    2.2648   -2.0884    0.1114 H   0  0  0  0  0  0  0  0  0  0  0  0
    3.9675   -3.8289    0.4287 H   0  0  0  0  0  0  0  0  0  0  0  0
    7.3860   -3.0871    0.7849 H   0  0  0  0  0  0  0  0  0  0  0  0
    7.0044   -0.8101    0.6484 H   0  0  0  0  0  0  0  0  0  0  0  0
    5.2930    0.9231    0.3717 H   0  0  0  0  0  0  0  0  0  0  0  0
 26 25  1  0
 25 27  2  0
 25 24  1  0
 27 28  1  0
 24 23  2  0
 28 22  2  0
 23 22  1  0
 22 21  1  0
 21 19  1  0
 20 19  2  0
  9  8  1  0
 19 15  1  0
  8 10  2  0
  8  7  1  0
 10 11  1  0
  7  5  2  0
 11 12  1  0
 11  4  2  0
 12 13  2  0
 15 14  1  0
 15 16  1  0
  5  4  1  0
  5  6  1  0
 14 13  1  0
 13  2  1  0
  4  3  1  0
  2  3  1  0
  2  1  2  0
 16 17  1  0
 17 18  1  0
  3 29  1  0
  6 30  1  0
  6 31  1  0
  6 32  1  0
  7 33  1  0
  9 34  1  0
  9 35  1  0
  9 36  1  0
 10 37  1  0
 12 38  1  0
 14 39  1  0
 14 40  1  0
 16 41  1  0
 16 42  1  0
 17 43  1  0
 17 44  1  0
 18 45  1  0
 21 46  1  0
 23 47  1  0
 24 48  1  0
 26 49  1  0
 27 50  1  0
 28 51  1  0
M  END
