
     RDKit          3D

 87 88  0  0  0  0  0  0  0  0999 V2000
    5.1898    0.1421   -0.1140 C   0  0  1  0  0  0  0  0  0  0  0  0
    3.8468    0.6588   -0.6072 C   0  0  0  0  0  0  0  0  0  0  0  0
    0.9294    0.0828   -0.1858 C   0  0  0  0  0  0  0  0  0  0  0  0
   -2.5760    0.8929    0.1835 C   0  0  0  0  0  0  0  0  0  0  0  0
   -4.9630    0.5634    0.7158 C   0  0  1  0  0  0  0  0  0  0  0  0
   -4.5721   -1.8077   -0.0055 C   0  0  0  0  0  0  0  0  0  0  0  0
   -2.8480   -3.3744   -1.5926 C   0  0  0  0  0  0  0  0  0  0  0  0
   -1.9022   -4.1782   -2.4460 C   0  0  0  0  0  0  0  0  0  0  0  0
   -4.8028   -1.9708   -1.3700 C   0  0  0  0  0  0  0  0  0  0  0  0
   -5.7096    5.6161    2.2192 C   0  0  0  0  0  0  0  0  0  0  0  0
   -3.4758   -2.4547    0.5534 C   0  0  0  0  0  0  0  0  0  0  0  0
   -2.6251   -3.2243   -0.2293 C   0  0  0  0  0  0  0  0  0  0  0  0
   -2.6143   -5.0632   -3.3529 N   0  0  0  0  0  0  0  0  0  0  0  0
   -3.9602   -2.7462   -2.1502 C   0  0  0  0  0  0  0  0  0  0  0  0
   -5.4327   -0.8961    0.8204 C   0  0  0  0  0  0  0  0  0  0  0  0
   -5.8002    1.4797    1.6051 C   0  0  0  0  0  0  0  0  0  0  0  0
   -6.3045    3.9771    2.5653 S   0  0  2  0  0  0  0  0  0  0  0  0
   -7.7267    3.9133    2.2246 O   0  0  0  0  0  0  0  0  0  0  0  0
   -5.9143    3.6150    3.9291 O   0  0  0  0  0  0  0  0  0  0  0  0
   -3.5632    0.6672    1.0645 N   0  0  0  0  0  0  0  0  0  0  0  0
   -2.7503    1.1585   -0.9924 O   0  0  0  0  0  0  0  0  0  0  0  0
   -1.1767    0.8275    0.7961 C   0  0  2  0  0  0  0  0  0  0  0  0
   -0.9602    2.0088    1.7375 C   0  0  0  0  0  0  0  0  0  0  0  0
   -1.2865    3.1882    1.0473 O   0  0  0  0  0  0  0  0  0  0  0  0
   -0.2133    0.7776   -0.2710 N   0  0  0  0  0  0  0  0  0  0  0  0
    1.3167   -0.4649    0.8329 O   0  0  0  0  0  0  0  0  0  0  0  0
    1.7023   -0.0255   -1.5032 C   0  0  2  0  0  0  0  0  0  0  0  0
    1.1219   -1.1672   -2.3422 C   0  0  0  0  0  0  0  0  0  0  0  0
    1.8437   -1.4210   -3.6683 C   0  0  1  0  0  0  0  0  0  0  0  0
    1.1720   -2.5779   -4.3998 C   0  0  0  0  0  0  0  0  0  0  0  0
    1.8904   -0.1809   -4.5534 C   0  0  0  0  0  0  0  0  0  0  0  0
    3.0960   -0.2600   -1.2351 N   0  0  0  0  0  0  0  0  0  0  0  0
    3.4748    1.7986   -0.3986 O   0  0  0  0  0  0  0  0  0  0  0  0
    6.1366    1.2515   -0.1876 N   0  0  0  0  0  0  0  0  0  0  0  0
    7.3049    0.9488   -0.3521 N   0  0  0  0  0  0  0  0  0  0  0  0
    8.4044    0.7855   -0.5141 N   0  0  0  0  0  0  0  0  0  0  0  0
    5.0201   -0.3517    1.3344 C   0  0  0  0  0  0  0  0  0  0  0  0
    6.3220   -0.8486    1.8920 C   0  0  0  0  0  0  0  0  0  0  0  0
    7.1070   -0.0340    2.7029 C   0  0  0  0  0  0  0  0  0  0  0  0
    8.3443   -0.4695    3.1591 C   0  0  0  0  0  0  0  0  0  0  0  0
    8.8116   -1.7288    2.8099 C   0  0  0  0  0  0  0  0  0  0  0  0
    8.0327   -2.5524    2.0067 C   0  0  0  0  0  0  0  0  0  0  0  0
    6.7981   -2.1131    1.5517 C   0  0  0  0  0  0  0  0  0  0  0  0
    5.5238   -0.6923   -0.7408 H   0  0  0  0  0  0  0  0  0  0  0  0
   -5.0614    0.8854   -0.3220 H   0  0  0  0  0  0  0  0  0  0  0  0
   -1.3102   -3.4876   -3.0533 H   0  0  0  0  0  0  0  0  0  0  0  0
   -1.1851   -4.6901   -1.7898 H   0  0  0  0  0  0  0  0  0  0  0  0
   -5.6545   -1.4816   -1.8299 H   0  0  0  0  0  0  0  0  0  0  0  0
   -4.3366    3.0947    1.6192 H   0  0  0  0  0  0  0  0  0  0  0  0
   -5.6239    3.2922    0.4167 H   0  0  0  0  0  0  0  0  0  0  0  0
   -5.9216    5.8688    1.1830 H   0  0  0  0  0  0  0  0  0  0  0  0
   -6.2375    6.2980    2.8845 H   0  0  0  0  0  0  0  0  0  0  0  0
   -4.6407    5.6649    2.4129 H   0  0  0  0  0  0  0  0  0  0  0  0
   -3.2820   -2.3646    1.6163 H   0  0  0  0  0  0  0  0  0  0  0  0
   -1.7774   -3.7164    0.2333 H   0  0  0  0  0  0  0  0  0  0  0  0
   -1.9492   -5.5408   -3.9477 H   0  0  0  0  0  0  0  0  0  0  0  0
   -3.0808   -5.7869   -2.8205 H   0  0  0  0  0  0  0  0  0  0  0  0
   -4.1657   -2.8681   -3.2064 H   0  0  0  0  0  0  0  0  0  0  0  0
   -5.4142   -1.2048    1.8701 H   0  0  0  0  0  0  0  0  0  0  0  0
   -6.4745   -0.9454    0.4954 H   0  0  0  0  0  0  0  0  0  0  0  0
   -6.8526    1.3481    1.3497 H   0  0  0  0  0  0  0  0  0  0  0  0
   -5.6816    1.1779    2.6495 H   0  0  0  0  0  0  0  0  0  0  0  0
   -3.3099    0.3719    1.9957 H   0  0  0  0  0  0  0  0  0  0  0  0
   -1.0894   -0.0856    1.3915 H   0  0  0  0  0  0  0  0  0  0  0  0
   -1.5805    1.8714    2.6320 H   0  0  0  0  0  0  0  0  0  0  0  0
    0.0835    1.9969    2.0722 H   0  0  0  0  0  0  0  0  0  0  0  0
   -1.1553    3.9326    1.6413 H   0  0  0  0  0  0  0  0  0  0  0  0
   -0.4877    1.1838   -1.1532 H   0  0  0  0  0  0  0  0  0  0  0  0
    1.6008    0.9136   -2.0544 H   0  0  0  0  0  0  0  0  0  0  0  0
    1.1294   -2.0842   -1.7430 H   0  0  0  0  0  0  0  0  0  0  0  0
    0.0705   -0.9399   -2.5436 H   0  0  0  0  0  0  0  0  0  0  0  0
    2.8747   -1.7227   -3.4543 H   0  0  0  0  0  0  0  0  0  0  0  0
    1.6992   -2.8158   -5.3246 H   0  0  0  0  0  0  0  0  0  0  0  0
    1.1516   -3.4820   -3.7887 H   0  0  0  0  0  0  0  0  0  0  0  0
    0.1413   -2.3283   -4.6628 H   0  0  0  0  0  0  0  0  0  0  0  0
    2.4508    0.6349   -4.0952 H   0  0  0  0  0  0  0  0  0  0  0  0
    2.3738   -0.4087   -5.5047 H   0  0  0  0  0  0  0  0  0  0  0  0
    0.8842    0.1835   -4.7738 H   0  0  0  0  0  0  0  0  0  0  0  0
    3.4359   -1.2070   -1.2994 H   0  0  0  0  0  0  0  0  0  0  0  0
    4.6297    0.4675    1.9408 H   0  0  0  0  0  0  0  0  0  0  0  0
    4.2678   -1.1439    1.3410 H   0  0  0  0  0  0  0  0  0  0  0  0
    6.7501    0.9512    2.9782 H   0  0  0  0  0  0  0  0  0  0  0  0
    8.9425    0.1758    3.7893 H   0  0  0  0  0  0  0  0  0  0  0  0
    9.7757   -2.0685    3.1653 H   0  0  0  0  0  0  0  0  0  0  0  0
    8.3859   -3.5388    1.7350 H   0  0  0  0  0  0  0  0  0  0  0  0
    6.1981   -2.7612    0.9230 H   0  0  0  0  0  0  0  0  0  0  0  0
   -5.3994    2.9367    1.4242 C   0  0  0  0  0  0  0  0  0  0  0  0
 36 35  2  0
 35 34  2  0
 34  1  1  0
 42 43  2  0
 42 41  1  0
 30 29  1  0
 43 38  1  0
 41 40  2  0
  1  2  1  0
  1 37  1  0
 38 37  1  0
 38 39  2  0
 40 39  1  0
  2 33  2  0
  2 32  1  0
 29 31  1  0
 29 28  1  0
 32 27  1  0
 28 27  1  0
 27  3  1  0
  3 26  2  0
  3 25  1  0
 25 22  1  0
 23 22  1  0
 23 24  1  0
 22  4  1  0
 21  4  2  0
  4 20  1  0
  8  7  1  0
  8 13  1  0
 14  7  2  0
 14  9  1  0
 20  5  1  0
  7 12  1  0
  9  6  2  0
 17 10  1  6
  5 16  1  0
  5 15  1  0
 12 11  2  0
  6 11  1  0
  6 15  1  0
 16 87  1  0
 18 17  2  0
 17 87  1  0
 17 19  2  0
  1 44  1  6
  5 45  1  6
  8 46  1  0
  8 47  1  0
  9 48  1  0
 87 49  1  0
 87 50  1  0
 10 51  1  0
 10 52  1  0
 10 53  1  0
 11 54  1  0
 12 55  1  0
 13 56  1  0
 13 57  1  0
 14 58  1  0
 15 59  1  0
 15 60  1  0
 16 61  1  0
 16 62  1  0
 20 63  1  0
 22 64  1  1
 23 65  1  0
 23 66  1  0
 24 67  1  0
 25 68  1  0
 27 69  1  6
 28 70  1  0
 28 71  1  0
 29 72  1  1
 30 73  1  0
 30 74  1  0
 30 75  1  0
 31 76  1  0
 31 77  1  0
 31 78  1  0
 32 79  1  0
 37 80  1  0
 37 81  1  0
 39 82  1  0
 40 83  1  0
 41 84  1  0
 42 85  1  0
 43 86  1  0
M  CHG  2  35   1  36  -1
M  END
