
     RDKit          3D

 14 13  0  0  0  0  0  0  0  0999 V2000
    2.5329    0.3493    0.1685 C   0  0  0  0  0  0  0  0  0  0  0  0
   -2.5592    0.3460    0.1568 C   0  0  0  0  0  0  0  0  0  0  0  0
    1.1788    0.6028    0.5592 O   0  0  0  0  0  0  0  0  0  0  0  0
   -0.0083    0.0191   -1.7007 O   0  0  0  0  0  0  0  0  0  0  0  0
   -0.0118   -1.6457    0.1790 O   0  0  0  0  0  0  0  0  0  0  0  0
   -1.2072    0.6017    0.5531 O   0  0  0  0  0  0  0  0  0  0  0  0
   -0.0120   -0.0997   -0.2306 P   0  0  1  0  0  0  0  0  0  0  0  0
    2.7923   -0.7020    0.2960 H   0  0  0  0  0  0  0  0  0  0  0  0
    2.7077    0.6414   -0.8665 H   0  0  0  0  0  0  0  0  0  0  0  0
    3.1637    0.9488    0.8187 H   0  0  0  0  0  0  0  0  0  0  0  0
   -2.7319    0.6452   -0.8766 H   0  0  0  0  0  0  0  0  0  0  0  0
   -2.8157   -0.7072    0.2759 H   0  0  0  0  0  0  0  0  0  0  0  0
   -3.1942    0.9386    0.8091 H   0  0  0  0  0  0  0  0  0  0  0  0
   -0.0117   -1.8315    1.1277 H   0  0  0  0  0  0  0  0  0  0  0  0
  4  7  2  0
  7  6  1  1
  6  2  1  0
  3  1  1  0
  3  7  1  0
  7  5  1  0
  1  8  1  0
  1  9  1  0
  1 10  1  0
  2 11  1  0
  2 12  1  0
  2 13  1  0
  5 14  1  0
M  END
