
     RDKit          3D

108111  0  0  0  0  0  0  0  0999 V2000
    3.7146    1.2458   -0.3638 C   0  0  0  0  0  0  0  0  0  0  0  0
    4.5436    1.8330   -1.3100 C   0  0  0  0  0  0  0  0  0  0  0  0
    5.5845    1.1186   -1.8868 C   0  0  0  0  0  0  0  0  0  0  0  0
    5.8142   -0.2108   -1.5381 C   0  0  0  0  0  0  0  0  0  0  0  0
    4.9780   -0.7971   -0.5850 C   0  0  0  0  0  0  0  0  0  0  0  0
    3.9463   -0.0811   -0.0056 C   0  0  0  0  0  0  0  0  0  0  0  0
   -4.2902   -1.3810   -0.4072 C   0  0  0  0  0  0  0  0  0  0  0  0
   -5.0466   -2.0340   -1.3713 C   0  0  0  0  0  0  0  0  0  0  0  0
   -5.8944   -1.3254   -2.2117 C   0  0  0  0  0  0  0  0  0  0  0  0
   -5.9970    0.0611   -2.1145 C   0  0  0  0  0  0  0  0  0  0  0  0
   -5.2337    0.7152   -1.1441 C   0  0  0  0  0  0  0  0  0  0  0  0
   -4.3951    0.0049   -0.3042 C   0  0  0  0  0  0  0  0  0  0  0  0
   -2.0349   -1.7637    0.1688 O   0  0  0  0  0  0  0  0  0  0  0  0
   -1.0758   -2.0415    1.1387 C   0  0  2  0  0  0  0  0  0  0  0  0
   -0.0152   -0.9153    1.1328 C   0  0  1  0  0  0  0  0  0  0  0  0
   -0.6595    0.4637    0.9510 C   0  0  2  0  0  0  0  0  0  0  0  0
    0.3876    1.5864    1.0147 C   0  0  2  0  0  0  0  0  0  0  0  0
   -0.2810    2.9082    0.6197 C   0  0  0  0  0  0  0  0  0  0  0  0
   -0.4707    3.1773   -0.5550 O   0  0  0  0  0  0  0  0  0  0  0  0
   -0.6345    3.6933    1.6461 N   0  0  0  0  0  0  0  0  0  0  0  0
   -1.3021    4.9610    1.5005 C   0  0  1  0  0  0  0  0  0  0  0  0
   -2.8200    4.8800    1.7786 C   0  0  1  0  0  0  0  0  0  0  0  0
   -3.5078    3.9248    0.8096 C   0  0  0  0  0  0  0  0  0  0  0  0
   -3.1310    4.4947    3.2214 C   0  0  0  0  0  0  0  0  0  0  0  0
   -0.6343    5.9725    2.4306 C   0  0  0  0  0  0  0  0  0  0  0  0
    0.0788    5.6252    3.3621 O   0  0  0  0  0  0  0  0  0  0  0  0
   -0.9212    7.2514    2.1704 N   0  0  0  0  0  0  0  0  0  0  0  0
   -0.4134    8.3402    2.9725 C   0  0  0  0  0  0  0  0  0  0  0  0
    1.4035    1.2678    0.1154 O   0  0  0  0  0  0  0  0  0  0  0  0
    2.5923    2.0124    0.2718 C   0  0  0  0  0  0  0  0  0  0  0  0
   -1.6990    0.7099    1.8658 O   0  0  0  0  0  0  0  0  0  0  0  0
    0.7840   -0.9869    2.2965 O   0  0  0  0  0  0  0  0  0  0  0  0
    0.6002   -3.7425    1.6285 N   0  0  0  0  0  0  0  0  0  0  0  0
    1.3701   -4.9487    1.4816 C   0  0  1  0  0  0  0  0  0  0  0  0
    2.7533   -4.6816    0.8443 C   0  0  1  0  0  0  0  0  0  0  0  0
    2.5973   -4.0528   -0.5353 C   0  0  0  0  0  0  0  0  0  0  0  0
    3.6483   -3.8245    1.7328 C   0  0  0  0  0  0  0  0  0  0  0  0
    1.5192   -5.6182    2.8465 C   0  0  0  0  0  0  0  0  0  0  0  0
    1.3201   -5.0151    3.8914 O   0  0  0  0  0  0  0  0  0  0  0  0
    1.9180   -6.8944    2.8078 N   0  0  0  0  0  0  0  0  0  0  0  0
    2.1642   -7.6674    4.0033 C   0  0  0  0  0  0  0  0  0  0  0  0
    6.9026   -0.9845   -2.1609 C   0  0  0  0  0  0  0  0  0  0  0  0
    7.6370   -1.9319   -1.4503 C   0  0  0  0  0  0  0  0  0  0  0  0
    8.6428   -2.6343   -2.0918 C   0  0  0  0  0  0  0  0  0  0  0  0
    8.8904   -2.3660   -3.4294 C   0  0  0  0  0  0  0  0  0  0  0  0
    8.1999   -1.4700   -4.1255 N   0  0  0  0  0  0  0  0  0  0  0  0
    7.2362   -0.8059   -3.5046 C   0  0  0  0  0  0  0  0  0  0  0  0
   -6.8851    0.8220   -3.0109 C   0  0  0  0  0  0  0  0  0  0  0  0
   -7.5852    1.9462   -2.5775 C   0  0  0  0  0  0  0  0  0  0  0  0
   -8.4010    2.6241   -3.4671 C   0  0  0  0  0  0  0  0  0  0  0  0
   -8.4990    2.1545   -4.7682 C   0  0  0  0  0  0  0  0  0  0  0  0
   -7.8371    1.0881   -5.2023 N   0  0  0  0  0  0  0  0  0  0  0  0
   -7.0542    0.4490   -4.3454 C   0  0  0  0  0  0  0  0  0  0  0  0
    4.3807    2.8630   -1.6033 H   0  0  0  0  0  0  0  0  0  0  0  0
    6.2258    1.6110   -2.6070 H   0  0  0  0  0  0  0  0  0  0  0  0
    5.1246   -1.8327   -0.3043 H   0  0  0  0  0  0  0  0  0  0  0  0
    3.3110   -0.5605    0.7301 H   0  0  0  0  0  0  0  0  0  0  0  0
   -4.9820   -3.1112   -1.4677 H   0  0  0  0  0  0  0  0  0  0  0  0
   -6.4887   -1.8649   -2.9384 H   0  0  0  0  0  0  0  0  0  0  0  0
   -5.2833    1.7939   -1.0546 H   0  0  0  0  0  0  0  0  0  0  0  0
   -3.8143    0.5311    0.4433 H   0  0  0  0  0  0  0  0  0  0  0  0
   -3.5087   -3.2121    0.3880 H   0  0  0  0  0  0  0  0  0  0  0  0
   -3.5687   -1.8739    1.5427 H   0  0  0  0  0  0  0  0  0  0  0  0
   -1.5305   -2.0708    2.1419 H   0  0  0  0  0  0  0  0  0  0  0  0
    0.6697   -1.0700    0.2962 H   0  0  0  0  0  0  0  0  0  0  0  0
   -1.1178    0.4834   -0.0394 H   0  0  0  0  0  0  0  0  0  0  0  0
    0.7885    1.6519    2.0396 H   0  0  0  0  0  0  0  0  0  0  0  0
   -0.3531    3.4311    2.5779 H   0  0  0  0  0  0  0  0  0  0  0  0
   -1.1662    5.2906    0.4675 H   0  0  0  0  0  0  0  0  0  0  0  0
   -3.2183    5.8832    1.5955 H   0  0  0  0  0  0  0  0  0  0  0  0
   -4.5905    3.9876    0.9301 H   0  0  0  0  0  0  0  0  0  0  0  0
   -3.2703    4.1544   -0.2293 H   0  0  0  0  0  0  0  0  0  0  0  0
   -3.2146    2.8920    1.0026 H   0  0  0  0  0  0  0  0  0  0  0  0
   -2.7232    5.2025    3.9443 H   0  0  0  0  0  0  0  0  0  0  0  0
   -4.2101    4.4599    3.3738 H   0  0  0  0  0  0  0  0  0  0  0  0
   -2.7383    3.5042    3.4591 H   0  0  0  0  0  0  0  0  0  0  0  0
   -1.4658    7.4764    1.3545 H   0  0  0  0  0  0  0  0  0  0  0  0
   -0.8544    9.2652    2.6134 H   0  0  0  0  0  0  0  0  0  0  0  0
   -0.6791    8.2173    4.0219 H   0  0  0  0  0  0  0  0  0  0  0  0
    0.6717    8.4251    2.9006 H   0  0  0  0  0  0  0  0  0  0  0  0
    2.5031    3.0066   -0.1824 H   0  0  0  0  0  0  0  0  0  0  0  0
    2.8056    2.1649    1.3383 H   0  0  0  0  0  0  0  0  0  0  0  0
   -1.3452    0.8609    2.7489 H   0  0  0  0  0  0  0  0  0  0  0  0
    0.2327   -0.8618    3.0781 H   0  0  0  0  0  0  0  0  0  0  0  0
    0.9209   -3.0615    2.3010 H   0  0  0  0  0  0  0  0  0  0  0  0
    0.8186   -5.6163    0.8159 H   0  0  0  0  0  0  0  0  0  0  0  0
    3.2324   -5.6570    0.7156 H   0  0  0  0  0  0  0  0  0  0  0  0
    2.2201   -3.0305   -0.4663 H   0  0  0  0  0  0  0  0  0  0  0  0
    3.5611   -4.0078   -1.0445 H   0  0  0  0  0  0  0  0  0  0  0  0
    1.9128   -4.6210   -1.1663 H   0  0  0  0  0  0  0  0  0  0  0  0
    3.1943   -2.8530    1.9421 H   0  0  0  0  0  0  0  0  0  0  0  0
    3.8750   -4.3014    2.6868 H   0  0  0  0  0  0  0  0  0  0  0  0
    4.6003   -3.6341    1.2363 H   0  0  0  0  0  0  0  0  0  0  0  0
    2.0266   -7.3513    1.9177 H   0  0  0  0  0  0  0  0  0  0  0  0
    2.5093   -8.6540    3.7088 H   0  0  0  0  0  0  0  0  0  0  0  0
    2.9315   -7.2070    4.6260 H   0  0  0  0  0  0  0  0  0  0  0  0
    1.2601   -7.7830    4.6021 H   0  0  0  0  0  0  0  0  0  0  0  0
    7.4396   -2.1078   -0.4002 H   0  0  0  0  0  0  0  0  0  0  0  0
    9.2312   -3.3710   -1.5628 H   0  0  0  0  0  0  0  0  0  0  0  0
    9.6748   -2.8945   -3.9589 H   0  0  0  0  0  0  0  0  0  0  0  0
    6.6786   -0.0978   -4.1089 H   0  0  0  0  0  0  0  0  0  0  0  0
   -7.5087    2.2794   -1.5499 H   0  0  0  0  0  0  0  0  0  0  0  0
   -8.9592    3.4968   -3.1576 H   0  0  0  0  0  0  0  0  0  0  0  0
   -9.1358    2.6581   -5.4866 H   0  0  0  0  0  0  0  0  0  0  0  0
   -6.5106   -0.4036   -4.7400 H   0  0  0  0  0  0  0  0  0  0  0  0
   -0.4523   -3.4225    0.8589 C   0  0  0  0  0  0  0  0  0  0  0  0
   -0.9150   -4.1526   -0.0011 O   0  0  0  0  0  0  0  0  0  0  0  0
   -3.3587   -2.1331    0.4975 C   0  0  0  0  0  0  0  0  0  0  0  0
  1  2  2  0
  1  6  1  0
  1 30  1  0
  2  3  1  0
  2 54  1  0
  3  4  2  0
  3 55  1  0
  4  5  1  0
  4 42  1  0
  5  6  2  0
  5 56  1  0
  6 57  1  0
  7  8  2  0
  7 12  1  0
  7108  1  0
  8  9  1  0
  8 58  1  0
  9 10  2  0
  9 59  1  0
 10 11  1  0
 10 48  1  0
 11 12  2  0
 11 60  1  0
 12 61  1  0
108 13  1  0
108 62  1  0
108 63  1  0
 13 14  1  0
 14 15  1  0
 14106  1  0
 14 64  1  1
 15 16  1  0
 15 32  1  0
 15 65  1  6
 16 17  1  0
 16 31  1  0
 16 66  1  6
 17 18  1  0
 17 29  1  0
 17 67  1  1
 18 19  2  0
 18 20  1  0
 20 21  1  0
 20 68  1  0
 21 22  1  0
 21 25  1  0
 21 69  1  6
 22 23  1  0
 22 24  1  0
 22 70  1  6
 23 71  1  0
 23 72  1  0
 23 73  1  0
 24 74  1  0
 24 75  1  0
 24 76  1  0
 25 26  2  0
 25 27  1  0
 27 28  1  0
 27 77  1  0
 28 78  1  0
 28 79  1  0
 28 80  1  0
 29 30  1  0
 30 81  1  0
 30 82  1  0
 31 83  1  0
 32 84  1  0
106107  2  0
106 33  1  0
 33 34  1  0
 33 85  1  0
 34 35  1  0
 34 38  1  0
 34 86  1  6
 35 36  1  0
 35 37  1  0
 35 87  1  6
 36 88  1  0
 36 89  1  0
 36 90  1  0
 37 91  1  0
 37 92  1  0
 37 93  1  0
 38 39  2  0
 38 40  1  0
 40 41  1  0
 40 94  1  0
 41 95  1  0
 41 96  1  0
 41 97  1  0
 42 43  2  0
 42 47  1  0
 43 44  1  0
 43 98  1  0
 44 45  2  0
 44 99  1  0
 45 46  1  0
 45100  1  0
 46 47  2  0
 47101  1  0
 48 49  2  0
 48 53  1  0
 49 50  1  0
 49102  1  0
 50 51  2  0
 50103  1  0
 51 52  1  0
 51104  1  0
 52 53  2  0
 53105  1  0
M  END
