
     RDKit          3D

 30 31  0  0  0  0  0  0  0  0999 V2000
   -2.7888    1.3761    1.9030 C   0  0  0  0  0  0  0  0  0  0  0  0
   -1.9939    1.1589    0.7909 C   0  0  0  0  0  0  0  0  0  0  0  0
   -0.7873    0.4708    0.8999 C   0  0  0  0  0  0  0  0  0  0  0  0
   -0.3867    0.0050    2.1594 C   0  0  0  0  0  0  0  0  0  0  0  0
   -1.1802    0.2487    3.2754 C   0  0  0  0  0  0  0  0  0  0  0  0
   -2.3811    0.9276    3.1511 C   0  0  0  0  0  0  0  0  0  0  0  0
    0.8833   -0.7774    2.3006 C   0  0  1  0  0  0  0  0  0  0  0  0
    0.0357    0.2900   -0.2171 N   0  0  0  0  0  0  0  0  0  0  0  0
   -2.0181   -1.2409   -2.8455 C   0  0  0  0  0  0  0  0  0  0  0  0
   -1.2477   -1.0159   -3.9850 C   0  0  0  0  0  0  0  0  0  0  0  0
   -0.0440   -0.3602   -3.8516 C   0  0  0  0  0  0  0  0  0  0  0  0
    0.4148    0.0953   -2.6076 C   0  0  0  0  0  0  0  0  0  0  0  0
   -0.3799   -0.1208   -1.4536 C   0  0  0  0  0  0  0  0  0  0  0  0
   -1.5958   -0.8085   -1.6079 C   0  0  0  0  0  0  0  0  0  0  0  0
    2.2920    0.9898   -3.6873 O   0  0  0  0  0  0  0  0  0  0  0  0
    2.2279    1.1544   -1.4753 O   0  0  0  0  0  0  0  0  0  0  0  0
    1.0943   -1.1800    3.5571 F   0  0  0  0  0  0  0  0  0  0  0  0
    0.8837   -1.8788    1.5385 F   0  0  0  0  0  0  0  0  0  0  0  0
    1.9650   -0.0623    1.9456 F   0  0  0  0  0  0  0  0  0  0  0  0
   -3.7196    1.9171    1.7951 H   0  0  0  0  0  0  0  0  0  0  0  0
   -2.3031    1.5377   -0.1746 H   0  0  0  0  0  0  0  0  0  0  0  0
   -0.8732   -0.0969    4.2523 H   0  0  0  0  0  0  0  0  0  0  0  0
   -2.9915    1.1047    4.0258 H   0  0  0  0  0  0  0  0  0  0  0  0
    0.9752    0.6661   -0.1838 H   0  0  0  0  0  0  0  0  0  0  0  0
   -2.9577   -1.7729   -2.9226 H   0  0  0  0  0  0  0  0  0  0  0  0
   -1.5828   -1.3544   -4.9552 H   0  0  0  0  0  0  0  0  0  0  0  0
    0.5584   -0.1945   -4.7334 H   0  0  0  0  0  0  0  0  0  0  0  0
   -2.2057   -1.0189   -0.7401 H   0  0  0  0  0  0  0  0  0  0  0  0
    3.1397    1.4398   -3.5569 H   0  0  0  0  0  0  0  0  0  0  0  0
    1.7097    0.7879   -2.5143 C   0  0  0  0  0  0  0  0  0  0  0  0
  1  2  2  0
  1  6  1  0
  1 20  1  0
  2  3  1  0
  2 21  1  0
  3  4  2  0
  3  8  1  0
  4  5  1  0
  4  7  1  0
  5  6  2  0
  5 22  1  0
  6 23  1  0
  7 17  1  1
  7 18  1  0
  7 19  1  0
  8 13  1  0
  8 24  1  0
  9 10  2  0
  9 14  1  0
  9 25  1  0
 10 11  1  0
 10 26  1  0
 11 12  2  0
 11 27  1  0
 12 13  1  0
 12 30  1  0
 13 14  2  0
 14 28  1  0
 30 15  1  0
 30 16  2  0
 15 29  1  0
M  END
