
     RDKit          3D

 43 44  0  0  0  0  0  0  0  0999 V2000
   -0.0167   -2.5377    0.5922 C   0  0  0  0  0  0  0  0  0  0  0  0
    0.3233   -1.2217    0.2666 C   0  0  0  0  0  0  0  0  0  0  0  0
    4.1236    0.0570    0.5139 O   0  0  0  0  0  0  0  0  0  0  0  0
   -2.6589    0.6985    0.3002 O   0  0  0  0  0  0  0  0  0  0  0  0
    3.3138    0.8065    0.0046 C   0  0  0  0  0  0  0  0  0  0  0  0
    3.6579    2.2605   -0.2565 C   0  0  0  0  0  0  0  0  0  0  0  0
    5.1375    2.5523   -0.0719 C   0  0  0  0  0  0  0  0  0  0  0  0
    2.0611    0.3808   -0.3800 N   0  0  0  0  0  0  0  0  0  0  0  0
    0.9774    1.3169   -0.6212 C   0  0  0  0  0  0  0  0  0  0  0  0
   -0.0563    1.1612    0.4777 C   0  0  0  0  0  0  0  0  0  0  0  0
    1.6386   -0.9499   -0.1600 C   0  0  0  0  0  0  0  0  0  0  0  0
    2.5065   -2.0195   -0.3937 C   0  0  0  0  0  0  0  0  0  0  0  0
    2.1313   -3.3211   -0.1238 C   0  0  0  0  0  0  0  0  0  0  0  0
    0.8737   -3.5768    0.4047 C   0  0  0  0  0  0  0  0  0  0  0  0
   -0.6185   -0.1788    0.3977 N   0  0  0  0  0  0  0  0  0  0  0  0
   -1.9383   -0.3815    0.0483 C   0  0  0  0  0  0  0  0  0  0  0  0
   -2.3684   -1.4157   -0.4080 O   0  0  0  0  0  0  0  0  0  0  0  0
   -4.0726    0.8053   -0.0375 C   0  0  1  0  0  0  0  0  0  0  0  0
   -4.2896    0.6480   -1.5370 C   0  0  0  0  0  0  0  0  0  0  0  0
   -4.8973   -0.1880    0.7707 C   0  0  0  0  0  0  0  0  0  0  0  0
   -4.4159    2.2266    0.3899 C   0  0  0  0  0  0  0  0  0  0  0  0
   -0.9899   -2.7550    1.0035 H   0  0  0  0  0  0  0  0  0  0  0  0
    3.3461    2.5400   -1.2655 H   0  0  0  0  0  0  0  0  0  0  0  0
    3.0776    2.8928    0.4228 H   0  0  0  0  0  0  0  0  0  0  0  0
    5.4677    2.3519    0.9460 H   0  0  0  0  0  0  0  0  0  0  0  0
    5.7534    1.9620   -0.7494 H   0  0  0  0  0  0  0  0  0  0  0  0
    5.3283    3.6041   -0.2816 H   0  0  0  0  0  0  0  0  0  0  0  0
    1.3424    2.3371   -0.6345 H   0  0  0  0  0  0  0  0  0  0  0  0
    0.5247    1.1213   -1.5959 H   0  0  0  0  0  0  0  0  0  0  0  0
    0.4080    1.3158    1.4546 H   0  0  0  0  0  0  0  0  0  0  0  0
   -0.8336    1.9065    0.3609 H   0  0  0  0  0  0  0  0  0  0  0  0
    3.4857   -1.8312   -0.8043 H   0  0  0  0  0  0  0  0  0  0  0  0
    2.8242   -4.1292   -0.3167 H   0  0  0  0  0  0  0  0  0  0  0  0
    0.5773   -4.5847    0.6623 H   0  0  0  0  0  0  0  0  0  0  0  0
   -4.1187   -0.3688   -1.8825 H   0  0  0  0  0  0  0  0  0  0  0  0
   -5.3213    0.9095   -1.7739 H   0  0  0  0  0  0  0  0  0  0  0  0
   -3.6418    1.3230   -2.0986 H   0  0  0  0  0  0  0  0  0  0  0  0
   -4.7044   -0.0772    1.8390 H   0  0  0  0  0  0  0  0  0  0  0  0
   -5.9565    0.0129    0.6056 H   0  0  0  0  0  0  0  0  0  0  0  0
   -4.7073   -1.2198    0.4858 H   0  0  0  0  0  0  0  0  0  0  0  0
   -3.8286    2.9626   -0.1610 H   0  0  0  0  0  0  0  0  0  0  0  0
   -5.4695    2.4226    0.1937 H   0  0  0  0  0  0  0  0  0  0  0  0
   -4.2406    2.3718    1.4567 H   0  0  0  0  0  0  0  0  0  0  0  0
  7  6  1  0
  6  5  1  0
  3  5  2  0
  5  8  1  0
 12 13  2  0
 12 11  1  0
 13 14  1  0
  8 11  1  0
  8  9  1  0
 11  2  2  0
  9 10  1  0
 14  1  2  0
  2  1  1  0
  2 15  1  0
 10 15  1  0
 15 16  1  0
 16 17  2  0
 16  4  1  0
 18  4  1  6
 19 18  1  0
 18 20  1  0
 18 21  1  0
  1 22  1  0
  6 23  1  0
  6 24  1  0
  7 25  1  0
  7 26  1  0
  7 27  1  0
  9 28  1  0
  9 29  1  0
 10 30  1  0
 10 31  1  0
 12 32  1  0
 13 33  1  0
 14 34  1  0
 19 35  1  0
 19 36  1  0
 19 37  1  0
 20 38  1  0
 20 39  1  0
 20 40  1  0
 21 41  1  0
 21 42  1  0
 21 43  1  0
M  END
