
     RDKit          3D

 23 24  0  0  0  0  0  0  0  0999 V2000
   -2.7625   -0.7052   -0.2921 S   0  0  2  0  0  0  0  0  0  0  0  0
   -1.9114   -1.6380    0.4404 O   0  0  0  0  0  0  0  0  0  0  0  0
   -3.2752   -1.1010   -1.5979 O   0  0  0  0  0  0  0  0  0  0  0  0
   -4.6371    2.9689   -1.2360 C   0  0  0  0  0  0  0  0  0  0  0  0
   -4.0537    4.2443   -1.4469 C   0  0  0  0  0  0  0  0  0  0  0  0
   -2.6955    4.3396   -1.3107 C   0  0  0  0  0  0  0  0  0  0  0  0
   -1.9359    3.1978   -0.9736 C   0  0  0  0  0  0  0  0  0  0  0  0
   -0.5334    3.2182   -0.8086 C   0  0  0  0  0  0  0  0  0  0  0  0
    0.1466    2.0804   -0.4653 C   0  0  0  0  0  0  0  0  0  0  0  0
   -0.5409    0.8673   -0.2710 C   0  0  0  0  0  0  0  0  0  0  0  0
   -1.8979    0.8296   -0.4440 C   0  0  0  0  0  0  0  0  0  0  0  0
   -2.6331    1.9832   -0.7982 C   0  0  0  0  0  0  0  0  0  0  0  0
   -3.9726    1.8885   -0.9301 N   0  0  0  0  0  0  0  0  0  0  0  0
   -5.7140    2.8629   -1.3296 H   0  0  0  0  0  0  0  0  0  0  0  0
   -2.1897    5.2870   -1.4574 H   0  0  0  0  0  0  0  0  0  0  0  0
    0.0007    4.1489   -0.9540 H   0  0  0  0  0  0  0  0  0  0  0  0
    1.2199    2.1050   -0.3383 H   0  0  0  0  0  0  0  0  0  0  0  0
    0.0085   -0.0195    0.0153 H   0  0  0  0  0  0  0  0  0  0  0  0
   -5.7074    5.5524   -1.0555 H   0  0  0  0  0  0  0  0  0  0  0  0
   -4.3464    6.3298   -1.8654 H   0  0  0  0  0  0  0  0  0  0  0  0
   -5.4169    5.2520   -2.7605 H   0  0  0  0  0  0  0  0  0  0  0  0
   -3.8063   -0.3647    0.5001 H   0  0  0  0  0  0  0  0  0  0  0  0
   -4.9235    5.4092   -1.8002 C   0  0  0  0  0  0  0  0  0  0  0  0
  1  2  2  0
  1  3  2  0
  1 11  1  0
  4  5  2  0
  4 13  1  0
  4 14  1  0
  5  6  1  0
  5 23  1  0
  6  7  2  0
  6 15  1  0
  7  8  1  0
  7 12  1  0
  8  9  2  0
  8 16  1  0
  9 10  1  0
  9 17  1  0
 10 11  2  0
 10 18  1  0
 11 12  1  0
 12 13  2  0
 23 19  1  0
 23 20  1  0
 23 21  1  0
  1 22  1  1
M  END
