
     RDKit          3D

 30 33  0  0  0  0  0  0  0  0999 V2000
   -0.0440   -0.0842   -0.2241 C   0  0  0  0  0  0  0  0  0  0  0  0
    1.3190   -1.3712   -2.0324 O   0  0  0  0  0  0  0  0  0  0  0  0
    2.6433   -0.5782    0.0732 C   0  0  0  0  0  0  0  0  0  0  0  0
    4.8678   -0.8650    0.8861 C   0  0  0  0  0  0  0  0  0  0  0  0
    5.0558    0.5082    0.8321 C   0  0  0  0  0  0  0  0  0  0  0  0
    4.0336    1.3396    0.4002 C   0  0  0  0  0  0  0  0  0  0  0  0
    2.8080    0.8062    0.0142 C   0  0  0  0  0  0  0  0  0  0  0  0
    1.7143    1.7361   -0.3732 C   0  0  0  0  0  0  0  0  0  0  0  0
    0.3047    1.2652   -0.2620 C   0  0  0  0  0  0  0  0  0  0  0  0
   -0.7094    2.2057   -0.1282 C   0  0  0  0  0  0  0  0  0  0  0  0
   -2.0233    1.8059    0.0417 C   0  0  0  0  0  0  0  0  0  0  0  0
   -2.3506    0.4541    0.0833 C   0  0  0  0  0  0  0  0  0  0  0  0
   -3.7216    0.0021    0.2724 C   0  0  0  0  0  0  0  0  0  0  0  0
   -1.3469   -0.5026   -0.0556 C   0  0  0  0  0  0  0  0  0  0  0  0
    3.6553   -1.4196    0.4988 C   0  0  0  0  0  0  0  0  0  0  0  0
   -4.8188    0.7614    0.3236 N   0  0  0  0  0  0  0  0  0  0  0  0
   -5.8695   -0.0145    0.5059 N   0  0  0  0  0  0  0  0  0  0  0  0
   -5.4305   -1.2107    0.5646 N   0  0  0  0  0  0  0  0  0  0  0  0
   -4.1102   -1.2433    0.4244 N   0  0  0  0  0  0  0  0  0  0  0  0
    1.9533    2.8783   -0.6908 O   0  0  0  0  0  0  0  0  0  0  0  0
    0.8714   -2.5320    0.1456 O   0  0  0  0  0  0  0  0  0  0  0  0
    1.1786   -1.3108   -0.5838 S   0  0  1  0  0  0  0  0  0  0  0  0
    5.6647   -1.5104    1.2292 H   0  0  0  0  0  0  0  0  0  0  0  0
    6.0007    0.9363    1.1365 H   0  0  0  0  0  0  0  0  0  0  0  0
    4.1816    2.4106    0.3797 H   0  0  0  0  0  0  0  0  0  0  0  0
   -0.4733    3.2605   -0.1406 H   0  0  0  0  0  0  0  0  0  0  0  0
   -2.7827    2.5683    0.1509 H   0  0  0  0  0  0  0  0  0  0  0  0
   -1.5936   -1.5558   -0.0293 H   0  0  0  0  0  0  0  0  0  0  0  0
    3.5111   -2.4910    0.5344 H   0  0  0  0  0  0  0  0  0  0  0  0
   -4.9344    1.7626    0.2430 H   0  0  0  0  0  0  0  0  0  0  0  0
 21 22  2  0
  4 15  2  0
  4  5  1  0
 15  3  1  0
  5  6  2  0
 22  3  1  1
  3  7  2  0
 22  1  1  0
 22  2  2  0
  6  7  1  0
  7  8  1  0
  1 14  1  0
  1  9  2  0
 14 12  2  0
  8  9  1  0
  8 20  2  0
  9 10  1  0
 16 17  1  0
 16 13  1  0
 17 18  2  0
 12 13  1  0
 12 11  1  0
 13 19  2  0
 18 19  1  0
 10 11  2  0
  4 23  1  0
  5 24  1  0
  6 25  1  0
 10 26  1  0
 11 27  1  0
 14 28  1  0
 15 29  1  0
 16 30  1  0
M  END
