
     RDKit          3D

 64 67  0  0  0  0  0  0  0  0999 V2000
   -5.0873   -5.1949   -0.0642 C   0  0  0  0  0  0  0  0  0  0  0  0
   -3.8708   -4.5235   -0.1164 C   0  0  0  0  0  0  0  0  0  0  0  0
   -6.0247    3.1814    1.2721 C   0  0  0  0  0  0  0  0  0  0  0  0
    5.2030   -1.3897   -0.5846 C   0  0  0  0  0  0  0  0  0  0  0  0
    5.1022   -0.7098    1.7143 C   0  0  0  0  0  0  0  0  0  0  0  0
    6.2590   -0.5229   -0.8054 C   0  0  0  0  0  0  0  0  0  0  0  0
    6.1622    0.1606    1.5130 C   0  0  0  0  0  0  0  0  0  0  0  0
   -1.3195   -3.0543    0.3847 C   0  0  0  0  0  0  0  0  0  0  0  0
   -6.2330   -4.4398    0.0615 C   0  0  0  0  0  0  0  0  0  0  0  0
   -2.2823   -1.1950   -0.5914 C   0  0  0  0  0  0  0  0  0  0  0  0
   -3.8150   -3.1390   -0.0446 C   0  0  0  0  0  0  0  0  0  0  0  0
   -2.5231   -2.4407   -0.0851 C   0  0  0  0  0  0  0  0  0  0  0  0
   -5.4262    3.7397    0.1469 C   0  0  0  0  0  0  0  0  0  0  0  0
    6.7307    0.2460    0.2508 C   0  0  0  0  0  0  0  0  0  0  0  0
   -5.0603   -2.4849    0.0803 C   0  0  0  0  0  0  0  0  0  0  0  0
   -0.2216   -2.2669    0.2159 C   0  0  0  0  0  0  0  0  0  0  0  0
   -5.1530    5.1995    0.1472 C   0  0  0  0  0  0  0  0  0  0  0  0
   10.8095    1.1345    0.0579 C   0  0  0  0  0  0  0  0  0  0  0  0
   -6.2881   -0.4665    0.2842 C   0  0  0  0  0  0  0  0  0  0  0  0
   -6.2139   -3.1101    0.1348 N   0  0  0  0  0  0  0  0  0  0  0  0
   -5.1065    2.9178   -0.9347 C   0  0  0  0  0  0  0  0  0  0  0  0
   -6.2951    1.8227    1.3186 C   0  0  0  0  0  0  0  0  0  0  0  0
   -5.3857    1.5638   -0.8843 C   0  0  0  0  0  0  0  0  0  0  0  0
    4.6136   -1.4909    0.6728 C   0  0  0  0  0  0  0  0  0  0  0  0
   -5.9814    1.0011    0.2428 C   0  0  0  0  0  0  0  0  0  0  0  0
    2.1533   -1.8097    0.4012 C   0  0  0  0  0  0  0  0  0  0  0  0
    3.4545   -2.4141    0.8888 C   0  0  0  0  0  0  0  0  0  0  0  0
    9.5399    0.3207    0.2401 C   0  0  0  0  0  0  0  0  0  0  0  0
    1.0679   -2.5967    0.5910 N   0  0  0  0  0  0  0  0  0  0  0  0
   -5.4203    5.9314    1.0698 O   0  0  0  0  0  0  0  0  0  0  0  0
    2.0682   -0.7145   -0.1212 O   0  0  0  0  0  0  0  0  0  0  0  0
    8.0753    1.7747   -1.4159 O   0  0  0  0  0  0  0  0  0  0  0  0
    8.0692    2.3757    1.0224 O   0  0  0  0  0  0  0  0  0  0  0  0
   -5.0468   -1.1522    0.1579 O   0  0  0  0  0  0  0  0  0  0  0  0
   -4.5848    5.6128   -0.9732 O   0  0  0  0  0  0  0  0  0  0  0  0
   -0.6237   -0.7580   -0.5211 S   0  0  0  0  0  0  0  0  0  0  0  0
   -5.1358   -6.2726   -0.1235 H   0  0  0  0  0  0  0  0  0  0  0  0
   -2.9557   -5.0905   -0.2294 H   0  0  0  0  0  0  0  0  0  0  0  0
   -6.2776    3.8052    2.1187 H   0  0  0  0  0  0  0  0  0  0  0  0
    4.8347   -1.9944   -1.4039 H   0  0  0  0  0  0  0  0  0  0  0  0
    4.6532   -0.7782    2.6971 H   0  0  0  0  0  0  0  0  0  0  0  0
    6.7010   -0.4507   -1.7901 H   0  0  0  0  0  0  0  0  0  0  0  0
    6.5301    0.7623    2.3330 H   0  0  0  0  0  0  0  0  0  0  0  0
   -1.2749   -4.0290    0.8517 H   0  0  0  0  0  0  0  0  0  0  0  0
   -7.2087   -4.9094    0.1072 H   0  0  0  0  0  0  0  0  0  0  0  0
   -2.9815   -0.5041   -1.0319 H   0  0  0  0  0  0  0  0  0  0  0  0
   10.8804    1.9409    0.7856 H   0  0  0  0  0  0  0  0  0  0  0  0
   11.6683    0.4805    0.1996 H   0  0  0  0  0  0  0  0  0  0  0  0
   10.8754    1.5572   -0.9431 H   0  0  0  0  0  0  0  0  0  0  0  0
   -6.7831   -0.7361    1.2200 H   0  0  0  0  0  0  0  0  0  0  0  0
   -6.9593   -0.7394   -0.5344 H   0  0  0  0  0  0  0  0  0  0  0  0
   -4.6447    3.3250   -1.8231 H   0  0  0  0  0  0  0  0  0  0  0  0
   -6.7528    1.4003    2.2043 H   0  0  0  0  0  0  0  0  0  0  0  0
   -5.1412    0.9425   -1.7372 H   0  0  0  0  0  0  0  0  0  0  0  0
   -3.8297    7.1289   -2.0664 H   0  0  0  0  0  0  0  0  0  0  0  0
   -5.1732    7.6161   -1.0124 H   0  0  0  0  0  0  0  0  0  0  0  0
   -3.5643    7.3127   -0.3204 H   0  0  0  0  0  0  0  0  0  0  0  0
    3.6170   -3.3612    0.3658 H   0  0  0  0  0  0  0  0  0  0  0  0
    3.3503   -2.6653    1.9474 H   0  0  0  0  0  0  0  0  0  0  0  0
    9.4775   -0.4992   -0.4768 H   0  0  0  0  0  0  0  0  0  0  0  0
    9.4606   -0.0936    1.2460 H   0  0  0  0  0  0  0  0  0  0  0  0
    1.1898   -3.4996    1.0268 H   0  0  0  0  0  0  0  0  0  0  0  0
    8.0935    1.3465   -0.0170 S   0  0  1  0  0  0  0  0  0  0  0  0
   -4.2759    7.0021   -1.0847 C   0  0  0  0  0  0  0  0  0  0  0  0
 30 17  2  0
 21 23  2  0
 21 13  1  0
 23 25  1  0
 31 26  2  0
 36 10  1  0
 36 16  1  0
 17 13  1  0
 17 35  1  0
 13  3  2  0
 25 19  1  0
 25 22  2  0
 19 34  1  0
 10 12  2  0
 34 15  1  0
 26 27  1  0
 26 29  1  0
  3 22  1  0
 35 64  1  0
 27 24  1  0
  5  7  2  0
  5 24  1  0
 16 29  1  0
 16  8  2  0
 12  8  1  0
 12 11  1  0
  7 14  1  0
 24  4  2  0
 15 11  2  0
 15 20  1  0
 11  2  1  0
 20  9  2  0
 18 28  1  0
 14  6  2  0
 14 63  1  0
  4  6  1  0
 63 28  1  6
 33 63  2  0
 63 32  2  0
  2  1  2  0
  9  1  1  0
  1 37  1  0
  2 38  1  0
  3 39  1  0
  4 40  1  0
  5 41  1  0
  6 42  1  0
  7 43  1  0
  8 44  1  0
  9 45  1  0
 10 46  1  0
 18 47  1  0
 18 48  1  0
 18 49  1  0
 19 50  1  0
 19 51  1  0
 21 52  1  0
 22 53  1  0
 23 54  1  0
 64 55  1  0
 64 56  1  0
 64 57  1  0
 27 58  1  0
 27 59  1  0
 28 60  1  0
 28 61  1  0
 29 62  1  0
M  END
