
     RDKit          3D

 24 25  0  0  0  0  0  0  0  0999 V2000
    0.2161   -0.9970   -0.9382 O   0  0  0  0  0  0  0  0  0  0  0  0
   -0.8278   -0.2057   -0.5889 C   0  0  0  0  0  0  0  0  0  0  0  0
   -2.0654   -0.8292   -0.4682 C   0  0  0  0  0  0  0  0  0  0  0  0
   -3.2108   -0.1025   -0.1336 C   0  0  0  0  0  0  0  0  0  0  0  0
   -4.3557   -0.7744   -0.0369 O   0  0  0  0  0  0  0  0  0  0  0  0
   -3.0722    1.2724    0.0835 C   0  0  0  0  0  0  0  0  0  0  0  0
    5.8707    0.9636   -0.4156 Br  0  0  0  0  0  0  0  0  0  0  0  0
   -1.8393    1.8890   -0.0349 C   0  0  0  0  0  0  0  0  0  0  0  0
   -0.7126    1.1599   -0.3714 C   0  0  0  0  0  0  0  0  0  0  0  0
    1.4862   -0.5177   -0.8050 C   0  0  0  0  0  0  0  0  0  0  0  0
    2.1174   -0.5183    0.4352 C   0  0  0  0  0  0  0  0  0  0  0  0
   -2.2079   -2.6749   -0.7525 Br  0  0  0  0  0  0  0  0  0  0  0  0
    3.4260   -0.0760    0.5584 C   0  0  0  0  0  0  0  0  0  0  0  0
    4.0923    0.3647   -0.5760 C   0  0  0  0  0  0  0  0  0  0  0  0
    1.1977   -1.1428    1.9458 Br  0  0  0  0  0  0  0  0  0  0  0  0
    3.4786    0.3655   -1.8195 C   0  0  0  0  0  0  0  0  0  0  0  0
    2.1690   -0.0748   -1.9252 C   0  0  0  0  0  0  0  0  0  0  0  0
   -5.1013   -0.1970    0.1729 H   0  0  0  0  0  0  0  0  0  0  0  0
   -1.7442    2.9531    0.1317 H   0  0  0  0  0  0  0  0  0  0  0  0
    0.2370    1.6678   -0.4677 H   0  0  0  0  0  0  0  0  0  0  0  0
    3.9144   -0.0788    1.5234 H   0  0  0  0  0  0  0  0  0  0  0  0
    4.0002    0.7054   -2.7032 H   0  0  0  0  0  0  0  0  0  0  0  0
    1.6751   -0.0814   -2.8882 H   0  0  0  0  0  0  0  0  0  0  0  0
   -4.5857    2.3007    0.5423 Br  0  0  0  0  0  0  0  0  0  0  0  0
  7 14  1  0
 14 16  2  0
 14 13  1  0
 16 17  1  0
 13 11  2  0
 17 10  2  0
 11 10  1  0
 11 15  1  0
 10  1  1  0
  9  8  2  0
  9  2  1  0
  8  6  1  0
  1  2  1  0
  2  3  2  0
  6 24  1  0
  6  4  2  0
  3  4  1  0
  3 12  1  0
  4  5  1  0
  5 18  1  0
  8 19  1  0
  9 20  1  0
 13 21  1  0
 16 22  1  0
 17 23  1  0
M  END
