
     RDKit          3D

 26 26  0  0  0  0  0  0  0  0999 V2000
    0.5388    0.8329    3.7209 O   0  0  0  0  0  0  0  0  0  0  0  0
    1.3253    0.0473    2.5666 P   0  0  2  0  0  0  0  0  0  0  0  0
    1.7110   -1.3542    2.8258 O   0  0  0  0  0  0  0  0  0  0  0  0
    2.6155    0.9098    2.1880 O   0  0  0  0  0  0  0  0  0  0  0  0
    0.1419    0.2680    1.1845 C   0  0  1  0  0  0  0  0  0  0  0  0
    0.6104   -0.5603    0.1108 N   0  0  0  0  0  0  0  0  0  0  0  0
    0.4132   -0.2982   -1.2180 C   0  0  0  0  0  0  0  0  0  0  0  0
    0.7155   -1.3023   -2.0364 N   0  0  0  0  0  0  0  0  0  0  0  0
    0.6048   -1.1309   -3.3443 C   0  0  0  0  0  0  0  0  0  0  0  0
    0.1829    0.0591   -3.9071 C   0  0  0  0  0  0  0  0  0  0  0  0
    0.0586    0.2205   -5.6243 Cl  0  0  0  0  0  0  0  0  0  0  0  0
   -0.1434    1.1130   -3.0639 C   0  0  0  0  0  0  0  0  0  0  0  0
   -0.0355    0.9397   -1.7015 C   0  0  0  0  0  0  0  0  0  0  0  0
   -1.6243   -0.0757    1.5572 P   0  0  1  0  0  0  0  0  0  0  0  0
   -2.4680   -0.1745    0.3471 O   0  0  0  0  0  0  0  0  0  0  0  0
   -1.4787   -1.4053    2.4378 O   0  0  0  0  0  0  0  0  0  0  0  0
   -2.1464    1.0964    2.5136 O   0  0  0  0  0  0  0  0  0  0  0  0
    0.9122    0.7575    4.6115 H   0  0  0  0  0  0  0  0  0  0  0  0
    2.4884    1.8642    2.1004 H   0  0  0  0  0  0  0  0  0  0  0  0
    0.1922    1.3220    0.8971 H   0  0  0  0  0  0  0  0  0  0  0  0
    0.7861   -1.5314    0.3240 H   0  0  0  0  0  0  0  0  0  0  0  0
    0.8622   -1.9776   -3.9710 H   0  0  0  0  0  0  0  0  0  0  0  0
   -0.4858    2.0581   -3.4631 H   0  0  0  0  0  0  0  0  0  0  0  0
   -0.2968    1.7555   -1.0439 H   0  0  0  0  0  0  0  0  0  0  0  0
   -2.3083   -1.8807    2.5901 H   0  0  0  0  0  0  0  0  0  0  0  0
   -1.6508    1.2136    3.3368 H   0  0  0  0  0  0  0  0  0  0  0  0
  2  1  1  1
  1 18  1  0
  2  3  2  0
  2  4  1  0
  2  5  1  0
  4 19  1  0
  5  6  1  0
  5 14  1  0
  5 20  1  6
  6  7  1  0
  6 21  1  0
  7  8  2  0
  7 13  1  0
  8  9  1  0
  9 10  2  0
  9 22  1  0
 10 11  1  0
 10 12  1  0
 12 13  2  0
 12 23  1  0
 13 24  1  0
 14 15  2  0
 14 16  1  1
 14 17  1  0
 16 25  1  0
 17 26  1  0
M  END
