
     RDKit          3D

 56 59  0  0  0  0  0  0  0  0999 V2000
   -4.5027    2.5079   -2.7123 C   0  0  0  0  0  0  0  0  0  0  0  0
   -1.6480   -2.1665    1.9777 N   0  0  0  0  0  0  0  0  0  0  0  0
   -4.6946    1.1070   -2.6157 O   0  0  0  0  0  0  0  0  0  0  0  0
   -3.2818   -1.8949    2.2090 S   0  0  1  0  0  0  0  0  0  0  0  0
   -4.3997    0.4916   -1.4668 C   0  0  0  0  0  0  0  0  0  0  0  0
    1.7465    2.3202    1.8194 N   0  0  0  0  0  0  0  0  0  0  0  0
    4.6525   -1.2520   -2.6323 O   0  0  0  0  0  0  0  0  0  0  0  0
    3.3827    2.0498    2.0335 S   0  0  1  0  0  0  0  0  0  0  0  0
   -4.6055   -0.8930   -1.4391 C   0  0  0  0  0  0  0  0  0  0  0  0
    4.0005    3.3581    1.9038 O   0  0  0  0  0  0  0  0  0  0  0  0
   -4.3094   -1.6179   -0.3062 C   0  0  0  0  0  0  0  0  0  0  0  0
    3.5241    1.2885    3.2605 O   0  0  0  0  0  0  0  0  0  0  0  0
   -3.8188   -0.9621    0.8207 C   0  0  0  0  0  0  0  0  0  0  0  0
   -3.8903   -3.2133    2.1705 O   0  0  0  0  0  0  0  0  0  0  0  0
   -0.7849   -1.0470    1.8847 C   0  0  0  0  0  0  0  0  0  0  0  0
   -3.4035   -1.0637    3.3922 O   0  0  0  0  0  0  0  0  0  0  0  0
   -0.3860   -0.5311    0.6184 C   0  0  0  0  0  0  0  0  0  0  0  0
   -0.7960   -1.1164   -0.6019 C   0  0  0  0  0  0  0  0  0  0  0  0
   -0.3960   -0.5990   -1.8014 C   0  0  0  0  0  0  0  0  0  0  0  0
    0.4370    0.5332   -1.8410 C   0  0  0  0  0  0  0  0  0  0  0  0
    0.8514    1.1220   -0.6801 C   0  0  0  0  0  0  0  0  0  0  0  0
    0.4578    0.6120    0.5784 C   0  0  0  0  0  0  0  0  0  0  0  0
    0.8754    1.2027    1.8054 C   0  0  0  0  0  0  0  0  0  0  0  0
    3.8843    1.0310    0.6930 C   0  0  0  0  0  0  0  0  0  0  0  0
    4.3424    1.6132   -0.4869 C   0  0  0  0  0  0  0  0  0  0  0  0
    4.6039    0.8178   -1.5803 C   0  0  0  0  0  0  0  0  0  0  0  0
    4.3966   -0.5653   -1.5151 C   0  0  0  0  0  0  0  0  0  0  0  0
    4.4440   -2.6539   -2.6381 C   0  0  0  0  0  0  0  0  0  0  0  0
    3.9540   -1.1425   -0.3246 C   0  0  0  0  0  0  0  0  0  0  0  0
    3.6971   -0.3413    0.7746 C   0  0  0  0  0  0  0  0  0  0  0  0
    0.4658    0.6799    3.0026 C   0  0  0  0  0  0  0  0  0  0  0  0
   -0.3604   -0.4524    3.0426 C   0  0  0  0  0  0  0  0  0  0  0  0
   -3.6308    0.4127    0.8100 C   0  0  0  0  0  0  0  0  0  0  0  0
   -3.9202    1.1427   -0.3299 C   0  0  0  0  0  0  0  0  0  0  0  0
   -3.4571    2.7852   -2.5602 H   0  0  0  0  0  0  0  0  0  0  0  0
   -4.7975    2.7885   -3.7195 H   0  0  0  0  0  0  0  0  0  0  0  0
   -5.1231    3.0524   -1.9970 H   0  0  0  0  0  0  0  0  0  0  0  0
   -1.4855   -2.9082    1.3046 H   0  0  0  0  0  0  0  0  0  0  0  0
    1.5714    3.0319    1.1174 H   0  0  0  0  0  0  0  0  0  0  0  0
   -4.9951   -1.3912   -2.3173 H   0  0  0  0  0  0  0  0  0  0  0  0
   -4.4622   -2.6888   -0.3057 H   0  0  0  0  0  0  0  0  0  0  0  0
   -1.4411   -1.9839   -0.6033 H   0  0  0  0  0  0  0  0  0  0  0  0
   -0.7251   -1.0587   -2.7236 H   0  0  0  0  0  0  0  0  0  0  0  0
    0.7546    0.9360   -2.7934 H   0  0  0  0  0  0  0  0  0  0  0  0
    1.4963    1.9873   -0.7406 H   0  0  0  0  0  0  0  0  0  0  0  0
    4.4952    2.6816   -0.5592 H   0  0  0  0  0  0  0  0  0  0  0  0
    4.9655    1.2598   -2.4995 H   0  0  0  0  0  0  0  0  0  0  0  0
    4.6978   -2.9972   -3.6370 H   0  0  0  0  0  0  0  0  0  0  0  0
    5.0858   -3.1624   -1.9153 H   0  0  0  0  0  0  0  0  0  0  0  0
    3.4022   -2.9089   -2.4310 H   0  0  0  0  0  0  0  0  0  0  0  0
    3.7984   -2.2082   -0.2348 H   0  0  0  0  0  0  0  0  0  0  0  0
    3.3485   -0.8025    1.6887 H   0  0  0  0  0  0  0  0  0  0  0  0
    0.7798    1.1433    3.9271 H   0  0  0  0  0  0  0  0  0  0  0  0
   -0.6597   -0.8610    3.9971 H   0  0  0  0  0  0  0  0  0  0  0  0
   -3.2552    0.9301    1.6825 H   0  0  0  0  0  0  0  0  0  0  0  0
   -3.7603    2.2114   -0.3135 H   0  0  0  0  0  0  0  0  0  0  0  0
  1  3  1  0
  4  2  1  6
  2 15  1  0
  3  5  1  0
  4 13  1  0
  4 14  2  0
  4 16  2  0
  5  9  2  0
  5 34  1  0
  8  6  1  6
  6 23  1  0
  7 27  1  0
  7 28  1  0
  8 10  2  0
  8 12  2  0
  8 24  1  0
  9 11  1  0
 11 13  2  0
 13 33  1  0
 15 17  1  0
 15 32  2  0
 17 18  2  0
 17 22  1  0
 18 19  1  0
 19 20  2  0
 20 21  1  0
 21 22  2  0
 22 23  1  0
 23 31  2  0
 24 25  2  0
 24 30  1  0
 25 26  1  0
 26 27  2  0
 27 29  1  0
 29 30  2  0
 31 32  1  0
 33 34  2  0
  1 35  1  0
  1 36  1  0
  1 37  1  0
  2 38  1  0
  6 39  1  0
  9 40  1  0
 11 41  1  0
 18 42  1  0
 19 43  1  0
 20 44  1  0
 21 45  1  0
 25 46  1  0
 26 47  1  0
 28 48  1  0
 28 49  1  0
 28 50  1  0
 29 51  1  0
 30 52  1  0
 31 53  1  0
 32 54  1  0
 33 55  1  0
 34 56  1  0
M  END
