
     RDKit          3D

 63 62  0  0  0  0  0  0  0  0999 V2000
   -0.1348    0.0740   -5.8522 O   0  0  0  0  0  0  0  0  0  0  0  0
   -0.1759    1.8925   -1.0986 O   0  0  0  0  0  0  0  0  0  0  0  0
    0.8872   -0.6408    1.0306 O   0  0  0  0  0  0  0  0  0  0  0  0
   -0.9425    0.8223    5.1472 O   0  0  0  0  0  0  0  0  0  0  0  0
    1.1299    0.3583    5.8420 O   0  0  0  0  0  0  0  0  0  0  0  0
    1.5959    1.6674   -7.2000 O   0  0  0  0  0  0  0  0  0  0  0  0
    1.3013    1.8186   -5.8789 N   0  0  0  0  0  0  0  0  0  0  0  0
   -0.2048    0.6273    2.5488 N   0  0  0  0  0  0  0  0  0  0  0  0
   -1.0529   -0.1633   -0.8607 N   0  0  0  0  0  0  0  0  0  0  0  0
    0.3570    1.0473   -5.3080 C   0  0  0  0  0  0  0  0  0  0  0  0
   -0.3839    0.7773   -1.5536 C   0  0  0  0  0  0  0  0  0  0  0  0
   -0.1042   -0.0215    1.3781 C   0  0  0  0  0  0  0  0  0  0  0  0
    0.2224    0.6125    4.9200 C   0  0  0  0  0  0  0  0  0  0  0  0
    0.1279    0.3445   -2.9125 C   0  0  1  0  0  0  0  0  0  0  0  0
   -1.3773    0.0145    0.5279 C   0  0  2  0  0  0  0  0  0  0  0  0
    0.8448    0.6340    3.5357 C   0  0  2  0  0  0  0  0  0  0  0  0
   -0.0202    1.4897   -3.9131 C   0  0  0  0  0  0  0  0  0  0  0  0
    0.7180    0.3515    7.2213 C   0  0  0  0  0  0  0  0  0  0  0  0
    1.6017   -0.1119   -2.7634 C   0  0  0  0  0  0  0  0  0  0  0  0
   -2.3266   -1.0881    1.0049 C   0  0  0  0  0  0  0  0  0  0  0  0
    1.9357    0.0564    8.0618 C   0  0  0  0  0  0  0  0  0  0  0  0
    3.3966   -1.7968   -3.1672 C   0  0  0  0  0  0  0  0  0  0  0  0
    1.1342   -2.5778   -2.4280 C   0  0  0  0  0  0  0  0  0  0  0  0
   -4.4644   -2.3484    0.7822 C   0  0  0  0  0  0  0  0  0  0  0  0
   -4.3940    0.0645    0.0939 C   0  0  0  0  0  0  0  0  0  0  0  0
    1.7771    1.8381    3.3794 C   0  0  0  0  0  0  0  0  0  0  0  0
    2.4007    1.1348   -7.2371 H   0  0  0  0  0  0  0  0  0  0  0  0
    1.5798    2.7050   -5.4836 H   0  0  0  0  0  0  0  0  0  0  0  0
   -1.0354    1.1659    2.7433 H   0  0  0  0  0  0  0  0  0  0  0  0
   -1.0947   -1.0981   -1.2345 H   0  0  0  0  0  0  0  0  0  0  0  0
   -0.4786   -0.4911   -3.2731 H   0  0  0  0  0  0  0  0  0  0  0  0
   -1.8608    0.9866    0.6545 H   0  0  0  0  0  0  0  0  0  0  0  0
    1.4313   -0.2794    3.4159 H   0  0  0  0  0  0  0  0  0  0  0  0
    1.5849   -1.6230   -4.2886 H   0  0  0  0  0  0  0  0  0  0  0  0
   -3.3362   -1.5411   -0.8351 H   0  0  0  0  0  0  0  0  0  0  0  0
   -1.0617    1.8213   -3.9562 H   0  0  0  0  0  0  0  0  0  0  0  0
    0.5708    2.3485   -3.5900 H   0  0  0  0  0  0  0  0  0  0  0  0
   -0.0531   -0.4071    7.3666 H   0  0  0  0  0  0  0  0  0  0  0  0
    0.2912    1.3227    7.4783 H   0  0  0  0  0  0  0  0  0  0  0  0
    2.2454    0.5860   -3.3070 H   0  0  0  0  0  0  0  0  0  0  0  0
    1.9185   -0.0396   -1.7180 H   0  0  0  0  0  0  0  0  0  0  0  0
   -1.7885   -2.0422    1.0120 H   0  0  0  0  0  0  0  0  0  0  0  0
   -2.5946   -0.8775    2.0445 H   0  0  0  0  0  0  0  0  0  0  0  0
    1.6468    0.0450    9.1124 H   0  0  0  0  0  0  0  0  0  0  0  0
    2.3639   -0.9169    7.8225 H   0  0  0  0  0  0  0  0  0  0  0  0
    2.7045    0.8181    7.9343 H   0  0  0  0  0  0  0  0  0  0  0  0
    3.6406   -2.8007   -3.5177 H   0  0  0  0  0  0  0  0  0  0  0  0
    3.9578   -1.0867   -3.7771 H   0  0  0  0  0  0  0  0  0  0  0  0
    3.7560   -1.7089   -2.1388 H   0  0  0  0  0  0  0  0  0  0  0  0
    1.3241   -2.4559   -1.3591 H   0  0  0  0  0  0  0  0  0  0  0  0
    0.0558   -2.5152   -2.5843 H   0  0  0  0  0  0  0  0  0  0  0  0
    1.4319   -3.5885   -2.7105 H   0  0  0  0  0  0  0  0  0  0  0  0
   -5.3526   -2.5320    0.1761 H   0  0  0  0  0  0  0  0  0  0  0  0
   -3.9105   -3.2861    0.8545 H   0  0  0  0  0  0  0  0  0  0  0  0
   -4.7994   -2.0823    1.7876 H   0  0  0  0  0  0  0  0  0  0  0  0
   -4.6451    0.4387    1.0895 H   0  0  0  0  0  0  0  0  0  0  0  0
   -3.8406    0.8463   -0.4278 H   0  0  0  0  0  0  0  0  0  0  0  0
   -5.3295   -0.0853   -0.4474 H   0  0  0  0  0  0  0  0  0  0  0  0
    1.2287    2.7739    3.4889 H   0  0  0  0  0  0  0  0  0  0  0  0
    2.5808    1.8179    4.1136 H   0  0  0  0  0  0  0  0  0  0  0  0
    2.2267    1.8207    2.3878 H   0  0  0  0  0  0  0  0  0  0  0  0
    1.8955   -1.5350   -3.2413 C   0  0  1  0  0  0  0  0  0  0  0  0
   -3.6077   -1.2383    0.1818 C   0  0  1  0  0  0  0  0  0  0  0  0
  1 10  2  0
  2 11  2  0
  3 12  2  0
  4 13  2  0
  5 13  1  0
  5 18  1  0
  6  7  1  0
  6 27  1  0
  7 10  1  0
  7 28  1  0
  8 12  1  0
  8 16  1  0
  8 29  1  0
  9 11  1  0
  9 15  1  0
  9 30  1  0
 10 17  1  0
 11 14  1  0
 12 15  1  0
 13 16  1  0
 14 17  1  0
 14 19  1  0
 14 31  1  6
 15 20  1  0
 15 32  1  6
 16 26  1  0
 16 33  1  6
 62 19  1  0
 62 22  1  0
 62 23  1  0
 62 34  1  6
 63 20  1  0
 63 24  1  0
 63 25  1  0
 63 35  1  6
 17 36  1  0
 17 37  1  0
 18 21  1  0
 18 38  1  0
 18 39  1  0
 19 40  1  0
 19 41  1  0
 20 42  1  0
 20 43  1  0
 21 44  1  0
 21 45  1  0
 21 46  1  0
 22 47  1  0
 22 48  1  0
 22 49  1  0
 23 50  1  0
 23 51  1  0
 23 52  1  0
 24 53  1  0
 24 54  1  0
 24 55  1  0
 25 56  1  0
 25 57  1  0
 25 58  1  0
 26 59  1  0
 26 60  1  0
 26 61  1  0
M  END
