
     RDKit          3D

 39 40  0  0  0  0  0  0  0  0999 V2000
   -0.8977   -0.1445   -1.3295 C   0  0  0  0  0  0  0  0  0  0  0  0
   -1.5944    0.3049   -0.0317 C   0  0  1  0  0  0  0  0  0  0  0  0
   -2.2947   -1.1299    0.9184 P   0  0  1  0  0  0  0  0  0  0  0  0
   -0.9536   -1.7313    1.5337 O   0  0  0  0  0  0  0  0  0  0  0  0
   -3.0165   -0.4887    2.1824 O   0  0  0  0  0  0  0  0  0  0  0  0
    0.3656   -0.8425   -1.0621 N   0  0  0  0  0  0  0  0  0  0  0  0
   -3.1075   -2.0074    0.0477 O   0  0  0  0  0  0  0  0  0  0  0  0
    0.4054   -2.1820   -1.0961 C   0  0  0  0  0  0  0  0  0  0  0  0
   -0.7547    1.1239    0.7412 O   0  0  0  0  0  0  0  0  0  0  0  0
    1.5778   -2.8423   -0.8184 C   0  0  0  0  0  0  0  0  0  0  0  0
   -3.0146    1.4317   -0.4380 P   0  0  1  0  0  0  0  0  0  0  0  0
    2.7068   -2.1119   -0.4873 C   0  0  0  0  0  0  0  0  0  0  0  0
   -2.3582    2.7629   -1.0051 O   0  0  0  0  0  0  0  0  0  0  0  0
    2.6554   -0.7190   -0.4552 C   0  0  0  0  0  0  0  0  0  0  0  0
   -3.6156    0.7476   -1.7342 O   0  0  0  0  0  0  0  0  0  0  0  0
    1.4525   -0.1137   -0.7699 C   0  0  0  0  0  0  0  0  0  0  0  0
   -3.9148    1.5915    0.7385 O   0  0  0  0  0  0  0  0  0  0  0  0
    3.8244    0.1078   -0.1045 C   0  0  0  0  0  0  0  0  0  0  0  0
    5.1005   -0.2579   -0.5308 C   0  0  0  0  0  0  0  0  0  0  0  0
    6.2000    0.5217   -0.2076 C   0  0  0  0  0  0  0  0  0  0  0  0
    6.0388    1.6730    0.5527 C   0  0  0  0  0  0  0  0  0  0  0  0
    4.7700    2.0419    0.9900 C   0  0  0  0  0  0  0  0  0  0  0  0
    3.6686    1.2645    0.6603 C   0  0  0  0  0  0  0  0  0  0  0  0
   -1.5309   -0.8047   -1.9158 H   0  0  0  0  0  0  0  0  0  0  0  0
   -0.6557    0.7226   -1.9417 H   0  0  0  0  0  0  0  0  0  0  0  0
   -0.5104   -2.6934   -1.3535 H   0  0  0  0  0  0  0  0  0  0  0  0
   -0.3773    0.6584    1.4992 H   0  0  0  0  0  0  0  0  0  0  0  0
    1.5960   -3.9218   -0.8500 H   0  0  0  0  0  0  0  0  0  0  0  0
    3.6247   -2.6286   -0.2387 H   0  0  0  0  0  0  0  0  0  0  0  0
    1.3408    0.9592   -0.8234 H   0  0  0  0  0  0  0  0  0  0  0  0
    5.2307   -1.1416   -1.1435 H   0  0  0  0  0  0  0  0  0  0  0  0
    7.1832    0.2340   -0.5533 H   0  0  0  0  0  0  0  0  0  0  0  0
    6.8978    2.2782    0.8086 H   0  0  0  0  0  0  0  0  0  0  0  0
    4.6353    2.9357    1.5839 H   0  0  0  0  0  0  0  0  0  0  0  0
    2.6891    1.5481    1.0268 H   0  0  0  0  0  0  0  0  0  0  0  0
   -1.0221   -2.5940    1.9739 H   0  0  0  0  0  0  0  0  0  0  0  0
   -3.5752    0.2795    1.9200 H   0  0  0  0  0  0  0  0  0  0  0  0
   -2.0728    3.4081   -0.3384 H   0  0  0  0  0  0  0  0  0  0  0  0
   -4.4491    1.1157   -2.0735 H   0  0  0  0  0  0  0  0  0  0  0  0
  1  2  1  0
  1  6  1  0
  1 24  1  0
  1 25  1  0
  2  3  1  0
  2  9  1  1
  2 11  1  0
  3  4  1  1
  3  5  1  0
  3  7  2  0
  6  8  2  0
  6 16  1  0
  8 10  1  0
  8 26  1  0
  9 27  1  0
 10 12  2  0
 10 28  1  0
 11 13  1  6
 11 15  1  0
 11 17  2  0
 12 14  1  0
 12 29  1  0
 14 16  2  0
 14 18  1  0
 16 30  1  0
 18 19  2  0
 18 23  1  0
 19 20  1  0
 19 31  1  0
 20 21  2  0
 20 32  1  0
 21 22  1  0
 21 33  1  0
 22 23  2  0
 22 34  1  0
 23 35  1  0
  4 36  1  0
  5 37  1  0
 13 38  1  0
 15 39  1  0
M  CHG  1   6   1
M  END
