
     RDKit          3D

 45 48  0  0  0  0  0  0  0  0999 V2000
    0.4323   -1.1464   -0.0218 C   0  0  0  0  0  0  0  0  0  0  0  0
   -1.4936    0.2802   -0.5159 N   0  0  0  0  0  0  0  0  0  0  0  0
    0.1744   -1.1621    1.1508 O   0  0  0  0  0  0  0  0  0  0  0  0
   -0.4407   -0.5129   -1.0836 C   0  0  0  0  0  0  0  0  0  0  0  0
   -7.4585   -1.8679    0.0488 C   0  0  0  0  0  0  0  0  0  0  0  0
   -0.2649    3.5707    0.3893 O   0  0  0  0  0  0  0  0  0  0  0  0
    6.2922   -1.8854   -0.4779 C   0  0  0  0  0  0  0  0  0  0  0  0
    5.7408   -2.1892    0.7739 C   0  0  0  0  0  0  0  0  0  0  0  0
   -4.7185   -1.5426   -0.4839 C   0  0  0  0  0  0  0  0  0  0  0  0
    5.8441   -0.8052   -1.2182 C   0  0  0  0  0  0  0  0  0  0  0  0
    4.7246   -1.4219    1.3225 C   0  0  0  0  0  0  0  0  0  0  0  0
   -3.3696   -1.3743   -0.7245 C   0  0  0  0  0  0  0  0  0  0  0  0
   -4.9185    0.6915    0.4327 C   0  0  0  0  0  0  0  0  0  0  0  0
    4.0809    1.1312   -1.1201 C   0  0  0  0  0  0  0  0  0  0  0  0
   -2.6681    1.9626    0.4105 C   0  0  0  0  0  0  0  0  0  0  0  0
    2.1411    2.4245   -0.0197 C   0  0  0  0  0  0  0  0  0  0  0  0
    0.8909    1.7284   -0.1301 O   0  0  0  0  0  0  0  0  0  0  0  0
    3.3153    0.5235    0.8991 O   0  0  0  0  0  0  0  0  0  0  0  0
   -5.4972   -0.5172    0.0938 C   0  0  0  0  0  0  0  0  0  0  0  0
    3.1990    1.4000   -0.1362 C   0  0  0  0  0  0  0  0  0  0  0  0
   -1.4286    1.5660   -0.0172 C   0  0  0  0  0  0  0  0  0  0  0  0
    4.8206   -0.0203   -0.6861 C   0  0  0  0  0  0  0  0  0  0  0  0
   -3.5533    0.8765    0.1920 C   0  0  0  0  0  0  0  0  0  0  0  0
    4.2921   -0.3468    0.5652 C   0  0  0  0  0  0  0  0  0  0  0  0
   -2.7856   -0.1572   -0.3820 C   0  0  0  0  0  0  0  0  0  0  0  0
    1.4943   -1.7177   -0.5696 O   0  0  0  0  0  0  0  0  0  0  0  0
    0.1610    0.0621   -1.7852 H   0  0  0  0  0  0  0  0  0  0  0  0
   -0.8888   -1.3151   -1.6737 H   0  0  0  0  0  0  0  0  0  0  0  0
   -8.5004   -1.7505    0.3376 H   0  0  0  0  0  0  0  0  0  0  0  0
   -7.4177   -2.1057   -1.0176 H   0  0  0  0  0  0  0  0  0  0  0  0
   -7.0330   -2.7033    0.6117 H   0  0  0  0  0  0  0  0  0  0  0  0
    6.1163   -3.0405    1.3260 H   0  0  0  0  0  0  0  0  0  0  0  0
   -5.1667   -2.4891   -0.7529 H   0  0  0  0  0  0  0  0  0  0  0  0
    6.2729   -0.5792   -2.1857 H   0  0  0  0  0  0  0  0  0  0  0  0
    4.2975   -1.6506    2.2900 H   0  0  0  0  0  0  0  0  0  0  0  0
   -2.8045   -2.1858   -1.1634 H   0  0  0  0  0  0  0  0  0  0  0  0
   -5.5148    1.4790    0.8771 H   0  0  0  0  0  0  0  0  0  0  0  0
    4.1818    1.6748   -2.0459 H   0  0  0  0  0  0  0  0  0  0  0  0
   -2.9063    2.9194    0.8467 H   0  0  0  0  0  0  0  0  0  0  0  0
    2.2447    3.1528   -0.8247 H   0  0  0  0  0  0  0  0  0  0  0  0
    2.1944    2.9515    0.9353 H   0  0  0  0  0  0  0  0  0  0  0  0
    2.0205   -2.1716    0.1054 H   0  0  0  0  0  0  0  0  0  0  0  0
   -6.8198   -0.6446    0.3474 O   0  0  0  0  0  0  0  0  0  0  0  0
   -0.2281    2.4010    0.0960 C   0  0  0  0  0  0  0  0  0  0  0  0
    7.0832   -2.5103   -0.8711 H   0  0  0  0  0  0  0  0  0  0  0  0
  4  1  1  0
  1  3  2  0
  1 26  1  0
 25  2  1  0
  2  4  1  0
  2 21  1  0
  4 27  1  0
  4 28  1  0
 43  5  1  0
  5 29  1  0
  5 30  1  0
  5 31  1  0
 44  6  2  0
 10  7  2  0
  8  7  1  0
  7 45  1  0
 11  8  2  0
  8 32  1  0
  9 19  2  0
  9 12  1  0
  9 33  1  0
 22 10  1  0
 10 34  1  0
 24 11  1  0
 11 35  1  0
 12 25  2  0
 12 36  1  0
 19 13  1  0
 13 23  2  0
 13 37  1  0
 20 14  2  0
 14 22  1  0
 14 38  1  0
 23 15  1  0
 15 21  2  0
 15 39  1  0
 17 16  1  0
 16 20  1  0
 16 40  1  0
 16 41  1  0
 43 19  1  0
 44 17  1  0
 20 18  1  0
 18 24  1  0
 21 44  1  0
 24 22  2  0
 25 23  1  0
 26 42  1  0
M  END
