
     RDKit          3D

 50 52  0  0  0  0  0  0  0  0999 V2000
    5.4609   -0.3338   -0.5096 C   0  0  0  0  0  0  0  0  0  0  0  0
    4.2000    1.2544    0.8229 C   0  0  0  0  0  0  0  0  0  0  0  0
    5.0563    2.4093    0.3313 C   0  0  0  0  0  0  0  0  0  0  0  0
   -0.5572   -0.5468    0.2854 N   0  0  0  0  0  0  0  0  0  0  0  0
    6.4535    1.9293   -0.0343 C   0  0  0  0  0  0  0  0  0  0  0  0
    3.1014   -0.7402   -0.0454 C   0  0  0  0  0  0  0  0  0  0  0  0
    1.7865   -0.2785    0.0849 C   0  0  0  0  0  0  0  0  0  0  0  0
    0.7018   -1.1472    0.1739 C   0  0  0  0  0  0  0  0  0  0  0  0
    0.9132   -2.5274    0.1212 C   0  0  0  0  0  0  0  0  0  0  0  0
    2.2142   -2.9838   -0.0163 C   0  0  0  0  0  0  0  0  0  0  0  0
    3.3008   -2.1263   -0.0913 C   0  0  0  0  0  0  0  0  0  0  0  0
   -1.7829   -1.1115    0.4470 C   0  0  0  0  0  0  0  0  0  0  0  0
   -2.9011   -0.0964    0.5687 C   0  0  0  0  0  0  0  0  0  0  0  0
   -4.2621   -0.6477    0.1697 C   0  0  0  0  0  0  0  0  0  0  0  0
   -5.3773    0.3801    0.2958 C   0  0  2  0  0  0  0  0  0  0  0  0
   -6.7621   -0.1891   -0.0373 C   0  0  0  0  0  0  0  0  0  0  0  0
   -7.6379    1.0236   -0.4149 C   0  0  0  0  0  0  0  0  0  0  0  0
   -6.6668    2.2138   -0.5549 C   0  0  0  0  0  0  0  0  0  0  0  0
   -5.2787    1.5814   -0.6441 C   0  0  0  0  0  0  0  0  0  0  0  0
   -1.9756   -2.3129    0.5056 O   0  0  0  0  0  0  0  0  0  0  0  0
    4.1465    0.1739   -0.1574 N   0  0  0  0  0  0  0  0  0  0  0  0
    6.3569    0.7819   -1.0293 C   0  0  0  0  0  0  0  0  0  0  0  0
    5.9467   -0.8252    0.3489 H   0  0  0  0  0  0  0  0  0  0  0  0
    5.3530   -1.0887   -1.2888 H   0  0  0  0  0  0  0  0  0  0  0  0
    4.6056    0.8798    1.7762 H   0  0  0  0  0  0  0  0  0  0  0  0
    3.1954    1.6150    1.0321 H   0  0  0  0  0  0  0  0  0  0  0  0
    4.5788    2.8649   -0.5414 H   0  0  0  0  0  0  0  0  0  0  0  0
    5.0979    3.1737    1.1101 H   0  0  0  0  0  0  0  0  0  0  0  0
   -0.5427    0.4617    0.2642 H   0  0  0  0  0  0  0  0  0  0  0  0
    7.0491    2.7471   -0.4453 H   0  0  0  0  0  0  0  0  0  0  0  0
    6.9693    1.5869    0.8698 H   0  0  0  0  0  0  0  0  0  0  0  0
    1.5938    0.7878    0.0899 H   0  0  0  0  0  0  0  0  0  0  0  0
    0.0979   -3.2274    0.1791 H   0  0  0  0  0  0  0  0  0  0  0  0
    2.3891   -4.0518   -0.0528 H   0  0  0  0  0  0  0  0  0  0  0  0
    4.2926   -2.5469   -0.1708 H   0  0  0  0  0  0  0  0  0  0  0  0
   -2.9283    0.2412    1.6112 H   0  0  0  0  0  0  0  0  0  0  0  0
   -2.6562    0.7893   -0.0230 H   0  0  0  0  0  0  0  0  0  0  0  0
   -4.2258   -1.0088   -0.8634 H   0  0  0  0  0  0  0  0  0  0  0  0
   -4.5020   -1.5137    0.7910 H   0  0  0  0  0  0  0  0  0  0  0  0
   -5.3937    0.7574    1.3271 H   0  0  0  0  0  0  0  0  0  0  0  0
   -6.6722   -0.8698   -0.8891 H   0  0  0  0  0  0  0  0  0  0  0  0
   -7.1781   -0.7711    0.7869 H   0  0  0  0  0  0  0  0  0  0  0  0
   -8.1698    0.8393   -1.3493 H   0  0  0  0  0  0  0  0  0  0  0  0
   -8.3990    1.2221    0.3409 H   0  0  0  0  0  0  0  0  0  0  0  0
   -6.8981    2.8499   -1.4105 H   0  0  0  0  0  0  0  0  0  0  0  0
   -6.7179    2.8488    0.3327 H   0  0  0  0  0  0  0  0  0  0  0  0
   -4.4812    2.2802   -0.3842 H   0  0  0  0  0  0  0  0  0  0  0  0
   -5.0828    1.2277   -1.6629 H   0  0  0  0  0  0  0  0  0  0  0  0
    7.3438    0.3658   -1.2427 H   0  0  0  0  0  0  0  0  0  0  0  0
    5.9542    1.1479   -1.9785 H   0  0  0  0  0  0  0  0  0  0  0  0
 19 18  1  0
 19 15  1  0
 18 17  1  0
  9 10  2  0
  9  8  1  0
 10 11  1  0
 15 14  1  0
 15 16  1  0
 14 13  1  0
 17 16  1  0
  4  8  1  0
  4 12  1  0
  8  7  2  0
 11  6  2  0
 13 12  1  0
 12 20  2  0
  7  6  1  0
  6 21  1  0
  1 21  1  0
  1 22  1  0
 21  2  1  0
  2  3  1  0
 22  5  1  0
  5  3  1  0
  1 23  1  0
  1 24  1  0
  2 25  1  0
  2 26  1  0
  3 27  1  0
  3 28  1  0
  4 29  1  0
  5 30  1  0
  5 31  1  0
  7 32  1  0
  9 33  1  0
 10 34  1  0
 11 35  1  0
 13 36  1  0
 13 37  1  0
 14 38  1  0
 14 39  1  0
 15 40  1  1
 16 41  1  0
 16 42  1  0
 17 43  1  0
 17 44  1  0
 18 45  1  0
 18 46  1  0
 19 47  1  0
 19 48  1  0
 22 49  1  0
 22 50  1  0
M  END
