
     RDKit          3D

 25 26  0  0  0  0  0  0  0  0999 V2000
    1.1845   -0.5826   -0.7385 C   0  0  0  0  0  0  0  0  0  0  0  0
   -1.2004    1.3825   -0.3874 C   0  0  0  0  0  0  0  0  0  0  0  0
   -1.1905   -0.0010   -0.2088 C   0  0  0  0  0  0  0  0  0  0  0  0
   -2.3355   -0.7116    0.2167 C   0  0  0  0  0  0  0  0  0  0  0  0
   -3.5182   -0.0068    0.4693 C   0  0  0  0  0  0  0  0  0  0  0  0
   -3.5304    1.3636    0.2976 C   0  0  0  0  0  0  0  0  0  0  0  0
   -2.3817    2.0510   -0.1282 C   0  0  0  0  0  0  0  0  0  0  0  0
   -1.9602   -2.0887    0.2880 C   0  0  0  0  0  0  0  0  0  0  0  0
   -0.6492   -2.1539   -0.0820 C   0  0  0  0  0  0  0  0  0  0  0  0
   -0.1793   -0.9051   -0.3900 N   0  0  0  0  0  0  0  0  0  0  0  0
    1.9534   -0.0350    0.4579 C   0  0  0  0  0  0  0  0  0  0  0  0
    3.3719    0.3215    0.1126 C   0  0  0  0  0  0  0  0  0  0  0  0
    3.8905    0.1207   -0.9574 O   0  0  0  0  0  0  0  0  0  0  0  0
    4.0024    0.8849    1.1355 O   0  0  0  0  0  0  0  0  0  0  0  0
    1.6576   -1.4892   -1.1132 H   0  0  0  0  0  0  0  0  0  0  0  0
    1.1804    0.1356   -1.5598 H   0  0  0  0  0  0  0  0  0  0  0  0
   -0.3202    1.9201   -0.7184 H   0  0  0  0  0  0  0  0  0  0  0  0
   -4.4098   -0.5273    0.7965 H   0  0  0  0  0  0  0  0  0  0  0  0
   -4.4371    1.9211    0.4950 H   0  0  0  0  0  0  0  0  0  0  0  0
   -2.4218    3.1250   -0.2540 H   0  0  0  0  0  0  0  0  0  0  0  0
   -2.5828   -2.9228    0.5700 H   0  0  0  0  0  0  0  0  0  0  0  0
    0.0021   -3.0110   -0.1595 H   0  0  0  0  0  0  0  0  0  0  0  0
    1.4593    0.8486    0.8707 H   0  0  0  0  0  0  0  0  0  0  0  0
    1.9698   -0.7737    1.2648 H   0  0  0  0  0  0  0  0  0  0  0  0
    4.9147    1.0976    0.8871 H   0  0  0  0  0  0  0  0  0  0  0  0
  6  5  2  0
  6  7  1  0
  5  4  1  0
  7  2  2  0
  4  8  1  0
  4  3  2  0
  8  9  2  0
  2  3  1  0
  3 10  1  0
  9 10  1  0
 10  1  1  0
  1 11  1  0
 11 12  1  0
 12 13  2  0
 12 14  1  0
  1 15  1  0
  1 16  1  0
  2 17  1  0
  5 18  1  0
  6 19  1  0
  7 20  1  0
  8 21  1  0
  9 22  1  0
 11 23  1  0
 11 24  1  0
 14 25  1  0
M  END
