
     RDKit          3D

 54 58  0  0  0  0  0  0  0  0999 V2000
    5.9006   -0.9728    0.7221 C   0  0  0  0  0  0  0  0  0  0  0  0
    6.6336   -2.1564    0.7068 C   0  0  0  0  0  0  0  0  0  0  0  0
    7.9462   -2.1752    0.2576 C   0  0  0  0  0  0  0  0  0  0  0  0
    8.5420   -0.9940   -0.1671 C   0  0  0  0  0  0  0  0  0  0  0  0
    7.8291    0.1985   -0.1608 C   0  0  0  0  0  0  0  0  0  0  0  0
    6.5114    0.2047    0.2735 C   0  0  0  0  0  0  0  0  0  0  0  0
    5.8438    1.3793    0.3151 O   0  0  0  0  0  0  0  0  0  0  0  0
    4.4285    1.3170    0.1754 C   0  0  0  0  0  0  0  0  0  0  0  0
    3.8196    0.2212    1.0016 C   0  0  0  0  0  0  0  0  0  0  0  0
    4.5384   -0.8797    1.2252 C   0  0  0  0  0  0  0  0  0  0  0  0
    2.4160    0.4238    1.4702 C   0  0  0  0  0  0  0  0  0  0  0  0
    1.5397    0.7154    0.3489 N   0  0  0  0  0  0  0  0  0  0  0  0
    1.3538   -0.4418   -0.5065 C   0  0  0  0  0  0  0  0  0  0  0  0
    0.5134   -0.0749   -1.7151 C   0  0  0  0  0  0  0  0  0  0  0  0
   -0.7595    0.4916   -1.3041 N   0  0  0  0  0  0  0  0  0  0  0  0
   -0.5989    1.6292   -0.4147 C   0  0  0  0  0  0  0  0  0  0  0  0
    0.2594    1.2417    0.7797 C   0  0  0  0  0  0  0  0  0  0  0  0
   -1.9107   -0.1764   -1.5157 C   0  0  0  0  0  0  0  0  0  0  0  0
   -1.9575   -1.2971   -2.0067 O   0  0  0  0  0  0  0  0  0  0  0  0
   -3.1938    0.5183   -1.1758 C   0  0  0  0  0  0  0  0  0  0  0  0
   -3.5036    1.7667   -1.7056 C   0  0  0  0  0  0  0  0  0  0  0  0
   -4.7473    2.3300   -1.4575 C   0  0  0  0  0  0  0  0  0  0  0  0
   -5.6774    1.6586   -0.6826 C   0  0  0  0  0  0  0  0  0  0  0  0
   -5.3792    0.4052   -0.1447 C   0  0  0  0  0  0  0  0  0  0  0  0
   -4.1327   -0.1599   -0.4087 C   0  0  0  0  0  0  0  0  0  0  0  0
   -6.3744   -0.2832    0.6725 C   0  0  0  0  0  0  0  0  0  0  0  0
   -6.3642   -1.6128    0.9055 N   0  0  0  0  0  0  0  0  0  0  0  0
   -7.3624   -2.0221    1.6766 N   0  0  0  0  0  0  0  0  0  0  0  0
   -8.0432   -0.9263    1.9610 C   0  0  0  0  0  0  0  0  0  0  0  0
   -7.4727    0.2028    1.3571 C   0  0  0  0  0  0  0  0  0  0  0  0
    6.1647   -3.0696    1.0537 H   0  0  0  0  0  0  0  0  0  0  0  0
    8.5028   -3.1026    0.2428 H   0  0  0  0  0  0  0  0  0  0  0  0
    9.5672   -0.9976   -0.5142 H   0  0  0  0  0  0  0  0  0  0  0  0
    8.2917    1.1213   -0.4877 H   0  0  0  0  0  0  0  0  0  0  0  0
    4.0520    2.2930    0.4827 H   0  0  0  0  0  0  0  0  0  0  0  0
    4.1676    1.1882   -0.8842 H   0  0  0  0  0  0  0  0  0  0  0  0
    4.1268   -1.7162    1.7792 H   0  0  0  0  0  0  0  0  0  0  0  0
    2.0785   -0.4485    2.0523 H   0  0  0  0  0  0  0  0  0  0  0  0
    2.3915    1.2864    2.1446 H   0  0  0  0  0  0  0  0  0  0  0  0
    2.3245   -0.8021   -0.8525 H   0  0  0  0  0  0  0  0  0  0  0  0
    0.8744   -1.2743    0.0363 H   0  0  0  0  0  0  0  0  0  0  0  0
    1.0436    0.6721   -2.3135 H   0  0  0  0  0  0  0  0  0  0  0  0
    0.3454   -0.9472   -2.3403 H   0  0  0  0  0  0  0  0  0  0  0  0
   -0.1232    2.4476   -0.9620 H   0  0  0  0  0  0  0  0  0  0  0  0
   -1.5622    1.9831   -0.0585 H   0  0  0  0  0  0  0  0  0  0  0  0
   -0.2975    0.5175    1.3989 H   0  0  0  0  0  0  0  0  0  0  0  0
    0.4244    2.1320    1.3907 H   0  0  0  0  0  0  0  0  0  0  0  0
   -2.7854    2.2961   -2.3192 H   0  0  0  0  0  0  0  0  0  0  0  0
   -4.9949    3.2956   -1.8775 H   0  0  0  0  0  0  0  0  0  0  0  0
   -6.6478    2.1033   -0.5049 H   0  0  0  0  0  0  0  0  0  0  0  0
   -3.8693   -1.1260    0.0038 H   0  0  0  0  0  0  0  0  0  0  0  0
   -5.7198   -2.2945    0.5370 H   0  0  0  0  0  0  0  0  0  0  0  0
   -8.9188   -0.9758    2.5901 H   0  0  0  0  0  0  0  0  0  0  0  0
   -7.8034    1.2260    1.4248 H   0  0  0  0  0  0  0  0  0  0  0  0
  4  5  2  0
  4  3  1  0
  5  6  1  0
  3  2  2  0
  6  7  1  0
  6  1  2  0
  2  1  1  0
  7  8  1  0
  1 10  1  0
  8  9  1  0
 10  9  2  0
  9 11  1  0
 11 12  1  0
 12 17  1  0
 12 13  1  0
 17 16  1  0
 13 14  1  0
 16 15  1  0
 14 15  1  0
 15 18  1  0
 18 20  1  0
 18 19  2  0
 21 20  2  0
 21 22  1  0
 20 25  1  0
 22 23  2  0
 25 24  2  0
 23 24  1  0
 24 26  1  0
 26 27  1  0
 26 30  2  0
 27 28  1  0
 30 29  1  0
 28 29  2  0
  2 31  1  0
  3 32  1  0
  4 33  1  0
  5 34  1  0
  8 35  1  0
  8 36  1  0
 10 37  1  0
 11 38  1  0
 11 39  1  0
 13 40  1  0
 13 41  1  0
 14 42  1  0
 14 43  1  0
 16 44  1  0
 16 45  1  0
 17 46  1  0
 17 47  1  0
 21 48  1  0
 22 49  1  0
 23 50  1  0
 25 51  1  0
 27 52  1  0
 29 53  1  0
 30 54  1  0
M  END
