
     RDKit          3D

 37 39  0  0  0  0  0  0  0  0999 V2000
    0.7530   -0.1481    6.7239 P   0  0  2  0  0  0  0  0  0  0  0  0
    0.5597   -1.0715    7.8599 O   0  0  0  0  0  0  0  0  0  0  0  0
    2.2502    1.2878    6.9693 S   0  0  0  0  0  0  0  0  0  0  0  0
   -0.8159    1.1604    6.2701 S   0  0  0  0  0  0  0  0  0  0  0  0
    1.0518   -0.9686    5.3866 O   0  0  0  0  0  0  0  0  0  0  0  0
    1.4101   -0.3655    4.1417 C   0  0  0  0  0  0  0  0  0  0  0  0
    0.6468   -1.0391    3.0328 C   0  0  1  0  0  0  0  0  0  0  0  0
   -0.7468   -0.7645    3.1548 O   0  0  0  0  0  0  0  0  0  0  0  0
    1.0269   -0.5233    1.6396 C   0  0  1  0  0  0  0  0  0  0  0  0
    2.2001   -1.0551    1.1171 O   0  0  0  0  0  0  0  0  0  0  0  0
   -0.2500   -0.8401    0.8500 C   0  0  1  0  0  0  0  0  0  0  0  0
   -0.2634   -2.1672    0.3943 O   0  0  0  0  0  0  0  0  0  0  0  0
   -1.3320   -0.5543    1.8995 C   0  0  2  0  0  0  0  0  0  0  0  0
   -1.8179    0.8131    1.8265 N   0  0  0  0  0  0  0  0  0  0  0  0
   -1.4262    1.9075    2.5494 C   0  0  0  0  0  0  0  0  0  0  0  0
   -2.0600    2.9946    2.2213 N   0  0  0  0  0  0  0  0  0  0  0  0
   -2.9162    2.6044    1.2258 C   0  0  0  0  0  0  0  0  0  0  0  0
   -3.8772    3.2906    0.4598 C   0  0  0  0  0  0  0  0  0  0  0  0
   -4.1119    4.5961    0.5973 N   0  0  0  0  0  0  0  0  0  0  0  0
   -4.5673    2.5924   -0.4491 N   0  0  0  0  0  0  0  0  0  0  0  0
   -4.3241    1.2926   -0.5937 C   0  0  0  0  0  0  0  0  0  0  0  0
   -3.4561    0.5416    0.0626 N   0  0  0  0  0  0  0  0  0  0  0  0
   -2.7815    1.2504    0.9652 C   0  0  0  0  0  0  0  0  0  0  0  0
    3.0302    0.4953    7.7183 H   0  0  0  0  0  0  0  0  0  0  0  0
   -1.5745    0.2332    5.6657 H   0  0  0  0  0  0  0  0  0  0  0  0
    1.2109    0.7109    4.1451 H   0  0  0  0  0  0  0  0  0  0  0  0
    2.4805   -0.5067    3.9842 H   0  0  0  0  0  0  0  0  0  0  0  0
    0.8168   -2.1232    3.0946 H   0  0  0  0  0  0  0  0  0  0  0  0
    1.1603    0.5639    1.6764 H   0  0  0  0  0  0  0  0  0  0  0  0
    2.0222   -1.9527    0.8106 H   0  0  0  0  0  0  0  0  0  0  0  0
   -0.3625   -0.2055   -0.0298 H   0  0  0  0  0  0  0  0  0  0  0  0
   -0.3916   -2.7858    1.1226 H   0  0  0  0  0  0  0  0  0  0  0  0
   -2.1989   -1.2074    1.7634 H   0  0  0  0  0  0  0  0  0  0  0  0
   -0.6750    1.8458    3.3205 H   0  0  0  0  0  0  0  0  0  0  0  0
   -3.6647    5.1279    1.3231 H   0  0  0  0  0  0  0  0  0  0  0  0
   -4.8537    5.0335    0.0784 H   0  0  0  0  0  0  0  0  0  0  0  0
   -4.9169    0.7883   -1.3491 H   0  0  0  0  0  0  0  0  0  0  0  0
  1  2  2  0
  1  3  1  0
  1  4  1  0
  1  5  1  6
  3 24  1  0
  4 25  1  0
  5  6  1  0
  6  7  1  0
  6 26  1  0
  6 27  1  0
  7  8  1  0
  7  9  1  0
  7 28  1  6
  8 13  1  0
  9 10  1  0
  9 11  1  0
  9 29  1  1
 10 30  1  0
 11 12  1  0
 11 13  1  0
 11 31  1  6
 12 32  1  0
 13 14  1  0
 13 33  1  6
 14 15  1  0
 14 23  1  0
 15 16  2  0
 15 34  1  0
 16 17  1  0
 17 18  1  0
 17 23  2  0
 18 19  1  0
 18 20  2  0
 19 35  1  0
 19 36  1  0
 20 21  1  0
 21 22  2  0
 21 37  1  0
 22 23  1  0
M  END
