
     RDKit          3D

 61 66  0  0  0  0  0  0  0  0999 V2000
    4.1735   -0.8289    2.3790 O   0  0  0  0  0  0  0  0  0  0  0  0
    4.7389   -0.6264    1.3244 C   0  0  0  0  0  0  0  0  0  0  0  0
    6.0545    0.0305    1.2508 C   0  0  0  0  0  0  0  0  0  0  0  0
    6.6499    0.2789   -0.0009 C   0  0  0  0  0  0  0  0  0  0  0  0
    6.6984    0.4071    2.4069 C   0  0  0  0  0  0  0  0  0  0  0  0
    7.9505    1.0390    2.3501 C   0  0  0  0  0  0  0  0  0  0  0  0
    8.5437    1.2927    1.1408 C   0  0  0  0  0  0  0  0  0  0  0  0
    7.9090    0.9195   -0.0642 C   0  0  0  0  0  0  0  0  0  0  0  0
    8.4855    1.1639   -1.3299 C   0  0  0  0  0  0  0  0  0  0  0  0
    7.8362    0.7871   -2.4768 C   0  0  0  0  0  0  0  0  0  0  0  0
    6.5850    0.1545   -2.4086 C   0  0  0  0  0  0  0  0  0  0  0  0
    5.9977   -0.0987   -1.1905 C   0  0  0  0  0  0  0  0  0  0  0  0
    4.6845   -0.7615   -1.1329 C   0  0  0  0  0  0  0  0  0  0  0  0
    4.0761   -1.0812   -2.1333 O   0  0  0  0  0  0  0  0  0  0  0  0
    4.1543   -1.0134    0.1255 N   0  0  0  0  0  0  0  0  0  0  0  0
    2.8485   -1.6678    0.1884 C   0  0  0  0  0  0  0  0  0  0  0  0
    1.7020   -0.6631    0.1504 C   0  0  0  0  0  0  0  0  0  0  0  0
    0.3710   -1.3997    0.1751 C   0  0  0  0  0  0  0  0  0  0  0  0
   -0.9573   -0.1603    0.0970 S   0  0  0  0  0  0  0  0  0  0  0  0
   -2.3373   -1.2103    0.0308 C   0  0  0  0  0  0  0  0  0  0  0  0
   -2.3612   -2.5125    0.0800 N   0  0  0  0  0  0  0  0  0  0  0  0
   -3.6588   -2.8934    0.0180 N   0  0  0  0  0  0  0  0  0  0  0  0
   -4.3997   -1.8262   -0.0718 C   0  0  0  0  0  0  0  0  0  0  0  0
   -5.8581   -1.8422   -0.1548 C   0  0  0  0  0  0  0  0  0  0  0  0
   -6.5537   -2.9016    0.4245 C   0  0  0  0  0  0  0  0  0  0  0  0
   -7.9338   -2.9309    0.3217 C   0  0  0  0  0  0  0  0  0  0  0  0
   -8.6447   -1.9983   -0.3027 N   0  0  0  0  0  0  0  0  0  0  0  0
   -7.9786   -0.9952   -0.8595 C   0  0  0  0  0  0  0  0  0  0  0  0
   -6.5986   -0.8674   -0.8185 C   0  0  0  0  0  0  0  0  0  0  0  0
   -3.5990   -0.7177   -0.0711 N   0  0  0  0  0  0  0  0  0  0  0  0
   -3.9563    0.6565   -0.0816 C   0  0  0  0  0  0  0  0  0  0  0  0
   -3.7161    1.4228   -1.2169 C   0  0  0  0  0  0  0  0  0  0  0  0
   -4.0684    2.7564   -1.2306 C   0  0  0  0  0  0  0  0  0  0  0  0
   -4.6742    3.3380   -0.1119 C   0  0  0  0  0  0  0  0  0  0  0  0
   -4.9905    4.6356   -0.2192 O   0  0  0  0  0  0  0  0  0  0  0  0
   -5.6211    5.2771    0.8744 C   0  0  0  0  0  0  0  0  0  0  0  0
   -4.9119    2.5628    1.0228 C   0  0  0  0  0  0  0  0  0  0  0  0
   -4.5450    1.2253    1.0338 C   0  0  0  0  0  0  0  0  0  0  0  0
    6.2405    0.2172    3.3681 H   0  0  0  0  0  0  0  0  0  0  0  0
    8.4425    1.3253    3.2689 H   0  0  0  0  0  0  0  0  0  0  0  0
    9.5075    1.7848    1.0979 H   0  0  0  0  0  0  0  0  0  0  0  0
    9.4485    1.6561   -1.3836 H   0  0  0  0  0  0  0  0  0  0  0  0
    8.2839    0.9761   -3.4425 H   0  0  0  0  0  0  0  0  0  0  0  0
    6.0834   -0.1335   -3.3224 H   0  0  0  0  0  0  0  0  0  0  0  0
    2.7741   -2.3598   -0.6472 H   0  0  0  0  0  0  0  0  0  0  0  0
    2.8078   -2.2582    1.1006 H   0  0  0  0  0  0  0  0  0  0  0  0
    1.7750    0.0119    1.0053 H   0  0  0  0  0  0  0  0  0  0  0  0
    1.7738   -0.0558   -0.7541 H   0  0  0  0  0  0  0  0  0  0  0  0
    0.2759   -2.0685   -0.6803 H   0  0  0  0  0  0  0  0  0  0  0  0
    0.2593   -1.9863    1.0869 H   0  0  0  0  0  0  0  0  0  0  0  0
   -6.0324   -3.6874    0.9527 H   0  0  0  0  0  0  0  0  0  0  0  0
   -6.1340   -0.0280   -1.3141 H   0  0  0  0  0  0  0  0  0  0  0  0
   -8.4891   -3.7464    0.7707 H   0  0  0  0  0  0  0  0  0  0  0  0
   -8.5682   -0.2457   -1.3740 H   0  0  0  0  0  0  0  0  0  0  0  0
   -3.2671    0.9729   -2.0928 H   0  0  0  0  0  0  0  0  0  0  0  0
   -4.7264    0.6278    1.9179 H   0  0  0  0  0  0  0  0  0  0  0  0
   -3.8849    3.3580   -2.1114 H   0  0  0  0  0  0  0  0  0  0  0  0
   -5.3747    2.9785    1.9064 H   0  0  0  0  0  0  0  0  0  0  0  0
   -6.5791    4.8133    1.1204 H   0  0  0  0  0  0  0  0  0  0  0  0
   -4.9879    5.2784    1.7649 H   0  0  0  0  0  0  0  0  0  0  0  0
   -5.7970    6.3045    0.5673 H   0  0  0  0  0  0  0  0  0  0  0  0
  1  2  2  0
  2  3  1  0
  2 15  1  0
  3  4  1  0
  3  5  2  0
  4  8  1  0
  4 12  2  0
  5  6  1  0
  6  7  2  0
  7  8  1  0
  8  9  2  0
  9 10  1  0
 10 11  2  0
 11 12  1  0
 12 13  1  0
 13 14  2  0
 13 15  1  0
 15 16  1  0
 16 17  1  0
 17 18  1  0
 19 20  1  0
 19 18  1  0
 20 21  2  0
 20 30  1  0
 21 22  1  0
 22 23  2  0
 23 24  1  0
 23 30  1  0
 24 25  2  0
 24 29  1  0
 25 26  1  0
 26 27  2  0
 27 28  1  0
 28 29  2  0
 30 31  1  0
 31 32  2  0
 31 38  1  0
 32 33  1  0
 33 34  2  0
 34 35  1  0
 34 37  1  0
 35 36  1  0
 37 38  2  0
  5 39  1  0
  6 40  1  0
  7 41  1  0
  9 42  1  0
 10 43  1  0
 11 44  1  0
 16 45  1  0
 16 46  1  0
 17 47  1  0
 17 48  1  0
 18 49  1  0
 18 50  1  0
 25 51  1  0
 29 52  1  0
 26 53  1  0
 28 54  1  0
 32 55  1  0
 38 56  1  0
 33 57  1  0
 37 58  1  0
 36 59  1  0
 36 60  1  0
 36 61  1  0
M  END
