
     RDKit          3D

 63 68  0  0  0  0  0  0  0  0999 V2000
    0.0430    2.0744   -0.7092 C   0  0  0  0  0  0  0  0  0  0  0  0
   -1.3192    1.8479   -0.0611 C   0  0  1  0  0  0  0  0  0  0  0  0
   -1.5814    2.7968    1.1032 C   0  0  0  0  0  0  0  0  0  0  0  0
   -2.9962    2.5977    1.6295 C   0  0  0  0  0  0  0  0  0  0  0  0
   -2.4033    2.0006   -1.1229 C   0  0  0  0  0  0  0  0  0  0  0  0
   -6.0114    1.0981   -1.1014 C   0  0  0  0  0  0  0  0  0  0  0  0
   -7.2653    1.5662   -1.4774 C   0  0  0  0  0  0  0  0  0  0  0  0
    1.7010    4.2810    0.5958 N   0  0  0  0  0  0  0  0  0  0  0  0
    2.5037   -1.7388    0.3706 C   0  0  0  0  0  0  0  0  0  0  0  0
    2.5732   -2.6573    1.4309 C   0  0  0  0  0  0  0  0  0  0  0  0
    3.6776   -3.4643    1.4956 C   0  0  0  0  0  0  0  0  0  0  0  0
    4.6597   -2.4837   -0.4810 C   0  0  0  0  0  0  0  0  0  0  0  0
   -8.1409   -2.9792    0.8552 O   0  0  0  0  0  0  0  0  0  0  0  0
    5.6557   -4.2754    0.8539 O   0  0  0  0  0  0  0  0  0  0  0  0
   -8.4270    0.9052   -1.0976 C   0  0  0  0  0  0  0  0  0  0  0  0
   -5.6548   -2.6822    1.0203 O   0  0  0  0  0  0  0  0  0  0  0  0
    5.2857   -4.8802    2.0903 C   0  0  0  0  0  0  0  0  0  0  0  0
    3.5281   -1.6647   -0.5681 C   0  0  0  0  0  0  0  0  0  0  0  0
    4.6982   -3.3760    0.5617 C   0  0  0  0  0  0  0  0  0  0  0  0
    1.8576    2.9735    0.7815 C   0  0  0  0  0  0  0  0  0  0  0  0
   -7.0991   -0.6942    0.0541 C   0  0  0  0  0  0  0  0  0  0  0  0
    3.6873    3.2195    2.2714 C   0  0  0  0  0  0  0  0  0  0  0  0
   -5.9306   -0.0459   -0.3157 C   0  0  0  0  0  0  0  0  0  0  0  0
    1.6849    0.8013    0.7323 C   0  0  0  0  0  0  0  0  0  0  0  0
   -4.0139    2.7152    0.5089 C   0  0  0  0  0  0  0  0  0  0  0  0
    3.5426    4.5373    2.0945 N   0  0  0  0  0  0  0  0  0  0  0  0
    2.5827    4.9821    1.2872 C   0  0  0  0  0  0  0  0  0  0  0  0
    3.9725   -4.4237    2.3963 O   0  0  0  0  0  0  0  0  0  0  0  0
    2.8052    2.3632    1.5880 C   0  0  0  0  0  0  0  0  0  0  0  0
   -8.3574   -0.2417   -0.3269 C   0  0  0  0  0  0  0  0  0  0  0  0
   -7.1635   -1.4909    2.4901 F   0  0  0  0  0  0  0  0  0  0  0  0
    3.4546   -0.2976   -2.1581 I   0  0  0  0  0  0  0  0  0  0  0  0
    1.1436    1.9514    0.2248 N   0  0  0  0  0  0  0  0  0  0  0  0
    2.6747    1.0007    1.5513 N   0  0  0  0  0  0  0  0  0  0  0  0
   -3.7203    1.7747   -0.5605 N   0  0  0  0  0  0  0  0  0  0  0  0
    1.0396   -0.7583    0.2594 S   0  0  0  0  0  0  0  0  0  0  0  0
    0.2067    1.3678   -1.5261 H   0  0  0  0  0  0  0  0  0  0  0  0
    0.0974    3.0788   -1.1311 H   0  0  0  0  0  0  0  0  0  0  0  0
   -1.3750    0.8173    0.3117 H   0  0  0  0  0  0  0  0  0  0  0  0
   -0.8567    2.6360    1.9049 H   0  0  0  0  0  0  0  0  0  0  0  0
   -1.4502    3.8309    0.7638 H   0  0  0  0  0  0  0  0  0  0  0  0
   -3.0812    1.6083    2.0883 H   0  0  0  0  0  0  0  0  0  0  0  0
   -3.2222    3.3322    2.4048 H   0  0  0  0  0  0  0  0  0  0  0  0
   -2.3222    3.0034   -1.5812 H   0  0  0  0  0  0  0  0  0  0  0  0
   -2.2377    1.2727   -1.9215 H   0  0  0  0  0  0  0  0  0  0  0  0
   -4.3805    1.2261   -2.4442 H   0  0  0  0  0  0  0  0  0  0  0  0
   -4.9928    2.7897   -1.9323 H   0  0  0  0  0  0  0  0  0  0  0  0
   -7.3391    2.4635   -2.0799 H   0  0  0  0  0  0  0  0  0  0  0  0
    1.7814   -2.7147    2.1647 H   0  0  0  0  0  0  0  0  0  0  0  0
    5.4648   -2.4287   -1.1999 H   0  0  0  0  0  0  0  0  0  0  0  0
   -9.3919    1.2871   -1.4012 H   0  0  0  0  0  0  0  0  0  0  0  0
    5.2847   -5.9650    1.9830 H   0  0  0  0  0  0  0  0  0  0  0  0
    5.9794   -4.5687    2.8757 H   0  0  0  0  0  0  0  0  0  0  0  0
   -4.9578   -0.4059   -0.0075 H   0  0  0  0  0  0  0  0  0  0  0  0
   -5.0151    2.5120    0.8952 H   0  0  0  0  0  0  0  0  0  0  0  0
   -4.0248    3.7514    0.1261 H   0  0  0  0  0  0  0  0  0  0  0  0
    2.5214    6.0605    1.1865 H   0  0  0  0  0  0  0  0  0  0  0  0
   -9.2598   -0.7614   -0.0362 H   0  0  0  0  0  0  0  0  0  0  0  0
    5.3033    3.4105    3.4910 H   0  0  0  0  0  0  0  0  0  0  0  0
    4.8351    1.7857    3.1615 H   0  0  0  0  0  0  0  0  0  0  0  0
   -4.7504    1.7763   -1.5731 C   0  0  0  0  0  0  0  0  0  0  0  0
    4.6399    2.7690    3.0920 N   0  0  0  0  0  0  0  0  0  0  0  0
   -6.9868   -2.1398    1.0356 S   0  0  1  0  0  0  0  0  0  0  0  0
 32 18  1  0
 36  9  1  0
 36 24  1  0
  9 18  1  0
  9 10  2  0
 18 12  2  0
 34 24  2  0
 34 29  1  0
 24 33  1  0
  4  3  1  0
  4 25  1  0
 10 11  1  0
  3  2  1  0
 12 19  1  0
 62 22  1  0
 19 11  2  0
 19 14  1  0
 11 28  1  0
 29 22  2  0
 29 20  1  0
 25 35  1  0
 22 26  1  0
 33 20  1  0
 33  1  1  0
 28 17  1  0
 14 17  1  0
  2  1  1  0
  2  5  1  0
 20  8  2  0
 26 27  2  0
 35  5  1  0
 35 61  1  0
  8 27  1  0
 61  6  1  0
  6  7  2  0
  6 23  1  0
  7 15  1  0
 23 21  2  0
 15 30  2  0
 21 30  1  0
 21 63  1  0
 13 63  2  0
 63 31  1  1
 63 16  2  0
  1 37  1  0
  1 38  1  0
  2 39  1  1
  3 40  1  0
  3 41  1  0
  4 42  1  0
  4 43  1  0
  5 44  1  0
  5 45  1  0
 61 46  1  0
 61 47  1  0
  7 48  1  0
 10 49  1  0
 12 50  1  0
 15 51  1  0
 17 52  1  0
 17 53  1  0
 23 54  1  0
 25 55  1  0
 25 56  1  0
 27 57  1  0
 30 58  1  0
 62 59  1  0
 62 60  1  0
M  END
