
     RDKit          3D

 60 63  0  0  0  0  0  0  0  0999 V2000
    0.6607    1.3281    0.6831 C   0  0  0  0  0  0  0  0  0  0  0  0
    3.8214   -0.7552    0.6343 C   0  0  0  0  0  0  0  0  0  0  0  0
    8.1779   -0.0733   -1.4484 C   0  0  0  0  0  0  0  0  0  0  0  0
    6.5049   -1.5690    0.2923 C   0  0  0  0  0  0  0  0  0  0  0  0
    4.2719    1.3437   -0.4195 C   0  0  0  0  0  0  0  0  0  0  0  0
    2.9635    1.7291   -0.1984 C   0  0  0  0  0  0  0  0  0  0  0  0
   -0.3143   -0.6876   -0.5018 C   0  0  0  0  0  0  0  0  0  0  0  0
   -4.4229   -1.5194    0.4984 C   0  0  0  0  0  0  0  0  0  0  0  0
   -3.8446   -3.4107    1.8027 C   0  0  0  0  0  0  0  0  0  0  0  0
   -5.8576    2.1253   -2.2530 C   0  0  0  0  0  0  0  0  0  0  0  0
   -5.1042    0.3512   -0.8748 C   0  0  0  0  0  0  0  0  0  0  0  0
   -3.9088    1.0029   -0.5753 C   0  0  0  0  0  0  0  0  0  0  0  0
   -2.9771    0.3904    0.2552 C   0  0  0  0  0  0  0  0  0  0  0  0
   -1.7224    1.0997    0.5929 C   0  0  0  0  0  0  0  0  0  0  0  0
   -1.8031    2.3339    1.2295 C   0  0  0  0  0  0  0  0  0  0  0  0
    0.4456    2.5497    1.3188 C   0  0  0  0  0  0  0  0  0  0  0  0
    2.0488    0.8892    0.4382 C   0  0  0  0  0  0  0  0  0  0  0  0
    2.5133   -0.3544    0.8550 C   0  0  0  0  0  0  0  0  0  0  0  0
    4.7419    0.0847   -0.0104 C   0  0  0  0  0  0  0  0  0  0  0  0
    6.6678    0.0480   -1.5030 C   0  0  0  0  0  0  0  0  0  0  0  0
    8.0203   -1.6555    0.3072 C   0  0  0  0  0  0  0  0  0  0  0  0
   -0.4579    0.5816    0.2847 C   0  0  0  0  0  0  0  0  0  0  0  0
   -3.2287   -0.8668    0.7934 C   0  0  0  0  0  0  0  0  0  0  0  0
   -5.3603   -0.9157   -0.3450 C   0  0  0  0  0  0  0  0  0  0  0  0
   -7.6018   -1.2865    0.2020 C   0  0  0  0  0  0  0  0  0  0  0  0
   -0.7493    3.0548    1.5826 N   0  0  0  0  0  0  0  0  0  0  0  0
    6.0668   -0.2812   -0.2146 N   0  0  0  0  0  0  0  0  0  0  0  0
    8.5441   -1.4070   -1.0200 N   0  0  0  0  0  0  0  0  0  0  0  0
   -4.7642   -2.7289    0.9730 O   0  0  0  0  0  0  0  0  0  0  0  0
   -6.5085   -1.5690   -0.6619 O   0  0  0  0  0  0  0  0  0  0  0  0
    4.1093   -1.7412    0.9695 H   0  0  0  0  0  0  0  0  0  0  0  0
    8.5764    0.1144   -2.4470 H   0  0  0  0  0  0  0  0  0  0  0  0
    8.5733    0.7122   -0.7849 H   0  0  0  0  0  0  0  0  0  0  0  0
    6.0963   -2.3994   -0.3032 H   0  0  0  0  0  0  0  0  0  0  0  0
    6.1515   -1.6955    1.3161 H   0  0  0  0  0  0  0  0  0  0  0  0
    4.9331    2.0471   -0.9065 H   0  0  0  0  0  0  0  0  0  0  0  0
    2.6476    2.7075   -0.5404 H   0  0  0  0  0  0  0  0  0  0  0  0
   -0.2774   -1.5667    0.1439 H   0  0  0  0  0  0  0  0  0  0  0  0
   -1.1550   -0.8244   -1.1800 H   0  0  0  0  0  0  0  0  0  0  0  0
    0.6027   -0.6818   -1.0884 H   0  0  0  0  0  0  0  0  0  0  0  0
   -3.6305   -2.8567    2.7199 H   0  0  0  0  0  0  0  0  0  0  0  0
   -4.3113   -4.3564    2.0661 H   0  0  0  0  0  0  0  0  0  0  0  0
   -2.9028   -3.6158    1.2872 H   0  0  0  0  0  0  0  0  0  0  0  0
   -5.7415    2.9066   -1.4976 H   0  0  0  0  0  0  0  0  0  0  0  0
   -4.9829    2.1372   -2.9080 H   0  0  0  0  0  0  0  0  0  0  0  0
   -6.7433    2.3384   -2.8460 H   0  0  0  0  0  0  0  0  0  0  0  0
   -3.6848    1.9755   -0.9914 H   0  0  0  0  0  0  0  0  0  0  0  0
   -2.7779    2.7485    1.4665 H   0  0  0  0  0  0  0  0  0  0  0  0
    1.3004    3.1418    1.6316 H   0  0  0  0  0  0  0  0  0  0  0  0
    1.8469   -1.0359    1.3701 H   0  0  0  0  0  0  0  0  0  0  0  0
    6.4221    1.0680   -1.7875 H   0  0  0  0  0  0  0  0  0  0  0  0
    6.2757   -0.6137   -2.2889 H   0  0  0  0  0  0  0  0  0  0  0  0
    8.4052   -0.9458    1.0566 H   0  0  0  0  0  0  0  0  0  0  0  0
    8.3051   -2.6573    0.6329 H   0  0  0  0  0  0  0  0  0  0  0  0
   -2.4993   -1.3181    1.4521 H   0  0  0  0  0  0  0  0  0  0  0  0
   -7.3950   -1.5921    1.2305 H   0  0  0  0  0  0  0  0  0  0  0  0
   -7.8603   -0.2249    0.1962 H   0  0  0  0  0  0  0  0  0  0  0  0
   -8.4552   -1.8540   -0.1648 H   0  0  0  0  0  0  0  0  0  0  0  0
    9.5509   -1.5034   -1.0166 H   0  0  0  0  0  0  0  0  0  0  0  0
   -6.0628    0.8527   -1.6710 O   0  0  0  0  0  0  0  0  0  0  0  0
 21 28  1  0
 21  4  1  0
 28  3  1  0
  4 27  1  0
  3 20  1  0
 27 20  1  0
 27 19  1  0
  5 19  1  0
  5  6  2  0
 19  2  2  0
  6 17  1  0
  2 18  1  0
 17 18  2  0
 17  1  1  0
  7 22  1  0
  1 22  1  0
  1 16  2  0
 22 14  2  0
 16 26  1  0
 26 15  2  0
 14 15  1  0
 14 13  1  0
  9 29  1  0
 23 13  1  0
 23  8  2  0
 13 12  2  0
  8 29  1  0
  8 24  1  0
 12 11  1  0
 24 11  2  0
 24 30  1  0
 11 60  1  0
 25 30  1  0
 10 60  1  0
  2 31  1  0
  3 32  1  0
  3 33  1  0
  4 34  1  0
  4 35  1  0
  5 36  1  0
  6 37  1  0
  7 38  1  0
  7 39  1  0
  7 40  1  0
  9 41  1  0
  9 42  1  0
  9 43  1  0
 10 44  1  0
 10 45  1  0
 10 46  1  0
 12 47  1  0
 15 48  1  0
 16 49  1  0
 18 50  1  0
 20 51  1  0
 20 52  1  0
 21 53  1  0
 21 54  1  0
 23 55  1  0
 25 56  1  0
 25 57  1  0
 25 58  1  0
 28 59  1  0
M  END
