
     RDKit          3D

 52 56  0  0  0  0  0  0  0  0999 V2000
   -0.2980   -1.8081   -0.5168 C   0  0  0  0  0  0  0  0  0  0  0  0
    1.0526   -1.8109   -0.1650 C   0  0  0  0  0  0  0  0  0  0  0  0
    1.7174   -3.0528   -0.3007 C   0  0  0  0  0  0  0  0  0  0  0  0
    1.0105   -4.1138   -0.6990 N   0  0  0  0  0  0  0  0  0  0  0  0
   -1.0099   -2.8622   -0.9251 N   0  0  0  0  0  0  0  0  0  0  0  0
   -7.5085    0.5369    1.1954 C   0  0  0  0  0  0  0  0  0  0  0  0
   -6.4258    0.8697    0.5006 C   0  0  0  0  0  0  0  0  0  0  0  0
   -4.9651   -0.4869    1.7587 O   0  0  0  0  0  0  0  0  0  0  0  0
   -3.9938    1.0308    0.4006 N   0  0  0  0  0  0  0  0  0  0  0  0
   -2.6614    0.5290    0.6732 C   0  0  0  0  0  0  0  0  0  0  0  0
   -3.9962    2.1187   -0.5656 C   0  0  0  0  0  0  0  0  0  0  0  0
   -3.4385    1.6385   -1.8981 C   0  0  0  0  0  0  0  0  0  0  0  0
   -2.0452    1.0448   -1.7167 C   0  0  0  0  0  0  0  0  0  0  0  0
   -2.0562   -0.0195   -0.6232 C   0  0  1  0  0  0  0  0  0  0  0  0
   -0.7290   -0.5399   -0.3751 N   0  0  0  0  0  0  0  0  0  0  0  0
    0.2540    0.2663    0.0514 N   0  0  0  0  0  0  0  0  0  0  0  0
   -0.2832   -3.9597   -0.9767 C   0  0  0  0  0  0  0  0  0  0  0  0
    3.0151   -3.2197   -0.0527 N   0  0  0  0  0  0  0  0  0  0  0  0
    1.3354   -0.4646    0.1895 C   0  0  0  0  0  0  0  0  0  0  0  0
    2.5985    0.1036    0.6842 C   0  0  0  0  0  0  0  0  0  0  0  0
    3.2157    1.2244    0.0524 C   0  0  0  0  0  0  0  0  0  0  0  0
    2.6910    1.8427   -1.1087 C   0  0  0  0  0  0  0  0  0  0  0  0
    3.3237    2.9123   -1.6821 C   0  0  0  0  0  0  0  0  0  0  0  0
    4.5144    3.4243   -1.1290 C   0  0  0  0  0  0  0  0  0  0  0  0
    5.0531    2.8429   -0.0153 C   0  0  0  0  0  0  0  0  0  0  0  0
    4.4268    1.7316    0.5976 C   0  0  0  0  0  0  0  0  0  0  0  0
    4.9949    1.1156    1.7367 C   0  0  0  0  0  0  0  0  0  0  0  0
    4.3919    0.0356    2.3165 C   0  0  0  0  0  0  0  0  0  0  0  0
    3.1884   -0.4671    1.7874 C   0  0  0  0  0  0  0  0  0  0  0  0
   -8.4917    0.8513    0.8738 H   0  0  0  0  0  0  0  0  0  0  0  0
   -7.4539   -0.0495    2.1029 H   0  0  0  0  0  0  0  0  0  0  0  0
   -6.5427    1.4561   -0.3997 H   0  0  0  0  0  0  0  0  0  0  0  0
   -2.0419    1.3472    1.0521 H   0  0  0  0  0  0  0  0  0  0  0  0
   -2.7034   -0.2438    1.4355 H   0  0  0  0  0  0  0  0  0  0  0  0
   -4.9887    2.5407   -0.6831 H   0  0  0  0  0  0  0  0  0  0  0  0
   -3.3673    2.9220   -0.1683 H   0  0  0  0  0  0  0  0  0  0  0  0
   -4.1160    0.8942   -2.3262 H   0  0  0  0  0  0  0  0  0  0  0  0
   -3.3979    2.4754   -2.5972 H   0  0  0  0  0  0  0  0  0  0  0  0
   -1.6881    0.6106   -2.6526 H   0  0  0  0  0  0  0  0  0  0  0  0
   -1.3446    1.8378   -1.4393 H   0  0  0  0  0  0  0  0  0  0  0  0
   -2.6532   -0.8744   -0.9500 H   0  0  0  0  0  0  0  0  0  0  0  0
   -0.7996   -4.8607   -1.2910 H   0  0  0  0  0  0  0  0  0  0  0  0
    3.6158   -2.4478    0.1788 H   0  0  0  0  0  0  0  0  0  0  0  0
    3.4406   -4.1166   -0.2163 H   0  0  0  0  0  0  0  0  0  0  0  0
    1.7769    1.4710   -1.5496 H   0  0  0  0  0  0  0  0  0  0  0  0
    2.9074    3.3691   -2.5704 H   0  0  0  0  0  0  0  0  0  0  0  0
    5.0024    4.2719   -1.5919 H   0  0  0  0  0  0  0  0  0  0  0  0
    5.9731    3.2228    0.4121 H   0  0  0  0  0  0  0  0  0  0  0  0
    5.9183    1.5116    2.1419 H   0  0  0  0  0  0  0  0  0  0  0  0
    4.8270   -0.4348    3.1880 H   0  0  0  0  0  0  0  0  0  0  0  0
    2.7086   -1.3051    2.2789 H   0  0  0  0  0  0  0  0  0  0  0  0
   -5.0749    0.4158    0.9363 C   0  0  0  0  0  0  0  0  0  0  0  0
 25 24  2  0
 25 26  1  0
 27 26  1  0
 27 28  2  0
 24 23  1  0
 26 21  2  0
 28 29  1  0
 23 22  2  0
 21 22  1  0
 21 20  1  0
 29 20  2  0
 20 19  1  0
 19 16  2  0
 19  2  1  0
 18  3  1  0
 16 15  1  0
  2  3  2  0
  2  1  1  0
  3  4  1  0
 15  1  1  0
 15 14  1  0
  1  5  2  0
  4 17  2  0
 10 14  1  0
 10  9  1  0
 14 13  1  0
 13 12  1  0
 11  9  1  0
 11 12  1  0
  9 52  1  0
  5 17  1  0
 52  7  1  0
 52  8  2  0
  7  6  2  0
  6 30  1  0
  6 31  1  0
  7 32  1  0
 10 33  1  0
 10 34  1  0
 11 35  1  0
 11 36  1  0
 12 37  1  0
 12 38  1  0
 13 39  1  0
 13 40  1  0
 14 41  1  6
 17 42  1  0
 18 43  1  0
 18 44  1  0
 22 45  1  0
 23 46  1  0
 24 47  1  0
 25 48  1  0
 27 49  1  0
 28 50  1  0
 29 51  1  0
M  END
