
     RDKit          3D

 25 24  0  0  0  0  0  0  0  0999 V2000
    5.1971   -0.3222    0.2113 C   0  0  0  0  0  0  0  0  0  0  0  0
    1.5924    1.3736   -0.5105 O   0  0  0  0  0  0  0  0  0  0  0  0
   -4.5127   -0.8926    0.0523 O   0  0  0  0  0  0  0  0  0  0  0  0
   -3.6426    1.2252    0.4390 O   0  0  0  0  0  0  0  0  0  0  0  0
   -0.9512    0.1940   -0.1495 C   0  0  0  0  0  0  0  0  0  0  0  0
    0.3391   -0.5752    0.0823 C   0  0  0  0  0  0  0  0  0  0  0  0
   -2.1709   -0.6842    0.0963 C   0  0  0  0  0  0  0  0  0  0  0  0
    2.8777   -0.4967    0.2064 C   0  0  0  0  0  0  0  0  0  0  0  0
    3.9745    0.3078   -0.0831 O   0  0  0  0  0  0  0  0  0  0  0  0
    1.5942    0.2317   -0.1187 C   0  0  0  0  0  0  0  0  0  0  0  0
   -3.4825    0.0088   -0.2367 C   0  0  1  0  0  0  0  0  0  0  0  0
    5.9981    0.3666   -0.0536 H   0  0  0  0  0  0  0  0  0  0  0  0
    5.2885   -0.5666    1.2759 H   0  0  0  0  0  0  0  0  0  0  0  0
    5.3330   -1.2471   -0.3614 H   0  0  0  0  0  0  0  0  0  0  0  0
   -5.3358   -0.5536   -0.3158 H   0  0  0  0  0  0  0  0  0  0  0  0
   -3.4986    1.0798    1.3819 H   0  0  0  0  0  0  0  0  0  0  0  0
   -0.9800    1.0655    0.5073 H   0  0  0  0  0  0  0  0  0  0  0  0
   -0.9717    0.5738   -1.1745 H   0  0  0  0  0  0  0  0  0  0  0  0
    0.3626   -0.9984    1.0928 H   0  0  0  0  0  0  0  0  0  0  0  0
    0.3937   -1.4418   -0.5865 H   0  0  0  0  0  0  0  0  0  0  0  0
   -2.1009   -1.5894   -0.5136 H   0  0  0  0  0  0  0  0  0  0  0  0
   -2.1906   -1.0130    1.1423 H   0  0  0  0  0  0  0  0  0  0  0  0
    2.8925   -1.4412   -0.3597 H   0  0  0  0  0  0  0  0  0  0  0  0
    2.8425   -0.7865    1.2688 H   0  0  0  0  0  0  0  0  0  0  0  0
   -3.4924    0.2826   -1.2992 H   0  0  0  0  0  0  0  0  0  0  0  0
  1  9  1  0
  2 10  2  0
  3 11  1  0
  4 11  1  0
  5  6  1  0
  5  7  1  0
  6 10  1  0
  7 11  1  0
  8  9  1  0
  8 10  1  0
  1 12  1  0
  1 13  1  0
  1 14  1  0
  3 15  1  0
  4 16  1  0
  5 17  1  0
  5 18  1  0
  6 19  1  0
  6 20  1  0
  7 21  1  0
  7 22  1  0
  8 23  1  0
  8 24  1  0
 11 25  1  6
M  END
