
     RDKit          3D

 21 20  0  0  0  0  0  0  0  0999 V2000
    1.7217   -0.2230    1.5729 N   0  0  0  0  0  0  0  0  0  0  0  0
    0.3950    0.3496    1.5807 C   0  0  1  0  0  0  0  0  0  0  0  0
   -0.4948    0.0366    0.3697 C   0  0  0  0  0  0  0  0  0  0  0  0
    0.2834    0.7011   -1.0708 S   0  0  0  0  0  0  0  0  0  0  0  0
   -0.4242   -0.3018   -2.3447 C   0  0  0  0  0  0  0  0  0  0  0  0
    0.1199    0.2002   -3.6654 C   0  0  0  0  0  0  0  0  0  0  0  0
   -0.4100   -0.6517   -4.6703 O   0  0  0  0  0  0  0  0  0  0  0  0
   -0.3709   -0.1191    2.8096 C   0  0  0  0  0  0  0  0  0  0  0  0
   -0.5046   -1.2636    3.2458 O   0  0  0  0  0  0  0  0  0  0  0  0
   -0.9745    0.8903    3.4905 O   0  0  0  0  0  0  0  0  0  0  0  0
    2.1918    0.0183    0.7204 H   0  0  0  0  0  0  0  0  0  0  0  0
    1.6871   -1.2193    1.6731 H   0  0  0  0  0  0  0  0  0  0  0  0
    0.5177    1.4748    1.6502 H   0  0  0  0  0  0  0  0  0  0  0  0
   -0.6485   -1.0648    0.2649 H   0  0  0  0  0  0  0  0  0  0  0  0
   -1.4952    0.5110    0.5174 H   0  0  0  0  0  0  0  0  0  0  0  0
   -0.1553   -1.3767   -2.2034 H   0  0  0  0  0  0  0  0  0  0  0  0
   -1.5388   -0.2284   -2.3367 H   0  0  0  0  0  0  0  0  0  0  0  0
   -0.2043    1.2602   -3.8513 H   0  0  0  0  0  0  0  0  0  0  0  0
    1.2427    0.1506   -3.6769 H   0  0  0  0  0  0  0  0  0  0  0  0
   -0.0752   -0.3229   -5.5124 H   0  0  0  0  0  0  0  0  0  0  0  0
   -1.4450    0.5296    4.2608 H   0  0  0  0  0  0  0  0  0  0  0  0
  1  2  1  0
  1 11  1  0
  1 12  1  0
  2  3  1  0
  2  8  1  0
  2 13  1  1
  3  4  1  0
  3 14  1  0
  3 15  1  0
  4  5  1  0
  5  6  1  0
  5 16  1  0
  5 17  1  0
  6  7  1  0
  6 18  1  0
  6 19  1  0
  7 20  1  0
  8  9  2  0
  8 10  1  0
 10 21  1  0
M  END
