
     RDKit          3D

 21 20  0  0  0  0  0  0  0  0999 V2000
    3.0771   -1.1886   -0.1070 N   0  0  0  0  0  0  0  0  0  0  0  0
    1.7504   -0.8624   -0.5746 C   0  0  1  0  0  0  0  0  0  0  0  0
    0.7507   -0.6539    0.5648 C   0  0  0  0  0  0  0  0  0  0  0  0
    1.2215    0.5260    1.7976 S   0  0  0  0  0  0  0  0  0  0  0  0
    0.3462    1.9980    1.3743 C   0  0  0  0  0  0  0  0  0  0  0  0
    1.1618    2.9873    0.5712 C   0  0  0  0  0  0  0  0  0  0  0  0
    0.8230    3.3049   -0.5904 O   0  0  0  0  0  0  0  0  0  0  0  0
    2.2818    3.5309    1.1408 N   0  0  0  0  0  0  0  0  0  0  0  0
    1.7115    0.3231   -1.5363 C   0  0  0  0  0  0  0  0  0  0  0  0
    2.5870    1.1765   -1.7042 O   0  0  0  0  0  0  0  0  0  0  0  0
    0.5765    0.4216   -2.2735 O   0  0  0  0  0  0  0  0  0  0  0  0
    3.7286   -1.1752   -0.8695 H   0  0  0  0  0  0  0  0  0  0  0  0
    3.3766   -0.5398    0.5968 H   0  0  0  0  0  0  0  0  0  0  0  0
    1.3872   -1.7500   -1.1834 H   0  0  0  0  0  0  0  0  0  0  0  0
    0.6452   -1.6169    1.1288 H   0  0  0  0  0  0  0  0  0  0  0  0
   -0.2404   -0.3901    0.1200 H   0  0  0  0  0  0  0  0  0  0  0  0
   -0.5742    1.7623    0.7813 H   0  0  0  0  0  0  0  0  0  0  0  0
    0.0309    2.4611    2.3441 H   0  0  0  0  0  0  0  0  0  0  0  0
    2.8255    4.1797    0.6274 H   0  0  0  0  0  0  0  0  0  0  0  0
    2.5586    3.2877    2.0564 H   0  0  0  0  0  0  0  0  0  0  0  0
    0.6266    1.1996   -2.8607 H   0  0  0  0  0  0  0  0  0  0  0  0
  1  2  1  0
  1 12  1  0
  1 13  1  0
  2  3  1  0
  2  9  1  0
  2 14  1  6
  3  4  1  0
  3 15  1  0
  3 16  1  0
  4  5  1  0
  5  6  1  0
  5 17  1  0
  5 18  1  0
  6  7  2  0
  6  8  1  0
  8 19  1  0
  8 20  1  0
  9 10  2  0
  9 11  1  0
 11 21  1  0
M  END
