
     RDKit          3D

 31 32  0  0  0  0  0  0  0  0999 V2000
   -4.4726    1.5927   -0.6076 N   0  0  0  0  0  0  0  0  0  0  0  0
   -1.5197   -0.4801    0.1203 C   0  0  0  0  0  0  0  0  0  0  0  0
   -2.4252    0.5375   -0.0789 C   0  0  0  0  0  0  0  0  0  0  0  0
   -3.8396    0.4194   -0.4373 C   0  0  0  0  0  0  0  0  0  0  0  0
   -4.3916   -0.6692   -0.5727 O   0  0  0  0  0  0  0  0  0  0  0  0
   -1.7948    1.7460    0.0972 N   0  0  0  0  0  0  0  0  0  0  0  0
   -0.5604    1.4783    0.3892 C   0  0  0  0  0  0  0  0  0  0  0  0
   -0.3399    0.1306    0.4286 N   0  0  0  0  0  0  0  0  0  0  0  0
    0.9055   -0.5630    0.7319 C   0  0  1  0  0  0  0  0  0  0  0  0
    1.4674   -1.2814   -0.5007 C   0  0  2  0  0  0  0  0  0  0  0  0
    0.9359   -2.5801   -0.5388 O   0  0  0  0  0  0  0  0  0  0  0  0
    2.9721   -1.1471   -0.2842 C   0  0  2  0  0  0  0  0  0  0  0  0
    3.3633   -2.1331    0.6297 O   0  0  0  0  0  0  0  0  0  0  0  0
    3.0286    0.2602    0.3169 C   0  0  2  0  0  0  0  0  0  0  0  0
    1.8616    0.3503    1.1426 O   0  0  0  0  0  0  0  0  0  0  0  0
    3.0456    1.3595   -0.7281 C   0  0  0  0  0  0  0  0  0  0  0  0
    2.9824    2.5961   -0.0627 O   0  0  0  0  0  0  0  0  0  0  0  0
   -3.9911    2.4659   -0.4768 H   0  0  0  0  0  0  0  0  0  0  0  0
   -5.4510    1.6147   -0.8394 H   0  0  0  0  0  0  0  0  0  0  0  0
   -0.8430   -2.2533   -0.1719 H   0  0  0  0  0  0  0  0  0  0  0  0
    0.2245    2.1944    0.5741 H   0  0  0  0  0  0  0  0  0  0  0  0
    0.6963   -1.2841    1.5320 H   0  0  0  0  0  0  0  0  0  0  0  0
    1.1918   -0.7251   -1.4035 H   0  0  0  0  0  0  0  0  0  0  0  0
    1.0562   -2.9501   -1.4207 H   0  0  0  0  0  0  0  0  0  0  0  0
    3.5352   -1.2078   -1.2237 H   0  0  0  0  0  0  0  0  0  0  0  0
    4.3049   -2.0345    0.8033 H   0  0  0  0  0  0  0  0  0  0  0  0
    3.8977    0.3790    0.9709 H   0  0  0  0  0  0  0  0  0  0  0  0
    3.9677    1.2518   -1.3137 H   0  0  0  0  0  0  0  0  0  0  0  0
    2.2090    1.2382   -1.4283 H   0  0  0  0  0  0  0  0  0  0  0  0
    2.9656    3.2926   -0.7251 H   0  0  0  0  0  0  0  0  0  0  0  0
   -1.6744   -1.7960    0.0741 O   0  0  0  0  0  0  0  0  0  0  0  0
  1  4  1  0
 31  2  1  0
  2  3  2  0
  2  8  1  0
  3  4  1  0
  3  6  1  0
  4  5  2  0
  6  7  2  0
  7  8  1  0
  8  9  1  0
  9 10  1  0
  9 15  1  0
 10 11  1  0
 10 12  1  0
 12 13  1  0
 12 14  1  0
 14 15  1  0
 14 16  1  0
 16 17  1  0
  1 18  1  0
  1 19  1  0
 31 20  1  0
  7 21  1  0
  9 22  1  1
 10 23  1  6
 11 24  1  0
 12 25  1  6
 13 26  1  0
 14 27  1  1
 16 28  1  0
 16 29  1  0
 17 30  1  0
M  END
