
     RDKit          3D

 23 23  0  0  0  0  0  0  0  0999 V2000
   -0.6813   -1.4445    1.6171 N   0  0  0  0  0  0  0  0  0  0  0  0
   -0.8264   -0.5103    0.5134 C   0  0  0  0  0  0  0  0  0  0  0  0
   -1.6098   -1.1002   -0.6435 C   0  0  2  0  0  0  0  0  0  0  0  0
   -3.3691   -1.1770   -0.1847 Cl  0  0  0  0  0  0  0  0  0  0  0  0
   -1.1793   -2.4994   -1.0795 C   0  0  1  0  0  0  0  0  0  0  0  0
   -1.8793   -2.7891   -2.2607 O   0  0  0  0  0  0  0  0  0  0  0  0
    0.2970   -2.5720   -1.3016 C   0  0  0  0  0  0  0  0  0  0  0  0
    1.1932   -2.7267   -0.2654 N   0  0  0  0  0  0  0  0  0  0  0  0
    1.0603   -2.5545   -2.4275 C   0  0  0  0  0  0  0  0  0  0  0  0
    2.3921   -2.6914   -2.1117 N   0  0  0  0  0  0  0  0  0  0  0  0
    2.4294   -2.7796   -0.8043 C   0  0  0  0  0  0  0  0  0  0  0  0
    3.5663   -2.8468   -0.0354 N   0  0  0  0  0  0  0  0  0  0  0  0
   -1.5897   -1.6559    2.0132 H   0  0  0  0  0  0  0  0  0  0  0  0
   -0.1523   -1.0032    2.3582 H   0  0  0  0  0  0  0  0  0  0  0  0
   -1.2939    0.4417    0.7885 H   0  0  0  0  0  0  0  0  0  0  0  0
    0.1679   -0.2606    0.1365 H   0  0  0  0  0  0  0  0  0  0  0  0
   -1.5549   -0.4192   -1.4942 H   0  0  0  0  0  0  0  0  0  0  0  0
   -1.4435   -3.1988   -0.2748 H   0  0  0  0  0  0  0  0  0  0  0  0
   -1.6885   -3.7003   -2.5061 H   0  0  0  0  0  0  0  0  0  0  0  0
    0.9259   -2.6605    0.7116 H   0  0  0  0  0  0  0  0  0  0  0  0
    0.7305   -2.4688   -3.4515 H   0  0  0  0  0  0  0  0  0  0  0  0
    4.3780   -3.1197   -0.5678 H   0  0  0  0  0  0  0  0  0  0  0  0
    3.4807   -3.4071    0.7994 H   0  0  0  0  0  0  0  0  0  0  0  0
  1  2  1  0
  1 13  1  0
  1 14  1  0
  2  3  1  0
  2 15  1  0
  2 16  1  0
  3  4  1  0
  3  5  1  0
  3 17  1  6
  5  6  1  0
  5  7  1  0
  5 18  1  1
  6 19  1  0
  7  8  1  0
  7  9  2  0
  8 11  1  0
  8 20  1  0
  9 10  1  0
  9 21  1  0
 10 11  2  0
 11 12  1  0
 12 22  1  0
 12 23  1  0
M  END
