
     RDKit          3D

 18 18  0  0  0  0  0  0  0  0999 V2000
   -0.5698   -0.8606   -0.5646 C   0  0  0  0  0  0  0  0  0  0  0  0
   -1.9442   -1.0366   -0.6508 C   0  0  0  0  0  0  0  0  0  0  0  0
   -2.8044   -0.0543   -0.1798 C   0  0  0  0  0  0  0  0  0  0  0  0
   -2.2802    1.1119    0.3799 C   0  0  0  0  0  0  0  0  0  0  0  0
   -0.9064    1.2835    0.4604 C   0  0  0  0  0  0  0  0  0  0  0  0
   -0.0409    0.2989   -0.0073 C   0  0  0  0  0  0  0  0  0  0  0  0
    1.4528    0.5490    0.0167 C   0  0  2  0  0  0  0  0  0  0  0  0
    1.9226    1.0692   -1.2068 O   0  0  0  0  0  0  0  0  0  0  0  0
    2.2019   -0.6520    0.4139 C   0  0  0  0  0  0  0  0  0  0  0  0
    2.8163   -1.6324    0.7366 C   0  0  0  0  0  0  0  0  0  0  0  0
    0.0893   -1.6420   -0.9241 H   0  0  0  0  0  0  0  0  0  0  0  0
   -2.3423   -1.9442   -1.0848 H   0  0  0  0  0  0  0  0  0  0  0  0
   -3.8764   -0.1914   -0.2423 H   0  0  0  0  0  0  0  0  0  0  0  0
   -2.9436    1.8839    0.7501 H   0  0  0  0  0  0  0  0  0  0  0  0
   -0.5031    2.1899    0.8957 H   0  0  0  0  0  0  0  0  0  0  0  0
    1.6567    1.3252    0.7593 H   0  0  0  0  0  0  0  0  0  0  0  0
    1.7304    0.4343   -1.9061 H   0  0  0  0  0  0  0  0  0  0  0  0
    3.3961   -2.4820    1.0173 H   0  0  0  0  0  0  0  0  0  0  0  0
 10  9  3  0
  9  7  1  0
  1  2  2  0
  1  6  1  0
  2  3  1  0
  7  6  1  0
  7  8  1  0
  6  5  2  0
  3  4  2  0
  5  4  1  0
  1 11  1  0
  2 12  1  0
  3 13  1  0
  4 14  1  0
  5 15  1  0
  7 16  1  1
  8 17  1  0
 10 18  1  0
M  END
