
     RDKit          3D

 27 28  0  0  0  0  0  0  0  0999 V2000
    2.8436   -0.3688   -0.0525 C   0  0  0  0  0  0  0  0  0  0  0  0
    3.6381    0.8932    0.2592 C   0  0  0  0  0  0  0  0  0  0  0  0
    2.7829    2.0040   -0.3406 C   0  0  0  0  0  0  0  0  0  0  0  0
    1.3681    1.5514   -0.0122 C   0  0  0  0  0  0  0  0  0  0  0  0
    1.4567    0.0897   -0.1020 N   0  0  0  0  0  0  0  0  0  0  0  0
    0.4417   -0.7304   -0.2764 C   0  0  0  0  0  0  0  0  0  0  0  0
    0.6165   -2.3760   -0.5040 S   0  0  0  0  0  0  0  0  0  0  0  0
   -0.9195   -0.1354   -0.2881 C   0  0  0  0  0  0  0  0  0  0  0  0
   -1.6422   -0.0744   -1.4743 C   0  0  0  0  0  0  0  0  0  0  0  0
   -2.9199    0.4632   -1.5040 C   0  0  0  0  0  0  0  0  0  0  0  0
   -3.4924    0.9210   -0.3245 C   0  0  0  0  0  0  0  0  0  0  0  0
   -2.7948    0.8457    0.8710 C   0  0  0  0  0  0  0  0  0  0  0  0
   -1.5063    0.3190    0.8956 C   0  0  0  0  0  0  0  0  0  0  0  0
   -0.7854    0.2099    2.0273 O   0  0  0  0  0  0  0  0  0  0  0  0
    3.1151   -0.7974   -1.0207 H   0  0  0  0  0  0  0  0  0  0  0  0
    2.9556   -1.1546    0.6946 H   0  0  0  0  0  0  0  0  0  0  0  0
    3.7279    1.0287    1.3390 H   0  0  0  0  0  0  0  0  0  0  0  0
    4.6444    0.8513   -0.1547 H   0  0  0  0  0  0  0  0  0  0  0  0
    3.0015    2.9876    0.0724 H   0  0  0  0  0  0  0  0  0  0  0  0
    2.9223    2.0534   -1.4224 H   0  0  0  0  0  0  0  0  0  0  0  0
    1.0876    1.8454    1.0011 H   0  0  0  0  0  0  0  0  0  0  0  0
    0.6187    1.9363   -0.7014 H   0  0  0  0  0  0  0  0  0  0  0  0
   -1.1882   -0.4462   -2.3841 H   0  0  0  0  0  0  0  0  0  0  0  0
   -3.4644    0.5201   -2.4367 H   0  0  0  0  0  0  0  0  0  0  0  0
   -4.4910    1.3383   -0.3297 H   0  0  0  0  0  0  0  0  0  0  0  0
   -3.2531    1.1906    1.7909 H   0  0  0  0  0  0  0  0  0  0  0  0
   -1.2738    0.5722    2.7753 H   0  0  0  0  0  0  0  0  0  0  0  0
  7  6  2  0
  1  5  1  0
  1  2  1  0
  9 10  2  0
  9  8  1  0
  6  5  1  0
  6  8  1  0
  5  4  1  0
 10 11  1  0
  8 13  2  0
  2  3  1  0
  4  3  1  0
 11 12  2  0
 13 12  1  0
 13 14  1  0
  1 15  1  0
  1 16  1  0
  2 17  1  0
  2 18  1  0
  3 19  1  0
  3 20  1  0
  4 21  1  0
  4 22  1  0
  9 23  1  0
 10 24  1  0
 11 25  1  0
 12 26  1  0
 14 27  1  0
M  END
