
     RDKit          3D

 33 36  0  0  0  0  0  0  0  0999 V2000
   -2.2125   -0.1478    0.7542 C   0  0  0  0  0  0  0  0  0  0  0  0
   -3.5822   -0.3548    0.7539 C   0  0  0  0  0  0  0  0  0  0  0  0
   -4.0873   -1.4689    0.1110 C   0  0  0  0  0  0  0  0  0  0  0  0
   -3.2615   -2.3783   -0.5220 C   0  0  0  0  0  0  0  0  0  0  0  0
   -1.8943   -2.1537   -0.5178 C   0  0  0  0  0  0  0  0  0  0  0  0
   -1.3483   -1.0318    0.1075 C   0  0  0  0  0  0  0  0  0  0  0  0
    0.1014   -0.8296    0.1017 C   0  0  0  0  0  0  0  0  0  0  0  0
    0.8199    0.3502    0.0595 C   0  0  0  0  0  0  0  0  0  0  0  0
    2.1350   -0.0456    0.1115 N   0  0  0  0  0  0  0  0  0  0  0  0
    2.1436   -1.3881    0.1655 C   0  0  0  0  0  0  0  0  0  0  0  0
    0.9505   -1.9054    0.1609 N   0  0  0  0  0  0  0  0  0  0  0  0
    3.7486   -2.0649    0.2510 S   0  0  0  0  0  0  0  0  0  0  0  0
    4.4206   -0.4460   -0.2842 C   0  0  0  0  0  0  0  0  0  0  0  0
    3.4186    0.6191    0.1626 C   0  0  0  0  0  0  0  0  0  0  0  0
    0.4148    1.7430   -0.0796 C   0  0  0  0  0  0  0  0  0  0  0  0
   -0.5807    2.1165   -0.9823 C   0  0  0  0  0  0  0  0  0  0  0  0
   -0.9339    3.4502   -1.0835 C   0  0  0  0  0  0  0  0  0  0  0  0
   -0.3688    4.4210   -0.3727 N   0  0  0  0  0  0  0  0  0  0  0  0
    0.5821    4.0677    0.4818 C   0  0  0  0  0  0  0  0  0  0  0  0
    1.0042    2.7613    0.6686 C   0  0  0  0  0  0  0  0  0  0  0  0
   -5.4097   -1.6761    0.1094 F   0  0  0  0  0  0  0  0  0  0  0  0
   -1.8206    0.7096    1.2843 H   0  0  0  0  0  0  0  0  0  0  0  0
   -4.2448    0.3341    1.2598 H   0  0  0  0  0  0  0  0  0  0  0  0
   -3.6775   -3.2476   -1.0128 H   0  0  0  0  0  0  0  0  0  0  0  0
   -1.2428   -2.8599   -1.0144 H   0  0  0  0  0  0  0  0  0  0  0  0
    5.3970   -0.2923    0.1663 H   0  0  0  0  0  0  0  0  0  0  0  0
    3.4480    1.4769   -0.5064 H   0  0  0  0  0  0  0  0  0  0  0  0
   -1.0686    1.3847   -1.6107 H   0  0  0  0  0  0  0  0  0  0  0  0
   -1.7099    3.7486   -1.7792 H   0  0  0  0  0  0  0  0  0  0  0  0
    1.0340    4.8624    1.0649 H   0  0  0  0  0  0  0  0  0  0  0  0
    1.7631    2.5558    1.4112 H   0  0  0  0  0  0  0  0  0  0  0  0
    4.5278   -0.4519   -1.3673 H   0  0  0  0  0  0  0  0  0  0  0  0
    3.6302    0.9543    1.1796 H   0  0  0  0  0  0  0  0  0  0  0  0
 12 10  1  0
 12 13  1  0
 11 10  2  0
 11  7  1  0
  4  5  2  0
  4  3  1  0
  5  6  1  0
 10  9  1  0
 13 14  1  0
  7  6  1  0
  7  8  2  0
 21  3  1  0
  3  2  2  0
  6  1  2  0
  9 14  1  0
  9  8  1  0
  8 15  1  0
  1  2  1  0
 15 16  2  0
 15 20  1  0
 16 17  1  0
 20 19  2  0
 17 18  2  0
 19 18  1  0
  1 22  1  0
  2 23  1  0
  4 24  1  0
  5 25  1  0
 13 26  1  0
 14 27  1  0
 16 28  1  0
 17 29  1  0
 19 30  1  0
 20 31  1  0
 13 32  1  0
 14 33  1  0
M  END
