
     RDKit          3D

 28 31  0  0  0  0  0  0  0  0999 V2000
    1.4180    0.1053    3.7548 N   0  0  0  0  0  0  0  0  0  0  0  0
    0.4539    0.0545    2.7803 C   0  0  0  0  0  0  0  0  0  0  0  0
   -0.8995    0.0623    3.1437 C   0  0  0  0  0  0  0  0  0  0  0  0
   -1.8996    0.0511    2.1951 C   0  0  0  0  0  0  0  0  0  0  0  0
   -1.6052    0.0256    0.8303 C   0  0  0  0  0  0  0  0  0  0  0  0
   -2.6249   -0.0008   -0.1702 C   0  0  0  0  0  0  0  0  0  0  0  0
   -2.3172   -0.0253   -1.4877 C   0  0  0  0  0  0  0  0  0  0  0  0
   -0.9530   -0.0207   -1.9222 C   0  0  0  0  0  0  0  0  0  0  0  0
   -0.6107   -0.0404   -3.2761 C   0  0  0  0  0  0  0  0  0  0  0  0
    0.7179   -0.0306   -3.6716 C   0  0  0  0  0  0  0  0  0  0  0  0
    1.7341   -0.0002   -2.7292 C   0  0  0  0  0  0  0  0  0  0  0  0
    1.4348    0.0188   -1.3651 C   0  0  0  0  0  0  0  0  0  0  0  0
    2.4557    0.0594   -0.3642 C   0  0  0  0  0  0  0  0  0  0  0  0
    2.1463    0.0767    0.9532 C   0  0  0  0  0  0  0  0  0  0  0  0
    0.7894    0.0490    1.4073 C   0  0  0  0  0  0  0  0  0  0  0  0
   -0.2448    0.0259    0.4376 C   0  0  0  0  0  0  0  0  0  0  0  0
    0.0799    0.0070   -0.9488 C   0  0  0  0  0  0  0  0  0  0  0  0
    2.3083   -0.3200    3.5562 H   0  0  0  0  0  0  0  0  0  0  0  0
    1.1051   -0.1066    4.6884 H   0  0  0  0  0  0  0  0  0  0  0  0
   -1.1599    0.0708    4.1956 H   0  0  0  0  0  0  0  0  0  0  0  0
   -2.9344    0.0530    2.5169 H   0  0  0  0  0  0  0  0  0  0  0  0
   -3.6610   -0.0015    0.1478 H   0  0  0  0  0  0  0  0  0  0  0  0
   -3.0999   -0.0460   -2.2358 H   0  0  0  0  0  0  0  0  0  0  0  0
   -1.3973   -0.0618   -4.0204 H   0  0  0  0  0  0  0  0  0  0  0  0
    0.9624   -0.0448   -4.7259 H   0  0  0  0  0  0  0  0  0  0  0  0
    2.7697    0.0104   -3.0471 H   0  0  0  0  0  0  0  0  0  0  0  0
    3.4921    0.0835   -0.6781 H   0  0  0  0  0  0  0  0  0  0  0  0
    2.9561    0.1232    1.6691 H   0  0  0  0  0  0  0  0  0  0  0  0
  1  2  1  0
  1 18  1  0
  1 19  1  0
  2  3  2  0
  2 15  1  0
  3  4  1  0
  3 20  1  0
  4  5  2  0
  4 21  1  0
  5  6  1  0
  5 16  1  0
  6  7  2  0
  6 22  1  0
  7  8  1  0
  7 23  1  0
  8  9  2  0
  8 17  1  0
  9 10  1  0
  9 24  1  0
 10 11  2  0
 10 25  1  0
 11 12  1  0
 11 26  1  0
 12 13  2  0
 12 17  1  0
 13 14  1  0
 13 27  1  0
 14 15  2  0
 14 28  1  0
 15 16  1  0
 16 17  2  0
M  END
