
     RDKit          3D

 26 27  0  0  0  0  0  0  0  0999 V2000
   -2.2758    1.1704    0.1006 C   0  0  0  0  0  0  0  0  0  0  0  0
   -3.7016   -1.2033   -0.0298 C   0  0  0  0  0  0  0  0  0  0  0  0
    4.8145   -0.3415    0.7661 N   0  0  0  0  0  0  0  0  0  0  0  0
    2.6424    0.0727   -0.2667 C   0  0  0  0  0  0  0  0  0  0  0  0
    2.0289   -1.0933    0.1798 C   0  0  0  0  0  0  0  0  0  0  0  0
    0.6502   -1.1527    0.2638 C   0  0  0  0  0  0  0  0  0  0  0  0
   -0.1055   -0.0367   -0.1013 C   0  0  0  0  0  0  0  0  0  0  0  0
    0.4796    1.0867   -0.5088 N   0  0  0  0  0  0  0  0  0  0  0  0
    1.8019    1.1324   -0.5833 C   0  0  0  0  0  0  0  0  0  0  0  0
   -1.5835   -0.0351   -0.0309 C   0  0  0  0  0  0  0  0  0  0  0  0
   -3.6598    1.1873    0.1761 C   0  0  0  0  0  0  0  0  0  0  0  0
   -4.3790    0.0004    0.1111 C   0  0  0  0  0  0  0  0  0  0  0  0
   -2.3161   -1.2211   -0.0993 C   0  0  0  0  0  0  0  0  0  0  0  0
   -1.7215    2.0979    0.1529 H   0  0  0  0  0  0  0  0  0  0  0  0
   -4.2532   -2.1323   -0.0934 H   0  0  0  0  0  0  0  0  0  0  0  0
    5.8118   -0.3533    0.5958 H   0  0  0  0  0  0  0  0  0  0  0  0
    4.6714    0.2811    1.5513 H   0  0  0  0  0  0  0  0  0  0  0  0
    4.3846    1.2341   -0.6341 H   0  0  0  0  0  0  0  0  0  0  0  0
    4.4550   -0.3940   -1.2704 H   0  0  0  0  0  0  0  0  0  0  0  0
    2.6271   -1.9467    0.4725 H   0  0  0  0  0  0  0  0  0  0  0  0
    0.1722   -2.0513    0.6286 H   0  0  0  0  0  0  0  0  0  0  0  0
    2.2285    2.0745   -0.9161 H   0  0  0  0  0  0  0  0  0  0  0  0
   -4.1788    2.1305    0.2898 H   0  0  0  0  0  0  0  0  0  0  0  0
   -5.4597    0.0134    0.1670 H   0  0  0  0  0  0  0  0  0  0  0  0
   -1.8097   -2.1692   -0.2288 H   0  0  0  0  0  0  0  0  0  0  0  0
    4.1346    0.1901   -0.4030 C   0  0  0  0  0  0  0  0  0  0  0  0
  3 26  1  0
 26  4  1  0
  4  9  2  0
  4  5  1  0
  9  8  1  0
  5  6  2  0
  8  7  2  0
  6  7  1  0
  7 10  1  0
 10  1  2  0
 10 13  1  0
  1 11  1  0
 13  2  2  0
 11 12  2  0
  2 12  1  0
  1 14  1  0
  2 15  1  0
  3 16  1  0
  3 17  1  0
 26 18  1  0
 26 19  1  0
  5 20  1  0
  6 21  1  0
  9 22  1  0
 11 23  1  0
 12 24  1  0
 13 25  1  0
M  END
