
     RDKit          3D

 26 25  0  0  0  0  0  0  0  0999 V2000
    2.3562    1.9201   -1.2174 O   0  0  0  0  0  0  0  0  0  0  0  0
    2.9746    1.2444   -0.3904 C   0  0  0  0  0  0  0  0  0  0  0  0
    3.9544    1.8748    0.3151 O   0  0  0  0  0  0  0  0  0  0  0  0
    2.8151   -0.1984   -0.0288 C   0  0  0  0  0  0  0  0  0  0  0  0
    1.4375   -0.7137   -0.3919 C   0  0  1  0  0  0  0  0  0  0  0  0
    1.2968   -2.1979   -0.2557 C   0  0  0  0  0  0  0  0  0  0  0  0
    0.7259   -2.9704   -1.0336 O   0  0  0  0  0  0  0  0  0  0  0  0
    1.8633   -2.7537    0.8511 O   0  0  0  0  0  0  0  0  0  0  0  0
    0.2869    0.1029    0.6950 S   0  0  0  0  0  0  0  0  0  0  0  0
   -1.2328   -0.0801   -0.1918 C   0  0  0  0  0  0  0  0  0  0  0  0
   -2.3254    0.6851    0.5535 C   0  0  1  0  0  0  0  0  0  0  0  0
   -3.5764    0.6828   -0.3239 C   0  0  0  0  0  0  0  0  0  0  0  0
   -4.5606   -0.0574   -0.2448 O   0  0  0  0  0  0  0  0  0  0  0  0
   -2.5555    0.2015    1.8923 N   0  0  0  0  0  0  0  0  0  0  0  0
   -3.5805    1.6224   -1.3057 O   0  0  0  0  0  0  0  0  0  0  0  0
    3.6142   -0.7719   -0.5770 H   0  0  0  0  0  0  0  0  0  0  0  0
    3.0114   -0.3320    1.0719 H   0  0  0  0  0  0  0  0  0  0  0  0
    1.1997   -0.4642   -1.4670 H   0  0  0  0  0  0  0  0  0  0  0  0
   -1.1352    0.3485   -1.2220 H   0  0  0  0  0  0  0  0  0  0  0  0
   -1.4879   -1.1646   -0.2961 H   0  0  0  0  0  0  0  0  0  0  0  0
   -2.0108    1.7733    0.6386 H   0  0  0  0  0  0  0  0  0  0  0  0
   -3.3897    0.6038    2.2748 H   0  0  0  0  0  0  0  0  0  0  0  0
   -2.6257   -0.7968    1.9157 H   0  0  0  0  0  0  0  0  0  0  0  0
    1.7153   -3.7153    0.8423 H   0  0  0  0  0  0  0  0  0  0  0  0
    4.0093    2.8044    0.0367 H   0  0  0  0  0  0  0  0  0  0  0  0
   -4.4041    1.5583   -1.8180 H   0  0  0  0  0  0  0  0  0  0  0  0
 13 12  2  0
  7  6  2  0
  6  8  1  0
  6  5  1  0
  5  9  1  0
  5  4  1  0
 12 15  1  0
 12 11  1  0
  9 10  1  0
 10 11  1  0
  4  2  1  0
 11 14  1  0
  1  2  2  0
  2  3  1  0
  4 16  1  0
  4 17  1  0
  5 18  1  6
 10 19  1  0
 10 20  1  0
 11 21  1  1
 14 22  1  0
 14 23  1  0
  8 24  1  0
  3 25  1  0
 15 26  1  0
M  END
