
     RDKit          3D

 21 21  0  0  0  0  0  0  0  0999 V2000
   -1.4701    0.0951    0.2085 N   0  0  0  0  0  0  0  0  0  0  0  0
    0.8715   -0.4730   -0.0704 C   0  0  0  0  0  0  0  0  0  0  0  0
    1.9090   -1.2960   -0.5019 C   0  0  0  0  0  0  0  0  0  0  0  0
    3.2111   -0.9279   -0.2187 C   0  0  0  0  0  0  0  0  0  0  0  0
    3.4396    0.2493    0.4843 C   0  0  0  0  0  0  0  0  0  0  0  0
    2.3442    0.9996    0.8707 C   0  0  0  0  0  0  0  0  0  0  0  0
   -3.6009    1.0107    0.8607 C   0  0  0  0  0  0  0  0  0  0  0  0
   -2.7999   -0.0590    0.1622 C   0  0  0  0  0  0  0  0  0  0  0  0
   -0.5569   -0.8509   -0.3710 C   0  0  0  0  0  0  0  0  0  0  0  0
    1.0898    0.6480    0.6003 N   0  0  0  0  0  0  0  0  0  0  0  0
   -3.3327   -1.0125   -0.3939 O   0  0  0  0  0  0  0  0  0  0  0  0
   -1.0556    0.8887    0.6749 H   0  0  0  0  0  0  0  0  0  0  0  0
    1.6922   -2.2057   -1.0473 H   0  0  0  0  0  0  0  0  0  0  0  0
    4.0375   -1.5486   -0.5393 H   0  0  0  0  0  0  0  0  0  0  0  0
    4.4406    0.5773    0.7266 H   0  0  0  0  0  0  0  0  0  0  0  0
    2.4771    1.9235    1.4219 H   0  0  0  0  0  0  0  0  0  0  0  0
   -3.0067    1.8733    1.1563 H   0  0  0  0  0  0  0  0  0  0  0  0
   -4.4082    1.3485    0.2125 H   0  0  0  0  0  0  0  0  0  0  0  0
   -4.0583    0.5891    1.7567 H   0  0  0  0  0  0  0  0  0  0  0  0
   -0.7479   -1.8585    0.0102 H   0  0  0  0  0  0  0  0  0  0  0  0
   -0.6876   -0.9070   -1.4569 H   0  0  0  0  0  0  0  0  0  0  0  0
  6  5  2  0
  6 10  1  0
  5  4  1  0
 10  2  2  0
  4  3  2  0
  2  3  1  0
  2  9  1  0
  9  1  1  0
  1  8  1  0
  8  7  1  0
  8 11  2  0
  1 12  1  0
  3 13  1  0
  4 14  1  0
  5 15  1  0
  6 16  1  0
  7 17  1  0
  7 18  1  0
  7 19  1  0
  9 20  1  0
  9 21  1  0
M  END
