
     RDKit          3D

107106  0  0  0  0  0  0  0  0999 V2000
   -3.0796    2.7466    0.1253 C   0  0  0  0  0  0  0  0  0  0  0  0
   -1.8458    3.3955   -0.4734 C   0  0  1  0  0  0  0  0  0  0  0  0
   -0.8595    3.9845    0.5138 C   0  0  0  0  0  0  0  0  0  0  0  0
   -0.8756   -1.6885    0.5827 C   0  0  0  0  0  0  0  0  0  0  0  0
    0.0750   -1.6770   -0.5932 C   0  0  0  0  0  0  0  0  0  0  0  0
    2.2033   -2.0165    0.5962 C   0  0  0  0  0  0  0  0  0  0  0  0
    2.1697   -1.1338   -1.6586 C   0  0  0  0  0  0  0  0  0  0  0  0
    1.4382    0.2554    0.1880 C   0  0  0  0  0  0  0  0  0  0  0  0
   -0.6738    1.2974   -3.2792 C   0  0  0  0  0  0  0  0  0  0  0  0
   -0.8160    1.3006   -4.7919 C   0  0  0  0  0  0  0  0  0  0  0  0
    0.0106    0.1903   -5.4286 C   0  0  0  0  0  0  0  0  0  0  0  0
   -0.0891    0.1731   -6.9482 C   0  0  0  0  0  0  0  0  0  0  0  0
    0.6868   -0.9700   -7.5898 C   0  0  0  0  0  0  0  0  0  0  0  0
    0.5962   -0.9754   -9.1107 C   0  0  0  0  0  0  0  0  0  0  0  0
    1.3349   -2.1404   -9.7572 C   0  0  0  0  0  0  0  0  0  0  0  0
    1.2449   -2.1386  -11.2782 C   0  0  0  0  0  0  0  0  0  0  0  0
    1.9633   -3.3142  -11.9282 C   0  0  0  0  0  0  0  0  0  0  0  0
    1.8662   -3.3141  -13.4490 C   0  0  0  0  0  0  0  0  0  0  0  0
    2.5837   -4.4938  -14.0901 C   0  0  0  0  0  0  0  0  0  0  0  0
   -0.7648    2.9375    2.6478 C   0  0  0  0  0  0  0  0  0  0  0  0
   -0.0766    1.8449    3.4162 C   0  0  0  0  0  0  0  0  0  0  0  0
   -0.1609    2.0040    4.9264 C   0  0  0  0  0  0  0  0  0  0  0  0
    0.4969    0.8351    5.6492 C   0  0  0  0  0  0  0  0  0  0  0  0
    0.5715    1.0285    7.1582 C   0  0  0  0  0  0  0  0  0  0  0  0
    1.1708   -0.1726    7.8805 C   0  0  0  0  0  0  0  0  0  0  0  0
    1.4124    0.0695    9.3651 C   0  0  0  0  0  0  0  0  0  0  0  0
    2.0039   -1.1400   10.0793 C   0  0  0  0  0  0  0  0  0  0  0  0
    2.3292   -0.8791   11.5451 C   0  0  0  0  0  0  0  0  0  0  0  0
    2.9315   -2.0882   12.2501 C   0  0  0  0  0  0  0  0  0  0  0  0
    3.2987   -1.8203   13.7050 C   0  0  0  0  0  0  0  0  0  0  0  0
    3.9073   -3.0339   14.3941 C   0  0  0  0  0  0  0  0  0  0  0  0
   -2.4280    2.9318   -3.0702 O   0  0  0  0  0  0  0  0  0  0  0  0
   -1.6301    3.6503    3.0879 O   0  0  0  0  0  0  0  0  0  0  0  0
   -1.1366    2.4716   -1.3017 O   0  0  0  0  0  0  0  0  0  0  0  0
   -0.2991    3.0214    1.4003 O   0  0  0  0  0  0  0  0  0  0  0  0
   -2.9664   -0.0442   -1.1470 O   0  0  0  0  0  0  0  0  0  0  0  0
   -3.8950   -0.6867    1.1002 O   0  0  0  0  0  0  0  0  0  0  0  0
   -2.7642    1.5884    0.9023 O   0  0  0  0  0  0  0  0  0  0  0  0
   -1.3701   -0.3895    0.9002 O   0  0  0  0  0  0  0  0  0  0  0  0
    1.4579   -1.1372   -0.3473 N   0  0  1  0  0  0  0  0  0  0  0  0
   -2.7714    0.1160    0.3059 P   0  0  2  0  0  0  0  0  0  0  0  0
   -3.5629    3.4531    0.7992 H   0  0  0  0  0  0  0  0  0  0  0  0
   -3.7951    2.5039   -0.6616 H   0  0  0  0  0  0  0  0  0  0  0  0
   -2.2044    4.2432   -1.0664 H   0  0  0  0  0  0  0  0  0  0  0  0
   -1.3540    4.7871    1.0614 H   0  0  0  0  0  0  0  0  0  0  0  0
   -0.0238    4.4177   -0.0361 H   0  0  0  0  0  0  0  0  0  0  0  0
   -0.4166   -2.0851    1.4873 H   0  0  0  0  0  0  0  0  0  0  0  0
   -1.6811   -2.3779    0.3197 H   0  0  0  0  0  0  0  0  0  0  0  0
    0.2050   -2.7024   -0.9390 H   0  0  0  0  0  0  0  0  0  0  0  0
   -0.3513   -1.1042   -1.4159 H   0  0  0  0  0  0  0  0  0  0  0  0
    1.6939   -2.0483    1.5540 H   0  0  0  0  0  0  0  0  0  0  0  0
    2.2649   -3.0176    0.1787 H   0  0  0  0  0  0  0  0  0  0  0  0
    3.2016   -1.6128    0.7382 H   0  0  0  0  0  0  0  0  0  0  0  0
    3.1916   -0.7977   -1.5081 H   0  0  0  0  0  0  0  0  0  0  0  0
    1.6644   -0.4548   -2.3414 H   0  0  0  0  0  0  0  0  0  0  0  0
    2.1698   -2.1388   -2.0717 H   0  0  0  0  0  0  0  0  0  0  0  0
    2.4560    0.6356    0.1775 H   0  0  0  0  0  0  0  0  0  0  0  0
    0.8013    0.8825   -0.4284 H   0  0  0  0  0  0  0  0  0  0  0  0
    1.0683    0.2535    1.2069 H   0  0  0  0  0  0  0  0  0  0  0  0
    0.3716    1.4454   -2.9940 H   0  0  0  0  0  0  0  0  0  0  0  0
   -0.9739    0.3210   -2.8851 H   0  0  0  0  0  0  0  0  0  0  0  0
   -1.8660    1.1740   -5.0661 H   0  0  0  0  0  0  0  0  0  0  0  0
   -0.5021    2.2686   -5.1915 H   0  0  0  0  0  0  0  0  0  0  0  0
    1.0606    0.2998   -5.1343 H   0  0  0  0  0  0  0  0  0  0  0  0
   -0.3166   -0.7769   -5.0306 H   0  0  0  0  0  0  0  0  0  0  0  0
   -1.1426    0.1023   -7.2404 H   0  0  0  0  0  0  0  0  0  0  0  0
    0.2717    1.1278   -7.3458 H   0  0  0  0  0  0  0  0  0  0  0  0
    1.7387   -0.9112   -7.2888 H   0  0  0  0  0  0  0  0  0  0  0  0
    0.3134   -1.9235   -7.2002 H   0  0  0  0  0  0  0  0  0  0  0  0
   -0.4575   -1.0062   -9.4099 H   0  0  0  0  0  0  0  0  0  0  0  0
    0.9928   -0.0315   -9.5009 H   0  0  0  0  0  0  0  0  0  0  0  0
    0.9322   -3.0834   -9.3710 H   0  0  0  0  0  0  0  0  0  0  0  0
    2.3882   -2.1160   -9.4559 H   0  0  0  0  0  0  0  0  0  0  0  0
    0.1908   -2.1490  -11.5778 H   0  0  0  0  0  0  0  0  0  0  0  0
    1.6589   -1.2008  -11.6651 H   0  0  0  0  0  0  0  0  0  0  0  0
    3.0187   -3.3042  -11.6330 H   0  0  0  0  0  0  0  0  0  0  0  0
    1.5506   -4.2521  -11.5397 H   0  0  0  0  0  0  0  0  0  0  0  0
    0.8119   -3.3240  -13.7434 H   0  0  0  0  0  0  0  0  0  0  0  0
    2.2793   -2.3781  -13.8377 H   0  0  0  0  0  0  0  0  0  0  0  0
    2.4857   -4.4811  -15.1763 H   0  0  0  0  0  0  0  0  0  0  0  0
    3.6496   -4.4837  -13.8551 H   0  0  0  0  0  0  0  0  0  0  0  0
    2.1785   -5.4426  -13.7331 H   0  0  0  0  0  0  0  0  0  0  0  0
    0.9666    1.7824    3.0960 H   0  0  0  0  0  0  0  0  0  0  0  0
   -0.5438    0.9014    3.1120 H   0  0  0  0  0  0  0  0  0  0  0  0
   -1.2052    2.0831    5.2371 H   0  0  0  0  0  0  0  0  0  0  0  0
    0.3233    2.9388    5.2240 H   0  0  0  0  0  0  0  0  0  0  0  0
    1.5108    0.6882    5.2612 H   0  0  0  0  0  0  0  0  0  0  0  0
   -0.0508   -0.0856    5.4202 H   0  0  0  0  0  0  0  0  0  0  0  0
   -0.4280    1.2341    7.5563 H   0  0  0  0  0  0  0  0  0  0  0  0
    1.1735    1.9181    7.3736 H   0  0  0  0  0  0  0  0  0  0  0  0
    2.1200   -0.4418    7.4039 H   0  0  0  0  0  0  0  0  0  0  0  0
    0.5113   -1.0379    7.7528 H   0  0  0  0  0  0  0  0  0  0  0  0
    0.4730    0.3559    9.8508 H   0  0  0  0  0  0  0  0  0  0  0  0
    2.0886    0.9236    9.4824 H   0  0  0  0  0  0  0  0  0  0  0  0
    2.9160   -1.4536    9.5592 H   0  0  0  0  0  0  0  0  0  0  0  0
    1.3073   -1.9823   10.0052 H   0  0  0  0  0  0  0  0  0  0  0  0
    1.4209   -0.5664   12.0720 H   0  0  0  0  0  0  0  0  0  0  0  0
    3.0264   -0.0367   11.6139 H   0  0  0  0  0  0  0  0  0  0  0  0
    3.8258   -2.4143   11.7070 H   0  0  0  0  0  0  0  0  0  0  0  0
    2.2262   -2.9254   12.2038 H   0  0  0  0  0  0  0  0  0  0  0  0
    2.4070   -1.4961   14.2507 H   0  0  0  0  0  0  0  0  0  0  0  0
    4.0030   -0.9838   13.7512 H   0  0  0  0  0  0  0  0  0  0  0  0
    4.8104   -3.3653   13.8782 H   0  0  0  0  0  0  0  0  0  0  0  0
    3.2097   -3.8734   14.4079 H   0  0  0  0  0  0  0  0  0  0  0  0
    4.1796   -2.8151   15.4273 H   0  0  0  0  0  0  0  0  0  0  0  0
   -3.8611   -0.6390    2.0653 H   0  0  0  0  0  0  0  0  0  0  0  0
   -1.5194    2.3190   -2.5742 C   0  0  0  0  0  0  0  0  0  0  0  0
  1  2  1  0
  1 38  1  0
  1 42  1  0
  1 43  1  0
  2  3  1  0
  2 34  1  0
  2 44  1  6
  3 35  1  0
  3 45  1  0
  3 46  1  0
  4  5  1  0
  4 39  1  0
  4 47  1  0
  4 48  1  0
 40  5  1  6
  5 49  1  0
  5 50  1  0
  6 40  1  0
  6 51  1  0
  6 52  1  0
  6 53  1  0
  7 40  1  0
  7 54  1  0
  7 55  1  0
  7 56  1  0
  8 40  1  0
  8 57  1  0
  8 58  1  0
  8 59  1  0
107  9  1  0
107 32  2  0
107 34  1  0
  9 10  1  0
  9 60  1  0
  9 61  1  0
 10 11  1  0
 10 62  1  0
 10 63  1  0
 11 12  1  0
 11 64  1  0
 11 65  1  0
 12 13  1  0
 12 66  1  0
 12 67  1  0
 13 14  1  0
 13 68  1  0
 13 69  1  0
 14 15  1  0
 14 70  1  0
 14 71  1  0
 15 16  1  0
 15 72  1  0
 15 73  1  0
 16 17  1  0
 16 74  1  0
 16 75  1  0
 17 18  1  0
 17 76  1  0
 17 77  1  0
 18 19  1  0
 18 78  1  0
 18 79  1  0
 19 80  1  0
 19 81  1  0
 19 82  1  0
 20 21  1  0
 20 33  2  0
 20 35  1  0
 21 22  1  0
 21 83  1  0
 21 84  1  0
 22 23  1  0
 22 85  1  0
 22 86  1  0
 23 24  1  0
 23 87  1  0
 23 88  1  0
 24 25  1  0
 24 89  1  0
 24 90  1  0
 25 26  1  0
 25 91  1  0
 25 92  1  0
 26 27  1  0
 26 93  1  0
 26 94  1  0
 27 28  1  0
 27 95  1  0
 27 96  1  0
 28 29  1  0
 28 97  1  0
 28 98  1  0
 29 30  1  0
 29 99  1  0
 29100  1  0
 30 31  1  0
 30101  1  0
 30102  1  0
 31103  1  0
 31104  1  0
 31105  1  0
 36 41  2  0
 41 37  1  1
 37106  1  0
 38 41  1  0
 39 41  1  0
M  CHG  1  40   1
M  END
