
     RDKit          3D

 24 25  0  0  0  0  0  0  0  0999 V2000
   -6.0184    0.7490    0.0903 O   0  0  0  0  0  0  0  0  0  0  0  0
   -4.7650    1.1786    0.0394 C   0  0  0  0  0  0  0  0  0  0  0  0
   -4.4710    2.3526    0.0179 O   0  0  0  0  0  0  0  0  0  0  0  0
   -3.7871    0.0704   -0.0128 C   0  0  0  0  0  0  0  0  0  0  0  0
   -4.4328   -1.5728    0.0548 S   0  0  0  0  0  0  0  0  0  0  0  0
   -2.4796    0.3876   -0.1216 C   0  0  0  0  0  0  0  0  0  0  0  0
   -1.3205   -0.4402   -0.2663 C   0  0  0  0  0  0  0  0  0  0  0  0
    0.0301    0.0640   -0.2158 C   0  0  0  0  0  0  0  0  0  0  0  0
    0.5867    1.3224    0.0182 C   0  0  0  0  0  0  0  0  0  0  0  0
    1.9598    1.4682    0.0004 C   0  0  0  0  0  0  0  0  0  0  0  0
    2.7815    0.3594   -0.2483 C   0  0  0  0  0  0  0  0  0  0  0  0
    4.6558    0.6069   -0.2617 Br  0  0  0  0  0  0  0  0  0  0  0  0
    2.2745   -0.9023   -0.4832 C   0  0  0  0  0  0  0  0  0  0  0  0
    0.8886   -1.0213   -0.4621 C   0  0  0  0  0  0  0  0  0  0  0  0
    0.1026   -2.1234   -0.6577 N   0  0  0  0  0  0  0  0  0  0  0  0
   -1.1997   -1.7928   -0.5399 C   0  0  0  0  0  0  0  0  0  0  0  0
   -6.6231    1.5058    0.1026 H   0  0  0  0  0  0  0  0  0  0  0  0
   -2.2640    1.4508   -0.0827 H   0  0  0  0  0  0  0  0  0  0  0  0
   -0.0364    2.1857    0.2161 H   0  0  0  0  0  0  0  0  0  0  0  0
    2.3959    2.4410    0.1820 H   0  0  0  0  0  0  0  0  0  0  0  0
    2.9102   -1.7567   -0.6737 H   0  0  0  0  0  0  0  0  0  0  0  0
    0.4347   -3.0547   -0.8508 H   0  0  0  0  0  0  0  0  0  0  0  0
   -1.9548   -2.5441   -0.6931 H   0  0  0  0  0  0  0  0  0  0  0  0
   -3.5078   -2.0799    0.8830 H   0  0  0  0  0  0  0  0  0  0  0  0
 12 11  1  0
 10 11  2  0
 10  9  1  0
 11 13  1  0
  9  8  2  0
 13 14  2  0
  8 14  1  0
  8  7  1  0
 14 15  1  0
  3  2  2  0
  6  7  1  0
  6  4  2  0
  7 16  2  0
  2  4  1  0
  2  1  1  0
 15 16  1  0
  4  5  1  0
  1 17  1  0
  6 18  1  0
  9 19  1  0
 10 20  1  0
 13 21  1  0
 15 22  1  0
 16 23  1  0
  5 24  1  0
M  END
