
     RDKit          3D

 26 27  0  0  0  0  0  0  0  0999 V2000
    4.9988   -0.0187   -0.0696 C   0  0  0  0  0  0  0  0  0  0  0  0
    3.5032    0.0405   -0.0576 C   0  0  0  0  0  0  0  0  0  0  0  0
    2.8122    1.2477    0.0014 C   0  0  0  0  0  0  0  0  0  0  0  0
    1.4300    1.2535    0.0171 C   0  0  0  0  0  0  0  0  0  0  0  0
    0.7515    0.0362   -0.0271 C   0  0  0  0  0  0  0  0  0  0  0  0
    1.4026   -1.1216   -0.0839 N   0  0  0  0  0  0  0  0  0  0  0  0
    2.7267   -1.1136   -0.0989 C   0  0  0  0  0  0  0  0  0  0  0  0
   -0.7286   -0.0209   -0.0148 C   0  0  0  0  0  0  0  0  0  0  0  0
   -1.3797    1.1368    0.0422 N   0  0  0  0  0  0  0  0  0  0  0  0
   -2.7038    1.1289    0.0571 C   0  0  0  0  0  0  0  0  0  0  0  0
   -3.4804   -0.0251    0.0151 C   0  0  0  0  0  0  0  0  0  0  0  0
   -2.7893   -1.2324   -0.0439 C   0  0  0  0  0  0  0  0  0  0  0  0
   -1.4071   -1.2382   -0.0594 C   0  0  0  0  0  0  0  0  0  0  0  0
   -4.9760    0.0342    0.0269 C   0  0  0  0  0  0  0  0  0  0  0  0
    5.4124    0.2938    0.8908 H   0  0  0  0  0  0  0  0  0  0  0  0
    5.3562   -1.0274   -0.2723 H   0  0  0  0  0  0  0  0  0  0  0  0
    5.4136    0.6437   -0.8297 H   0  0  0  0  0  0  0  0  0  0  0  0
    3.3567    2.1842    0.0338 H   0  0  0  0  0  0  0  0  0  0  0  0
    0.8783    2.1814    0.0626 H   0  0  0  0  0  0  0  0  0  0  0  0
    3.2101   -2.0850   -0.1496 H   0  0  0  0  0  0  0  0  0  0  0  0
   -3.1875    2.1001    0.1082 H   0  0  0  0  0  0  0  0  0  0  0  0
   -3.3334   -2.1690   -0.0768 H   0  0  0  0  0  0  0  0  0  0  0  0
   -0.8557   -2.1664   -0.1043 H   0  0  0  0  0  0  0  0  0  0  0  0
   -5.3897   -0.2781   -0.9335 H   0  0  0  0  0  0  0  0  0  0  0  0
   -5.3913   -0.6280    0.7870 H   0  0  0  0  0  0  0  0  0  0  0  0
   -5.3330    1.0430    0.2294 H   0  0  0  0  0  0  0  0  0  0  0  0
  1  2  1  0
  2  3  2  0
  2  7  1  0
  3  4  1  0
  4  5  2  0
  5  6  1  0
  5  8  1  0
  6  7  2  0
  8  9  2  0
  8 13  1  0
  9 10  1  0
 10 11  2  0
 11 12  1  0
 11 14  1  0
 12 13  2  0
  1 15  1  0
  1 16  1  0
  1 17  1  0
  3 18  1  0
  4 19  1  0
  7 20  1  0
 10 21  1  0
 12 22  1  0
 13 23  1  0
 14 24  1  0
 14 25  1  0
 14 26  1  0
M  END
