
     RDKit          3D

 31 32  0  0  0  0  0  0  0  0999 V2000
    1.4925   -1.9032   -2.5232 N   0  0  0  0  0  0  0  0  0  0  0  0
   -1.8668   -0.2373   -0.3387 N   0  0  0  0  0  0  0  0  0  0  0  0
   -3.5428    1.8136   -0.0554 S   0  0  0  0  0  0  0  0  0  0  0  0
   -3.4133   -0.5474    1.7549 S   0  0  0  0  0  0  0  0  0  0  0  0
    1.3036   -1.1991   -1.6330 C   0  0  0  0  0  0  0  0  0  0  0  0
    4.8710    0.8101    1.1790 C   0  0  0  0  0  0  0  0  0  0  0  0
    4.5367   -0.5255    0.9916 C   0  0  0  0  0  0  0  0  0  0  0  0
    3.9711    1.7964    0.8080 C   0  0  0  0  0  0  0  0  0  0  0  0
    3.3108   -0.8633    0.4418 C   0  0  0  0  0  0  0  0  0  0  0  0
    2.7415    1.4567    0.2546 C   0  0  0  0  0  0  0  0  0  0  0  0
   -1.1946    0.4144   -1.4546 C   0  0  0  0  0  0  0  0  0  0  0  0
   -1.1565   -1.4374    0.0834 C   0  0  0  0  0  0  0  0  0  0  0  0
    0.1905    0.8708   -1.0191 C   0  0  0  0  0  0  0  0  0  0  0  0
    0.2393   -1.0721    0.5691 C   0  0  0  0  0  0  0  0  0  0  0  0
   -2.8478    0.3512    0.3392 C   0  0  0  0  0  0  0  0  0  0  0  0
    2.3973    0.1229    0.0697 C   0  0  0  0  0  0  0  0  0  0  0  0
    1.0457   -0.2992   -0.5000 C   0  0  1  0  0  0  0  0  0  0  0  0
   -4.3574    0.3372    2.0829 H   0  0  0  0  0  0  0  0  0  0  0  0
    5.8272    1.0784    1.6085 H   0  0  0  0  0  0  0  0  0  0  0  0
    5.2314   -1.3065    1.2716 H   0  0  0  0  0  0  0  0  0  0  0  0
    4.2226    2.8400    0.9439 H   0  0  0  0  0  0  0  0  0  0  0  0
    3.0713   -1.9108    0.2997 H   0  0  0  0  0  0  0  0  0  0  0  0
    2.0651    2.2518   -0.0269 H   0  0  0  0  0  0  0  0  0  0  0  0
   -1.1457   -0.2976   -2.2822 H   0  0  0  0  0  0  0  0  0  0  0  0
   -1.7837    1.2645   -1.7840 H   0  0  0  0  0  0  0  0  0  0  0  0
   -1.6922   -1.9716    0.8643 H   0  0  0  0  0  0  0  0  0  0  0  0
   -1.1100   -2.1166   -0.7715 H   0  0  0  0  0  0  0  0  0  0  0  0
    0.6881    1.3741   -1.8497 H   0  0  0  0  0  0  0  0  0  0  0  0
    0.0704    1.6006   -0.2158 H   0  0  0  0  0  0  0  0  0  0  0  0
    0.1714   -0.4377    1.4557 H   0  0  0  0  0  0  0  0  0  0  0  0
    0.7642   -1.9817    0.8627 H   0  0  0  0  0  0  0  0  0  0  0  0
  1  5  3  0
 12  2  1  0
 11  2  1  0
  2 15  1  0
 15  3  2  0
 15  4  1  0
  4 18  1  0
 17  5  1  6
  7  6  2  0
  6  8  1  0
  6 19  1  0
  9  7  1  0
  7 20  1  0
 10  8  2  0
  8 21  1  0
  9 16  2  0
  9 22  1  0
 16 10  1  0
 10 23  1  0
 13 11  1  0
 11 24  1  0
 11 25  1  0
 14 12  1  0
 12 26  1  0
 12 27  1  0
 17 13  1  0
 13 28  1  0
 13 29  1  0
 17 14  1  0
 14 30  1  0
 14 31  1  0
 17 16  1  0
M  END
