
     RDKit          3D

 33 34  0  0  0  0  0  0  0  0999 V2000
    4.4927   -1.4962    0.3953 C   0  0  0  0  0  0  0  0  0  0  0  0
    2.7780   -2.1431   -1.1638 C   0  0  0  0  0  0  0  0  0  0  0  0
   -3.2207   -1.4020   -0.2437 C   0  0  0  0  0  0  0  0  0  0  0  0
   -3.6774   -0.2691    1.9327 C   0  0  0  0  0  0  0  0  0  0  0  0
   -2.5867   -0.6974    0.9393 C   0  0  2  0  0  0  0  0  0  0  0  0
   -1.7255    0.4510    0.4828 C   0  0  0  0  0  0  0  0  0  0  0  0
   -2.2791    1.6411    0.0192 C   0  0  0  0  0  0  0  0  0  0  0  0
   -1.4658    2.6946   -0.3746 C   0  0  0  0  0  0  0  0  0  0  0  0
   -0.0873    2.5759   -0.3111 C   0  0  0  0  0  0  0  0  0  0  0  0
    0.4847    1.3826    0.1240 C   0  0  0  0  0  0  0  0  0  0  0  0
   -0.3422    0.3322    0.5208 C   0  0  0  0  0  0  0  0  0  0  0  0
    1.9654    1.2850    0.2206 C   0  0  0  0  0  0  0  0  0  0  0  0
    2.6242   -0.0277   -0.0134 C   0  0  0  0  0  0  0  0  0  0  0  0
    3.8327   -0.3013    0.6289 C   0  0  0  0  0  0  0  0  0  0  0  0
    3.9677   -2.4178   -0.5039 C   0  0  0  0  0  0  0  0  0  0  0  0
    2.1031   -0.9571   -0.9133 C   0  0  0  0  0  0  0  0  0  0  0  0
    2.6298    2.2690    0.4806 O   0  0  0  0  0  0  0  0  0  0  0  0
   -3.6673   -2.6062    0.0928 O   0  0  0  0  0  0  0  0  0  0  0  0
    5.4206   -1.7091    0.9093 H   0  0  0  0  0  0  0  0  0  0  0  0
    2.3722   -2.8517   -1.8734 H   0  0  0  0  0  0  0  0  0  0  0  0
   -3.2236    0.2653    2.7660 H   0  0  0  0  0  0  0  0  0  0  0  0
   -4.4133    0.3887    1.4707 H   0  0  0  0  0  0  0  0  0  0  0  0
   -4.2031   -1.1339    2.3344 H   0  0  0  0  0  0  0  0  0  0  0  0
   -1.9486   -1.4263    1.4472 H   0  0  0  0  0  0  0  0  0  0  0  0
   -3.3537    1.7600   -0.0319 H   0  0  0  0  0  0  0  0  0  0  0  0
   -1.9113    3.6133   -0.7321 H   0  0  0  0  0  0  0  0  0  0  0  0
    0.5418    3.4025   -0.6144 H   0  0  0  0  0  0  0  0  0  0  0  0
    0.0957   -0.5878    0.8895 H   0  0  0  0  0  0  0  0  0  0  0  0
    4.2500    0.4154    1.3241 H   0  0  0  0  0  0  0  0  0  0  0  0
    4.4874   -3.3485   -0.6909 H   0  0  0  0  0  0  0  0  0  0  0  0
    1.1803   -0.7502   -1.4390 H   0  0  0  0  0  0  0  0  0  0  0  0
   -4.0941   -3.0278   -0.6685 H   0  0  0  0  0  0  0  0  0  0  0  0
   -3.3337   -0.9390   -1.3494 O   0  0  0  0  0  0  0  0  0  0  0  0
 15  1  2  0
 15  2  1  0
  1 14  1  0
  2 16  2  0
 14 13  2  0
 33  3  2  0
 16 13  1  0
 13 12  1  0
 18  3  1  0
  3  5  1  0
 12 17  2  0
 12 10  1  0
 11 10  1  0
 11  6  2  0
  5  4  1  0
  5  6  1  0
 10  9  2  0
  6  7  1  0
  9  8  1  0
  7  8  2  0
  1 19  1  0
  2 20  1  0
  4 21  1  0
  4 22  1  0
  4 23  1  0
  5 24  1  1
  7 25  1  0
  8 26  1  0
  9 27  1  0
 11 28  1  0
 14 29  1  0
 15 30  1  0
 16 31  1  0
 18 32  1  0
M  END
