
     RDKit          3D

 36 36  0  0  0  0  0  0  0  0999 V2000
    3.6571    0.4030    0.2617 C   0  0  0  0  0  0  0  0  0  0  0  0
   -1.3992   -2.2769    0.2906 N   0  0  0  0  0  0  0  0  0  0  0  0
    4.9164   -0.1839   -0.3548 C   0  0  0  0  0  0  0  0  0  0  0  0
   -0.4308   -1.3297    0.7971 C   0  0  0  0  0  0  0  0  0  0  0  0
    1.2504    0.3599    0.2290 N   0  0  0  0  0  0  0  0  0  0  0  0
    6.1725    0.4478    0.2293 C   0  0  0  0  0  0  0  0  0  0  0  0
   -0.0832   -0.1128   -0.0856 C   0  0  2  0  0  0  0  0  0  0  0  0
   -1.0565    1.0392    0.1556 C   0  0  1  0  0  0  0  0  0  0  0  0
   -0.5702    2.1700   -0.5308 O   0  0  0  0  0  0  0  0  0  0  0  0
   -2.4985    0.7735   -0.2753 C   0  0  2  0  0  0  0  0  0  0  0  0
   -3.2054    1.9206    0.1446 O   0  0  0  0  0  0  0  0  0  0  0  0
   -3.1574   -0.4975    0.2678 C   0  0  1  0  0  0  0  0  0  0  0  0
   -4.5208   -0.3637   -0.0925 O   0  0  0  0  0  0  0  0  0  0  0  0
   -2.5840   -1.7608   -0.3716 C   0  0  0  0  0  0  0  0  0  0  0  0
    2.3690   -0.2008   -0.2629 C   0  0  0  0  0  0  0  0  0  0  0  0
    2.3447   -1.1226   -1.0678 O   0  0  0  0  0  0  0  0  0  0  0  0
    3.6787    0.2708    1.3490 H   0  0  0  0  0  0  0  0  0  0  0  0
    3.6300    1.4857    0.1016 H   0  0  0  0  0  0  0  0  0  0  0  0
    4.9407   -1.2632   -0.1908 H   0  0  0  0  0  0  0  0  0  0  0  0
    4.9027   -0.0381   -1.4370 H   0  0  0  0  0  0  0  0  0  0  0  0
   -0.7477   -0.9599    1.7793 H   0  0  0  0  0  0  0  0  0  0  0  0
    0.4850   -1.8919    0.9788 H   0  0  0  0  0  0  0  0  0  0  0  0
    1.3464    1.0982    0.9084 H   0  0  0  0  0  0  0  0  0  0  0  0
    6.1948    1.5251    0.0546 H   0  0  0  0  0  0  0  0  0  0  0  0
    6.2311    0.2904    1.3080 H   0  0  0  0  0  0  0  0  0  0  0  0
    7.0720    0.0222   -0.2158 H   0  0  0  0  0  0  0  0  0  0  0  0
   -0.1004   -0.4066   -1.1401 H   0  0  0  0  0  0  0  0  0  0  0  0
   -1.0704    1.2259    1.2432 H   0  0  0  0  0  0  0  0  0  0  0  0
   -1.1879    2.8938   -0.3799 H   0  0  0  0  0  0  0  0  0  0  0  0
   -2.5093    0.6938   -1.3757 H   0  0  0  0  0  0  0  0  0  0  0  0
   -4.1332    1.7958   -0.0822 H   0  0  0  0  0  0  0  0  0  0  0  0
   -3.0514   -0.5441    1.3612 H   0  0  0  0  0  0  0  0  0  0  0  0
   -5.0316   -1.0310    0.3758 H   0  0  0  0  0  0  0  0  0  0  0  0
   -2.4245   -1.5558   -1.4412 H   0  0  0  0  0  0  0  0  0  0  0  0
   -3.3537   -2.5374   -0.3286 H   0  0  0  0  0  0  0  0  0  0  0  0
   -0.9377   -2.9234   -0.3329 H   0  0  0  0  0  0  0  0  0  0  0  0
  6  3  1  0
  3  1  1  0
  4  2  1  0
  4  7  1  0
  2 14  1  0
  1 15  1  0
 16 15  2  0
 15  5  1  0
  5  7  1  0
 13 12  1  0
  7  8  1  0
 14 12  1  0
 12 10  1  0
  8 10  1  0
  8  9  1  0
 10 11  1  0
  1 17  1  0
  1 18  1  0
  2 36  1  0
  3 19  1  0
  3 20  1  0
  4 21  1  0
  4 22  1  0
  5 23  1  0
  6 24  1  0
  6 25  1  0
  6 26  1  0
  7 27  1  6
  8 28  1  1
  9 29  1  0
 10 30  1  6
 11 31  1  0
 12 32  1  1
 13 33  1  0
 14 34  1  0
 14 35  1  0
M  END
