
     RDKit          3D

 38 40  0  0  0  0  0  0  0  0999 V2000
    6.3591    0.4509   -0.1989 C   0  0  0  0  0  0  0  0  0  0  0  0
    4.6215   -0.7870    0.5880 C   0  0  0  0  0  0  0  0  0  0  0  0
   -4.6923   -0.5789   -0.1628 C   0  0  0  0  0  0  0  0  0  0  0  0
   -3.8804   -1.6367   -0.5328 C   0  0  0  0  0  0  0  0  0  0  0  0
   -4.0885    0.6135    0.2188 C   0  0  0  0  0  0  0  0  0  0  0  0
   -5.0545    1.9688    0.6753 Cl  0  0  0  0  0  0  0  0  0  0  0  0
   -2.7134    0.7458    0.2281 C   0  0  0  0  0  0  0  0  0  0  0  0
   -1.8780   -0.3199   -0.1419 C   0  0  0  0  0  0  0  0  0  0  0  0
   -2.5015   -1.5194   -0.5170 C   0  0  0  0  0  0  0  0  0  0  0  0
   -0.5027   -0.1596   -0.1622 N   0  0  0  0  0  0  0  0  0  0  0  0
    0.3139   -1.2708   -0.6123 C   0  0  0  0  0  0  0  0  0  0  0  0
    1.7155   -0.8069   -0.9640 C   0  0  0  0  0  0  0  0  0  0  0  0
    2.3216   -0.1049    0.1538 N   0  0  0  0  0  0  0  0  0  0  0  0
    1.5187    1.0431    0.5244 C   0  0  0  0  0  0  0  0  0  0  0  0
    0.1265    0.5897    0.9176 C   0  0  0  0  0  0  0  0  0  0  0  0
    3.7081    0.1271    0.0062 C   0  0  0  0  0  0  0  0  0  0  0  0
    4.1624   -1.8664    1.2428 N   0  0  0  0  0  0  0  0  0  0  0  0
    5.9340   -0.6168    0.4787 N   0  0  0  0  0  0  0  0  0  0  0  0
    7.7007    0.6363   -0.2603 N   0  0  0  0  0  0  0  0  0  0  0  0
    5.5927    1.3704   -0.7847 N   0  0  0  0  0  0  0  0  0  0  0  0
    4.2779    1.1776   -0.6712 C   0  0  0  0  0  0  0  0  0  0  0  0
   -4.3272   -2.5770   -0.8264 H   0  0  0  0  0  0  0  0  0  0  0  0
   -2.3008    1.7047    0.5056 H   0  0  0  0  0  0  0  0  0  0  0  0
   -1.9254   -2.3895   -0.7938 H   0  0  0  0  0  0  0  0  0  0  0  0
    0.3704   -2.0641    0.1476 H   0  0  0  0  0  0  0  0  0  0  0  0
   -0.1193   -1.7055   -1.5129 H   0  0  0  0  0  0  0  0  0  0  0  0
    2.3138   -1.6853   -1.2120 H   0  0  0  0  0  0  0  0  0  0  0  0
    1.6767   -0.1715   -1.8628 H   0  0  0  0  0  0  0  0  0  0  0  0
    1.9777    1.5455    1.3767 H   0  0  0  0  0  0  0  0  0  0  0  0
    1.4308    1.7786   -0.2900 H   0  0  0  0  0  0  0  0  0  0  0  0
   -0.4545    1.4757    1.1615 H   0  0  0  0  0  0  0  0  0  0  0  0
    0.1841   -0.0250    1.8267 H   0  0  0  0  0  0  0  0  0  0  0  0
    3.1881   -1.8771    1.4966 H   0  0  0  0  0  0  0  0  0  0  0  0
    4.7986   -2.3982    1.8120 H   0  0  0  0  0  0  0  0  0  0  0  0
    8.0504    1.2778   -0.9510 H   0  0  0  0  0  0  0  0  0  0  0  0
    8.2939   -0.1460   -0.0439 H   0  0  0  0  0  0  0  0  0  0  0  0
    3.6467    1.9233   -1.1465 H   0  0  0  0  0  0  0  0  0  0  0  0
   -6.4083   -0.7525   -0.1742 Cl  0  0  0  0  0  0  0  0  0  0  0  0
 15 14  1  0
 15 10  1  0
  4  9  1  0
  4  3  2  0
  9  8  2  0
 38  3  1  0
  3  5  1  0
  8 10  1  0
  8  7  1  0
 14 13  1  0
 10 11  1  0
  5  7  2  0
  5  6  1  0
 17  2  1  0
 11 12  1  0
 13 16  1  0
 13 12  1  0
  2 16  2  0
  2 18  1  0
 16 21  1  0
 18  1  2  0
 21 20  2  0
  1 20  1  0
  1 19  1  0
  4 22  1  0
  7 23  1  0
  9 24  1  0
 11 25  1  0
 11 26  1  0
 12 27  1  0
 12 28  1  0
 14 29  1  0
 14 30  1  0
 15 31  1  0
 15 32  1  0
 17 33  1  0
 17 34  1  0
 19 35  1  0
 19 36  1  0
 21 37  1  0
M  END
