
     RDKit          3D

 35 37  0  0  0  0  0  0  0  0999 V2000
   -3.6376   -0.9245   -0.0465 C   0  0  0  0  0  0  0  0  0  0  0  0
   -5.9777   -0.3747    0.0525 C   0  0  0  0  0  0  0  0  0  0  0  0
    0.4368   -1.5619   -1.0320 C   0  0  0  0  0  0  0  0  0  0  0  0
    0.1904   -2.8413   -0.6157 C   0  0  0  0  0  0  0  0  0  0  0  0
    0.7555   -2.9802    0.6809 C   0  0  0  0  0  0  0  0  0  0  0  0
   -3.3136    0.4358    0.0049 C   0  0  0  0  0  0  0  0  0  0  0  0
    2.9215    0.7300   -0.0529 C   0  0  0  0  0  0  0  0  0  0  0  0
    3.3179    2.0646    0.0004 C   0  0  0  0  0  0  0  0  0  0  0  0
    2.3731    3.0787   -0.0127 C   0  0  0  0  0  0  0  0  0  0  0  0
    1.0258    2.7713   -0.0518 C   0  0  0  0  0  0  0  0  0  0  0  0
    0.6051    1.4392   -0.0649 C   0  0  0  0  0  0  0  0  0  0  0  0
    1.5632    0.4160   -0.0754 C   0  0  0  0  0  0  0  0  0  0  0  0
    1.3287   -1.7817    1.0044 C   0  0  0  0  0  0  0  0  0  0  0  0
   -0.7775    1.1191   -0.0428 C   0  0  0  0  0  0  0  0  0  0  0  0
   -1.9493    0.8324   -0.0231 C   0  0  0  0  0  0  0  0  0  0  0  0
   -4.3369    1.3857    0.0795 C   0  0  0  0  0  0  0  0  0  0  0  0
   -5.6605    0.9775    0.1031 C   0  0  0  0  0  0  0  0  0  0  0  0
   -4.9639   -1.3229   -0.0221 C   0  0  0  0  0  0  0  0  0  0  0  0
    1.1295   -0.9214   -0.0424 N   0  0  0  0  0  0  0  0  0  0  0  0
    5.0291   -0.0758    0.5425 O   0  0  0  0  0  0  0  0  0  0  0  0
    3.8415   -1.3014   -0.8980 O   0  0  0  0  0  0  0  0  0  0  0  0
   -2.8437   -1.6582   -0.1054 H   0  0  0  0  0  0  0  0  0  0  0  0
   -7.0132   -0.6882    0.0711 H   0  0  0  0  0  0  0  0  0  0  0  0
    0.1860   -1.0583   -1.9511 H   0  0  0  0  0  0  0  0  0  0  0  0
   -0.3340   -3.5966   -1.1795 H   0  0  0  0  0  0  0  0  0  0  0  0
    0.7379   -3.8585    1.3067 H   0  0  0  0  0  0  0  0  0  0  0  0
    4.3688    2.3178    0.0220 H   0  0  0  0  0  0  0  0  0  0  0  0
    2.6903    4.1121    0.0088 H   0  0  0  0  0  0  0  0  0  0  0  0
    0.2845    3.5584   -0.0533 H   0  0  0  0  0  0  0  0  0  0  0  0
    1.8431   -1.4606    1.8963 H   0  0  0  0  0  0  0  0  0  0  0  0
   -4.0903    2.4386    0.1180 H   0  0  0  0  0  0  0  0  0  0  0  0
   -6.4475    1.7175    0.1607 H   0  0  0  0  0  0  0  0  0  0  0  0
   -5.2068   -2.3766   -0.0617 H   0  0  0  0  0  0  0  0  0  0  0  0
    5.7127   -0.7442    0.3802 H   0  0  0  0  0  0  0  0  0  0  0  0
    3.9545   -0.3372   -0.1871 C   0  0  0  0  0  0  0  0  0  0  0  0
 17  2  2  0
 17 16  1  0
  4  5  1  0
  4  3  2  0
  2 18  1  0
 16  6  2  0
  5 13  2  0
  3 19  1  0
 18  1  2  0
  6  1  1  0
  6 15  1  0
 15 14  3  0
 13 19  1  0
 19 12  1  0
 14 11  1  0
 12 11  1  0
 12  7  2  0
 21 35  2  0
 11 10  2  0
 35  7  1  0
 35 20  1  0
  7  8  1  0
 10  9  1  0
  8  9  2  0
  1 22  1  0
  2 23  1  0
  3 24  1  0
  4 25  1  0
  5 26  1  0
  8 27  1  0
  9 28  1  0
 10 29  1  0
 13 30  1  0
 16 31  1  0
 17 32  1  0
 18 33  1  0
 20 34  1  0
M  END
