
     RDKit          3D

 27 28  0  0  0  0  0  0  0  0999 V2000
   -2.9377   -0.8359    0.4715 C   0  0  0  0  0  0  0  0  0  0  0  0
   -2.1598    0.1054   -0.3528 C   0  0  0  0  0  0  0  0  0  0  0  0
   -2.5614    0.5750   -1.5855 C   0  0  0  0  0  0  0  0  0  0  0  0
   -1.5980    1.5025   -2.0209 C   0  0  0  0  0  0  0  0  0  0  0  0
   -0.6276    1.5549   -1.0491 C   0  0  0  0  0  0  0  0  0  0  0  0
    3.2489   -0.5309   -0.4237 C   0  0  0  0  0  0  0  0  0  0  0  0
    1.9065   -0.5386   -0.0839 C   0  0  0  0  0  0  0  0  0  0  0  0
    0.8986   -1.8122   -0.6897 Cl  0  0  0  0  0  0  0  0  0  0  0  0
    4.0658    0.4829    0.0611 C   0  0  0  0  0  0  0  0  0  0  0  0
    3.5381    1.4738    0.8741 C   0  0  0  0  0  0  0  0  0  0  0  0
    2.1889    1.4506    1.1987 C   0  0  0  0  0  0  0  0  0  0  0  0
    1.3501    0.4470    0.7292 C   0  0  0  0  0  0  0  0  0  0  0  0
   -0.9679    0.7155   -0.0384 N   0  0  0  0  0  0  0  0  0  0  0  0
   -3.6779   -1.6513   -0.0632 O   0  0  0  0  0  0  0  0  0  0  0  0
   -2.8140   -0.7450    1.8124 N   0  0  0  0  0  0  0  0  0  0  0  0
   -3.4709    0.2924   -2.0918 H   0  0  0  0  0  0  0  0  0  0  0  0
   -1.6036    2.0691   -2.9382 H   0  0  0  0  0  0  0  0  0  0  0  0
    0.2879    2.1233   -1.0179 H   0  0  0  0  0  0  0  0  0  0  0  0
   -0.3712   -0.5389    1.5057 H   0  0  0  0  0  0  0  0  0  0  0  0
   -0.2807    1.1736    1.8892 H   0  0  0  0  0  0  0  0  0  0  0  0
    3.6564   -1.3076   -1.0565 H   0  0  0  0  0  0  0  0  0  0  0  0
    5.1150    0.4909   -0.2025 H   0  0  0  0  0  0  0  0  0  0  0  0
    4.1714    2.2640    1.2544 H   0  0  0  0  0  0  0  0  0  0  0  0
    1.7718    2.2278    1.8273 H   0  0  0  0  0  0  0  0  0  0  0  0
   -3.4152   -1.3173    2.3844 H   0  0  0  0  0  0  0  0  0  0  0  0
   -2.4543    0.0841    2.2540 H   0  0  0  0  0  0  0  0  0  0  0  0
   -0.1039    0.4366    1.1033 C   0  0  0  0  0  0  0  0  0  0  0  0
  4  3  1  0
  4  5  2  0
  3  2  2  0
  5 13  1  0
  2 13  1  0
  2  1  1  0
 15  1  1  0
 13 27  1  0
  1 14  2  0
 11 10  2  0
 11 12  1  0
 27 12  1  0
 10  9  1  0
 12  7  2  0
  9  6  2  0
  7  6  1  0
  7  8  1  0
  3 16  1  0
  4 17  1  0
  5 18  1  0
 27 19  1  0
 27 20  1  0
  6 21  1  0
  9 22  1  0
 10 23  1  0
 11 24  1  0
 15 25  1  0
 15 26  1  0
M  END
