
     RDKit          3D

 40 41  0  0  0  0  0  0  0  0999 V2000
   -0.5796   -0.5114    0.2244 C   0  0  1  0  0  0  0  0  0  0  0  0
   -1.5465   -1.6709    0.0716 C   0  0  2  0  0  0  0  0  0  0  0  0
    0.6459   -0.8916   -0.3776 O   0  0  0  0  0  0  0  0  0  0  0  0
    4.1659   -0.0640   -0.5291 C   0  0  0  0  0  0  0  0  0  0  0  0
    3.1501    1.3336    1.1270 C   0  0  0  0  0  0  0  0  0  0  0  0
    4.2906    0.9444    0.4407 C   0  0  0  0  0  0  0  0  0  0  0  0
    5.3664   -0.5260   -1.3017 C   0  0  0  0  0  0  0  0  0  0  0  0
   -5.4337    1.1851   -0.4745 C   0  0  0  0  0  0  0  0  0  0  0  0
    5.6200    1.5774    0.7310 C   0  0  0  0  0  0  0  0  0  0  0  0
   -5.9752    2.0038   -1.1679 C   0  0  0  0  0  0  0  0  0  0  0  0
   -1.1656    0.7323   -0.4300 C   0  0  0  0  0  0  0  0  0  0  0  0
    1.7876   -0.2400   -0.0641 C   0  0  0  0  0  0  0  0  0  0  0  0
   -2.9079   -1.2637    0.6351 C   0  0  0  0  0  0  0  0  0  0  0  0
   -1.0239   -2.7789    0.7617 O   0  0  0  0  0  0  0  0  0  0  0  0
   -2.5434    1.0428    0.1295 C   0  0  0  0  0  0  0  0  0  0  0  0
    2.9260   -0.6367   -0.7685 C   0  0  0  0  0  0  0  0  0  0  0  0
    1.9037    0.7611    0.8923 C   0  0  0  0  0  0  0  0  0  0  0  0
   -3.4286   -0.0951   -0.0465 N   0  0  0  0  0  0  0  0  0  0  0  0
   -0.4374   -0.3367    1.3000 H   0  0  0  0  0  0  0  0  0  0  0  0
   -1.6688   -1.8867   -0.9995 H   0  0  0  0  0  0  0  0  0  0  0  0
    3.2230    2.1139    1.8754 H   0  0  0  0  0  0  0  0  0  0  0  0
   -4.8367    0.5361    1.4247 H   0  0  0  0  0  0  0  0  0  0  0  0
   -5.3693   -0.7318    0.3340 H   0  0  0  0  0  0  0  0  0  0  0  0
    6.1047   -0.9938   -0.6469 H   0  0  0  0  0  0  0  0  0  0  0  0
    5.0958   -1.2536   -2.0653 H   0  0  0  0  0  0  0  0  0  0  0  0
    5.8691    0.3060   -1.7978 H   0  0  0  0  0  0  0  0  0  0  0  0
    6.0725    2.0090   -0.1644 H   0  0  0  0  0  0  0  0  0  0  0  0
    5.5243    2.3732    1.4685 H   0  0  0  0  0  0  0  0  0  0  0  0
    6.3357    0.8512    1.1238 H   0  0  0  0  0  0  0  0  0  0  0  0
   -6.4549    2.7321   -1.7808 H   0  0  0  0  0  0  0  0  0  0  0  0
   -0.5137    1.5943   -0.2782 H   0  0  0  0  0  0  0  0  0  0  0  0
   -1.2398    0.5688   -1.5085 H   0  0  0  0  0  0  0  0  0  0  0  0
   -3.6068   -2.0938    0.4978 H   0  0  0  0  0  0  0  0  0  0  0  0
   -2.8103   -1.1023    1.7232 H   0  0  0  0  0  0  0  0  0  0  0  0
   -1.5844   -3.5399    0.5805 H   0  0  0  0  0  0  0  0  0  0  0  0
   -2.4617    1.3288    1.1927 H   0  0  0  0  0  0  0  0  0  0  0  0
   -2.9560    1.9046   -0.3980 H   0  0  0  0  0  0  0  0  0  0  0  0
    2.8306   -1.4165   -1.5157 H   0  0  0  0  0  0  0  0  0  0  0  0
    1.0568    1.1130    1.4652 H   0  0  0  0  0  0  0  0  0  0  0  0
   -4.7857    0.1915    0.3787 C   0  0  0  0  0  0  0  0  0  0  0  0
  7  4  1  0
  9  6  1  0
  4  6  2  0
  4 16  1  0
  6  5  1  0
 16 12  2  0
  5 17  2  0
 12 17  1  0
 12  3  1  0
  3  1  1  0
  1  2  1  0
  1 11  1  0
  2 14  1  0
  2 13  1  0
 11 15  1  0
 13 18  1  0
 15 18  1  0
 18 40  1  0
  8 40  1  0
  8 10  3  0
  1 19  1  1
  2 20  1  6
  5 21  1  0
 40 22  1  0
 40 23  1  0
  7 24  1  0
  7 25  1  0
  7 26  1  0
  9 27  1  0
  9 28  1  0
  9 29  1  0
 10 30  1  0
 11 31  1  0
 11 32  1  0
 13 33  1  0
 13 34  1  0
 14 35  1  0
 15 36  1  0
 15 37  1  0
 16 38  1  0
 17 39  1  0
M  END
