
     RDKit          3D

 27 26  0  0  0  0  0  0  0  0999 V2000
    1.5115    1.4734    2.0195 C   0  0  1  0  0  0  0  0  0  0  0  0
    2.3312    0.2179    2.3355 C   0  0  0  0  0  0  0  0  0  0  0  0
    1.5301   -0.8912    2.9836 C   0  0  0  0  0  0  0  0  0  0  0  0
    2.4397   -2.1079    3.2036 C   0  0  0  0  0  0  0  0  0  0  0  0
    1.7755   -3.1594    3.9384 N   0  0  0  0  0  0  0  0  0  0  0  0
    2.3066   -4.4828    4.2294 C   0  0  0  0  0  0  0  0  0  0  0  0
    1.6370   -5.3776    4.9030 N   0  0  0  0  0  0  0  0  0  0  0  0
    3.6257   -4.8258    3.7572 N   0  0  0  0  0  0  0  0  0  0  0  0
    0.4847    1.1770    0.9310 C   0  0  0  0  0  0  0  0  0  0  0  0
    1.0296    1.1051   -0.2976 O   0  0  0  0  0  0  0  0  0  0  0  0
   -0.7240    1.0125    1.1031 O   0  0  0  0  0  0  0  0  0  0  0  0
    0.8069    2.0200    3.2302 N   0  0  0  0  0  0  0  0  0  0  0  0
    2.2122    2.2808    1.6381 H   0  0  0  0  0  0  0  0  0  0  0  0
    2.7518   -0.1384    1.3514 H   0  0  0  0  0  0  0  0  0  0  0  0
    3.2040    0.4946    2.9858 H   0  0  0  0  0  0  0  0  0  0  0  0
    1.1180   -0.5545    3.9714 H   0  0  0  0  0  0  0  0  0  0  0  0
    0.6637   -1.1772    2.3290 H   0  0  0  0  0  0  0  0  0  0  0  0
    2.8143   -2.4570    2.1963 H   0  0  0  0  0  0  0  0  0  0  0  0
    3.3351   -1.7721    3.8018 H   0  0  0  0  0  0  0  0  0  0  0  0
    0.8562   -2.9607    4.2838 H   0  0  0  0  0  0  0  0  0  0  0  0
    0.7280   -5.1237    5.2213 H   0  0  0  0  0  0  0  0  0  0  0  0
    4.1812   -4.1773    3.2364 H   0  0  0  0  0  0  0  0  0  0  0  0
    4.0029   -5.7347    3.9513 H   0  0  0  0  0  0  0  0  0  0  0  0
    0.3364    0.9140   -0.9620 H   0  0  0  0  0  0  0  0  0  0  0  0
    1.3768    1.8525    4.0655 H   0  0  0  0  0  0  0  0  0  0  0  0
   -0.1034    1.5475    3.3354 H   0  0  0  0  0  0  0  0  0  0  0  0
    0.6390    3.0248    3.1168 H   0  0  0  0  0  0  0  0  0  0  0  0
  1  2  1  0
  1  9  1  0
  1 12  1  0
  1 13  1  6
  2  3  1  0
  2 14  1  0
  2 15  1  0
  3  4  1  0
  3 16  1  0
  3 17  1  0
  4  5  1  0
  4 18  1  0
  4 19  1  0
  5  6  1  0
  5 20  1  0
  6  7  2  0
  6  8  1  0
  7 21  1  0
  8 22  1  0
  8 23  1  0
  9 10  1  0
  9 11  2  0
 10 24  1  0
 12 25  1  0
 12 26  1  0
 12 27  1  0
M  CHG  1  12   1
M  END
