
     RDKit          3D

 55 57  0  0  0  0  0  0  0  0999 V2000
    5.2863   -1.0196   -0.4324 C   0  0  0  0  0  0  0  0  0  0  0  0
   -2.0260    3.4418    2.1341 C   0  0  0  0  0  0  0  0  0  0  0  0
    6.6650    0.7252    0.0226 C   0  0  0  0  0  0  0  0  0  0  0  0
    4.1714   -0.2366   -0.0338 C   0  0  0  0  0  0  0  0  0  0  0  0
    0.3857   -1.7664   -0.0634 C   0  0  1  0  0  0  0  0  0  0  0  0
    0.2609   -2.8673    1.0019 C   0  0  0  0  0  0  0  0  0  0  0  0
   -0.6697   -0.6994    0.1571 C   0  0  0  0  0  0  0  0  0  0  0  0
   -0.3986    0.4567    0.8671 C   0  0  0  0  0  0  0  0  0  0  0  0
   -1.4067    1.3918    1.1098 C   0  0  0  0  0  0  0  0  0  0  0  0
   -2.6944    1.1606    0.6383 C   0  0  0  0  0  0  0  0  0  0  0  0
   -2.9691   -0.0054   -0.0755 C   0  0  0  0  0  0  0  0  0  0  0  0
   -5.2077   -1.0713    0.1758 C   0  0  0  0  0  0  0  0  0  0  0  0
   -6.4995   -1.2938   -0.2935 C   0  0  0  0  0  0  0  0  0  0  0  0
   -6.9317   -0.7191   -1.4788 C   0  0  0  0  0  0  0  0  0  0  0  0
   -6.0727    0.0864   -2.2104 C   0  0  0  0  0  0  0  0  0  0  0  0
   -4.7749    0.3299   -1.7677 C   0  0  0  0  0  0  0  0  0  0  0  0
   -3.8537    1.2053   -2.5685 C   0  0  0  0  0  0  0  0  0  0  0  0
   -4.3487   -0.2547   -0.5693 C   0  0  0  0  0  0  0  0  0  0  0  0
   -1.9616   -0.9270   -0.3156 C   0  0  0  0  0  0  0  0  0  0  0  0
   -1.0398    2.4833    1.8081 O   0  0  0  0  0  0  0  0  0  0  0  0
    1.7379   -1.2161   -0.0815 C   0  0  0  0  0  0  0  0  0  0  0  0
    2.8567   -0.7618   -0.0590 C   0  0  0  0  0  0  0  0  0  0  0  0
    4.4511    1.0631    0.3863 C   0  0  0  0  0  0  0  0  0  0  0  0
    3.3469    1.9661    0.8344 C   0  0  0  0  0  0  0  0  0  0  0  0
    5.6847    1.5491    0.4156 N   0  0  0  0  0  0  0  0  0  0  0  0
    7.9197    1.2087    0.0845 N   0  0  0  0  0  0  0  0  0  0  0  0
    6.5211   -0.5287   -0.3990 N   0  0  0  0  0  0  0  0  0  0  0  0
    5.1298   -2.2803   -0.8485 N   0  0  0  0  0  0  0  0  0  0  0  0
   -1.5246    4.2195    2.7048 H   0  0  0  0  0  0  0  0  0  0  0  0
   -2.4716    3.8923    1.2432 H   0  0  0  0  0  0  0  0  0  0  0  0
   -2.8232    3.0148    2.7484 H   0  0  0  0  0  0  0  0  0  0  0  0
    0.1941   -2.2230   -1.0402 H   0  0  0  0  0  0  0  0  0  0  0  0
   -0.7397   -3.2992    0.9834 H   0  0  0  0  0  0  0  0  0  0  0  0
    0.9797   -3.6650    0.8164 H   0  0  0  0  0  0  0  0  0  0  0  0
    0.4421   -2.4614    1.9968 H   0  0  0  0  0  0  0  0  0  0  0  0
    0.5999    0.6524    1.2394 H   0  0  0  0  0  0  0  0  0  0  0  0
   -3.4946    1.8686    0.8106 H   0  0  0  0  0  0  0  0  0  0  0  0
   -3.9673   -2.4394    1.2919 H   0  0  0  0  0  0  0  0  0  0  0  0
   -4.3357   -0.9568    2.1460 H   0  0  0  0  0  0  0  0  0  0  0  0
   -5.5748   -2.1996    1.9681 H   0  0  0  0  0  0  0  0  0  0  0  0
   -7.1715   -1.9239    0.2768 H   0  0  0  0  0  0  0  0  0  0  0  0
   -7.9393   -0.8985   -1.8320 H   0  0  0  0  0  0  0  0  0  0  0  0
   -6.4105    0.5334   -3.1377 H   0  0  0  0  0  0  0  0  0  0  0  0
   -3.5925    2.1160   -2.0269 H   0  0  0  0  0  0  0  0  0  0  0  0
   -2.9154    0.6987   -2.7990 H   0  0  0  0  0  0  0  0  0  0  0  0
   -4.3154    1.5000   -3.5097 H   0  0  0  0  0  0  0  0  0  0  0  0
   -2.1837   -1.8292   -0.8745 H   0  0  0  0  0  0  0  0  0  0  0  0
    2.8764    1.5784    1.7404 H   0  0  0  0  0  0  0  0  0  0  0  0
    3.7274    2.9630    1.0439 H   0  0  0  0  0  0  0  0  0  0  0  0
    2.5634    2.0380    0.0789 H   0  0  0  0  0  0  0  0  0  0  0  0
    8.0530    2.1959    0.2177 H   0  0  0  0  0  0  0  0  0  0  0  0
    8.6627    0.6969   -0.3582 H   0  0  0  0  0  0  0  0  0  0  0  0
    4.2177   -2.6891   -0.9527 H   0  0  0  0  0  0  0  0  0  0  0  0
    5.9268   -2.8088   -1.1584 H   0  0  0  0  0  0  0  0  0  0  0  0
   -4.7506   -1.6987    1.4622 C   0  0  0  0  0  0  0  0  0  0  0  0
 28  1  1  0
 27  1  2  0
  1  4  1  0
  2 20  1  0
  2 29  1  0
  2 30  1  0
  2 31  1  0
 27  3  1  0
 26  3  1  0
  3 25  2  0
  4 22  1  0
  4 23  2  0
  7  5  1  0
 21  5  1  0
  5  6  1  0
  5 32  1  6
  6 33  1  0
  6 34  1  0
  6 35  1  0
  8  7  2  0
  7 19  1  0
  9  8  1  0
  8 36  1  0
 20  9  1  0
  9 10  2  0
 10 11  1  0
 10 37  1  0
 11 18  1  0
 11 19  2  0
 12 55  1  0
 55 38  1  0
 55 39  1  0
 55 40  1  0
 18 12  2  0
 12 13  1  0
 14 13  2  0
 13 41  1  0
 15 14  1  0
 14 42  1  0
 16 15  2  0
 15 43  1  0
 17 16  1  0
 16 18  1  0
 17 44  1  0
 17 45  1  0
 17 46  1  0
 19 47  1  0
 22 21  3  0
 25 23  1  0
 23 24  1  0
 24 48  1  0
 24 49  1  0
 24 50  1  0
 26 51  1  0
 26 52  1  0
 28 53  1  0
 28 54  1  0
M  END
