
     RDKit          3D

 70 74  0  0  0  0  0  0  0  0999 V2000
   -1.1885   -0.5525   -2.7037 O   0  0  0  0  0  0  0  0  0  0  0  0
   -2.0980    0.1680   -1.8282 S   0  0  1  0  0  0  0  0  0  0  0  0
   -1.3370    0.4523   -0.4011 N   0  0  0  0  0  0  0  0  0  0  0  0
   -1.8784    1.4840    0.4897 C   0  0  0  0  0  0  0  0  0  0  0  0
   -2.2238    0.9629    1.8619 C   0  0  0  0  0  0  0  0  0  0  0  0
   -3.2365    0.0245    2.0498 C   0  0  0  0  0  0  0  0  0  0  0  0
   -3.5378   -0.4456    3.3186 C   0  0  0  0  0  0  0  0  0  0  0  0
   -2.8288    0.0161    4.4220 C   0  0  0  0  0  0  0  0  0  0  0  0
   -1.8185    0.9497    4.2458 C   0  0  0  0  0  0  0  0  0  0  0  0
   -1.5186    1.4162    2.9714 C   0  0  0  0  0  0  0  0  0  0  0  0
   -0.2468   -0.3608    0.1513 C   0  0  1  0  0  0  0  0  0  0  0  0
   -0.5950   -1.8115    0.5024 C   0  0  0  0  0  0  0  0  0  0  0  0
   -0.0228   -2.5757   -0.5917 N   0  0  0  0  0  0  0  0  0  0  0  0
    1.2891   -1.9986   -0.8179 C   0  0  0  0  0  0  0  0  0  0  0  0
    1.0218   -0.4849   -0.7358 C   0  0  2  0  0  0  0  0  0  0  0  0
    2.1545    0.3535   -0.3466 N   0  0  0  0  0  0  0  0  0  0  0  0
    3.0919    0.0281    0.9588 S   0  0  1  0  0  0  0  0  0  0  0  0
    2.2738   -0.6439    1.9569 O   0  0  0  0  0  0  0  0  0  0  0  0
    4.3483   -1.1128    0.4296 C   0  0  0  0  0  0  0  0  0  0  0  0
    5.2413   -0.7104   -0.5567 C   0  0  0  0  0  0  0  0  0  0  0  0
    6.2380   -1.5836   -0.9602 C   0  0  0  0  0  0  0  0  0  0  0  0
    6.3463   -2.8390   -0.3730 C   0  0  0  0  0  0  0  0  0  0  0  0
    5.4567   -3.2235    0.6196 C   0  0  0  0  0  0  0  0  0  0  0  0
    4.4499   -2.3594    1.0288 C   0  0  0  0  0  0  0  0  0  0  0  0
    3.7870    1.2570    1.3165 O   0  0  0  0  0  0  0  0  0  0  0  0
    2.4157    1.5382   -1.1671 C   0  0  0  0  0  0  0  0  0  0  0  0
    1.4139    2.6458   -0.9540 C   0  0  0  0  0  0  0  0  0  0  0  0
    0.4662    2.9301   -1.9292 C   0  0  0  0  0  0  0  0  0  0  0  0
   -0.4398    3.9700   -1.7587 C   0  0  0  0  0  0  0  0  0  0  0  0
   -0.4034    4.7393   -0.6058 C   0  0  0  0  0  0  0  0  0  0  0  0
    0.5327    4.4542    0.3826 C   0  0  0  0  0  0  0  0  0  0  0  0
    1.4300    3.4107    0.2127 C   0  0  0  0  0  0  0  0  0  0  0  0
   -2.6560    1.4331   -2.2820 O   0  0  0  0  0  0  0  0  0  0  0  0
   -3.4787   -0.9053   -1.5113 C   0  0  0  0  0  0  0  0  0  0  0  0
   -3.2792   -2.2803   -1.4931 C   0  0  0  0  0  0  0  0  0  0  0  0
   -4.3544   -3.1113   -1.2181 C   0  0  0  0  0  0  0  0  0  0  0  0
   -5.6112   -2.5728   -0.9715 C   0  0  0  0  0  0  0  0  0  0  0  0
   -5.7998   -1.1977   -1.0040 C   0  0  0  0  0  0  0  0  0  0  0  0
   -4.7332   -0.3543   -1.2801 C   0  0  0  0  0  0  0  0  0  0  0  0
   -1.1374    2.2811    0.5735 H   0  0  0  0  0  0  0  0  0  0  0  0
   -2.7569    1.9386    0.0346 H   0  0  0  0  0  0  0  0  0  0  0  0
   -3.7990   -0.3429    1.1997 H   0  0  0  0  0  0  0  0  0  0  0  0
   -4.3300   -1.1719    3.4475 H   0  0  0  0  0  0  0  0  0  0  0  0
   -3.0636   -0.3521    5.4122 H   0  0  0  0  0  0  0  0  0  0  0  0
   -1.2568    1.3115    5.0972 H   0  0  0  0  0  0  0  0  0  0  0  0
   -0.7233    2.1415    2.8412 H   0  0  0  0  0  0  0  0  0  0  0  0
    0.0248    0.1611    1.0648 H   0  0  0  0  0  0  0  0  0  0  0  0
   -0.1441   -2.0515    1.4739 H   0  0  0  0  0  0  0  0  0  0  0  0
   -1.6678   -1.9765    0.5951 H   0  0  0  0  0  0  0  0  0  0  0  0
    0.0431   -3.5595   -0.3672 H   0  0  0  0  0  0  0  0  0  0  0  0
    2.0165   -2.3225   -0.0679 H   0  0  0  0  0  0  0  0  0  0  0  0
    1.6867   -2.2746   -1.7956 H   0  0  0  0  0  0  0  0  0  0  0  0
    0.7792   -0.1492   -1.7384 H   0  0  0  0  0  0  0  0  0  0  0  0
    5.1706    0.2676   -1.0157 H   0  0  0  0  0  0  0  0  0  0  0  0
    6.9334   -1.2818   -1.7317 H   0  0  0  0  0  0  0  0  0  0  0  0
    7.1259   -3.5177   -0.6924 H   0  0  0  0  0  0  0  0  0  0  0  0
    5.5421   -4.1986    1.0796 H   0  0  0  0  0  0  0  0  0  0  0  0
    3.7558   -2.6646    1.7997 H   0  0  0  0  0  0  0  0  0  0  0  0
    3.4186    1.9092   -0.9649 H   0  0  0  0  0  0  0  0  0  0  0  0
    2.4090    1.2256   -2.2135 H   0  0  0  0  0  0  0  0  0  0  0  0
    0.4358    2.3355   -2.8347 H   0  0  0  0  0  0  0  0  0  0  0  0
   -1.1744    4.1736   -2.5263 H   0  0  0  0  0  0  0  0  0  0  0  0
   -1.1040    5.5535   -0.4731 H   0  0  0  0  0  0  0  0  0  0  0  0
    0.5626    5.0477    1.2874 H   0  0  0  0  0  0  0  0  0  0  0  0
    2.1568    3.2004    0.9867 H   0  0  0  0  0  0  0  0  0  0  0  0
   -2.2952   -2.6962   -1.6730 H   0  0  0  0  0  0  0  0  0  0  0  0
   -4.2097   -4.1832   -1.1996 H   0  0  0  0  0  0  0  0  0  0  0  0
   -6.4460   -3.2269   -0.7575 H   0  0  0  0  0  0  0  0  0  0  0  0
   -6.7791   -0.7776   -0.8182 H   0  0  0  0  0  0  0  0  0  0  0  0
   -4.8849    0.7162   -1.3072 H   0  0  0  0  0  0  0  0  0  0  0  0
  1  2  2  0
  2 34  1  0
  2 33  2  0
  2  3  1  1
  3  4  1  0
  3 11  1  0
  4  5  1  0
  4 40  1  0
  4 41  1  0
  5 10  1  0
  5  6  2  0
  6  7  1  0
  6 42  1  0
  7  8  2  0
  7 43  1  0
  8  9  1  0
  8 44  1  0
  9 10  2  0
  9 45  1  0
 10 46  1  0
 11 12  1  0
 11 15  1  0
 11 47  1  1
 12 13  1  0
 12 48  1  0
 12 49  1  0
 13 14  1  0
 13 50  1  0
 14 15  1  0
 14 51  1  0
 14 52  1  0
 15 16  1  0
 15 53  1  6
 16 26  1  0
 17 16  1  6
 17 18  2  0
 17 19  1  0
 17 25  2  0
 19 20  2  0
 19 24  1  0
 20 21  1  0
 20 54  1  0
 21 22  2  0
 21 55  1  0
 22 23  1  0
 22 56  1  0
 23 24  2  0
 23 57  1  0
 24 58  1  0
 26 27  1  0
 26 59  1  0
 26 60  1  0
 27 32  1  0
 27 28  2  0
 28 29  1  0
 28 61  1  0
 29 30  2  0
 29 62  1  0
 30 31  1  0
 30 63  1  0
 31 32  2  0
 31 64  1  0
 32 65  1  0
 34 39  1  0
 34 35  2  0
 35 36  1  0
 35 66  1  0
 36 37  2  0
 36 67  1  0
 37 38  1  0
 37 68  1  0
 38 39  2  0
 38 69  1  0
 39 70  1  0
M  END
