
     RDKit          3D

 29 31  0  0  0  0  0  0  0  0999 V2000
   -1.9511    0.8858   -0.0096 C   0  0  0  0  0  0  0  0  0  0  0  0
   -3.3247    1.0334   -0.0216 C   0  0  0  0  0  0  0  0  0  0  0  0
   -3.9443    2.2287   -0.0484 O   0  0  0  0  0  0  0  0  0  0  0  0
   -4.1473   -0.1042   -0.0065 C   0  0  0  0  0  0  0  0  0  0  0  0
   -5.4719    0.1010   -0.0202 O   0  0  0  0  0  0  0  0  0  0  0  0
   -3.5595   -1.3608    0.0202 C   0  0  0  0  0  0  0  0  0  0  0  0
   -2.1827   -1.5040    0.0312 C   0  0  0  0  0  0  0  0  0  0  0  0
   -1.3568   -0.3832    0.0163 C   0  0  0  0  0  0  0  0  0  0  0  0
    0.1005   -0.5223    0.0239 C   0  0  0  0  0  0  0  0  0  0  0  0
    0.7303    0.6586   -0.0270 O   0  0  0  0  0  0  0  0  0  0  0  0
    2.0800    0.7330   -0.0318 C   0  0  0  0  0  0  0  0  0  0  0  0
    2.6373    2.0071   -0.0872 C   0  0  0  0  0  0  0  0  0  0  0  0
    4.0117    2.1286   -0.0964 C   0  0  0  0  0  0  0  0  0  0  0  0
    4.8294    0.9959   -0.0512 C   0  0  0  0  0  0  0  0  0  0  0  0
    4.2621   -0.2589    0.0043 C   0  0  0  0  0  0  0  0  0  0  0  0
    2.8719   -0.4095    0.0148 C   0  0  0  0  0  0  0  0  0  0  0  0
    2.2295   -1.7292    0.0748 C   0  0  0  0  0  0  0  0  0  0  0  0
    2.8736   -2.7709    0.1223 O   0  0  0  0  0  0  0  0  0  0  0  0
    0.7886   -1.6884    0.0748 C   0  0  0  0  0  0  0  0  0  0  0  0
   -1.3405    1.7800   -0.0208 H   0  0  0  0  0  0  0  0  0  0  0  0
   -3.2957    2.9413   -0.0663 H   0  0  0  0  0  0  0  0  0  0  0  0
   -5.9431   -0.7404   -0.0149 H   0  0  0  0  0  0  0  0  0  0  0  0
   -4.1878   -2.2437    0.0309 H   0  0  0  0  0  0  0  0  0  0  0  0
   -1.7747   -2.5045    0.0487 H   0  0  0  0  0  0  0  0  0  0  0  0
    1.9963    2.8783   -0.1226 H   0  0  0  0  0  0  0  0  0  0  0  0
    4.4564    3.1139   -0.1401 H   0  0  0  0  0  0  0  0  0  0  0  0
    5.9051    1.1064   -0.0597 H   0  0  0  0  0  0  0  0  0  0  0  0
    4.8861   -1.1417    0.0399 H   0  0  0  0  0  0  0  0  0  0  0  0
    0.2553   -2.6267    0.1198 H   0  0  0  0  0  0  0  0  0  0  0  0
  5  4  1  0
  4  6  2  0
  4  2  1  0
  3  2  1  0
  6  7  1  0
  2  1  2  0
  7  8  2  0
  1  8  1  0
  8  9  1  0
  9 10  1  0
  9 19  2  0
 10 11  1  0
 19 17  1  0
 11 12  2  0
 11 16  1  0
 12 13  1  0
 17 16  1  0
 17 18  2  0
 16 15  2  0
 13 14  2  0
 15 14  1  0
  1 20  1  0
  3 21  1  0
  5 22  1  0
  6 23  1  0
  7 24  1  0
 12 25  1  0
 13 26  1  0
 14 27  1  0
 15 28  1  0
 19 29  1  0
M  END
