
     RDKit          3D

179181  0  0  0  0  0  0  0  0999 V2000
   -5.1920   -5.5504    3.8859 C   0  0  1  0  0  0  0  0  0  0  0  0
   -4.5992   -5.4560    2.4884 C   0  0  1  0  0  0  0  0  0  0  0  0
   -3.1489   -5.8778    2.4411 C   0  0  0  0  0  0  0  0  0  0  0  0
   -6.6694   -5.1697    3.8101 C   0  0  1  0  0  0  0  0  0  0  0  0
   25.9028    7.6783    0.4923 C   0  0  0  0  0  0  0  0  0  0  0  0
   24.8812    6.8481   -0.2724 C   0  0  0  0  0  0  0  0  0  0  0  0
   23.6099    6.5935    0.5284 C   0  0  0  0  0  0  0  0  0  0  0  0
   22.5773    5.7634   -0.2230 C   0  0  0  0  0  0  0  0  0  0  0  0
   21.3090    5.5087    0.5819 C   0  0  0  0  0  0  0  0  0  0  0  0
   20.2741    4.6809   -0.1693 C   0  0  0  0  0  0  0  0  0  0  0  0
   19.0048    4.4294    0.6352 C   0  0  0  0  0  0  0  0  0  0  0  0
   17.9662    3.6088   -0.1186 C   0  0  0  0  0  0  0  0  0  0  0  0
   16.6939    3.3644    0.6832 C   0  0  0  0  0  0  0  0  0  0  0  0
   15.6468    2.5613   -0.0777 C   0  0  0  0  0  0  0  0  0  0  0  0
   14.3688    2.3294    0.7189 C   0  0  0  0  0  0  0  0  0  0  0  0
   13.3026    1.5713   -0.0610 C   0  0  0  0  0  0  0  0  0  0  0  0
   12.0152    1.3571    0.7257 C   0  0  0  0  0  0  0  0  0  0  0  0
   10.9065    0.7160   -0.0996 C   0  0  0  0  0  0  0  0  0  0  0  0
    9.6108    0.5180    0.6777 C   0  0  0  0  0  0  0  0  0  0  0  0
    8.4380    0.0955   -0.1997 C   0  0  0  0  0  0  0  0  0  0  0  0
    7.1448   -0.0937    0.5835 C   0  0  0  0  0  0  0  0  0  0  0  0
    5.9266   -0.3388   -0.2975 C   0  0  0  0  0  0  0  0  0  0  0  0
    4.6430   -0.5319    0.5000 C   0  0  0  0  0  0  0  0  0  0  0  0
    3.3986   -0.6602   -0.3688 C   0  0  0  0  0  0  0  0  0  0  0  0
    2.1290   -0.8833    0.4406 C   0  0  0  0  0  0  0  0  0  0  0  0
    0.8785   -1.0177   -0.4163 C   0  0  0  0  0  0  0  0  0  0  0  0
   -0.3725   -1.2981    0.4039 C   0  0  0  0  0  0  0  0  0  0  0  0
   -1.6063   -1.5326   -0.4550 C   0  0  0  0  0  0  0  0  0  0  0  0
   -2.8224   -1.9457    0.3692 C   0  0  0  0  0  0  0  0  0  0  0  0
   -3.5879   -3.4666   -1.3239 O   0  0  0  0  0  0  0  0  0  0  0  0
   -5.1469   -2.4204   -0.0697 N   0  0  0  0  0  0  0  0  0  0  0  0
   -6.3085   -2.9823   -0.7334 C   0  0  2  0  0  0  0  0  0  0  0  0
   -7.5908   -2.1990   -0.3738 C   0  0  2  0  0  0  0  0  0  0  0  0
   -8.6610   -2.7335   -1.1149 O   0  0  0  0  0  0  0  0  0  0  0  0
   -7.4690   -0.6687   -0.5477 C   0  0  2  0  0  0  0  0  0  0  0  0
   -6.6052   -0.1350    0.4471 O   0  0  0  0  0  0  0  0  0  0  0  0
   -8.8262    0.0285   -0.5094 C   0  0  0  0  0  0  0  0  0  0  0  0
   -8.7392    1.5356   -0.7191 C   0  0  0  0  0  0  0  0  0  0  0  0
  -10.0907    2.2247   -0.5724 C   0  0  0  0  0  0  0  0  0  0  0  0
  -10.0211    3.7267   -0.8149 C   0  0  0  0  0  0  0  0  0  0  0  0
  -11.3497    4.4391   -0.5959 C   0  0  0  0  0  0  0  0  0  0  0  0
  -11.2748    5.9378   -0.8582 C   0  0  0  0  0  0  0  0  0  0  0  0
  -12.5877    6.6659   -0.5998 C   0  0  0  0  0  0  0  0  0  0  0  0
  -12.5071    8.1620   -0.8751 C   0  0  0  0  0  0  0  0  0  0  0  0
  -13.8087    8.9014   -0.5933 C   0  0  0  0  0  0  0  0  0  0  0  0
  -13.7232   10.3960   -0.8761 C   0  0  0  0  0  0  0  0  0  0  0  0
  -15.0169   11.1434   -0.5795 C   0  0  0  0  0  0  0  0  0  0  0  0
  -14.9270   12.6370   -0.8655 C   0  0  0  0  0  0  0  0  0  0  0  0
  -16.2146   13.3913   -0.5583 C   0  0  0  0  0  0  0  0  0  0  0  0
  -16.1089   14.8823   -0.8478 C   0  0  0  0  0  0  0  0  0  0  0  0
   -6.4657   -4.4674   -0.4306 C   0  0  0  0  0  0  0  0  0  0  0  0
   -6.8090   -4.6268    0.9306 O   0  0  0  0  0  0  0  0  0  0  0  0
   -6.6583   -5.9153    1.4173 C   0  0  1  0  0  0  0  0  0  0  0  0
   -5.3087   -6.2680    1.5692 O   0  0  0  0  0  0  0  0  0  0  0  0
   -7.3762   -6.0250    2.7658 C   0  0  2  0  0  0  0  0  0  0  0  0
   -8.7172   -5.6090    2.6982 O   0  0  0  0  0  0  0  0  0  0  0  0
   -7.2229   -5.3475    5.0925 O   0  0  0  0  0  0  0  0  0  0  0  0
   -5.0073   -6.8552    4.3767 O   0  0  0  0  0  0  0  0  0  0  0  0
   -2.6570   -5.4432    1.1758 O   0  0  0  0  0  0  0  0  0  0  0  0
   -1.3507   -5.5528    0.9365 C   0  0  0  0  0  0  0  0  0  0  0  0
   -0.5719   -6.1256    1.6641 O   0  0  0  0  0  0  0  0  0  0  0  0
   -1.0593   -4.9311   -0.2349 N   0  0  0  0  0  0  0  0  0  0  0  0
    0.2202   -4.7470   -0.7736 C   0  0  0  0  0  0  0  0  0  0  0  0
    0.3373   -4.6577   -2.1937 C   0  0  0  0  0  0  0  0  0  0  0  0
   -0.7621   -4.8351   -3.0691 C   0  0  0  0  0  0  0  0  0  0  0  0
   -0.6108   -4.7127   -4.4240 C   0  0  0  0  0  0  0  0  0  0  0  0
    0.6473   -4.4068   -4.9790 C   0  0  0  0  0  0  0  0  0  0  0  0
    1.7315   -4.2485   -4.1615 C   0  0  0  0  0  0  0  0  0  0  0  0
    1.6114   -4.3755   -2.7572 C   0  0  0  0  0  0  0  0  0  0  0  0
    2.7371   -4.2374   -1.9146 C   0  0  0  0  0  0  0  0  0  0  0  0
    2.5953   -4.3605   -0.5621 C   0  0  0  0  0  0  0  0  0  0  0  0
    1.3357   -4.5998    0.0149 C   0  0  0  0  0  0  0  0  0  0  0  0
   -4.6758   -4.8128    4.5191 H   0  0  0  0  0  0  0  0  0  0  0  0
   -4.6525   -4.3997    2.1917 H   0  0  0  0  0  0  0  0  0  0  0  0
   -2.5984   -5.3920    3.2506 H   0  0  0  0  0  0  0  0  0  0  0  0
   -3.0407   -6.9586    2.5490 H   0  0  0  0  0  0  0  0  0  0  0  0
   -6.7284   -4.1153    3.5032 H   0  0  0  0  0  0  0  0  0  0  0  0
   25.4966    8.6571    0.7542 H   0  0  0  0  0  0  0  0  0  0  0  0
   26.1919    7.1845    1.4219 H   0  0  0  0  0  0  0  0  0  0  0  0
   26.8094    7.8414   -0.0915 H   0  0  0  0  0  0  0  0  0  0  0  0
   24.6233    7.3532   -1.2086 H   0  0  0  0  0  0  0  0  0  0  0  0
   25.3259    5.8898   -0.5589 H   0  0  0  0  0  0  0  0  0  0  0  0
   23.8684    6.0887    1.4661 H   0  0  0  0  0  0  0  0  0  0  0  0
   23.1651    7.5530    0.8163 H   0  0  0  0  0  0  0  0  0  0  0  0
   22.3172    6.2693   -1.1595 H   0  0  0  0  0  0  0  0  0  0  0  0
   23.0227    4.8047   -0.5122 H   0  0  0  0  0  0  0  0  0  0  0  0
   21.5689    5.0016    1.5178 H   0  0  0  0  0  0  0  0  0  0  0  0
   20.8649    6.4676    0.8724 H   0  0  0  0  0  0  0  0  0  0  0  0
   20.0152    5.1879   -1.1056 H   0  0  0  0  0  0  0  0  0  0  0  0
   20.7171    3.7213   -0.4590 H   0  0  0  0  0  0  0  0  0  0  0  0
   19.2625    3.9188    1.5698 H   0  0  0  0  0  0  0  0  0  0  0  0
   18.5650    5.3895    0.9280 H   0  0  0  0  0  0  0  0  0  0  0  0
   17.7116    4.1190   -1.0544 H   0  0  0  0  0  0  0  0  0  0  0  0
   18.4036    2.6470   -0.4094 H   0  0  0  0  0  0  0  0  0  0  0  0
   16.9456    2.8453    1.6147 H   0  0  0  0  0  0  0  0  0  0  0  0
   16.2638    4.3272    0.9820 H   0  0  0  0  0  0  0  0  0  0  0  0
   15.4007    3.0812   -1.0105 H   0  0  0  0  0  0  0  0  0  0  0  0
   16.0721    1.5960   -0.3744 H   0  0  0  0  0  0  0  0  0  0  0  0
   14.6081    1.7860    1.6398 H   0  0  0  0  0  0  0  0  0  0  0  0
   13.9615    3.2958    1.0372 H   0  0  0  0  0  0  0  0  0  0  0  0
   13.0725    2.1210   -0.9808 H   0  0  0  0  0  0  0  0  0  0  0  0
   13.7015    0.6026   -0.3817 H   0  0  0  0  0  0  0  0  0  0  0  0
   12.2239    0.7443    1.6096 H   0  0  0  0  0  0  0  0  0  0  0  0
   11.6609    2.3223    1.1052 H   0  0  0  0  0  0  0  0  0  0  0  0
   10.7067    1.3472   -0.9729 H   0  0  0  0  0  0  0  0  0  0  0  0
   11.2492   -0.2461   -0.4957 H   0  0  0  0  0  0  0  0  0  0  0  0
    9.7641   -0.2222    1.4704 H   0  0  0  0  0  0  0  0  0  0  0  0
    9.3496    1.4539    1.1844 H   0  0  0  0  0  0  0  0  0  0  0  0
    8.2846    0.8557   -0.9737 H   0  0  0  0  0  0  0  0  0  0  0  0
    8.6854   -0.8309   -0.7291 H   0  0  0  0  0  0  0  0  0  0  0  0
    7.2634   -0.9244    1.2881 H   0  0  0  0  0  0  0  0  0  0  0  0
    6.9646    0.7959    1.1979 H   0  0  0  0  0  0  0  0  0  0  0  0
    5.8037    0.5071   -0.9835 H   0  0  0  0  0  0  0  0  0  0  0  0
    6.0969   -1.2169   -0.9304 H   0  0  0  0  0  0  0  0  0  0  0  0
    4.7397   -1.4229    1.1312 H   0  0  0  0  0  0  0  0  0  0  0  0
    4.5146    0.3109    1.1889 H   0  0  0  0  0  0  0  0  0  0  0  0
    3.2897    0.2420   -0.9815 H   0  0  0  0  0  0  0  0  0  0  0  0
    3.5247   -1.4910   -1.0718 H   0  0  0  0  0  0  0  0  0  0  0  0
    2.2446   -1.7899    1.0454 H   0  0  0  0  0  0  0  0  0  0  0  0
    1.9989   -0.0594    1.1520 H   0  0  0  0  0  0  0  0  0  0  0  0
    0.7374   -0.1060   -1.0077 H   0  0  0  0  0  0  0  0  0  0  0  0
    1.0237   -1.8306   -1.1362 H   0  0  0  0  0  0  0  0  0  0  0  0
   -0.1983   -2.1864    1.0217 H   0  0  0  0  0  0  0  0  0  0  0  0
   -0.5500   -0.4737    1.1035 H   0  0  0  0  0  0  0  0  0  0  0  0
   -1.8432   -0.6301   -1.0259 H   0  0  0  0  0  0  0  0  0  0  0  0
   -1.3784   -2.3020   -1.1956 H   0  0  0  0  0  0  0  0  0  0  0  0
   -2.5116   -2.6346    1.1621 H   0  0  0  0  0  0  0  0  0  0  0  0
   -3.2467   -1.0797    0.8820 H   0  0  0  0  0  0  0  0  0  0  0  0
   -5.3116   -1.6590    0.5728 H   0  0  0  0  0  0  0  0  0  0  0  0
   -6.1627   -2.8958   -1.8184 H   0  0  0  0  0  0  0  0  0  0  0  0
   -7.8413   -2.3852    0.6760 H   0  0  0  0  0  0  0  0  0  0  0  0
   -8.4982   -2.5813   -2.0528 H   0  0  0  0  0  0  0  0  0  0  0  0
   -6.9849   -0.4512   -1.5082 H   0  0  0  0  0  0  0  0  0  0  0  0
   -7.0919   -0.0964    1.2787 H   0  0  0  0  0  0  0  0  0  0  0  0
   -9.4802   -0.3985   -1.2710 H   0  0  0  0  0  0  0  0  0  0  0  0
   -9.3057   -0.1858    0.4546 H   0  0  0  0  0  0  0  0  0  0  0  0
   -8.0371    1.9789   -0.0080 H   0  0  0  0  0  0  0  0  0  0  0  0
   -8.3328    1.7378   -1.7161 H   0  0  0  0  0  0  0  0  0  0  0  0
  -10.8121    1.7767   -1.2647 H   0  0  0  0  0  0  0  0  0  0  0  0
  -10.4816    2.0373    0.4339 H   0  0  0  0  0  0  0  0  0  0  0  0
   -9.2641    4.1655   -0.1552 H   0  0  0  0  0  0  0  0  0  0  0  0
   -9.6720    3.9116   -1.8369 H   0  0  0  0  0  0  0  0  0  0  0  0
  -12.1150    3.9944   -1.2419 H   0  0  0  0  0  0  0  0  0  0  0  0
  -11.6870    4.2674    0.4324 H   0  0  0  0  0  0  0  0  0  0  0  0
  -10.4894    6.3764   -0.2324 H   0  0  0  0  0  0  0  0  0  0  0  0
  -10.9621    6.1073   -1.8946 H   0  0  0  0  0  0  0  0  0  0  0  0
  -13.3781    6.2244   -1.2172 H   0  0  0  0  0  0  0  0  0  0  0  0
  -12.8932    6.5050    0.4401 H   0  0  0  0  0  0  0  0  0  0  0  0
  -11.7045    8.5992   -0.2704 H   0  0  0  0  0  0  0  0  0  0  0  0
  -12.2166    8.3216   -1.9195 H   0  0  0  0  0  0  0  0  0  0  0  0
  -14.6144    8.4632   -1.1930 H   0  0  0  0  0  0  0  0  0  0  0  0
  -14.0949    8.7470    0.4532 H   0  0  0  0  0  0  0  0  0  0  0  0
  -12.9098   10.8310   -0.2844 H   0  0  0  0  0  0  0  0  0  0  0  0
  -13.4464   10.5496   -1.9252 H   0  0  0  0  0  0  0  0  0  0  0  0
  -15.8321   10.7085   -1.1687 H   0  0  0  0  0  0  0  0  0  0  0  0
  -15.2912   10.9922    0.4706 H   0  0  0  0  0  0  0  0  0  0  0  0
  -14.1066   13.0698   -0.2817 H   0  0  0  0  0  0  0  0  0  0  0  0
  -14.6594   12.7887   -1.9173 H   0  0  0  0  0  0  0  0  0  0  0  0
  -17.0348   12.9599   -1.1406 H   0  0  0  0  0  0  0  0  0  0  0  0
  -16.4793   13.2404    0.4931 H   0  0  0  0  0  0  0  0  0  0  0  0
  -15.3154   15.3411   -0.2548 H   0  0  0  0  0  0  0  0  0  0  0  0
  -15.8781   15.0634   -1.8992 H   0  0  0  0  0  0  0  0  0  0  0  0
  -17.0381   15.4047   -0.6171 H   0  0  0  0  0  0  0  0  0  0  0  0
   -7.2450   -4.8920   -1.0735 H   0  0  0  0  0  0  0  0  0  0  0  0
   -5.5296   -4.9779   -0.6683 H   0  0  0  0  0  0  0  0  0  0  0  0
   -7.0689   -6.6529    0.7136 H   0  0  0  0  0  0  0  0  0  0  0  0
   -7.3074   -7.0754    3.0761 H   0  0  0  0  0  0  0  0  0  0  0  0
   -9.2485   -6.3299    2.3474 H   0  0  0  0  0  0  0  0  0  0  0  0
   -8.1819   -5.2918    5.0178 H   0  0  0  0  0  0  0  0  0  0  0  0
   -5.5263   -6.9422    5.1838 H   0  0  0  0  0  0  0  0  0  0  0  0
   -1.8426   -4.4907   -0.7116 H   0  0  0  0  0  0  0  0  0  0  0  0
   -1.7378   -5.0908   -2.6800 H   0  0  0  0  0  0  0  0  0  0  0  0
   -1.4632   -4.8579   -5.0745 H   0  0  0  0  0  0  0  0  0  0  0  0
    0.7530   -4.3082   -6.0514 H   0  0  0  0  0  0  0  0  0  0  0  0
    2.7047   -4.0229   -4.5806 H   0  0  0  0  0  0  0  0  0  0  0  0
    3.7049   -4.0287   -2.3535 H   0  0  0  0  0  0  0  0  0  0  0  0
    3.4510   -4.2478    0.0905 H   0  0  0  0  0  0  0  0  0  0  0  0
    1.2570   -4.6400    1.0901 H   0  0  0  0  0  0  0  0  0  0  0  0
   -3.8834   -2.6720   -0.4319 C   0  0  0  0  0  0  0  0  0  0  0  0
 12 13  1  0
 12 11  1  0
 13 14  1  0
 14 15  1  0
 11 10  1  0
 10  9  1  0
 71 72  1  0
 71 70  2  0
 15 16  1  0
 16 17  1  0
 72 63  2  0
 70 69  1  0
 63 62  1  0
 63 64  1  0
  9  8  1  0
 69 64  1  0
 69 68  2  0
 62 60  1  0
 64 65  2  0
 68 67  1  0
 17 18  1  0
 65 66  1  0
 67 66  2  0
 59 60  1  0
 59  3  1  0
 60 61  2  0
  8  7  1  0
  3  2  1  0
 18 19  1  0
  7  6  1  0
 54  2  1  0
 54 53  1  0
  2  1  1  0
 19 20  1  0
 58  1  1  0
 30179  2  0
  6  5  1  0
  1  4  1  0
 20 21  1  0
 53 52  1  0
 53 55  1  0
 51 52  1  0
 51 32  1  0
179 29  1  0
179 31  1  0
 28 29  1  0
 28 27  1  0
 55  4  1  0
 55 56  1  0
 32 31  1  0
 32 33  1  0
 26 27  1  0
 26 25  1  0
  4 57  1  0
 21 22  1  0
 23 22  1  0
 23 24  1  0
 24 25  1  0
 34 33  1  0
 33 35  1  0
 37 35  1  0
 37 38  1  0
 35 36  1  0
 38 39  1  0
 39 40  1  0
 40 41  1  0
 41 42  1  0
 42 43  1  0
 43 44  1  0
 44 45  1  0
 46 45  1  0
 46 47  1  0
 48 49  1  0
 48 47  1  0
 49 50  1  0
  1 73  1  1
  2 74  1  6
  3 75  1  0
  3 76  1  0
  4 77  1  6
  5 78  1  0
  5 79  1  0
  5 80  1  0
  6 81  1  0
  6 82  1  0
  7 83  1  0
  7 84  1  0
  8 85  1  0
  8 86  1  0
  9 87  1  0
  9 88  1  0
 10 89  1  0
 10 90  1  0
 11 91  1  0
 11 92  1  0
 12 93  1  0
 12 94  1  0
 13 95  1  0
 13 96  1  0
 14 97  1  0
 14 98  1  0
 15 99  1  0
 15100  1  0
 16101  1  0
 16102  1  0
 17103  1  0
 17104  1  0
 18105  1  0
 18106  1  0
 19107  1  0
 19108  1  0
 20109  1  0
 20110  1  0
 21111  1  0
 21112  1  0
 22113  1  0
 22114  1  0
 23115  1  0
 23116  1  0
 24117  1  0
 24118  1  0
 25119  1  0
 25120  1  0
 26121  1  0
 26122  1  0
 27123  1  0
 27124  1  0
 28125  1  0
 28126  1  0
 29127  1  0
 29128  1  0
 31129  1  0
 32130  1  6
 33131  1  1
 34132  1  0
 35133  1  6
 36134  1  0
 37135  1  0
 37136  1  0
 38137  1  0
 38138  1  0
 39139  1  0
 39140  1  0
 40141  1  0
 40142  1  0
 41143  1  0
 41144  1  0
 42145  1  0
 42146  1  0
 43147  1  0
 43148  1  0
 44149  1  0
 44150  1  0
 45151  1  0
 45152  1  0
 46153  1  0
 46154  1  0
 47155  1  0
 47156  1  0
 48157  1  0
 48158  1  0
 49159  1  0
 49160  1  0
 50161  1  0
 50162  1  0
 50163  1  0
 51164  1  0
 51165  1  0
 53166  1  6
 55167  1  1
 56168  1  0
 57169  1  0
 58170  1  0
 62171  1  0
 65172  1  0
 66173  1  0
 67174  1  0
 68175  1  0
 70176  1  0
 71177  1  0
 72178  1  0
M  END
