
     RDKit          3D

 57 58  0  0  0  0  0  0  0  0999 V2000
    1.7583   -1.8315    1.7104 O   0  0  0  0  0  0  0  0  0  0  0  0
    1.7814   -1.9235    0.4947 C   0  0  0  0  0  0  0  0  0  0  0  0
    1.8799   -3.0958   -0.1576 N   0  0  0  0  0  0  0  0  0  0  0  0
    2.1286   -4.2468    0.5266 O   0  0  0  0  0  0  0  0  0  0  0  0
    1.6831   -0.7227   -0.4258 C   0  0  1  0  0  0  0  0  0  0  0  0
    0.3935    0.0523   -0.1511 C   0  0  0  0  0  0  0  0  0  0  0  0
   -0.8722   -0.7690   -0.3629 C   0  0  0  0  0  0  0  0  0  0  0  0
   -2.1422    0.0484   -0.1670 C   0  0  0  0  0  0  0  0  0  0  0  0
   -3.3985   -0.7915   -0.3305 C   0  0  0  0  0  0  0  0  0  0  0  0
   -4.5987   -0.0031   -0.1217 N   0  0  0  0  0  0  0  0  0  0  0  0
   -5.8098   -0.7885   -0.2516 C   0  0  0  0  0  0  0  0  0  0  0  0
   -7.0420    0.0429   -0.0139 C   0  0  0  0  0  0  0  0  0  0  0  0
   -7.1790    1.3014   -0.5974 C   0  0  0  0  0  0  0  0  0  0  0  0
   -8.3208    2.0633   -0.3997 C   0  0  0  0  0  0  0  0  0  0  0  0
   -9.3303    1.5506    0.3938 C   0  0  0  0  0  0  0  0  0  0  0  0
   -9.2312    0.3116    0.9932 C   0  0  0  0  0  0  0  0  0  0  0  0
   -8.0770   -0.4330    0.7842 C   0  0  0  0  0  0  0  0  0  0  0  0
  -10.4405    2.2836    0.5899 F   0  0  0  0  0  0  0  0  0  0  0  0
    2.9124    0.1695   -0.2309 C   0  0  0  0  0  0  0  0  0  0  0  0
    4.2453   -0.5441   -0.4382 C   0  0  1  0  0  0  0  0  0  0  0  0
    4.2450   -1.0924   -1.7320 O   0  0  0  0  0  0  0  0  0  0  0  0
    5.2838   -2.0141   -1.9606 C   0  0  0  0  0  0  0  0  0  0  0  0
    5.3951    0.4115   -0.2095 C   0  0  0  0  0  0  0  0  0  0  0  0
    6.0505    0.4373    1.0158 C   0  0  0  0  0  0  0  0  0  0  0  0
    7.0709    1.3445    1.2686 C   0  0  0  0  0  0  0  0  0  0  0  0
    7.4314    2.2218    0.2655 C   0  0  0  0  0  0  0  0  0  0  0  0
    6.8097    2.2202   -0.9690 C   0  0  0  0  0  0  0  0  0  0  0  0
    5.7878    1.3107   -1.1975 C   0  0  0  0  0  0  0  0  0  0  0  0
    8.4206    3.1024    0.4940 F   0  0  0  0  0  0  0  0  0  0  0  0
    2.0393   -3.1489   -1.1533 H   0  0  0  0  0  0  0  0  0  0  0  0
    1.2719   -4.6742    0.6549 H   0  0  0  0  0  0  0  0  0  0  0  0
    1.6600   -1.0579   -1.4667 H   0  0  0  0  0  0  0  0  0  0  0  0
    0.4132    0.4461    0.8693 H   0  0  0  0  0  0  0  0  0  0  0  0
    0.3772    0.9205   -0.8167 H   0  0  0  0  0  0  0  0  0  0  0  0
   -0.8648   -1.1981   -1.3705 H   0  0  0  0  0  0  0  0  0  0  0  0
   -0.8868   -1.6166    0.3301 H   0  0  0  0  0  0  0  0  0  0  0  0
   -2.1331    0.4969    0.8328 H   0  0  0  0  0  0  0  0  0  0  0  0
   -2.1658    0.8780   -0.8799 H   0  0  0  0  0  0  0  0  0  0  0  0
   -3.4310   -1.2026   -1.3449 H   0  0  0  0  0  0  0  0  0  0  0  0
   -3.3466   -1.6588    0.3485 H   0  0  0  0  0  0  0  0  0  0  0  0
   -4.5702    0.3962    0.8100 H   0  0  0  0  0  0  0  0  0  0  0  0
   -5.8380   -1.1957   -1.2683 H   0  0  0  0  0  0  0  0  0  0  0  0
   -5.8319   -1.6604    0.4207 H   0  0  0  0  0  0  0  0  0  0  0  0
   -6.3796    1.6956   -1.2113 H   0  0  0  0  0  0  0  0  0  0  0  0
   -8.4238    3.0398   -0.8550 H   0  0  0  0  0  0  0  0  0  0  0  0
  -10.0316   -0.0658    1.6162 H   0  0  0  0  0  0  0  0  0  0  0  0
   -7.9852   -1.4032    1.2576 H   0  0  0  0  0  0  0  0  0  0  0  0
    2.8453    1.0155   -0.9213 H   0  0  0  0  0  0  0  0  0  0  0  0
    2.9052    0.5893    0.7782 H   0  0  0  0  0  0  0  0  0  0  0  0
    4.3363   -1.3515    0.3068 H   0  0  0  0  0  0  0  0  0  0  0  0
    5.2746   -2.8267   -1.2245 H   0  0  0  0  0  0  0  0  0  0  0  0
    5.1332   -2.4435   -2.9502 H   0  0  0  0  0  0  0  0  0  0  0  0
    6.2732   -1.5460   -1.9356 H   0  0  0  0  0  0  0  0  0  0  0  0
    5.7655   -0.2624    1.7929 H   0  0  0  0  0  0  0  0  0  0  0  0
    7.5778    1.3616    2.2247 H   0  0  0  0  0  0  0  0  0  0  0  0
    7.1164    2.9158   -1.7393 H   0  0  0  0  0  0  0  0  0  0  0  0
    5.2989    1.3051   -2.1636 H   0  0  0  0  0  0  0  0  0  0  0  0
 16 17  2  0
 16 15  1  0
 18 15  1  0
 17 12  1  0
 15 14  2  0
  9  8  1  0
  9 10  1  0
  7  8  1  0
  7  6  1  0
 12 11  1  0
 12 13  2  0
 14 13  1  0
  6  5  1  0
 11 10  1  0
  5 19  1  0
  5  2  1  0
 19 20  1  0
 21 22  1  0
 21 20  1  0
 28 27  2  0
 28 23  1  0
  2  3  1  0
  2  1  2  0
 20 23  1  0
  3  4  1  0
 27 26  1  0
 23 24  2  0
 26 29  1  0
 26 25  2  0
 24 25  1  0
  3 30  1  0
  4 31  1  0
  5 32  1  6
  6 33  1  0
  6 34  1  0
  7 35  1  0
  7 36  1  0
  8 37  1  0
  8 38  1  0
  9 39  1  0
  9 40  1  0
 10 41  1  0
 11 42  1  0
 11 43  1  0
 13 44  1  0
 14 45  1  0
 16 46  1  0
 17 47  1  0
 19 48  1  0
 19 49  1  0
 20 50  1  1
 22 51  1  0
 22 52  1  0
 22 53  1  0
 24 54  1  0
 25 55  1  0
 27 56  1  0
 28 57  1  0
M  END
