
     RDKit          3D

 55 59  0  0  0  0  0  0  0  0999 V2000
    3.6152   -0.8540    0.3325 C   0  0  0  0  0  0  0  0  0  0  0  0
    2.6275    0.1434    0.3602 C   0  0  0  0  0  0  0  0  0  0  0  0
    1.3124   -0.1683    0.7279 C   0  0  0  0  0  0  0  0  0  0  0  0
    6.9420    0.1368   -0.9303 C   0  0  0  0  0  0  0  0  0  0  0  0
   -5.2966    0.5734   -0.7342 C   0  0  0  0  0  0  0  0  0  0  0  0
    0.2676    0.8820    0.7629 C   0  0  0  0  0  0  0  0  0  0  0  0
   -1.8596    1.7346   -0.0328 C   0  0  0  0  0  0  0  0  0  0  0  0
    3.2502   -2.1596    0.6684 C   0  0  0  0  0  0  0  0  0  0  0  0
    0.9886   -1.4833    1.0438 C   0  0  0  0  0  0  0  0  0  0  0  0
    0.3700    1.9754    1.6237 C   0  0  0  0  0  0  0  0  0  0  0  0
   -0.6294    2.9383    1.6543 C   0  0  0  0  0  0  0  0  0  0  0  0
   -7.9789   -0.7007   -1.4524 C   0  0  0  0  0  0  0  0  0  0  0  0
    4.9985   -0.5588   -0.0402 C   0  0  0  0  0  0  0  0  0  0  0  0
    6.0247   -1.3198    0.4841 N   0  0  0  0  0  0  0  0  0  0  0  0
    5.5333    0.3508   -0.9168 C   0  0  0  0  0  0  0  0  0  0  0  0
    7.2100   -0.9149   -0.0304 C   0  0  0  0  0  0  0  0  0  0  0  0
   -6.1485   -0.1141    0.0957 N   0  0  0  0  0  0  0  0  0  0  0  0
    8.0279    0.7116   -1.5936 C   0  0  0  0  0  0  0  0  0  0  0  0
   -4.1000    0.8565   -0.1710 N   0  0  0  0  0  0  0  0  0  0  0  0
   -0.8534    0.7763   -0.0590 C   0  0  0  0  0  0  0  0  0  0  0  0
   -5.5780    0.9076   -1.8765 O   0  0  0  0  0  0  0  0  0  0  0  0
    2.9922    1.3905    0.0189 O   0  0  0  0  0  0  0  0  0  0  0  0
   -3.0770    1.5785   -0.9018 C   0  0  0  0  0  0  0  0  0  0  0  0
   -7.4469   -0.5449   -0.1701 C   0  0  0  0  0  0  0  0  0  0  0  0
    1.9506   -2.4799    1.0185 C   0  0  0  0  0  0  0  0  0  0  0  0
    8.5153   -1.3469    0.1880 C   0  0  0  0  0  0  0  0  0  0  0  0
    9.2692    0.3074   -1.3978 N   0  0  0  0  0  0  0  0  0  0  0  0
   -1.7395    2.8185    0.8322 C   0  0  0  0  0  0  0  0  0  0  0  0
   -8.2415   -0.8770    0.9322 C   0  0  0  0  0  0  0  0  0  0  0  0
    9.4958   -0.6922   -0.5289 C   0  0  0  0  0  0  0  0  0  0  0  0
   -9.2769   -1.1699   -1.6072 C   0  0  0  0  0  0  0  0  0  0  0  0
   -9.5312   -1.3503    0.7615 C   0  0  0  0  0  0  0  0  0  0  0  0
  -10.0637   -1.4983   -0.5129 C   0  0  0  0  0  0  0  0  0  0  0  0
    3.9897   -2.9491    0.6286 H   0  0  0  0  0  0  0  0  0  0  0  0
   -0.0307   -1.7199    1.3220 H   0  0  0  0  0  0  0  0  0  0  0  0
    1.2199    2.0644    2.2901 H   0  0  0  0  0  0  0  0  0  0  0  0
   -0.5427    3.7816    2.3264 H   0  0  0  0  0  0  0  0  0  0  0  0
    5.9198   -2.0127    1.2077 H   0  0  0  0  0  0  0  0  0  0  0  0
    4.9879    1.0659   -1.5081 H   0  0  0  0  0  0  0  0  0  0  0  0
   -5.8593   -0.2202    1.0558 H   0  0  0  0  0  0  0  0  0  0  0  0
    7.8787    1.5216   -2.3009 H   0  0  0  0  0  0  0  0  0  0  0  0
   -3.8766    0.5241    0.7530 H   0  0  0  0  0  0  0  0  0  0  0  0
   -0.9334   -0.0639   -0.7394 H   0  0  0  0  0  0  0  0  0  0  0  0
    2.2273    1.9796    0.0006 H   0  0  0  0  0  0  0  0  0  0  0  0
   -3.4484    2.5616   -1.2004 H   0  0  0  0  0  0  0  0  0  0  0  0
   -2.8122    1.0442   -1.8174 H   0  0  0  0  0  0  0  0  0  0  0  0
    1.6889   -3.4994    1.2649 H   0  0  0  0  0  0  0  0  0  0  0  0
    8.7599   -2.1491    0.8712 H   0  0  0  0  0  0  0  0  0  0  0  0
   -2.5157    3.5735    0.8609 H   0  0  0  0  0  0  0  0  0  0  0  0
   -7.8432   -0.7598    1.9337 H   0  0  0  0  0  0  0  0  0  0  0  0
   10.5320   -0.9851   -0.4030 H   0  0  0  0  0  0  0  0  0  0  0  0
   -9.6709   -1.2853   -2.6089 H   0  0  0  0  0  0  0  0  0  0  0  0
  -10.1221   -1.5989    1.6337 H   0  0  0  0  0  0  0  0  0  0  0  0
  -11.0718   -1.8660   -0.6502 H   0  0  0  0  0  0  0  0  0  0  0  0
   -7.3935   -0.4672   -2.3265 H   0  0  0  0  0  0  0  0  0  0  0  0
 23 19  1  0
 23  7  1  0
 28  7  2  0
 28 11  1  0
 19  5  1  0
 12 31  2  0
 12 24  1  0
  7 20  1  0
  5 17  1  0
  5 21  2  0
 17 24  1  0
 11 10  2  0
 31 33  1  0
 24 29  2  0
 20  6  2  0
 33 32  2  0
 10  6  1  0
 29 32  1  0
  6  3  1  0
  3  9  1  0
  3  2  2  0
 22  2  1  0
  9 25  2  0
  2  1  1  0
 25  8  1  0
  1  8  2  0
  1 13  1  0
 14 13  1  0
 14 16  1  0
 13 15  2  0
 16 26  2  0
 16  4  1  0
 26 30  1  0
 15  4  1  0
  4 18  2  0
 30 27  2  0
 18 27  1  0
  8 34  1  0
  9 35  1  0
 10 36  1  0
 11 37  1  0
 12 55  1  0
 14 38  1  0
 15 39  1  0
 17 40  1  0
 18 41  1  0
 19 42  1  0
 20 43  1  0
 22 44  1  0
 23 45  1  0
 23 46  1  0
 25 47  1  0
 26 48  1  0
 28 49  1  0
 29 50  1  0
 30 51  1  0
 31 52  1  0
 32 53  1  0
 33 54  1  0
M  END
