
     RDKit          3D

 56 59  0  0  0  0  0  0  0  0999 V2000
    2.0220    4.8807   -0.1530 C   0  0  0  0  0  0  0  0  0  0  0  0
    2.7982    3.8145   -0.5947 C   0  0  0  0  0  0  0  0  0  0  0  0
    0.6919    4.6848    0.2060 C   0  0  0  0  0  0  0  0  0  0  0  0
    2.2564    2.5356   -0.6797 C   0  0  0  0  0  0  0  0  0  0  0  0
    2.8344    0.1358    1.7047 C   0  0  0  0  0  0  0  0  0  0  0  0
    4.1607   -0.3122    1.6618 C   0  0  0  0  0  0  0  0  0  0  0  0
    2.1560   -1.4078   -0.0272 C   0  0  0  0  0  0  0  0  0  0  0  0
    0.1538    3.4109    0.1190 C   0  0  0  0  0  0  0  0  0  0  0  0
    0.9320    2.3411   -0.3201 C   0  0  0  0  0  0  0  0  0  0  0  0
    1.8320   -0.3831    0.9006 C   0  0  0  0  0  0  0  0  0  0  0  0
    4.4495   -1.2933    0.7538 C   0  0  0  0  0  0  0  0  0  0  0  0
    3.4738   -1.8153   -0.0820 C   0  0  0  0  0  0  0  0  0  0  0  0
   -1.2400    2.9513    0.4381 C   0  0  0  0  0  0  0  0  0  0  0  0
    5.3467   -2.9674   -0.3899 C   0  0  0  0  0  0  0  0  0  0  0  0
    0.1380    1.0640   -0.2893 C   0  0  2  0  0  0  0  0  0  0  0  0
   -1.3132    1.6105   -0.3043 C   0  0  1  0  0  0  0  0  0  0  0  0
    0.4624    0.2361    0.9672 C   0  0  0  0  0  0  0  0  0  0  0  0
   -3.8973   -1.0933    0.2810 C   0  0  0  0  0  0  0  0  0  0  0  0
   -5.2917   -0.6892   -0.2022 C   0  0  0  0  0  0  0  0  0  0  0  0
   -6.3924   -1.4769    0.4945 C   0  0  0  0  0  0  0  0  0  0  0  0
   -7.7831   -1.0610    0.0401 C   0  0  0  0  0  0  0  0  0  0  0  0
   -2.3206    0.7338    0.2315 N   0  0  0  0  0  0  0  0  0  0  0  0
   -8.8071   -1.8402    0.7211 N   0  0  0  0  0  0  0  0  0  0  0  0
    0.0203   -2.2974   -0.4305 O   0  0  0  0  0  0  0  0  0  0  0  0
    1.4812   -2.3130   -2.1132 O   0  0  0  0  0  0  0  0  0  0  0  0
   -2.4855   -0.5869   -1.5896 O   0  0  0  0  0  0  0  0  0  0  0  0
    5.6353   -1.8933    0.4911 O   0  0  0  0  0  0  0  0  0  0  0  0
    4.0248   -2.7562   -0.8750 O   0  0  0  0  0  0  0  0  0  0  0  0
    2.4528    5.8724   -0.0971 H   0  0  0  0  0  0  0  0  0  0  0  0
    3.8293    3.9828   -0.8783 H   0  0  0  0  0  0  0  0  0  0  0  0
    0.0886    5.5206    0.5397 H   0  0  0  0  0  0  0  0  0  0  0  0
    2.8631    1.7083   -1.0277 H   0  0  0  0  0  0  0  0  0  0  0  0
    2.5859    0.9301    2.3962 H   0  0  0  0  0  0  0  0  0  0  0  0
    4.9149    0.1089    2.3124 H   0  0  0  0  0  0  0  0  0  0  0  0
   -1.3637    2.8122    1.5185 H   0  0  0  0  0  0  0  0  0  0  0  0
   -2.0139    3.6495    0.1167 H   0  0  0  0  0  0  0  0  0  0  0  0
    6.0472   -2.9638   -1.2239 H   0  0  0  0  0  0  0  0  0  0  0  0
    5.3931   -3.9191    0.1497 H   0  0  0  0  0  0  0  0  0  0  0  0
    0.3090    0.4588   -1.1821 H   0  0  0  0  0  0  0  0  0  0  0  0
   -1.5617    1.8161   -1.3485 H   0  0  0  0  0  0  0  0  0  0  0  0
   -0.3023   -0.5248    1.1091 H   0  0  0  0  0  0  0  0  0  0  0  0
    0.4177    0.8831    1.8472 H   0  0  0  0  0  0  0  0  0  0  0  0
   -3.7372   -2.1565    0.0902 H   0  0  0  0  0  0  0  0  0  0  0  0
   -3.8277   -0.9441    1.3613 H   0  0  0  0  0  0  0  0  0  0  0  0
   -5.4378    0.3810   -0.0260 H   0  0  0  0  0  0  0  0  0  0  0  0
   -5.3599   -0.8399   -1.2831 H   0  0  0  0  0  0  0  0  0  0  0  0
   -6.2586   -2.5472    0.3099 H   0  0  0  0  0  0  0  0  0  0  0  0
   -6.3088   -1.3352    1.5779 H   0  0  0  0  0  0  0  0  0  0  0  0
   -7.8902    0.0247    0.1805 H   0  0  0  0  0  0  0  0  0  0  0  0
   -7.8756   -1.2395   -1.0349 H   0  0  0  0  0  0  0  0  0  0  0  0
   -2.6058    0.8695    1.1880 H   0  0  0  0  0  0  0  0  0  0  0  0
   -8.7990   -1.6097    1.7074 H   0  0  0  0  0  0  0  0  0  0  0  0
   -9.7212   -1.5638    0.3864 H   0  0  0  0  0  0  0  0  0  0  0  0
   -0.5928   -2.6241   -1.1067 H   0  0  0  0  0  0  0  0  0  0  0  0
    1.2005   -2.0382   -0.9723 C   0  0  0  0  0  0  0  0  0  0  0  0
   -2.8273   -0.3128   -0.4462 C   0  0  0  0  0  0  0  0  0  0  0  0
 23 21  1  0
 21 20  1  0
 20 19  1  0
 19 18  1  0
 13  8  1  0
 13 16  1  0
 18 56  1  0
 25 55  2  0
 24 55  1  0
 22 56  1  0
 22 16  1  0
  3  8  1  0
  3  1  2  0
 55  7  1  0
  8  9  2  0
 56 26  2  0
 16 15  1  0
  1  2  1  0
 17 15  1  0
 17 10  1  0
  9 15  1  0
  9  4  1  0
  7 10  1  0
  7 12  2  0
  2  4  2  0
 10  5  2  0
 28 12  1  0
 28 14  1  0
 12 11  1  0
  5  6  1  0
 14 27  1  0
 11  6  2  0
 11 27  1  0
  1 29  1  0
  2 30  1  0
  3 31  1  0
  4 32  1  0
  5 33  1  0
  6 34  1  0
 13 35  1  0
 13 36  1  0
 14 37  1  0
 14 38  1  0
 15 39  1  6
 16 40  1  6
 17 41  1  0
 17 42  1  0
 18 43  1  0
 18 44  1  0
 19 45  1  0
 19 46  1  0
 20 47  1  0
 20 48  1  0
 21 49  1  0
 21 50  1  0
 22 51  1  0
 23 52  1  0
 23 53  1  0
 24 54  1  0
M  END
