
     RDKit          3D

 23 24  0  0  0  0  0  0  0  0999 V2000
   -1.6512    0.8079    1.0759 O   0  0  0  0  0  0  0  0  0  0  0  0
   -1.1883    1.2475    0.0534 C   0  0  0  0  0  0  0  0  0  0  0  0
   -1.6160    2.3640   -0.5219 O   0  0  0  0  0  0  0  0  0  0  0  0
   -0.0137    0.6595   -0.6807 C   0  0  1  0  0  0  0  0  0  0  0  0
    1.2790    1.1255    0.0444 C   0  0  2  0  0  0  0  0  0  0  0  0
    2.4984    0.7682   -0.8184 C   0  0  0  0  0  0  0  0  0  0  0  0
    1.3497    0.2158    1.1244 O   0  0  0  0  0  0  0  0  0  0  0  0
    0.1454   -0.8759   -0.5325 C   0  0  2  0  0  0  0  0  0  0  0  0
   -1.0582   -1.6137   -0.0021 C   0  0  0  0  0  0  0  0  0  0  0  0
   -1.0636   -2.3486    0.9516 O   0  0  0  0  0  0  0  0  0  0  0  0
   -2.1125   -1.4242   -0.7882 O   0  0  0  0  0  0  0  0  0  0  0  0
    1.4024   -0.9757    0.3508 C   0  0  1  0  0  0  0  0  0  0  0  0
    2.6318   -0.7443   -0.5316 C   0  0  0  0  0  0  0  0  0  0  0  0
   -2.3251    2.7595    0.0078 H   0  0  0  0  0  0  0  0  0  0  0  0
   -0.0257    0.9749   -1.7234 H   0  0  0  0  0  0  0  0  0  0  0  0
    1.2549    2.1548    0.4018 H   0  0  0  0  0  0  0  0  0  0  0  0
    2.3377    0.9956   -1.8720 H   0  0  0  0  0  0  0  0  0  0  0  0
    3.3766    1.3235   -0.4895 H   0  0  0  0  0  0  0  0  0  0  0  0
    0.3392   -1.3056   -1.5199 H   0  0  0  0  0  0  0  0  0  0  0  0
   -2.8761   -1.9148   -0.4487 H   0  0  0  0  0  0  0  0  0  0  0  0
    1.4454   -1.8516    0.9946 H   0  0  0  0  0  0  0  0  0  0  0  0
    2.6285   -1.3604   -1.4302 H   0  0  0  0  0  0  0  0  0  0  0  0
    3.5454   -0.9680    0.0193 H   0  0  0  0  0  0  0  0  0  0  0  0
  1  2  2  0
  2  3  1  0
  2  4  1  0
  4  5  1  0
  4  8  1  0
  5  6  1  0
  5  7  1  0
  6 13  1  0
  7 12  1  0
  8  9  1  0
  8 12  1  0
  9 10  2  0
  9 11  1  0
 12 13  1  0
  3 14  1  0
  4 15  1  6
  5 16  1  1
  6 17  1  0
  6 18  1  0
  8 19  1  6
 11 20  1  0
 12 21  1  1
 13 22  1  0
 13 23  1  0
M  END
