
     RDKit          3D

 13 13  0  0  0  0  0  0  0  0999 V2000
    1.5907    0.3417    0.3797 Se  0  0  0  0  0  0  0  0  0  0  0  0
   -0.2963    0.1571    0.1997 C   0  0  0  0  0  0  0  0  0  0  0  0
   -0.9271   -1.0840    0.2350 C   0  0  0  0  0  0  0  0  0  0  0  0
   -2.3061   -1.1626    0.0929 C   0  0  0  0  0  0  0  0  0  0  0  0
   -3.0635   -0.0135   -0.0895 C   0  0  0  0  0  0  0  0  0  0  0  0
   -2.4308    1.2218   -0.1277 C   0  0  0  0  0  0  0  0  0  0  0  0
   -1.0534    1.3125    0.0181 C   0  0  0  0  0  0  0  0  0  0  0  0
    1.8424   -1.0542    0.6941 H   0  0  0  0  0  0  0  0  0  0  0  0
   -0.3537   -1.9920    0.3738 H   0  0  0  0  0  0  0  0  0  0  0  0
   -2.7871   -2.1318    0.1242 H   0  0  0  0  0  0  0  0  0  0  0  0
   -4.1378   -0.0802   -0.1986 H   0  0  0  0  0  0  0  0  0  0  0  0
   -3.0097    2.1253   -0.2691 H   0  0  0  0  0  0  0  0  0  0  0  0
   -0.5821    2.2880   -0.0085 H   0  0  0  0  0  0  0  0  0  0  0  0
  3  4  1  0
  3  2  2  0
  4  5  2  0
  1  2  1  0
  2  7  1  0
  5  6  1  0
  7  6  2  0
  1  8  1  0
  3  9  1  0
  4 10  1  0
  5 11  1  0
  6 12  1  0
  7 13  1  0
M  END
