
     RDKit          3D

 36 35  0  0  0  0  0  0  0  0999 V2000
    5.8539    1.8672   -0.4622 C   0  0  0  0  0  0  0  0  0  0  0  0
    4.3441    1.8010   -0.2895 C   0  0  0  0  0  0  0  0  0  0  0  0
    3.8899    0.4104    0.1226 C   0  0  0  0  0  0  0  0  0  0  0  0
    2.4459    0.3618    0.2572 N   0  0  0  0  0  0  0  0  0  0  0  0
    1.7912   -0.7164    0.6860 C   0  0  0  0  0  0  0  0  0  0  0  0
    2.3382   -1.7579    1.0236 O   0  0  0  0  0  0  0  0  0  0  0  0
    0.2660   -0.6075    0.7190 C   0  0  2  0  0  0  0  0  0  0  0  0
   -0.2670   -1.6513    1.4737 O   0  0  0  0  0  0  0  0  0  0  0  0
   -0.2713   -0.6347   -0.7278 C   0  0  1  0  0  0  0  0  0  0  0  0
    0.2570   -1.7103   -1.4400 O   0  0  0  0  0  0  0  0  0  0  0  0
   -1.7966   -0.7393   -0.6872 C   0  0  0  0  0  0  0  0  0  0  0  0
   -2.3457   -1.7898   -0.9922 O   0  0  0  0  0  0  0  0  0  0  0  0
   -2.4492    0.3508   -0.2867 N   0  0  0  0  0  0  0  0  0  0  0  0
   -3.8917    0.3984   -0.1354 C   0  0  0  0  0  0  0  0  0  0  0  0
   -4.3417    1.7833    0.2991 C   0  0  0  0  0  0  0  0  0  0  0  0
   -5.8495    1.8451    0.4917 C   0  0  0  0  0  0  0  0  0  0  0  0
    6.3707    1.6030    0.4619 H   0  0  0  0  0  0  0  0  0  0  0  0
    6.1941    1.1812   -1.2395 H   0  0  0  0  0  0  0  0  0  0  0  0
    6.1716    2.8706   -0.7435 H   0  0  0  0  0  0  0  0  0  0  0  0
    4.0262    2.5250    0.4658 H   0  0  0  0  0  0  0  0  0  0  0  0
    3.8512    2.0830   -1.2242 H   0  0  0  0  0  0  0  0  0  0  0  0
    4.2171   -0.3228   -0.6199 H   0  0  0  0  0  0  0  0  0  0  0  0
    4.3570    0.1341    1.0713 H   0  0  0  0  0  0  0  0  0  0  0  0
    1.9238    1.1977    0.0453 H   0  0  0  0  0  0  0  0  0  0  0  0
   -0.0157    0.3454    1.1828 H   0  0  0  0  0  0  0  0  0  0  0  0
    0.3842   -2.3671    1.4733 H   0  0  0  0  0  0  0  0  0  0  0  0
    0.0131    0.2988   -1.2280 H   0  0  0  0  0  0  0  0  0  0  0  0
   -0.4048   -2.4163   -1.4218 H   0  0  0  0  0  0  0  0  0  0  0  0
   -1.9266    1.1927   -0.1016 H   0  0  0  0  0  0  0  0  0  0  0  0
   -4.3711    0.1319   -1.0810 H   0  0  0  0  0  0  0  0  0  0  0  0
   -4.2086   -0.3434    0.6028 H   0  0  0  0  0  0  0  0  0  0  0  0
   -3.8381    2.0545    1.2312 H   0  0  0  0  0  0  0  0  0  0  0  0
   -4.0346    2.5174   -0.4510 H   0  0  0  0  0  0  0  0  0  0  0  0
   -6.1649    2.8445    0.7898 H   0  0  0  0  0  0  0  0  0  0  0  0
   -6.3776    1.5919   -0.4290 H   0  0  0  0  0  0  0  0  0  0  0  0
   -6.1789    1.1487    1.2644 H   0  0  0  0  0  0  0  0  0  0  0  0
 10  9  1  0
 13 14  1  0
 13 11  1  0
  9 11  1  0
  9  7  1  0
 15 14  1  0
 15 16  1  0
  6  5  2  0
 11 12  2  0
  3  4  1  0
  3  2  1  0
  8  7  1  0
  5  4  1  0
  5  7  1  0
  1  2  1  0
  1 17  1  0
  1 18  1  0
  1 19  1  0
  2 20  1  0
  2 21  1  0
  3 22  1  0
  3 23  1  0
  4 24  1  0
  7 25  1  1
  8 26  1  0
  9 27  1  6
 10 28  1  0
 13 29  1  0
 14 30  1  0
 14 31  1  0
 15 32  1  0
 15 33  1  0
 16 34  1  0
 16 35  1  0
 16 36  1  0
M  END
