
     RDKit          3D

 71 70  0  0  0  0  0  0  0  0999 V2000
   -1.2295   -1.3367   -0.1792 C   0  0  0  0  0  0  0  0  0  0  0  0
   -2.3746   -0.4831   -0.1620 O   0  0  0  0  0  0  0  0  0  0  0  0
    0.0067   -0.4599   -0.1812 C   0  0  0  0  0  0  0  0  0  0  0  0
    1.2428   -1.3364   -0.1948 C   0  0  0  0  0  0  0  0  0  0  0  0
    7.1970    0.3416   -0.0627 C   0  0  0  0  0  0  0  0  0  0  0  0
    2.3885   -0.4849   -0.1727 O   0  0  0  0  0  0  0  0  0  0  0  0
    3.5841   -1.0698   -0.1685 C   0  0  0  0  0  0  0  0  0  0  0  0
    8.5781   -0.2968    0.0071 C   0  0  0  0  0  0  0  0  0  0  0  0
   -3.5701   -1.0635   -0.1058 C   0  0  0  0  0  0  0  0  0  0  0  0
    9.7170    0.7138    0.0213 C   0  0  0  0  0  0  0  0  0  0  0  0
    3.7312   -2.2652   -0.1846 O   0  0  0  0  0  0  0  0  0  0  0  0
   11.0912    0.0603    0.0951 C   0  0  0  0  0  0  0  0  0  0  0  0
   -3.7220   -2.2581   -0.0751 O   0  0  0  0  0  0  0  0  0  0  0  0
    4.6997   -0.0599   -0.1437 C   0  0  0  0  0  0  0  0  0  0  0  0
    6.0798   -0.6932   -0.0792 C   0  0  0  0  0  0  0  0  0  0  0  0
   -4.6819   -0.0488   -0.0867 C   0  0  0  0  0  0  0  0  0  0  0  0
   -6.0645   -0.6778   -0.0330 C   0  0  0  0  0  0  0  0  0  0  0  0
   12.2391    1.0611    0.1088 C   0  0  0  0  0  0  0  0  0  0  0  0
   13.6109    0.4016    0.1814 C   0  0  0  0  0  0  0  0  0  0  0  0
   14.7520    1.4083    0.1953 C   0  0  0  0  0  0  0  0  0  0  0  0
   -7.1802    0.3587   -0.0194 C   0  0  0  0  0  0  0  0  0  0  0  0
   -8.5626   -0.2784    0.0419 C   0  0  0  0  0  0  0  0  0  0  0  0
   -9.7011    0.7328    0.0557 C   0  0  0  0  0  0  0  0  0  0  0  0
  -11.0756    0.0790    0.1201 C   0  0  0  0  0  0  0  0  0  0  0  0
  -12.2236    1.0796    0.1344 C   0  0  0  0  0  0  0  0  0  0  0  0
  -13.5957    0.4193    0.1931 C   0  0  0  0  0  0  0  0  0  0  0  0
  -14.7373    1.4256    0.2071 C   0  0  0  0  0  0  0  0  0  0  0  0
   -1.2370   -1.9898    0.6972 H   0  0  0  0  0  0  0  0  0  0  0  0
   -1.2540   -1.9743   -1.0672 H   0  0  0  0  0  0  0  0  0  0  0  0
    0.0021    0.1905   -1.0588 H   0  0  0  0  0  0  0  0  0  0  0  0
    0.0118    0.1741    0.7084 H   0  0  0  0  0  0  0  0  0  0  0  0
    1.2547   -1.9996    0.6742 H   0  0  0  0  0  0  0  0  0  0  0  0
    1.2616   -1.9649   -1.0891 H   0  0  0  0  0  0  0  0  0  0  0  0
    7.0640    1.0150    0.7909 H   0  0  0  0  0  0  0  0  0  0  0  0
    7.1300    0.9706   -0.9571 H   0  0  0  0  0  0  0  0  0  0  0  0
    8.6407   -0.9251    0.9025 H   0  0  0  0  0  0  0  0  0  0  0  0
    8.7060   -0.9742   -0.8442 H   0  0  0  0  0  0  0  0  0  0  0  0
    9.6591    1.3405   -0.8755 H   0  0  0  0  0  0  0  0  0  0  0  0
    9.5913    1.3927    0.8719 H   0  0  0  0  0  0  0  0  0  0  0  0
   11.1466   -0.5667    0.9920 H   0  0  0  0  0  0  0  0  0  0  0  0
   11.2141   -0.6202   -0.7546 H   0  0  0  0  0  0  0  0  0  0  0  0
    4.6058    0.5730   -1.0322 H   0  0  0  0  0  0  0  0  0  0  0  0
    4.5406    0.6099    0.7069 H   0  0  0  0  0  0  0  0  0  0  0  0
    6.2175   -1.3605   -0.9335 H   0  0  0  0  0  0  0  0  0  0  0  0
    6.1544   -1.3200    0.8131 H   0  0  0  0  0  0  0  0  0  0  0  0
   -4.5256    0.6157    0.7686 H   0  0  0  0  0  0  0  0  0  0  0  0
   -4.5790    0.5904   -0.9694 H   0  0  0  0  0  0  0  0  0  0  0  0
   -6.1989   -1.3438   -0.8891 H   0  0  0  0  0  0  0  0  0  0  0  0
   -6.1458   -1.3086    0.8558 H   0  0  0  0  0  0  0  0  0  0  0  0
   12.1853    1.6892   -0.7874 H   0  0  0  0  0  0  0  0  0  0  0  0
   12.1187    1.7417    0.9590 H   0  0  0  0  0  0  0  0  0  0  0  0
   13.6636   -0.2264    1.0762 H   0  0  0  0  0  0  0  0  0  0  0  0
   13.7302   -0.2775   -0.6686 H   0  0  0  0  0  0  0  0  0  0  0  0
   14.7413    2.0285   -0.7025 H   0  0  0  0  0  0  0  0  0  0  0  0
   14.6781    2.0755    1.0555 H   0  0  0  0  0  0  0  0  0  0  0  0
   15.7234    0.9157    0.2431 H   0  0  0  0  0  0  0  0  0  0  0  0
   -7.0504    1.0303    0.8361 H   0  0  0  0  0  0  0  0  0  0  0  0
   -7.1086    0.9910   -0.9113 H   0  0  0  0  0  0  0  0  0  0  0  0
   -8.6875   -0.9528   -0.8123 H   0  0  0  0  0  0  0  0  0  0  0  0
   -8.6297   -0.9113    0.9336 H   0  0  0  0  0  0  0  0  0  0  0  0
   -9.5789    1.4084    0.9093 H   0  0  0  0  0  0  0  0  0  0  0  0
   -9.6391    1.3642   -0.8376 H   0  0  0  0  0  0  0  0  0  0  0  0
  -11.1951   -0.5975   -0.7334 H   0  0  0  0  0  0  0  0  0  0  0  0
  -11.1351   -0.5535    1.0128 H   0  0  0  0  0  0  0  0  0  0  0  0
  -12.1087    1.7536    0.9906 H   0  0  0  0  0  0  0  0  0  0  0  0
  -12.1643    1.7151   -0.7564 H   0  0  0  0  0  0  0  0  0  0  0  0
  -13.7092   -0.2538   -0.6623 H   0  0  0  0  0  0  0  0  0  0  0  0
  -13.6542   -0.2152    1.0829 H   0  0  0  0  0  0  0  0  0  0  0  0
  -14.6693    2.0865    1.0725 H   0  0  0  0  0  0  0  0  0  0  0  0
  -14.7208    2.0523   -0.6861 H   0  0  0  0  0  0  0  0  0  0  0  0
  -15.7087    0.9320    0.2448 H   0  0  0  0  0  0  0  0  0  0  0  0
  1  2  1  0
  1  3  1  0
  2  9  1  0
  3  4  1  0
  4  6  1  0
  5  8  1  0
  5 15  1  0
  6  7  1  0
  7 11  2  0
  7 14  1  0
  8 10  1  0
  9 13  2  0
  9 16  1  0
 10 12  1  0
 12 18  1  0
 14 15  1  0
 16 17  1  0
 17 21  1  0
 18 19  1  0
 19 20  1  0
 21 22  1  0
 22 23  1  0
 23 24  1  0
 24 25  1  0
 25 26  1  0
 26 27  1  0
  1 28  1  0
  1 29  1  0
  3 30  1  0
  3 31  1  0
  4 32  1  0
  4 33  1  0
  5 34  1  0
  5 35  1  0
  8 36  1  0
  8 37  1  0
 10 38  1  0
 10 39  1  0
 12 40  1  0
 12 41  1  0
 14 42  1  0
 14 43  1  0
 15 44  1  0
 15 45  1  0
 16 46  1  0
 16 47  1  0
 17 48  1  0
 17 49  1  0
 18 50  1  0
 18 51  1  0
 19 52  1  0
 19 53  1  0
 20 54  1  0
 20 55  1  0
 20 56  1  0
 21 57  1  0
 21 58  1  0
 22 59  1  0
 22 60  1  0
 23 61  1  0
 23 62  1  0
 24 63  1  0
 24 64  1  0
 25 65  1  0
 25 66  1  0
 26 67  1  0
 26 68  1  0
 27 69  1  0
 27 70  1  0
 27 71  1  0
M  END
