
     RDKit          3D

 31 34  0  0  0  0  0  0  0  0999 V2000
    2.5802    1.6923    1.3939 F   0  0  0  0  0  0  0  0  0  0  0  0
    3.3607    1.0162    0.5374 C   0  0  0  0  0  0  0  0  0  0  0  0
    4.6898    1.3724    0.4320 C   0  0  0  0  0  0  0  0  0  0  0  0
    5.5037    0.6615   -0.4379 C   0  0  0  0  0  0  0  0  0  0  0  0
    4.9849   -0.3907   -1.1808 C   0  0  0  0  0  0  0  0  0  0  0  0
    3.6476   -0.7302   -1.0554 C   0  0  0  0  0  0  0  0  0  0  0  0
    2.8057   -0.0262   -0.1947 C   0  0  0  0  0  0  0  0  0  0  0  0
    1.3901   -0.4173   -0.0582 C   0  0  0  0  0  0  0  0  0  0  0  0
    1.0242   -1.7050    0.1934 C   0  0  0  0  0  0  0  0  0  0  0  0
   -0.3549   -2.0979    0.3040 C   0  0  0  0  0  0  0  0  0  0  0  0
   -0.7072   -3.2605    0.5234 O   0  0  0  0  0  0  0  0  0  0  0  0
   -1.3222   -1.0116    0.1477 C   0  0  0  0  0  0  0  0  0  0  0  0
   -2.7064   -1.2842    0.2513 C   0  0  0  0  0  0  0  0  0  0  0  0
   -3.5670   -0.2451    0.0937 C   0  0  0  0  0  0  0  0  0  0  0  0
   -4.9194   -0.2428    0.1280 O   0  0  0  0  0  0  0  0  0  0  0  0
   -5.3366    1.1076    0.0002 C   0  0  0  0  0  0  0  0  0  0  0  0
   -4.1697    1.8784   -0.2769 O   0  0  0  0  0  0  0  0  0  0  0  0
   -3.1156    1.0556   -0.1601 C   0  0  0  0  0  0  0  0  0  0  0  0
   -1.7926    1.3634   -0.2678 C   0  0  0  0  0  0  0  0  0  0  0  0
   -0.8852    0.2945   -0.1073 C   0  0  0  0  0  0  0  0  0  0  0  0
    0.4565    0.5476   -0.2055 N   0  0  0  0  0  0  0  0  0  0  0  0
    5.0803    2.1884    1.0256 H   0  0  0  0  0  0  0  0  0  0  0  0
    6.5464    0.9332   -0.5317 H   0  0  0  0  0  0  0  0  0  0  0  0
    5.6187   -0.9424   -1.8609 H   0  0  0  0  0  0  0  0  0  0  0  0
    3.2373   -1.5444   -1.6383 H   0  0  0  0  0  0  0  0  0  0  0  0
    1.7917   -2.4552    0.3276 H   0  0  0  0  0  0  0  0  0  0  0  0
   -3.0484   -2.2912    0.4457 H   0  0  0  0  0  0  0  0  0  0  0  0
   -6.0420    1.2031   -0.8256 H   0  0  0  0  0  0  0  0  0  0  0  0
   -5.7883    1.4510    0.9344 H   0  0  0  0  0  0  0  0  0  0  0  0
   -1.4486    2.3700   -0.4663 H   0  0  0  0  0  0  0  0  0  0  0  0
    0.7449    1.4800   -0.4601 H   0  0  0  0  0  0  0  0  0  0  0  0
  5  4  2  0
  5  6  1  0
  4  3  1  0
  6  7  2  0
  3  2  2  0
  7  2  1  0
  7  8  1  0
  2  1  1  0
  9  8  2  0
  9 10  1  0
  8 21  1  0
 11 10  2  0
 10 12  1  0
 21 20  1  0
 12 20  2  0
 12 13  1  0
 20 19  1  0
 13 14  2  0
 19 18  2  0
 14 18  1  0
 14 15  1  0
 18 17  1  0
 15 16  1  0
 17 16  1  0
  3 22  1  0
  4 23  1  0
  5 24  1  0
  6 25  1  0
  9 26  1  0
 13 27  1  0
 16 28  1  0
 16 29  1  0
 19 30  1  0
 21 31  1  0
M  END
