
     RDKit          3D

 58 62  0  0  0  0  0  0  0  0999 V2000
    4.8006   -0.9701   -2.5427 F   0  0  0  0  0  0  0  0  0  0  0  0
    4.4740   -0.0699   -1.5826 C   0  0  1  0  0  0  0  0  0  0  0  0
    3.2251    0.3460   -1.8771 F   0  0  0  0  0  0  0  0  0  0  0  0
    4.5294   -0.6230   -0.3452 O   0  0  0  0  0  0  0  0  0  0  0  0
    3.5300   -1.4806    0.0738 C   0  0  0  0  0  0  0  0  0  0  0  0
    3.3069   -2.6975   -0.5524 C   0  0  0  0  0  0  0  0  0  0  0  0
    2.3356   -3.5542   -0.0526 C   0  0  0  0  0  0  0  0  0  0  0  0
    1.6044   -3.2012    1.0705 C   0  0  0  0  0  0  0  0  0  0  0  0
    1.8508   -1.9862    1.6924 C   0  0  0  0  0  0  0  0  0  0  0  0
    2.8090   -1.1050    1.2043 C   0  0  0  0  0  0  0  0  0  0  0  0
    3.0591    0.1990    1.9207 C   0  0  0  0  0  0  0  0  0  0  0  0
    2.8301    1.3628    1.0926 N   0  0  0  0  0  0  0  0  0  0  0  0
    3.7354    2.3232    0.7328 C   0  0  0  0  0  0  0  0  0  0  0  0
    5.1370    2.3355    1.2235 C   0  0  0  0  0  0  0  0  0  0  0  0
    1.6388    1.6951    0.4974 C   0  0  0  0  0  0  0  0  0  0  0  0
    1.9058    2.8717   -0.2157 C   0  0  0  0  0  0  0  0  0  0  0  0
    3.2194    3.2344   -0.0471 N   0  0  0  0  0  0  0  0  0  0  0  0
    0.3804    1.1145    0.5412 C   0  0  0  0  0  0  0  0  0  0  0  0
   -0.6402    1.7280   -0.1812 C   0  0  0  0  0  0  0  0  0  0  0  0
   -0.3709    2.9026   -0.9125 C   0  0  0  0  0  0  0  0  0  0  0  0
    0.8826    3.4846   -0.9344 C   0  0  0  0  0  0  0  0  0  0  0  0
   -1.9945    1.1523   -0.1800 C   0  0  0  0  0  0  0  0  0  0  0  0
   -2.2133   -0.2198   -0.1521 C   0  0  0  0  0  0  0  0  0  0  0  0
   -3.4038   -0.7960   -0.1402 N   0  0  0  0  0  0  0  0  0  0  0  0
   -4.5058   -0.0438   -0.1646 C   0  0  0  0  0  0  0  0  0  0  0  0
   -4.4003    1.3631   -0.1815 C   0  0  0  0  0  0  0  0  0  0  0  0
   -3.1506    1.9387   -0.1940 C   0  0  0  0  0  0  0  0  0  0  0  0
   -5.7077   -0.6984   -0.1967 N   0  0  0  0  0  0  0  0  0  0  0  0
   -5.7789   -2.0941    0.2098 C   0  0  0  0  0  0  0  0  0  0  0  0
   -6.9458   -2.7902   -0.4627 C   0  0  0  0  0  0  0  0  0  0  0  0
   -8.1731   -2.0754   -0.1742 N   0  0  0  0  0  0  0  0  0  0  0  0
   -8.0962   -0.7343   -0.7147 C   0  0  0  0  0  0  0  0  0  0  0  0
   -6.9568    0.0267   -0.0590 C   0  0  0  0  0  0  0  0  0  0  0  0
    5.1709    0.7650   -1.6250 H   0  0  0  0  0  0  0  0  0  0  0  0
    3.8931   -2.9979   -1.4092 H   0  0  0  0  0  0  0  0  0  0  0  0
    2.1613   -4.5030   -0.5422 H   0  0  0  0  0  0  0  0  0  0  0  0
    0.8514   -3.8683    1.4675 H   0  0  0  0  0  0  0  0  0  0  0  0
    1.2878   -1.7109    2.5763 H   0  0  0  0  0  0  0  0  0  0  0  0
    2.4058    0.2504    2.7941 H   0  0  0  0  0  0  0  0  0  0  0  0
    4.0811    0.2433    2.2966 H   0  0  0  0  0  0  0  0  0  0  0  0
    5.6633    1.4079    1.0004 H   0  0  0  0  0  0  0  0  0  0  0  0
    5.6728    3.1555    0.7526 H   0  0  0  0  0  0  0  0  0  0  0  0
    5.1767    2.4800    2.3046 H   0  0  0  0  0  0  0  0  0  0  0  0
    0.1830    0.2313    1.1337 H   0  0  0  0  0  0  0  0  0  0  0  0
   -1.1672    3.3569   -1.4890 H   0  0  0  0  0  0  0  0  0  0  0  0
    1.0635    4.3890   -1.5010 H   0  0  0  0  0  0  0  0  0  0  0  0
   -1.3677   -0.9021   -0.1548 H   0  0  0  0  0  0  0  0  0  0  0  0
   -5.2674    2.0052   -0.1652 H   0  0  0  0  0  0  0  0  0  0  0  0
   -3.0743    3.0192   -0.1885 H   0  0  0  0  0  0  0  0  0  0  0  0
   -4.8520   -2.5924   -0.0574 H   0  0  0  0  0  0  0  0  0  0  0  0
   -5.8929   -2.1644    1.3001 H   0  0  0  0  0  0  0  0  0  0  0  0
   -6.7421   -2.8630   -1.5432 H   0  0  0  0  0  0  0  0  0  0  0  0
   -7.0158   -3.8083   -0.0755 H   0  0  0  0  0  0  0  0  0  0  0  0
   -8.9589   -2.5642   -0.5824 H   0  0  0  0  0  0  0  0  0  0  0  0
   -7.9393   -0.7250   -1.8051 H   0  0  0  0  0  0  0  0  0  0  0  0
   -9.0277   -0.2025   -0.5133 H   0  0  0  0  0  0  0  0  0  0  0  0
   -7.1895    0.2058    0.9993 H   0  0  0  0  0  0  0  0  0  0  0  0
   -6.8838    0.9960   -0.5472 H   0  0  0  0  0  0  0  0  0  0  0  0
 14 13  1  0
 17 13  2  0
 17 16  1  0
 13 12  1  0
 16 21  2  0
 16 15  1  0
 12 11  1  0
 12 15  1  0
 21 20  1  0
 11 10  1  0
 15 18  2  0
  9 10  1  0
  9  8  2  0
 20 19  2  0
 10  5  2  0
 18 19  1  0
 19 22  1  0
  8  7  1  0
  5  4  1  0
  5  6  1  0
  3  2  1  0
  4  2  1  0
  2  1  1  0
  7  6  2  0
 22 27  1  0
 22 23  2  0
 27 26  2  0
 23 24  1  0
 26 25  1  0
 24 25  2  0
 25 28  1  0
 28 29  1  0
 28 33  1  0
 29 30  1  0
 33 32  1  0
 30 31  1  0
 32 31  1  0
  2 34  1  1
  6 35  1  0
  7 36  1  0
  8 37  1  0
  9 38  1  0
 11 39  1  0
 11 40  1  0
 14 41  1  0
 14 42  1  0
 14 43  1  0
 18 44  1  0
 20 45  1  0
 21 46  1  0
 23 47  1  0
 26 48  1  0
 27 49  1  0
 29 50  1  0
 29 51  1  0
 30 52  1  0
 30 53  1  0
 31 54  1  0
 32 55  1  0
 32 56  1  0
 33 57  1  0
 33 58  1  0
M  END
