
     RDKit          3D

 38 40  0  0  0  0  0  0  0  0999 V2000
    5.0515   -3.0969   -0.0216 C   0  0  0  0  0  0  0  0  0  0  0  0
    4.6690   -1.7436    0.5509 C   0  0  0  0  0  0  0  0  0  0  0  0
    3.4198   -0.9584   -0.5091 S   0  0  0  0  0  0  0  0  0  0  0  0
    3.1059    0.5376    0.4664 C   0  0  0  0  0  0  0  0  0  0  0  0
    2.3254    1.5485   -0.3584 C   0  0  1  0  0  0  0  0  0  0  0  0
    1.2104    0.9339   -1.0130 O   0  0  0  0  0  0  0  0  0  0  0  0
    1.7260    2.6513    0.5033 C   0  0  1  0  0  0  0  0  0  0  0  0
    1.5205    3.7864   -0.2946 O   0  0  0  0  0  0  0  0  0  0  0  0
    0.3916    2.0117    0.8985 C   0  0  1  0  0  0  0  0  0  0  0  0
   -0.6109    2.9144    1.2549 O   0  0  0  0  0  0  0  0  0  0  0  0
    0.0088    1.2899   -0.3968 C   0  0  2  0  0  0  0  0  0  0  0  0
   -0.7857    0.1011   -0.1841 N   0  0  0  0  0  0  0  0  0  0  0  0
   -0.3467   -1.1371    0.2024 C   0  0  0  0  0  0  0  0  0  0  0  0
   -1.3094   -1.9988    0.3525 N   0  0  0  0  0  0  0  0  0  0  0  0
   -2.4475   -1.2961    0.0541 C   0  0  0  0  0  0  0  0  0  0  0  0
   -2.1438    0.0132   -0.2858 C   0  0  0  0  0  0  0  0  0  0  0  0
   -3.0098    0.9599   -0.6413 N   0  0  0  0  0  0  0  0  0  0  0  0
   -4.2521    0.5103   -0.6389 C   0  0  0  0  0  0  0  0  0  0  0  0
   -4.6921   -0.7075   -0.3314 N   0  0  0  0  0  0  0  0  0  0  0  0
   -3.8097   -1.6482    0.0235 C   0  0  0  0  0  0  0  0  0  0  0  0
   -4.2457   -2.8699    0.3334 N   0  0  0  0  0  0  0  0  0  0  0  0
    4.1942   -3.7684   -0.0621 H   0  0  0  0  0  0  0  0  0  0  0  0
    5.4604   -3.0057   -1.0281 H   0  0  0  0  0  0  0  0  0  0  0  0
    5.8116   -3.5620    0.6059 H   0  0  0  0  0  0  0  0  0  0  0  0
    4.2593   -1.8561    1.5558 H   0  0  0  0  0  0  0  0  0  0  0  0
    5.5405   -1.0906    0.6165 H   0  0  0  0  0  0  0  0  0  0  0  0
    2.5829    0.2661    1.3873 H   0  0  0  0  0  0  0  0  0  0  0  0
    4.0599    0.9861    0.7514 H   0  0  0  0  0  0  0  0  0  0  0  0
    2.9792    1.9578   -1.1324 H   0  0  0  0  0  0  0  0  0  0  0  0
    2.3523    2.8727    1.3776 H   0  0  0  0  0  0  0  0  0  0  0  0
    0.8415    4.3275    0.1258 H   0  0  0  0  0  0  0  0  0  0  0  0
    0.5647    1.2706    1.6883 H   0  0  0  0  0  0  0  0  0  0  0  0
   -0.5112    3.1381    2.1859 H   0  0  0  0  0  0  0  0  0  0  0  0
   -0.5900    1.9490   -1.0344 H   0  0  0  0  0  0  0  0  0  0  0  0
    0.7047   -1.3550    0.3288 H   0  0  0  0  0  0  0  0  0  0  0  0
   -5.0188    1.2236   -0.9226 H   0  0  0  0  0  0  0  0  0  0  0  0
   -3.6067   -3.5982    0.5988 H   0  0  0  0  0  0  0  0  0  0  0  0
   -5.2270   -3.0846    0.2945 H   0  0  0  0  0  0  0  0  0  0  0  0
  2  1  1  0
  1 22  1  0
  1 23  1  0
  1 24  1  0
  2  3  1  0
  2 25  1  0
  2 26  1  0
  4  3  1  0
  4  5  1  0
  4 27  1  0
  4 28  1  0
  7  5  1  0
  5  6  1  0
  5 29  1  6
  6 11  1  0
  8  7  1  0
  7  9  1  0
  7 30  1  1
  8 31  1  0
  9 10  1  0
  9 11  1  0
  9 32  1  1
 10 33  1  0
 11 12  1  0
 11 34  1  6
 13 12  1  0
 12 16  1  0
 13 14  2  0
 13 35  1  0
 14 15  1  0
 16 15  2  0
 15 20  1  0
 16 17  1  0
 17 18  2  0
 18 19  1  0
 18 36  1  0
 20 19  2  0
 20 21  1  0
 21 37  1  0
 21 38  1  0
M  END
