
     RDKit          3D

 41 43  0  0  0  0  0  0  0  0999 V2000
    5.6002    1.5517    1.0210 C   0  0  0  0  0  0  0  0  0  0  0  0
    5.3772    1.0156   -0.3880 C   0  0  0  0  0  0  0  0  0  0  0  0
    4.5346   -0.1663   -0.4586 N   0  0  0  0  0  0  0  0  0  0  0  0
    5.1939   -1.4605   -0.4806 C   0  0  0  0  0  0  0  0  0  0  0  0
    5.3650   -2.1070    0.8889 C   0  0  0  0  0  0  0  0  0  0  0  0
    3.1843   -0.0710   -0.3384 C   0  0  0  0  0  0  0  0  0  0  0  0
    2.3538   -1.2155   -0.3137 C   0  0  0  0  0  0  0  0  0  0  0  0
    0.9855   -1.1066   -0.2348 C   0  0  0  0  0  0  0  0  0  0  0  0
    2.5297    1.1776   -0.2527 C   0  0  0  0  0  0  0  0  0  0  0  0
    1.1568    1.2678   -0.1737 C   0  0  0  0  0  0  0  0  0  0  0  0
    0.3409    0.1334   -0.1656 C   0  0  0  0  0  0  0  0  0  0  0  0
   -1.1188    0.1774   -0.0819 C   0  0  0  0  0  0  0  0  0  0  0  0
   -1.7953   -0.9233   -0.0483 N   0  0  0  0  0  0  0  0  0  0  0  0
   -3.1592   -0.8526    0.0285 C   0  0  0  0  0  0  0  0  0  0  0  0
   -3.8959   -2.0476    0.0630 C   0  0  0  0  0  0  0  0  0  0  0  0
   -5.2702   -2.0135    0.1419 C   0  0  0  0  0  0  0  0  0  0  0  0
   -5.9563   -0.7935    0.1881 C   0  0  0  0  0  0  0  0  0  0  0  0
   -5.2502    0.3886    0.1551 C   0  0  0  0  0  0  0  0  0  0  0  0
   -3.8551    0.3669    0.0753 C   0  0  0  0  0  0  0  0  0  0  0  0
   -3.0893    1.6034    0.0362 C   0  0  0  0  0  0  0  0  0  0  0  0
   -3.5562    2.7289    0.0659 O   0  0  0  0  0  0  0  0  0  0  0  0
   -1.7302    1.4013   -0.0429 N   0  0  0  0  0  0  0  0  0  0  0  0
    4.6638    1.8354    1.5014 H   0  0  0  0  0  0  0  0  0  0  0  0
    6.0936    0.8145    1.6537 H   0  0  0  0  0  0  0  0  0  0  0  0
    6.2344    2.4381    0.9835 H   0  0  0  0  0  0  0  0  0  0  0  0
    4.9626    1.8000   -1.0253 H   0  0  0  0  0  0  0  0  0  0  0  0
    6.3372    0.7541   -0.8329 H   0  0  0  0  0  0  0  0  0  0  0  0
    4.6544   -2.1349   -1.1489 H   0  0  0  0  0  0  0  0  0  0  0  0
    6.1724   -1.3173   -0.9391 H   0  0  0  0  0  0  0  0  0  0  0  0
    5.9767   -1.4888    1.5454 H   0  0  0  0  0  0  0  0  0  0  0  0
    4.4060   -2.2739    1.3801 H   0  0  0  0  0  0  0  0  0  0  0  0
    5.8569   -3.0746    0.7838 H   0  0  0  0  0  0  0  0  0  0  0  0
    2.7771   -2.2087   -0.3541 H   0  0  0  0  0  0  0  0  0  0  0  0
    0.3905   -2.0097   -0.2224 H   0  0  0  0  0  0  0  0  0  0  0  0
    3.0939    2.0985   -0.2468 H   0  0  0  0  0  0  0  0  0  0  0  0
    0.7481    2.2690   -0.1109 H   0  0  0  0  0  0  0  0  0  0  0  0
   -3.3626   -2.9888    0.0258 H   0  0  0  0  0  0  0  0  0  0  0  0
   -5.8275   -2.9410    0.1692 H   0  0  0  0  0  0  0  0  0  0  0  0
   -7.0359   -0.7817    0.2494 H   0  0  0  0  0  0  0  0  0  0  0  0
   -5.7688    1.3377    0.1909 H   0  0  0  0  0  0  0  0  0  0  0  0
   -1.1684    2.2400   -0.0821 H   0  0  0  0  0  0  0  0  0  0  0  0
  5  4  1  0
  4  3  1  0
  2  1  1  0
  2  3  1  0
  3  6  1  0
  6  7  2  0
  6  9  1  0
  7  8  1  0
  9 10  2  0
  8 11  2  0
 10 11  1  0
 11 12  1  0
 12 13  2  0
 12 22  1  0
 13 14  1  0
 22 20  1  0
 14 15  2  0
 14 19  1  0
 15 16  1  0
 20 19  1  0
 20 21  2  0
 19 18  2  0
 16 17  2  0
 18 17  1  0
  1 23  1  0
  1 24  1  0
  1 25  1  0
  2 26  1  0
  2 27  1  0
  4 28  1  0
  4 29  1  0
  5 30  1  0
  5 31  1  0
  5 32  1  0
  7 33  1  0
  8 34  1  0
  9 35  1  0
 10 36  1  0
 15 37  1  0
 16 38  1  0
 17 39  1  0
 18 40  1  0
 22 41  1  0
M  END
