
     RDKit          3D

 39 42  0  0  0  0  0  0  0  0999 V2000
    1.5367    0.4283    0.7007 C   0  0  0  0  0  0  0  0  0  0  0  0
    2.8277    0.9168    0.6467 C   0  0  0  0  0  0  0  0  0  0  0  0
    3.8082    0.1726    0.0013 C   0  0  0  0  0  0  0  0  0  0  0  0
    5.4516    0.8190   -0.0794 S   0  0  1  0  0  0  0  0  0  0  0  0
    6.2290   -0.0344   -0.9681 O   0  0  0  0  0  0  0  0  0  0  0  0
    5.3963    2.2451   -0.3680 O   0  0  0  0  0  0  0  0  0  0  0  0
    5.9183    0.6991    1.4994 N   0  0  0  0  0  0  0  0  0  0  0  0
    3.5073   -1.0424   -0.5927 C   0  0  0  0  0  0  0  0  0  0  0  0
    2.2065   -1.5181   -0.5369 C   0  0  0  0  0  0  0  0  0  0  0  0
    1.2043   -0.7946    0.1095 C   0  0  0  0  0  0  0  0  0  0  0  0
   -0.1771   -1.3008    0.1702 C   0  0  0  0  0  0  0  0  0  0  0  0
   -1.2636   -0.4415    0.0504 C   0  0  0  0  0  0  0  0  0  0  0  0
   -2.5426   -0.9798    0.1257 C   0  0  0  0  0  0  0  0  0  0  0  0
   -0.4193   -2.6741    0.3606 C   0  0  0  0  0  0  0  0  0  0  0  0
   -1.6202   -3.2202    0.4206 N   0  0  0  0  0  0  0  0  0  0  0  0
   -2.6333   -2.3799    0.2977 C   0  0  0  0  0  0  0  0  0  0  0  0
   -3.9507   -2.7120    0.3020 N   0  0  0  0  0  0  0  0  0  0  0  0
   -4.6980   -1.5851    0.1380 C   0  0  0  0  0  0  0  0  0  0  0  0
   -3.8862   -0.4853    0.0245 C   0  0  0  0  0  0  0  0  0  0  0  0
   -4.3310    0.8926   -0.1581 C   0  0  0  0  0  0  0  0  0  0  0  0
   -5.4720    1.2062   -0.8975 C   0  0  0  0  0  0  0  0  0  0  0  0
   -5.8605    2.5283   -1.0231 C   0  0  0  0  0  0  0  0  0  0  0  0
   -5.0868    3.5096   -0.4205 C   0  0  0  0  0  0  0  0  0  0  0  0
   -3.9964    3.2333    0.2846 N   0  0  0  0  0  0  0  0  0  0  0  0
   -3.6397    1.9635    0.4136 C   0  0  0  0  0  0  0  0  0  0  0  0
    0.7832    0.9980    1.2290 H   0  0  0  0  0  0  0  0  0  0  0  0
    3.0642    1.8618    1.1174 H   0  0  0  0  0  0  0  0  0  0  0  0
    6.1249   -0.2545    1.7781 H   0  0  0  0  0  0  0  0  0  0  0  0
    6.7065    1.3066    1.7029 H   0  0  0  0  0  0  0  0  0  0  0  0
    4.2664   -1.6158   -1.1062 H   0  0  0  0  0  0  0  0  0  0  0  0
    1.9721   -2.4545   -1.0260 H   0  0  0  0  0  0  0  0  0  0  0  0
   -1.1075    0.6155   -0.1268 H   0  0  0  0  0  0  0  0  0  0  0  0
    0.4178   -3.3519    0.4865 H   0  0  0  0  0  0  0  0  0  0  0  0
   -4.3170   -3.6431    0.4204 H   0  0  0  0  0  0  0  0  0  0  0  0
   -5.7750   -1.6414    0.1341 H   0  0  0  0  0  0  0  0  0  0  0  0
   -6.0420    0.4232   -1.3820 H   0  0  0  0  0  0  0  0  0  0  0  0
   -6.7418    2.7981   -1.5887 H   0  0  0  0  0  0  0  0  0  0  0  0
   -5.3585    4.5553   -0.5103 H   0  0  0  0  0  0  0  0  0  0  0  0
   -2.7609    1.7776    1.0229 H   0  0  0  0  0  0  0  0  0  0  0  0
  6  4  2  0
 22 21  2  0
 22 23  1  0
  8  9  2  0
  8  3  1  0
  4  7  1  1
 21 20  1  0
 23 24  2  0
  9 10  1  0
  4  3  1  0
  4  5  2  0
  3  2  2  0
 20 19  1  0
 20 25  2  0
 24 25  1  0
 10 11  1  0
 10  1  2  0
 12 11  2  0
 12 13  1  0
 11 14  1  0
 19 13  1  0
 19 18  2  0
  2  1  1  0
 13 16  2  0
 18 17  1  0
 14 15  2  0
 16 15  1  0
 16 17  1  0
  1 26  1  0
  2 27  1  0
  7 28  1  0
  7 29  1  0
  8 30  1  0
  9 31  1  0
 12 32  1  0
 14 33  1  0
 17 34  1  0
 18 35  1  0
 21 36  1  0
 22 37  1  0
 23 38  1  0
 25 39  1  0
M  END
