
     RDKit          3D

 21 22  0  0  0  0  0  0  0  0999 V2000
    2.1943   -1.7522   -0.0111 C   0  0  0  0  0  0  0  0  0  0  0  0
   -3.5030   -0.9594   -0.0320 C   0  0  0  0  0  0  0  0  0  0  0  0
   -1.2038   -0.1361   -0.0262 C   0  0  0  0  0  0  0  0  0  0  0  0
   -0.8094    2.1058   -0.0317 C   0  0  0  0  0  0  0  0  0  0  0  0
    1.0261    0.7915   -0.0153 C   0  0  0  0  0  0  0  0  0  0  0  0
    2.4276    0.6472   -0.0057 C   0  0  0  0  0  0  0  0  0  0  0  0
    2.9978   -0.6004   -0.0036 C   0  0  0  0  0  0  0  0  0  0  0  0
    0.8263   -1.6354   -0.0189 C   0  0  0  0  0  0  0  0  0  0  0  0
    0.2211   -0.3660   -0.0196 C   0  0  0  0  0  0  0  0  0  0  0  0
   -2.0717   -1.1478   -0.0262 N   0  0  0  0  0  0  0  0  0  0  0  0
   -1.6872    1.0953   -0.0336 N   0  0  0  0  0  0  0  0  0  0  0  0
    0.4910    2.0447   -0.0214 N   0  0  0  0  0  0  0  0  0  0  0  0
    2.6535   -2.7316   -0.0121 H   0  0  0  0  0  0  0  0  0  0  0  0
   -3.8445   -0.4297    0.8579 H   0  0  0  0  0  0  0  0  0  0  0  0
   -3.8302   -0.3991   -0.9079 H   0  0  0  0  0  0  0  0  0  0  0  0
   -3.9713   -1.9391   -0.0535 H   0  0  0  0  0  0  0  0  0  0  0  0
   -1.2503    3.0987   -0.0387 H   0  0  0  0  0  0  0  0  0  0  0  0
    3.0392    1.5402   -0.0015 H   0  0  0  0  0  0  0  0  0  0  0  0
    4.0754   -0.7000    0.0036 H   0  0  0  0  0  0  0  0  0  0  0  0
    0.2293   -2.5390   -0.0261 H   0  0  0  0  0  0  0  0  0  0  0  0
   -1.7301   -2.0918   -0.0006 H   0  0  0  0  0  0  0  0  0  0  0  0
  1  8  2  0
  1  7  1  0
  8  9  1  0
  7  6  2  0
 10  2  1  0
 10  3  1  0
  9  3  2  0
  9  5  1  0
  6  5  1  0
  3 11  1  0
  5 12  2  0
 11  4  2  0
 12  4  1  0
  1 13  1  0
  2 14  1  0
  2 15  1  0
  2 16  1  0
  4 17  1  0
  6 18  1  0
  7 19  1  0
  8 20  1  0
 10 21  1  0
M  END
