
     RDKit          3D

 51 54  0  0  0  0  0  0  0  0999 V2000
   -1.8103    0.9848    0.6496 C   0  0  0  0  0  0  0  0  0  0  0  0
    1.9767   -1.4469    0.3959 C   0  0  0  0  0  0  0  0  0  0  0  0
   -1.7606   -0.3716    0.3056 C   0  0  0  0  0  0  0  0  0  0  0  0
   -2.8149   -0.9388   -0.3884 C   0  0  0  0  0  0  0  0  0  0  0  0
   -1.9599    3.7129    1.2993 C   0  0  0  0  0  0  0  0  0  0  0  0
   -0.5390   -1.1693    0.7052 C   0  0  2  0  0  0  0  0  0  0  0  0
   -1.4242   -2.9914   -0.6842 C   0  0  0  0  0  0  0  0  0  0  0  0
   -2.8208   -2.3992   -0.7544 C   0  0  0  0  0  0  0  0  0  0  0  0
   -6.0935    1.5043   -1.3878 C   0  0  0  0  0  0  0  0  0  0  0  0
    0.7095   -0.7293   -0.0698 C   0  0  0  0  0  0  0  0  0  0  0  0
   -0.7935   -2.5895    0.5563 N   0  0  0  0  0  0  0  0  0  0  0  0
    5.0095   -0.6592   -1.5574 N   0  0  0  0  0  0  0  0  0  0  0  0
   -2.8894    1.7752    0.3101 C   0  0  0  0  0  0  0  0  0  0  0  0
   -3.9116   -0.1390   -0.7340 C   0  0  0  0  0  0  0  0  0  0  0  0
    3.2132   -0.8986   -0.2350 C   0  0  0  0  0  0  0  0  0  0  0  0
    3.9711   -1.4798   -1.2117 C   0  0  0  0  0  0  0  0  0  0  0  0
    4.9522    0.4787   -0.8088 C   0  0  0  0  0  0  0  0  0  0  0  0
    3.8282    0.3671    0.0407 C   0  0  0  0  0  0  0  0  0  0  0  0
    5.7853    1.5966   -0.7947 C   0  0  0  0  0  0  0  0  0  0  0  0
   -3.9651    1.1999   -0.4011 C   0  0  0  0  0  0  0  0  0  0  0  0
    5.4753    2.6121    0.0897 C   0  0  0  0  0  0  0  0  0  0  0  0
    4.3649    2.5206    0.9460 C   0  0  0  0  0  0  0  0  0  0  0  0
    3.5429    1.4105    0.9293 C   0  0  0  0  0  0  0  0  0  0  0  0
   -4.9783    2.0341   -0.7011 O   0  0  0  0  0  0  0  0  0  0  0  0
   -3.0174    3.0827    0.6069 O   0  0  0  0  0  0  0  0  0  0  0  0
   -0.8102   -4.6446    1.5440 O   0  0  0  0  0  0  0  0  0  0  0  0
   -0.9827    1.4092    1.2045 H   0  0  0  0  0  0  0  0  0  0  0  0
    2.0501   -1.3667    1.4868 H   0  0  0  0  0  0  0  0  0  0  0  0
    1.8977   -2.5134    0.1740 H   0  0  0  0  0  0  0  0  0  0  0  0
   -2.2585    4.7482    1.4442 H   0  0  0  0  0  0  0  0  0  0  0  0
   -1.7811    3.2590    2.2779 H   0  0  0  0  0  0  0  0  0  0  0  0
   -1.0279    3.6923    0.7273 H   0  0  0  0  0  0  0  0  0  0  0  0
   -0.3443   -0.9876    1.7679 H   0  0  0  0  0  0  0  0  0  0  0  0
   -1.4498   -4.0766   -0.7419 H   0  0  0  0  0  0  0  0  0  0  0  0
   -0.8211   -2.6347   -1.5223 H   0  0  0  0  0  0  0  0  0  0  0  0
   -3.4843   -2.9472   -0.0785 H   0  0  0  0  0  0  0  0  0  0  0  0
   -3.2230   -2.5367   -1.7605 H   0  0  0  0  0  0  0  0  0  0  0  0
   -5.8183    1.0974   -2.3645 H   0  0  0  0  0  0  0  0  0  0  0  0
   -6.5944    0.7221   -0.8108 H   0  0  0  0  0  0  0  0  0  0  0  0
   -6.7863    2.3291   -1.5352 H   0  0  0  0  0  0  0  0  0  0  0  0
   -0.1525   -2.9504    2.4499 H   0  0  0  0  0  0  0  0  0  0  0  0
    0.8262    0.3489    0.0634 H   0  0  0  0  0  0  0  0  0  0  0  0
    0.5667   -0.8834   -1.1430 H   0  0  0  0  0  0  0  0  0  0  0  0
    5.7124   -0.8760   -2.2435 H   0  0  0  0  0  0  0  0  0  0  0  0
   -4.7280   -0.5998   -1.2758 H   0  0  0  0  0  0  0  0  0  0  0  0
    3.8448   -2.4369   -1.6939 H   0  0  0  0  0  0  0  0  0  0  0  0
    6.6439    1.6662   -1.4507 H   0  0  0  0  0  0  0  0  0  0  0  0
    6.1016    3.4942    0.1247 H   0  0  0  0  0  0  0  0  0  0  0  0
    4.1545    3.3345    1.6280 H   0  0  0  0  0  0  0  0  0  0  0  0
    2.6927    1.3497    1.5983 H   0  0  0  0  0  0  0  0  0  0  0  0
   -0.5803   -3.4475    1.5648 C   0  0  0  0  0  0  0  0  0  0  0  0
  9 24  1  0
 24 20  1  0
 25  5  1  0
 25 13  1  0
 20 13  1  0
 20 14  2  0
 13  1  2  0
 14  4  1  0
  1  3  1  0
  4  3  2  0
  4  8  1  0
  3  6  1  0
  8  7  1  0
  6 11  1  0
  6 10  1  0
  7 11  1  0
 22 23  2  0
 22 21  1  0
 11 51  1  0
 23 18  1  0
 10  2  1  0
 51 26  2  0
 21 19  2  0
 18 15  1  0
 18 17  2  0
  2 15  1  0
 15 16  2  0
 19 17  1  0
 17 12  1  0
 16 12  1  0
  1 27  1  0
  2 28  1  0
  2 29  1  0
  5 30  1  0
  5 31  1  0
  5 32  1  0
  6 33  1  1
  7 34  1  0
  7 35  1  0
  8 36  1  0
  8 37  1  0
  9 38  1  0
  9 39  1  0
  9 40  1  0
 51 41  1  0
 10 42  1  0
 10 43  1  0
 12 44  1  0
 14 45  1  0
 16 46  1  0
 19 47  1  0
 21 48  1  0
 22 49  1  0
 23 50  1  0
M  END
