
     RDKit          3D

 25 26  0  0  0  0  0  0  0  0999 V2000
   -1.2342   -1.9650    0.3927 C   0  0  0  0  0  0  0  0  0  0  0  0
   -0.6159   -0.7478    0.1085 C   0  0  0  0  0  0  0  0  0  0  0  0
   -1.4455    0.3472   -0.1471 C   0  0  0  0  0  0  0  0  0  0  0  0
   -2.8300    0.2301   -0.1136 C   0  0  0  0  0  0  0  0  0  0  0  0
   -3.4210   -0.9859    0.1903 C   0  0  0  0  0  0  0  0  0  0  0  0
   -2.6155   -2.0875    0.4359 C   0  0  0  0  0  0  0  0  0  0  0  0
    0.8650   -0.6958    0.1190 C   0  0  0  0  0  0  0  0  0  0  0  0
    1.5522    0.0538    1.0702 C   0  0  0  0  0  0  0  0  0  0  0  0
    2.9385    0.0317    1.1135 C   0  0  0  0  0  0  0  0  0  0  0  0
    3.6550   -0.7363    0.2047 C   0  0  0  0  0  0  0  0  0  0  0  0
    2.9757   -1.4923   -0.7412 C   0  0  0  0  0  0  0  0  0  0  0  0
    1.5887   -1.4770   -0.7785 C   0  0  0  0  0  0  0  0  0  0  0  0
   -0.8759    1.9478   -0.7038 S   0  0  0  0  0  0  0  0  0  0  0  0
   -0.5551    2.5324    0.8038 O   0  0  0  0  0  0  0  0  0  0  0  0
    0.3985    1.7609   -1.4292 O   0  0  0  0  0  0  0  0  0  0  0  0
   -0.6145   -2.8285    0.5993 H   0  0  0  0  0  0  0  0  0  0  0  0
   -3.4522    1.0883   -0.3400 H   0  0  0  0  0  0  0  0  0  0  0  0
   -4.4985   -1.0724    0.2201 H   0  0  0  0  0  0  0  0  0  0  0  0
   -3.0597   -3.0471    0.6649 H   0  0  0  0  0  0  0  0  0  0  0  0
    1.0032    0.6412    1.7936 H   0  0  0  0  0  0  0  0  0  0  0  0
    3.4608    0.6105    1.8644 H   0  0  0  0  0  0  0  0  0  0  0  0
    4.7368   -0.7513    0.2388 H   0  0  0  0  0  0  0  0  0  0  0  0
    3.5260   -2.0964   -1.4510 H   0  0  0  0  0  0  0  0  0  0  0  0
    1.0635   -2.0673   -1.5196 H   0  0  0  0  0  0  0  0  0  0  0  0
   -0.6711    3.4946    0.7912 H   0  0  0  0  0  0  0  0  0  0  0  0
  1  2  2  0
  1  6  1  0
  1 16  1  0
  2  3  1  0
  2  7  1  0
  3  4  2  0
  3 13  1  0
  4  5  1  0
  4 17  1  0
  5  6  2  0
  5 18  1  0
  6 19  1  0
  7  8  2  0
  7 12  1  0
  8  9  1  0
  8 20  1  0
  9 10  2  0
  9 21  1  0
 10 11  1  0
 10 22  1  0
 11 12  2  0
 11 23  1  0
 12 24  1  0
 13 14  1  1
 13 15  2  0
 14 25  1  0
M  END
