
     RDKit          3D

 57 59  0  0  0  0  0  0  0  0999 V2000
   -0.6708   -0.7234    0.1500 N   0  0  0  0  0  0  0  0  0  0  0  0
   -0.4179    2.9469    0.4488 N   0  0  0  0  0  0  0  0  0  0  0  0
   -2.0161   -0.7274    0.0863 C   0  0  0  0  0  0  0  0  0  0  0  0
   -1.5586    3.5719    0.4540 C   0  0  0  0  0  0  0  0  0  0  0  0
   -4.3834    4.2728    1.1584 C   0  0  0  0  0  0  0  0  0  0  0  0
   -4.4202    3.3697   -1.2004 C   0  0  0  0  0  0  0  0  0  0  0  0
   -1.8117   -3.1455   -0.1796 C   0  0  0  0  0  0  0  0  0  0  0  0
    2.1049   -0.7915    0.4491 C   0  0  0  0  0  0  0  0  0  0  0  0
    4.4898   -0.5206    1.2071 C   0  0  0  0  0  0  0  0  0  0  0  0
    6.2604    0.0571   -0.3149 C   0  0  0  0  0  0  0  0  0  0  0  0
    8.5172    0.3242    0.3641 C   0  0  0  0  0  0  0  0  0  0  0  0
   -4.2165   -2.6803   -2.3616 O   0  0  0  0  0  0  0  0  0  0  0  0
   -4.0510   -2.0493   -0.0648 C   0  0  0  0  0  0  0  0  0  0  0  0
   -2.6067   -1.9415   -0.0457 N   0  0  0  0  0  0  0  0  0  0  0  0
   -1.3027   -3.7020    1.1353 C   0  0  0  0  0  0  0  0  0  0  0  0
   -2.4033   -4.0493    1.9479 O   0  0  0  0  0  0  0  0  0  0  0  0
   -0.0198    0.4258    0.2683 C   0  0  0  0  0  0  0  0  0  0  0  0
   -0.7607    1.6228    0.3295 C   0  0  0  0  0  0  0  0  0  0  0  0
   -2.6399    2.7370    0.3574 N   0  0  0  0  0  0  0  0  0  0  0  0
   -2.1370    1.4732    0.2675 C   0  0  0  0  0  0  0  0  0  0  0  0
   -2.8160    0.3393    0.1454 N   0  0  0  0  0  0  0  0  0  0  0  0
    1.3230    0.4215    0.3176 N   0  0  0  0  0  0  0  0  0  0  0  0
    3.5554   -0.5057    0.1834 C   0  0  0  0  0  0  0  0  0  0  0  0
    3.9985   -0.1978   -1.1044 C   0  0  0  0  0  0  0  0  0  0  0  0
    5.3272    0.0786   -1.3567 C   0  0  0  0  0  0  0  0  0  0  0  0
    5.8342   -0.2458    0.9743 C   0  0  0  0  0  0  0  0  0  0  0  0
   -1.6752    4.6422    0.5325 H   0  0  0  0  0  0  0  0  0  0  0  0
   -4.5997    2.2220    0.5975 H   0  0  0  0  0  0  0  0  0  0  0  0
   -3.9078    5.1955    0.8227 H   0  0  0  0  0  0  0  0  0  0  0  0
   -5.4598    4.4402    1.1479 H   0  0  0  0  0  0  0  0  0  0  0  0
   -4.0813    4.0825    2.1882 H   0  0  0  0  0  0  0  0  0  0  0  0
   -3.8633    4.2229   -1.5913 H   0  0  0  0  0  0  0  0  0  0  0  0
   -4.2109    2.5037   -1.8284 H   0  0  0  0  0  0  0  0  0  0  0  0
   -5.4837    3.5949   -1.2817 H   0  0  0  0  0  0  0  0  0  0  0  0
   -2.4256   -3.8948   -0.6800 H   0  0  0  0  0  0  0  0  0  0  0  0
   -0.9556   -2.9595   -0.8284 H   0  0  0  0  0  0  0  0  0  0  0  0
    1.9874   -1.2271    1.4471 H   0  0  0  0  0  0  0  0  0  0  0  0
    1.7212   -1.5285   -0.2574 H   0  0  0  0  0  0  0  0  0  0  0  0
    4.1737   -0.7525    2.2174 H   0  0  0  0  0  0  0  0  0  0  0  0
    9.4615    0.5679   -0.1163 H   0  0  0  0  0  0  0  0  0  0  0  0
    8.3146    1.0672    1.1400 H   0  0  0  0  0  0  0  0  0  0  0  0
    8.6055   -0.6589    0.8338 H   0  0  0  0  0  0  0  0  0  0  0  0
   -4.5377   -2.4121   -3.2268 H   0  0  0  0  0  0  0  0  0  0  0  0
   -4.4316   -0.7177   -1.7015 H   0  0  0  0  0  0  0  0  0  0  0  0
   -5.7696   -1.7937   -1.2923 H   0  0  0  0  0  0  0  0  0  0  0  0
   -4.4841   -1.3746    0.6745 H   0  0  0  0  0  0  0  0  0  0  0  0
   -4.3145   -3.0615    0.2431 H   0  0  0  0  0  0  0  0  0  0  0  0
   -0.6738   -4.5743    0.9100 H   0  0  0  0  0  0  0  0  0  0  0  0
   -0.6612   -2.9576    1.6193 H   0  0  0  0  0  0  0  0  0  0  0  0
   -2.0692   -4.3165    2.8086 H   0  0  0  0  0  0  0  0  0  0  0  0
    1.7706    1.2887    0.5685 H   0  0  0  0  0  0  0  0  0  0  0  0
    3.2906   -0.1782   -1.9247 H   0  0  0  0  0  0  0  0  0  0  0  0
    5.6572    0.3106   -2.3617 H   0  0  0  0  0  0  0  0  0  0  0  0
    6.5236   -0.2711    1.8069 H   0  0  0  0  0  0  0  0  0  0  0  0
   -4.0499    3.0989    0.2516 C   0  0  1  0  0  0  0  0  0  0  0  0
    7.5336    0.3377   -0.6510 O   0  0  0  0  0  0  0  0  0  0  0  0
   -4.6785   -1.7446   -1.4112 C   0  0  0  0  0  0  0  0  0  0  0  0
  4  2  2  0
  4 19  1  0
  5 55  1  0
 55 19  1  0
 55  6  1  0
  2 18  1  0
 19 20  1  0
 18 20  2  0
 18 17  1  0
 20 21  1  0
 22 17  1  0
 22  8  1  0
 17  1  2  0
 21  3  2  0
  8 23  1  0
  1  3  1  0
  3 14  1  0
 15 16  1  0
 15  7  1  0
  9 23  2  0
  9 26  1  0
 23 24  1  0
 14  7  1  0
 14 13  1  0
 26 10  2  0
 24 25  2  0
 13 57  1  0
 57 12  1  0
 10 25  1  0
 10 56  1  0
 11 56  1  0
  4 27  1  0
 55 28  1  1
  5 29  1  0
  5 30  1  0
  5 31  1  0
  6 32  1  0
  6 33  1  0
  6 34  1  0
  7 35  1  0
  7 36  1  0
  8 37  1  0
  8 38  1  0
  9 39  1  0
 11 40  1  0
 11 41  1  0
 11 42  1  0
 12 43  1  0
 57 44  1  0
 57 45  1  0
 13 46  1  0
 13 47  1  0
 15 48  1  0
 15 49  1  0
 16 50  1  0
 22 51  1  0
 24 52  1  0
 25 53  1  0
 26 54  1  0
M  END
