
     RDKit          3D

 46 49  0  0  0  0  0  0  0  0999 V2000
    0.7826   -0.4475    0.5420 N   0  0  0  0  0  0  0  0  0  0  0  0
    0.0063   -1.5551    0.7328 C   0  0  0  0  0  0  0  0  0  0  0  0
    4.7306   -1.1576    1.0753 O   0  0  0  0  0  0  0  0  0  0  0  0
   -4.2536   -0.7264    0.1202 N   0  0  0  0  0  0  0  0  0  0  0  0
   -1.4570   -1.4771    0.5672 C   0  0  0  0  0  0  0  0  0  0  0  0
   -3.5472    1.3439   -0.3161 N   0  0  0  0  0  0  0  0  0  0  0  0
    4.3359   -0.0427    0.7991 C   0  0  0  0  0  0  0  0  0  0  0  0
    5.2289    1.1392    0.6678 C   0  0  0  0  0  0  0  0  0  0  0  0
   -9.7871    1.2342    0.1385 F   0  0  0  0  0  0  0  0  0  0  0  0
   -9.3920   -0.8434   -0.2568 F   0  0  0  0  0  0  0  0  0  0  0  0
   -9.5333    0.5582   -1.8826 F   0  0  0  0  0  0  0  0  0  0  0  0
   -7.6058    0.6728   -0.5406 C   0  0  0  0  0  0  0  0  0  0  0  0
   -6.7195   -0.3415   -0.2092 C   0  0  0  0  0  0  0  0  0  0  0  0
   -5.3798    0.0027   -0.1654 C   0  0  0  0  0  0  0  0  0  0  0  0
   -3.2079    0.1256    0.0121 C   0  0  0  0  0  0  0  0  0  0  0  0
   -4.9113    1.2989   -0.4359 C   0  0  0  0  0  0  0  0  0  0  0  0
   -5.8197    2.3025   -0.7669 C   0  0  0  0  0  0  0  0  0  0  0  0
   -7.1607    1.9761   -0.8167 C   0  0  0  0  0  0  0  0  0  0  0  0
   -1.9042   -0.2375    0.2241 N   0  0  0  0  0  0  0  0  0  0  0  0
   -2.1854   -2.4395    0.7268 O   0  0  0  0  0  0  0  0  0  0  0  0
    2.0271   -0.7287    0.7377 C   0  0  0  0  0  0  0  0  0  0  0  0
    2.3503   -2.3783    1.1688 S   0  0  0  0  0  0  0  0  0  0  0  0
    0.6687   -2.6882    1.0775 C   0  0  0  0  0  0  0  0  0  0  0  0
    3.0128    0.2158    0.6085 N   0  0  0  0  0  0  0  0  0  0  0  0
    4.9121    2.3315    1.3136 C   0  0  0  0  0  0  0  0  0  0  0  0
    5.7768    3.4139    1.2614 C   0  0  0  0  0  0  0  0  0  0  0  0
    6.9663    3.3151    0.5562 C   0  0  0  0  0  0  0  0  0  0  0  0
    7.2942    2.1374   -0.1015 C   0  0  0  0  0  0  0  0  0  0  0  0
    6.4285    1.0624   -0.0356 C   0  0  0  0  0  0  0  0  0  0  0  0
    6.7822   -0.1191   -0.6656 O   0  0  0  0  0  0  0  0  0  0  0  0
    6.3857   -0.2944   -1.9347 C   0  0  1  0  0  0  0  0  0  0  0  0
    6.7798   -1.4960   -2.3155 F   0  0  0  0  0  0  0  0  0  0  0  0
    5.0589   -0.2194   -2.0696 F   0  0  0  0  0  0  0  0  0  0  0  0
    6.9076    0.6066   -2.7663 F   0  0  0  0  0  0  0  0  0  0  0  0
   -4.1922   -1.7051    0.3574 H   0  0  0  0  0  0  0  0  0  0  0  0
   -7.0439   -1.3495    0.0091 H   0  0  0  0  0  0  0  0  0  0  0  0
   -5.4859    3.3091   -0.9802 H   0  0  0  0  0  0  0  0  0  0  0  0
   -7.8755    2.7480   -1.0718 H   0  0  0  0  0  0  0  0  0  0  0  0
   -1.2192    0.4996    0.1113 H   0  0  0  0  0  0  0  0  0  0  0  0
    0.2649   -3.6682    1.2770 H   0  0  0  0  0  0  0  0  0  0  0  0
    2.7087    1.1335    0.3106 H   0  0  0  0  0  0  0  0  0  0  0  0
    3.9942    2.4096    1.8822 H   0  0  0  0  0  0  0  0  0  0  0  0
    5.5230    4.3286    1.7791 H   0  0  0  0  0  0  0  0  0  0  0  0
    7.6454    4.1554    0.5119 H   0  0  0  0  0  0  0  0  0  0  0  0
    8.2227    2.0548   -0.6507 H   0  0  0  0  0  0  0  0  0  0  0  0
   -9.0710    0.3995   -0.6312 C   0  0  1  0  0  0  0  0  0  0  0  0
 17 16  1  0
 17 18  2  0
  6 16  1  0
  6 15  2  0
 23 22  1  0
 23  2  2  0
 16 14  2  0
 18 12  1  0
 22 21  1  0
 19 15  1  0
 19  5  1  0
 15  4  1  0
 31 33  1  1
  2  5  1  0
  2  1  1  0
  3  7  2  0
 14  4  1  0
 14 13  1  0
  5 20  2  0
 12 13  2  0
 12 46  1  0
 46 11  1  6
 21  1  2  0
 21 24  1  0
 31 30  1  0
 31 34  1  0
 31 32  1  0
 46  9  1  0
 46 10  1  0
 30 29  1  0
  7 24  1  0
  7  8  1  0
 29  8  1  0
 29 28  2  0
  8 25  2  0
 28 27  1  0
 25 26  1  0
 27 26  2  0
  4 35  1  0
 13 36  1  0
 17 37  1  0
 18 38  1  0
 19 39  1  0
 23 40  1  0
 24 41  1  0
 25 42  1  0
 26 43  1  0
 27 44  1  0
 28 45  1  0
M  END
