
     RDKit          3D

 49 51  0  0  0  0  0  0  0  0999 V2000
    5.6873    0.1827    0.1144 O   0  0  0  0  0  0  0  0  0  0  0  0
    4.4875    0.7737    0.0218 C   0  0  0  0  0  0  0  0  0  0  0  0
    4.3493    2.1054   -0.3309 C   0  0  0  0  0  0  0  0  0  0  0  0
    3.0846    2.6712   -0.4176 C   0  0  0  0  0  0  0  0  0  0  0  0
    3.0079    3.9626   -0.7481 O   0  0  0  0  0  0  0  0  0  0  0  0
    1.9656    1.8770   -0.1564 C   0  0  0  0  0  0  0  0  0  0  0  0
    0.4072    2.6446   -0.2421 Cl  0  0  0  0  0  0  0  0  0  0  0  0
    2.0800    0.5312    0.1792 C   0  0  0  0  0  0  0  0  0  0  0  0
    0.8523   -0.3006    0.4364 C   0  0  0  0  0  0  0  0  0  0  0  0
    0.1858   -0.7694   -0.8679 C   0  0  0  0  0  0  0  0  0  0  0  0
   -0.9804   -1.6843   -0.6031 C   0  0  0  0  0  0  0  0  0  0  0  0
   -2.2701   -1.1986   -0.3310 C   0  0  0  0  0  0  0  0  0  0  0  0
   -2.5337    0.2945   -0.3391 C   0  0  0  0  0  0  0  0  0  0  0  0
   -3.9600    0.6942   -0.0879 C   0  0  0  0  0  0  0  0  0  0  0  0
   -4.4159    0.9215    1.2083 C   0  0  0  0  0  0  0  0  0  0  0  0
   -5.7368    1.2767    1.4459 C   0  0  0  0  0  0  0  0  0  0  0  0
   -6.6237    1.4108    0.3854 C   0  0  0  0  0  0  0  0  0  0  0  0
   -6.1796    1.1881   -0.9117 C   0  0  0  0  0  0  0  0  0  0  0  0
   -4.8578    0.8318   -1.1436 C   0  0  0  0  0  0  0  0  0  0  0  0
   -3.2863   -2.1123   -0.0643 C   0  0  0  0  0  0  0  0  0  0  0  0
   -3.0490   -3.4808   -0.0573 C   0  0  0  0  0  0  0  0  0  0  0  0
   -1.7772   -3.9600   -0.3258 C   0  0  0  0  0  0  0  0  0  0  0  0
   -0.7579   -3.0585   -0.5967 C   0  0  0  0  0  0  0  0  0  0  0  0
    3.3604   -0.0188    0.2656 C   0  0  0  0  0  0  0  0  0  0  0  0
    3.5852   -1.4364    0.6694 C   0  0  0  0  0  0  0  0  0  0  0  0
    3.1037   -2.2899   -0.2206 O   0  0  0  0  0  0  0  0  0  0  0  0
    3.2254   -3.6847    0.0700 C   0  0  0  0  0  0  0  0  0  0  0  0
    4.1522   -1.7679    1.6789 O   0  0  0  0  0  0  0  0  0  0  0  0
    6.3931    0.8087   -0.0857 H   0  0  0  0  0  0  0  0  0  0  0  0
    5.2193    2.7177   -0.5385 H   0  0  0  0  0  0  0  0  0  0  0  0
    2.0894    4.2565   -0.8096 H   0  0  0  0  0  0  0  0  0  0  0  0
    1.1026   -1.1722    1.0415 H   0  0  0  0  0  0  0  0  0  0  0  0
    0.1414    0.2715    1.0348 H   0  0  0  0  0  0  0  0  0  0  0  0
   -0.1222    0.0975   -1.4552 H   0  0  0  0  0  0  0  0  0  0  0  0
    0.9274   -1.2995   -1.4666 H   0  0  0  0  0  0  0  0  0  0  0  0
   -1.9002    0.7725    0.4125 H   0  0  0  0  0  0  0  0  0  0  0  0
   -2.2116    0.7079   -1.2992 H   0  0  0  0  0  0  0  0  0  0  0  0
   -3.7286    0.8204    2.0403 H   0  0  0  0  0  0  0  0  0  0  0  0
   -6.0731    1.4518    2.4598 H   0  0  0  0  0  0  0  0  0  0  0  0
   -7.6533    1.6895    0.5689 H   0  0  0  0  0  0  0  0  0  0  0  0
   -6.8624    1.2946   -1.7449 H   0  0  0  0  0  0  0  0  0  0  0  0
   -4.5187    0.6587   -2.1584 H   0  0  0  0  0  0  0  0  0  0  0  0
   -4.2865   -1.7556    0.1447 H   0  0  0  0  0  0  0  0  0  0  0  0
   -3.8601   -4.1659    0.1539 H   0  0  0  0  0  0  0  0  0  0  0  0
   -1.5781   -5.0239   -0.3292 H   0  0  0  0  0  0  0  0  0  0  0  0
    0.2363   -3.4297   -0.8181 H   0  0  0  0  0  0  0  0  0  0  0  0
    2.7141   -3.9452    0.9965 H   0  0  0  0  0  0  0  0  0  0  0  0
    2.7569   -4.2031   -0.7612 H   0  0  0  0  0  0  0  0  0  0  0  0
    4.2708   -3.9838    0.1390 H   0  0  0  0  0  0  0  0  0  0  0  0
  1  2  1  0
  2  3  2  0
  2 24  1  0
 28 25  2  0
  3  4  1  0
 25 24  1  0
 25 26  1  0
 27 26  1  0
 24  8  2  0
  4  5  1  0
  4  6  2  0
 16 17  1  0
 16 15  2  0
 17 18  2  0
  8  6  1  0
  8  9  1  0
  6  7  1  0
 15 14  1  0
 18 19  1  0
  9 10  1  0
 19 14  2  0
 14 13  1  0
 10 11  1  0
 13 12  1  0
 11 12  1  0
 11 23  2  0
 12 20  2  0
 23 22  1  0
 20 21  1  0
 22 21  2  0
  1 29  1  0
  3 30  1  0
  5 31  1  0
  9 32  1  0
  9 33  1  0
 10 34  1  0
 10 35  1  0
 13 36  1  0
 13 37  1  0
 15 38  1  0
 16 39  1  0
 17 40  1  0
 18 41  1  0
 19 42  1  0
 20 43  1  0
 21 44  1  0
 22 45  1  0
 23 46  1  0
 27 47  1  0
 27 48  1  0
 27 49  1  0
M  END
