
     RDKit          3D

 52 56  0  0  0  0  0  0  0  0999 V2000
   -2.0146    1.9134    0.3241 C   0  0  0  0  0  0  0  0  0  0  0  0
   -3.1141    0.9664   -0.0622 C   0  0  0  0  0  0  0  0  0  0  0  0
   -4.4693    1.6596   -0.0996 C   0  0  0  0  0  0  0  0  0  0  0  0
   -6.0497    0.8130   -1.7447 C   0  0  0  0  0  0  0  0  0  0  0  0
   -7.1506   -0.1830   -2.0325 C   0  0  0  0  0  0  0  0  0  0  0  0
   -6.6746   -1.3438   -0.0894 C   0  0  0  0  0  0  0  0  0  0  0  0
   -7.1039   -2.3571    0.7495 C   0  0  0  0  0  0  0  0  0  0  0  0
   -6.8313   -2.2906    2.1089 C   0  0  0  0  0  0  0  0  0  0  0  0
   -6.1473   -1.1988    2.6201 C   0  0  0  0  0  0  0  0  0  0  0  0
   -5.7221   -0.1796    1.7784 C   0  0  0  0  0  0  0  0  0  0  0  0
   -5.9760   -0.2420    0.4123 C   0  0  0  0  0  0  0  0  0  0  0  0
    0.3042    2.1271    0.5427 C   0  0  0  0  0  0  0  0  0  0  0  0
    1.5340    1.2872    0.3699 C   0  0  0  0  0  0  0  0  0  0  0  0
    2.6617   -0.5813   -0.0658 C   0  0  0  0  0  0  0  0  0  0  0  0
    4.4831   -2.1999   -0.3682 C   0  0  0  0  0  0  0  0  0  0  0  0
    4.9769   -0.9648   -0.0782 C   0  0  0  0  0  0  0  0  0  0  0  0
    6.4245   -0.7003    0.0000 C   0  0  0  0  0  0  0  0  0  0  0  0
    7.2380   -1.5173    0.7837 C   0  0  0  0  0  0  0  0  0  0  0  0
    8.6114   -1.3168    0.8256 C   0  0  0  0  0  0  0  0  0  0  0  0
    9.1884   -0.2975    0.0818 C   0  0  0  0  0  0  0  0  0  0  0  0
    8.3846    0.5189   -0.7058 C   0  0  0  0  0  0  0  0  0  0  0  0
    7.0132    0.3211   -0.7455 C   0  0  0  0  0  0  0  0  0  0  0  0
    3.9144   -0.0192    0.1050 C   0  0  0  0  0  0  0  0  0  0  0  0
    3.9715    1.3675    0.5035 C   0  0  0  0  0  0  0  0  0  0  0  0
   -5.5210    0.7352   -0.4932 N   0  0  0  0  0  0  0  0  0  0  0  0
    1.4674    0.0407    0.0521 N   0  0  0  0  0  0  0  0  0  0  0  0
    2.7029    1.9360    0.5856 N   0  0  0  0  0  0  0  0  0  0  0  0
   -2.1703    3.0538    0.6754 O   0  0  0  0  0  0  0  0  0  0  0  0
   -6.9150   -1.4320   -1.4192 O   0  0  0  0  0  0  0  0  0  0  0  0
   -0.8197    1.3334    0.2299 O   0  0  0  0  0  0  0  0  0  0  0  0
    4.9595    2.0271    0.7624 O   0  0  0  0  0  0  0  0  0  0  0  0
    2.7648   -2.2560   -0.4395 S   0  0  0  0  0  0  0  0  0  0  0  0
   -2.8806    0.5360   -1.0393 H   0  0  0  0  0  0  0  0  0  0  0  0
   -3.1132    0.1311    0.6455 H   0  0  0  0  0  0  0  0  0  0  0  0
   -4.7177    2.0990    0.8654 H   0  0  0  0  0  0  0  0  0  0  0  0
   -4.4589    2.4750   -0.8171 H   0  0  0  0  0  0  0  0  0  0  0  0
   -8.1076    0.2438   -1.7043 H   0  0  0  0  0  0  0  0  0  0  0  0
   -7.2029   -0.3518   -3.1055 H   0  0  0  0  0  0  0  0  0  0  0  0
   -7.6385   -3.1996    0.3299 H   0  0  0  0  0  0  0  0  0  0  0  0
   -7.1636   -3.0853    2.7630 H   0  0  0  0  0  0  0  0  0  0  0  0
   -5.9342   -1.1326    3.6784 H   0  0  0  0  0  0  0  0  0  0  0  0
   -5.1892    0.6582    2.2054 H   0  0  0  0  0  0  0  0  0  0  0  0
    0.2616    2.4939    1.5732 H   0  0  0  0  0  0  0  0  0  0  0  0
    0.3666    3.0000   -0.1142 H   0  0  0  0  0  0  0  0  0  0  0  0
    5.0546   -3.0923   -0.5747 H   0  0  0  0  0  0  0  0  0  0  0  0
    6.7921   -2.3082    1.3739 H   0  0  0  0  0  0  0  0  0  0  0  0
    9.2282   -1.9557    1.4441 H   0  0  0  0  0  0  0  0  0  0  0  0
   10.2585   -0.1381    0.1137 H   0  0  0  0  0  0  0  0  0  0  0  0
    8.8290    1.3119   -1.2933 H   0  0  0  0  0  0  0  0  0  0  0  0
    6.3992    0.9523   -1.3738 H   0  0  0  0  0  0  0  0  0  0  0  0
    2.6758    2.9147    0.8471 H   0  0  0  0  0  0  0  0  0  0  0  0
   -5.7071    1.6352   -2.5720 O   0  0  0  0  0  0  0  0  0  0  0  0
 20 19  1  0
 20 21  2  0
 19 18  2  0
 21 22  1  0
 18 17  1  0
 22 17  2  0
 17 16  1  0
 16 15  2  0
 16 23  1  0
 15 32  1  0
 31 24  2  0
 23 24  1  0
 23 14  2  0
 24 27  1  0
 32 14  1  0
 14 26  1  0
 27 13  1  0
 26 13  2  0
 13 12  1  0
 12 30  1  0
 30  1  1  0
 28  1  2  0
  1  2  1  0
  2  3  1  0
  3 25  1  0
 10  9  2  0
 10 11  1  0
 25 11  1  0
 25  4  1  0
  9  8  1  0
 11  6  2  0
 52  4  2  0
  4  5  1  0
  6  7  1  0
  6 29  1  0
  8  7  2  0
 29  5  1  0
  2 33  1  0
  2 34  1  0
  3 35  1  0
  3 36  1  0
  5 37  1  0
  5 38  1  0
  7 39  1  0
  8 40  1  0
  9 41  1  0
 10 42  1  0
 12 43  1  0
 12 44  1  0
 15 45  1  0
 18 46  1  0
 19 47  1  0
 20 48  1  0
 21 49  1  0
 22 50  1  0
 27 51  1  0
M  END
