
     RDKit          3D

 50 53  0  0  0  0  0  0  0  0999 V2000
   11.1275   10.6920  -19.8374 O   0  0  0  0  0  0  0  0  0  0  0  0
   11.9233   10.5934  -18.9196 C   0  0  0  0  0  0  0  0  0  0  0  0
   12.8819    9.6649  -18.8456 N   0  0  0  0  0  0  0  0  0  0  0  0
   12.9194    8.6538  -19.7543 O   0  0  0  0  0  0  0  0  0  0  0  0
   11.8706   11.5620  -17.7416 C   0  0  1  0  0  0  0  0  0  0  0  0
   10.5323   11.4201  -17.0077 C   0  0  0  0  0  0  0  0  0  0  0  0
   10.3798   12.4695  -15.9414 C   0  0  0  0  0  0  0  0  0  0  0  0
   10.5132   12.1350  -14.5751 C   0  0  0  0  0  0  0  0  0  0  0  0
   10.3801   13.0865  -13.6000 C   0  0  0  0  0  0  0  0  0  0  0  0
   10.1069   14.4298  -13.9355 C   0  0  0  0  0  0  0  0  0  0  0  0
    9.9537   15.4375  -12.9539 C   0  0  0  0  0  0  0  0  0  0  0  0
    9.9826   14.7782  -15.3049 C   0  0  0  0  0  0  0  0  0  0  0  0
    9.6997   16.1208  -15.6504 C   0  0  0  0  0  0  0  0  0  0  0  0
    9.5466   17.0705  -14.6805 C   0  0  0  0  0  0  0  0  0  0  0  0
    9.6781   16.7267  -13.3177 C   0  0  0  0  0  0  0  0  0  0  0  0
   10.1317   13.7743  -16.2841 C   0  0  0  0  0  0  0  0  0  0  0  0
   12.9748   11.3801  -16.8122 N   0  0  0  0  0  0  0  0  0  0  0  0
   14.2664   12.4018  -16.8649 S   0  0  2  0  0  0  0  0  0  0  0  0
   14.5871   12.5706  -18.2722 O   0  0  0  0  0  0  0  0  0  0  0  0
   15.2456   11.8546  -15.9430 O   0  0  0  0  0  0  0  0  0  0  0  0
   13.7329   13.9601  -16.2227 C   0  0  0  0  0  0  0  0  0  0  0  0
   13.6251   14.1073  -14.8227 C   0  0  0  0  0  0  0  0  0  0  0  0
   13.2937   15.3259  -14.3079 C   0  0  0  0  0  0  0  0  0  0  0  0
   13.0599   16.4366  -15.1520 C   0  0  0  0  0  0  0  0  0  0  0  0
   12.7646   17.7167  -14.6352 C   0  0  0  0  0  0  0  0  0  0  0  0
   13.1304   16.2623  -16.5570 C   0  0  0  0  0  0  0  0  0  0  0  0
   13.4818   14.9972  -17.0780 C   0  0  0  0  0  0  0  0  0  0  0  0
   12.8794   17.3649  -17.4051 C   0  0  0  0  0  0  0  0  0  0  0  0
   12.5911   18.5929  -16.8754 C   0  0  0  0  0  0  0  0  0  0  0  0
   12.5410   18.7710  -15.4777 C   0  0  0  0  0  0  0  0  0  0  0  0
   13.4685    9.5529  -18.0315 H   0  0  0  0  0  0  0  0  0  0  0  0
   11.9012   12.5665  -18.1768 H   0  0  0  0  0  0  0  0  0  0  0  0
   13.5386    8.9299  -20.4430 H   0  0  0  0  0  0  0  0  0  0  0  0
    9.7334   11.5097  -17.7436 H   0  0  0  0  0  0  0  0  0  0  0  0
   10.4573   10.4184  -16.5767 H   0  0  0  0  0  0  0  0  0  0  0  0
   12.7335   11.0773  -15.8751 H   0  0  0  0  0  0  0  0  0  0  0  0
   10.7065   11.1053  -14.2956 H   0  0  0  0  0  0  0  0  0  0  0  0
   10.0273   14.0506  -17.3286 H   0  0  0  0  0  0  0  0  0  0  0  0
   10.4831   12.8131  -12.5566 H   0  0  0  0  0  0  0  0  0  0  0  0
   10.0567   15.1730  -11.9080 H   0  0  0  0  0  0  0  0  0  0  0  0
    9.5645   17.4916  -12.5604 H   0  0  0  0  0  0  0  0  0  0  0  0
    9.6115   16.3868  -16.6966 H   0  0  0  0  0  0  0  0  0  0  0  0
    9.3376   18.0959  -14.9546 H   0  0  0  0  0  0  0  0  0  0  0  0
   13.8131   13.2726  -14.1614 H   0  0  0  0  0  0  0  0  0  0  0  0
   13.5716   14.8768  -18.1501 H   0  0  0  0  0  0  0  0  0  0  0  0
   13.2149   15.4541  -13.2361 H   0  0  0  0  0  0  0  0  0  0  0  0
   12.7105   17.8494  -13.5622 H   0  0  0  0  0  0  0  0  0  0  0  0
   12.3149   19.7490  -15.0736 H   0  0  0  0  0  0  0  0  0  0  0  0
   12.9256   17.2255  -18.4783 H   0  0  0  0  0  0  0  0  0  0  0  0
   12.4044   19.4347  -17.5291 H   0  0  0  0  0  0  0  0  0  0  0  0
  1  2  2  0
  2  3  1  0
  2  5  1  0
  3  4  1  0
  5  6  1  0
  5 17  1  0
  6  7  1  0
  7  8  2  0
  7 16  1  0
  8  9  1  0
  9 10  2  0
 10 11  1  0
 10 12  1  0
 11 15  2  0
 12 13  1  0
 12 16  2  0
 13 14  2  0
 14 15  1  0
 18 17  1  6
 18 19  2  0
 18 20  2  0
 18 21  1  0
 21 22  2  0
 21 27  1  0
 22 23  1  0
 23 24  2  0
 24 25  1  0
 24 26  1  0
 25 30  2  0
 26 27  2  0
 26 28  1  0
 28 29  2  0
 29 30  1  0
  3 31  1  0
  5 32  1  6
  4 33  1  0
  6 34  1  0
  6 35  1  0
 17 36  1  0
  8 37  1  0
 16 38  1  0
  9 39  1  0
 11 40  1  0
 15 41  1  0
 13 42  1  0
 14 43  1  0
 22 44  1  0
 27 45  1  0
 23 46  1  0
 25 47  1  0
 30 48  1  0
 28 49  1  0
 29 50  1  0
M  END
