
     RDKit          3D

 22 21  0  0  0  0  0  0  0  0999 V2000
    0.0999    1.9138    0.4682 N   0  0  0  0  0  0  0  0  0  0  0  0
    0.0092    0.4734    0.6043 C   0  0  1  0  0  0  0  0  0  0  0  0
   -1.1344   -0.2519   -0.1780 C   0  0  1  0  0  0  0  0  0  0  0  0
   -1.2486    0.2663   -1.6020 C   0  0  0  0  0  0  0  0  0  0  0  0
   -0.8693   -1.7509   -0.2081 C   0  0  0  0  0  0  0  0  0  0  0  0
   -2.4505   -0.0217    0.5505 C   0  0  0  0  0  0  0  0  0  0  0  0
    1.3548   -0.1306    0.2263 C   0  0  0  0  0  0  0  0  0  0  0  0
    1.9624   -0.0817   -0.8456 O   0  0  0  0  0  0  0  0  0  0  0  0
    1.9472   -0.8148    1.2431 O   0  0  0  0  0  0  0  0  0  0  0  0
    0.6039    2.1685   -0.3609 H   0  0  0  0  0  0  0  0  0  0  0  0
   -0.8105    2.3291    0.4517 H   0  0  0  0  0  0  0  0  0  0  0  0
   -0.1571    0.2598    1.7055 H   0  0  0  0  0  0  0  0  0  0  0  0
   -0.2517    0.2423   -2.1070 H   0  0  0  0  0  0  0  0  0  0  0  0
   -1.9596   -0.3701   -2.1827 H   0  0  0  0  0  0  0  0  0  0  0  0
   -1.6320    1.3154   -1.6149 H   0  0  0  0  0  0  0  0  0  0  0  0
   -0.4659   -2.0977    0.7742 H   0  0  0  0  0  0  0  0  0  0  0  0
   -1.8176   -2.3008   -0.4173 H   0  0  0  0  0  0  0  0  0  0  0  0
   -0.1329   -2.0065   -1.0097 H   0  0  0  0  0  0  0  0  0  0  0  0
   -2.7181    1.0616    0.5686 H   0  0  0  0  0  0  0  0  0  0  0  0
   -3.2713   -0.5715    0.0292 H   0  0  0  0  0  0  0  0  0  0  0  0
   -2.3862   -0.3935    1.6018 H   0  0  0  0  0  0  0  0  0  0  0  0
    2.7985   -1.1744    0.9419 H   0  0  0  0  0  0  0  0  0  0  0  0
  1  2  1  0
  1 10  1  0
  1 11  1  0
  2  3  1  0
  2  7  1  0
  2 12  1  1
  3  4  1  6
  3  5  1  0
  3  6  1  0
  4 13  1  0
  4 14  1  0
  4 15  1  0
  5 16  1  0
  5 17  1  0
  5 18  1  0
  6 19  1  0
  6 20  1  0
  6 21  1  0
  7  8  2  0
  7  9  1  0
  9 22  1  0
M  END
