
     RDKit          3D

 38 39  0  0  0  0  0  0  0  0999 V2000
   -0.5538    1.1845    0.0920 C   0  0  0  0  0  0  0  0  0  0  0  0
   -0.5527    2.4135    0.1191 O   0  0  0  0  0  0  0  0  0  0  0  0
    1.8818    1.0881    0.0523 C   0  0  0  0  0  0  0  0  0  0  0  0
   -4.2900   -0.8396    0.0659 C   0  0  0  0  0  0  0  0  0  0  0  0
   -5.6514    1.0794    0.1554 C   0  0  0  0  0  0  0  0  0  0  0  0
   -1.8846   -1.0209    0.0504 C   0  0  0  0  0  0  0  0  0  0  0  0
   -6.5143   -0.1341   -0.2474 C   0  0  0  0  0  0  0  0  0  0  0  0
   -5.6782   -1.3836    0.0885 C   0  0  0  0  0  0  0  0  0  0  0  0
    2.9667    0.0237    0.0486 C   0  0  0  0  0  0  0  0  0  0  0  0
    4.3456    0.6609    0.0276 C   0  0  0  0  0  0  0  0  0  0  0  0
    5.4639   -0.3457    0.0143 C   0  0  0  0  0  0  0  0  0  0  0  0
    7.8063   -0.5898   -0.0518 C   0  0  0  0  0  0  0  0  0  0  0  0
   -1.8383    0.4229    0.0879 C   0  0  0  0  0  0  0  0  0  0  0  0
   -3.0081    1.1501    0.1170 C   0  0  0  0  0  0  0  0  0  0  0  0
   -4.2564    0.5242    0.1011 C   0  0  0  0  0  0  0  0  0  0  0  0
   -3.1585   -1.5591    0.0463 N   0  0  0  0  0  0  0  0  0  0  0  0
    0.5760    0.4698    0.0643 N   0  0  0  0  0  0  0  0  0  0  0  0
    5.3217   -1.5425    0.0436 O   0  0  0  0  0  0  0  0  0  0  0  0
    6.6502    0.2475   -0.0349 O   0  0  0  0  0  0  0  0  0  0  0  0
    1.9986    1.7365    0.9258 H   0  0  0  0  0  0  0  0  0  0  0  0
    1.9876    1.7300   -0.8278 H   0  0  0  0  0  0  0  0  0  0  0  0
   -5.7988    1.9288   -0.5125 H   0  0  0  0  0  0  0  0  0  0  0  0
   -5.8904    1.4211    1.1666 H   0  0  0  0  0  0  0  0  0  0  0  0
   -7.4823   -0.1426    0.2505 H   0  0  0  0  0  0  0  0  0  0  0  0
   -5.8263   -2.2042   -0.6148 H   0  0  0  0  0  0  0  0  0  0  0  0
    2.8608   -0.6102    0.9323 H   0  0  0  0  0  0  0  0  0  0  0  0
    2.8418   -0.6229   -0.8236 H   0  0  0  0  0  0  0  0  0  0  0  0
    4.4574    1.3108   -0.8460 H   0  0  0  0  0  0  0  0  0  0  0  0
    4.4818    1.3132    0.8962 H   0  0  0  0  0  0  0  0  0  0  0  0
    7.8246   -1.2264   -0.9363 H   0  0  0  0  0  0  0  0  0  0  0  0
    8.6609    0.0799   -0.0743 H   0  0  0  0  0  0  0  0  0  0  0  0
    7.8615   -1.2132    0.8404 H   0  0  0  0  0  0  0  0  0  0  0  0
   -2.9441    2.2310    0.1483 H   0  0  0  0  0  0  0  0  0  0  0  0
    0.4906   -0.5396    0.0356 H   0  0  0  0  0  0  0  0  0  0  0  0
   -6.6985   -0.1065   -1.3222 H   0  0  0  0  0  0  0  0  0  0  0  0
   -5.9019   -1.7703    1.0878 H   0  0  0  0  0  0  0  0  0  0  0  0
   -3.2131   -2.5699    0.0170 H   0  0  0  0  0  0  0  0  0  0  0  0
   -0.9185   -1.7902    0.0191 O   0  0  0  0  0  0  0  0  0  0  0  0
  9  3  1  0
  9 10  1  0
  3 17  1  0
 10 11  1  0
 17  1  1  0
 19 11  1  0
 19 12  1  0
 11 18  2  0
  2  1  2  0
  1 13  1  0
 38  6  2  0
 13  6  1  0
 13 14  2  0
  6 16  1  0
 14 15  1  0
 16  4  1  0
 15  4  2  0
 15  5  1  0
  4  8  1  0
  5  7  1  0
  8  7  1  0
  3 20  1  0
  3 21  1  0
  5 22  1  0
  5 23  1  0
  7 24  1  0
  8 25  1  0
  9 26  1  0
  9 27  1  0
 10 28  1  0
 10 29  1  0
 12 30  1  0
 12 31  1  0
 12 32  1  0
 14 33  1  0
 17 34  1  0
  7 35  1  0
  8 36  1  0
 16 37  1  0
M  END
