
     RDKit          3D

 29 29  0  0  0  0  0  0  0  0999 V2000
    4.0601   -0.0799   -0.1724 C   0  0  0  0  0  0  0  0  0  0  0  0
    3.1507    0.9479    0.0356 C   0  0  0  0  0  0  0  0  0  0  0  0
    3.5965    2.3730    0.1599 C   0  0  0  0  0  0  0  0  0  0  0  0
   -1.0032    0.1337   -0.1404 C   0  0  0  0  0  0  0  0  0  0  0  0
   -3.4363    0.4126   -0.0076 C   0  0  0  0  0  0  0  0  0  0  0  0
   -4.6519   -0.5021   -0.0045 C   0  0  0  0  0  0  0  0  0  0  0  0
   -5.9415    0.2820   -0.1967 C   0  0  0  0  0  0  0  0  0  0  0  0
    0.0234   -0.7377    0.1840 N   0  0  0  0  0  0  0  0  0  0  0  0
    1.8403    0.7258    0.1511 N   0  0  0  0  0  0  0  0  0  0  0  0
    3.5776   -1.3795   -0.2712 C   0  0  0  0  0  0  0  0  0  0  0  0
   -2.2219   -0.3456    0.2014 N   0  0  0  0  0  0  0  0  0  0  0  0
    1.3844   -0.5084    0.0369 C   0  0  0  0  0  0  0  0  0  0  0  0
    2.2215   -1.6102   -0.1752 C   0  0  0  0  0  0  0  0  0  0  0  0
   -0.8348    1.2008   -0.7031 O   0  0  0  0  0  0  0  0  0  0  0  0
    5.1184    0.1280   -0.2512 H   0  0  0  0  0  0  0  0  0  0  0  0
    3.1218    2.9931   -0.6019 H   0  0  0  0  0  0  0  0  0  0  0  0
    3.3140    2.7830    1.1307 H   0  0  0  0  0  0  0  0  0  0  0  0
    4.6754    2.4682    0.0514 H   0  0  0  0  0  0  0  0  0  0  0  0
   -3.3705    0.9293   -0.9658 H   0  0  0  0  0  0  0  0  0  0  0  0
   -3.5553    1.1838    0.7623 H   0  0  0  0  0  0  0  0  0  0  0  0
   -4.5439   -1.2469   -0.7969 H   0  0  0  0  0  0  0  0  0  0  0  0
   -4.6943   -1.0526    0.9402 H   0  0  0  0  0  0  0  0  0  0  0  0
   -6.8089   -0.3776   -0.1906 H   0  0  0  0  0  0  0  0  0  0  0  0
   -6.0805    1.0181    0.5970 H   0  0  0  0  0  0  0  0  0  0  0  0
   -5.9402    0.8173   -1.1478 H   0  0  0  0  0  0  0  0  0  0  0  0
   -0.2337   -1.6953    0.3671 H   0  0  0  0  0  0  0  0  0  0  0  0
    4.2576   -2.2057   -0.4328 H   0  0  0  0  0  0  0  0  0  0  0  0
   -2.2774   -1.1245    0.8388 H   0  0  0  0  0  0  0  0  0  0  0  0
    1.8132   -2.6084   -0.2665 H   0  0  0  0  0  0  0  0  0  0  0  0
  7  6  1  0
  6  5  1  0
 14  4  2  0
  5 11  1  0
  4 11  1  0
  4  8  1  0
 13 10  1  0
 13 12  2  0
 10  1  2  0
  8 12  1  0
 12  9  1  0
  1  2  1  0
  9  2  2  0
  2  3  1  0
  1 15  1  0
  3 16  1  0
  3 17  1  0
  3 18  1  0
  5 19  1  0
  5 20  1  0
  6 21  1  0
  6 22  1  0
  7 23  1  0
  7 24  1  0
  7 25  1  0
  8 26  1  0
 10 27  1  0
 11 28  1  0
 13 29  1  0
M  END
