
     RDKit          3D

 18 19  0  0  0  0  0  0  0  0999 V2000
   -2.6499    1.5090    0.1639 O   0  0  0  0  0  0  0  0  0  0  0  0
   -1.6795    0.7934    0.1006 C   0  0  0  0  0  0  0  0  0  0  0  0
   -0.4591    1.3417    0.0944 O   0  0  0  0  0  0  0  0  0  0  0  0
    0.6903    0.6144    0.0273 C   0  0  0  0  0  0  0  0  0  0  0  0
    1.8904    1.3074    0.0290 C   0  0  0  0  0  0  0  0  0  0  0  0
    3.0717    0.5893   -0.0373 C   0  0  0  0  0  0  0  0  0  0  0  0
    3.0505   -0.8038   -0.1041 C   0  0  0  0  0  0  0  0  0  0  0  0
    1.8462   -1.4791   -0.1041 C   0  0  0  0  0  0  0  0  0  0  0  0
    0.6379   -0.7765   -0.0387 C   0  0  0  0  0  0  0  0  0  0  0  0
   -0.6484   -1.4137   -0.0354 C   0  0  0  0  0  0  0  0  0  0  0  0
   -1.7657   -0.6670    0.0293 C   0  0  0  0  0  0  0  0  0  0  0  0
   -2.9917   -1.1974    0.0348 O   0  0  0  0  0  0  0  0  0  0  0  0
    1.8957    2.3882    0.0815 H   0  0  0  0  0  0  0  0  0  0  0  0
    4.0154    1.1178   -0.0360 H   0  0  0  0  0  0  0  0  0  0  0  0
    3.9785   -1.3568   -0.1564 H   0  0  0  0  0  0  0  0  0  0  0  0
    1.8234   -2.5603   -0.1547 H   0  0  0  0  0  0  0  0  0  0  0  0
   -0.7082   -2.4940   -0.0862 H   0  0  0  0  0  0  0  0  0  0  0  0
   -3.6545   -0.4946    0.0855 H   0  0  0  0  0  0  0  0  0  0  0  0
  1  2  2  0
  2  3  1  0
  2 11  1  0
  3  4  1  0
  4  5  1  0
  4  9  2  0
  5  6  2  0
  6  7  1  0
  7  8  2  0
  8  9  1  0
  9 10  1  0
 10 11  2  0
 11 12  1  0
  5 13  1  0
  6 14  1  0
  7 15  1  0
  8 16  1  0
 10 17  1  0
 12 18  1  0
M  END
