
     RDKit          3D

 16 17  0  0  0  0  0  0  0  0999 V2000
    1.5171    0.2462   -0.0093 C   0  0  0  0  0  0  0  0  0  0  0  0
    0.5355    1.2047    0.0160 N   0  0  0  0  0  0  0  0  0  0  0  0
   -0.5751    0.5223    0.0170 C   0  0  0  0  0  0  0  0  0  0  0  0
   -0.3726   -0.8217   -0.0058 N   0  0  0  0  0  0  0  0  0  0  0  0
    0.9895   -1.0165   -0.0231 C   0  0  0  0  0  0  0  0  0  0  0  0
   -1.5241   -1.5821   -0.0058 C   0  0  0  0  0  0  0  0  0  0  0  0
   -2.6271   -0.8183    0.0174 C   0  0  0  0  0  0  0  0  0  0  0  0
   -2.2656    0.8896    0.0399 S   0  0  0  0  0  0  0  0  0  0  0  0
    2.9554    0.6359   -0.0185 C   0  0  0  0  0  0  0  0  0  0  0  0
    3.7336   -0.5330   -0.0502 O   0  0  0  0  0  0  0  0  0  0  0  0
    1.4319   -1.9967   -0.0435 H   0  0  0  0  0  0  0  0  0  0  0  0
   -1.4737   -2.6584   -0.0229 H   0  0  0  0  0  0  0  0  0  0  0  0
   -3.6500   -1.1566    0.0232 H   0  0  0  0  0  0  0  0  0  0  0  0
    3.1457    1.2813   -0.8868 H   0  0  0  0  0  0  0  0  0  0  0  0
    3.1661    1.2472    0.8695 H   0  0  0  0  0  0  0  0  0  0  0  0
    4.6599   -0.2774   -0.0556 H   0  0  0  0  0  0  0  0  0  0  0  0
  2  1  1  0
  1  5  2  0
  1  9  1  0
  3  2  2  0
  8  3  1  0
  3  4  1  0
  6  4  1  0
  4  5  1  0
  5 11  1  0
  7  6  2  0
  6 12  1  0
  8  7  1  0
  7 13  1  0
  9 10  1  0
  9 14  1  0
  9 15  1  0
 10 16  1  0
M  END
