
     RDKit          3D

 24 26  0  0  0  0  0  0  0  0999 V2000
   -2.4658    1.3908   -0.0430 C   0  0  0  0  0  0  0  0  0  0  0  0
   -3.6671    0.7018   -0.0331 C   0  0  0  0  0  0  0  0  0  0  0  0
   -3.6731   -0.6881   -0.0282 C   0  0  0  0  0  0  0  0  0  0  0  0
   -2.4778   -1.3876   -0.0333 C   0  0  0  0  0  0  0  0  0  0  0  0
    2.4782   -1.4093   -0.0672 C   0  0  0  0  0  0  0  0  0  0  0  0
    3.6796   -0.7202   -0.0778 C   0  0  0  0  0  0  0  0  0  0  0  0
    3.6856    0.6696   -0.0824 C   0  0  0  0  0  0  0  0  0  0  0  0
    2.4902    1.3691   -0.0764 C   0  0  0  0  0  0  0  0  0  0  0  0
    0.0125    1.4557   -0.0595 C   0  0  0  0  0  0  0  0  0  0  0  0
    0.0178    2.6693   -0.0637 O   0  0  0  0  0  0  0  0  0  0  0  0
   -0.0001   -1.4741   -0.0491 C   0  0  0  0  0  0  0  0  0  0  0  0
   -0.0054   -2.6878   -0.0446 O   0  0  0  0  0  0  0  0  0  0  0  0
   -1.2602    0.6956   -0.0485 C   0  0  0  0  0  0  0  0  0  0  0  0
   -1.2661   -0.7030   -0.0436 C   0  0  0  0  0  0  0  0  0  0  0  0
    1.2786    0.6846   -0.0656 C   0  0  0  0  0  0  0  0  0  0  0  0
    1.2726   -0.7142   -0.0608 C   0  0  0  0  0  0  0  0  0  0  0  0
   -2.4642    2.4722   -0.0466 H   0  0  0  0  0  0  0  0  0  0  0  0
   -4.6006    1.2484   -0.0298 H   0  0  0  0  0  0  0  0  0  0  0  0
   -4.6112   -1.2266   -0.0204 H   0  0  0  0  0  0  0  0  0  0  0  0
   -2.4862   -2.4689   -0.0296 H   0  0  0  0  0  0  0  0  0  0  0  0
    2.4771   -2.4906   -0.0638 H   0  0  0  0  0  0  0  0  0  0  0  0
    4.6127   -1.2673   -0.0824 H   0  0  0  0  0  0  0  0  0  0  0  0
    4.6235    1.2084   -0.0901 H   0  0  0  0  0  0  0  0  0  0  0  0
    2.4988    2.4504   -0.0805 H   0  0  0  0  0  0  0  0  0  0  0  0
 13  1  2  0
  1  2  1  0
  1 17  1  0
  3  2  2  0
  2 18  1  0
  4  3  1  0
  3 19  1  0
 14  4  2  0
  4 20  1  0
  6  5  1  0
  5 16  2  0
  5 21  1  0
  6  7  2  0
  6 22  1  0
  7  8  1  0
  7 23  1  0
  8 15  2  0
  8 24  1  0
 15  9  1  0
  9 10  2  0
  9 13  1  0
 16 11  1  0
 12 11  2  0
 11 14  1  0
 14 13  1  0
 16 15  1  0
M  END
