
     RDKit          3D

 18 19  0  0  0  0  0  0  0  0999 V2000
    0.7579    0.7976   -0.0107 C   0  0  0  0  0  0  0  0  0  0  0  0
    3.7099    0.3318   -0.0064 O   0  0  0  0  0  0  0  0  0  0  0  0
    2.9037   -0.5627   -0.0022 C   0  0  0  0  0  0  0  0  0  0  0  0
    3.2092   -1.8533    0.0052 O   0  0  0  0  0  0  0  0  0  0  0  0
    1.4492   -0.3735   -0.0039 C   0  0  0  0  0  0  0  0  0  0  0  0
    0.3927   -1.7555    0.0042 S   0  0  0  0  0  0  0  0  0  0  0  0
   -1.0014   -0.7393   -0.0014 C   0  0  0  0  0  0  0  0  0  0  0  0
   -2.3287   -1.1616    0.0010 C   0  0  0  0  0  0  0  0  0  0  0  0
   -3.2874   -0.1781   -0.0053 C   0  0  0  0  0  0  0  0  0  0  0  0
   -4.5750   -0.5404   -0.0041 F   0  0  0  0  0  0  0  0  0  0  0  0
   -2.9890    1.1866   -0.0129 C   0  0  0  0  0  0  0  0  0  0  0  0
   -1.6737    1.5879   -0.0152 C   0  0  0  0  0  0  0  0  0  0  0  0
   -0.6607    0.6223   -0.0093 C   0  0  0  0  0  0  0  0  0  0  0  0
    1.4478    2.3567   -0.0206 Cl  0  0  0  0  0  0  0  0  0  0  0  0
    4.1708   -1.9764    0.0077 H   0  0  0  0  0  0  0  0  0  0  0  0
   -2.5989   -2.2093    0.0076 H   0  0  0  0  0  0  0  0  0  0  0  0
   -3.7901    1.9128   -0.0176 H   0  0  0  0  0  0  0  0  0  0  0  0
   -1.4293    2.6417   -0.0214 H   0  0  0  0  0  0  0  0  0  0  0  0
  6  5  1  0
  6  7  1  0
  2  3  2  0
  4  3  1  0
  3  5  1  0
  5  1  2  0
  8  7  1  0
  8  9  2  0
  7 13  2  0
  1 13  1  0
  1 14  1  0
 10  9  1  0
  9 11  1  0
 13 12  1  0
 11 12  2  0
  4 15  1  0
  8 16  1  0
 11 17  1  0
 12 18  1  0
M  END
