
     RDKit          3D

 31 32  0  0  0  0  0  0  0  0999 V2000
    5.0218    1.1093    0.8074 C   0  0  0  0  0  0  0  0  0  0  0  0
    5.5016   -0.1561    0.5039 C   0  0  0  0  0  0  0  0  0  0  0  0
   -2.8070    0.6158   -0.9895 C   0  0  0  0  0  0  0  0  0  0  0  0
    3.7110    1.4308    0.4796 C   0  0  0  0  0  0  0  0  0  0  0  0
    4.6821   -1.0869   -0.1181 C   0  0  0  0  0  0  0  0  0  0  0  0
   -1.4427    0.7272   -0.8950 C   0  0  0  0  0  0  0  0  0  0  0  0
   -2.8128   -0.4962    1.0998 C   0  0  0  0  0  0  0  0  0  0  0  0
   -3.5448   -0.0149    0.0187 C   0  0  0  0  0  0  0  0  0  0  0  0
    2.8712    0.5176   -0.1457 C   0  0  0  0  0  0  0  0  0  0  0  0
    3.3689   -0.7569   -0.4415 C   0  0  0  0  0  0  0  0  0  0  0  0
   -0.8028    0.1870    0.2407 C   0  0  0  0  0  0  0  0  0  0  0  0
    1.4558    0.8853   -0.4884 C   0  0  0  0  0  0  0  0  0  0  0  0
   -1.5015   -0.4063    1.2182 N   0  0  0  0  0  0  0  0  0  0  0  0
   -5.6899   -0.7861    0.8276 N   0  0  0  0  0  0  0  0  0  0  0  0
    0.5303    0.2303    0.4090 N   0  0  0  0  0  0  0  0  0  0  0  0
   -5.5952    0.4159   -1.0677 O   0  0  0  0  0  0  0  0  0  0  0  0
    2.5372   -1.6268   -1.0456 O   0  0  0  0  0  0  0  0  0  0  0  0
    5.6569    1.8386    1.2917 H   0  0  0  0  0  0  0  0  0  0  0  0
    6.5200   -0.4268    0.7504 H   0  0  0  0  0  0  0  0  0  0  0  0
   -3.3146    1.0240   -1.8530 H   0  0  0  0  0  0  0  0  0  0  0  0
    3.3269    2.4174    0.7109 H   0  0  0  0  0  0  0  0  0  0  0  0
    5.0652   -2.0732   -0.3551 H   0  0  0  0  0  0  0  0  0  0  0  0
   -0.8841    1.2239   -1.6752 H   0  0  0  0  0  0  0  0  0  0  0  0
   -3.3014   -0.9839    1.9375 H   0  0  0  0  0  0  0  0  0  0  0  0
    1.3445    1.9739   -0.4395 H   0  0  0  0  0  0  0  0  0  0  0  0
    1.2339    0.5947   -1.5183 H   0  0  0  0  0  0  0  0  0  0  0  0
   -5.2494   -1.2411    1.6060 H   0  0  0  0  0  0  0  0  0  0  0  0
   -6.6924   -0.8549    0.7701 H   0  0  0  0  0  0  0  0  0  0  0  0
    0.8798   -0.1005    1.2943 H   0  0  0  0  0  0  0  0  0  0  0  0
    2.9916   -2.4591   -1.2180 H   0  0  0  0  0  0  0  0  0  0  0  0
   -5.0198   -0.1084   -0.1195 C   0  0  0  0  0  0  0  0  0  0  0  0
  5  2  1  0
  5 10  2  0
  2  1  2  0
 17 10  1  0
 10  9  1  0
  1  4  1  0
  9  4  2  0
  9 12  1  0
 12 15  1  0
 15 11  1  0
  6 11  1  0
  6  3  2  0
 11 13  2  0
  3  8  1  0
 13  7  1  0
  8  7  2  0
  8 31  1  0
 31 16  2  0
 31 14  1  0
  1 18  1  0
  2 19  1  0
  3 20  1  0
  4 21  1  0
  5 22  1  0
  6 23  1  0
  7 24  1  0
 12 25  1  0
 12 26  1  0
 14 27  1  0
 14 28  1  0
 15 29  1  0
 17 30  1  0
M  END
