
     RDKit          3D

 41 45  0  0  0  0  0  0  0  0999 V2000
   -3.6352   -1.4946    1.3701 C   0  0  0  0  0  0  0  0  0  0  0  0
   -4.5770   -2.6536    0.9791 C   0  0  0  0  0  0  0  0  0  0  0  0
   -4.9432   -2.4166   -0.4954 C   0  0  0  0  0  0  0  0  0  0  0  0
   -3.7551   -1.6417   -1.0512 C   0  0  0  0  0  0  0  0  0  0  0  0
   -3.4551   -0.6675    0.0852 C   0  0  2  0  0  0  0  0  0  0  0  0
   -2.1668   -0.0172   -0.0153 N   0  0  0  0  0  0  0  0  0  0  0  0
   -1.0346   -0.7326   -0.0504 N   0  0  0  0  0  0  0  0  0  0  0  0
   -1.9117    1.3032   -0.0430 C   0  0  0  0  0  0  0  0  0  0  0  0
   -2.8042    2.2979   -0.0122 N   0  0  0  0  0  0  0  0  0  0  0  0
   -2.2308    3.4811   -0.0773 C   0  0  0  0  0  0  0  0  0  0  0  0
   -0.9360    3.7710   -0.1982 N   0  0  0  0  0  0  0  0  0  0  0  0
   -0.0520    2.7715   -0.2464 C   0  0  0  0  0  0  0  0  0  0  0  0
    1.2360    3.0847   -0.4060 N   0  0  0  0  0  0  0  0  0  0  0  0
   -0.5232    1.4440   -0.1213 C   0  0  0  0  0  0  0  0  0  0  0  0
   -0.0294    0.1103   -0.1115 C   0  0  0  0  0  0  0  0  0  0  0  0
    1.3516   -0.3766   -0.1482 C   0  0  0  0  0  0  0  0  0  0  0  0
    2.3374    0.1860    0.6540 C   0  0  0  0  0  0  0  0  0  0  0  0
    3.6202   -0.3453    0.5833 C   0  0  0  0  0  0  0  0  0  0  0  0
    4.8780   -0.0867    1.2054 C   0  0  0  0  0  0  0  0  0  0  0  0
    5.7538   -0.9991    0.6926 C   0  0  0  0  0  0  0  0  0  0  0  0
    5.1171   -1.8091   -0.2079 N   0  0  0  0  0  0  0  0  0  0  0  0
    3.8141   -1.4368   -0.2968 C   0  0  0  0  0  0  0  0  0  0  0  0
    2.8906   -1.9955   -1.0628 N   0  0  0  0  0  0  0  0  0  0  0  0
    1.6849   -1.4622   -0.9797 C   0  0  0  0  0  0  0  0  0  0  0  0
   -4.0366   -0.8820    2.1775 H   0  0  0  0  0  0  0  0  0  0  0  0
   -2.6696   -1.8751    1.7046 H   0  0  0  0  0  0  0  0  0  0  0  0
   -4.0612   -3.6085    1.0873 H   0  0  0  0  0  0  0  0  0  0  0  0
   -5.4605   -2.6993    1.6156 H   0  0  0  0  0  0  0  0  0  0  0  0
   -5.1378   -3.3433   -1.0359 H   0  0  0  0  0  0  0  0  0  0  0  0
   -5.8467   -1.8054   -0.5677 H   0  0  0  0  0  0  0  0  0  0  0  0
   -2.9028   -2.3093   -1.2031 H   0  0  0  0  0  0  0  0  0  0  0  0
   -3.9614   -1.1345   -1.9944 H   0  0  0  0  0  0  0  0  0  0  0  0
   -4.1893    0.1399    0.0615 H   0  0  0  0  0  0  0  0  0  0  0  0
   -2.8955    4.3378   -0.0383 H   0  0  0  0  0  0  0  0  0  0  0  0
    1.4849    4.0434   -0.5842 H   0  0  0  0  0  0  0  0  0  0  0  0
    1.9232    2.3837   -0.6226 H   0  0  0  0  0  0  0  0  0  0  0  0
    2.1098    0.9986    1.3341 H   0  0  0  0  0  0  0  0  0  0  0  0
    5.1052    0.6749    1.9335 H   0  0  0  0  0  0  0  0  0  0  0  0
    6.8023   -1.1364    0.9011 H   0  0  0  0  0  0  0  0  0  0  0  0
    5.5472   -2.5614   -0.7215 H   0  0  0  0  0  0  0  0  0  0  0  0
    0.9186   -1.9016   -1.6085 H   0  0  0  0  0  0  0  0  0  0  0  0
 21 20  1  0
 21 22  1  0
 20 19  2  0
 22 23  2  0
 22 18  1  0
 23 24  1  0
 19 18  1  0
 18 17  2  0
  3  4  1  0
  3  2  1  0
 24 16  2  0
  4  5  1  0
 17 16  1  0
 16 15  1  0
  7 15  2  0
  7  6  1  0
  2  1  1  0
 15 14  1  0
  5  6  1  0
  5  1  1  0
  6  8  1  0
 14  8  2  0
 14 12  1  0
  8  9  1  0
 13 12  1  0
 12 11  2  0
  9 10  2  0
 11 10  1  0
  1 25  1  0
  1 26  1  0
  2 27  1  0
  2 28  1  0
  3 29  1  0
  3 30  1  0
  4 31  1  0
  4 32  1  0
  5 33  1  1
 10 34  1  0
 13 35  1  0
 13 36  1  0
 17 37  1  0
 19 38  1  0
 20 39  1  0
 21 40  1  0
 24 41  1  0
M  END
