
     RDKit          3D

 37 39  0  0  0  0  0  0  0  0999 V2000
   -0.6028    1.7011   -0.4587 C   0  0  0  0  0  0  0  0  0  0  0  0
   -1.9839    1.7212   -0.3762 C   0  0  0  0  0  0  0  0  0  0  0  0
   -2.6717    0.5498   -0.0435 C   0  0  0  0  0  0  0  0  0  0  0  0
   -2.0329   -0.6502    0.2113 C   0  0  0  0  0  0  0  0  0  0  0  0
   -0.6436   -0.6475    0.1243 C   0  0  0  0  0  0  0  0  0  0  0  0
    0.0788    0.5151   -0.2103 C   0  0  0  0  0  0  0  0  0  0  0  0
    0.2311   -1.6844    0.3317 N   0  0  0  0  0  0  0  0  0  0  0  0
    1.4666    0.1389   -0.2160 C   0  0  0  0  0  0  0  0  0  0  0  0
    1.5071   -1.2320    0.1125 C   0  0  0  0  0  0  0  0  0  0  0  0
    2.6463    0.8260   -0.4730 C   0  0  0  0  0  0  0  0  0  0  0  0
    2.7126   -1.9264    0.1728 C   0  0  0  0  0  0  0  0  0  0  0  0
    3.8719   -1.2215   -0.0891 C   0  0  0  0  0  0  0  0  0  0  0  0
    3.8532    0.1451   -0.4092 C   0  0  0  0  0  0  0  0  0  0  0  0
   -0.1441   -3.0608    0.5789 C   0  0  0  0  0  0  0  0  0  0  0  0
   -0.3974   -3.8368   -0.7039 C   0  0  0  0  0  0  0  0  0  0  0  0
    5.1375    0.8701   -0.6578 C   0  0  0  0  0  0  0  0  0  0  0  0
    5.7116    1.3949    0.6202 N   0  0  0  0  0  0  0  0  0  0  0  0
    6.9938    2.1145    0.4475 C   0  0  0  0  0  0  0  0  0  0  0  0
   -4.5582    0.6084    0.0561 Br  0  0  0  0  0  0  0  0  0  0  0  0
   -0.0693    2.6059   -0.7208 H   0  0  0  0  0  0  0  0  0  0  0  0
   -2.5217    2.6381   -0.5735 H   0  0  0  0  0  0  0  0  0  0  0  0
   -2.5837   -1.5467    0.4633 H   0  0  0  0  0  0  0  0  0  0  0  0
    2.6248    1.8791   -0.7295 H   0  0  0  0  0  0  0  0  0  0  0  0
    2.7556   -2.9819    0.4063 H   0  0  0  0  0  0  0  0  0  0  0  0
    4.8198   -1.7451   -0.0531 H   0  0  0  0  0  0  0  0  0  0  0  0
    0.6478   -3.5291    1.1633 H   0  0  0  0  0  0  0  0  0  0  0  0
   -1.0302   -3.0627    1.2138 H   0  0  0  0  0  0  0  0  0  0  0  0
   -1.2166   -3.4000   -1.2754 H   0  0  0  0  0  0  0  0  0  0  0  0
    0.4904   -3.8507   -1.3362 H   0  0  0  0  0  0  0  0  0  0  0  0
   -0.6624   -4.8675   -0.4702 H   0  0  0  0  0  0  0  0  0  0  0  0
    5.8979    0.2243   -1.0937 H   0  0  0  0  0  0  0  0  0  0  0  0
    5.0002    1.7295   -1.3117 H   0  0  0  0  0  0  0  0  0  0  0  0
    5.0328    2.0129    1.0671 H   0  0  0  0  0  0  0  0  0  0  0  0
    5.8435    0.6221    1.2741 H   0  0  0  0  0  0  0  0  0  0  0  0
    7.7154    1.4374    0.0017 H   0  0  0  0  0  0  0  0  0  0  0  0
    6.8291    2.9687   -0.2011 H   0  0  0  0  0  0  0  0  0  0  0  0
    7.3420    2.4451    1.4202 H   0  0  0  0  0  0  0  0  0  0  0  0
 19  3  1  0
  2  3  1  0
  2  1  2  0
  3  4  2  0
  1  6  1  0
  4  5  1  0
  6  5  2  0
  6  8  1  0
  5  7  1  0
  8 10  2  0
  8  9  1  0
 10 13  1  0
  7  9  1  0
  7 14  1  0
  9 11  2  0
 13 16  1  0
 13 12  2  0
 14 15  1  0
 16 17  1  0
 17 18  1  0
 11 12  1  0
  1 20  1  0
  2 21  1  0
  4 22  1  0
 10 23  1  0
 11 24  1  0
 12 25  1  0
 14 26  1  0
 14 27  1  0
 15 28  1  0
 15 29  1  0
 15 30  1  0
 16 31  1  0
 16 32  1  0
 17 33  1  0
 17 34  1  0
 18 35  1  0
 18 36  1  0
 18 37  1  0
M  CHG  1  17   1
M  END
