
     RDKit          3D

 30 32  0  0  0  0  0  0  0  0999 V2000
   -1.7828    0.7833   -0.1357 C   0  0  0  0  0  0  0  0  0  0  0  0
   -0.2605   -1.0518    0.2130 C   0  0  0  0  0  0  0  0  0  0  0  0
    0.8326   -0.2139    0.0439 C   0  0  0  0  0  0  0  0  0  0  0  0
    0.5990    1.1413   -0.1951 C   0  0  0  0  0  0  0  0  0  0  0  0
    3.0239   -0.6311   -1.1833 C   0  0  0  0  0  0  0  0  0  0  0  0
    4.4453   -0.3149   -0.7307 C   0  0  0  0  0  0  0  0  0  0  0  0
    4.1931    0.5747    0.4772 C   0  0  0  0  0  0  0  0  0  0  0  0
    3.0726   -0.0847    1.1356 N   0  0  0  0  0  0  0  0  0  0  0  0
    2.2358   -0.7628    0.1349 C   0  0  1  0  0  0  0  0  0  0  0  0
   -1.5622   -0.5698    0.1270 C   0  0  0  0  0  0  0  0  0  0  0  0
   -2.5870   -1.4377    0.3126 O   0  0  0  0  0  0  0  0  0  0  0  0
   -0.6915    1.6309   -0.2900 C   0  0  0  0  0  0  0  0  0  0  0  0
   -3.0309    1.3013   -0.2448 O   0  0  0  0  0  0  0  0  0  0  0  0
   -4.0513    0.3276   -0.4004 C   0  0  0  0  0  0  0  0  0  0  0  0
   -3.8354   -0.8120    0.5661 C   0  0  0  0  0  0  0  0  0  0  0  0
   -0.1119   -2.1060    0.4195 H   0  0  0  0  0  0  0  0  0  0  0  0
    1.4281    1.8268   -0.3255 H   0  0  0  0  0  0  0  0  0  0  0  0
    2.6328    0.2029   -1.7704 H   0  0  0  0  0  0  0  0  0  0  0  0
    2.9460   -1.5272   -1.7993 H   0  0  0  0  0  0  0  0  0  0  0  0
    4.9696   -1.2248   -0.4288 H   0  0  0  0  0  0  0  0  0  0  0  0
    5.0405    0.1756   -1.5009 H   0  0  0  0  0  0  0  0  0  0  0  0
    5.0576    0.6385    1.1425 H   0  0  0  0  0  0  0  0  0  0  0  0
    3.9635    1.5963    0.1429 H   0  0  0  0  0  0  0  0  0  0  0  0
    2.5399    0.5420    1.7218 H   0  0  0  0  0  0  0  0  0  0  0  0
    2.1525   -1.8246    0.3963 H   0  0  0  0  0  0  0  0  0  0  0  0
   -0.8677    2.6816   -0.4862 H   0  0  0  0  0  0  0  0  0  0  0  0
   -5.0022    0.8205   -0.2035 H   0  0  0  0  0  0  0  0  0  0  0  0
   -4.0620   -0.0461   -1.4301 H   0  0  0  0  0  0  0  0  0  0  0  0
   -4.6081   -1.5688    0.4406 H   0  0  0  0  0  0  0  0  0  0  0  0
   -3.8721   -0.4481    1.5986 H   0  0  0  0  0  0  0  0  0  0  0  0
 12  4  2  0
 12  1  1  0
 13  1  1  0
 13 14  1  0
  4  3  1  0
  1 10  2  0
 14 15  1  0
  3  9  1  0
  3  2  2  0
 15 11  1  0
  5  9  1  0
  5  6  1  0
 10  2  1  0
 10 11  1  0
  9  8  1  0
  6  7  1  0
  8  7  1  0
  2 16  1  0
  4 17  1  0
  5 18  1  0
  5 19  1  0
  6 20  1  0
  6 21  1  0
  7 22  1  0
  7 23  1  0
  8 24  1  0
  9 25  1  1
 12 26  1  0
 14 27  1  0
 14 28  1  0
 15 29  1  0
 15 30  1  0
M  END
