
     RDKit          3D

 40 41  0  0  0  0  0  0  0  0999 V2000
   -2.8173    0.4026   -0.9343 N   0  0  0  0  0  0  0  0  0  0  0  0
   -4.1428    0.5256   -0.9478 C   0  0  0  0  0  0  0  0  0  0  0  0
   -4.8034   -0.0221   -2.0113 N   0  0  0  0  0  0  0  0  0  0  0  0
   -4.8466    1.1480    0.0962 C   0  0  0  0  0  0  0  0  0  0  0  0
   -4.1225    1.6400    1.1604 C   0  0  0  0  0  0  0  0  0  0  0  0
   -2.7376    1.5088    1.1765 C   0  0  0  0  0  0  0  0  0  0  0  0
   -2.1263    0.8766    0.1021 C   0  0  0  0  0  0  0  0  0  0  0  0
    0.0365   -2.9728    0.7618 N   0  0  0  0  0  0  0  0  0  0  0  0
    1.3839   -2.4171    0.7448 C   0  0  0  0  0  0  0  0  0  0  0  0
    1.2785   -0.8744    0.9334 C   0  0  2  0  0  0  0  0  0  0  0  0
   -0.2474   -0.6061    0.8280 C   0  0  2  0  0  0  0  0  0  0  0  0
   -0.8000   -1.9058    0.2315 C   0  0  0  0  0  0  0  0  0  0  0  0
   -0.6388    0.6665    0.0785 C   0  0  0  0  0  0  0  0  0  0  0  0
    4.2754    0.7407   -0.6741 C   0  0  0  0  0  0  0  0  0  0  0  0
    5.7712    0.6411   -0.4494 C   0  0  0  0  0  0  0  0  0  0  0  0
    6.4265    1.5465   -1.3127 O   0  0  0  0  0  0  0  0  0  0  0  0
   -4.2471   -0.1968   -2.8322 H   0  0  0  0  0  0  0  0  0  0  0  0
   -5.7267    0.3246   -2.2109 H   0  0  0  0  0  0  0  0  0  0  0  0
   -5.9245    1.2383    0.0580 H   0  0  0  0  0  0  0  0  0  0  0  0
   -4.6337    2.1311    1.9788 H   0  0  0  0  0  0  0  0  0  0  0  0
   -2.1488    1.8927    1.9988 H   0  0  0  0  0  0  0  0  0  0  0  0
   -0.2354   -3.1429    1.7228 H   0  0  0  0  0  0  0  0  0  0  0  0
    2.0073   -2.9038    1.4956 H   0  0  0  0  0  0  0  0  0  0  0  0
    1.8384   -2.6199   -0.2326 H   0  0  0  0  0  0  0  0  0  0  0  0
    1.6159   -0.5999    1.9367 H   0  0  0  0  0  0  0  0  0  0  0  0
   -0.6330   -0.5240    1.8500 H   0  0  0  0  0  0  0  0  0  0  0  0
   -0.7125   -1.8863   -0.8613 H   0  0  0  0  0  0  0  0  0  0  0  0
   -1.8498   -2.0813    0.4667 H   0  0  0  0  0  0  0  0  0  0  0  0
   -0.3096    0.6078   -0.9605 H   0  0  0  0  0  0  0  0  0  0  0  0
   -0.1335    1.5224    0.5301 H   0  0  0  0  0  0  0  0  0  0  0  0
    1.8683   -0.3659   -0.9416 H   0  0  0  0  0  0  0  0  0  0  0  0
    3.7040    0.0481    1.2787 H   0  0  0  0  0  0  0  0  0  0  0  0
    3.8790   -1.2312    0.0911 H   0  0  0  0  0  0  0  0  0  0  0  0
    4.0498    0.5102   -1.7206 H   0  0  0  0  0  0  0  0  0  0  0  0
    3.9407    1.7653   -0.4888 H   0  0  0  0  0  0  0  0  0  0  0  0
    5.9950    0.8613    0.6030 H   0  0  0  0  0  0  0  0  0  0  0  0
    6.1000   -0.3912   -0.6304 H   0  0  0  0  0  0  0  0  0  0  0  0
    7.3718    1.4809   -1.1519 H   0  0  0  0  0  0  0  0  0  0  0  0
    2.0736   -0.0867    0.0120 N   0  0  0  0  0  0  0  0  0  0  0  0
    3.5034   -0.2055    0.2328 C   0  0  0  0  0  0  0  0  0  0  0  0
  5  4  2  0
  5  6  1  0
  4  2  1  0
  6  7  2  0
  2  3  1  0
  2  1  2  0
 12 11  1  0
 12  8  1  0
 11 10  1  0
 11 13  1  0
  7  1  1  0
  7 13  1  0
 10 39  1  0
 10  9  1  0
  8  9  1  0
 39 40  1  0
 40 14  1  0
 16 15  1  0
 14 15  1  0
  3 17  1  0
  3 18  1  0
  4 19  1  0
  5 20  1  0
  6 21  1  0
  8 22  1  0
  9 23  1  0
  9 24  1  0
 10 25  1  1
 11 26  1  1
 12 27  1  0
 12 28  1  0
 13 29  1  0
 13 30  1  0
 39 31  1  0
 40 32  1  0
 40 33  1  0
 14 34  1  0
 14 35  1  0
 15 36  1  0
 15 37  1  0
 16 38  1  0
M  END
