
     RDKit          3D

 45 49  0  0  0  0  0  0  0  0999 V2000
    5.7656    0.7069    0.4274 C   0  0  0  0  0  0  0  0  0  0  0  0
    3.9715    0.1745   -1.5814 C   0  0  0  0  0  0  0  0  0  0  0  0
    5.3116    0.3062   -1.8948 C   0  0  0  0  0  0  0  0  0  0  0  0
    2.0427    0.1229   -0.0477 C   0  0  0  0  0  0  0  0  0  0  0  0
    0.1683   -0.9326    0.9600 C   0  0  0  0  0  0  0  0  0  0  0  0
   -5.4931   -0.1038   -0.0315 C   0  0  0  0  0  0  0  0  0  0  0  0
   -6.8740   -0.2497    0.0316 C   0  0  0  0  0  0  0  0  0  0  0  0
    3.4978    0.2882   -0.2727 C   0  0  0  0  0  0  0  0  0  0  0  0
   -3.3071   -0.1818    0.1513 C   0  0  0  0  0  0  0  0  0  0  0  0
    4.4250   -0.4298    3.0753 C   0  0  0  0  0  0  0  0  0  0  0  0
    4.4177    0.5683    0.7494 C   0  0  0  0  0  0  0  0  0  0  0  0
    6.2235    0.5728   -0.8772 C   0  0  0  0  0  0  0  0  0  0  0  0
    1.1429    0.9124   -0.8099 C   0  0  0  0  0  0  0  0  0  0  0  0
   -0.2209    0.7856   -0.7000 C   0  0  0  0  0  0  0  0  0  0  0  0
   -0.7251   -0.1580    0.2036 C   0  0  0  0  0  0  0  0  0  0  0  0
    1.5550   -0.8127    0.8437 C   0  0  0  0  0  0  0  0  0  0  0  0
   -0.5997   -1.7493    1.7232 N   0  0  0  0  0  0  0  0  0  0  0  0
   -1.8954   -1.5641    1.5197 N   0  0  0  0  0  0  0  0  0  0  0  0
   -2.0086   -0.6174    0.6135 C   0  0  0  0  0  0  0  0  0  0  0  0
   -4.4623   -0.7300    0.6126 N   0  0  0  0  0  0  0  0  0  0  0  0
   -7.6234    0.5731   -0.7918 C   0  0  0  0  0  0  0  0  0  0  0  0
   -7.0180    1.5076   -1.6464 C   0  0  0  0  0  0  0  0  0  0  0  0
   -5.6432    1.6476   -1.7029 C   0  0  0  0  0  0  0  0  0  0  0  0
   -4.8692    0.8275   -0.8816 C   0  0  0  0  0  0  0  0  0  0  0  0
   -3.5059    0.7527   -0.7412 N   0  0  0  0  0  0  0  0  0  0  0  0
    7.5445    0.7178   -1.1023 O   0  0  0  0  0  0  0  0  0  0  0  0
    6.4777    0.9371    1.2130 H   0  0  0  0  0  0  0  0  0  0  0  0
    3.2704   -0.0367   -2.3798 H   0  0  0  0  0  0  0  0  0  0  0  0
    5.6414    0.2005   -2.9221 H   0  0  0  0  0  0  0  0  0  0  0  0
   -7.3443   -0.9700    0.6881 H   0  0  0  0  0  0  0  0  0  0  0  0
    3.9610   -1.3584    2.7404 H   0  0  0  0  0  0  0  0  0  0  0  0
    5.5046   -0.5839    3.0676 H   0  0  0  0  0  0  0  0  0  0  0  0
    4.1207   -0.2589    4.1083 H   0  0  0  0  0  0  0  0  0  0  0  0
    2.9563    0.9339    2.2841 H   0  0  0  0  0  0  0  0  0  0  0  0
    4.5221    1.6515    2.5730 H   0  0  0  0  0  0  0  0  0  0  0  0
    1.5542    1.6419   -1.4960 H   0  0  0  0  0  0  0  0  0  0  0  0
   -0.8881    1.3969   -1.2912 H   0  0  0  0  0  0  0  0  0  0  0  0
    2.2184   -1.4488    1.4140 H   0  0  0  0  0  0  0  0  0  0  0  0
   -0.2942   -2.4402    2.3898 H   0  0  0  0  0  0  0  0  0  0  0  0
   -4.5315   -1.4662    1.2977 H   0  0  0  0  0  0  0  0  0  0  0  0
   -8.7025    0.4929   -0.7771 H   0  0  0  0  0  0  0  0  0  0  0  0
   -7.6442    2.1286   -2.2734 H   0  0  0  0  0  0  0  0  0  0  0  0
   -5.1775    2.3689   -2.3625 H   0  0  0  0  0  0  0  0  0  0  0  0
    7.7373    0.6196   -2.0414 H   0  0  0  0  0  0  0  0  0  0  0  0
    4.0276    0.7536    2.1939 C   0  0  0  0  0  0  0  0  0  0  0  0
 23 22  2  0
 23 24  1  0
 22 21  1  0
 25 24  1  0
 25  9  2  0
 24  6  2  0
 18 17  1  0
 18 19  2  0
 21  7  2  0
  9 19  1  0
  9 20  1  0
 17  5  1  0
  6  7  1  0
  6 20  1  0
 19 15  1  0
  5 15  2  0
  5 16  1  0
 15 14  1  0
 10 45  1  0
 16  4  2  0
 14 13  2  0
 45 11  1  0
  4 13  1  0
  4  8  1  0
 11  8  1  0
 11  1  2  0
  8  2  2  0
  1 12  1  0
  2  3  1  0
 12  3  2  0
 12 26  1  0
  1 27  1  0
  2 28  1  0
  3 29  1  0
  7 30  1  0
 10 31  1  0
 10 32  1  0
 10 33  1  0
 45 34  1  0
 45 35  1  0
 13 36  1  0
 14 37  1  0
 16 38  1  0
 17 39  1  0
 20 40  1  0
 21 41  1  0
 22 42  1  0
 23 43  1  0
 26 44  1  0
M  END
