
     RDKit          3D

 16 16  0  0  0  0  0  0  0  0999 V2000
    2.2322   -1.1010    0.5462 O   0  0  0  0  0  0  0  0  0  0  0  0
    1.6849   -0.0757    0.1631 C   0  0  0  0  0  0  0  0  0  0  0  0
    2.3670    1.0273   -0.1806 N   0  0  0  0  0  0  0  0  0  0  0  0
    0.1943    0.0095    0.0602 C   0  0  0  0  0  0  0  0  0  0  0  0
   -0.5244   -1.1756   -0.0827 C   0  0  0  0  0  0  0  0  0  0  0  0
   -0.4951    1.2184    0.1387 C   0  0  0  0  0  0  0  0  0  0  0  0
   -1.8804    1.2413    0.0630 C   0  0  0  0  0  0  0  0  0  0  0  0
   -2.5885    0.0582   -0.0975 C   0  0  0  0  0  0  0  0  0  0  0  0
   -1.9075   -1.1505   -0.1720 C   0  0  0  0  0  0  0  0  0  0  0  0
    3.3735    1.0196   -0.1510 H   0  0  0  0  0  0  0  0  0  0  0  0
    1.9322    1.8117   -0.6337 H   0  0  0  0  0  0  0  0  0  0  0  0
    0.0011   -2.1199   -0.1353 H   0  0  0  0  0  0  0  0  0  0  0  0
    0.0350    2.1512    0.2854 H   0  0  0  0  0  0  0  0  0  0  0  0
   -2.4061    2.1843    0.1363 H   0  0  0  0  0  0  0  0  0  0  0  0
   -3.6687    0.0775   -0.1588 H   0  0  0  0  0  0  0  0  0  0  0  0
   -2.4558   -2.0749   -0.2978 H   0  0  0  0  0  0  0  0  0  0  0  0
  1  2  2  0
  2  3  1  0
  2  4  1  0
  3 10  1  0
  3 11  1  0
  4  5  2  0
  4  6  1  0
  5  9  1  0
  5 12  1  0
  6  7  2  0
  6 13  1  0
  7  8  1  0
  7 14  1  0
  8  9  2  0
  8 15  1  0
  9 16  1  0
M  END
