
     RDKit          3D

 38 41  0  0  0  0  0  0  0  0999 V2000
    4.8020   -0.3866    0.0298 C   0  0  0  0  0  0  0  0  0  0  0  0
    4.9812    1.0075    0.1163 C   0  0  0  0  0  0  0  0  0  0  0  0
    3.9117    1.8837    0.1578 C   0  0  0  0  0  0  0  0  0  0  0  0
    2.6421    1.3265    0.1079 C   0  0  0  0  0  0  0  0  0  0  0  0
    2.4385   -0.0625    0.0279 C   0  0  0  0  0  0  0  0  0  0  0  0
    3.5241   -0.9283   -0.0067 C   0  0  0  0  0  0  0  0  0  0  0  0
    5.9707   -1.3098   -0.0105 C   0  0  0  0  0  0  0  0  0  0  0  0
    7.1349   -0.7595   -0.4672 N   0  0  0  0  0  0  0  0  0  0  0  0
    5.8234   -2.5075    0.4110 N   0  0  0  0  0  0  0  0  0  0  0  0
    1.3862    1.8711    0.1210 N   0  0  0  0  0  0  0  0  0  0  0  0
    1.0913   -0.3280   -0.0053 N   0  0  0  0  0  0  0  0  0  0  0  0
    0.5060    0.8450    0.0527 C   0  0  0  0  0  0  0  0  0  0  0  0
   -0.9270    0.9664    0.0457 C   0  0  0  0  0  0  0  0  0  0  0  0
   -1.7990   -0.1381   -0.0139 C   0  0  0  0  0  0  0  0  0  0  0  0
   -1.4616   -1.4300   -0.0815 O   0  0  0  0  0  0  0  0  0  0  0  0
   -3.0700    0.4097   -0.0064 C   0  0  0  0  0  0  0  0  0  0  0  0
   -2.8620    1.7540    0.0528 N   0  0  0  0  0  0  0  0  0  0  0  0
   -1.6000    2.1089    0.0905 N   0  0  0  0  0  0  0  0  0  0  0  0
   -4.3949   -0.1940   -0.0689 C   0  0  0  0  0  0  0  0  0  0  0  0
   -5.4830    0.5187   -0.5802 C   0  0  0  0  0  0  0  0  0  0  0  0
   -6.7451   -0.0532   -0.6214 C   0  0  0  0  0  0  0  0  0  0  0  0
   -6.9419   -1.3498   -0.1656 C   0  0  0  0  0  0  0  0  0  0  0  0
   -5.8646   -2.0691    0.3351 C   0  0  0  0  0  0  0  0  0  0  0  0
   -4.6021   -1.4985    0.3879 C   0  0  0  0  0  0  0  0  0  0  0  0
    5.9805    1.4179    0.1761 H   0  0  0  0  0  0  0  0  0  0  0  0
    4.0661    2.9515    0.2321 H   0  0  0  0  0  0  0  0  0  0  0  0
    3.3831   -1.9988   -0.0706 H   0  0  0  0  0  0  0  0  0  0  0  0
    7.0791    0.0052   -1.1194 H   0  0  0  0  0  0  0  0  0  0  0  0
    7.9034   -1.3865   -0.6463 H   0  0  0  0  0  0  0  0  0  0  0  0
    6.6771   -3.0460    0.2911 H   0  0  0  0  0  0  0  0  0  0  0  0
    1.1514    2.8505    0.1709 H   0  0  0  0  0  0  0  0  0  0  0  0
   -0.4829   -1.4743   -0.0776 H   0  0  0  0  0  0  0  0  0  0  0  0
   -3.5725    2.4668    0.1166 H   0  0  0  0  0  0  0  0  0  0  0  0
   -5.3499    1.5223   -0.9654 H   0  0  0  0  0  0  0  0  0  0  0  0
   -7.5760    0.5152   -1.0186 H   0  0  0  0  0  0  0  0  0  0  0  0
   -7.9271   -1.7962   -0.2006 H   0  0  0  0  0  0  0  0  0  0  0  0
   -6.0089   -3.0792    0.6957 H   0  0  0  0  0  0  0  0  0  0  0  0
   -3.7807   -2.0686    0.7998 H   0  0  0  0  0  0  0  0  0  0  0  0
  1  2  2  0
  1  6  1  0
  1  7  1  0
  2  3  1  0
  2 25  1  0
  3  4  2  0
  3 26  1  0
  4  5  1  0
  4 10  1  0
  5  6  2  0
  5 11  1  0
  6 27  1  0
  7  8  1  0
  7  9  2  0
  8 28  1  0
  8 29  1  0
  9 30  1  0
 10 12  1  0
 10 31  1  0
 11 12  2  0
 12 13  1  0
 13 14  1  0
 13 18  2  0
 14 15  1  0
 14 16  2  0
 15 32  1  0
 16 17  1  0
 16 19  1  0
 17 18  1  0
 17 33  1  0
 19 20  2  0
 19 24  1  0
 20 21  1  0
 20 34  1  0
 21 22  2  0
 21 35  1  0
 22 23  1  0
 22 36  1  0
 23 24  2  0
 23 37  1  0
 24 38  1  0
M  END
