
     RDKit          3D

 38 39  0  0  0  0  0  0  0  0999 V2000
    4.9778   -1.0336   -0.4985 O   0  0  0  0  0  0  0  0  0  0  0  0
    4.1755   -0.3399    0.1180 C   0  0  0  0  0  0  0  0  0  0  0  0
    4.5770    0.5440    1.0000 O   0  0  0  0  0  0  0  0  0  0  0  0
    5.9820    0.6831    1.2256 C   0  0  0  0  0  0  0  0  0  0  0  0
    2.7229   -0.4358   -0.0818 C   0  0  0  0  0  0  0  0  0  0  0  0
    2.2777   -1.3747   -1.0512 C   0  0  0  0  0  0  0  0  0  0  0  0
    3.1109   -2.1445   -1.7431 O   0  0  0  0  0  0  0  0  0  0  0  0
    0.9242   -1.5260   -1.3306 C   0  0  0  0  0  0  0  0  0  0  0  0
    1.7550    0.3349    0.6060 C   0  0  0  0  0  0  0  0  0  0  0  0
    2.0701    1.3503    1.6705 C   0  0  0  0  0  0  0  0  0  0  0  0
    0.4117    0.1656    0.3105 C   0  0  0  0  0  0  0  0  0  0  0  0
    0.0039   -0.7552   -0.6520 C   0  0  0  0  0  0  0  0  0  0  0  0
   -1.2989   -0.9658   -0.9679 O   0  0  0  0  0  0  0  0  0  0  0  0
   -2.2522   -0.0777   -0.5212 C   0  0  0  0  0  0  0  0  0  0  0  0
   -2.4242    1.1484   -1.1460 C   0  0  0  0  0  0  0  0  0  0  0  0
   -3.0449   -0.4748    0.5442 C   0  0  0  0  0  0  0  0  0  0  0  0
   -2.9021   -1.6470    1.2022 O   0  0  0  0  0  0  0  0  0  0  0  0
   -4.0501    0.3940    0.9844 C   0  0  0  0  0  0  0  0  0  0  0  0
   -4.8552    0.0637    2.0132 O   0  0  0  0  0  0  0  0  0  0  0  0
   -4.2164    1.6247    0.3684 C   0  0  0  0  0  0  0  0  0  0  0  0
   -3.4133    2.0155   -0.7015 C   0  0  0  0  0  0  0  0  0  0  0  0
   -3.6437    3.3348   -1.3803 C   0  0  0  0  0  0  0  0  0  0  0  0
    6.4204   -0.2456    1.5881 H   0  0  0  0  0  0  0  0  0  0  0  0
    6.4990    0.9993    0.3207 H   0  0  0  0  0  0  0  0  0  0  0  0
    6.0801    1.4513    1.9863 H   0  0  0  0  0  0  0  0  0  0  0  0
    2.6746    2.1719    1.2888 H   0  0  0  0  0  0  0  0  0  0  0  0
    1.1442    1.7742    2.0549 H   0  0  0  0  0  0  0  0  0  0  0  0
    2.6069    0.9131    2.5106 H   0  0  0  0  0  0  0  0  0  0  0  0
   -0.3179    0.7608    0.8421 H   0  0  0  0  0  0  0  0  0  0  0  0
    0.6066   -2.2414   -2.0785 H   0  0  0  0  0  0  0  0  0  0  0  0
    4.0287   -1.9247   -1.4518 H   0  0  0  0  0  0  0  0  0  0  0  0
   -1.7830    1.4177   -1.9767 H   0  0  0  0  0  0  0  0  0  0  0  0
   -4.4159    3.2497   -2.1473 H   0  0  0  0  0  0  0  0  0  0  0  0
   -3.9739    4.0948   -0.6725 H   0  0  0  0  0  0  0  0  0  0  0  0
   -2.7395    3.6978   -1.8676 H   0  0  0  0  0  0  0  0  0  0  0  0
   -4.9944    2.2852    0.7336 H   0  0  0  0  0  0  0  0  0  0  0  0
   -4.6766   -0.8367    2.3094 H   0  0  0  0  0  0  0  0  0  0  0  0
   -2.3484   -2.2604    0.7050 H   0  0  0  0  0  0  0  0  0  0  0  0
  1  2  2  0
  2  3  1  0
  2  5  1  0
  3  4  1  0
  4 23  1  0
  4 24  1  0
  4 25  1  0
  5  9  2  0
  5  6  1  0
  6  8  2  0
  6  7  1  0
  7 31  1  0
  8 12  1  0
  8 30  1  0
  9 10  1  0
  9 11  1  0
 10 26  1  0
 10 27  1  0
 10 28  1  0
 11 12  2  0
 11 29  1  0
 12 13  1  0
 13 14  1  0
 14 15  2  0
 14 16  1  0
 15 21  1  0
 15 32  1  0
 16 18  2  0
 16 17  1  0
 17 38  1  0
 18 20  1  0
 18 19  1  0
 19 37  1  0
 20 21  2  0
 20 36  1  0
 21 22  1  0
 22 33  1  0
 22 34  1  0
 22 35  1  0
M  END
