
     RDKit          3D

 65 69  0  0  0  0  0  0  0  0999 V2000
    0.7005    0.7442    4.2721 C   0  0  0  0  0  0  0  0  0  0  0  0
    1.0760   -0.3614    3.5569 C   0  0  0  0  0  0  0  0  0  0  0  0
   -0.2457   -0.7205    5.9797 C   0  0  0  0  0  0  0  0  0  0  0  0
    0.1594   -1.8359    5.2101 C   0  0  0  0  0  0  0  0  0  0  0  0
    0.8107   -1.6681    4.0214 C   0  0  0  0  0  0  0  0  0  0  0  0
    0.0294    0.5855    5.5020 C   0  0  0  0  0  0  0  0  0  0  0  0
   -0.3654    1.7006    6.2762 C   0  0  0  0  0  0  0  0  0  0  0  0
   -0.9100   -0.8800    7.2159 C   0  0  0  0  0  0  0  0  0  0  0  0
   -1.0052    1.5313    7.4704 C   0  0  0  0  0  0  0  0  0  0  0  0
   -1.2738    0.2258    7.9305 C   0  0  0  0  0  0  0  0  0  0  0  0
    1.8767   -0.1420    1.9937 S   0  0  1  0  0  0  0  0  0  0  0  0
    2.6769   -1.3227    1.7215 O   0  0  0  0  0  0  0  0  0  0  0  0
   -0.8028    1.1771   -0.4957 C   0  0  0  0  0  0  0  0  0  0  0  0
   -0.2863    0.9796    0.9079 C   0  0  0  0  0  0  0  0  0  0  0  0
    0.6715   -0.1153    0.8582 N   0  0  0  0  0  0  0  0  0  0  0  0
   -0.9898   -1.2747   -0.5844 C   0  0  0  0  0  0  0  0  0  0  0  0
   -1.4871   -2.3177   -0.9822 O   0  0  0  0  0  0  0  0  0  0  0  0
    0.0217   -1.3762    0.5456 C   0  0  0  0  0  0  0  0  0  0  0  0
   -1.3003   -0.0620   -1.0790 N   0  0  0  0  0  0  0  0  0  0  0  0
    2.4876    1.1746    1.9788 O   0  0  0  0  0  0  0  0  0  0  0  0
   -2.2876    0.0490   -2.1445 C   0  0  0  0  0  0  0  0  0  0  0  0
    2.4701    1.2300   -8.4528 C   0  0  0  0  0  0  0  0  0  0  0  0
    0.3361    0.0871   -5.6775 N   0  0  0  0  0  0  0  0  0  0  0  0
    1.1121    0.1019   -6.8035 C   0  0  0  0  0  0  0  0  0  0  0  0
    1.6663    1.2857   -7.3318 C   0  0  0  0  0  0  0  0  0  0  0  0
   -0.4101   -1.1281   -5.3761 C   0  0  0  0  0  0  0  0  0  0  0  0
    1.4224   -1.0682   -7.5261 C   0  0  0  0  0  0  0  0  0  0  0  0
   -0.2146    1.3487   -5.1976 C   0  0  0  0  0  0  0  0  0  0  0  0
   -1.7509    0.1189   -3.5881 C   0  0  2  0  0  0  0  0  0  0  0  0
   -2.9710    0.2791   -4.4987 C   0  0  0  0  0  0  0  0  0  0  0  0
   -3.6055    1.5099   -4.2378 O   0  0  0  0  0  0  0  0  0  0  0  0
   -0.9977   -1.1550   -3.9713 C   0  0  0  0  0  0  0  0  0  0  0  0
    2.7746    0.1203   -9.1200 N   0  0  0  0  0  0  0  0  0  0  0  0
    2.2384   -0.9968   -8.6378 C   0  0  0  0  0  0  0  0  0  0  0  0
   -0.7507    1.2573   -3.7798 C   0  0  0  0  0  0  0  0  0  0  0  0
    0.9181    1.7445    3.9199 H   0  0  0  0  0  0  0  0  0  0  0  0
   -0.0437   -2.8336    5.5772 H   0  0  0  0  0  0  0  0  0  0  0  0
    1.1298   -2.5312    3.4538 H   0  0  0  0  0  0  0  0  0  0  0  0
   -0.1552    2.6985    5.9133 H   0  0  0  0  0  0  0  0  0  0  0  0
   -1.1217   -1.8754    7.5838 H   0  0  0  0  0  0  0  0  0  0  0  0
   -1.3037    2.3861    8.0613 H   0  0  0  0  0  0  0  0  0  0  0  0
   -0.0057    1.6004   -1.1080 H   0  0  0  0  0  0  0  0  0  0  0  0
   -1.6196    1.8998   -0.4735 H   0  0  0  0  0  0  0  0  0  0  0  0
    0.1952    1.9027    1.2239 H   0  0  0  0  0  0  0  0  0  0  0  0
   -1.1004    0.7613    1.6098 H   0  0  0  0  0  0  0  0  0  0  0  0
    0.7630   -2.1111    0.2370 H   0  0  0  0  0  0  0  0  0  0  0  0
   -0.5224   -1.7908    1.4048 H   0  0  0  0  0  0  0  0  0  0  0  0
   -2.8751    0.9462   -1.9441 H   0  0  0  0  0  0  0  0  0  0  0  0
   -2.9687   -0.7995   -2.0691 H   0  0  0  0  0  0  0  0  0  0  0  0
    1.4876    2.2548   -6.8921 H   0  0  0  0  0  0  0  0  0  0  0  0
    0.2630   -1.9818   -5.4440 H   0  0  0  0  0  0  0  0  0  0  0  0
   -1.1921   -1.2930   -6.1280 H   0  0  0  0  0  0  0  0  0  0  0  0
    1.0397   -2.0375   -7.2461 H   0  0  0  0  0  0  0  0  0  0  0  0
    0.5748    2.0977   -5.1854 H   0  0  0  0  0  0  0  0  0  0  0  0
   -0.9898    1.7200   -5.8802 H   0  0  0  0  0  0  0  0  0  0  0  0
   -3.6480   -0.5693   -4.3229 H   0  0  0  0  0  0  0  0  0  0  0  0
   -2.6661    0.2164   -5.5495 H   0  0  0  0  0  0  0  0  0  0  0  0
   -4.3667    1.5839   -4.8201 H   0  0  0  0  0  0  0  0  0  0  0  0
   -0.1846   -1.3073   -3.2586 H   0  0  0  0  0  0  0  0  0  0  0  0
   -1.6435   -2.0338   -3.9035 H   0  0  0  0  0  0  0  0  0  0  0  0
    2.4628   -1.9124   -9.1757 H   0  0  0  0  0  0  0  0  0  0  0  0
   -1.1793    2.2268   -3.5171 H   0  0  0  0  0  0  0  0  0  0  0  0
    0.0982    1.0977   -3.1099 H   0  0  0  0  0  0  0  0  0  0  0  0
   -2.0875    0.0406    9.4448 Cl  0  0  0  0  0  0  0  0  0  0  0  0
    2.8898    2.1546   -8.8361 H   0  0  0  0  0  0  0  0  0  0  0  0
  1  2  2  0
  1  6  1  0
  1 36  1  0
  2  5  1  0
 11  2  1  1
  3  4  1  0
  3  6  2  0
  3  8  1  0
  4  5  2  0
  4 37  1  0
  5 38  1  0
  6  7  1  0
 64 10  1  0
  7  9  2  0
  7 39  1  0
  8 10  2  0
  8 40  1  0
  9 10  1  0
  9 41  1  0
 11 12  2  0
 11 15  1  0
 11 20  2  0
 13 14  1  0
 13 19  1  0
 13 42  1  0
 13 43  1  0
 14 15  1  0
 14 44  1  0
 14 45  1  0
 15 18  1  0
 16 17  2  0
 16 18  1  0
 16 19  1  0
 18 46  1  0
 18 47  1  0
 19 21  1  0
 29 21  1  1
 21 48  1  0
 21 49  1  0
 22 25  2  0
 22 33  1  0
 22 65  1  0
 23 24  1  0
 23 26  1  0
 23 28  1  0
 24 25  1  0
 24 27  2  0
 25 50  1  0
 26 32  1  0
 26 51  1  0
 26 52  1  0
 27 34  1  0
 27 53  1  0
 28 35  1  0
 28 54  1  0
 28 55  1  0
 29 30  1  0
 29 32  1  0
 29 35  1  0
 30 31  1  0
 30 56  1  0
 30 57  1  0
 31 58  1  0
 32 59  1  0
 32 60  1  0
 33 34  2  0
 34 61  1  0
 35 62  1  0
 35 63  1  0
M  END
