
     RDKit          3D

 56 58  0  0  0  0  0  0  0  0999 V2000
    7.5893   -0.0726    0.8386 N   0  0  0  0  0  0  0  0  0  0  0  0
    6.3800    0.5455    0.6925 C   0  0  0  0  0  0  0  0  0  0  0  0
    6.3048    1.9011    0.3354 C   0  0  0  0  0  0  0  0  0  0  0  0
    5.0633    2.4779    0.1493 C   0  0  0  0  0  0  0  0  0  0  0  0
    4.9257    3.9162   -0.2460 C   0  0  0  0  0  0  0  0  0  0  0  0
    3.9328    1.6771    0.3285 C   0  0  0  0  0  0  0  0  0  0  0  0
    5.2954   -0.2071    0.8641 N   0  0  0  0  0  0  0  0  0  0  0  0
    4.0973    0.3480    0.6822 C   0  0  0  0  0  0  0  0  0  0  0  0
    2.8979   -0.5420    0.8577 C   0  0  0  0  0  0  0  0  0  0  0  0
    2.2572   -0.9491   -0.4817 C   0  0  1  0  0  0  0  0  0  0  0  0
    3.2220   -1.7443   -1.3605 C   0  0  0  0  0  0  0  0  0  0  0  0
    2.6113   -2.0613   -2.6410 N   0  0  0  0  0  0  0  0  0  0  0  0
    0.9718   -1.6969   -0.2255 C   0  0  0  0  0  0  0  0  0  0  0  0
    0.9654   -2.9836    0.3104 C   0  0  0  0  0  0  0  0  0  0  0  0
   -0.1398   -3.6659    0.5755 N   0  0  0  0  0  0  0  0  0  0  0  0
   -1.3081   -3.0886    0.3213 C   0  0  0  0  0  0  0  0  0  0  0  0
   -0.2634   -1.1212   -0.4869 C   0  0  0  0  0  0  0  0  0  0  0  0
   -1.4390   -1.8120   -0.2121 C   0  0  0  0  0  0  0  0  0  0  0  0
   -2.7848   -1.1912   -0.4412 C   0  0  0  0  0  0  0  0  0  0  0  0
   -3.1498   -0.2049    0.6764 C   0  0  0  0  0  0  0  0  0  0  0  0
   -4.4814    0.4503    0.4417 C   0  0  0  0  0  0  0  0  0  0  0  0
   -5.5439    0.2397    1.3026 C   0  0  0  0  0  0  0  0  0  0  0  0
   -6.7668    0.8670    1.0385 C   0  0  0  0  0  0  0  0  0  0  0  0
   -7.9313    0.6965    1.9655 C   0  0  0  0  0  0  0  0  0  0  0  0
   -4.5717    1.2239   -0.6412 N   0  0  0  0  0  0  0  0  0  0  0  0
   -5.7314    1.8156   -0.9091 C   0  0  0  0  0  0  0  0  0  0  0  0
   -5.8013    2.5518   -2.0554 N   0  0  0  0  0  0  0  0  0  0  0  0
   -6.8598    1.6635   -0.0846 C   0  0  0  0  0  0  0  0  0  0  0  0
    8.3902    0.5100    1.0174 H   0  0  0  0  0  0  0  0  0  0  0  0
    7.5861   -0.9349    1.3589 H   0  0  0  0  0  0  0  0  0  0  0  0
    7.2111    2.4825    0.2123 H   0  0  0  0  0  0  0  0  0  0  0  0
    4.6625    3.9995   -1.3021 H   0  0  0  0  0  0  0  0  0  0  0  0
    4.1334    4.4059    0.3202 H   0  0  0  0  0  0  0  0  0  0  0  0
    5.8507    4.4692   -0.0909 H   0  0  0  0  0  0  0  0  0  0  0  0
    2.9388    2.0888    0.2006 H   0  0  0  0  0  0  0  0  0  0  0  0
    3.1948   -1.4329    1.4162 H   0  0  0  0  0  0  0  0  0  0  0  0
    2.1446   -0.0228    1.4556 H   0  0  0  0  0  0  0  0  0  0  0  0
    1.9998   -0.0358   -1.0274 H   0  0  0  0  0  0  0  0  0  0  0  0
    4.1056   -1.1320   -1.5501 H   0  0  0  0  0  0  0  0  0  0  0  0
    3.5784   -2.6243   -0.8061 H   0  0  0  0  0  0  0  0  0  0  0  0
    3.2967   -2.5101   -3.2347 H   0  0  0  0  0  0  0  0  0  0  0  0
    1.8757   -2.7450   -2.5105 H   0  0  0  0  0  0  0  0  0  0  0  0
    1.9012   -3.4882    0.5327 H   0  0  0  0  0  0  0  0  0  0  0  0
   -0.3113   -0.1228   -0.9105 H   0  0  0  0  0  0  0  0  0  0  0  0
   -2.1962   -3.6718    0.5475 H   0  0  0  0  0  0  0  0  0  0  0  0
   -2.7933   -0.6631   -1.3969 H   0  0  0  0  0  0  0  0  0  0  0  0
   -3.5483   -1.9704   -0.5004 H   0  0  0  0  0  0  0  0  0  0  0  0
   -3.1562   -0.7260    1.6359 H   0  0  0  0  0  0  0  0  0  0  0  0
   -2.3766    0.5667    0.7388 H   0  0  0  0  0  0  0  0  0  0  0  0
   -5.4289   -0.4028    2.1667 H   0  0  0  0  0  0  0  0  0  0  0  0
   -7.8778    1.4209    2.7806 H   0  0  0  0  0  0  0  0  0  0  0  0
   -8.8802    0.8497    1.4535 H   0  0  0  0  0  0  0  0  0  0  0  0
   -7.9392   -0.2954    2.4164 H   0  0  0  0  0  0  0  0  0  0  0  0
   -7.7875    2.1643   -0.3358 H   0  0  0  0  0  0  0  0  0  0  0  0
   -4.9246    2.8263   -2.4668 H   0  0  0  0  0  0  0  0  0  0  0  0
   -6.5309    3.2399   -2.1318 H   0  0  0  0  0  0  0  0  0  0  0  0
  1  2  1  0
  2  3  2  0
  2  7  1  0
  3  4  1  0
  4  5  1  0
  4  6  2  0
  6  8  1  0
  7  8  2  0
  8  9  1  0
  9 10  1  0
 10 11  1  0
 10 13  1  0
 11 12  1  0
 13 14  2  0
 13 17  1  0
 14 15  1  0
 15 16  2  0
 16 18  1  0
 17 18  2  0
 18 19  1  0
 19 20  1  0
 20 21  1  0
 21 22  2  0
 21 25  1  0
 22 23  1  0
 23 24  1  0
 23 28  2  0
 25 26  2  0
 26 27  1  0
 26 28  1  0
  1 29  1  0
  1 30  1  0
  3 31  1  0
  5 32  1  0
  5 33  1  0
  5 34  1  0
  6 35  1  0
  9 36  1  0
  9 37  1  0
 10 38  1  6
 11 39  1  0
 11 40  1  0
 12 41  1  0
 12 42  1  0
 14 43  1  0
 17 44  1  0
 16 45  1  0
 19 46  1  0
 19 47  1  0
 20 48  1  0
 20 49  1  0
 22 50  1  0
 24 51  1  0
 24 52  1  0
 24 53  1  0
 28 54  1  0
 27 55  1  0
 27 56  1  0
M  END
