
     RDKit          3D

 48 50  0  0  0  0  0  0  0  0999 V2000
   -2.7291    0.6735   -0.0012 N   0  0  0  0  0  0  0  0  0  0  0  0
   -3.9445    0.0380    0.2769 N   0  0  0  0  0  0  0  0  0  0  0  0
   -0.1879    1.4465   -0.1049 C   0  0  0  0  0  0  0  0  0  0  0  0
   -1.2245    2.4576   -0.2233 C   0  0  0  0  0  0  0  0  0  0  0  0
   -2.5583    2.0085   -0.1331 C   0  0  0  0  0  0  0  0  0  0  0  0
    4.2383    1.9201   -0.1279 O   0  0  0  0  0  0  0  0  0  0  0  0
   -3.6678   -1.2804   -0.2215 N   0  0  0  0  0  0  0  0  0  0  0  0
    2.1774   -0.3841    1.2380 C   0  0  0  0  0  0  0  0  0  0  0  0
    1.9244    0.3646    2.5105 C   0  0  0  0  0  0  0  0  0  0  0  0
    2.3477    0.4377   -0.0543 C   0  0  2  0  0  0  0  0  0  0  0  0
    3.8185    0.7955   -0.2169 C   0  0  0  0  0  0  0  0  0  0  0  0
    4.5403   -0.2747   -0.4432 O   0  0  0  0  0  0  0  0  0  0  0  0
    5.9671   -0.1127   -0.5983 C   0  0  0  0  0  0  0  0  0  0  0  0
    6.5522   -1.4727   -0.8814 C   0  0  0  0  0  0  0  0  0  0  0  0
    1.4644    2.0146   -0.1029 S   0  0  0  0  0  0  0  0  0  0  0  0
   -0.4092    0.1798    0.0202 N   0  0  0  0  0  0  0  0  0  0  0  0
   -0.9826    3.8243   -0.3850 C   0  0  0  0  0  0  0  0  0  0  0  0
   -2.0294    4.7210   -0.4395 C   0  0  0  0  0  0  0  0  0  0  0  0
   -3.3422    4.2577   -0.3281 C   0  0  0  0  0  0  0  0  0  0  0  0
   -3.6201    2.9153   -0.1716 C   0  0  0  0  0  0  0  0  0  0  0  0
   -2.2588   -1.4774    0.0145 C   0  0  0  0  0  0  0  0  0  0  0  0
   -1.6945   -0.2405    0.0349 C   0  0  0  0  0  0  0  0  0  0  0  0
   -1.5988   -2.7548   -0.0066 C   0  0  0  0  0  0  0  0  0  0  0  0
   -0.4048   -2.9308    0.1128 O   0  0  0  0  0  0  0  0  0  0  0  0
   -2.4832   -3.7440   -0.1693 O   0  0  0  0  0  0  0  0  0  0  0  0
   -1.9862   -5.0867   -0.2072 C   0  0  0  0  0  0  0  0  0  0  0  0
   -3.1633   -6.0088   -0.4175 C   0  0  0  0  0  0  0  0  0  0  0  0
   -3.9961   -0.0092    1.3017 H   0  0  0  0  0  0  0  0  0  0  0  0
   -4.2625   -1.9246    0.2846 H   0  0  0  0  0  0  0  0  0  0  0  0
    2.5869    1.2265    2.5990 H   0  0  0  0  0  0  0  0  0  0  0  0
    0.9033    0.7473    2.5336 H   0  0  0  0  0  0  0  0  0  0  0  0
    2.0652   -0.2934    3.3649 H   0  0  0  0  0  0  0  0  0  0  0  0
    2.0289   -0.1874   -0.8909 H   0  0  0  0  0  0  0  0  0  0  0  0
    6.1621    0.5801   -1.4182 H   0  0  0  0  0  0  0  0  0  0  0  0
    6.3813    0.3143    0.3164 H   0  0  0  0  0  0  0  0  0  0  0  0
    7.6290   -1.3725   -1.0137 H   0  0  0  0  0  0  0  0  0  0  0  0
    6.3795   -2.1646   -0.0576 H   0  0  0  0  0  0  0  0  0  0  0  0
    6.1421   -1.9040   -1.7943 H   0  0  0  0  0  0  0  0  0  0  0  0
    0.0317    4.1937   -0.4694 H   0  0  0  0  0  0  0  0  0  0  0  0
   -1.8335    5.7764   -0.5643 H   0  0  0  0  0  0  0  0  0  0  0  0
   -4.1619    4.9626   -0.3667 H   0  0  0  0  0  0  0  0  0  0  0  0
   -4.6383    2.5632   -0.0866 H   0  0  0  0  0  0  0  0  0  0  0  0
   -1.2613   -5.1927   -1.0171 H   0  0  0  0  0  0  0  0  0  0  0  0
   -1.4766   -5.3206    0.7302 H   0  0  0  0  0  0  0  0  0  0  0  0
   -3.8844   -5.9292    0.3957 H   0  0  0  0  0  0  0  0  0  0  0  0
   -3.6732   -5.8015   -1.3583 H   0  0  0  0  0  0  0  0  0  0  0  0
   -2.8083   -7.0386   -0.4503 H   0  0  0  0  0  0  0  0  0  0  0  0
    2.3261   -1.5753    1.1838 O   0  0  0  0  0  0  0  0  0  0  0  0
  1  2  1  0
  1  5  1  0
  1 22  1  0
  2  7  1  0
  3  4  1  0
  3 15  1  0
  3 16  2  0
  4  5  2  0
  4 17  1  0
  5 20  1  0
  6 11  2  0
  7 21  1  0
 48  8  2  0
  8  9  1  0
  8 10  1  0
 10 11  1  0
 10 15  1  0
 11 12  1  0
 12 13  1  0
 13 14  1  0
 16 22  1  0
 17 18  2  0
 18 19  1  0
 19 20  2  0
 21 22  2  0
 21 23  1  0
 23 24  2  0
 23 25  1  0
 25 26  1  0
 26 27  1  0
  2 28  1  0
  7 29  1  0
  9 30  1  0
  9 31  1  0
  9 32  1  0
 10 33  1  6
 13 34  1  0
 13 35  1  0
 14 36  1  0
 14 37  1  0
 14 38  1  0
 17 39  1  0
 18 40  1  0
 19 41  1  0
 20 42  1  0
 26 43  1  0
 26 44  1  0
 27 45  1  0
 27 46  1  0
 27 47  1  0
M  END
