
     RDKit          3D

 45 49  0  0  0  0  0  0  0  0999 V2000
   -1.3447   -1.9778   -1.0872 C   0  0  0  0  0  0  0  0  0  0  0  0
   -2.2411   -2.9653   -0.7738 C   0  0  0  0  0  0  0  0  0  0  0  0
   -2.8402   -3.8506   -1.6042 O   0  0  0  0  0  0  0  0  0  0  0  0
   -3.8234   -4.5171   -0.8228 C   0  0  0  0  0  0  0  0  0  0  0  0
   -3.5200   -4.2489    0.5381 O   0  0  0  0  0  0  0  0  0  0  0  0
   -2.6518   -3.2074    0.5292 C   0  0  0  0  0  0  0  0  0  0  0  0
   -2.1838   -2.4657    1.5829 C   0  0  0  0  0  0  0  0  0  0  0  0
   -1.2551   -1.4576    1.2906 C   0  0  0  0  0  0  0  0  0  0  0  0
   -0.8563   -1.2319   -0.0100 C   0  0  0  0  0  0  0  0  0  0  0  0
    0.0395   -0.2000   -0.2478 O   0  0  0  0  0  0  0  0  0  0  0  0
    1.2913   -0.5233   -0.5873 C   0  0  0  0  0  0  0  0  0  0  0  0
    1.6055   -1.7931   -0.6792 N   0  0  0  0  0  0  0  0  0  0  0  0
    2.2126    0.4926   -0.8274 C   0  0  0  0  0  0  0  0  0  0  0  0
    3.4888    0.0809   -1.1726 C   0  0  0  0  0  0  0  0  0  0  0  0
    4.5811    1.0650   -1.4298 C   0  0  0  0  0  0  0  0  0  0  0  0
    3.8081   -1.2159   -1.2924 N   0  0  0  0  0  0  0  0  0  0  0  0
    2.8393   -2.0655   -1.0464 C   0  0  0  0  0  0  0  0  0  0  0  0
    3.1631   -3.3622   -1.1913 O   0  0  0  0  0  0  0  0  0  0  0  0
    2.1284   -4.2719   -1.0914 C   0  0  0  0  0  0  0  0  0  0  0  0
    2.0036   -5.0278    0.0586 C   0  0  0  0  0  0  0  0  0  0  0  0
    0.9572   -5.9309    0.1709 C   0  0  0  0  0  0  0  0  0  0  0  0
    1.2308   -4.4118   -2.1368 C   0  0  0  0  0  0  0  0  0  0  0  0
    0.1704   -5.2903   -2.0125 C   0  0  0  0  0  0  0  0  0  0  0  0
    0.0294   -6.0459   -0.8547 C   0  0  0  0  0  0  0  0  0  0  0  0
   -1.0650   -6.9251   -0.7203 N   0  0  0  0  0  0  0  0  0  0  0  0
   -1.7821   -7.1711    0.4233 C   0  0  0  0  0  0  0  0  0  0  0  0
   -2.7382   -8.0741    0.0665 C   0  0  0  0  0  0  0  0  0  0  0  0
   -2.6235   -8.3888   -1.2601 N   0  0  0  0  0  0  0  0  0  0  0  0
   -1.6165   -7.6861   -1.7008 C   0  0  0  0  0  0  0  0  0  0  0  0
   -1.0221   -1.7948   -2.1028 H   0  0  0  0  0  0  0  0  0  0  0  0
   -3.7793   -5.5905   -1.0063 H   0  0  0  0  0  0  0  0  0  0  0  0
   -4.8175   -4.1260   -1.0667 H   0  0  0  0  0  0  0  0  0  0  0  0
   -2.5030   -2.6496    2.5994 H   0  0  0  0  0  0  0  0  0  0  0  0
   -0.8512   -0.8515    2.0905 H   0  0  0  0  0  0  0  0  0  0  0  0
    1.9505    1.5372   -0.7443 H   0  0  0  0  0  0  0  0  0  0  0  0
    5.3646    0.9573   -0.6785 H   0  0  0  0  0  0  0  0  0  0  0  0
    5.0386    0.8818   -2.4021 H   0  0  0  0  0  0  0  0  0  0  0  0
    4.2167    2.0893   -1.4017 H   0  0  0  0  0  0  0  0  0  0  0  0
    2.7142   -4.9163    0.8668 H   0  0  0  0  0  0  0  0  0  0  0  0
    0.8702   -6.5369    1.0631 H   0  0  0  0  0  0  0  0  0  0  0  0
    1.3323   -3.8133   -3.0329 H   0  0  0  0  0  0  0  0  0  0  0  0
   -0.5611   -5.3576   -2.8061 H   0  0  0  0  0  0  0  0  0  0  0  0
   -1.5705   -6.6756    1.3552 H   0  0  0  0  0  0  0  0  0  0  0  0
   -3.5025   -8.5072    0.6927 H   0  0  0  0  0  0  0  0  0  0  0  0
   -1.2249   -7.6998   -2.7067 H   0  0  0  0  0  0  0  0  0  0  0  0
  1  9  2  0
  1  2  1  0
  1 30  1  0
  2  3  1  0
  2  6  2  0
  3  4  1  0
  4  5  1  0
  4 31  1  0
  4 32  1  0
  5  6  1  0
  6  7  1  0
  7  8  2  0
  7 33  1  0
  8  9  1  0
  8 34  1  0
  9 10  1  0
 10 11  1  0
 11 13  1  0
 11 12  2  0
 12 17  1  0
 13 14  2  0
 13 35  1  0
 14 15  1  0
 14 16  1  0
 15 36  1  0
 15 37  1  0
 15 38  1  0
 16 17  2  0
 17 18  1  0
 18 19  1  0
 19 20  2  0
 19 22  1  0
 20 21  1  0
 20 39  1  0
 21 24  2  0
 21 40  1  0
 22 23  2  0
 22 41  1  0
 23 24  1  0
 23 42  1  0
 24 25  1  0
 25 26  1  0
 25 29  1  0
 26 27  2  0
 26 43  1  0
 27 28  1  0
 27 44  1  0
 28 29  2  0
 29 45  1  0
M  END
