
     RDKit          3D

 60 63  0  0  0  0  0  0  0  0999 V2000
   -4.9111    1.2879   -3.1361 C   0  0  0  0  0  0  0  0  0  0  0  0
   -1.6318   -3.3886    0.6229 C   0  0  0  0  0  0  0  0  0  0  0  0
   -4.9671    2.4229   -2.3386 C   0  0  0  0  0  0  0  0  0  0  0  0
   -0.5147   -2.6504    0.2917 C   0  0  0  0  0  0  0  0  0  0  0  0
   -4.6704    0.0434   -2.5771 C   0  0  0  0  0  0  0  0  0  0  0  0
   -1.9322   -0.9782   -0.6803 C   0  0  0  0  0  0  0  0  0  0  0  0
   -4.5480    1.0605   -0.3914 C   0  0  0  0  0  0  0  0  0  0  0  0
   -2.9253   -2.9457    0.3256 C   0  0  0  0  0  0  0  0  0  0  0  0
   -0.6603   -1.4346   -0.3709 C   0  0  0  0  0  0  0  0  0  0  0  0
   -4.7858    2.3037   -0.9680 C   0  0  0  0  0  0  0  0  0  0  0  0
   -4.4921   -0.0569   -1.2055 C   0  0  0  0  0  0  0  0  0  0  0  0
   -3.0614   -1.7160   -0.3368 C   0  0  0  0  0  0  0  0  0  0  0  0
    6.1440   -1.0602    0.3944 C   0  0  0  0  0  0  0  0  0  0  0  0
    7.4308   -0.9790    0.0115 C   0  0  0  0  0  0  0  0  0  0  0  0
    7.9088    0.2952   -0.4793 C   0  0  0  0  0  0  0  0  0  0  0  0
    5.6355    1.2122   -0.1046 C   0  0  0  0  0  0  0  0  0  0  0  0
    2.1232    0.1247    2.5320 C   0  0  0  0  0  0  0  0  0  0  0  0
    3.5116    0.5555    2.0726 C   0  0  0  0  0  0  0  0  0  0  0  0
    1.1177    0.2070    1.3955 C   0  0  0  0  0  0  0  0  0  0  0  0
    2.8271   -0.1238   -0.2581 C   0  0  0  0  0  0  0  0  0  0  0  0
    3.8796   -0.2597    0.8400 C   0  0  1  0  0  0  0  0  0  0  0  0
    8.3766   -2.1332    0.0739 C   0  0  0  0  0  0  0  0  0  0  0  0
    0.5473   -0.6340   -0.7820 C   0  0  0  0  0  0  0  0  0  0  0  0
   -4.8415    3.4989   -0.0673 C   0  0  1  0  0  0  0  0  0  0  0  0
    6.9496    1.2904   -0.4935 N   0  0  0  0  0  0  0  0  0  0  0  0
    5.2481   -0.0236    0.3546 N   0  0  0  0  0  0  0  0  0  0  0  0
    1.5515   -0.5885    0.2573 N   0  0  0  0  0  0  0  0  0  0  0  0
    4.8967    2.1743   -0.1727 O   0  0  0  0  0  0  0  0  0  0  0  0
   -4.3096   -1.2932   -0.6434 O   0  0  0  0  0  0  0  0  0  0  0  0
   -5.8076    3.3774    0.8541 F   0  0  0  0  0  0  0  0  0  0  0  0
   -3.6936    3.6621    0.6054 F   0  0  0  0  0  0  0  0  0  0  0  0
   -5.0720    4.6336   -0.7309 F   0  0  0  0  0  0  0  0  0  0  0  0
   -5.0528    1.3769   -4.2043 H   0  0  0  0  0  0  0  0  0  0  0  0
   -1.4965   -4.3295    1.1371 H   0  0  0  0  0  0  0  0  0  0  0  0
   -5.1561    3.3830   -2.7972 H   0  0  0  0  0  0  0  0  0  0  0  0
    0.4720   -3.0073    0.5534 H   0  0  0  0  0  0  0  0  0  0  0  0
   -4.6270   -0.8418   -3.1982 H   0  0  0  0  0  0  0  0  0  0  0  0
   -2.0349   -0.0303   -1.1936 H   0  0  0  0  0  0  0  0  0  0  0  0
   -4.4111    0.9497    0.6776 H   0  0  0  0  0  0  0  0  0  0  0  0
    5.7402   -1.9912    0.7676 H   0  0  0  0  0  0  0  0  0  0  0  0
    2.1563   -0.9023    2.9067 H   0  0  0  0  0  0  0  0  0  0  0  0
    1.7890    0.7548    3.3581 H   0  0  0  0  0  0  0  0  0  0  0  0
    3.5069    1.6210    1.8394 H   0  0  0  0  0  0  0  0  0  0  0  0
    4.2485    0.3940    2.8624 H   0  0  0  0  0  0  0  0  0  0  0  0
    0.1507   -0.1656    1.7396 H   0  0  0  0  0  0  0  0  0  0  0  0
    0.9679    1.2623    1.1066 H   0  0  0  0  0  0  0  0  0  0  0  0
    2.7689    0.9132   -0.6166 H   0  0  0  0  0  0  0  0  0  0  0  0
    3.1134   -0.7494   -1.1074 H   0  0  0  0  0  0  0  0  0  0  0  0
    3.8714   -1.3113    1.1340 H   0  0  0  0  0  0  0  0  0  0  0  0
    8.7506   -2.3967   -0.9164 H   0  0  0  0  0  0  0  0  0  0  0  0
    9.2427   -1.9015    0.6951 H   0  0  0  0  0  0  0  0  0  0  0  0
    7.8912   -3.0133    0.4924 H   0  0  0  0  0  0  0  0  0  0  0  0
    0.9867   -1.1124   -1.6634 H   0  0  0  0  0  0  0  0  0  0  0  0
    0.2288    0.3706   -1.1052 H   0  0  0  0  0  0  0  0  0  0  0  0
    7.2420    2.1993   -0.8312 H   0  0  0  0  0  0  0  0  0  0  0  0
   -4.5562   -5.4592    1.3874 H   0  0  0  0  0  0  0  0  0  0  0  0
   -4.1023   -3.7500    0.7274 C   0  0  0  0  0  0  0  0  0  0  0  0
    9.0449    0.5211   -0.8572 O   0  0  0  0  0  0  0  0  0  0  0  0
   -3.7628   -4.9797    1.1070 O   0  0  0  0  0  0  0  0  0  0  0  0
   -5.2473   -3.3682    0.7303 O   0  0  0  0  0  0  0  0  0  0  0  0
 58 15  2  0
 25 15  1  0
 25 16  1  0
 15 14  1  0
 24 30  1  1
 28 16  2  0
 16 26  1  0
 14 22  1  0
 14 13  2  0
 31 24  1  0
 24 32  1  0
 24 10  1  0
 26 13  1  0
 26 21  1  0
 10  3  1  0
 10  7  2  0
  3  1  2  0
 21 20  1  0
 21 18  1  0
  1  5  1  0
  7 11  1  0
 20 27  1  0
 18 17  1  0
 11  5  2  0
 11 29  1  0
 27 23  1  0
 27 19  1  0
 17 19  1  0
 29 12  1  0
  6 12  2  0
  6  9  1  0
 23  9  1  0
 12  8  1  0
  9  4  2  0
  8  2  2  0
  8 57  1  0
  4  2  1  0
 60 57  2  0
 57 59  1  0
  1 33  1  0
  2 34  1  0
  3 35  1  0
  4 36  1  0
  5 37  1  0
  6 38  1  0
  7 39  1  0
 13 40  1  0
 17 41  1  0
 17 42  1  0
 18 43  1  0
 18 44  1  0
 19 45  1  0
 19 46  1  0
 20 47  1  0
 20 48  1  0
 21 49  1  1
 22 50  1  0
 22 51  1  0
 22 52  1  0
 23 53  1  0
 23 54  1  0
 25 55  1  0
 59 56  1  0
M  END
