
     RDKit          3D

 63 68  0  0  0  0  0  0  0  0999 V2000
    1.3929   -2.4287   -0.9566 C   0  0  0  0  0  0  0  0  0  0  0  0
    2.4913   -2.0915   -1.7300 C   0  0  0  0  0  0  0  0  0  0  0  0
    3.0149   -3.1097   -2.5468 C   0  0  0  0  0  0  0  0  0  0  0  0
    1.9851   -0.3529   -0.6564 C   0  0  0  0  0  0  0  0  0  0  0  0
    5.2712    3.0484   -1.2209 C   0  0  0  0  0  0  0  0  0  0  0  0
    5.9576    1.5975    0.5828 C   0  0  0  0  0  0  0  0  0  0  0  0
    4.6201    1.2004    0.6968 C   0  0  0  0  0  0  0  0  0  0  0  0
    7.2364    3.8588   -1.8601 C   0  0  0  0  0  0  0  0  0  0  0  0
   -1.3659   -0.9740   -0.0068 C   0  0  2  0  0  0  0  0  0  0  0  0
   -1.4041    0.2632   -0.8963 C   0  0  0  0  0  0  0  0  0  0  0  0
    2.4185   -4.3069   -2.5134 N   0  0  0  0  0  0  0  0  0  0  0  0
    1.3678   -4.4870   -1.7174 C   0  0  0  0  0  0  0  0  0  0  0  0
    5.8298    3.9455   -2.0597 O   0  0  0  0  0  0  0  0  0  0  0  0
   -2.8042    0.4603   -1.4605 C   0  0  0  0  0  0  0  0  0  0  0  0
   -3.8395    0.4810   -0.3511 C   0  0  0  0  0  0  0  0  0  0  0  0
   -2.4597   -0.8966    1.0527 C   0  0  0  0  0  0  0  0  0  0  0  0
   -6.1732   -0.9839    0.8223 C   0  0  0  0  0  0  0  0  0  0  0  0
   -6.3563   -1.9791   -0.1363 C   0  0  0  0  0  0  0  0  0  0  0  0
   -7.6017   -2.2176   -0.6960 C   0  0  0  0  0  0  0  0  0  0  0  0
   -8.6984   -1.4599   -0.3145 C   0  0  0  0  0  0  0  0  0  0  0  0
   -8.5050   -0.4668    0.6347 C   0  0  0  0  0  0  0  0  0  0  0  0
   -7.2625   -0.2171    1.2067 C   0  0  0  0  0  0  0  0  0  0  0  0
    3.6366    1.7097   -0.1453 C   0  0  0  0  0  0  0  0  0  0  0  0
    3.9623    2.6565   -1.1303 C   0  0  0  0  0  0  0  0  0  0  0  0
    6.2466    2.5270   -0.3853 C   0  0  0  0  0  0  0  0  0  0  0  0
   -9.7391    1.6747   -0.0160 F   0  0  0  0  0  0  0  0  0  0  0  0
    0.7887   -3.6131   -0.9115 N   0  0  0  0  0  0  0  0  0  0  0  0
    1.0783   -1.2986   -0.2572 N   0  0  0  0  0  0  0  0  0  0  0  0
    2.8428   -0.7829   -1.5336 N   0  0  0  0  0  0  0  0  0  0  0  0
    4.0713   -2.9271   -3.3410 N   0  0  0  0  0  0  0  0  0  0  0  0
   -3.7692   -0.7302    0.4504 N   0  0  0  0  0  0  0  0  0  0  0  0
    7.4364    3.0832   -0.6811 O   0  0  0  0  0  0  0  0  0  0  0  0
  -11.1134   -0.1313    0.8292 O   0  0  0  0  0  0  0  0  0  0  0  0
   -9.6271    1.1973    2.3517 O   0  0  0  0  0  0  0  0  0  0  0  0
    1.9329    1.2710    0.0028 S   0  0  0  0  0  0  0  0  0  0  0  0
   -9.8658    0.5309    1.0997 S   0  0  1  0  0  0  0  0  0  0  0  0
    6.7298    1.2034    1.2284 H   0  0  0  0  0  0  0  0  0  0  0  0
    7.7035    3.3595   -2.7138 H   0  0  0  0  0  0  0  0  0  0  0  0
    7.6519    4.8558   -1.7193 H   0  0  0  0  0  0  0  0  0  0  0  0
    0.2004   -0.3430    1.3564 H   0  0  0  0  0  0  0  0  0  0  0  0
   -0.0338   -2.0795    1.2891 H   0  0  0  0  0  0  0  0  0  0  0  0
   -1.5654   -1.8550   -0.6273 H   0  0  0  0  0  0  0  0  0  0  0  0
   -1.1205    1.1463   -0.3114 H   0  0  0  0  0  0  0  0  0  0  0  0
   -0.6831    0.1800   -1.7134 H   0  0  0  0  0  0  0  0  0  0  0  0
    0.9338   -5.4811   -1.7360 H   0  0  0  0  0  0  0  0  0  0  0  0
   -2.8593    1.3924   -2.0264 H   0  0  0  0  0  0  0  0  0  0  0  0
   -3.0368   -0.3504   -2.1568 H   0  0  0  0  0  0  0  0  0  0  0  0
   -3.6922    1.3777    0.2774 H   0  0  0  0  0  0  0  0  0  0  0  0
   -4.8393    0.5631   -0.7831 H   0  0  0  0  0  0  0  0  0  0  0  0
   -2.4636   -1.8188    1.6411 H   0  0  0  0  0  0  0  0  0  0  0  0
   -2.2304   -0.0744    1.7554 H   0  0  0  0  0  0  0  0  0  0  0  0
   -4.8385    0.1346    2.0727 H   0  0  0  0  0  0  0  0  0  0  0  0
   -4.6188   -1.6071    2.1227 H   0  0  0  0  0  0  0  0  0  0  0  0
   -5.5046   -2.5696   -0.4489 H   0  0  0  0  0  0  0  0  0  0  0  0
   -7.7233   -2.9988   -1.4336 H   0  0  0  0  0  0  0  0  0  0  0  0
   -9.6702   -1.6458   -0.7503 H   0  0  0  0  0  0  0  0  0  0  0  0
   -7.1364    0.5640    1.9456 H   0  0  0  0  0  0  0  0  0  0  0  0
    3.2020    3.0528   -1.7887 H   0  0  0  0  0  0  0  0  0  0  0  0
    4.5219   -2.0319   -3.4110 H   0  0  0  0  0  0  0  0  0  0  0  0
    4.3915   -3.6706   -3.9367 H   0  0  0  0  0  0  0  0  0  0  0  0
   -0.0190   -1.1733    0.6815 C   0  0  0  0  0  0  0  0  0  0  0  0
   -4.8183   -0.7713    1.4451 C   0  0  0  0  0  0  0  0  0  0  0  0
    4.1669   -0.2220    2.1702 I   0  0  0  0  0  0  0  0  0  0  0  0
 33 36  2  0
 36 26  1  6
 36 34  2  0
 36 21  1  0
 63  7  1  0
 35 23  1  0
 35  4  1  0
  7 23  1  0
  7  6  2  0
 23 24  2  0
 29  4  2  0
 29  2  1  0
 21 22  2  0
 21 20  1  0
  4 28  1  0
  6 25  1  0
 24  5  1  0
 30  3  1  0
 22 17  1  0
 20 19  2  0
 25  5  2  0
 25 32  1  0
  5 13  1  0
  2  3  2  0
  2  1  1  0
  3 11  1  0
 28  1  1  0
 28 61  1  0
 32  8  1  0
  9 16  1  0
  9 10  1  0
  9 61  1  0
 31 16  1  0
 31 15  1  0
 31 62  1  0
 13  8  1  0
 14 10  1  0
 14 15  1  0
 17 62  1  0
 17 18  2  0
  1 27  2  0
 19 18  1  0
 11 12  2  0
 27 12  1  0
  6 37  1  0
  8 38  1  0
  8 39  1  0
 61 40  1  0
 61 41  1  0
  9 42  1  6
 10 43  1  0
 10 44  1  0
 12 45  1  0
 14 46  1  0
 14 47  1  0
 15 48  1  0
 15 49  1  0
 16 50  1  0
 16 51  1  0
 62 52  1  0
 62 53  1  0
 18 54  1  0
 19 55  1  0
 20 56  1  0
 22 57  1  0
 24 58  1  0
 30 59  1  0
 30 60  1  0
M  END
