
     RDKit          3D

 62 65  0  0  0  0  0  0  0  0999 V2000
    4.3372   -0.6132    0.2133 C   0  0  0  0  0  0  0  0  0  0  0  0
    4.0769    0.5542    0.9912 C   0  0  0  0  0  0  0  0  0  0  0  0
    4.8197   -0.4112   -1.1094 C   0  0  0  0  0  0  0  0  0  0  0  0
    4.1413   -1.9460    0.6477 C   0  0  0  0  0  0  0  0  0  0  0  0
    3.4032    0.4687    2.6353 S   0  0  2  0  0  0  0  0  0  0  0  0
    4.2752    1.8131    0.4860 C   0  0  0  0  0  0  0  0  0  0  0  0
    5.0191    0.8995   -1.6001 C   0  0  0  0  0  0  0  0  0  0  0  0
    5.0939   -1.5249   -1.9367 C   0  0  0  0  0  0  0  0  0  0  0  0
    4.4115   -3.0024   -0.1797 C   0  0  0  0  0  0  0  0  0  0  0  0
    1.7991    0.0543    2.4610 N   0  0  0  0  0  0  0  0  0  0  0  0
    3.4291    1.8100    3.1899 O   0  0  0  0  0  0  0  0  0  0  0  0
    4.0211   -0.6126    3.3851 O   0  0  0  0  0  0  0  0  0  0  0  0
    4.7538    1.9892   -0.8232 C   0  0  0  0  0  0  0  0  0  0  0  0
    4.8939   -2.7986   -1.4855 C   0  0  0  0  0  0  0  0  0  0  0  0
    1.0064    0.8981    1.6388 C   0  0  0  0  0  0  0  0  0  0  0  0
    0.7192    0.5169    0.3229 C   0  0  0  0  0  0  0  0  0  0  0  0
    0.5061    2.0904    2.1345 C   0  0  0  0  0  0  0  0  0  0  0  0
   -0.0258    1.3648   -0.5056 C   0  0  0  0  0  0  0  0  0  0  0  0
    1.1914   -0.6656   -0.0942 O   0  0  0  0  0  0  0  0  0  0  0  0
   -0.2638    2.9093    1.3266 C   0  0  0  0  0  0  0  0  0  0  0  0
   -0.5386    2.5612    0.0067 C   0  0  0  0  0  0  0  0  0  0  0  0
   -0.2132    0.9895   -1.9595 C   0  0  0  0  0  0  0  0  0  0  0  0
   -1.3774    3.4750   -0.8413 C   0  0  0  0  0  0  0  0  0  0  0  0
   -1.1613   -0.1795   -2.0944 C   0  0  0  0  0  0  0  0  0  0  0  0
   -2.3480    0.0692   -2.6437 N   0  0  0  0  0  0  0  0  0  0  0  0
   -0.8289   -1.2948   -1.6784 O   0  0  0  0  0  0  0  0  0  0  0  0
   -3.4239   -0.8959   -2.7480 C   0  0  0  0  0  0  0  0  0  0  0  0
   -4.4828   -0.6723   -1.6983 C   0  0  0  0  0  0  0  0  0  0  0  0
   -5.7871   -0.3548   -2.0606 C   0  0  0  0  0  0  0  0  0  0  0  0
   -4.1707   -0.7648   -0.3443 C   0  0  0  0  0  0  0  0  0  0  0  0
   -6.7593   -0.1359   -1.0967 C   0  0  0  0  0  0  0  0  0  0  0  0
   -5.1368   -0.5347    0.6214 C   0  0  0  0  0  0  0  0  0  0  0  0
   -6.4447   -0.2140    0.2563 C   0  0  0  0  0  0  0  0  0  0  0  0
   -7.5062    0.0302    1.2714 C   0  0  0  0  0  0  0  0  0  0  0  0
   -7.0585    0.4394    2.4954 N   0  0  0  0  0  0  0  0  0  0  0  0
   -8.7220   -0.1981    0.9518 N   0  0  0  0  0  0  0  0  0  0  0  0
    3.7888   -2.1611    1.6439 H   0  0  0  0  0  0  0  0  0  0  0  0
    4.0691    2.6868    1.0870 H   0  0  0  0  0  0  0  0  0  0  0  0
    5.3859    1.0268   -2.6112 H   0  0  0  0  0  0  0  0  0  0  0  0
    5.4636   -1.3470   -2.9392 H   0  0  0  0  0  0  0  0  0  0  0  0
    4.2513   -4.0104    0.1795 H   0  0  0  0  0  0  0  0  0  0  0  0
    1.6849   -0.9375    2.2710 H   0  0  0  0  0  0  0  0  0  0  0  0
    4.9064    2.9900   -1.2023 H   0  0  0  0  0  0  0  0  0  0  0  0
    5.1033   -3.6471   -2.1231 H   0  0  0  0  0  0  0  0  0  0  0  0
    0.7034    2.3655    3.1615 H   0  0  0  0  0  0  0  0  0  0  0  0
    0.5787   -1.0451   -0.7693 H   0  0  0  0  0  0  0  0  0  0  0  0
   -0.6618    3.8321    1.7287 H   0  0  0  0  0  0  0  0  0  0  0  0
   -0.5512    1.8481   -2.5363 H   0  0  0  0  0  0  0  0  0  0  0  0
    0.7456    0.6888   -2.3923 H   0  0  0  0  0  0  0  0  0  0  0  0
   -0.8193    3.8627   -1.6955 H   0  0  0  0  0  0  0  0  0  0  0  0
   -2.2579    2.9648   -1.2364 H   0  0  0  0  0  0  0  0  0  0  0  0
   -1.7256    4.3291   -0.2634 H   0  0  0  0  0  0  0  0  0  0  0  0
   -2.5505    1.0099   -2.9434 H   0  0  0  0  0  0  0  0  0  0  0  0
   -3.8601   -0.8179   -3.7439 H   0  0  0  0  0  0  0  0  0  0  0  0
   -2.9995   -1.8954   -2.6608 H   0  0  0  0  0  0  0  0  0  0  0  0
   -6.0477   -0.2692   -3.1088 H   0  0  0  0  0  0  0  0  0  0  0  0
   -3.1674   -1.0300   -0.0338 H   0  0  0  0  0  0  0  0  0  0  0  0
   -7.7687    0.1135   -1.3942 H   0  0  0  0  0  0  0  0  0  0  0  0
   -4.8645   -0.6320    1.6646 H   0  0  0  0  0  0  0  0  0  0  0  0
   -7.7512    0.7534    3.1567 H   0  0  0  0  0  0  0  0  0  0  0  0
   -6.1981    0.9608    2.5395 H   0  0  0  0  0  0  0  0  0  0  0  0
   -9.3521    0.0389    1.7136 H   0  0  0  0  0  0  0  0  0  0  0  0
  1  2  1  0
  1  3  1  0
  1  4  2  0
  2  5  1  0
  2  6  2  0
  3  7  1  0
  3  8  2  0
  4  9  1  0
  4 37  1  0
  5 10  1  6
  5 11  2  0
  5 12  2  0
  6 13  1  0
  6 38  1  0
  7 13  2  0
  7 39  1  0
  8 14  1  0
  8 40  1  0
  9 14  2  0
  9 41  1  0
 10 15  1  0
 10 42  1  0
 13 43  1  0
 14 44  1  0
 15 16  2  0
 15 17  1  0
 16 18  1  0
 16 19  1  0
 17 20  2  0
 17 45  1  0
 18 21  2  0
 18 22  1  0
 19 46  1  0
 20 21  1  0
 20 47  1  0
 21 23  1  0
 22 24  1  0
 22 48  1  0
 22 49  1  0
 23 50  1  0
 23 51  1  0
 23 52  1  0
 24 25  1  0
 24 26  2  0
 25 27  1  0
 25 53  1  0
 27 28  1  0
 27 54  1  0
 27 55  1  0
 28 29  2  0
 28 30  1  0
 29 31  1  0
 29 56  1  0
 30 32  2  0
 30 57  1  0
 31 33  2  0
 31 58  1  0
 32 33  1  0
 32 59  1  0
 33 34  1  0
 34 35  1  0
 34 36  2  0
 35 60  1  0
 35 61  1  0
 36 62  1  0
M  END
