
     RDKit          3D

 41 43  0  0  0  0  0  0  0  0999 V2000
   -3.3986    1.8354    0.1490 N   0  0  0  0  0  0  0  0  0  0  0  0
   -2.1840    1.9535   -0.2326 C   0  0  0  0  0  0  0  0  0  0  0  0
   -3.6991   -1.8476   -0.0033 C   0  0  0  0  0  0  0  0  0  0  0  0
   -5.0096   -2.0020    0.3919 C   0  0  0  0  0  0  0  0  0  0  0  0
   -5.7813   -0.8778    0.7068 C   0  0  0  0  0  0  0  0  0  0  0  0
   -5.2440    0.3884    0.6255 C   0  0  0  0  0  0  0  0  0  0  0  0
   -3.1428   -0.5677   -0.0921 C   0  0  0  0  0  0  0  0  0  0  0  0
    3.2430    0.2652    0.3874 C   0  0  2  0  0  0  0  0  0  0  0  0
    0.9320    1.1848    0.2818 C   0  0  0  0  0  0  0  0  0  0  0  0
    2.3856    1.4664   -0.0020 C   0  0  0  0  0  0  0  0  0  0  0  0
    4.7328    0.5035    0.1339 C   0  0  2  0  0  0  0  0  0  0  0  0
   -1.7542   -0.3959   -0.5031 C   0  0  0  0  0  0  0  0  0  0  0  0
    5.5256   -0.7513    0.4883 C   0  0  0  0  0  0  0  0  0  0  0  0
    4.9862   -1.9688   -0.2558 C   0  0  0  0  0  0  0  0  0  0  0  0
    3.4878   -2.1124   -0.0094 C   0  0  0  0  0  0  0  0  0  0  0  0
   -3.9133    0.5607    0.2234 C   0  0  0  0  0  0  0  0  0  0  0  0
    2.7399   -0.9040   -0.3138 N   0  0  0  0  0  0  0  0  0  0  0  0
   -1.3549    0.9296   -0.5829 N   0  0  0  0  0  0  0  0  0  0  0  0
   -0.9881   -1.3006   -0.7717 O   0  0  0  0  0  0  0  0  0  0  0  0
    0.5074    0.9700    1.3900 O   0  0  0  0  0  0  0  0  0  0  0  0
    5.1343    1.6210    0.8958 O   0  0  0  0  0  0  0  0  0  0  0  0
   -1.7458    2.9427   -0.3076 H   0  0  0  0  0  0  0  0  0  0  0  0
   -3.0963   -2.7122   -0.2475 H   0  0  0  0  0  0  0  0  0  0  0  0
   -5.4424   -2.9907    0.4610 H   0  0  0  0  0  0  0  0  0  0  0  0
   -6.8105   -1.0049    1.0160 H   0  0  0  0  0  0  0  0  0  0  0  0
   -5.8340    1.2631    0.8664 H   0  0  0  0  0  0  0  0  0  0  0  0
    0.0735    2.2168   -1.3755 H   0  0  0  0  0  0  0  0  0  0  0  0
    0.3835    0.5227   -1.6727 H   0  0  0  0  0  0  0  0  0  0  0  0
    3.1110    0.0825    1.4618 H   0  0  0  0  0  0  0  0  0  0  0  0
    2.6848    2.3505    0.5642 H   0  0  0  0  0  0  0  0  0  0  0  0
    2.5298    1.7000   -1.0616 H   0  0  0  0  0  0  0  0  0  0  0  0
    4.8596    0.7015   -0.9437 H   0  0  0  0  0  0  0  0  0  0  0  0
    6.5843   -0.5997    0.2571 H   0  0  0  0  0  0  0  0  0  0  0  0
    5.4566   -0.9184    1.5691 H   0  0  0  0  0  0  0  0  0  0  0  0
    5.1661   -1.8574   -1.3303 H   0  0  0  0  0  0  0  0  0  0  0  0
    5.5134   -2.8724    0.0596 H   0  0  0  0  0  0  0  0  0  0  0  0
    3.0744   -2.9323   -0.5996 H   0  0  0  0  0  0  0  0  0  0  0  0
    3.3146   -2.3644    1.0422 H   0  0  0  0  0  0  0  0  0  0  0  0
    2.7724   -0.7381   -1.3145 H   0  0  0  0  0  0  0  0  0  0  0  0
    6.0724    1.7714    0.7424 H   0  0  0  0  0  0  0  0  0  0  0  0
    0.0168    1.2238   -0.9222 C   0  0  0  0  0  0  0  0  0  0  0  0
 13 14  1  0
 13 11  1  0
 14 15  1  0
 21 11  1  0
 11  8  1  0
 15 17  1  0
  8 17  1  0
  8 10  1  0
 10  9  1  0
  9 20  2  0
  9 41  1  0
 41 18  1  0
 18  2  1  0
 18 12  1  0
 19 12  2  0
  2  1  2  0
 12  7  1  0
  1 16  1  0
  7 16  2  0
  7  3  1  0
 16  6  1  0
  3  4  2  0
  6  5  2  0
  4  5  1  0
  2 22  1  0
  3 23  1  0
  4 24  1  0
  5 25  1  0
  6 26  1  0
 41 27  1  0
 41 28  1  0
  8 29  1  1
 10 30  1  0
 10 31  1  0
 11 32  1  6
 13 33  1  0
 13 34  1  0
 14 35  1  0
 14 36  1  0
 15 37  1  0
 15 38  1  0
 17 39  1  0
 21 40  1  0
M  END
