
     RDKit          3D

 63 65  0  0  0  0  0  0  0  0999 V2000
    4.4100   -3.2904   -2.3354 C   0  0  0  0  0  0  0  0  0  0  0  0
    3.4059   -2.7183   -1.5659 C   0  0  0  0  0  0  0  0  0  0  0  0
    3.7038   -1.7427   -0.6191 C   0  0  0  0  0  0  0  0  0  0  0  0
    5.0276   -1.3430   -0.4575 C   0  0  0  0  0  0  0  0  0  0  0  0
    6.0332   -1.9102   -1.2293 C   0  0  0  0  0  0  0  0  0  0  0  0
    5.7281   -2.8857   -2.1696 C   0  0  0  0  0  0  0  0  0  0  0  0
    2.6030   -1.1664    0.2415 C   0  0  1  0  0  0  0  0  0  0  0  0
    2.4405   -1.9692    1.5253 C   0  0  0  0  0  0  0  0  0  0  0  0
    1.3067   -1.4989    2.3019 N   0  0  0  0  0  0  0  0  0  0  0  0
    2.8667    0.1820    0.5734 O   0  0  0  0  0  0  0  0  0  0  0  0
    2.4294    1.1066   -0.3721 C   0  0  1  0  0  0  0  0  0  0  0  0
    1.0356    1.2038   -0.4021 O   0  0  0  0  0  0  0  0  0  0  0  0
    0.4367    1.6465    0.8064 C   0  0  1  0  0  0  0  0  0  0  0  0
    0.9459    3.0430    1.1620 C   0  0  2  0  0  0  0  0  0  0  0  0
    3.0700    2.4592   -0.0454 C   0  0  2  0  0  0  0  0  0  0  0  0
    2.4690    3.0010    1.2483 C   0  0  1  0  0  0  0  0  0  0  0  0
   -1.0603    1.6113    0.6014 C   0  0  0  0  0  0  0  0  0  0  0  0
   -1.4744    0.2549    0.6134 O   0  0  0  0  0  0  0  0  0  0  0  0
   -2.8268    0.0534    0.4440 C   0  0  1  0  0  0  0  0  0  0  0  0
   -3.1013    0.0130   -0.9319 O   0  0  0  0  0  0  0  0  0  0  0  0
   -4.4759   -0.1308   -1.2231 C   0  0  2  0  0  0  0  0  0  0  0  0
   -4.9826   -1.4616   -0.6615 C   0  0  1  0  0  0  0  0  0  0  0  0
   -4.6787   -1.5428    0.8303 C   0  0  2  0  0  0  0  0  0  0  0  0
   -3.2036   -1.2765    1.0897 C   0  0  2  0  0  0  0  0  0  0  0  0
    2.8080    3.3800   -1.0740 O   0  0  0  0  0  0  0  0  0  0  0  0
    2.9169    4.3017    1.5487 O   0  0  0  0  0  0  0  0  0  0  0  0
    0.3808    3.4050    2.3995 O   0  0  0  0  0  0  0  0  0  0  0  0
   -3.0090   -1.2458    2.4817 O   0  0  0  0  0  0  0  0  0  0  0  0
   -5.0783   -2.8179    1.2731 O   0  0  0  0  0  0  0  0  0  0  0  0
   -6.3651   -1.5420   -0.9030 O   0  0  0  0  0  0  0  0  0  0  0  0
   -4.6425   -0.0589   -2.7260 C   0  0  0  0  0  0  0  0  0  0  0  0
   -4.2420    1.2155   -3.1685 O   0  0  0  0  0  0  0  0  0  0  0  0
    4.1625   -4.0459   -3.0701 H   0  0  0  0  0  0  0  0  0  0  0  0
    2.3775   -3.0316   -1.7070 H   0  0  0  0  0  0  0  0  0  0  0  0
    5.2781   -0.5798    0.2684 H   0  0  0  0  0  0  0  0  0  0  0  0
    7.0577   -1.5866   -1.0972 H   0  0  0  0  0  0  0  0  0  0  0  0
    6.5115   -3.3235   -2.7747 H   0  0  0  0  0  0  0  0  0  0  0  0
    1.6568   -1.2400   -0.3121 H   0  0  0  0  0  0  0  0  0  0  0  0
    2.3713   -3.0261    1.2341 H   0  0  0  0  0  0  0  0  0  0  0  0
    3.3493   -1.8738    2.1272 H   0  0  0  0  0  0  0  0  0  0  0  0
    0.4612   -1.5999    1.7535 H   0  0  0  0  0  0  0  0  0  0  0  0
    1.1871   -2.0947    3.1113 H   0  0  0  0  0  0  0  0  0  0  0  0
    2.7164    0.7957   -1.3872 H   0  0  0  0  0  0  0  0  0  0  0  0
    0.6884    0.9649    1.6304 H   0  0  0  0  0  0  0  0  0  0  0  0
    0.6463    3.7479    0.3722 H   0  0  0  0  0  0  0  0  0  0  0  0
    4.1505    2.3083    0.0890 H   0  0  0  0  0  0  0  0  0  0  0  0
    2.7329    2.3042    2.0553 H   0  0  0  0  0  0  0  0  0  0  0  0
   -1.5580    2.1589    1.4079 H   0  0  0  0  0  0  0  0  0  0  0  0
   -1.3218    2.0974   -0.3453 H   0  0  0  0  0  0  0  0  0  0  0  0
   -3.4104    0.8648    0.9186 H   0  0  0  0  0  0  0  0  0  0  0  0
   -5.0499    0.6874   -0.7565 H   0  0  0  0  0  0  0  0  0  0  0  0
   -4.4442   -2.2773   -1.1708 H   0  0  0  0  0  0  0  0  0  0  0  0
   -5.2624   -0.7547    1.3331 H   0  0  0  0  0  0  0  0  0  0  0  0
   -2.6062   -2.0721    0.6170 H   0  0  0  0  0  0  0  0  0  0  0  0
    3.3037    3.1159   -1.8553 H   0  0  0  0  0  0  0  0  0  0  0  0
    3.7859    4.2426    1.9566 H   0  0  0  0  0  0  0  0  0  0  0  0
    0.7506    4.2575    2.6519 H   0  0  0  0  0  0  0  0  0  0  0  0
   -2.0694   -1.1315    2.6556 H   0  0  0  0  0  0  0  0  0  0  0  0
   -5.0818   -2.8234    2.2353 H   0  0  0  0  0  0  0  0  0  0  0  0
   -6.6912   -2.3570   -0.5067 H   0  0  0  0  0  0  0  0  0  0  0  0
   -4.0444   -0.8587   -3.1849 H   0  0  0  0  0  0  0  0  0  0  0  0
   -5.6909   -0.2615   -2.9681 H   0  0  0  0  0  0  0  0  0  0  0  0
   -4.4027    1.2640   -4.1150 H   0  0  0  0  0  0  0  0  0  0  0  0
  1  2  2  0
  1  6  1  0
  2  3  1  0
  3  4  2  0
  3  7  1  0
  4  5  1  0
  5  6  2  0
  7  8  1  0
  7 10  1  0
  8  9  1  0
 10 11  1  0
 11 12  1  0
 11 15  1  0
 12 13  1  0
 13 14  1  0
 13 17  1  0
 14 16  1  0
 14 27  1  0
 15 16  1  0
 15 25  1  0
 16 26  1  0
 17 18  1  0
 18 19  1  0
 19 20  1  0
 19 24  1  0
 20 21  1  0
 21 22  1  0
 21 31  1  0
 22 23  1  0
 22 30  1  0
 23 24  1  0
 23 29  1  0
 24 28  1  0
 31 32  1  0
  1 33  1  0
  2 34  1  0
  4 35  1  0
  5 36  1  0
  6 37  1  0
  7 38  1  6
  8 39  1  0
  8 40  1  0
  9 41  1  0
  9 42  1  0
 11 43  1  6
 13 44  1  1
 14 45  1  6
 15 46  1  1
 16 47  1  1
 17 48  1  0
 17 49  1  0
 19 50  1  1
 21 51  1  1
 22 52  1  6
 23 53  1  1
 24 54  1  6
 25 55  1  0
 26 56  1  0
 27 57  1  0
 28 58  1  0
 29 59  1  0
 30 60  1  0
 31 61  1  0
 31 62  1  0
 32 63  1  0
M  END
