
     RDKit          3D

 29 30  0  0  0  0  0  0  0  0999 V2000
    2.8823    1.2792   -0.5760 C   0  0  0  0  0  0  0  0  0  0  0  0
    4.9483    1.1291   -0.2246 N   0  0  0  0  0  0  0  0  0  0  0  0
    4.4585    0.0093    0.3034 C   0  0  0  0  0  0  0  0  0  0  0  0
   -1.8057   -1.3160   -1.3582 C   0  0  0  0  0  0  0  0  0  0  0  0
   -3.7781    0.0558   -1.0993 C   0  0  0  0  0  0  0  0  0  0  0  0
   -5.3137    1.7072    0.5777 C   0  0  0  0  0  0  0  0  0  0  0  0
   -3.3967    0.3599    0.2053 C   0  0  0  0  0  0  0  0  0  0  0  0
   -2.2153   -0.1785    0.7200 C   0  0  0  0  0  0  0  0  0  0  0  0
   -1.4234   -1.0126   -0.0524 C   0  0  0  0  0  0  0  0  0  0  0  0
   -0.1486   -1.5636    0.5098 C   0  0  0  0  0  0  0  0  0  0  0  0
    0.8969   -0.6456    0.1544 O   0  0  0  0  0  0  0  0  0  0  0  0
    3.0922    0.0570    0.0979 C   0  0  0  0  0  0  0  0  0  0  0  0
    4.0163    1.9166   -0.7632 N   0  0  0  0  0  0  0  0  0  0  0  0
    2.4299   -1.9681    1.1132 O   0  0  0  0  0  0  0  0  0  0  0  0
   -2.9757   -0.7806   -1.8679 C   0  0  0  0  0  0  0  0  0  0  0  0
    1.9516    1.7037   -0.9193 H   0  0  0  0  0  0  0  0  0  0  0  0
    5.9159    1.4119   -0.2479 H   0  0  0  0  0  0  0  0  0  0  0  0
    5.0856   -0.7289    0.7754 H   0  0  0  0  0  0  0  0  0  0  0  0
   -1.1955   -1.9719   -1.9663 H   0  0  0  0  0  0  0  0  0  0  0  0
   -4.6887    0.4504   -1.5293 H   0  0  0  0  0  0  0  0  0  0  0  0
   -5.7121    2.3001    1.3973 H   0  0  0  0  0  0  0  0  0  0  0  0
   -5.1667    2.3591   -0.2874 H   0  0  0  0  0  0  0  0  0  0  0  0
   -6.0415    0.9342    0.3168 H   0  0  0  0  0  0  0  0  0  0  0  0
   -1.9277    0.0586    1.7382 H   0  0  0  0  0  0  0  0  0  0  0  0
   -0.2058   -1.6562    1.5961 H   0  0  0  0  0  0  0  0  0  0  0  0
    0.0665   -2.5499    0.0944 H   0  0  0  0  0  0  0  0  0  0  0  0
   -3.2798   -1.0149   -2.8798 H   0  0  0  0  0  0  0  0  0  0  0  0
    2.1361   -0.9598    0.5135 C   0  0  0  0  0  0  0  0  0  0  0  0
   -4.0973    1.1531    1.0372 O   0  0  0  0  0  0  0  0  0  0  0  0
 14 28  2  0
 28 12  1  0
 28 11  1  0
  1 12  1  0
  1 13  2  0
 12  3  2  0
 13  2  1  0
  3  2  1  0
 11 10  1  0
 10  9  1  0
  9  4  2  0
  9  8  1  0
  4 15  1  0
  8  7  2  0
 15  5  2  0
  7  5  1  0
  7 29  1  0
  6 29  1  0
  1 16  1  0
  2 17  1  0
  3 18  1  0
  4 19  1  0
  5 20  1  0
  6 21  1  0
  6 22  1  0
  6 23  1  0
  8 24  1  0
 10 25  1  0
 10 26  1  0
 15 27  1  0
M  END
