
     RDKit          3D

 44 43  0  0  0  0  0  0  0  0999 V2000
  -11.9991    6.6837   -7.1244 C   0  0  0  0  0  0  0  0  0  0  0  0
  -13.1739    6.4292   -7.2231 O   0  0  0  0  0  0  0  0  0  0  0  0
  -11.0798    6.1312   -6.0804 C   0  0  0  0  0  0  0  0  0  0  0  0
   -9.8055    5.5833   -6.7239 C   0  0  2  0  0  0  0  0  0  0  0  0
  -10.1293    4.6476   -7.7339 O   0  0  0  0  0  0  0  0  0  0  0  0
   -8.8482    5.0210   -5.6809 C   0  0  0  0  0  0  0  0  0  0  0  0
   -7.5249    4.5390   -6.2603 C   0  0  0  0  0  0  0  0  0  0  0  0
   -6.5605    4.0341   -5.1936 C   0  0  0  0  0  0  0  0  0  0  0  0
   -5.2608    3.4950   -5.7766 C   0  0  0  0  0  0  0  0  0  0  0  0
   -4.2566    3.0465   -4.7214 C   0  0  0  0  0  0  0  0  0  0  0  0
   -3.0078    2.4149   -5.3237 C   0  0  0  0  0  0  0  0  0  0  0  0
   -1.9407    2.0622   -4.2947 C   0  0  0  0  0  0  0  0  0  0  0  0
   -0.7279    1.3739   -4.9096 C   0  0  0  0  0  0  0  0  0  0  0  0
    0.3935    1.1103   -3.9133 C   0  0  0  0  0  0  0  0  0  0  0  0
    1.5913    0.3990   -4.5318 C   0  0  0  0  0  0  0  0  0  0  0  0
    2.7270    0.1800   -3.5422 C   0  0  0  0  0  0  0  0  0  0  0  0
  -11.5167    7.3879   -7.8284 H   0  0  0  0  0  0  0  0  0  0  0  0
  -10.8157    6.9547   -5.4073 H   0  0  0  0  0  0  0  0  0  0  0  0
  -11.5929    5.3682   -5.4884 H   0  0  0  0  0  0  0  0  0  0  0  0
   -9.3045    6.4054   -7.2472 H   0  0  0  0  0  0  0  0  0  0  0  0
  -10.5115    3.8688   -7.3138 H   0  0  0  0  0  0  0  0  0  0  0  0
   -9.3401    4.2012   -5.1433 H   0  0  0  0  0  0  0  0  0  0  0  0
   -8.6601    5.7991   -4.9348 H   0  0  0  0  0  0  0  0  0  0  0  0
   -7.0522    5.3582   -6.8134 H   0  0  0  0  0  0  0  0  0  0  0  0
   -7.7065    3.7445   -6.9896 H   0  0  0  0  0  0  0  0  0  0  0  0
   -6.3406    4.8438   -4.4892 H   0  0  0  0  0  0  0  0  0  0  0  0
   -7.0464    3.2469   -4.6065 H   0  0  0  0  0  0  0  0  0  0  0  0
   -5.4881    2.6560   -6.4436 H   0  0  0  0  0  0  0  0  0  0  0  0
   -4.7971    4.2626   -6.4060 H   0  0  0  0  0  0  0  0  0  0  0  0
   -3.9722    3.9069   -4.1054 H   0  0  0  0  0  0  0  0  0  0  0  0
   -4.7333    2.3312   -4.0420 H   0  0  0  0  0  0  0  0  0  0  0  0
   -2.5759    3.0970   -6.0644 H   0  0  0  0  0  0  0  0  0  0  0  0
   -3.2942    1.5129   -5.8758 H   0  0  0  0  0  0  0  0  0  0  0  0
   -2.3727    1.4170   -3.5218 H   0  0  0  0  0  0  0  0  0  0  0  0
   -1.6190    2.9757   -3.7819 H   0  0  0  0  0  0  0  0  0  0  0  0
   -1.0424    0.4278   -5.3641 H   0  0  0  0  0  0  0  0  0  0  0  0
   -0.3418    1.9887   -5.7305 H   0  0  0  0  0  0  0  0  0  0  0  0
    0.0108    0.5137   -3.0775 H   0  0  0  0  0  0  0  0  0  0  0  0
    0.7225    2.0613   -3.4794 H   0  0  0  0  0  0  0  0  0  0  0  0
    1.2683   -0.5638   -4.9394 H   0  0  0  0  0  0  0  0  0  0  0  0
    1.9545    0.9809   -5.3847 H   0  0  0  0  0  0  0  0  0  0  0  0
    2.3970   -0.4142   -2.6876 H   0  0  0  0  0  0  0  0  0  0  0  0
    3.5659   -0.3440   -4.0016 H   0  0  0  0  0  0  0  0  0  0  0  0
    3.1018    1.1296   -3.1556 H   0  0  0  0  0  0  0  0  0  0  0  0
  1  3  1  0
  1  2  2  0
  1 17  1  0
  3  4  1  0
  3 18  1  0
  3 19  1  0
  4  5  1  0
  4  6  1  0
  4 20  1  6
  5 21  1  0
  6  7  1  0
  6 22  1  0
  6 23  1  0
  7  8  1  0
  7 24  1  0
  7 25  1  0
  8  9  1  0
  8 26  1  0
  8 27  1  0
  9 10  1  0
  9 28  1  0
  9 29  1  0
 10 11  1  0
 10 30  1  0
 10 31  1  0
 11 12  1  0
 11 32  1  0
 11 33  1  0
 12 13  1  0
 12 34  1  0
 12 35  1  0
 13 14  1  0
 13 36  1  0
 13 37  1  0
 14 15  1  0
 14 38  1  0
 14 39  1  0
 15 16  1  0
 15 40  1  0
 15 41  1  0
 16 42  1  0
 16 43  1  0
 16 44  1  0
M  END
