
     RDKit          3D

 45 47  0  0  0  0  0  0  0  0999 V2000
   -6.1473    3.0809    0.8479 O   0  0  0  0  0  0  0  0  0  0  0  0
   -5.2705    2.2602    0.7159 N   0  0  0  0  0  0  0  0  0  0  0  0
   -4.1159    2.4548    1.0408 O   0  0  0  0  0  0  0  0  0  0  0  0
   -5.5920    0.9816    0.1457 C   0  0  0  0  0  0  0  0  0  0  0  0
   -6.8963    0.7047   -0.2273 C   0  0  0  0  0  0  0  0  0  0  0  0
   -4.6023    0.0049   -0.0433 C   0  0  0  0  0  0  0  0  0  0  0  0
   -3.2737   -0.0190    0.2078 N   0  0  0  0  0  0  0  0  0  0  0  0
   -2.7654   -1.2501   -0.1436 C   0  0  0  0  0  0  0  0  0  0  0  0
   -3.7671   -2.0303   -0.6415 C   0  0  0  0  0  0  0  0  0  0  0  0
   -4.9557   -1.2502   -0.5979 C   0  0  0  0  0  0  0  0  0  0  0  0
   -6.2747   -1.5074   -0.9707 C   0  0  0  0  0  0  0  0  0  0  0  0
   -7.2329   -0.5291   -0.7828 C   0  0  0  0  0  0  0  0  0  0  0  0
   -1.3480   -1.6416   -0.0082 C   0  0  0  0  0  0  0  0  0  0  0  0
   -1.0386   -2.8188    0.0208 O   0  0  0  0  0  0  0  0  0  0  0  0
   -0.4670   -0.6114    0.0616 N   0  0  0  0  0  0  0  0  0  0  0  0
    0.9231   -0.6852    0.2050 C   0  0  0  0  0  0  0  0  0  0  0  0
    1.6665    0.4308   -0.1907 C   0  0  0  0  0  0  0  0  0  0  0  0
    3.0385    0.4519   -0.0590 C   0  0  0  0  0  0  0  0  0  0  0  0
    3.7311   -0.6389    0.4780 C   0  0  0  0  0  0  0  0  0  0  0  0
    2.9770   -1.7416    0.8741 C   0  0  0  0  0  0  0  0  0  0  0  0
    1.5954   -1.7774    0.7448 C   0  0  0  0  0  0  0  0  0  0  0  0
    5.2030   -0.6245    0.6036 C   0  0  0  0  0  0  0  0  0  0  0  0
    5.8686   -1.7040    1.4086 C   0  0  0  0  0  0  0  0  0  0  0  0
    5.8074    0.3152   -0.0174 N   0  0  0  0  0  0  0  0  0  0  0  0
    7.1354    0.4031    0.0031 N   0  0  0  0  0  0  0  0  0  0  0  0
    7.7754    1.4487   -0.6313 C   0  0  0  0  0  0  0  0  0  0  0  0
    9.1387    1.3931   -0.4612 N   0  0  0  0  0  0  0  0  0  0  0  0
    7.1155    2.3559   -1.2389 N   0  0  0  0  0  0  0  0  0  0  0  0
   -7.6654    1.4505   -0.0886 H   0  0  0  0  0  0  0  0  0  0  0  0
   -8.2598   -0.7146   -1.0637 H   0  0  0  0  0  0  0  0  0  0  0  0
   -2.7824    0.7109    0.6976 H   0  0  0  0  0  0  0  0  0  0  0  0
   -3.6659   -3.0358   -1.0163 H   0  0  0  0  0  0  0  0  0  0  0  0
   -6.5440   -2.4642   -1.3987 H   0  0  0  0  0  0  0  0  0  0  0  0
   -0.8112    0.3069   -0.1764 H   0  0  0  0  0  0  0  0  0  0  0  0
    1.1601    1.2936   -0.6072 H   0  0  0  0  0  0  0  0  0  0  0  0
    1.0652   -2.6552    1.0758 H   0  0  0  0  0  0  0  0  0  0  0  0
    3.5850    1.3286   -0.3789 H   0  0  0  0  0  0  0  0  0  0  0  0
    3.4590   -2.6150    1.2920 H   0  0  0  0  0  0  0  0  0  0  0  0
    6.0023   -2.6118    0.8163 H   0  0  0  0  0  0  0  0  0  0  0  0
    6.8483   -1.4164    1.7889 H   0  0  0  0  0  0  0  0  0  0  0  0
    5.2725   -1.9692    2.2798 H   0  0  0  0  0  0  0  0  0  0  0  0
    9.5551    0.4870   -0.3099 H   0  0  0  0  0  0  0  0  0  0  0  0
    9.6742    1.9504   -1.1067 H   0  0  0  0  0  0  0  0  0  0  0  0
    7.7501    3.0275   -1.6550 H   0  0  0  0  0  0  0  0  0  0  0  0
    7.6926   -0.2700    0.5099 H   0  0  0  0  0  0  0  0  0  0  0  0
  1  2  1  0
  2  3  2  0
  2  4  1  0
  4  5  2  0
  4  6  1  0
  5 12  1  0
  6  7  1  0
  6 10  2  0
  7  8  1  0
  8  9  2  0
  8 13  1  0
  9 10  1  0
 10 11  1  0
 11 12  2  0
 13 14  2  0
 13 15  1  0
 15 16  1  0
 16 17  2  0
 16 21  1  0
 17 18  1  0
 18 19  2  0
 19 20  1  0
 19 22  1  0
 20 21  2  0
 22 23  1  0
 22 24  2  0
 24 25  1  0
 25 26  1  0
 26 27  1  0
 26 28  2  0
  5 29  1  0
 12 30  1  0
  7 31  1  0
  9 32  1  0
 11 33  1  0
 15 34  1  0
 17 35  1  0
 21 36  1  0
 18 37  1  0
 20 38  1  0
 23 39  1  0
 23 40  1  0
 23 41  1  0
 27 42  1  0
 27 43  1  0
 28 44  1  0
 25 45  1  0
M  CHG  2   1  -1   2   1
M  END
