
     RDKit          3D

 69 72  0  0  0  0  0  0  0  0999 V2000
    3.6093    1.7151   -0.8125 C   0  0  0  0  0  0  0  0  0  0  0  0
    2.8563    0.4045   -1.1050 C   0  0  1  0  0  0  0  0  0  0  0  0
    0.5458    1.5072   -0.9039 C   0  0  0  0  0  0  0  0  0  0  0  0
   -0.8580    1.5011   -0.2885 C   0  0  1  0  0  0  0  0  0  0  0  0
   -1.5487    0.1526   -0.5302 C   0  0  1  0  0  0  0  0  0  0  0  0
   -0.6233   -0.9605    0.0016 C   0  0  1  0  0  0  0  0  0  0  0  0
   -1.4849   -2.2120   -0.0882 C   0  0  0  0  0  0  0  0  0  0  0  0
   -2.9026   -1.7057    0.2418 C   0  0  0  0  0  0  0  0  0  0  0  0
   -2.8441   -0.1541    0.2692 C   0  0  2  0  0  0  0  0  0  0  0  0
   -1.8363    0.0122   -2.0307 C   0  0  0  0  0  0  0  0  0  0  0  0
    2.7501    0.3082   -2.6344 C   0  0  0  0  0  0  0  0  0  0  0  0
    4.0344    1.8985    0.6373 C   0  0  0  0  0  0  0  0  0  0  0  0
    4.9204    0.7368    1.0611 C   0  0  2  0  0  0  0  0  0  0  0  0
    4.1704   -0.5691    0.8795 C   0  0  0  0  0  0  0  0  0  0  0  0
    3.7090   -0.7708   -0.5695 C   0  0  1  0  0  0  0  0  0  0  0  0
    3.0012   -2.1106   -0.7716 C   0  0  0  0  0  0  0  0  0  0  0  0
    1.5917   -2.1790   -0.1887 C   0  0  2  0  0  0  0  0  0  0  0  0
    0.7526   -0.9900   -0.6509 C   0  0  2  0  0  0  0  0  0  0  0  0
    1.4559    0.3658   -0.4391 C   0  0  1  0  0  0  0  0  0  0  0  0
   -4.1664    0.4841   -0.1866 C   0  0  2  0  0  0  0  0  0  0  0  0
   -4.1225    2.0101   -0.1742 C   0  0  0  0  0  0  0  0  0  0  0  0
   -5.3238   -0.0241    0.6848 C   0  0  0  0  0  0  0  0  0  0  0  0
   -6.7145    0.4245    0.2440 C   0  0  0  0  0  0  0  0  0  0  0  0
   -7.8185   -0.2779    1.0236 C   0  0  0  0  0  0  0  0  0  0  0  0
    5.3269    0.8247    2.4141 O   0  0  0  0  0  0  0  0  0  0  0  0
    1.5820   -2.2273    1.2268 O   0  0  0  0  0  0  0  0  0  0  0  0
   -0.8120    1.7559    1.1021 O   0  0  0  0  0  0  0  0  0  0  0  0
    4.5120    1.7185   -1.4353 H   0  0  0  0  0  0  0  0  0  0  0  0
    3.0227    2.5728   -1.1486 H   0  0  0  0  0  0  0  0  0  0  0  0
    0.4426    1.4902   -1.9916 H   0  0  0  0  0  0  0  0  0  0  0  0
    1.0005    2.4760   -0.6728 H   0  0  0  0  0  0  0  0  0  0  0  0
   -1.4239    2.2971   -0.7908 H   0  0  0  0  0  0  0  0  0  0  0  0
   -0.4749   -0.7461    1.0663 H   0  0  0  0  0  0  0  0  0  0  0  0
   -1.4464   -2.6360   -1.0957 H   0  0  0  0  0  0  0  0  0  0  0  0
   -1.1526   -2.9965    0.5932 H   0  0  0  0  0  0  0  0  0  0  0  0
   -3.6204   -2.0494   -0.5076 H   0  0  0  0  0  0  0  0  0  0  0  0
   -3.2503   -2.1001    1.1975 H   0  0  0  0  0  0  0  0  0  0  0  0
   -2.6746    0.1613    1.3047 H   0  0  0  0  0  0  0  0  0  0  0  0
   -0.9334   -0.0480   -2.6374 H   0  0  0  0  0  0  0  0  0  0  0  0
   -2.4312   -0.8743   -2.2547 H   0  0  0  0  0  0  0  0  0  0  0  0
   -2.4006    0.8727   -2.3968 H   0  0  0  0  0  0  0  0  0  0  0  0
    3.7330    0.1067   -3.0665 H   0  0  0  0  0  0  0  0  0  0  0  0
    2.0788   -0.4764   -2.9812 H   0  0  0  0  0  0  0  0  0  0  0  0
    2.3998    1.2461   -3.0695 H   0  0  0  0  0  0  0  0  0  0  0  0
    4.5734    2.8460    0.7409 H   0  0  0  0  0  0  0  0  0  0  0  0
    3.1661    1.9539    1.3020 H   0  0  0  0  0  0  0  0  0  0  0  0
    5.8028    0.7283    0.3997 H   0  0  0  0  0  0  0  0  0  0  0  0
    4.8178   -1.4073    1.1574 H   0  0  0  0  0  0  0  0  0  0  0  0
    3.3232   -0.5849    1.5666 H   0  0  0  0  0  0  0  0  0  0  0  0
    4.6209   -0.7939   -1.1817 H   0  0  0  0  0  0  0  0  0  0  0  0
    2.9274   -2.3217   -1.8426 H   0  0  0  0  0  0  0  0  0  0  0  0
    3.6117   -2.9227   -0.3593 H   0  0  0  0  0  0  0  0  0  0  0  0
    1.1189   -3.0909   -0.5836 H   0  0  0  0  0  0  0  0  0  0  0  0
    0.6151   -1.1461   -1.7275 H   0  0  0  0  0  0  0  0  0  0  0  0
    1.5990    0.4922    0.6402 H   0  0  0  0  0  0  0  0  0  0  0  0
   -4.3660    0.1525   -1.2145 H   0  0  0  0  0  0  0  0  0  0  0  0
   -3.8483    2.3863    0.8144 H   0  0  0  0  0  0  0  0  0  0  0  0
   -3.4035    2.4077   -0.8876 H   0  0  0  0  0  0  0  0  0  0  0  0
   -5.0889    2.4426   -0.4354 H   0  0  0  0  0  0  0  0  0  0  0  0
   -5.3183   -1.1174    0.6900 H   0  0  0  0  0  0  0  0  0  0  0  0
   -5.1538    0.2823    1.7245 H   0  0  0  0  0  0  0  0  0  0  0  0
   -6.8284    1.5045    0.3628 H   0  0  0  0  0  0  0  0  0  0  0  0
   -6.8352    0.2209   -0.8250 H   0  0  0  0  0  0  0  0  0  0  0  0
   -7.7328   -0.0799    2.0939 H   0  0  0  0  0  0  0  0  0  0  0  0
   -8.8081    0.0526    0.7061 H   0  0  0  0  0  0  0  0  0  0  0  0
   -7.7705   -1.3601    0.8870 H   0  0  0  0  0  0  0  0  0  0  0  0
    5.8126    1.6478    2.5255 H   0  0  0  0  0  0  0  0  0  0  0  0
    2.1891   -2.9197    1.5050 H   0  0  0  0  0  0  0  0  0  0  0  0
   -0.2714    2.5394    1.2405 H   0  0  0  0  0  0  0  0  0  0  0  0
 24 23  1  0
 23 22  1  0
 22 20  1  0
 21 20  1  0
 20  9  1  0
 27  4  1  0
  9  8  1  0
  9  5  1  0
  8  7  1  0
  4  5  1  0
  4  3  1  0
  5  6  1  0
  5 10  1  6
 25 13  1  0
  6  7  1  0
  6 18  1  0
  3 19  1  0
 26 17  1  0
 12 13  1  0
 12  1  1  0
 19 18  1  0
 19  2  1  0
 13 14  1  0
 18 17  1  0
 14 15  1  0
 17 16  1  0
  1  2  1  0
  2 15  1  0
  2 11  1  6
 15 16  1  0
  1 28  1  0
  1 29  1  0
  3 30  1  0
  3 31  1  0
  4 32  1  6
  6 33  1  1
  7 34  1  0
  7 35  1  0
  8 36  1  0
  8 37  1  0
  9 38  1  1
 10 39  1  0
 10 40  1  0
 10 41  1  0
 11 42  1  0
 11 43  1  0
 11 44  1  0
 12 45  1  0
 12 46  1  0
 13 47  1  6
 14 48  1  0
 14 49  1  0
 15 50  1  6
 16 51  1  0
 16 52  1  0
 17 53  1  6
 18 54  1  6
 19 55  1  1
 20 56  1  6
 21 57  1  0
 21 58  1  0
 21 59  1  0
 22 60  1  0
 22 61  1  0
 23 62  1  0
 23 63  1  0
 24 64  1  0
 24 65  1  0
 24 66  1  0
 25 67  1  0
 26 68  1  0
 27 69  1  0
M  END
