
     RDKit          3D

 18 19  0  0  0  0  0  0  0  0999 V2000
    0.3331    1.8999    0.1059 C   0  0  0  0  0  0  0  0  0  0  0  0
   -0.8321    1.0844    0.0734 C   0  0  0  0  0  0  0  0  0  0  0  0
   -0.7031   -0.3174    0.0082 C   0  0  0  0  0  0  0  0  0  0  0  0
   -1.8974   -1.0700   -0.0204 C   0  0  0  0  0  0  0  0  0  0  0  0
   -3.0879   -0.4045    0.0153 C   0  0  0  0  0  0  0  0  0  0  0  0
    1.5752    1.3154    0.0717 C   0  0  0  0  0  0  0  0  0  0  0  0
    1.6704   -0.0875    0.0059 C   0  0  0  0  0  0  0  0  0  0  0  0
    0.5775   -0.9098   -0.0251 C   0  0  0  0  0  0  0  0  0  0  0  0
   -3.1139    1.0069    0.0810 C   0  0  0  0  0  0  0  0  0  0  0  0
   -2.0217    1.7153    0.1087 N   0  0  0  0  0  0  0  0  0  0  0  0
    3.3964   -0.8466   -0.0377 Br  0  0  0  0  0  0  0  0  0  0  0  0
    0.2042    3.2245    0.1701 O   0  0  0  0  0  0  0  0  0  0  0  0
   -4.5846   -1.2562   -0.0179 Cl  0  0  0  0  0  0  0  0  0  0  0  0
   -1.8561   -2.1503   -0.0690 H   0  0  0  0  0  0  0  0  0  0  0  0
    2.4618    1.9349    0.0971 H   0  0  0  0  0  0  0  0  0  0  0  0
    0.6689   -1.9863   -0.0749 H   0  0  0  0  0  0  0  0  0  0  0  0
   -4.0619    1.5318    0.1100 H   0  0  0  0  0  0  0  0  0  0  0  0
   -0.7434    3.4366    0.1908 H   0  0  0  0  0  0  0  0  0  0  0  0
 11  7  1  0
  7  8  2  0
  7  6  1  0
  8  3  1  0
  6  1  2  0
  3  4  1  0
  3  2  2  0
  1  2  1  0
  1 12  1  0
  4  5  2  0
  2 10  1  0
  5  9  1  0
  5 13  1  0
 10  9  2  0
  4 14  1  0
  6 15  1  0
  8 16  1  0
  9 17  1  0
 12 18  1  0
M  END
