
     RDKit          3D

 25 26  0  0  0  0  0  0  0  0999 V2000
    3.9918   -1.4180    0.1824 C   0  0  0  0  0  0  0  0  0  0  0  0
    2.6946   -1.5930   -0.2179 C   0  0  0  0  0  0  0  0  0  0  0  0
    1.8141   -0.4893   -0.2833 C   0  0  0  0  0  0  0  0  0  0  0  0
    2.2955    0.7950    0.0698 C   0  0  0  0  0  0  0  0  0  0  0  0
    3.6387    0.9477    0.4784 C   0  0  0  0  0  0  0  0  0  0  0  0
    4.4702   -0.1380    0.5336 C   0  0  0  0  0  0  0  0  0  0  0  0
    0.5379   -0.6986   -0.6839 N   0  0  0  0  0  0  0  0  0  0  0  0
   -0.2810    0.3174   -0.7482 C   0  0  0  0  0  0  0  0  0  0  0  0
    0.1056    1.6392   -0.4172 C   0  0  0  0  0  0  0  0  0  0  0  0
    1.3870    1.8726   -0.0130 C   0  0  0  0  0  0  0  0  0  0  0  0
   -1.6932    0.0370   -1.1734 C   0  0  0  0  0  0  0  0  0  0  0  0
   -2.7356   -0.2592    0.2755 P   0  0  1  0  0  0  0  0  0  0  0  0
   -2.2542   -1.3059    1.2045 O   0  0  0  0  0  0  0  0  0  0  0  0
   -2.8415    1.1377    1.0659 O   0  0  0  0  0  0  0  0  0  0  0  0
   -4.1574   -0.5117   -0.4250 O   0  0  0  0  0  0  0  0  0  0  0  0
    4.6607   -2.2671    0.2323 H   0  0  0  0  0  0  0  0  0  0  0  0
    2.3190   -2.5713   -0.4892 H   0  0  0  0  0  0  0  0  0  0  0  0
    3.9989    1.9332    0.7469 H   0  0  0  0  0  0  0  0  0  0  0  0
    5.4989   -0.0195    0.8474 H   0  0  0  0  0  0  0  0  0  0  0  0
   -0.6079    2.4481   -0.4950 H   0  0  0  0  0  0  0  0  0  0  0  0
    1.7151    2.8725    0.2433 H   0  0  0  0  0  0  0  0  0  0  0  0
   -2.1086    0.8629   -1.7544 H   0  0  0  0  0  0  0  0  0  0  0  0
   -1.7232   -0.8602   -1.7935 H   0  0  0  0  0  0  0  0  0  0  0  0
   -3.2658    1.8625    0.5888 H   0  0  0  0  0  0  0  0  0  0  0  0
   -4.8601   -0.7766    0.1851 H   0  0  0  0  0  0  0  0  0  0  0  0
  1  2  2  0
  1  6  1  0
  2  3  1  0
  3  4  2  0
  3  7  1  0
  4  5  1  0
  4 10  1  0
  5  6  2  0
  7  8  2  0
  8  9  1  0
  8 11  1  0
  9 10  2  0
 11 12  1  0
 12 13  2  0
 12 14  1  1
 12 15  1  0
  1 16  1  0
  2 17  1  0
  5 18  1  0
  6 19  1  0
  9 20  1  0
 10 21  1  0
 11 22  1  0
 11 23  1  0
 14 24  1  0
 15 25  1  0
M  END
