
     RDKit          3D

 35 37  0  0  0  0  0  0  0  0999 V2000
    5.7549   -1.4883    0.0035 O   0  0  0  0  0  0  0  0  0  0  0  0
    4.9912   -0.5346   -0.0220 C   0  0  0  0  0  0  0  0  0  0  0  0
    5.4662    0.7768   -0.0811 N   0  0  0  0  0  0  0  0  0  0  0  0
    4.6951    1.9066   -0.1149 C   0  0  0  0  0  0  0  0  0  0  0  0
    5.3515    3.0760   -0.2237 N   0  0  0  0  0  0  0  0  0  0  0  0
    3.3898    1.8873   -0.0867 N   0  0  0  0  0  0  0  0  0  0  0  0
    2.8521    0.6514   -0.0334 C   0  0  0  0  0  0  0  0  0  0  0  0
    3.5764   -0.5254   -0.0010 C   0  0  0  0  0  0  0  0  0  0  0  0
    2.6421   -1.5328    0.0477 N   0  0  0  0  0  0  0  0  0  0  0  0
    1.5192    0.3835   -0.0054 N   0  0  0  0  0  0  0  0  0  0  0  0
    1.4396   -0.9300    0.0409 C   0  0  0  0  0  0  0  0  0  0  0  0
   -0.0177   -1.8801    0.0815 S   0  0  0  0  0  0  0  0  0  0  0  0
   -1.2281   -0.5367    0.0604 C   0  0  0  0  0  0  0  0  0  0  0  0
   -2.5998   -1.1668    0.0410 C   0  0  0  0  0  0  0  0  0  0  0  0
   -2.7108   -2.3747    0.0463 O   0  0  0  0  0  0  0  0  0  0  0  0
   -3.7737   -0.2692    0.0121 C   0  0  0  0  0  0  0  0  0  0  0  0
   -5.0530   -0.8275   -0.0496 C   0  0  0  0  0  0  0  0  0  0  0  0
   -6.1708   -0.0166   -0.0811 C   0  0  0  0  0  0  0  0  0  0  0  0
   -6.0519    1.3744   -0.0477 C   0  0  0  0  0  0  0  0  0  0  0  0
   -7.2694    2.2468   -0.0501 C   0  0  0  0  0  0  0  0  0  0  0  0
   -4.7741    1.9263    0.0118 C   0  0  0  0  0  0  0  0  0  0  0  0
   -3.6488    1.1196    0.0411 C   0  0  0  0  0  0  0  0  0  0  0  0
    6.4728    0.8783   -0.1069 H   0  0  0  0  0  0  0  0  0  0  0  0
    6.3335    3.1326   -0.0133 H   0  0  0  0  0  0  0  0  0  0  0  0
    4.8199    3.9161   -0.0694 H   0  0  0  0  0  0  0  0  0  0  0  0
    2.8257   -2.5242    0.0762 H   0  0  0  0  0  0  0  0  0  0  0  0
   -1.1064    0.0978    0.9399 H   0  0  0  0  0  0  0  0  0  0  0  0
   -1.0810    0.0919   -0.8193 H   0  0  0  0  0  0  0  0  0  0  0  0
   -5.1717   -1.9025   -0.0770 H   0  0  0  0  0  0  0  0  0  0  0  0
   -7.1542   -0.4678   -0.1352 H   0  0  0  0  0  0  0  0  0  0  0  0
   -7.6762    2.3377    0.9594 H   0  0  0  0  0  0  0  0  0  0  0  0
   -7.0434    3.2520   -0.4028 H   0  0  0  0  0  0  0  0  0  0  0  0
   -8.0578    1.8318   -0.6773 H   0  0  0  0  0  0  0  0  0  0  0  0
   -4.6561    3.0025    0.0330 H   0  0  0  0  0  0  0  0  0  0  0  0
   -2.6758    1.5918    0.0870 H   0  0  0  0  0  0  0  0  0  0  0  0
  5  4  1  0
  6  4  2  0
  6  7  1  0
  4  3  1  0
  7 10  1  0
  7  8  2  0
  3  2  1  0
 10 11  2  0
  8  2  1  0
  8  9  1  0
  2  1  2  0
 11  9  1  0
 11 12  1  0
 12 13  1  0
 21 22  2  0
 21 19  1  0
 20 19  1  0
 22 16  1  0
 19 18  2  0
 16 14  1  0
 16 17  2  0
 18 17  1  0
 14 13  1  0
 14 15  2  0
  3 23  1  0
  5 24  1  0
  5 25  1  0
  9 26  1  0
 13 27  1  0
 13 28  1  0
 17 29  1  0
 18 30  1  0
 20 31  1  0
 20 32  1  0
 20 33  1  0
 21 34  1  0
 22 35  1  0
M  END
