
     RDKit          3D

 21 21  0  0  0  0  0  0  0  0999 V2000
    0.5204   -1.1373    0.1489 N   0  0  0  0  0  0  0  0  0  0  0  0
   -0.8468   -0.6884    0.3525 C   0  0  2  0  0  0  0  0  0  0  0  0
   -1.8696   -1.6212   -0.2625 C   0  0  0  0  0  0  0  0  0  0  0  0
   -0.7828    0.6887   -0.3089 C   0  0  1  0  0  0  0  0  0  0  0  0
   -1.7326    1.7050    0.2863 C   0  0  0  0  0  0  0  0  0  0  0  0
    0.5725    1.0980   -0.1548 O   0  0  0  0  0  0  0  0  0  0  0  0
    1.3257    0.0389    0.4051 C   0  0  2  0  0  0  0  0  0  0  0  0
    2.6911   -0.0415   -0.2364 C   0  0  0  0  0  0  0  0  0  0  0  0
    0.7668   -1.8953    0.7737 H   0  0  0  0  0  0  0  0  0  0  0  0
   -1.0821   -0.5526    1.4217 H   0  0  0  0  0  0  0  0  0  0  0  0
   -1.8471   -2.6001    0.2178 H   0  0  0  0  0  0  0  0  0  0  0  0
   -2.8791   -1.2244   -0.1444 H   0  0  0  0  0  0  0  0  0  0  0  0
   -1.6777   -1.7591   -1.3278 H   0  0  0  0  0  0  0  0  0  0  0  0
   -0.9969    0.5816   -1.3815 H   0  0  0  0  0  0  0  0  0  0  0  0
   -1.5606    1.8291    1.3569 H   0  0  0  0  0  0  0  0  0  0  0  0
   -1.6300    2.6780   -0.1956 H   0  0  0  0  0  0  0  0  0  0  0  0
   -2.7646    1.3791    0.1454 H   0  0  0  0  0  0  0  0  0  0  0  0
    1.4475    0.2255    1.4874 H   0  0  0  0  0  0  0  0  0  0  0  0
    2.6038   -0.2214   -1.3083 H   0  0  0  0  0  0  0  0  0  0  0  0
    3.2561    0.8771   -0.0758 H   0  0  0  0  0  0  0  0  0  0  0  0
    3.2633   -0.8589    0.2044 H   0  0  0  0  0  0  0  0  0  0  0  0
  1  2  1  0
  1  7  1  0
  2  3  1  0
  2  4  1  0
  4  5  1  0
  4  6  1  0
  6  7  1  0
  7  8  1  0
  1  9  1  0
  2 10  1  1
  3 11  1  0
  3 12  1  0
  3 13  1  0
  4 14  1  6
  5 15  1  0
  5 16  1  0
  5 17  1  0
  7 18  1  1
  8 19  1  0
  8 20  1  0
  8 21  1  0
M  END
