
     RDKit          3D

 15 15  0  0  0  0  0  0  0  0999 V2000
   -1.2264    0.1401   -1.0686 N   0  0  0  0  0  0  0  0  0  0  0  0
    0.0335   -0.0065   -1.5737 C   0  0  0  0  0  0  0  0  0  0  0  0
    0.2835   -0.0084   -2.7623 O   0  0  0  0  0  0  0  0  0  0  0  0
    0.9950   -0.1527   -0.6058 N   0  0  0  0  0  0  0  0  0  0  0  0
    0.8166   -0.1617    0.7688 C   0  0  0  0  0  0  0  0  0  0  0  0
    1.7719   -0.3020    1.5113 O   0  0  0  0  0  0  0  0  0  0  0  0
   -0.5561    0.0046    1.2105 C   0  0  0  0  0  0  0  0  0  0  0  0
   -0.8459    0.0121    2.6753 C   0  0  0  0  0  0  0  0  0  0  0  0
   -1.5041    0.1463    0.2665 C   0  0  0  0  0  0  0  0  0  0  0  0
   -1.9796    0.2533   -1.7303 H   0  0  0  0  0  0  0  0  0  0  0  0
    1.9433   -0.2685   -0.9418 H   0  0  0  0  0  0  0  0  0  0  0  0
   -0.3030    0.8098    3.1842 H   0  0  0  0  0  0  0  0  0  0  0  0
   -1.9085    0.1619    2.8594 H   0  0  0  0  0  0  0  0  0  0  0  0
   -0.5526   -0.9276    3.1457 H   0  0  0  0  0  0  0  0  0  0  0  0
   -2.5491    0.2733    0.5116 H   0  0  0  0  0  0  0  0  0  0  0  0
  1  2  1  0
  1  9  1  0
  1 10  1  0
  2  3  2  0
  2  4  1  0
  4  5  1  0
  4 11  1  0
  5  6  2  0
  5  7  1  0
  7  8  1  0
  7  9  2  0
  8 12  1  0
  8 13  1  0
  8 14  1  0
  9 15  1  0
M  END
