
     RDKit          3D

 28 30  0  0  0  0  0  0  0  0999 V2000
   -1.5053   -0.0986    1.4924 C   0  0  0  0  0  0  0  0  0  0  0  0
   -0.8522    0.1179    0.2883 C   0  0  0  0  0  0  0  0  0  0  0  0
   -1.5465   -0.0540   -0.9111 C   0  0  0  0  0  0  0  0  0  0  0  0
   -2.8827   -0.4389   -0.8857 C   0  0  0  0  0  0  0  0  0  0  0  0
   -3.5227   -0.6542    0.3313 C   0  0  0  0  0  0  0  0  0  0  0  0
   -2.8328   -0.4828    1.5314 C   0  0  0  0  0  0  0  0  0  0  0  0
   -4.8103   -1.0298    0.4010 O   0  0  0  0  0  0  0  0  0  0  0  0
   -0.8755    0.1647   -2.0495 O   0  0  0  0  0  0  0  0  0  0  0  0
    0.5078    0.4861    0.2535 N   0  0  0  0  0  0  0  0  0  0  0  0
    1.5795   -0.3872    0.1841 C   0  0  0  0  0  0  0  0  0  0  0  0
    2.7329    0.3947    0.0791 C   0  0  0  0  0  0  0  0  0  0  0  0
    2.3163    1.7088    0.0746 N   0  0  0  0  0  0  0  0  0  0  0  0
    0.9524    1.7920    0.1669 C   0  0  0  0  0  0  0  0  0  0  0  0
    1.6408   -1.7655    0.2094 C   0  0  0  0  0  0  0  0  0  0  0  0
    2.9033   -2.3500    0.1270 C   0  0  0  0  0  0  0  0  0  0  0  0
    4.0534   -1.5729    0.0253 C   0  0  0  0  0  0  0  0  0  0  0  0
    3.9857   -0.1812   -0.0010 C   0  0  0  0  0  0  0  0  0  0  0  0
    0.2643    2.7936    0.1759 O   0  0  0  0  0  0  0  0  0  0  0  0
   -0.9575    0.0382    2.4161 H   0  0  0  0  0  0  0  0  0  0  0  0
   -3.4225   -0.5740   -1.8178 H   0  0  0  0  0  0  0  0  0  0  0  0
   -3.3322   -0.6517    2.4760 H   0  0  0  0  0  0  0  0  0  0  0  0
   -5.1830   -1.1416   -0.4809 H   0  0  0  0  0  0  0  0  0  0  0  0
   -1.4471    0.0251   -2.8136 H   0  0  0  0  0  0  0  0  0  0  0  0
    2.9132    2.5170    0.0007 H   0  0  0  0  0  0  0  0  0  0  0  0
    0.7473   -2.3707    0.2889 H   0  0  0  0  0  0  0  0  0  0  0  0
    2.9877   -3.4284    0.1428 H   0  0  0  0  0  0  0  0  0  0  0  0
    5.0199   -2.0551   -0.0368 H   0  0  0  0  0  0  0  0  0  0  0  0
    4.8789    0.4239   -0.0833 H   0  0  0  0  0  0  0  0  0  0  0  0
  2  1  2  0
  1  6  1  0
  1 19  1  0
  9  2  1  0
  2  3  1  0
  8  3  1  0
  3  4  2  0
  4  5  1  0
  4 20  1  0
  6  5  2  0
  5  7  1  0
  6 21  1  0
  7 22  1  0
  8 23  1  0
 13  9  1  0
 10  9  1  0
 11 10  2  0
 10 14  1  0
 17 11  1  0
 12 11  1  0
 12 13  1  0
 12 24  1  0
 18 13  2  0
 15 14  2  0
 14 25  1  0
 16 15  1  0
 15 26  1  0
 17 16  2  0
 16 27  1  0
 17 28  1  0
M  END
