
     RDKit          3D

 62 63  0  0  0  0  0  0  0  0999 V2000
   29.7308   21.2136   45.2227 C   0  0  2  0  0  0  0  0  0  0  0  0
   30.0395   21.7742   43.8308 C   0  0  0  0  0  0  0  0  0  0  0  0
   30.1978   20.6801   42.7928 C   0  0  0  0  0  0  0  0  0  0  0  0
   31.3594   19.7791   43.1730 C   0  0  0  0  0  0  0  0  0  0  0  0
   31.3921   19.4009   44.6307 C   0  0  0  0  0  0  0  0  0  0  0  0
   30.6716   20.0545   45.5614 C   0  0  0  0  0  0  0  0  0  0  0  0
   30.6793   19.6937   46.9846 C   0  0  0  0  0  0  0  0  0  0  0  0
   31.7654   19.5319   47.7561 C   0  0  0  0  0  0  0  0  0  0  0  0
   31.7475   19.2241   49.1770 C   0  0  0  0  0  0  0  0  0  0  0  0
   32.9363   19.1150   49.8198 C   0  0  0  0  0  0  0  0  0  0  0  0
   33.1382   18.8472   51.2174 C   0  0  0  0  0  0  0  0  0  0  0  0
   34.3634   18.7509   51.7736 C   0  0  0  0  0  0  0  0  0  0  0  0
   34.6287   18.5019   53.1812 C   0  0  0  0  0  0  0  0  0  0  0  0
   35.9274   18.4392   53.5542 C   0  0  0  0  0  0  0  0  0  0  0  0
   36.4791   18.2010   54.8995 C   0  0  0  0  0  0  0  0  0  0  0  0
   28.2755   20.7265   45.2799 C   0  0  0  0  0  0  0  0  0  0  0  0
   29.9091   22.3508   46.2371 C   0  0  0  0  0  0  0  0  0  0  0  0
   32.2905   18.2314   44.9147 C   0  0  0  0  0  0  0  0  0  0  0  0
   30.4190   19.0485   49.8469 C   0  0  0  0  0  0  0  0  0  0  0  0
   33.4490   18.3435   54.0920 C   0  0  0  0  0  0  0  0  0  0  0  0
   38.7236   18.1706   55.9936 C   0  0  0  0  0  0  0  0  0  0  0  0
   40.0771   18.3966   55.7250 C   0  0  0  0  0  0  0  0  0  0  0  0
   41.0375   18.2886   56.7121 C   0  0  0  0  0  0  0  0  0  0  0  0
   40.6690   17.9499   58.0118 C   0  0  0  0  0  0  0  0  0  0  0  0
   39.3268   17.7212   58.2871 C   0  0  0  0  0  0  0  0  0  0  0  0
   38.3602   17.8280   57.2956 C   0  0  0  0  0  0  0  0  0  0  0  0
   35.8220   17.9361   55.8983 O   0  0  0  0  0  0  0  0  0  0  0  0
   37.8373   18.3053   54.9198 N   0  0  0  0  0  0  0  0  0  0  0  0
   41.6401   17.8619   58.9459 O   0  0  0  0  0  0  0  0  0  0  0  0
   29.2473   22.4737   43.5479 H   0  0  0  0  0  0  0  0  0  0  0  0
   30.9662   22.3581   43.8747 H   0  0  0  0  0  0  0  0  0  0  0  0
   29.2793   20.0913   42.7242 H   0  0  0  0  0  0  0  0  0  0  0  0
   30.3636   21.1095   41.8025 H   0  0  0  0  0  0  0  0  0  0  0  0
   31.3407   18.8656   42.5708 H   0  0  0  0  0  0  0  0  0  0  0  0
   32.3106   20.2649   42.9208 H   0  0  0  0  0  0  0  0  0  0  0  0
   29.7001   19.6164   47.4512 H   0  0  0  0  0  0  0  0  0  0  0  0
   32.7483   19.6641   47.3131 H   0  0  0  0  0  0  0  0  0  0  0  0
   33.8389   19.2502   49.2299 H   0  0  0  0  0  0  0  0  0  0  0  0
   32.2639   18.7305   51.8464 H   0  0  0  0  0  0  0  0  0  0  0  0
   35.2328   18.8671   51.1323 H   0  0  0  0  0  0  0  0  0  0  0  0
   36.6635   18.5842   52.7700 H   0  0  0  0  0  0  0  0  0  0  0  0
   28.0204   20.3249   46.2621 H   0  0  0  0  0  0  0  0  0  0  0  0
   27.5889   21.5527   45.0794 H   0  0  0  0  0  0  0  0  0  0  0  0
   28.0814   19.9443   44.5452 H   0  0  0  0  0  0  0  0  0  0  0  0
   29.6058   22.0620   47.2447 H   0  0  0  0  0  0  0  0  0  0  0  0
   30.9498   22.6778   46.2845 H   0  0  0  0  0  0  0  0  0  0  0  0
   29.3025   23.2110   45.9446 H   0  0  0  0  0  0  0  0  0  0  0  0
   32.1586   17.8119   45.9086 H   0  0  0  0  0  0  0  0  0  0  0  0
   32.1130   17.4386   44.1845 H   0  0  0  0  0  0  0  0  0  0  0  0
   33.3422   18.5140   44.8108 H   0  0  0  0  0  0  0  0  0  0  0  0
   30.5002   18.8690   50.9155 H   0  0  0  0  0  0  0  0  0  0  0  0
   29.7915   19.9314   49.7107 H   0  0  0  0  0  0  0  0  0  0  0  0
   29.8767   18.2059   49.4134 H   0  0  0  0  0  0  0  0  0  0  0  0
   33.7324   18.2420   55.1313 H   0  0  0  0  0  0  0  0  0  0  0  0
   32.7802   19.1999   53.9950 H   0  0  0  0  0  0  0  0  0  0  0  0
   32.8712   17.4618   53.8072 H   0  0  0  0  0  0  0  0  0  0  0  0
   40.3880   18.6642   54.7216 H   0  0  0  0  0  0  0  0  0  0  0  0
   42.0779   18.4694   56.4727 H   0  0  0  0  0  0  0  0  0  0  0  0
   39.0150   17.4544   59.2906 H   0  0  0  0  0  0  0  0  0  0  0  0
   37.3318   17.6411   57.5547 H   0  0  0  0  0  0  0  0  0  0  0  0
   38.2795   18.5411   54.0449 H   0  0  0  0  0  0  0  0  0  0  0  0
   41.2642   17.6146   59.7980 H   0  0  0  0  0  0  0  0  0  0  0  0
  1  2  1  0
  1  6  1  0
  1 16  1  6
  1 17  1  0
  2  3  1  0
  2 30  1  0
  2 31  1  0
  3  4  1  0
  3 32  1  0
  3 33  1  0
  4  5  1  0
  4 34  1  0
  4 35  1  0
  5  6  2  0
  5 18  1  0
  6  7  1  0
  7  8  2  0
  7 36  1  0
  8  9  1  0
  8 37  1  0
  9 10  2  0
  9 19  1  0
 10 11  1  0
 10 38  1  0
 11 12  2  0
 11 39  1  0
 12 13  1  0
 12 40  1  0
 13 14  2  0
 13 20  1  0
 14 15  1  0
 14 41  1  0
 15 27  2  0
 15 28  1  0
 16 42  1  0
 16 43  1  0
 16 44  1  0
 17 45  1  0
 17 46  1  0
 17 47  1  0
 18 48  1  0
 18 49  1  0
 18 50  1  0
 19 51  1  0
 19 52  1  0
 19 53  1  0
 20 54  1  0
 20 55  1  0
 20 56  1  0
 21 22  2  0
 21 26  1  0
 21 28  1  0
 22 23  1  0
 22 57  1  0
 23 24  2  0
 23 58  1  0
 24 25  1  0
 24 29  1  0
 25 26  2  0
 25 59  1  0
 26 60  1  0
 28 61  1  0
 29 62  1  0
M  END
