
     RDKit          3D

 24 25  0  0  0  0  0  0  0  0999 V2000
    2.3548   -2.2040   -0.0503 C   0  0  0  0  0  0  0  0  0  0  0  0
    1.1474   -1.5620   -0.0298 C   0  0  0  0  0  0  0  0  0  0  0  0
    1.1232   -0.1512   -0.0203 C   0  0  0  0  0  0  0  0  0  0  0  0
    2.3609    0.5287   -0.0337 C   0  0  0  0  0  0  0  0  0  0  0  0
    3.5359   -0.2590   -0.0554 C   0  0  0  0  0  0  0  0  0  0  0  0
   -0.0780    0.6135    0.0031 C   0  0  0  0  0  0  0  0  0  0  0  0
   -0.0169    1.9844    0.0130 C   0  0  0  0  0  0  0  0  0  0  0  0
    1.2325    2.6424   -0.0015 C   0  0  0  0  0  0  0  0  0  0  0  0
    2.4032    1.9412   -0.0243 C   0  0  0  0  0  0  0  0  0  0  0  0
   -2.4362    0.5630    0.0466 C   0  0  0  0  0  0  0  0  0  0  0  0
   -3.5266   -0.4800    0.0575 C   0  0  0  0  0  0  0  0  0  0  0  0
    3.5444   -1.5641   -0.0627 N   0  0  0  0  0  0  0  0  0  0  0  0
   -1.2094   -0.1117    0.0148 O   0  0  0  0  0  0  0  0  0  0  0  0
   -3.3443   -1.6663    0.0496 O   0  0  0  0  0  0  0  0  0  0  0  0
    2.3972   -3.2866   -0.0576 H   0  0  0  0  0  0  0  0  0  0  0  0
    0.2333   -2.1387   -0.0208 H   0  0  0  0  0  0  0  0  0  0  0  0
    4.4992    0.2438   -0.0670 H   0  0  0  0  0  0  0  0  0  0  0  0
   -0.9132    2.5894    0.0318 H   0  0  0  0  0  0  0  0  0  0  0  0
    1.2446    3.7239    0.0060 H   0  0  0  0  0  0  0  0  0  0  0  0
    3.3586    2.4501   -0.0350 H   0  0  0  0  0  0  0  0  0  0  0  0
   -2.5675    1.2140   -0.8259 H   0  0  0  0  0  0  0  0  0  0  0  0
   -2.5328    1.1925    0.9394 H   0  0  0  0  0  0  0  0  0  0  0  0
   -4.7143    0.1041    0.0789 O   0  0  0  0  0  0  0  0  0  0  0  0
   -5.4183   -0.5619    0.0912 H   0  0  0  0  0  0  0  0  0  0  0  0
  1  2  2  0
  1 12  1  0
  1 15  1  0
  2  3  1  0
  2 16  1  0
  3  4  2  0
  3  6  1  0
  4  5  1  0
  4  9  1  0
  5 12  2  0
  5 17  1  0
  6  7  2  0
  6 13  1  0
  7  8  1  0
  7 18  1  0
  8  9  2  0
  8 19  1  0
  9 20  1  0
 10 11  1  0
 10 13  1  0
 10 21  1  0
 10 22  1  0
 11 14  2  0
 11 23  1  0
 23 24  1  0
M  END
