
     RDKit          3D

 50 53  0  0  0  0  0  0  0  0999 V2000
    3.0490    2.9356    2.0259 C   0  0  0  0  0  0  0  0  0  0  0  0
    2.0981    2.1511    1.3303 O   0  0  0  0  0  0  0  0  0  0  0  0
    2.5251    1.1399    0.5619 C   0  0  0  0  0  0  0  0  0  0  0  0
    3.8654    0.8090    0.3980 C   0  0  0  0  0  0  0  0  0  0  0  0
    4.2512   -0.2732   -0.3971 C   0  0  0  0  0  0  0  0  0  0  0  0
    3.2637   -1.0376   -1.0168 C   0  0  0  0  0  0  0  0  0  0  0  0
    1.9289   -0.7194   -0.8392 C   0  0  0  0  0  0  0  0  0  0  0  0
    1.5365    0.3670   -0.0666 C   0  0  0  0  0  0  0  0  0  0  0  0
    0.0940    0.7335    0.0384 C   0  0  0  0  0  0  0  0  0  0  0  0
   -0.3159    1.8558   -0.1933 O   0  0  0  0  0  0  0  0  0  0  0  0
   -0.6992   -0.3132    0.3890 N   0  0  0  0  0  0  0  0  0  0  0  0
   -2.0899   -0.3616    0.5210 C   0  0  0  0  0  0  0  0  0  0  0  0
   -2.6264   -1.4845    1.1492 C   0  0  0  0  0  0  0  0  0  0  0  0
   -3.9952   -1.6135    1.2961 C   0  0  0  0  0  0  0  0  0  0  0  0
   -4.8705   -0.6394    0.8295 C   0  0  0  0  0  0  0  0  0  0  0  0
   -6.3537   -0.8123    1.0011 C   0  0  0  0  0  0  0  0  0  0  0  0
   -7.1332   -0.9444   -0.2965 C   0  0  0  0  0  0  0  0  0  0  0  0
   -7.3602    0.3609   -0.9787 N   0  0  0  0  0  0  0  0  0  0  0  0
   -6.1577    1.0902   -1.4694 C   0  0  0  0  0  0  0  0  0  0  0  0
   -5.2381    1.5540   -0.3505 C   0  0  0  0  0  0  0  0  0  0  0  0
   -4.3352    0.4826    0.1955 C   0  0  0  0  0  0  0  0  0  0  0  0
   -2.9594    0.6197    0.0446 C   0  0  0  0  0  0  0  0  0  0  0  0
    5.6655   -0.5908   -0.5644 C   0  0  0  0  0  0  0  0  0  0  0  0
    6.7924    0.1604   -0.1612 C   0  0  0  0  0  0  0  0  0  0  0  0
    7.9196   -0.4418   -0.4808 N   0  0  0  0  0  0  0  0  0  0  0  0
    7.5470   -1.5668   -1.0801 N   0  0  0  0  0  0  0  0  0  0  0  0
    6.2197   -1.7101   -1.1600 C   0  0  0  0  0  0  0  0  0  0  0  0
   -7.9776    0.1972   -1.7747 H   0  0  0  0  0  0  0  0  0  0  0  0
   -7.8913    0.9753   -0.3587 H   0  0  0  0  0  0  0  0  0  0  0  0
    8.2446   -2.2129   -1.4143 H   0  0  0  0  0  0  0  0  0  0  0  0
    3.7379    3.4405    1.3447 H   0  0  0  0  0  0  0  0  0  0  0  0
    2.4838    3.6855    2.5728 H   0  0  0  0  0  0  0  0  0  0  0  0
    3.6256    2.3401    2.7377 H   0  0  0  0  0  0  0  0  0  0  0  0
    4.6273    1.3873    0.9018 H   0  0  0  0  0  0  0  0  0  0  0  0
    3.5266   -1.8781   -1.6449 H   0  0  0  0  0  0  0  0  0  0  0  0
    1.1767   -1.3186   -1.3380 H   0  0  0  0  0  0  0  0  0  0  0  0
   -0.2183   -1.1549    0.6696 H   0  0  0  0  0  0  0  0  0  0  0  0
   -1.9721   -2.2627    1.5240 H   0  0  0  0  0  0  0  0  0  0  0  0
   -4.3893   -2.4966    1.7843 H   0  0  0  0  0  0  0  0  0  0  0  0
   -6.5422   -1.7256    1.5663 H   0  0  0  0  0  0  0  0  0  0  0  0
   -6.7812   -0.0025    1.6023 H   0  0  0  0  0  0  0  0  0  0  0  0
   -6.6279   -1.5940   -1.0094 H   0  0  0  0  0  0  0  0  0  0  0  0
   -8.1245   -1.3489   -0.1036 H   0  0  0  0  0  0  0  0  0  0  0  0
   -5.6458    0.4318   -2.1689 H   0  0  0  0  0  0  0  0  0  0  0  0
   -6.5411    1.9463   -2.0204 H   0  0  0  0  0  0  0  0  0  0  0  0
   -4.6341    2.3622   -0.7632 H   0  0  0  0  0  0  0  0  0  0  0  0
   -5.8329    2.0080    0.4491 H   0  0  0  0  0  0  0  0  0  0  0  0
   -2.5773    1.4977   -0.4516 H   0  0  0  0  0  0  0  0  0  0  0  0
    6.8183    1.1157    0.3412 H   0  0  0  0  0  0  0  0  0  0  0  0
    5.7731   -2.5781   -1.6165 H   0  0  0  0  0  0  0  0  0  0  0  0
  1  2  1  0
  1 31  1  0
  1 32  1  0
  1 33  1  0
  2  3  1  0
  3  4  2  0
  3  8  1  0
  4  5  1  0
  4 34  1  0
  5  6  2  0
  5 23  1  0
  6  7  1  0
  6 35  1  0
  7  8  2  0
  7 36  1  0
  8  9  1  0
  9 10  2  0
  9 11  1  0
 11 12  1  0
 11 37  1  0
 12 13  2  0
 12 22  1  0
 13 14  1  0
 13 38  1  0
 14 15  2  0
 14 39  1  0
 15 16  1  0
 15 21  1  0
 16 17  1  0
 16 40  1  0
 16 41  1  0
 17 18  1  0
 17 42  1  0
 17 43  1  0
 18 19  1  0
 18 28  1  0
 18 29  1  0
 19 20  1  0
 19 44  1  0
 19 45  1  0
 20 21  1  0
 20 46  1  0
 20 47  1  0
 21 22  2  0
 22 48  1  0
 23 24  1  0
 23 27  2  0
 24 25  2  0
 24 49  1  0
 25 26  1  0
 26 27  1  0
 26 30  1  0
 27 50  1  0
M  CHG  1  18   1
M  END
