
     RDKit          3D

 37 39  0  0  0  0  0  0  0  0999 V2000
   -5.6939   -2.2212   -0.8478 Cl  0  0  0  0  0  0  0  0  0  0  0  0
   -4.3734   -1.1769   -0.4445 C   0  0  0  0  0  0  0  0  0  0  0  0
   -4.6250    0.1582   -0.1719 C   0  0  0  0  0  0  0  0  0  0  0  0
   -3.0853   -1.6809   -0.3955 C   0  0  0  0  0  0  0  0  0  0  0  0
   -2.0321   -0.8398   -0.0711 C   0  0  0  0  0  0  0  0  0  0  0  0
   -2.2590    0.5027    0.2015 C   0  0  0  0  0  0  0  0  0  0  0  0
   -3.5649    0.9880    0.1474 C   0  0  0  0  0  0  0  0  0  0  0  0
   -3.8570    2.6532    0.4882 Cl  0  0  0  0  0  0  0  0  0  0  0  0
   -1.2945    1.3847    0.5450 O   0  0  0  0  0  0  0  0  0  0  0  0
    0.0212    1.0068    0.4339 C   0  0  0  0  0  0  0  0  0  0  0  0
    0.6190    0.9703   -0.8269 C   0  0  0  0  0  0  0  0  0  0  0  0
   -0.1531    1.2556   -1.8873 O   0  0  0  0  0  0  0  0  0  0  0  0
    1.9635    0.6325   -0.9200 C   0  0  0  0  0  0  0  0  0  0  0  0
    2.7117    0.3366    0.2178 C   0  0  0  0  0  0  0  0  0  0  0  0
    2.0974    0.3881    1.4662 C   0  0  0  0  0  0  0  0  0  0  0  0
    0.7545    0.7191    1.5690 C   0  0  0  0  0  0  0  0  0  0  0  0
    4.1527    0.0167    0.0816 C   0  0  0  0  0  0  0  0  0  0  0  0
    4.6879   -1.1975    0.5376 C   0  0  0  0  0  0  0  0  0  0  0  0
    3.8344   -2.2641    1.1637 C   0  0  0  0  0  0  0  0  0  0  0  0
    6.0538   -1.4217    0.3759 C   0  0  0  0  0  0  0  0  0  0  0  0
    6.8826   -0.4817   -0.2197 C   0  0  0  0  0  0  0  0  0  0  0  0
    6.3468    0.7123   -0.6786 C   0  0  0  0  0  0  0  0  0  0  0  0
    4.9892    0.9511   -0.5281 C   0  0  0  0  0  0  0  0  0  0  0  0
   -5.6304    0.5541   -0.2085 H   0  0  0  0  0  0  0  0  0  0  0  0
   -2.8921   -2.7236   -0.6056 H   0  0  0  0  0  0  0  0  0  0  0  0
   -1.0309   -1.2475   -0.0274 H   0  0  0  0  0  0  0  0  0  0  0  0
    0.3559    1.1858   -2.7032 H   0  0  0  0  0  0  0  0  0  0  0  0
    2.4335    0.5904   -1.8969 H   0  0  0  0  0  0  0  0  0  0  0  0
    2.6641    0.1842    2.3647 H   0  0  0  0  0  0  0  0  0  0  0  0
    0.2731    0.7674    2.5377 H   0  0  0  0  0  0  0  0  0  0  0  0
    3.5357   -2.0046    2.1798 H   0  0  0  0  0  0  0  0  0  0  0  0
    2.9182   -2.4369    0.5984 H   0  0  0  0  0  0  0  0  0  0  0  0
    4.3779   -3.2066    1.2180 H   0  0  0  0  0  0  0  0  0  0  0  0
    6.4745   -2.3590    0.7205 H   0  0  0  0  0  0  0  0  0  0  0  0
    7.9397   -0.6863   -0.3299 H   0  0  0  0  0  0  0  0  0  0  0  0
    6.9782    1.4551   -1.1486 H   0  0  0  0  0  0  0  0  0  0  0  0
    4.5691    1.8859   -0.8790 H   0  0  0  0  0  0  0  0  0  0  0  0
  1  2  1  0
  2  3  2  0
  2  4  1  0
  3  7  1  0
  3 24  1  0
  4  5  2  0
  4 25  1  0
  5  6  1  0
  5 26  1  0
  6  7  2  0
  6  9  1  0
  7  8  1  0
  9 10  1  0
 10 11  2  0
 10 16  1  0
 11 12  1  0
 11 13  1  0
 12 27  1  0
 13 14  2  0
 13 28  1  0
 14 15  1  0
 14 17  1  0
 15 16  2  0
 15 29  1  0
 16 30  1  0
 17 18  2  0
 17 23  1  0
 18 19  1  0
 18 20  1  0
 19 31  1  0
 19 32  1  0
 19 33  1  0
 20 21  2  0
 20 34  1  0
 21 22  1  0
 21 35  1  0
 22 23  2  0
 22 36  1  0
 23 37  1  0
M  END
