
     RDKit          3D

 16 16  0  0  0  0  0  0  0  0999 V2000
    1.1719    1.1702   -0.0677 N   0  0  0  0  0  0  0  0  0  0  0  0
    1.5900   -0.1510   -0.0193 C   0  0  0  0  0  0  0  0  0  0  0  0
    2.7895   -0.4060   -0.0198 O   0  0  0  0  0  0  0  0  0  0  0  0
    0.6277   -1.0961    0.0266 N   0  0  0  0  0  0  0  0  0  0  0  0
   -0.6492   -0.7623    0.0279 C   0  0  0  0  0  0  0  0  0  0  0  0
   -1.5449   -1.7505    0.0847 N   0  0  0  0  0  0  0  0  0  0  0  0
   -1.1134    0.5988   -0.0202 C   0  0  0  0  0  0  0  0  0  0  0  0
   -0.1310    1.5252   -0.0674 C   0  0  0  0  0  0  0  0  0  0  0  0
   -2.5672    0.9503   -0.0171 C   0  0  0  0  0  0  0  0  0  0  0  0
   -1.2334   -2.7069    0.0753 H   0  0  0  0  0  0  0  0  0  0  0  0
   -2.5334   -1.5823    0.0308 H   0  0  0  0  0  0  0  0  0  0  0  0
   -0.3327    2.5869   -0.1068 H   0  0  0  0  0  0  0  0  0  0  0  0
   -3.0718    0.5882    0.8816 H   0  0  0  0  0  0  0  0  0  0  0  0
   -2.6997    2.0306   -0.0522 H   0  0  0  0  0  0  0  0  0  0  0  0
   -3.0920    0.5288   -0.8777 H   0  0  0  0  0  0  0  0  0  0  0  0
    1.8793    1.8887   -0.1034 H   0  0  0  0  0  0  0  0  0  0  0  0
  3  2  2  0
  2  4  1  0
  2  1  1  0
  4  5  2  0
  1  8  1  0
  5  6  1  0
  5  7  1  0
  8  7  2  0
  7  9  1  0
  6 10  1  0
  6 11  1  0
  8 12  1  0
  9 13  1  0
  9 14  1  0
  9 15  1  0
  1 16  1  0
M  END
