
     RDKit          3D

 26 27  0  0  0  0  0  0  0  0999 V2000
    2.8204    2.7076    0.3668 C   0  0  0  0  0  0  0  0  0  0  0  0
    1.4624    0.9867    0.4176 C   0  0  0  0  0  0  0  0  0  0  0  0
    2.3805    0.1678   -0.2176 C   0  0  0  0  0  0  0  0  0  0  0  0
    3.6130    0.7549   -0.5598 C   0  0  0  0  0  0  0  0  0  0  0  0
    0.6861   -1.0190    0.1223 C   0  0  0  0  0  0  0  0  0  0  0  0
   -1.8599    1.1391    0.1539 C   0  0  0  0  0  0  0  0  0  0  0  0
   -3.1649    1.5970    0.7896 C   0  0  0  0  0  0  0  0  0  0  0  0
    3.7958    2.0425   -0.2463 N   0  0  0  0  0  0  0  0  0  0  0  0
    1.6292    2.2671    0.7344 N   0  0  0  0  0  0  0  0  0  0  0  0
    4.5875    0.0849   -1.1732 N   0  0  0  0  0  0  0  0  0  0  0  0
    1.8703   -1.0922   -0.3931 N   0  0  0  0  0  0  0  0  0  0  0  0
    0.3652    0.2032    0.6440 N   0  0  0  0  0  0  0  0  0  0  0  0
   -5.2895    0.6598   -1.5672 N   0  0  0  0  0  0  0  0  0  0  0  0
   -4.1020    2.1395   -0.1997 N   0  0  0  0  0  0  0  0  0  0  0  0
   -4.6915    1.3272   -0.8878 N   0  0  0  0  0  0  0  0  0  0  0  0
   -0.5011   -2.4417    0.1698 Br  0  0  0  0  0  0  0  0  0  0  0  0
    3.0352    3.7468    0.5907 H   0  0  0  0  0  0  0  0  0  0  0  0
   -2.0530    0.3355   -0.5617 H   0  0  0  0  0  0  0  0  0  0  0  0
   -1.4123    1.9664   -0.4006 H   0  0  0  0  0  0  0  0  0  0  0  0
   -3.6282    0.7810    1.3520 H   0  0  0  0  0  0  0  0  0  0  0  0
   -2.9786    2.4088    1.4904 H   0  0  0  0  0  0  0  0  0  0  0  0
   -0.6470    1.4587    1.9152 H   0  0  0  0  0  0  0  0  0  0  0  0
   -1.3144   -0.1562    1.8103 H   0  0  0  0  0  0  0  0  0  0  0  0
    5.4433    0.5499   -1.4226 H   0  0  0  0  0  0  0  0  0  0  0  0
    4.4671   -0.8733   -1.4511 H   0  0  0  0  0  0  0  0  0  0  0  0
   -0.8863    0.6543    1.2201 C   0  0  0  0  0  0  0  0  0  0  0  0
 10  4  1  0
  4  8  1  0
  4  3  2  0
  8  1  2  0
 11  3  1  0
 11  5  2  0
  3  2  1  0
  1  9  1  0
  5 16  1  0
  5 12  1  0
  2  9  2  0
  2 12  1  0
 12 26  1  0
  6 26  1  0
  6  7  1  0
  7 14  1  0
 14 15  2  0
 15 13  2  0
  1 17  1  0
  6 18  1  0
  6 19  1  0
  7 20  1  0
  7 21  1  0
 26 22  1  0
 26 23  1  0
 10 24  1  0
 10 25  1  0
M  CHG  2  13  -1  15   1
M  END
