
     RDKit          3D

 13 13  0  0  0  0  0  0  0  0999 V2000
    2.4278   -0.0392    0.0502 C   0  0  0  0  0  0  0  0  0  0  0  0
    0.9353   -0.0776    0.0308 C   0  0  0  0  0  0  0  0  0  0  0  0
    0.2090   -1.2500    0.0476 C   0  0  0  0  0  0  0  0  0  0  0  0
    0.1710    1.0936    0.0138 C   0  0  0  0  0  0  0  0  0  0  0  0
   -1.1483    1.1192    0.0203 N   0  0  0  0  0  0  0  0  0  0  0  0
   -1.8299   -0.0053    0.0434 N   0  0  0  0  0  0  0  0  0  0  0  0
   -1.1779   -1.1547    0.0550 C   0  0  0  0  0  0  0  0  0  0  0  0
    2.7922   -0.0844    1.0782 H   0  0  0  0  0  0  0  0  0  0  0  0
    2.8522   -0.8876   -0.4841 H   0  0  0  0  0  0  0  0  0  0  0  0
    2.8106    0.8781   -0.3943 H   0  0  0  0  0  0  0  0  0  0  0  0
    0.6902   -2.2197    0.0525 H   0  0  0  0  0  0  0  0  0  0  0  0
    0.6545    2.0641   -0.0108 H   0  0  0  0  0  0  0  0  0  0  0  0
   -1.7949   -2.0443    0.0702 H   0  0  0  0  0  0  0  0  0  0  0  0
  1  2  1  0
  2  4  2  0
  2  3  1  0
  4  5  1  0
  5  6  2  0
  3  7  2  0
  6  7  1  0
  1  8  1  0
  1  9  1  0
  1 10  1  0
  3 11  1  0
  4 12  1  0
  7 13  1  0
M  END
