
     RDKit          3D

 34 34  0  0  0  0  0  0  0  0999 V2000
   -5.9795   -2.0903    0.4502 O   0  0  0  0  0  0  0  0  0  0  0  0
   -5.7563   -0.8758    0.3970 C   0  0  0  0  0  0  0  0  0  0  0  0
   -6.8361   -0.0585    0.5972 O   0  0  0  0  0  0  0  0  0  0  0  0
   -4.5008   -0.1957    0.1502 C   0  0  0  0  0  0  0  0  0  0  0  0
   -4.2528    1.4576    0.1276 S   0  0  0  0  0  0  0  0  0  0  0  0
   -2.6419    1.3301   -0.2061 C   0  0  0  0  0  0  0  0  0  0  0  0
   -3.3276   -0.8946   -0.1035 C   0  0  0  0  0  0  0  0  0  0  0  0
   -2.2187    0.0007   -0.3165 C   0  0  0  0  0  0  0  0  0  0  0  0
   -0.9250   -0.4479   -0.5904 N   0  0  0  0  0  0  0  0  0  0  0  0
    0.2568    0.3136   -0.2431 C   0  0  0  0  0  0  0  0  0  0  0  0
    1.5470   -0.4954   -0.3688 C   0  0  0  0  0  0  0  0  0  0  0  0
    2.7397    0.3866   -0.0608 C   0  0  0  0  0  0  0  0  0  0  0  0
    4.0292   -0.3922   -0.1906 C   0  0  0  0  0  0  0  0  0  0  0  0
    5.2413    0.4389    0.2665 C   0  0  2  0  0  0  0  0  0  0  0  0
    5.6337    1.5405   -0.5857 N   0  0  0  0  0  0  0  0  0  0  0  0
    6.3999   -0.5323    0.4333 C   0  0  0  0  0  0  0  0  0  0  0  0
    6.5972   -0.9245    1.7205 O   0  0  0  0  0  0  0  0  0  0  0  0
    7.1569   -0.9926   -0.4242 O   0  0  0  0  0  0  0  0  0  0  0  0
   -7.6226   -0.6063    0.7528 H   0  0  0  0  0  0  0  0  0  0  0  0
   -1.9954    2.1997   -0.3245 H   0  0  0  0  0  0  0  0  0  0  0  0
   -3.2562   -1.9847   -0.1370 H   0  0  0  0  0  0  0  0  0  0  0  0
   -0.8172   -1.3329   -1.0455 H   0  0  0  0  0  0  0  0  0  0  0  0
    0.3026    1.1939   -0.9469 H   0  0  0  0  0  0  0  0  0  0  0  0
    0.1908    0.7284    0.8059 H   0  0  0  0  0  0  0  0  0  0  0  0
    1.5280   -1.3645    0.3406 H   0  0  0  0  0  0  0  0  0  0  0  0
    1.6424   -0.9103   -1.4069 H   0  0  0  0  0  0  0  0  0  0  0  0
    2.7429    1.2610   -0.7638 H   0  0  0  0  0  0  0  0  0  0  0  0
    2.6478    0.7961    0.9798 H   0  0  0  0  0  0  0  0  0  0  0  0
    3.9764   -1.3132    0.4481 H   0  0  0  0  0  0  0  0  0  0  0  0
    4.1722   -0.7249   -1.2515 H   0  0  0  0  0  0  0  0  0  0  0  0
    5.0057    0.8783    1.2839 H   0  0  0  0  0  0  0  0  0  0  0  0
    5.4999    1.3158   -1.5530 H   0  0  0  0  0  0  0  0  0  0  0  0
    5.1072    2.3594   -0.3531 H   0  0  0  0  0  0  0  0  0  0  0  0
    7.3473   -1.5413    1.7623 H   0  0  0  0  0  0  0  0  0  0  0  0
  1  2  2  0
  2  4  1  0
  2  3  1  0
  3 19  1  0
  4  5  1  0
  4  7  2  0
  5  6  1  0
  6  8  2  0
  6 20  1  0
  7  8  1  0
  7 21  1  0
  8  9  1  0
  9 10  1  0
  9 22  1  0
 10 11  1  0
 10 23  1  0
 10 24  1  0
 11 12  1  0
 11 25  1  0
 11 26  1  0
 12 13  1  0
 12 27  1  0
 12 28  1  0
 13 14  1  0
 13 29  1  0
 13 30  1  0
 14 16  1  0
 14 15  1  0
 14 31  1  1
 15 32  1  0
 15 33  1  0
 16 18  2  0
 16 17  1  0
 17 34  1  0
M  END
