
     RDKit          3D

 24 25  0  0  0  0  0  0  0  0999 V2000
    3.0646    2.0641   -0.0281 O   0  0  0  0  0  0  0  0  0  0  0  0
   -0.1294    0.6703   -0.2291 C   0  0  0  0  0  0  0  0  0  0  0  0
    0.8993    1.5297   -0.4201 O   0  0  0  0  0  0  0  0  0  0  0  0
    2.0754    1.1969    0.3135 C   0  0  1  0  0  0  0  0  0  0  0  0
    2.5270   -0.2201   -0.0588 C   0  0  0  0  0  0  0  0  0  0  0  0
    1.4885   -1.0848   -0.1389 N   0  0  0  0  0  0  0  0  0  0  0  0
    3.6862   -0.5307   -0.2074 O   0  0  0  0  0  0  0  0  0  0  0  0
    0.1443   -0.6900   -0.0699 C   0  0  0  0  0  0  0  0  0  0  0  0
   -0.9038   -1.5758    0.0932 C   0  0  0  0  0  0  0  0  0  0  0  0
   -2.2175   -1.1197    0.0954 C   0  0  0  0  0  0  0  0  0  0  0  0
   -2.4850    0.2368   -0.0642 C   0  0  0  0  0  0  0  0  0  0  0  0
   -3.7172    0.7758   -0.0751 O   0  0  0  0  0  0  0  0  0  0  0  0
   -1.4265    1.1360   -0.2155 C   0  0  0  0  0  0  0  0  0  0  0  0
   -4.8300   -0.0766    0.1099 C   0  0  0  0  0  0  0  0  0  0  0  0
    1.7498   -2.3802   -0.4487 O   0  0  0  0  0  0  0  0  0  0  0  0
    2.9820    2.8690    0.4951 H   0  0  0  0  0  0  0  0  0  0  0  0
    1.8353    1.2216    1.3881 H   0  0  0  0  0  0  0  0  0  0  0  0
   -0.7180   -2.6349    0.2032 H   0  0  0  0  0  0  0  0  0  0  0  0
   -3.0105   -1.8438    0.2144 H   0  0  0  0  0  0  0  0  0  0  0  0
   -1.6199    2.1949   -0.3351 H   0  0  0  0  0  0  0  0  0  0  0  0
   -4.9117   -0.8218   -0.6855 H   0  0  0  0  0  0  0  0  0  0  0  0
   -4.7953   -0.5903    1.0739 H   0  0  0  0  0  0  0  0  0  0  0  0
   -5.7119    0.5584    0.0840 H   0  0  0  0  0  0  0  0  0  0  0  0
    1.9400   -2.8323    0.3865 H   0  0  0  0  0  0  0  0  0  0  0  0
  1  4  1  0
  2  3  1  0
  2  8  2  0
  2 13  1  0
  3  4  1  0
  4  5  1  0
  5  6  1  0
  5  7  2  0
  6  8  1  0
  6 15  1  0
  8  9  1  0
  9 10  2  0
 10 11  1  0
 11 12  1  0
 11 13  2  0
 12 14  1  0
  1 16  1  0
  4 17  1  1
  9 18  1  0
 10 19  1  0
 13 20  1  0
 14 21  1  0
 14 22  1  0
 14 23  1  0
 15 24  1  0
M  END
