
     RDKit          3D

 49 50  0  0  0  0  0  0  0  0999 V2000
   -0.7289   -0.2098   -1.0133 C   0  0  0  0  0  0  0  0  0  0  0  0
    1.7385    0.2627   -1.2743 C   0  0  0  0  0  0  0  0  0  0  0  0
   -1.8137   -0.5811   -0.1370 N   0  0  0  0  0  0  0  0  0  0  0  0
   -2.9894    0.2729   -0.0685 C   0  0  1  0  0  0  0  0  0  0  0  0
   -4.0565   -0.6145    0.5660 C   0  0  1  0  0  0  0  0  0  0  0  0
   -3.6837   -1.9870    0.0151 C   0  0  1  0  0  0  0  0  0  0  0  0
   -2.1568   -1.9802    0.0820 C   0  0  1  0  0  0  0  0  0  0  0  0
   -4.2086   -3.0612    0.7555 O   0  0  0  0  0  0  0  0  0  0  0  0
   -3.9490   -0.5958    1.9693 O   0  0  0  0  0  0  0  0  0  0  0  0
   -1.5197   -3.0002   -0.8450 C   0  0  0  0  0  0  0  0  0  0  0  0
   -1.9900   -2.8490   -2.1651 O   0  0  0  0  0  0  0  0  0  0  0  0
   -2.7664    1.5650    0.7235 C   0  0  0  0  0  0  0  0  0  0  0  0
   -1.9642    2.6023   -0.0300 C   0  0  0  0  0  0  0  0  0  0  0  0
   -0.8446    3.0234    0.5743 N   0  0  0  0  0  0  0  0  0  0  0  0
    0.0376    4.0054   -0.0078 C   0  0  0  0  0  0  0  0  0  0  0  0
   -2.3257    3.0394   -1.1174 O   0  0  0  0  0  0  0  0  0  0  0  0
    0.6215   -0.1329   -0.3093 C   0  0  0  0  0  0  0  0  0  0  0  0
    3.0733    0.3758   -0.5951 C   0  0  0  0  0  0  0  0  0  0  0  0
    3.8330   -0.7611   -0.3240 C   0  0  0  0  0  0  0  0  0  0  0  0
    5.0498   -0.6789    0.3377 C   0  0  0  0  0  0  0  0  0  0  0  0
    5.5038    0.5654    0.7310 C   0  0  0  0  0  0  0  0  0  0  0  0
    4.7844    1.7171    0.4825 C   0  0  0  0  0  0  0  0  0  0  0  0
    3.5693    1.6090   -0.1813 C   0  0  0  0  0  0  0  0  0  0  0  0
    6.6833    0.6576    1.3713 F   0  0  0  0  0  0  0  0  0  0  0  0
   -0.6495   -0.8841   -1.8734 H   0  0  0  0  0  0  0  0  0  0  0  0
    1.7959   -0.4738   -2.0813 H   0  0  0  0  0  0  0  0  0  0  0  0
   -3.3515    0.5497   -1.0714 H   0  0  0  0  0  0  0  0  0  0  0  0
   -5.0589   -0.2989    0.2460 H   0  0  0  0  0  0  0  0  0  0  0  0
   -3.9994   -2.0334   -1.0335 H   0  0  0  0  0  0  0  0  0  0  0  0
   -1.8541   -2.2969    1.0929 H   0  0  0  0  0  0  0  0  0  0  0  0
   -0.4261   -2.9127   -0.7940 H   0  0  0  0  0  0  0  0  0  0  0  0
   -1.5483   -3.5010   -2.7163 H   0  0  0  0  0  0  0  0  0  0  0  0
   -0.9537    0.7659   -1.4501 H   0  0  0  0  0  0  0  0  0  0  0  0
   -3.7401    2.0211    0.9278 H   0  0  0  0  0  0  0  0  0  0  0  0
   -2.3122    1.3273    1.6850 H   0  0  0  0  0  0  0  0  0  0  0  0
   -0.5940    2.6268    1.4635 H   0  0  0  0  0  0  0  0  0  0  0  0
    0.8769    4.1554    0.6652 H   0  0  0  0  0  0  0  0  0  0  0  0
    0.5660    0.5912    0.5078 H   0  0  0  0  0  0  0  0  0  0  0  0
    3.4710   -1.7338   -0.6356 H   0  0  0  0  0  0  0  0  0  0  0  0
    5.6347   -1.5670    0.5392 H   0  0  0  0  0  0  0  0  0  0  0  0
    1.4840    1.2162   -1.7462 H   0  0  0  0  0  0  0  0  0  0  0  0
    5.1633    2.6814    0.7952 H   0  0  0  0  0  0  0  0  0  0  0  0
    3.0028    2.5103   -0.3835 H   0  0  0  0  0  0  0  0  0  0  0  0
    0.4275    3.6775   -0.9727 H   0  0  0  0  0  0  0  0  0  0  0  0
   -0.4623    4.9636   -0.1518 H   0  0  0  0  0  0  0  0  0  0  0  0
    0.8599   -1.0986    0.1478 H   0  0  0  0  0  0  0  0  0  0  0  0
   -1.7677   -3.9915   -0.4445 H   0  0  0  0  0  0  0  0  0  0  0  0
   -5.1164   -3.2140    0.4757 H   0  0  0  0  0  0  0  0  0  0  0  0
   -4.2917   -1.4377    2.2928 H   0  0  0  0  0  0  0  0  0  0  0  0
  1  3  1  0
  1 17  1  0
  1 25  1  0
  1 33  1  0
  2 17  1  0
  2 18  1  0
  2 26  1  0
  2 41  1  0
  3  4  1  0
  3  7  1  0
  4  5  1  0
  4 12  1  0
  4 27  1  6
  5  6  1  0
  5  9  1  0
  5 28  1  1
  6  7  1  0
  6  8  1  0
  6 29  1  6
  7 10  1  0
  7 30  1  1
  8 48  1  0
  9 49  1  0
 10 11  1  0
 10 31  1  0
 10 47  1  0
 11 32  1  0
 12 13  1  0
 12 34  1  0
 12 35  1  0
 13 14  1  0
 13 16  2  0
 14 15  1  0
 14 36  1  0
 15 37  1  0
 15 44  1  0
 15 45  1  0
 17 38  1  0
 17 46  1  0
 18 19  2  0
 18 23  1  0
 19 20  1  0
 19 39  1  0
 20 21  2  0
 20 40  1  0
 21 22  1  0
 21 24  1  0
 22 23  2  0
 22 42  1  0
 23 43  1  0
M  END
