
     RDKit          3D

 34 33  0  0  0  0  0  0  0  0999 V2000
   -3.1427   -1.5787   -0.9896 N   0  0  0  0  0  0  0  0  0  0  0  0
   -3.1119   -0.6826    0.1399 C   0  0  2  0  0  0  0  0  0  0  0  0
   -4.4115    0.0885    0.3410 C   0  0  0  0  0  0  0  0  0  0  0  0
   -5.2919    0.1675   -0.4786 O   0  0  0  0  0  0  0  0  0  0  0  0
   -4.4653    0.6802    1.5287 O   0  0  0  0  0  0  0  0  0  0  0  0
   -1.9494    0.3115    0.0218 C   0  0  0  0  0  0  0  0  0  0  0  0
   -0.5992   -0.3832   -0.0863 C   0  0  0  0  0  0  0  0  0  0  0  0
    0.5202    0.6412   -0.1453 C   0  0  0  0  0  0  0  0  0  0  0  0
    1.8132   -0.0148   -0.2654 N   0  0  0  0  0  0  0  0  0  0  0  0
    2.9534    0.6000   -0.4535 C   0  0  0  0  0  0  0  0  0  0  0  0
    4.2171   -0.1956   -0.4922 C   0  0  0  0  0  0  0  0  0  0  0  0
    3.0233    1.9058   -0.5596 N   0  0  0  0  0  0  0  0  0  0  0  0
    4.8620   -0.2736    0.8974 C   0  0  0  0  0  0  0  0  0  0  0  0
    6.1385   -1.0992    0.8676 C   0  0  0  0  0  0  0  0  0  0  0  0
   -3.8448   -2.2938   -0.8506 H   0  0  0  0  0  0  0  0  0  0  0  0
   -3.4086   -1.0785   -1.8292 H   0  0  0  0  0  0  0  0  0  0  0  0
   -2.9496   -1.2819    1.0421 H   0  0  0  0  0  0  0  0  0  0  0  0
   -5.2875    1.1864    1.6127 H   0  0  0  0  0  0  0  0  0  0  0  0
   -1.9490    0.9721    0.8915 H   0  0  0  0  0  0  0  0  0  0  0  0
   -2.1051    0.9507   -0.8543 H   0  0  0  0  0  0  0  0  0  0  0  0
   -0.5720   -1.0120   -0.9774 H   0  0  0  0  0  0  0  0  0  0  0  0
   -0.4535   -1.0391    0.7776 H   0  0  0  0  0  0  0  0  0  0  0  0
    0.5129    1.2645    0.7532 H   0  0  0  0  0  0  0  0  0  0  0  0
    0.3747    1.2987   -1.0066 H   0  0  0  0  0  0  0  0  0  0  0  0
    1.8422   -1.0205   -0.1862 H   0  0  0  0  0  0  0  0  0  0  0  0
    4.9060    0.2687   -1.1998 H   0  0  0  0  0  0  0  0  0  0  0  0
    4.0007   -1.1987   -0.8627 H   0  0  0  0  0  0  0  0  0  0  0  0
    2.2231    2.5142   -0.4790 H   0  0  0  0  0  0  0  0  0  0  0  0
    3.9105    2.3516   -0.7282 H   0  0  0  0  0  0  0  0  0  0  0  0
    4.1525   -0.7120    1.6025 H   0  0  0  0  0  0  0  0  0  0  0  0
    5.0815    0.7345    1.2553 H   0  0  0  0  0  0  0  0  0  0  0  0
    6.8764   -0.6634    0.1928 H   0  0  0  0  0  0  0  0  0  0  0  0
    6.5863   -1.1517    1.8597 H   0  0  0  0  0  0  0  0  0  0  0  0
    5.9439   -2.1202    0.5362 H   0  0  0  0  0  0  0  0  0  0  0  0
  1  2  1  0
  1 15  1  0
  1 16  1  0
  2  3  1  0
  2  6  1  0
  2 17  1  1
  3  4  2  0
  3  5  1  0
  5 18  1  0
  6  7  1  0
  6 19  1  0
  6 20  1  0
  7  8  1  0
  7 21  1  0
  7 22  1  0
  8  9  1  0
  8 23  1  0
  8 24  1  0
  9 10  1  0
  9 25  1  0
 10 11  1  0
 10 12  2  0
 11 13  1  0
 11 26  1  0
 11 27  1  0
 12 28  1  0
 12 29  1  0
 13 14  1  0
 13 30  1  0
 13 31  1  0
 14 32  1  0
 14 33  1  0
 14 34  1  0
M  CHG  1  12   1
M  END
