
     RDKit          3D

 23 23  0  0  0  0  0  0  0  0999 V2000
    0.0106   -0.3642   -1.0333 C   0  0  0  0  0  0  0  0  0  0  0  0
   -4.7657   -0.2210   -1.1679 O   0  0  0  0  0  0  0  0  0  0  0  0
   -3.8532   -0.1064    0.1338 P   0  0  1  0  0  0  0  0  0  0  0  0
   -3.9541    1.3933    0.6626 O   0  0  0  0  0  0  0  0  0  0  0  0
   -4.1050   -1.0604    1.2268 O   0  0  0  0  0  0  0  0  0  0  0  0
   -2.4364   -0.2401   -0.6075 O   0  0  0  0  0  0  0  0  0  0  0  0
   -1.1905   -0.1365   -0.0159 B   0  0  0  0  0  0  0  0  0  0  0  0
   -1.0939    0.1289    1.2903 O   0  0  0  0  0  0  0  0  0  0  0  0
    1.3475   -0.1697   -0.4944 N   0  0  0  0  0  0  0  0  0  0  0  0
    1.5537    0.0350    0.8025 N   0  0  0  0  0  0  0  0  0  0  0  0
    2.8097    0.1623    1.0078 N   0  0  0  0  0  0  0  0  0  0  0  0
    3.4471    0.0399   -0.1740 C   0  0  0  0  0  0  0  0  0  0  0  0
    2.5064   -0.1775   -1.1530 C   0  0  0  0  0  0  0  0  0  0  0  0
    4.8990    0.1267   -0.3543 C   0  0  0  0  0  0  0  0  0  0  0  0
    5.4295    0.0141   -1.4321 O   0  0  0  0  0  0  0  0  0  0  0  0
    5.5386    0.3429    0.7812 O   0  0  0  0  0  0  0  0  0  0  0  0
   -0.0533   -1.3795   -1.4328 H   0  0  0  0  0  0  0  0  0  0  0  0
   -0.1097    0.3095   -1.8831 H   0  0  0  0  0  0  0  0  0  0  0  0
   -5.7124   -0.2219   -0.9721 H   0  0  0  0  0  0  0  0  0  0  0  0
   -3.8943    2.0879   -0.0065 H   0  0  0  0  0  0  0  0  0  0  0  0
   -0.1592    0.1729    1.5660 H   0  0  0  0  0  0  0  0  0  0  0  0
    2.5811   -0.3251   -2.2169 H   0  0  0  0  0  0  0  0  0  0  0  0
    6.4929    0.3899    0.6207 H   0  0  0  0  0  0  0  0  0  0  0  0
  5  3  2  0
  3  2  1  6
 15 14  2  0
  3  4  1  0
  3  6  1  0
 14 16  1  0
 14 12  1  0
  6  7  1  0
 13 12  2  0
 13  9  1  0
 12 11  1  0
  9  1  1  0
  9 10  1  0
  7  8  1  0
  7  1  1  0
 11 10  2  0
  1 17  1  0
  1 18  1  0
  2 19  1  0
  4 20  1  0
  8 21  1  0
 13 22  1  0
 16 23  1  0
M  END
