
     RDKit          3D

 43 45  0  0  0  0  0  0  0  0999 V2000
    6.6522   -3.2831    0.0060 N   0  0  0  0  0  0  0  0  0  0  0  0
   -4.8157   -1.7156   -0.3454 N   0  0  0  0  0  0  0  0  0  0  0  0
   -4.7464   -0.4082   -0.5831 C   0  0  0  0  0  0  0  0  0  0  0  0
   -3.6819    0.3746   -0.5710 N   0  0  0  0  0  0  0  0  0  0  0  0
   -2.5746   -0.3054   -0.2820 C   0  0  0  0  0  0  0  0  0  0  0  0
   -2.4870   -1.6634   -0.0180 C   0  0  0  0  0  0  0  0  0  0  0  0
   -3.6942   -2.3850   -0.0567 C   0  0  0  0  0  0  0  0  0  0  0  0
   -3.7587   -3.6955    0.1825 N   0  0  0  0  0  0  0  0  0  0  0  0
   -1.1889   -2.0305    0.2238 N   0  0  0  0  0  0  0  0  0  0  0  0
   -0.5127   -0.9249    0.1147 C   0  0  0  0  0  0  0  0  0  0  0  0
   -1.2940    0.1580   -0.1904 N   0  0  0  0  0  0  0  0  0  0  0  0
    6.0894   -2.0785    0.5968 C   0  0  0  0  0  0  0  0  0  0  0  0
    4.9615   -1.5339   -0.2697 C   0  0  0  0  0  0  0  0  0  0  0  0
    2.9965    0.3145   -0.7245 S   0  0  0  0  0  0  0  0  0  0  0  0
    4.3496   -0.2781    0.3313 C   0  0  0  0  0  0  0  0  0  0  0  0
   -0.8728    1.5310   -0.3478 C   0  0  1  0  0  0  0  0  0  0  0  0
   -0.6270    2.2572    0.9779 C   0  0  2  0  0  0  0  0  0  0  0  0
   -1.8177    2.8205    1.4392 O   0  0  0  0  0  0  0  0  0  0  0  0
    0.4483    3.2690    0.5688 C   0  0  2  0  0  0  0  0  0  0  0  0
   -0.1174    4.3388   -0.1402 O   0  0  0  0  0  0  0  0  0  0  0  0
    1.2784    2.4254   -0.3892 C   0  0  2  0  0  0  0  0  0  0  0  0
    0.3396    1.5651   -1.0415 O   0  0  0  0  0  0  0  0  0  0  0  0
    2.3478    1.6286    0.3423 C   0  0  0  0  0  0  0  0  0  0  0  0
    7.4326   -3.5993    0.5673 H   0  0  0  0  0  0  0  0  0  0  0  0
    5.9679   -4.0283    0.0518 H   0  0  0  0  0  0  0  0  0  0  0  0
   -4.6399   -4.1768    0.1386 H   0  0  0  0  0  0  0  0  0  0  0  0
   -2.9331   -4.2268    0.3949 H   0  0  0  0  0  0  0  0  0  0  0  0
    0.5613   -0.8436    0.2104 H   0  0  0  0  0  0  0  0  0  0  0  0
    5.7127   -2.2242    1.6197 H   0  0  0  0  0  0  0  0  0  0  0  0
    5.3467   -1.3240   -1.2709 H   0  0  0  0  0  0  0  0  0  0  0  0
    3.9496   -0.4882    1.3257 H   0  0  0  0  0  0  0  0  0  0  0  0
    5.1018    0.5074    0.4304 H   0  0  0  0  0  0  0  0  0  0  0  0
   -1.6684    2.0321   -0.9097 H   0  0  0  0  0  0  0  0  0  0  0  0
   -0.2033    1.5566    1.7075 H   0  0  0  0  0  0  0  0  0  0  0  0
   -1.7359    2.9915    2.3826 H   0  0  0  0  0  0  0  0  0  0  0  0
    1.0408    3.6123    1.4272 H   0  0  0  0  0  0  0  0  0  0  0  0
   -0.9028    4.6296    0.3384 H   0  0  0  0  0  0  0  0  0  0  0  0
    1.7532    3.0413   -1.1571 H   0  0  0  0  0  0  0  0  0  0  0  0
    1.9690    1.1848    1.2670 H   0  0  0  0  0  0  0  0  0  0  0  0
    3.1578    2.3085    0.6141 H   0  0  0  0  0  0  0  0  0  0  0  0
    6.8817   -1.3287    0.6663 H   0  0  0  0  0  0  0  0  0  0  0  0
    4.1860   -2.2984   -0.3793 H   0  0  0  0  0  0  0  0  0  0  0  0
   -5.6904    0.0732   -0.8157 H   0  0  0  0  0  0  0  0  0  0  0  0
  1 12  1  0
  2  3  2  0
  2  7  1  0
  3  4  1  0
  4  5  2  0
  5  6  1  0
  5 11  1  0
  6  7  2  0
  6  9  1  0
  7  8  1  0
  9 10  2  0
 10 11  1  0
 11 16  1  0
 12 13  1  0
 13 15  1  0
 14 15  1  0
 14 23  1  0
 16 17  1  0
 16 22  1  0
 17 18  1  0
 17 19  1  0
 19 20  1  0
 19 21  1  0
 21 22  1  0
 21 23  1  0
  1 24  1  0
  1 25  1  0
  3 43  1  0
  8 26  1  0
  8 27  1  0
 10 28  1  0
 12 29  1  0
 13 30  1  0
 15 31  1  0
 15 32  1  0
 16 33  1  6
 17 34  1  1
 18 35  1  0
 19 36  1  1
 20 37  1  0
 21 38  1  6
 23 39  1  0
 23 40  1  0
 12 41  1  0
 13 42  1  0
M  END
