
     RDKit          3D

 59 63  0  0  0  0  0  0  0  0999 V2000
    1.2752    4.6083    0.6855 N   0  0  0  0  0  0  0  0  0  0  0  0
    2.5218    4.1911    0.4715 C   0  0  0  0  0  0  0  0  0  0  0  0
    2.9337    3.0015    0.0853 N   0  0  0  0  0  0  0  0  0  0  0  0
    1.9165    2.1623   -0.1278 C   0  0  0  0  0  0  0  0  0  0  0  0
    0.5579    2.4585    0.0085 C   0  0  0  0  0  0  0  0  0  0  0  0
    0.2648    3.7590    0.4823 C   0  0  0  0  0  0  0  0  0  0  0  0
   -0.9720    4.1877    0.7387 N   0  0  0  0  0  0  0  0  0  0  0  0
    5.4540   -1.1492    1.9596 O   0  0  0  0  0  0  0  0  0  0  0  0
    6.7550   -2.5772    0.5539 C   0  0  0  0  0  0  0  0  0  0  0  0
   -7.2525   -3.5831    0.3443 C   0  0  0  0  0  0  0  0  0  0  0  0
   -7.4489   -2.5121    1.2049 C   0  0  0  0  0  0  0  0  0  0  0  0
   -6.4849   -3.4147   -0.8019 C   0  0  0  0  0  0  0  0  0  0  0  0
   -6.8768   -1.2762    0.9300 C   0  0  0  0  0  0  0  0  0  0  0  0
   -5.9148   -2.1833   -1.0912 C   0  0  0  0  0  0  0  0  0  0  0  0
   -3.7971    1.5026   -1.0266 C   0  0  0  0  0  0  0  0  0  0  0  0
   -3.3787   -0.5448    0.1729 C   0  0  0  0  0  0  0  0  0  0  0  0
   -2.4472    1.8017   -0.9791 C   0  0  0  0  0  0  0  0  0  0  0  0
   -2.0288   -0.2330    0.2098 C   0  0  0  0  0  0  0  0  0  0  0  0
    4.4563   -1.3566   -2.3436 C   0  0  0  0  0  0  0  0  0  0  0  0
    3.2393   -0.4554   -2.1598 C   0  0  0  0  0  0  0  0  0  0  0  0
    4.5017   -2.4368   -1.2708 C   0  0  0  0  0  0  0  0  0  0  0  0
    3.2763   -1.0501    0.2902 C   0  0  0  0  0  0  0  0  0  0  0  0
    0.7768    0.3204   -0.6133 N   0  0  0  0  0  0  0  0  0  0  0  0
   -6.1171   -1.1223   -0.2188 C   0  0  0  0  0  0  0  0  0  0  0  0
   -4.2667    0.3276   -0.4477 C   0  0  0  0  0  0  0  0  0  0  0  0
   -1.5413    0.9426   -0.3557 C   0  0  0  0  0  0  0  0  0  0  0  0
   -0.1077    1.2453   -0.3212 C   0  0  0  0  0  0  0  0  0  0  0  0
    3.1878    0.0863   -0.7337 C   0  0  2  0  0  0  0  0  0  0  0  0
    1.9949    0.8709   -0.4986 N   0  0  0  0  0  0  0  0  0  0  0  0
    4.4700   -1.8325    0.0505 N   0  0  0  0  0  0  0  0  0  0  0  0
    3.2953    4.9302    0.6517 H   0  0  0  0  0  0  0  0  0  0  0  0
    8.1587   -1.4955    1.8127 H   0  0  0  0  0  0  0  0  0  0  0  0
    7.4860   -2.9380    2.5686 H   0  0  0  0  0  0  0  0  0  0  0  0
    8.6993   -3.0905    1.3041 H   0  0  0  0  0  0  0  0  0  0  0  0
   -1.0987    5.0902    1.1655 H   0  0  0  0  0  0  0  0  0  0  0  0
   -1.7573    3.5607    0.7421 H   0  0  0  0  0  0  0  0  0  0  0  0
    7.1555   -2.2048   -0.3936 H   0  0  0  0  0  0  0  0  0  0  0  0
    6.4774   -3.6178    0.3657 H   0  0  0  0  0  0  0  0  0  0  0  0
   -8.0471   -2.6350    2.0982 H   0  0  0  0  0  0  0  0  0  0  0  0
   -6.3312   -4.2445   -1.4792 H   0  0  0  0  0  0  0  0  0  0  0  0
   -7.0258   -0.4372    1.5979 H   0  0  0  0  0  0  0  0  0  0  0  0
   -5.3224   -2.0496   -1.9881 H   0  0  0  0  0  0  0  0  0  0  0  0
   -4.4873    2.1741   -1.5208 H   0  0  0  0  0  0  0  0  0  0  0  0
   -3.7219   -1.4592    0.6381 H   0  0  0  0  0  0  0  0  0  0  0  0
   -2.0980    2.7051   -1.4649 H   0  0  0  0  0  0  0  0  0  0  0  0
   -1.3480   -0.9133    0.7048 H   0  0  0  0  0  0  0  0  0  0  0  0
    4.4289   -1.8242   -3.3294 H   0  0  0  0  0  0  0  0  0  0  0  0
    5.3753   -0.7645   -2.2959 H   0  0  0  0  0  0  0  0  0  0  0  0
    3.2641    0.3743   -2.8689 H   0  0  0  0  0  0  0  0  0  0  0  0
    2.3275   -1.0247   -2.3615 H   0  0  0  0  0  0  0  0  0  0  0  0
    3.6318   -3.0945   -1.3675 H   0  0  0  0  0  0  0  0  0  0  0  0
    5.3811   -3.0627   -1.3887 H   0  0  0  0  0  0  0  0  0  0  0  0
    3.2881   -0.6524    1.3019 H   0  0  0  0  0  0  0  0  0  0  0  0
    2.3999   -1.6980    0.1930 H   0  0  0  0  0  0  0  0  0  0  0  0
    4.0270    0.7674   -0.5734 H   0  0  0  0  0  0  0  0  0  0  0  0
   -5.6080    0.1203   -0.5084 O   0  0  0  0  0  0  0  0  0  0  0  0
    5.5121   -1.7858    0.9167 C   0  0  0  0  0  0  0  0  0  0  0  0
   -7.6980   -4.5446    0.5626 H   0  0  0  0  0  0  0  0  0  0  0  0
    7.8302   -2.5167    1.6249 C   0  0  0  0  0  0  0  0  0  0  0  0
  8 57  2  0
  9 57  1  0
  9 59  1  0
 57 30  1  0
  2  3  1  0
  2  1  2  0
  3  4  2  0
  1  6  1  0
 30 22  1  0
 30 21  1  0
 22 28  1  0
  4 29  1  0
  4  5  1  0
 28 29  1  0
 28 20  1  0
  6  5  2  0
  6  7  1  0
 21 19  1  0
 19 20  1  0
 29 23  1  0
  5 27  1  0
 23 27  2  0
 27 26  1  0
 26 17  1  0
 26 18  2  0
 17 15  2  0
 18 16  1  0
 15 25  1  0
 16 25  2  0
 25 56  1  0
 13 11  1  0
 13 24  2  0
 56 24  1  0
 11 10  2  0
 24 14  1  0
 10 12  1  0
 14 12  2  0
  2 31  1  0
 59 32  1  0
 59 33  1  0
 59 34  1  0
  7 35  1  0
  7 36  1  0
  9 37  1  0
  9 38  1  0
 10 58  1  0
 11 39  1  0
 12 40  1  0
 13 41  1  0
 14 42  1  0
 15 43  1  0
 16 44  1  0
 17 45  1  0
 18 46  1  0
 19 47  1  0
 19 48  1  0
 20 49  1  0
 20 50  1  0
 21 51  1  0
 21 52  1  0
 22 53  1  0
 22 54  1  0
 28 55  1  1
M  END
