
     RDKit          3D

 50 53  0  0  0  0  0  0  0  0999 V2000
   -2.0453   -0.0866   -1.6110 C   0  0  0  0  0  0  0  0  0  0  0  0
   -1.1385    0.0725   -5.8434 C   0  0  0  0  0  0  0  0  0  0  0  0
    1.9135    0.4082   -1.1406 C   0  0  0  0  0  0  0  0  0  0  0  0
    3.4212    0.4628   -1.2801 C   0  0  1  0  0  0  0  0  0  0  0  0
    4.0327    0.7066    0.1011 C   0  0  0  0  0  0  0  0  0  0  0  0
    5.5560    0.7445    0.0482 C   0  0  0  0  0  0  0  0  0  0  0  0
    6.1221   -0.5275   -0.5721 C   0  0  0  0  0  0  0  0  0  0  0  0
    5.5200   -0.7795   -1.9497 C   0  0  0  0  0  0  0  0  0  0  0  0
    3.9953   -0.8105   -1.9020 C   0  0  0  0  0  0  0  0  0  0  0  0
   -1.0414    0.1061    2.7543 C   0  0  0  0  0  0  0  0  0  0  0  0
   -2.0844   -0.1934    3.6156 C   0  0  0  0  0  0  0  0  0  0  0  0
   -3.3460   -0.4921    3.1070 C   0  0  0  0  0  0  0  0  0  0  0  0
   -3.5481   -0.4872    1.7465 C   0  0  0  0  0  0  0  0  0  0  0  0
   -2.6975    1.0902    5.8406 N   0  0  0  0  0  0  0  0  0  0  0  0
   -0.7277    0.0799   -1.4733 N   0  0  0  0  0  0  0  0  0  0  0  0
    0.0264    0.1811   -2.5502 C   0  0  0  0  0  0  0  0  0  0  0  0
    1.3286    0.3362   -2.4470 O   0  0  0  0  0  0  0  0  0  0  0  0
   -0.5608    0.1216   -3.8168 C   0  0  0  0  0  0  0  0  0  0  0  0
   -0.0798    0.1963   -5.1002 N   0  0  0  0  0  0  0  0  0  0  0  0
   -2.2901   -0.0797   -5.1253 N   0  0  0  0  0  0  0  0  0  0  0  0
   -1.9442   -0.0511   -3.8136 C   0  0  0  0  0  0  0  0  0  0  0  0
   -2.7250   -0.1604   -2.7478 N   0  0  0  0  0  0  0  0  0  0  0  0
   -2.8175   -0.2081   -0.4846 N   0  0  0  0  0  0  0  0  0  0  0  0
   -2.5009   -0.1893    0.8561 C   0  0  0  0  0  0  0  0  0  0  0  0
   -1.2407    0.1113    1.3840 C   0  0  0  0  0  0  0  0  0  0  0  0
   -0.3924   -0.0771    5.5953 O   0  0  0  0  0  0  0  0  0  0  0  0
   -2.4977   -1.3776    5.9383 O   0  0  0  0  0  0  0  0  0  0  0  0
   -1.1503    0.0837   -6.9223 H   0  0  0  0  0  0  0  0  0  0  0  0
    1.5391    1.2996   -0.6291 H   0  0  0  0  0  0  0  0  0  0  0  0
    1.6178   -0.4671   -0.5548 H   0  0  0  0  0  0  0  0  0  0  0  0
    3.6816    1.3162   -1.9194 H   0  0  0  0  0  0  0  0  0  0  0  0
    3.6505    1.6417    0.5207 H   0  0  0  0  0  0  0  0  0  0  0  0
    3.7168   -0.0927    0.7825 H   0  0  0  0  0  0  0  0  0  0  0  0
    5.8780    1.6118   -0.5385 H   0  0  0  0  0  0  0  0  0  0  0  0
    5.9557    0.8885    1.0549 H   0  0  0  0  0  0  0  0  0  0  0  0
    7.2108   -0.4633   -0.6405 H   0  0  0  0  0  0  0  0  0  0  0  0
    5.9018   -1.3772    0.0834 H   0  0  0  0  0  0  0  0  0  0  0  0
    5.8432    0.0111   -2.6360 H   0  0  0  0  0  0  0  0  0  0  0  0
    5.8962   -1.7185   -2.3629 H   0  0  0  0  0  0  0  0  0  0  0  0
    3.6655   -1.6734   -1.3099 H   0  0  0  0  0  0  0  0  0  0  0  0
    3.5997   -0.9576   -2.9095 H   0  0  0  0  0  0  0  0  0  0  0  0
   -0.0584    0.3426    3.1374 H   0  0  0  0  0  0  0  0  0  0  0  0
   -4.1728   -0.7280    3.7639 H   0  0  0  0  0  0  0  0  0  0  0  0
   -4.5308   -0.7249    1.3578 H   0  0  0  0  0  0  0  0  0  0  0  0
   -2.8813    1.0640    6.8394 H   0  0  0  0  0  0  0  0  0  0  0  0
   -2.2527    1.9676    5.5912 H   0  0  0  0  0  0  0  0  0  0  0  0
   -3.2181   -0.1937   -5.5037 H   0  0  0  0  0  0  0  0  0  0  0  0
   -3.7902   -0.3751   -0.6957 H   0  0  0  0  0  0  0  0  0  0  0  0
   -0.4181    0.3459    0.7311 H   0  0  0  0  0  0  0  0  0  0  0  0
   -1.8227   -0.2263    5.3538 S   0  0  2  0  0  0  0  0  0  0  0  0
  1 15  2  0
  1 22  1  0
  1 23  1  0
  2 19  2  0
  2 20  1  0
  2 28  1  0
  3  4  1  0
  3 17  1  0
  3 29  1  0
  3 30  1  0
  4  5  1  0
  4  9  1  0
  4 31  1  6
  5  6  1  0
  5 32  1  0
  5 33  1  0
  6  7  1  0
  6 34  1  0
  6 35  1  0
  7  8  1  0
  7 36  1  0
  7 37  1  0
  8  9  1  0
  8 38  1  0
  8 39  1  0
  9 40  1  0
  9 41  1  0
 10 11  2  0
 10 25  1  0
 10 42  1  0
 11 12  1  0
 11 50  1  0
 12 13  2  0
 12 43  1  0
 13 24  1  0
 13 44  1  0
 50 14  1  1
 14 45  1  0
 14 46  1  0
 15 16  1  0
 16 17  1  0
 16 18  2  0
 18 19  1  0
 18 21  1  0
 20 21  1  0
 20 47  1  0
 21 22  2  0
 23 24  1  0
 23 48  1  0
 24 25  2  0
 25 49  1  0
 50 26  2  0
 50 27  2  0
M  END
