
     RDKit          3D

 82 87  0  0  0  0  0  0  0  0999 V2000
   -4.4071    4.6127   -2.1957 C   0  0  0  0  0  0  0  0  0  0  0  0
   -5.4683    3.5111   -2.1081 C   0  0  1  0  0  0  0  0  0  0  0  0
   -6.7636    4.1035   -1.5362 C   0  0  0  0  0  0  0  0  0  0  0  0
   -5.7436    2.9615   -3.5071 C   0  0  0  0  0  0  0  0  0  0  0  0
   -4.9888    2.4274   -1.1789 C   0  0  0  0  0  0  0  0  0  0  0  0
   -4.4675    2.6039    0.1224 C   0  0  0  0  0  0  0  0  0  0  0  0
   -4.2186    1.3310    0.5740 C   0  0  0  0  0  0  0  0  0  0  0  0
   -3.7524    0.8389    1.7743 N   0  0  0  0  0  0  0  0  0  0  0  0
   -2.9139    1.5422    2.6141 C   0  0  0  0  0  0  0  0  0  0  0  0
   -2.5732    2.6883    2.3836 O   0  0  0  0  0  0  0  0  0  0  0  0
   -2.5214    0.8339    3.6971 N   0  0  0  0  0  0  0  0  0  0  0  0
   -1.5340    1.3100    4.6361 C   0  0  0  0  0  0  0  0  0  0  0  0
   -0.3485    0.3788    4.7405 C   0  0  0  0  0  0  0  0  0  0  0  0
   -0.1382   -0.3147    5.9278 C   0  0  0  0  0  0  0  0  0  0  0  0
    0.9245   -1.1942    6.0791 C   0  0  0  0  0  0  0  0  0  0  0  0
    1.8087   -1.3810    5.0280 C   0  0  0  0  0  0  0  0  0  0  0  0
    1.6300   -0.6884    3.8396 C   0  0  0  0  0  0  0  0  0  0  0  0
    0.5521    0.1773    3.6871 C   0  0  0  0  0  0  0  0  0  0  0  0
    0.3227    1.1016    2.1889 S   0  0  0  0  0  0  0  0  0  0  0  0
    1.0153    0.0304    0.9781 C   0  0  0  0  0  0  0  0  0  0  0  0
    0.5029   -1.2925    0.7877 C   0  0  0  0  0  0  0  0  0  0  0  0
    0.9703   -2.0769   -0.2136 C   0  0  0  0  0  0  0  0  0  0  0  0
    1.9586   -1.5524   -1.0795 C   0  0  0  0  0  0  0  0  0  0  0  0
    2.5864   -2.0795   -2.1065 N   0  0  0  0  0  0  0  0  0  0  0  0
    3.4271   -1.1486   -2.5818 N   0  0  0  0  0  0  0  0  0  0  0  0
    3.3294   -0.0598   -1.8658 C   0  0  0  0  0  0  0  0  0  0  0  0
    4.0598    1.1896   -2.0724 C   0  0  0  0  0  0  0  0  0  0  0  0
    3.3504    2.3775   -2.2377 C   0  0  0  0  0  0  0  0  0  0  0  0
    4.0088    3.5779   -2.4459 C   0  0  0  0  0  0  0  0  0  0  0  0
    5.3944    3.5874   -2.5075 C   0  0  0  0  0  0  0  0  0  0  0  0
    6.1150    2.4121   -2.3581 C   0  0  0  0  0  0  0  0  0  0  0  0
    5.4628    1.2031   -2.1247 C   0  0  0  0  0  0  0  0  0  0  0  0
    6.3322   -0.3128   -1.8960 S   0  0  0  0  0  0  0  0  0  0  0  0
    7.9837    0.2460   -1.3893 C   0  0  0  0  0  0  0  0  0  0  0  0
    8.6993   -0.9473   -0.7771 C   0  0  0  0  0  0  0  0  0  0  0  0
   10.0038   -0.5322   -0.4492 O   0  0  0  0  0  0  0  0  0  0  0  0
    2.4003   -0.2647   -0.8836 N   0  0  0  0  0  0  0  0  0  0  0  0
    1.9670    0.5222    0.1480 C   0  0  0  0  0  0  0  0  0  0  0  0
   -4.5642    0.4862   -0.4353 N   0  0  0  0  0  0  0  0  0  0  0  0
   -5.0542    1.1542   -1.4967 N   0  0  0  0  0  0  0  0  0  0  0  0
   -4.5670   -0.9223   -0.4343 C   0  0  0  0  0  0  0  0  0  0  0  0
   -5.6929   -1.6085   -0.8726 C   0  0  0  0  0  0  0  0  0  0  0  0
   -5.7076   -2.9906   -0.8726 C   0  0  0  0  0  0  0  0  0  0  0  0
   -4.6146   -3.7192   -0.4102 C   0  0  0  0  0  0  0  0  0  0  0  0
   -4.5834   -5.0551   -0.3625 O   0  0  0  0  0  0  0  0  0  0  0  0
   -3.4931   -3.0151    0.0262 C   0  0  0  0  0  0  0  0  0  0  0  0
   -2.1334   -3.9066    0.6110 Cl  0  0  0  0  0  0  0  0  0  0  0  0
   -3.4521   -1.6322   -0.0048 C   0  0  0  0  0  0  0  0  0  0  0  0
   -4.1924    5.0476   -1.2183 H   0  0  0  0  0  0  0  0  0  0  0  0
   -3.4698    4.2320   -2.6049 H   0  0  0  0  0  0  0  0  0  0  0  0
   -4.7531    5.4198   -2.8447 H   0  0  0  0  0  0  0  0  0  0  0  0
   -7.1241    4.9142   -2.1728 H   0  0  0  0  0  0  0  0  0  0  0  0
   -7.5494    3.3483   -1.4760 H   0  0  0  0  0  0  0  0  0  0  0  0
   -6.6129    4.5093   -0.5343 H   0  0  0  0  0  0  0  0  0  0  0  0
   -4.8439    2.5446   -3.9619 H   0  0  0  0  0  0  0  0  0  0  0  0
   -6.5038    2.1804   -3.4940 H   0  0  0  0  0  0  0  0  0  0  0  0
   -6.1019    3.7665   -4.1519 H   0  0  0  0  0  0  0  0  0  0  0  0
   -4.3157    3.5256    0.6544 H   0  0  0  0  0  0  0  0  0  0  0  0
   -4.0517   -0.0876    2.0401 H   0  0  0  0  0  0  0  0  0  0  0  0
   -2.8547   -0.1074    3.8310 H   0  0  0  0  0  0  0  0  0  0  0  0
   -1.2255    2.3098    4.3309 H   0  0  0  0  0  0  0  0  0  0  0  0
   -1.9819    1.4148    5.6267 H   0  0  0  0  0  0  0  0  0  0  0  0
   -0.8309   -0.1652    6.7476 H   0  0  0  0  0  0  0  0  0  0  0  0
    1.0588   -1.7270    7.0110 H   0  0  0  0  0  0  0  0  0  0  0  0
    2.6481   -2.0562    5.1298 H   0  0  0  0  0  0  0  0  0  0  0  0
    2.3409   -0.8239    3.0348 H   0  0  0  0  0  0  0  0  0  0  0  0
   -0.2567   -1.6668    1.4609 H   0  0  0  0  0  0  0  0  0  0  0  0
    2.4071    1.5037    0.2456 H   0  0  0  0  0  0  0  0  0  0  0  0
    0.6061   -3.0803   -0.3786 H   0  0  0  0  0  0  0  0  0  0  0  0
    2.2676    2.3597   -2.2163 H   0  0  0  0  0  0  0  0  0  0  0  0
    3.4442    4.4914   -2.5713 H   0  0  0  0  0  0  0  0  0  0  0  0
    5.9257    4.5136   -2.6832 H   0  0  0  0  0  0  0  0  0  0  0  0
    7.1928    2.4509   -2.4265 H   0  0  0  0  0  0  0  0  0  0  0  0
    8.5402    0.6159   -2.2514 H   0  0  0  0  0  0  0  0  0  0  0  0
    7.8862    1.0488   -0.6569 H   0  0  0  0  0  0  0  0  0  0  0  0
    8.1438   -1.2862    0.1054 H   0  0  0  0  0  0  0  0  0  0  0  0
    8.7078   -1.7787   -1.4931 H   0  0  0  0  0  0  0  0  0  0  0  0
   10.4768   -1.2891   -0.0912 H   0  0  0  0  0  0  0  0  0  0  0  0
   -6.5604   -1.0635   -1.2176 H   0  0  0  0  0  0  0  0  0  0  0  0
   -2.5498   -1.1162    0.2955 H   0  0  0  0  0  0  0  0  0  0  0  0
   -6.5896   -3.5138   -1.2217 H   0  0  0  0  0  0  0  0  0  0  0  0
   -5.4120   -5.4245   -0.6903 H   0  0  0  0  0  0  0  0  0  0  0  0
  2  1  1  6
  2  3  1  0
  2  4  1  0
  2  5  1  0
  5  6  1  0
  5 40  2  0
  6  7  2  0
  7  8  1  0
  7 39  1  0
  8  9  1  0
  9 10  2  0
  9 11  1  0
 11 12  1  0
 12 13  1  0
 13 14  2  0
 13 18  1  0
 14 15  1  0
 15 16  2  0
 16 17  1  0
 17 18  2  0
 18 19  1  0
 19 20  1  0
 20 21  1  0
 20 38  2  0
 21 22  2  0
 22 23  1  0
 23 24  2  0
 23 37  1  0
 24 25  1  0
 25 26  2  0
 26 27  1  0
 26 37  1  0
 27 28  2  0
 27 32  1  0
 28 29  1  0
 29 30  2  0
 30 31  1  0
 31 32  2  0
 32 33  1  0
 33 34  1  0
 34 35  1  0
 35 36  1  0
 37 38  1  0
 39 40  1  0
 39 41  1  0
 41 42  2  0
 41 48  1  0
 42 43  1  0
 43 44  2  0
 44 45  1  0
 44 46  1  0
 46 47  1  0
 46 48  2  0
  1 49  1  0
  1 50  1  0
  1 51  1  0
  3 52  1  0
  3 53  1  0
  3 54  1  0
  4 55  1  0
  4 56  1  0
  4 57  1  0
  6 58  1  0
  8 59  1  0
 11 60  1  0
 12 61  1  0
 12 62  1  0
 14 63  1  0
 15 64  1  0
 16 65  1  0
 17 66  1  0
 21 67  1  0
 38 68  1  0
 22 69  1  0
 28 70  1  0
 29 71  1  0
 30 72  1  0
 31 73  1  0
 34 74  1  0
 34 75  1  0
 35 76  1  0
 35 77  1  0
 36 78  1  0
 42 79  1  0
 48 80  1  0
 43 81  1  0
 45 82  1  0
M  END
