
     RDKit          3D

 23 24  0  0  0  0  0  0  0  0999 V2000
    0.5460    0.8343   -1.6204 C   0  0  0  0  0  0  0  0  0  0  0  0
    0.2771    0.9272    0.7536 C   0  0  0  0  0  0  0  0  0  0  0  0
    1.8127    0.2834   -1.4670 C   0  0  0  0  0  0  0  0  0  0  0  0
    1.5383    0.3811    0.9296 C   0  0  0  0  0  0  0  0  0  0  0  0
   -3.5159    1.2523    0.9582 C   0  0  0  0  0  0  0  0  0  0  0  0
   -0.2348    1.1640   -0.5198 C   0  0  0  0  0  0  0  0  0  0  0  0
    2.2975    0.0620   -0.1889 C   0  0  0  0  0  0  0  0  0  0  0  0
   -2.6840    0.9440   -0.0618 C   0  0  0  0  0  0  0  0  0  0  0  0
   -4.2700   -0.7827    0.6410 C   0  0  0  0  0  0  0  0  0  0  0  0
   -1.6096    1.7621   -0.6931 C   0  0  0  0  0  0  0  0  0  0  0  0
   -4.4058    0.2899    1.3562 N   0  0  0  0  0  0  0  0  0  0  0  0
   -5.0471   -1.8866    0.7535 N   0  0  0  0  0  0  0  0  0  0  0  0
   -3.0258   -0.6847   -0.5788 S   0  0  0  0  0  0  0  0  0  0  0  0
    4.0173   -0.6878    0.0392 Br  0  0  0  0  0  0  0  0  0  0  0  0
    0.1677    1.0073   -2.6206 H   0  0  0  0  0  0  0  0  0  0  0  0
   -0.3161    1.1681    1.6279 H   0  0  0  0  0  0  0  0  0  0  0  0
    2.4003    0.0353   -2.3407 H   0  0  0  0  0  0  0  0  0  0  0  0
    1.9162    0.2092    1.9284 H   0  0  0  0  0  0  0  0  0  0  0  0
   -1.6406    2.7555   -0.2382 H   0  0  0  0  0  0  0  0  0  0  0  0
   -1.8108    1.9061   -1.7575 H   0  0  0  0  0  0  0  0  0  0  0  0
   -5.5572   -1.9709    1.6189 H   0  0  0  0  0  0  0  0  0  0  0  0
   -4.6940   -2.7609    0.4020 H   0  0  0  0  0  0  0  0  0  0  0  0
   -3.5079    2.2078    1.4670 H   0  0  0  0  0  0  0  0  0  0  0  0
 10  6  1  0
 10  8  1  0
  1  6  2  0
  1  3  1  0
  6  2  1  0
  3  7  2  0
  2  4  2  0
  7  4  1  0
  7 14  1  0
  5  8  2  0
  5 11  1  0
  8 13  1  0
 11  9  2  0
 13  9  1  0
  9 12  1  0
  1 15  1  0
  2 16  1  0
  3 17  1  0
  4 18  1  0
  5 23  1  0
 10 19  1  0
 10 20  1  0
 12 21  1  0
 12 22  1  0
M  END
