
     RDKit          3D

 20 21  0  0  0  0  0  0  0  0999 V2000
   -1.1371    0.5513    0.0097 C   0  0  0  0  0  0  0  0  0  0  0  0
   -2.5367    0.2069   -0.0027 N   0  0  0  0  0  0  0  0  0  0  0  0
   -3.3258    1.0269   -0.4182 O   0  0  0  0  0  0  0  0  0  0  0  0
   -0.8258    1.8922    0.0256 C   0  0  0  0  0  0  0  0  0  0  0  0
    2.2998   -0.7732    0.1252 N   0  0  0  0  0  0  0  0  0  0  0  0
   -2.8718   -0.8781    0.4220 O   0  0  0  0  0  0  0  0  0  0  0  0
    0.4913    2.3423    0.0981 C   0  0  0  0  0  0  0  0  0  0  0  0
    2.7781    1.8072    0.2164 O   0  0  0  0  0  0  0  0  0  0  0  0
    1.5149    1.4260    0.1431 C   0  0  0  0  0  0  0  0  0  0  0  0
    1.2197    0.0284    0.1030 C   0  0  0  0  0  0  0  0  0  0  0  0
    2.1265   -2.0649    0.0630 C   0  0  0  0  0  0  0  0  0  0  0  0
    0.8503   -2.6437   -0.0423 C   0  0  0  0  0  0  0  0  0  0  0  0
   -0.2601   -1.8452   -0.0558 C   0  0  0  0  0  0  0  0  0  0  0  0
   -0.1124   -0.4389    0.0348 C   0  0  0  0  0  0  0  0  0  0  0  0
   -1.6153    2.6291    0.0046 H   0  0  0  0  0  0  0  0  0  0  0  0
    0.6977    3.4033    0.1263 H   0  0  0  0  0  0  0  0  0  0  0  0
    3.3287    1.0024    0.2301 H   0  0  0  0  0  0  0  0  0  0  0  0
    3.0118   -2.6892    0.0862 H   0  0  0  0  0  0  0  0  0  0  0  0
    0.7533   -3.7178   -0.1134 H   0  0  0  0  0  0  0  0  0  0  0  0
   -1.2314   -2.3019   -0.1458 H   0  0  0  0  0  0  0  0  0  0  0  0
  1  2  1  0
  1  4  2  0
  1 14  1  0
  2  3  1  0
  2  6  2  0
  4  7  1  0
  5 10  1  0
  5 11  2  0
  7  9  2  0
  8  9  1  0
  9 10  1  0
 10 14  2  0
 11 12  1  0
 12 13  2  0
 13 14  1  0
  4 15  1  0
  7 16  1  0
  8 17  1  0
 11 18  1  0
 12 19  1  0
 13 20  1  0
M  CHG  2   2   1   3  -1
M  END
