
     RDKit          3D

 32 33  0  0  0  0  0  0  0  0999 V2000
   -0.9389   -1.6710   -0.1050 C   0  0  0  0  0  0  0  0  0  0  0  0
    0.3065   -1.0395   -0.0369 C   0  0  0  0  0  0  0  0  0  0  0  0
    0.4086    0.3633   -0.0279 C   0  0  0  0  0  0  0  0  0  0  0  0
   -0.7953    1.1015    0.0626 C   0  0  0  0  0  0  0  0  0  0  0  0
   -2.0234    0.4629   -0.0285 C   0  0  0  0  0  0  0  0  0  0  0  0
   -2.0996   -0.9267   -0.1378 C   0  0  0  0  0  0  0  0  0  0  0  0
    1.5168   -1.8227    0.0910 C   0  0  0  0  0  0  0  0  0  0  0  0
    2.6877   -1.1803    0.2575 C   0  0  0  0  0  0  0  0  0  0  0  0
    2.8175    0.2594    0.1898 C   0  0  0  0  0  0  0  0  0  0  0  0
    1.6650    0.9712   -0.0519 N   0  0  0  0  0  0  0  0  0  0  0  0
    1.8564    2.3429   -0.5247 C   0  0  0  0  0  0  0  0  0  0  0  0
    3.9073    0.8194    0.2802 O   0  0  0  0  0  0  0  0  0  0  0  0
    1.4559   -3.3165    0.0838 C   0  0  0  0  0  0  0  0  0  0  0  0
   -0.6953    2.4216    0.2818 O   0  0  0  0  0  0  0  0  0  0  0  0
   -1.8646    3.2131    0.3402 C   0  0  0  0  0  0  0  0  0  0  0  0
   -3.2588   -1.6043   -0.2430 O   0  0  0  0  0  0  0  0  0  0  0  0
   -4.4752   -0.8844   -0.2197 C   0  0  0  0  0  0  0  0  0  0  0  0
   -1.0034   -2.7501   -0.1222 H   0  0  0  0  0  0  0  0  0  0  0  0
   -2.9264    1.0540    0.0173 H   0  0  0  0  0  0  0  0  0  0  0  0
    3.6071   -1.7337    0.4013 H   0  0  0  0  0  0  0  0  0  0  0  0
    1.7845    3.0751    0.2760 H   0  0  0  0  0  0  0  0  0  0  0  0
    2.8454    2.4141   -0.9658 H   0  0  0  0  0  0  0  0  0  0  0  0
    1.1271    2.5761   -1.2926 H   0  0  0  0  0  0  0  0  0  0  0  0
    1.0241   -3.6882   -0.8468 H   0  0  0  0  0  0  0  0  0  0  0  0
    2.4506   -3.7437    0.1911 H   0  0  0  0  0  0  0  0  0  0  0  0
    0.8374   -3.6951    0.8993 H   0  0  0  0  0  0  0  0  0  0  0  0
   -2.4408    3.1621   -0.5870 H   0  0  0  0  0  0  0  0  0  0  0  0
   -2.5086    2.9283    1.1761 H   0  0  0  0  0  0  0  0  0  0  0  0
   -1.5298    4.2362    0.4892 H   0  0  0  0  0  0  0  0  0  0  0  0
   -4.6115   -0.3409    0.7189 H   0  0  0  0  0  0  0  0  0  0  0  0
   -4.5506   -0.1794   -1.0517 H   0  0  0  0  0  0  0  0  0  0  0  0
   -5.2702   -1.6197   -0.3146 H   0  0  0  0  0  0  0  0  0  0  0  0
  2  1  2  0
  6  1  1  0
  1 18  1  0
  3  2  1  0
  2  7  1  0
 10  3  1  0
  4  3  2  0
 14  4  1  0
  4  5  1  0
  5  6  2  0
  5 19  1  0
  6 16  1  0
  8  7  2  0
  7 13  1  0
  9  8  1  0
  8 20  1  0
 12  9  2  0
 10  9  1  0
 11 10  1  0
 11 21  1  0
 11 22  1  0
 11 23  1  0
 13 24  1  0
 13 25  1  0
 13 26  1  0
 15 14  1  0
 15 27  1  0
 15 28  1  0
 15 29  1  0
 16 17  1  0
 17 30  1  0
 17 31  1  0
 17 32  1  0
M  END
