
     RDKit          3D

 60 61  0  0  0  0  0  0  0  0999 V2000
   -6.2946    0.0434    0.8378 C   0  0  0  0  0  0  0  0  0  0  0  0
    3.0402   -0.2135    0.3613 C   0  0  0  0  0  0  0  0  0  0  0  0
    2.1643   -0.3189   -0.8849 C   0  0  2  0  0  0  0  0  0  0  0  0
   -0.2369   -0.5735   -1.2291 C   0  0  0  0  0  0  0  0  0  0  0  0
   -8.7572   -0.4672   -0.3216 C   0  0  0  0  0  0  0  0  0  0  0  0
    2.6455    0.6051   -2.0069 C   0  0  0  0  0  0  0  0  0  0  0  0
   -7.6004   -0.9212   -0.9279 C   0  0  0  0  0  0  0  0  0  0  0  0
   -1.5993   -0.1805   -0.7004 C   0  0  0  0  0  0  0  0  0  0  0  0
   -6.3542   -0.6588   -0.3619 C   0  0  0  0  0  0  0  0  0  0  0  0
    7.2961   -1.9211    1.4209 C   0  0  0  0  0  0  0  0  0  0  0  0
    8.5544   -2.3344    1.0035 C   0  0  0  0  0  0  0  0  0  0  0  0
    6.6533   -0.8706    0.7770 C   0  0  0  0  0  0  0  0  0  0  0  0
    9.1768   -1.7002   -0.0627 C   0  0  0  0  0  0  0  0  0  0  0  0
    5.2844   -0.4232    1.2380 C   0  0  1  0  0  0  0  0  0  0  0  0
    8.5384   -0.6489   -0.7086 C   0  0  0  0  0  0  0  0  0  0  0  0
    5.3989    1.0038    1.7640 C   0  0  0  0  0  0  0  0  0  0  0  0
    7.2835   -0.2322   -0.2893 C   0  0  0  0  0  0  0  0  0  0  0  0
    5.1968    1.9883    1.1060 O   0  0  0  0  0  0  0  0  0  0  0  0
    5.8107    1.0083    3.0217 O   0  0  0  0  0  0  0  0  0  0  0  0
    4.3401   -0.4813    0.1542 N   0  0  0  0  0  0  0  0  0  0  0  0
    2.6035    0.0772    1.4603 O   0  0  0  0  0  0  0  0  0  0  0  0
    2.2757    2.5019   -0.5754 O   0  0  0  0  0  0  0  0  0  0  0  0
    3.2583    2.7985   -2.5566 O   0  0  0  0  0  0  0  0  0  0  0  0
    0.7952   -0.0922   -0.5159 N   0  0  0  0  0  0  0  0  0  0  0  0
   -0.0867   -1.2610   -2.2287 O   0  0  0  0  0  0  0  0  0  0  0  0
   -2.7273   -0.9231   -1.3942 C   0  0  0  0  0  0  0  0  0  0  0  0
   -3.9929   -0.5183   -0.8182 N   0  0  0  0  0  0  0  0  0  0  0  0
   -5.1342   -1.1849   -1.0490 C   0  0  0  0  0  0  0  0  0  0  0  0
   -5.1908   -2.1707   -1.7722 O   0  0  0  0  0  0  0  0  0  0  0  0
   -7.4563    0.4814    1.4555 C   0  0  0  0  0  0  0  0  0  0  0  0
   -8.7005    0.2331    0.8820 C   0  0  0  0  0  0  0  0  0  0  0  0
   -9.9635    0.7085    1.5144 C   0  0  0  0  0  0  0  0  0  0  0  0
  -10.9739    0.9234    0.7633 N   0  0  0  0  0  0  0  0  0  0  0  0
   -9.8957    0.9239    2.8596 N   0  0  0  0  0  0  0  0  0  0  0  0
   -5.3469    0.2392    1.3234 H   0  0  0  0  0  0  0  0  0  0  0  0
    2.2586   -1.3441   -1.2569 H   0  0  0  0  0  0  0  0  0  0  0  0
   -9.7183   -0.6635   -0.7764 H   0  0  0  0  0  0  0  0  0  0  0  0
    3.6239    0.2946   -2.3807 H   0  0  0  0  0  0  0  0  0  0  0  0
    1.9726    0.5024   -2.8627 H   0  0  0  0  0  0  0  0  0  0  0  0
   -7.6652   -1.4801   -1.8519 H   0  0  0  0  0  0  0  0  0  0  0  0
   -1.6377   -0.3575    0.3778 H   0  0  0  0  0  0  0  0  0  0  0  0
   -1.7159    0.8997   -0.8377 H   0  0  0  0  0  0  0  0  0  0  0  0
    6.8115   -2.4232    2.2493 H   0  0  0  0  0  0  0  0  0  0  0  0
    9.0465   -3.1536    1.5110 H   0  0  0  0  0  0  0  0  0  0  0  0
   10.1569   -2.0222   -0.3892 H   0  0  0  0  0  0  0  0  0  0  0  0
    4.9594   -1.0687    2.0587 H   0  0  0  0  0  0  0  0  0  0  0  0
    9.0207   -0.1476   -1.5374 H   0  0  0  0  0  0  0  0  0  0  0  0
    6.8029    0.5966   -0.7959 H   0  0  0  0  0  0  0  0  0  0  0  0
    5.9471    1.9181    3.3266 H   0  0  0  0  0  0  0  0  0  0  0  0
    4.6550   -0.8246   -0.7389 H   0  0  0  0  0  0  0  0  0  0  0  0
    3.2628    3.7296   -2.2876 H   0  0  0  0  0  0  0  0  0  0  0  0
    0.6192    0.4819    0.2940 H   0  0  0  0  0  0  0  0  0  0  0  0
   -2.7110   -0.7245   -2.4684 H   0  0  0  0  0  0  0  0  0  0  0  0
   -2.6078   -1.9991   -1.2644 H   0  0  0  0  0  0  0  0  0  0  0  0
   -4.0338    0.3745   -0.3538 H   0  0  0  0  0  0  0  0  0  0  0  0
   -7.3753    1.0310    2.3841 H   0  0  0  0  0  0  0  0  0  0  0  0
  -11.7799    1.2202    1.3071 H   0  0  0  0  0  0  0  0  0  0  0  0
   -9.2414    0.3861    3.4037 H   0  0  0  0  0  0  0  0  0  0  0  0
  -10.7571    1.1230    3.3430 H   0  0  0  0  0  0  0  0  0  0  0  0
    2.6974    2.0551   -1.6106 C   0  0  0  0  0  0  0  0  0  0  0  0
 18 16  2  0
 11 10  2  0
 11 13  1  0
 10 12  1  0
 16 19  1  0
 16 14  1  0
 13 15  2  0
 12 14  1  0
 12 17  2  0
 14 20  1  0
 15 17  1  0
 20  2  1  0
 21  2  2  0
  2  3  1  0
 26 27  1  0
 26  8  1  0
 27 28  1  0
 25  4  2  0
  3 24  1  0
  3  6  1  0
 22 60  2  0
  4 24  1  0
  4  8  1  0
 33 32  2  0
  7  5  2  0
  7  9  1  0
 60  6  1  0
 60 23  1  0
  5 31  1  0
 28  9  1  0
 28 29  2  0
  9  1  2  0
 31 32  1  0
 31 30  2  0
 32 34  1  0
  1 30  1  0
  1 35  1  0
  3 36  1  6
  5 37  1  0
  6 38  1  0
  6 39  1  0
  7 40  1  0
  8 41  1  0
  8 42  1  0
 10 43  1  0
 11 44  1  0
 13 45  1  0
 14 46  1  1
 15 47  1  0
 17 48  1  0
 19 49  1  0
 20 50  1  0
 23 51  1  0
 24 52  1  0
 26 53  1  0
 26 54  1  0
 27 55  1  0
 30 56  1  0
 33 57  1  0
 34 58  1  0
 34 59  1  0
M  END
