
     RDKit          3D

 70 74  0  0  0  0  0  0  0  0999 V2000
    2.3985    1.1685   -0.4084 C   0  0  0  0  0  0  0  0  0  0  0  0
    1.1376    1.8775   -0.2031 C   0  0  0  0  0  0  0  0  0  0  0  0
    1.0667    3.2697   -0.1364 C   0  0  0  0  0  0  0  0  0  0  0  0
   -0.1560    3.8916    0.0633 C   0  0  0  0  0  0  0  0  0  0  0  0
   -1.3161    3.1455    0.2006 C   0  0  0  0  0  0  0  0  0  0  0  0
   -3.5987    1.4307    0.4576 N   0  0  0  0  0  0  0  0  0  0  0  0
   -6.1537    2.2641    0.8463 O   0  0  0  0  0  0  0  0  0  0  0  0
   -5.8966    1.0790    0.7883 C   0  0  0  0  0  0  0  0  0  0  0  0
   -6.9670    0.0026    0.8612 C   0  0  2  0  0  0  0  0  0  0  0  0
   -7.4922   -0.2623   -0.5700 C   0  0  0  0  0  0  0  0  0  0  0  0
   -8.5494   -1.3153   -0.5962 C   0  0  0  0  0  0  0  0  0  0  0  0
   -9.9617   -1.1390   -0.4186 C   0  0  0  0  0  0  0  0  0  0  0  0
  -10.7864   -0.0234   -0.2246 C   0  0  0  0  0  0  0  0  0  0  0  0
  -12.1485   -0.2108   -0.0979 C   0  0  0  0  0  0  0  0  0  0  0  0
  -12.7130   -1.4965   -0.1583 C   0  0  0  0  0  0  0  0  0  0  0  0
  -11.9268   -2.6160   -0.3493 C   0  0  0  0  0  0  0  0  0  0  0  0
  -10.5521   -2.4217   -0.4794 C   0  0  0  0  0  0  0  0  0  0  0  0
   -9.5475   -3.3214   -0.6786 N   0  0  0  0  0  0  0  0  0  0  0  0
   -8.3549   -2.6604   -0.7498 C   0  0  0  0  0  0  0  0  0  0  0  0
   -7.9614    0.4116    1.8279 N   0  0  0  0  0  0  0  0  0  0  0  0
   -4.6394    0.5957    0.6050 N   0  0  0  0  0  0  0  0  0  0  0  0
   -1.2613    1.7523    0.1361 C   0  0  0  0  0  0  0  0  0  0  0  0
   -0.0312    1.1323   -0.0683 C   0  0  0  0  0  0  0  0  0  0  0  0
    2.3402    0.0811   -0.4988 H   0  0  0  0  0  0  0  0  0  0  0  0
    1.9654    3.8626   -0.2423 H   0  0  0  0  0  0  0  0  0  0  0  0
   -0.2054    4.9712    0.1125 H   0  0  0  0  0  0  0  0  0  0  0  0
   -2.2639    3.6418    0.3619 H   0  0  0  0  0  0  0  0  0  0  0  0
   -6.5211   -0.9296    1.2219 H   0  0  0  0  0  0  0  0  0  0  0  0
   -7.8791    0.6742   -0.9838 H   0  0  0  0  0  0  0  0  0  0  0  0
   -6.6568   -0.5621   -1.2088 H   0  0  0  0  0  0  0  0  0  0  0  0
  -10.3672    0.9748   -0.1762 H   0  0  0  0  0  0  0  0  0  0  0  0
  -12.7958    0.6437    0.0519 H   0  0  0  0  0  0  0  0  0  0  0  0
  -13.7844   -1.6110   -0.0552 H   0  0  0  0  0  0  0  0  0  0  0  0
  -12.3616   -3.6066   -0.3966 H   0  0  0  0  0  0  0  0  0  0  0  0
   -9.6613   -4.3165   -0.7730 H   0  0  0  0  0  0  0  0  0  0  0  0
   -7.4372   -3.2041   -0.9136 H   0  0  0  0  0  0  0  0  0  0  0  0
   -8.4228    1.2586    1.5189 H   0  0  0  0  0  0  0  0  0  0  0  0
   -8.6787   -0.2996    1.8952 H   0  0  0  0  0  0  0  0  0  0  0  0
   -4.4865   -0.4070    0.5792 H   0  0  0  0  0  0  0  0  0  0  0  0
   -2.2960   -0.1654    0.2484 H   0  0  0  0  0  0  0  0  0  0  0  0
    0.0190    0.0499   -0.1175 H   0  0  0  0  0  0  0  0  0  0  0  0
    3.5014    1.7961   -0.4729 N   0  0  0  0  0  0  0  0  0  0  0  0
    4.6181    1.0771   -0.6720 N   0  0  0  0  0  0  0  0  0  0  0  0
    5.8318    1.6858   -0.7137 C   0  0  0  0  0  0  0  0  0  0  0  0
    7.0021    0.7249   -0.8574 C   0  0  1  0  0  0  0  0  0  0  0  0
    5.9834    2.8846   -0.6014 O   0  0  0  0  0  0  0  0  0  0  0  0
    8.0155    1.3548   -1.6718 N   0  0  0  0  0  0  0  0  0  0  0  0
    7.4527    0.3071    0.5652 C   0  0  0  0  0  0  0  0  0  0  0  0
    8.6137   -0.6233    0.5228 C   0  0  0  0  0  0  0  0  0  0  0  0
    9.9013   -0.1615    0.6081 N   0  0  0  0  0  0  0  0  0  0  0  0
    8.6393   -1.9791    0.3389 C   0  0  0  0  0  0  0  0  0  0  0  0
   10.0109   -2.3769    0.3156 C   0  0  0  0  0  0  0  0  0  0  0  0
   10.7771   -1.2024    0.4920 C   0  0  0  0  0  0  0  0  0  0  0  0
   12.1698   -1.2202    0.5288 C   0  0  0  0  0  0  0  0  0  0  0  0
   10.6735   -3.6016    0.1669 C   0  0  0  0  0  0  0  0  0  0  0  0
   12.0543   -3.6237    0.1995 C   0  0  0  0  0  0  0  0  0  0  0  0
   12.7952   -2.4439    0.3797 C   0  0  0  0  0  0  0  0  0  0  0  0
    4.5537    0.0707   -0.7852 H   0  0  0  0  0  0  0  0  0  0  0  0
    6.6708   -0.1788   -1.3774 H   0  0  0  0  0  0  0  0  0  0  0  0
    8.3827    2.1739   -1.2033 H   0  0  0  0  0  0  0  0  0  0  0  0
    8.7920    0.7205   -1.8054 H   0  0  0  0  0  0  0  0  0  0  0  0
    7.7095    1.2028    1.1383 H   0  0  0  0  0  0  0  0  0  0  0  0
    6.6240   -0.1775    1.0852 H   0  0  0  0  0  0  0  0  0  0  0  0
   10.1586    0.7979    0.7726 H   0  0  0  0  0  0  0  0  0  0  0  0
    7.7748   -2.6165    0.2344 H   0  0  0  0  0  0  0  0  0  0  0  0
   12.7425   -0.3119    0.6679 H   0  0  0  0  0  0  0  0  0  0  0  0
   10.1120   -4.5170    0.0251 H   0  0  0  0  0  0  0  0  0  0  0  0
   12.5783   -4.5638    0.0828 H   0  0  0  0  0  0  0  0  0  0  0  0
   13.8761   -2.4939    0.4009 H   0  0  0  0  0  0  0  0  0  0  0  0
   -2.4495    0.9159    0.2856 C   0  0  0  0  0  0  0  0  0  0  0  0
  4  5  1  0
  4  3  2  0
  5 22  2  0
  3  2  1  0
 22 70  1  0
 22 23  1  0
 70  6  2  0
  2 23  2  0
  2  1  1  0
  6 21  1  0
 21  8  1  0
  8  9  1  0
  8  7  2  0
  9 20  1  0
  9 10  1  0
 14 13  2  0
 14 15  1  0
 13 12  1  0
 15 16  2  0
 12 11  1  0
 12 17  2  0
 10 11  1  0
 16 17  1  0
 11 19  2  0
 17 18  1  0
 19 18  1  0
  1 24  1  0
  3 25  1  0
  4 26  1  0
  5 27  1  0
  9 28  1  1
 10 29  1  0
 10 30  1  0
 13 31  1  0
 14 32  1  0
 15 33  1  0
 16 34  1  0
 18 35  1  0
 19 36  1  0
 20 37  1  0
 20 38  1  0
 21 39  1  0
 70 40  1  0
 23 41  1  0
  1 42  2  0
 42 43  1  0
 43 44  1  0
 44 45  1  0
 44 46  2  0
 45 47  1  0
 45 48  1  0
 48 49  1  0
 49 50  1  0
 49 51  2  0
 50 53  1  0
 51 52  1  0
 52 53  2  0
 53 54  1  0
 52 55  1  0
 55 56  2  0
 54 57  2  0
 56 57  1  0
 43 58  1  0
 45 59  1  6
 47 60  1  0
 47 61  1  0
 48 62  1  0
 48 63  1  0
 50 64  1  0
 51 65  1  0
 54 66  1  0
 55 67  1  0
 56 68  1  0
 57 69  1  0
M  END
