
     RDKit          3D

 18 18  0  0  0  0  0  0  0  0999 V2000
    3.6500   -0.9034    0.0750 C   0  0  0  0  0  0  0  0  0  0  0  0
    2.3741   -0.1164    0.0294 C   0  0  0  0  0  0  0  0  0  0  0  0
   -0.0399   -0.3280    0.0005 C   0  0  0  0  0  0  0  0  0  0  0  0
   -2.2374   -0.3428   -0.0339 C   0  0  0  0  0  0  0  0  0  0  0  0
   -2.0411    0.9979   -0.0861 C   0  0  0  0  0  0  0  0  0  0  0  0
   -3.5561   -1.0380   -0.0246 C   0  0  0  0  0  0  0  0  0  0  0  0
    2.3362    1.0996   -0.0244 O   0  0  0  0  0  0  0  0  0  0  0  0
    1.2292   -0.8530    0.0439 N   0  0  0  0  0  0  0  0  0  0  0  0
   -0.3567    1.3699   -0.0747 S   0  0  0  0  0  0  0  0  0  0  0  0
   -1.0860   -1.0878    0.0153 N   0  0  0  0  0  0  0  0  0  0  0  0
    3.4954   -1.9713    0.2118 H   0  0  0  0  0  0  0  0  0  0  0  0
    4.1998   -0.7505   -0.8539 H   0  0  0  0  0  0  0  0  0  0  0  0
    4.2741   -0.5316    0.8867 H   0  0  0  0  0  0  0  0  0  0  0  0
   -2.7844    1.7780   -0.1305 H   0  0  0  0  0  0  0  0  0  0  0  0
   -3.6738   -1.6377    0.8794 H   0  0  0  0  0  0  0  0  0  0  0  0
   -4.3773   -0.3254   -0.0683 H   0  0  0  0  0  0  0  0  0  0  0  0
   -3.6463   -1.7146   -0.8758 H   0  0  0  0  0  0  0  0  0  0  0  0
    1.2810   -1.8607    0.0867 H   0  0  0  0  0  0  0  0  0  0  0  0
  7  2  2  0
  9  5  1  0
  9  3  1  0
  5  4  2  0
  2  1  1  0
  2  8  1  0
  4  6  1  0
  4 10  1  0
  3  8  1  0
  3 10  2  0
  1 11  1  0
  1 12  1  0
  1 13  1  0
  5 14  1  0
  6 15  1  0
  6 16  1  0
  6 17  1  0
  8 18  1  0
M  END
