
     RDKit          3D

 49 51  0  0  0  0  0  0  0  0999 V2000
   -3.6853    1.9819    2.3274 N   0  0  0  0  0  0  0  0  0  0  0  0
   -4.2413    1.2002    1.4275 C   0  0  0  0  0  0  0  0  0  0  0  0
   -2.1135    0.4927    0.5368 C   0  0  0  0  0  0  0  0  0  0  0  0
   -3.5148    0.4367    0.5067 C   0  0  0  0  0  0  0  0  0  0  0  0
   -4.2296   -0.3812   -0.4685 C   0  0  0  0  0  0  0  0  0  0  0  0
   -1.3666   -0.2860   -0.4080 C   0  0  0  0  0  0  0  0  0  0  0  0
    2.2375   -0.7807    0.5644 C   0  0  0  0  0  0  0  0  0  0  0  0
    0.8487   -0.8201    0.6112 C   0  0  0  0  0  0  0  0  0  0  0  0
    2.1747    0.2850   -1.5845 C   0  0  0  0  0  0  0  0  0  0  0  0
    2.9146   -0.2251   -0.5141 C   0  0  0  0  0  0  0  0  0  0  0  0
    6.3981   -0.6653    0.7362 C   0  0  0  0  0  0  0  0  0  0  0  0
    0.8358   -1.8498    2.7503 C   0  0  0  0  0  0  0  0  0  0  0  0
    0.1102   -0.2755   -0.4413 C   0  0  0  0  0  0  0  0  0  0  0  0
   -1.5313    1.3381    1.4927 C   0  0  0  0  0  0  0  0  0  0  0  0
   -3.4289   -1.0752   -1.3474 N   0  0  0  0  0  0  0  0  0  0  0  0
   -2.3456    2.0446    2.3441 C   0  0  0  0  0  0  0  0  0  0  0  0
    4.8676    1.0124    1.4698 C   0  0  0  0  0  0  0  0  0  0  0  0
   -2.0652   -1.0202   -1.3027 C   0  0  0  0  0  0  0  0  0  0  0  0
   -4.0887   -1.8985   -2.3510 C   0  0  0  0  0  0  0  0  0  0  0  0
    0.7845    0.2661   -1.5310 C   0  0  0  0  0  0  0  0  0  0  0  0
    4.4249   -0.2164   -0.5400 C   0  0  0  0  0  0  0  0  0  0  0  0
    2.8782    0.7801   -2.6290 O   0  0  0  0  0  0  0  0  0  0  0  0
    5.0113   -0.2551    0.7845 N   0  0  0  0  0  0  0  0  0  0  0  0
   -5.4476   -0.4630   -0.5332 O   0  0  0  0  0  0  0  0  0  0  0  0
    2.1737    1.3505   -3.7108 C   0  0  0  0  0  0  0  0  0  0  0  0
   -5.3248    1.1609    1.4147 H   0  0  0  0  0  0  0  0  0  0  0  0
    2.8352   -1.1828    1.3718 H   0  0  0  0  0  0  0  0  0  0  0  0
    6.8000   -0.7287    1.7485 H   0  0  0  0  0  0  0  0  0  0  0  0
    6.4822   -1.6532    0.2808 H   0  0  0  0  0  0  0  0  0  0  0  0
    7.0397    0.0239    0.1655 H   0  0  0  0  0  0  0  0  0  0  0  0
    1.4992   -2.6815    2.4973 H   0  0  0  0  0  0  0  0  0  0  0  0
    1.4255   -1.0676    3.2363 H   0  0  0  0  0  0  0  0  0  0  0  0
    0.0825   -2.2053    3.4491 H   0  0  0  0  0  0  0  0  0  0  0  0
   -0.4582    1.4519    1.5586 H   0  0  0  0  0  0  0  0  0  0  0  0
   -1.9077    2.7018    3.0868 H   0  0  0  0  0  0  0  0  0  0  0  0
    3.8160    1.2881    1.5505 H   0  0  0  0  0  0  0  0  0  0  0  0
    5.2669    0.9351    2.4819 H   0  0  0  0  0  0  0  0  0  0  0  0
    5.3922    1.8357    0.9603 H   0  0  0  0  0  0  0  0  0  0  0  0
   -1.5563   -1.6213   -2.0435 H   0  0  0  0  0  0  0  0  0  0  0  0
   -4.7258   -2.6429   -1.8783 H   0  0  0  0  0  0  0  0  0  0  0  0
   -4.6956   -1.2848   -3.0136 H   0  0  0  0  0  0  0  0  0  0  0  0
   -3.3340   -2.4090   -2.9409 H   0  0  0  0  0  0  0  0  0  0  0  0
    0.1932    0.6875   -2.3333 H   0  0  0  0  0  0  0  0  0  0  0  0
    4.7662   -1.1006   -1.0884 H   0  0  0  0  0  0  0  0  0  0  0  0
    4.7880    0.6505   -1.1129 H   0  0  0  0  0  0  0  0  0  0  0  0
    2.9222    1.6853   -4.4251 H   0  0  0  0  0  0  0  0  0  0  0  0
    1.5191    0.6255   -4.2029 H   0  0  0  0  0  0  0  0  0  0  0  0
    1.5734    2.2115   -3.4030 H   0  0  0  0  0  0  0  0  0  0  0  0
    0.1390   -1.3644    1.6227 O   0  0  0  0  0  0  0  0  0  0  0  0
 12 49  1  0
 49  8  1  0
  7  8  2  0
  7 10  1  0
  8 13  1  0
 21 10  1  0
 21 23  1  0
 10  9  2  0
 17 23  1  0
 13  6  1  0
 13 20  2  0
 23 11  1  0
 14  3  2  0
 14 16  1  0
  6  3  1  0
  6 18  2  0
  9 20  1  0
  9 22  1  0
  3  4  1  0
 16  1  2  0
 18 15  1  0
  4  2  2  0
  4  5  1  0
  1  2  1  0
 15  5  1  0
 15 19  1  0
  5 24  2  0
 22 25  1  0
  2 26  1  0
  7 27  1  0
 11 28  1  0
 11 29  1  0
 11 30  1  0
 12 31  1  0
 12 32  1  0
 12 33  1  0
 14 34  1  0
 16 35  1  0
 17 36  1  0
 17 37  1  0
 17 38  1  0
 18 39  1  0
 19 40  1  0
 19 41  1  0
 19 42  1  0
 20 43  1  0
 21 44  1  0
 21 45  1  0
 25 46  1  0
 25 47  1  0
 25 48  1  0
M  END
