
     RDKit          3D

 55 57  0  0  0  0  0  0  0  0999 V2000
   -5.0270   -1.2981    0.9247 C   0  0  0  0  0  0  0  0  0  0  0  0
   -3.8704   -0.3224   -0.9245 C   0  0  0  0  0  0  0  0  0  0  0  0
    3.1348   -0.6679    1.9968 C   0  0  0  0  0  0  0  0  0  0  0  0
   -6.1304   -1.5206    0.1275 C   0  0  0  0  0  0  0  0  0  0  0  0
   -4.9723   -0.5269   -1.7315 C   0  0  0  0  0  0  0  0  0  0  0  0
    3.9909   -1.7317    1.6849 C   0  0  0  0  0  0  0  0  0  0  0  0
   -3.8679   -0.7080    0.4177 C   0  0  0  0  0  0  0  0  0  0  0  0
    3.2317    0.1971   -0.2592 C   0  0  0  0  0  0  0  0  0  0  0  0
    2.7530    0.2929    1.0736 C   0  0  0  0  0  0  0  0  0  0  0  0
   -6.1293   -1.1357   -1.2227 C   0  0  0  0  0  0  0  0  0  0  0  0
    4.4360   -1.8042    0.3941 C   0  0  0  0  0  0  0  0  0  0  0  0
    4.0550   -0.8706   -0.5593 C   0  0  0  0  0  0  0  0  0  0  0  0
   -2.7232   -0.4719    1.3360 C   0  0  0  0  0  0  0  0  0  0  0  0
    5.3417   -2.3963   -1.5467 C   0  0  0  0  0  0  0  0  0  0  0  0
   -2.1887    4.2091    0.6583 C   0  0  0  0  0  0  0  0  0  0  0  0
   -1.3611    2.7695   -1.2159 C   0  0  0  0  0  0  0  0  0  0  0  0
    1.7940    1.3736    1.4981 C   0  0  0  0  0  0  0  0  0  0  0  0
   -0.3744    2.5645    1.1136 C   0  0  0  0  0  0  0  0  0  0  0  0
   -0.3017    0.0190    1.4470 C   0  0  0  0  0  0  0  0  0  0  0  0
   -1.6328    2.8383    0.2829 C   0  0  1  0  0  0  0  0  0  0  0  0
    0.3891    1.2581    0.8748 C   0  0  2  0  0  0  0  0  0  0  0  0
   -7.2391   -1.2984   -2.0012 N   0  0  0  0  0  0  0  0  0  0  0  0
   -1.5176   -0.3346    0.7527 N   0  0  0  0  0  0  0  0  0  0  0  0
    2.7372    0.6770   -2.4887 O   0  0  0  0  0  0  0  0  0  0  0  0
   -2.8870   -0.4038    2.5504 O   0  0  0  0  0  0  0  0  0  0  0  0
    2.8695    2.4059   -1.0905 O   0  0  0  0  0  0  0  0  0  0  0  0
    5.2893   -2.6965   -0.1608 O   0  0  0  0  0  0  0  0  0  0  0  0
    4.6672   -1.1556   -1.7262 O   0  0  0  0  0  0  0  0  0  0  0  0
   -5.0627   -1.5988    1.9638 H   0  0  0  0  0  0  0  0  0  0  0  0
   -7.0104   -1.9931    0.5473 H   0  0  0  0  0  0  0  0  0  0  0  0
   -3.0126    0.1739   -1.3631 H   0  0  0  0  0  0  0  0  0  0  0  0
   -4.9465   -0.2042   -2.7653 H   0  0  0  0  0  0  0  0  0  0  0  0
    2.7529   -0.5975    3.0072 H   0  0  0  0  0  0  0  0  0  0  0  0
    4.2840   -2.4544    2.4341 H   0  0  0  0  0  0  0  0  0  0  0  0
    1.6965    1.3428    2.5869 H   0  0  0  0  0  0  0  0  0  0  0  0
    2.2044    2.3532    1.2571 H   0  0  0  0  0  0  0  0  0  0  0  0
   -7.9299   -1.9615   -1.6915 H   0  0  0  0  0  0  0  0  0  0  0  0
   -7.1125   -1.2882   -2.9995 H   0  0  0  0  0  0  0  0  0  0  0  0
   -1.4298   -0.5508   -0.2263 H   0  0  0  0  0  0  0  0  0  0  0  0
    2.5942    1.3739   -3.1475 H   0  0  0  0  0  0  0  0  0  0  0  0
    6.3789   -2.2994   -1.8683 H   0  0  0  0  0  0  0  0  0  0  0  0
    4.8326   -3.1773   -2.1197 H   0  0  0  0  0  0  0  0  0  0  0  0
   -3.1015    4.4353    0.1043 H   0  0  0  0  0  0  0  0  0  0  0  0
   -2.4242    4.2648    1.7227 H   0  0  0  0  0  0  0  0  0  0  0  0
   -1.4649    4.9982    0.4383 H   0  0  0  0  0  0  0  0  0  0  0  0
   -2.3995    2.0975    0.5212 H   0  0  0  0  0  0  0  0  0  0  0  0
   -1.0703    1.7697   -1.5413 H   0  0  0  0  0  0  0  0  0  0  0  0
   -2.2492    3.0489   -1.7855 H   0  0  0  0  0  0  0  0  0  0  0  0
   -0.5553    3.4514   -1.5003 H   0  0  0  0  0  0  0  0  0  0  0  0
    0.5058    1.1103   -0.2040 H   0  0  0  0  0  0  0  0  0  0  0  0
    0.3194    3.3918    0.9211 H   0  0  0  0  0  0  0  0  0  0  0  0
   -0.6271    2.6348    2.1783 H   0  0  0  0  0  0  0  0  0  0  0  0
    0.3870   -0.8301    1.4087 H   0  0  0  0  0  0  0  0  0  0  0  0
   -0.5404    0.1815    2.4982 H   0  0  0  0  0  0  0  0  0  0  0  0
    2.9280    1.2186   -1.2940 C   0  0  0  0  0  0  0  0  0  0  0  0
  1  4  2  0
  1  7  1  0
  2  5  1  0
  2  7  2  0
  3  6  2  0
  3  9  1  0
  4 10  1  0
  5 10  2  0
  6 11  1  0
  7 13  1  0
  8  9  2  0
  8 12  1  0
  8 55  1  0
  9 17  1  0
 10 22  1  0
 11 12  2  0
 11 27  1  0
 12 28  1  0
 13 23  1  0
 13 25  2  0
 55 24  1  0
 55 26  2  0
 14 27  1  0
 14 28  1  0
 15 20  1  0
 16 20  1  0
 17 21  1  0
 18 20  1  0
 18 21  1  0
 19 21  1  0
 19 23  1  0
  1 29  1  0
  4 30  1  0
  2 31  1  0
  5 32  1  0
  3 33  1  0
  6 34  1  0
 17 35  1  0
 17 36  1  0
 22 37  1  0
 22 38  1  0
 23 39  1  0
 24 40  1  0
 14 41  1  0
 14 42  1  0
 15 43  1  0
 15 44  1  0
 15 45  1  0
 20 46  1  1
 16 47  1  0
 16 48  1  0
 16 49  1  0
 21 50  1  6
 18 51  1  0
 18 52  1  0
 19 53  1  0
 19 54  1  0
M  END
