
     RDKit          3D

 25 27  0  0  0  0  0  0  0  0999 V2000
    1.1328   -0.0763   -2.5092 C   0  0  0  0  0  0  0  0  0  0  0  0
    0.4201   -0.0422   -3.6695 C   0  0  0  0  0  0  0  0  0  0  0  0
   -0.9977    0.0175   -3.6436 C   0  0  0  0  0  0  0  0  0  0  0  0
   -1.6618    0.0398   -2.4564 C   0  0  0  0  0  0  0  0  0  0  0  0
   -1.6053    0.0147    2.4518 C   0  0  0  0  0  0  0  0  0  0  0  0
   -0.9218   -0.0160    3.6265 C   0  0  0  0  0  0  0  0  0  0  0  0
    0.4965   -0.0710    3.6247 C   0  0  0  0  0  0  0  0  0  0  0  0
    1.1849   -0.0940    2.4509 C   0  0  0  0  0  0  0  0  0  0  0  0
    1.1787   -0.0882   -0.0359 C   0  0  0  0  0  0  0  0  0  0  0  0
    2.5163   -0.1439   -0.1335 O   0  0  0  0  0  0  0  0  0  0  0  0
   -1.6282    0.0260    0.0001 C   0  0  0  0  0  0  0  0  0  0  0  0
   -0.9252   -0.0071    1.1990 C   0  0  0  0  0  0  0  0  0  0  0  0
    0.5061   -0.0646    1.1968 C   0  0  0  0  0  0  0  0  0  0  0  0
    0.4706   -0.0534   -1.2479 C   0  0  0  0  0  0  0  0  0  0  0  0
   -0.9566    0.0054   -1.2188 C   0  0  0  0  0  0  0  0  0  0  0  0
    2.2123   -0.1205   -2.5503 H   0  0  0  0  0  0  0  0  0  0  0  0
    0.9360   -0.0606   -4.6206 H   0  0  0  0  0  0  0  0  0  0  0  0
   -1.5483    0.0450   -4.5750 H   0  0  0  0  0  0  0  0  0  0  0  0
   -2.7438    0.0839   -2.4321 H   0  0  0  0  0  0  0  0  0  0  0  0
   -2.6877    0.0560    2.4477 H   0  0  0  0  0  0  0  0  0  0  0  0
   -1.4546    0.0019    4.5683 H   0  0  0  0  0  0  0  0  0  0  0  0
    1.0332   -0.0938    4.5637 H   0  0  0  0  0  0  0  0  0  0  0  0
    2.2664   -0.1315    2.5057 H   0  0  0  0  0  0  0  0  0  0  0  0
    2.9428   -0.1917    0.7277 H   0  0  0  0  0  0  0  0  0  0  0  0
   -2.7110    0.0676    0.0161 H   0  0  0  0  0  0  0  0  0  0  0  0
  1  2  2  0
  1 14  1  0
  1 16  1  0
  2  3  1  0
  2 17  1  0
  3  4  2  0
  3 18  1  0
  4 15  1  0
  4 19  1  0
  5  6  1  0
  5 12  2  0
  5 20  1  0
  6  7  2  0
  6 21  1  0
  7  8  1  0
  7 22  1  0
  8 13  2  0
  8 23  1  0
  9 10  1  0
  9 13  1  0
  9 14  2  0
 10 24  1  0
 11 12  1  0
 11 15  2  0
 11 25  1  0
 12 13  1  0
 14 15  1  0
M  END
