
     RDKit          3D

 69 73  0  0  0  0  0  0  0  0999 V2000
   -7.2935    0.6526   -0.0518 C   0  0  0  0  0  0  0  0  0  0  0  0
   -6.2394    2.4148    1.2921 C   0  0  0  0  0  0  0  0  0  0  0  0
   -5.0981    0.3504    0.7749 C   0  0  0  0  0  0  0  0  0  0  0  0
   -4.0019    1.0559    0.6136 N   0  0  0  0  0  0  0  0  0  0  0  0
   -2.8502    0.3972    0.4506 C   0  0  0  0  0  0  0  0  0  0  0  0
   -0.4029    0.9065    0.2306 C   0  0  0  0  0  0  0  0  0  0  0  0
   -1.7580    1.2013    0.3536 N   0  0  0  0  0  0  0  0  0  0  0  0
    0.4876    1.9780    0.3392 C   0  0  0  0  0  0  0  0  0  0  0  0
    1.8480    1.7868    0.2273 C   0  0  0  0  0  0  0  0  0  0  0  0
    2.3819    0.5170    0.0037 C   0  0  0  0  0  0  0  0  0  0  0  0
    4.5503   -0.6914   -0.2128 C   0  0  0  0  0  0  0  0  0  0  0  0
    3.7748    0.4207   -0.0951 N   0  0  0  0  0  0  0  0  0  0  0  0
    6.0135   -0.4166   -0.3074 C   0  0  0  0  0  0  0  0  0  0  0  0
    6.8986   -1.3814    0.1625 C   0  0  0  0  0  0  0  0  0  0  0  0
    8.2697   -1.2041    0.1101 C   0  0  0  0  0  0  0  0  0  0  0  0
   -8.2601   -2.5492    1.1444 O   0  0  0  0  0  0  0  0  0  0  0  0
   -7.4043   -1.7480    0.8053 C   0  0  0  0  0  0  0  0  0  0  0  0
   -7.7454   -0.6653   -0.1604 C   0  0  0  0  0  0  0  0  0  0  0  0
   -8.6958   -0.9887   -1.1282 C   0  0  0  0  0  0  0  0  0  0  0  0
   -6.1435   -1.8239    1.2935 N   0  0  0  0  0  0  0  0  0  0  0  0
   -5.8624   -2.8610    2.2780 C   0  0  0  0  0  0  0  0  0  0  0  0
   -5.0645   -1.0516    0.8304 C   0  0  0  0  0  0  0  0  0  0  0  0
   -6.3048    1.0226    0.8861 N   0  0  0  0  0  0  0  0  0  0  0  0
   -7.8419    1.6121   -0.9040 C   0  0  0  0  0  0  0  0  0  0  0  0
   -8.7843    1.2662   -1.8535 C   0  0  0  0  0  0  0  0  0  0  0  0
   -9.2172   -0.0484   -2.0005 C   0  0  0  0  0  0  0  0  0  0  0  0
  -10.2057   -0.4284   -3.0628 C   0  0  0  0  0  0  0  0  0  0  0  0
   -3.8330   -1.6198    0.5716 C   0  0  0  0  0  0  0  0  0  0  0  0
   -2.7266   -0.9184    0.3676 N   0  0  0  0  0  0  0  0  0  0  0  0
    0.1283   -0.3610   -0.0009 C   0  0  0  0  0  0  0  0  0  0  0  0
    1.4985   -0.5535   -0.1110 C   0  0  0  0  0  0  0  0  0  0  0  0
    4.1174   -1.8264   -0.2270 O   0  0  0  0  0  0  0  0  0  0  0  0
    6.5448    0.7373   -0.8779 C   0  0  0  0  0  0  0  0  0  0  0  0
    7.9113    0.9221   -0.9513 C   0  0  0  0  0  0  0  0  0  0  0  0
    8.7949   -0.0375   -0.4514 C   0  0  0  0  0  0  0  0  0  0  0  0
   11.2284   -0.4826   -0.0971 C   0  0  0  0  0  0  0  0  0  0  0  0
   11.1284   -1.5134    0.5243 O   0  0  0  0  0  0  0  0  0  0  0  0
   12.5636    0.1417   -0.4594 C   0  0  0  0  0  0  0  0  0  0  0  0
   13.7360   -0.5044    0.2556 C   0  0  0  0  0  0  0  0  0  0  0  0
   -7.2396    2.7476    1.5597 H   0  0  0  0  0  0  0  0  0  0  0  0
   -5.6090    2.4977    2.1732 H   0  0  0  0  0  0  0  0  0  0  0  0
   -5.8345    3.0832    0.5294 H   0  0  0  0  0  0  0  0  0  0  0  0
   -1.9820    2.1781    0.4514 H   0  0  0  0  0  0  0  0  0  0  0  0
    0.1183    2.9803    0.5208 H   0  0  0  0  0  0  0  0  0  0  0  0
    2.5008    2.6465    0.3205 H   0  0  0  0  0  0  0  0  0  0  0  0
    4.2632    1.2873    0.0570 H   0  0  0  0  0  0  0  0  0  0  0  0
    6.5100   -2.2956    0.5905 H   0  0  0  0  0  0  0  0  0  0  0  0
    8.9161   -1.9713    0.5022 H   0  0  0  0  0  0  0  0  0  0  0  0
   10.3780    1.0895   -1.0471 H   0  0  0  0  0  0  0  0  0  0  0  0
   -9.0419   -2.0127   -1.1847 H   0  0  0  0  0  0  0  0  0  0  0  0
   -6.6601   -2.9099    3.0144 H   0  0  0  0  0  0  0  0  0  0  0  0
   -5.7589   -3.8439    1.8187 H   0  0  0  0  0  0  0  0  0  0  0  0
   -4.9384   -2.6170    2.7939 H   0  0  0  0  0  0  0  0  0  0  0  0
   -7.5242    2.6430   -0.8387 H   0  0  0  0  0  0  0  0  0  0  0  0
   -9.1810    2.0385   -2.5018 H   0  0  0  0  0  0  0  0  0  0  0  0
   -9.7286   -0.4799   -4.0434 H   0  0  0  0  0  0  0  0  0  0  0  0
  -10.6484   -1.4037   -2.8662 H   0  0  0  0  0  0  0  0  0  0  0  0
  -11.0165    0.2963   -3.1357 H   0  0  0  0  0  0  0  0  0  0  0  0
   -3.7229   -2.6994    0.5599 H   0  0  0  0  0  0  0  0  0  0  0  0
   -0.5268   -1.2119   -0.0893 H   0  0  0  0  0  0  0  0  0  0  0  0
    1.8645   -1.5518   -0.2842 H   0  0  0  0  0  0  0  0  0  0  0  0
    5.9022    1.4973   -1.3058 H   0  0  0  0  0  0  0  0  0  0  0  0
    8.2963    1.8266   -1.4081 H   0  0  0  0  0  0  0  0  0  0  0  0
   12.6905    0.0579   -1.5440 H   0  0  0  0  0  0  0  0  0  0  0  0
   12.5351    1.2146   -0.2460 H   0  0  0  0  0  0  0  0  0  0  0  0
   13.6563   -0.3905    1.3355 H   0  0  0  0  0  0  0  0  0  0  0  0
   13.7978   -1.5692    0.0403 H   0  0  0  0  0  0  0  0  0  0  0  0
   14.6692   -0.0414   -0.0622 H   0  0  0  0  0  0  0  0  0  0  0  0
   10.1559    0.2353   -0.5618 N   0  0  0  0  0  0  0  0  0  0  0  0
  2 23  1  0
 27 26  1  0
 16 17  2  0
 25 24  2  0
 25 26  1  0
 24  1  1  0
 26 19  2  0
 23  1  1  0
 23  3  1  0
  1 18  2  0
 19 18  1  0
 18 17  1  0
 17 20  1  0
 20 21  1  0
 20 22  1  0
  3 22  1  0
  3  4  2  0
 22 28  2  0
  4  5  1  0
 34 33  2  0
 34 35  1  0
 38 39  1  0
 38 36  1  0
 33 13  1  0
 31 30  2  0
 31 10  1  0
 30  6  1  0
 69 35  1  0
 69 36  1  0
 35 15  2  0
 12 10  1  0
 12 11  1  0
 36 37  2  0
 13 11  1  0
 13 14  2  0
 28 29  1  0
 10  9  2  0
  5 29  2  0
  5  7  1  0
 11 32  2  0
  6  7  1  0
  6  8  2  0
 15 14  1  0
  9  8  1  0
  2 40  1  0
  2 41  1  0
  2 42  1  0
  7 43  1  0
  8 44  1  0
  9 45  1  0
 12 46  1  0
 14 47  1  0
 15 48  1  0
 69 49  1  0
 19 50  1  0
 21 51  1  0
 21 52  1  0
 21 53  1  0
 24 54  1  0
 25 55  1  0
 27 56  1  0
 27 57  1  0
 27 58  1  0
 28 59  1  0
 30 60  1  0
 31 61  1  0
 33 62  1  0
 34 63  1  0
 38 64  1  0
 38 65  1  0
 39 66  1  0
 39 67  1  0
 39 68  1  0
M  END
