
     RDKit          3D

 43 45  0  0  0  0  0  0  0  0999 V2000
   -2.7580   -0.3014   -0.7384 C   0  0  0  0  0  0  0  0  0  0  0  0
   -3.9408    0.1885   -0.1978 C   0  0  0  0  0  0  0  0  0  0  0  0
   -4.7092    1.3857   -0.4004 C   0  0  0  0  0  0  0  0  0  0  0  0
   -4.4025    2.4635   -1.2341 C   0  0  0  0  0  0  0  0  0  0  0  0
   -4.1373    3.3573   -1.9219 N   0  0  0  0  0  0  0  0  0  0  0  0
   -5.8250    1.3035    0.4414 C   0  0  0  0  0  0  0  0  0  0  0  0
   -6.8015    2.1981    0.6366 N   0  0  0  0  0  0  0  0  0  0  0  0
   -5.7628    0.1380    1.1229 N   0  0  0  0  0  0  0  0  0  0  0  0
   -4.6328   -0.5707    0.7625 C   0  0  0  0  0  0  0  0  0  0  0  0
   -4.1750   -1.7979    1.2032 C   0  0  0  0  0  0  0  0  0  0  0  0
   -2.9877   -2.2772    0.6638 C   0  0  0  0  0  0  0  0  0  0  0  0
   -2.3032   -1.5337   -0.2947 C   0  0  0  0  0  0  0  0  0  0  0  0
   -1.1657   -2.0720   -0.8519 O   0  0  0  0  0  0  0  0  0  0  0  0
    0.0510   -1.6060   -0.4554 C   0  0  0  0  0  0  0  0  0  0  0  0
    1.1497   -2.0313   -1.1932 C   0  0  0  0  0  0  0  0  0  0  0  0
    2.4287   -1.6158   -0.8631 C   0  0  0  0  0  0  0  0  0  0  0  0
    0.2424   -0.7636    0.6324 C   0  0  0  0  0  0  0  0  0  0  0  0
    1.5231   -0.3395    0.9516 C   0  0  0  0  0  0  0  0  0  0  0  0
    2.6285   -0.7493    0.2118 C   0  0  0  0  0  0  0  0  0  0  0  0
    3.8937   -0.2936    0.6165 N   0  0  0  0  0  0  0  0  0  0  0  0
    4.9973   -0.1204   -0.1462 C   0  0  0  0  0  0  0  0  0  0  0  0
    5.0654   -0.4127   -1.3279 O   0  0  0  0  0  0  0  0  0  0  0  0
    6.1814    0.5226    0.5836 C   0  0  1  0  0  0  0  0  0  0  0  0
    7.4504   -0.0828    0.2500 N   0  0  0  0  0  0  0  0  0  0  0  0
    6.1768    2.0075    0.2318 C   0  0  0  0  0  0  0  0  0  0  0  0
    7.1703    2.6588    0.9813 O   0  0  0  0  0  0  0  0  0  0  0  0
   -2.2043    0.2567   -1.4839 H   0  0  0  0  0  0  0  0  0  0  0  0
   -6.9027    2.9556   -0.0176 H   0  0  0  0  0  0  0  0  0  0  0  0
   -7.6474    1.9181    1.1046 H   0  0  0  0  0  0  0  0  0  0  0  0
   -6.4643   -0.1814    1.7728 H   0  0  0  0  0  0  0  0  0  0  0  0
   -4.7176   -2.3712    1.9431 H   0  0  0  0  0  0  0  0  0  0  0  0
   -2.5951   -3.2341    0.9818 H   0  0  0  0  0  0  0  0  0  0  0  0
    1.0054   -2.7001   -2.0330 H   0  0  0  0  0  0  0  0  0  0  0  0
   -0.5896   -0.4257    1.2363 H   0  0  0  0  0  0  0  0  0  0  0  0
    3.2590   -1.9791   -1.4473 H   0  0  0  0  0  0  0  0  0  0  0  0
    1.6581    0.3275    1.7947 H   0  0  0  0  0  0  0  0  0  0  0  0
    3.9489    0.0345    1.5688 H   0  0  0  0  0  0  0  0  0  0  0  0
    6.0323    0.4248    1.6642 H   0  0  0  0  0  0  0  0  0  0  0  0
    7.4515   -1.0573    0.5240 H   0  0  0  0  0  0  0  0  0  0  0  0
    7.5813   -0.0723   -0.7548 H   0  0  0  0  0  0  0  0  0  0  0  0
    6.3454    2.1139   -0.8485 H   0  0  0  0  0  0  0  0  0  0  0  0
    5.1796    2.4168    0.4409 H   0  0  0  0  0  0  0  0  0  0  0  0
    7.1505    3.5912    0.7480 H   0  0  0  0  0  0  0  0  0  0  0  0
  1  2  2  0
  1 12  1  0
  2  3  1  0
  2  9  1  0
  3  4  1  0
  3  6  2  0
  4  5  3  0
  6  7  1  0
  6  8  1  0
  8  9  1  0
  9 10  2  0
 10 11  1  0
 11 12  2  0
 12 13  1  0
 13 14  1  0
 14 15  2  0
 14 17  1  0
 15 16  1  0
 16 19  2  0
 17 18  2  0
 18 19  1  0
 19 20  1  0
 20 21  1  0
 21 22  2  0
 21 23  1  0
 23 24  1  0
 23 25  1  0
 25 26  1  0
  1 27  1  0
  7 28  1  0
  7 29  1  0
  8 30  1  0
 10 31  1  0
 11 32  1  0
 15 33  1  0
 17 34  1  0
 16 35  1  0
 18 36  1  0
 20 37  1  0
 23 38  1  1
 24 39  1  0
 24 40  1  0
 25 41  1  0
 25 42  1  0
 26 43  1  0
M  END
