
     RDKit          3D

 60 64  0  0  0  0  0  0  0  0999 V2000
   -3.0409   -4.3419    0.3151 C   0  0  0  0  0  0  0  0  0  0  0  0
   -1.7783   -3.7478    0.2552 C   0  0  0  0  0  0  0  0  0  0  0  0
   -1.6463   -2.3650    0.1361 C   0  0  0  0  0  0  0  0  0  0  0  0
   -4.2006   -3.5879    0.2582 C   0  0  0  0  0  0  0  0  0  0  0  0
   -4.0484   -2.2147    0.1379 C   0  0  0  0  0  0  0  0  0  0  0  0
   -2.8116   -1.6089    0.0784 C   0  0  0  0  0  0  0  0  0  0  0  0
   -4.4161    0.0161   -0.0773 N   0  0  0  0  0  0  0  0  0  0  0  0
   -3.5756    3.1552   -0.3646 N   0  0  0  0  0  0  0  0  0  0  0  0
    6.3151    0.9150    0.0689 N   0  0  0  0  0  0  0  0  0  0  0  0
   -2.9698   -0.1308   -0.0643 C   0  0  0  0  0  0  0  0  0  0  0  0
   -5.0824   -1.1660    0.0342 C   0  0  0  0  0  0  0  0  0  0  0  0
   -5.1381    1.2620   -0.2371 C   0  0  1  0  0  0  0  0  0  0  0  0
   -5.5620    1.8968    1.0802 C   0  0  0  0  0  0  0  0  0  0  0  0
   -4.3724    2.4473    1.8453 C   0  0  0  0  0  0  0  0  0  0  0  0
   -3.5135    3.3480    1.0062 C   0  0  0  0  0  0  0  0  0  0  0  0
   -4.2983    2.2214   -1.0656 C   0  0  0  0  0  0  0  0  0  0  0  0
    0.7288   -2.4369    0.0473 C   0  0  0  0  0  0  0  0  0  0  0  0
    1.8562   -1.4617   -0.0923 C   0  0  0  0  0  0  0  0  0  0  0  0
   -4.2448    2.1670   -2.2715 O   0  0  0  0  0  0  0  0  0  0  0  0
    6.8624   -0.2208   -0.6509 C   0  0  0  0  0  0  0  0  0  0  0  0
    8.1429   -0.6902    0.0121 C   0  0  0  0  0  0  0  0  0  0  0  0
    9.0958    0.3464    0.0994 O   0  0  0  0  0  0  0  0  0  0  0  0
    8.5702    1.4529    0.7989 C   0  0  0  0  0  0  0  0  0  0  0  0
    7.3037    1.9741    0.1477 C   0  0  0  0  0  0  0  0  0  0  0  0
    3.9583    0.3780   -0.3657 C   0  0  0  0  0  0  0  0  0  0  0  0
    3.7228   -0.2551    0.8517 C   0  0  0  0  0  0  0  0  0  0  0  0
    2.6817   -1.1615    0.9865 C   0  0  0  0  0  0  0  0  0  0  0  0
    3.1313    0.0768   -1.4431 C   0  0  0  0  0  0  0  0  0  0  0  0
    2.0905   -0.8303   -1.3095 C   0  0  0  0  0  0  0  0  0  0  0  0
   -0.4862   -1.6926    0.0689 O   0  0  0  0  0  0  0  0  0  0  0  0
   -2.7846    4.1999    1.4576 O   0  0  0  0  0  0  0  0  0  0  0  0
   -3.1004   -5.4183    0.4057 H   0  0  0  0  0  0  0  0  0  0  0  0
   -0.9078   -4.3877    0.3038 H   0  0  0  0  0  0  0  0  0  0  0  0
   -5.1787   -4.0478    0.3025 H   0  0  0  0  0  0  0  0  0  0  0  0
   -3.0032    3.7809   -0.9224 H   0  0  0  0  0  0  0  0  0  0  0  0
   -2.5056    0.4097    0.7654 H   0  0  0  0  0  0  0  0  0  0  0  0
   -2.5162    0.2323   -0.9913 H   0  0  0  0  0  0  0  0  0  0  0  0
   -6.0295    1.0475   -0.8298 H   0  0  0  0  0  0  0  0  0  0  0  0
   -6.2685    2.7016    0.8631 H   0  0  0  0  0  0  0  0  0  0  0  0
   -6.0984    1.1661    1.6843 H   0  0  0  0  0  0  0  0  0  0  0  0
   -4.6907    3.0101    2.7226 H   0  0  0  0  0  0  0  0  0  0  0  0
   -3.7406    1.6373    2.2233 H   0  0  0  0  0  0  0  0  0  0  0  0
    0.7194   -3.1374   -0.7943 H   0  0  0  0  0  0  0  0  0  0  0  0
    0.8336   -3.0207    0.9672 H   0  0  0  0  0  0  0  0  0  0  0  0
    6.1435   -1.0431   -0.6439 H   0  0  0  0  0  0  0  0  0  0  0  0
    7.0622    0.0287   -1.7078 H   0  0  0  0  0  0  0  0  0  0  0  0
    7.9105   -1.0844    1.0116 H   0  0  0  0  0  0  0  0  0  0  0  0
    8.5899   -1.4967   -0.5712 H   0  0  0  0  0  0  0  0  0  0  0  0
    8.3560    1.1811    1.8424 H   0  0  0  0  0  0  0  0  0  0  0  0
    9.3358    2.2298    0.8052 H   0  0  0  0  0  0  0  0  0  0  0  0
    7.5454    2.3868   -0.8473 H   0  0  0  0  0  0  0  0  0  0  0  0
    6.9094    2.7969    0.7498 H   0  0  0  0  0  0  0  0  0  0  0  0
    4.7861    2.3007    0.0168 H   0  0  0  0  0  0  0  0  0  0  0  0
    5.1836    1.6563   -1.5689 H   0  0  0  0  0  0  0  0  0  0  0  0
    4.3666   -0.0437    1.6963 H   0  0  0  0  0  0  0  0  0  0  0  0
    2.5141   -1.6447    1.9419 H   0  0  0  0  0  0  0  0  0  0  0  0
    3.3086    0.5495   -2.4020 H   0  0  0  0  0  0  0  0  0  0  0  0
    1.4666   -1.0588   -2.1658 H   0  0  0  0  0  0  0  0  0  0  0  0
   -6.2921   -1.3023    0.0384 O   0  0  0  0  0  0  0  0  0  0  0  0
    5.0722    1.3823   -0.5062 C   0  0  0  0  0  0  0  0  0  0  0  0
 14 13  1  0
 14 15  1  0
 13 12  1  0
 31 15  2  0
 15  8  1  0
 12  7  1  0
 12 16  1  0
 10  7  1  0
 10  6  1  0
  7 11  1  0
 30  3  1  0
 30 17  1  0
  6  3  2  0
  6  5  1  0
 11 59  2  0
 11  5  1  0
  3  2  1  0
  5  4  2  0
  2  1  2  0
 17 18  1  0
  8 16  1  0
  4  1  1  0
 16 19  2  0
 18 27  1  0
 18 29  2  0
 27 26  2  0
 29 28  1  0
 26 25  1  0
 28 25  2  0
 25 60  1  0
 60  9  1  0
  9 24  1  0
  9 20  1  0
 24 23  1  0
 23 22  1  0
 20 21  1  0
 21 22  1  0
  1 32  1  0
  2 33  1  0
  4 34  1  0
  8 35  1  0
 10 36  1  0
 10 37  1  0
 12 38  1  6
 13 39  1  0
 13 40  1  0
 14 41  1  0
 14 42  1  0
 17 43  1  0
 17 44  1  0
 20 45  1  0
 20 46  1  0
 21 47  1  0
 21 48  1  0
 23 49  1  0
 23 50  1  0
 24 51  1  0
 24 52  1  0
 60 53  1  0
 60 54  1  0
 26 55  1  0
 27 56  1  0
 28 57  1  0
 29 58  1  0
M  END
