
     RDKit          3D

 18 18  0  0  0  0  0  0  0  0999 V2000
   -0.9715   -0.0070   -0.3496 C   0  0  0  0  0  0  0  0  0  0  0  0
   -0.2829   -1.2102   -0.2270 C   0  0  0  0  0  0  0  0  0  0  0  0
    1.0855   -1.2272   -0.0078 C   0  0  0  0  0  0  0  0  0  0  0  0
    1.7515   -0.0199    0.0859 C   0  0  0  0  0  0  0  0  0  0  0  0
    1.1010    1.1934   -0.0344 C   0  0  0  0  0  0  0  0  0  0  0  0
   -0.2678    1.1902   -0.2541 C   0  0  0  0  0  0  0  0  0  0  0  0
   -2.4540   -0.0023   -0.5563 C   0  0  0  0  0  0  0  0  0  0  0  0
   -3.1698    0.0147    0.7545 N   0  0  0  0  0  0  0  0  0  0  0  0
    3.0749   -0.0261    0.2943 F   0  0  0  0  0  0  0  0  0  0  0  0
   -0.8167   -2.1491   -0.3104 H   0  0  0  0  0  0  0  0  0  0  0  0
    1.6234   -2.1616    0.0851 H   0  0  0  0  0  0  0  0  0  0  0  0
    1.6512    2.1223    0.0368 H   0  0  0  0  0  0  0  0  0  0  0  0
   -0.7878    2.1345   -0.3588 H   0  0  0  0  0  0  0  0  0  0  0  0
   -2.7971   -0.8901   -1.0816 H   0  0  0  0  0  0  0  0  0  0  0  0
   -2.7898    0.8766   -1.1010 H   0  0  0  0  0  0  0  0  0  0  0  0
   -4.1812    0.0452    0.6257 H   0  0  0  0  0  0  0  0  0  0  0  0
   -2.9148    0.8261    1.3168 H   0  0  0  0  0  0  0  0  0  0  0  0
   -2.9639   -0.8142    1.3110 H   0  0  0  0  0  0  0  0  0  0  0  0
  1  2  2  0
  1  6  1  0
  1  7  1  0
  2  3  1  0
  2 10  1  0
  3  4  2  0
  3 11  1  0
  4  5  1  0
  4  9  1  0
  5  6  2  0
  5 12  1  0
  6 13  1  0
  7  8  1  0
  7 14  1  0
  7 15  1  0
  8 16  1  0
  8 17  1  0
  8 18  1  0
M  CHG  1   8   1
M  END
