
     RDKit          3D

 44 47  0  0  0  0  0  0  0  0999 V2000
    0.2182   -1.1590    0.1930 C   0  0  2  0  0  0  0  0  0  0  0  0
    1.0577   -0.0387    0.7991 C   0  0  0  0  0  0  0  0  0  0  0  0
    2.5241   -0.4508    0.8438 C   0  0  1  0  0  0  0  0  0  0  0  0
    3.0748   -0.8465   -0.5344 C   0  0  2  0  0  0  0  0  0  0  0  0
    3.2978    1.4498   -1.1451 C   0  0  0  0  0  0  0  0  0  0  0  0
   -5.9026   -1.3475   -0.3063 C   0  0  0  0  0  0  0  0  0  0  0  0
   -4.6157   -1.8505   -0.2031 C   0  0  0  0  0  0  0  0  0  0  0  0
   -6.1705   -0.0227    0.0081 C   0  0  0  0  0  0  0  0  0  0  0  0
   -3.8316    0.3059    0.5226 C   0  0  0  0  0  0  0  0  0  0  0  0
   -3.5707   -1.0228    0.1977 C   0  0  0  0  0  0  0  0  0  0  0  0
   -5.1268    0.7876    0.4254 C   0  0  0  0  0  0  0  0  0  0  0  0
   -2.1977   -1.6147    0.3043 C   0  0  0  0  0  0  0  0  0  0  0  0
    0.7403   -1.5493   -1.1890 C   0  0  0  0  0  0  0  0  0  0  0  0
    2.2064   -1.9585   -1.1227 C   0  0  0  0  0  0  0  0  0  0  0  0
    4.8724   -0.0062    1.5316 C   0  0  0  0  0  0  0  0  0  0  0  0
    4.5061   -1.3626   -0.3368 C   0  0  0  0  0  0  0  0  0  0  0  0
    3.4663    0.5747    1.4603 C   0  0  1  0  0  0  0  0  0  0  0  0
    3.1128    0.2439   -1.4822 N   0  0  0  0  0  0  0  0  0  0  0  0
    3.2964    2.4530   -2.0773 N   0  0  0  0  0  0  0  0  0  0  0  0
   -1.1752   -0.7593    0.1474 N   0  0  0  0  0  0  0  0  0  0  0  0
   -2.0517   -2.8091    0.5254 O   0  0  0  0  0  0  0  0  0  0  0  0
    5.3343   -0.3948    0.2629 O   0  0  0  0  0  0  0  0  0  0  0  0
    3.4483    2.1161    0.4960 S   0  0  0  0  0  0  0  0  0  0  0  0
   -5.4461    2.4378    0.8451 Cl  0  0  0  0  0  0  0  0  0  0  0  0
    0.2808   -2.0312    0.8481 H   0  0  0  0  0  0  0  0  0  0  0  0
    0.9270    0.8766    0.2143 H   0  0  0  0  0  0  0  0  0  0  0  0
    0.7101    0.1793    1.8128 H   0  0  0  0  0  0  0  0  0  0  0  0
    2.5901   -1.3418    1.4819 H   0  0  0  0  0  0  0  0  0  0  0  0
   -4.4217   -2.8867   -0.4444 H   0  0  0  0  0  0  0  0  0  0  0  0
   -7.1759    0.3686   -0.0660 H   0  0  0  0  0  0  0  0  0  0  0  0
   -3.0471    0.9634    0.8738 H   0  0  0  0  0  0  0  0  0  0  0  0
    0.1392   -2.3696   -1.5876 H   0  0  0  0  0  0  0  0  0  0  0  0
    0.6217   -0.7025   -1.8716 H   0  0  0  0  0  0  0  0  0  0  0  0
    2.5718   -2.2132   -2.1208 H   0  0  0  0  0  0  0  0  0  0  0  0
    2.3035   -2.8590   -0.5070 H   0  0  0  0  0  0  0  0  0  0  0  0
    5.5773    0.7258    1.9270 H   0  0  0  0  0  0  0  0  0  0  0  0
    4.8526   -0.8622    2.2231 H   0  0  0  0  0  0  0  0  0  0  0  0
    4.4796   -2.2807    0.2694 H   0  0  0  0  0  0  0  0  0  0  0  0
    4.9492   -1.6110   -1.3034 H   0  0  0  0  0  0  0  0  0  0  0  0
    3.1392    0.8579    2.4638 H   0  0  0  0  0  0  0  0  0  0  0  0
    3.8498    3.2718   -1.8793 H   0  0  0  0  0  0  0  0  0  0  0  0
    3.3894    2.1350   -3.0302 H   0  0  0  0  0  0  0  0  0  0  0  0
   -1.3688    0.1667   -0.2006 H   0  0  0  0  0  0  0  0  0  0  0  0
   -6.7105   -1.9900   -0.6297 H   0  0  0  0  0  0  0  0  0  0  0  0
 21 12  2  0
 12 10  1  0
 12 20  1  0
  7  6  2  0
  7 10  1  0
 13 14  1  0
 13  1  1  0
 14  4  1  0
  6  8  1  0
 10  9  2  0
  1 20  1  0
  1  2  1  0
  8 11  2  0
  9 11  1  0
 16  4  1  0
 16 22  1  0
  4  3  1  0
  4 18  1  6
  2  3  1  0
  3 17  1  0
 11 24  1  0
 18  5  2  0
 22 15  1  0
 15 17  1  0
 17 23  1  0
  5 23  1  0
  5 19  1  0
  1 25  1  1
  2 26  1  0
  2 27  1  0
  3 28  1  1
  6 44  1  0
  7 29  1  0
  8 30  1  0
  9 31  1  0
 13 32  1  0
 13 33  1  0
 14 34  1  0
 14 35  1  0
 15 36  1  0
 15 37  1  0
 16 38  1  0
 16 39  1  0
 17 40  1  1
 19 41  1  0
 19 42  1  0
 20 43  1  0
M  END
