
     RDKit          3D

 24 24  0  0  0  0  0  0  0  0999 V2000
    0.3988    1.3798   -0.3628 C   0  0  2  0  0  0  0  0  0  0  0  0
    1.4522    0.3446    0.0465 C   0  0  1  0  0  0  0  0  0  0  0  0
    1.1301   -1.0147   -0.5648 C   0  0  2  0  0  0  0  0  0  0  0  0
   -0.2861   -1.4468   -0.1585 C   0  0  2  0  0  0  0  0  0  0  0  0
   -1.2830   -0.3251   -0.4793 C   0  0  1  0  0  0  0  0  0  0  0  0
   -2.6897   -0.5645    0.0628 C   0  0  0  0  0  0  0  0  0  0  0  0
    0.6645    2.6299    0.2110 O   0  0  0  0  0  0  0  0  0  0  0  0
    2.7535    0.7091   -0.3910 O   0  0  0  0  0  0  0  0  0  0  0  0
    2.0304   -2.0133   -0.0979 O   0  0  0  0  0  0  0  0  0  0  0  0
   -0.3289   -1.7492    1.2263 O   0  0  0  0  0  0  0  0  0  0  0  0
   -0.8752    0.9430    0.0703 O   0  0  0  0  0  0  0  0  0  0  0  0
   -3.5766    0.4640   -0.3430 O   0  0  0  0  0  0  0  0  0  0  0  0
    0.4189    1.5344   -1.4532 H   0  0  0  0  0  0  0  0  0  0  0  0
    1.4081    0.2468    1.1433 H   0  0  0  0  0  0  0  0  0  0  0  0
    1.1867   -0.9269   -1.6618 H   0  0  0  0  0  0  0  0  0  0  0  0
   -0.5696   -2.3285   -0.7581 H   0  0  0  0  0  0  0  0  0  0  0  0
   -1.3409   -0.2270   -1.5760 H   0  0  0  0  0  0  0  0  0  0  0  0
   -3.0805   -1.5027   -0.3445 H   0  0  0  0  0  0  0  0  0  0  0  0
   -2.6375   -0.6574    1.1556 H   0  0  0  0  0  0  0  0  0  0  0  0
    0.4343    2.5570    1.1510 H   0  0  0  0  0  0  0  0  0  0  0  0
    2.9083    1.6160   -0.0867 H   0  0  0  0  0  0  0  0  0  0  0  0
    2.9148   -1.6181   -0.1252 H   0  0  0  0  0  0  0  0  0  0  0  0
    0.4756   -2.2652    1.3984 H   0  0  0  0  0  0  0  0  0  0  0  0
   -3.1586    1.2954   -0.0767 H   0  0  0  0  0  0  0  0  0  0  0  0
  1  2  1  0
  1  7  1  0
  1 11  1  0
  1 13  1  6
  2  3  1  0
  2  8  1  0
  2 14  1  1
  3  4  1  0
  3  9  1  0
  3 15  1  6
  4  5  1  0
  4 10  1  0
  4 16  1  6
  5  6  1  0
  5 11  1  0
  5 17  1  6
  6 12  1  0
  6 18  1  0
  6 19  1  0
  7 20  1  0
  8 21  1  0
  9 22  1  0
 10 23  1  0
 12 24  1  0
M  END
