
     RDKit          3D

 41 42  0  0  0  0  0  0  0  0999 V2000
    2.6932   -1.6226   -0.0365 N   0  0  0  0  0  0  0  0  0  0  0  0
    1.7670   -2.5680   -0.0345 N   0  0  0  0  0  0  0  0  0  0  0  0
    4.2047    0.8175    0.3384 N   0  0  0  0  0  0  0  0  0  0  0  0
    0.6133   -1.9221   -0.0911 C   0  0  0  0  0  0  0  0  0  0  0  0
    0.8028   -0.5326   -0.1527 C   0  0  0  0  0  0  0  0  0  0  0  0
    2.1743   -0.3748   -0.1172 C   0  0  0  0  0  0  0  0  0  0  0  0
   -0.7327   -2.5606   -0.0930 C   0  0  0  0  0  0  0  0  0  0  0  0
   -1.7632   -1.5512   -0.5993 C   0  0  0  0  0  0  0  0  0  0  0  0
   -1.6521   -0.2051    0.1339 C   0  0  1  0  0  0  0  0  0  0  0  0
   -0.3100    0.4610   -0.2126 C   0  0  0  0  0  0  0  0  0  0  0  0
   -2.8766    0.7283   -0.0845 C   0  0  1  0  0  0  0  0  0  0  0  0
    2.9606    0.8725   -0.1622 C   0  0  0  0  0  0  0  0  0  0  0  0
    5.0769    1.9694    0.3405 C   0  0  0  0  0  0  0  0  0  0  0  0
   -2.5964    2.1022    0.5327 C   0  0  0  0  0  0  0  0  0  0  0  0
   -3.1726    0.9106   -1.5757 C   0  0  0  0  0  0  0  0  0  0  0  0
   -4.0966    0.0951    0.6186 C   0  0  0  0  0  0  0  0  0  0  0  0
   -5.3755    0.9250    0.6372 C   0  0  0  0  0  0  0  0  0  0  0  0
    2.4787    1.8905   -0.6414 O   0  0  0  0  0  0  0  0  0  0  0  0
    3.6639   -1.8899   -0.0845 H   0  0  0  0  0  0  0  0  0  0  0  0
    4.4955    0.0153    0.8713 H   0  0  0  0  0  0  0  0  0  0  0  0
   -0.7352   -3.4595   -0.7136 H   0  0  0  0  0  0  0  0  0  0  0  0
   -0.9997   -2.8795    0.9197 H   0  0  0  0  0  0  0  0  0  0  0  0
   -1.6183   -1.3960   -1.6735 H   0  0  0  0  0  0  0  0  0  0  0  0
   -2.7580   -1.9810   -0.4811 H   0  0  0  0  0  0  0  0  0  0  0  0
   -1.6248   -0.4249    1.2108 H   0  0  0  0  0  0  0  0  0  0  0  0
   -0.1026    1.2822    0.4733 H   0  0  0  0  0  0  0  0  0  0  0  0
   -0.3514    0.9066   -1.2114 H   0  0  0  0  0  0  0  0  0  0  0  0
    5.2364    2.3447   -0.6697 H   0  0  0  0  0  0  0  0  0  0  0  0
    4.6801    2.7828    0.9499 H   0  0  0  0  0  0  0  0  0  0  0  0
    6.0368    1.6697    0.7500 H   0  0  0  0  0  0  0  0  0  0  0  0
   -1.7790    2.6176    0.0269 H   0  0  0  0  0  0  0  0  0  0  0  0
   -3.4686    2.7512    0.4520 H   0  0  0  0  0  0  0  0  0  0  0  0
   -2.3379    2.0221    1.5917 H   0  0  0  0  0  0  0  0  0  0  0  0
   -3.5003   -0.0188   -2.0441 H   0  0  0  0  0  0  0  0  0  0  0  0
   -3.9606    1.6490   -1.7321 H   0  0  0  0  0  0  0  0  0  0  0  0
   -2.2956    1.2639   -2.1223 H   0  0  0  0  0  0  0  0  0  0  0  0
   -4.3273   -0.8597    0.1403 H   0  0  0  0  0  0  0  0  0  0  0  0
   -3.8165   -0.1434    1.6503 H   0  0  0  0  0  0  0  0  0  0  0  0
   -5.2762    1.8307    1.2360 H   0  0  0  0  0  0  0  0  0  0  0  0
   -5.6872    1.2225   -0.3650 H   0  0  0  0  0  0  0  0  0  0  0  0
   -6.1920    0.3446    1.0690 H   0  0  0  0  0  0  0  0  0  0  0  0
  1  2  1  0
  1  6  1  0
  2  4  2  0
  3 12  1  0
  3 13  1  0
  4  5  1  0
  4  7  1  0
  5  6  2  0
  5 10  1  0
  6 12  1  0
  7  8  1  0
  8  9  1  0
  9 10  1  0
  9 11  1  0
 11 14  1  1
 11 15  1  0
 11 16  1  0
 12 18  2  0
 16 17  1  0
  1 19  1  0
  3 20  1  0
  7 21  1  0
  7 22  1  0
  8 23  1  0
  8 24  1  0
  9 25  1  1
 10 26  1  0
 10 27  1  0
 13 28  1  0
 13 29  1  0
 13 30  1  0
 14 31  1  0
 14 32  1  0
 14 33  1  0
 15 34  1  0
 15 35  1  0
 15 36  1  0
 16 37  1  0
 16 38  1  0
 17 39  1  0
 17 40  1  0
 17 41  1  0
M  END
