
     RDKit          3D

 39 43  0  0  0  0  0  0  0  0999 V2000
   -4.8467   -0.7706    0.0729 C   0  0  0  0  0  0  0  0  0  0  0  0
   -5.3206    0.5276   -0.0536 C   0  0  0  0  0  0  0  0  0  0  0  0
   -4.4389    1.5899   -0.1709 C   0  0  0  0  0  0  0  0  0  0  0  0
   -3.0595    1.3702   -0.1611 C   0  0  0  0  0  0  0  0  0  0  0  0
   -2.1160    2.4372   -0.2844 C   0  0  0  0  0  0  0  0  0  0  0  0
   -0.7829    2.2055   -0.2670 C   0  0  0  0  0  0  0  0  0  0  0  0
   -0.2474    0.8816   -0.1224 C   0  0  0  0  0  0  0  0  0  0  0  0
    1.1383    0.6295   -0.0965 C   0  0  0  0  0  0  0  0  0  0  0  0
    1.5940   -0.6860    0.0090 C   0  0  0  0  0  0  0  0  0  0  0  0
    0.6861   -1.7348    0.1065 C   0  0  0  0  0  0  0  0  0  0  0  0
   -0.6857   -1.5160    0.1074 C   0  0  0  0  0  0  0  0  0  0  0  0
   -1.6265   -2.5922    0.2197 C   0  0  0  0  0  0  0  0  0  0  0  0
   -2.9577   -2.3612    0.2123 C   0  0  0  0  0  0  0  0  0  0  0  0
   -3.4764   -1.0307    0.0864 C   0  0  0  0  0  0  0  0  0  0  0  0
   -2.5668    0.0503   -0.0291 C   0  0  0  0  0  0  0  0  0  0  0  0
   -1.1657   -0.1907   -0.0142 C   0  0  0  0  0  0  0  0  0  0  0  0
    3.0743   -1.0135    0.0503 C   0  0  1  0  0  0  0  0  0  0  0  0
    3.3625   -2.1851   -0.6894 O   0  0  0  0  0  0  0  0  0  0  0  0
    3.9187    0.1193   -0.5200 C   0  0  2  0  0  0  0  0  0  0  0  0
    5.2907   -0.1203   -0.3423 O   0  0  0  0  0  0  0  0  0  0  0  0
    3.5426    1.4268    0.1455 C   0  0  2  0  0  0  0  0  0  0  0  0
    3.7068    1.2751    1.5379 O   0  0  0  0  0  0  0  0  0  0  0  0
    2.1097    1.7741   -0.2314 C   0  0  0  0  0  0  0  0  0  0  0  0
   -5.5440   -1.5947    0.1603 H   0  0  0  0  0  0  0  0  0  0  0  0
   -6.3873    0.7098   -0.0618 H   0  0  0  0  0  0  0  0  0  0  0  0
   -4.8161    2.6004   -0.2720 H   0  0  0  0  0  0  0  0  0  0  0  0
   -2.4873    3.4487   -0.3956 H   0  0  0  0  0  0  0  0  0  0  0  0
   -0.1100    3.0450   -0.3702 H   0  0  0  0  0  0  0  0  0  0  0  0
    1.0470   -2.7533    0.1878 H   0  0  0  0  0  0  0  0  0  0  0  0
   -1.2477   -3.6028    0.3137 H   0  0  0  0  0  0  0  0  0  0  0  0
   -3.6579   -3.1831    0.2992 H   0  0  0  0  0  0  0  0  0  0  0  0
    3.3574   -1.1588    1.0993 H   0  0  0  0  0  0  0  0  0  0  0  0
    3.5409   -2.9038   -0.0783 H   0  0  0  0  0  0  0  0  0  0  0  0
    3.6732    0.2215   -1.5896 H   0  0  0  0  0  0  0  0  0  0  0  0
    5.4934   -0.9738   -0.7404 H   0  0  0  0  0  0  0  0  0  0  0  0
    4.1957    2.2231   -0.2385 H   0  0  0  0  0  0  0  0  0  0  0  0
    3.4213    2.0883    1.9655 H   0  0  0  0  0  0  0  0  0  0  0  0
    1.7909    2.6265    0.3751 H   0  0  0  0  0  0  0  0  0  0  0  0
    2.0999    2.1368   -1.2649 H   0  0  0  0  0  0  0  0  0  0  0  0
  1  2  2  0
  1 14  1  0
  1 24  1  0
  2  3  1  0
  2 25  1  0
  3  4  2  0
  3 26  1  0
  4  5  1  0
  4 15  1  0
  5  6  2  0
  5 27  1  0
  6  7  1  0
  6 28  1  0
  7  8  2  0
  7 16  1  0
  8  9  1  0
  8 23  1  0
  9 10  2  0
  9 17  1  0
 10 11  1  0
 10 29  1  0
 11 12  2  0
 11 16  1  0
 12 13  1  0
 12 30  1  0
 13 14  2  0
 13 31  1  0
 14 15  1  0
 15 16  2  0
 17 18  1  0
 17 19  1  0
 17 32  1  1
 18 33  1  0
 19 20  1  0
 19 21  1  0
 19 34  1  6
 20 35  1  0
 21 22  1  0
 21 23  1  0
 21 36  1  6
 22 37  1  0
 23 38  1  0
 23 39  1  0
M  END
