
     RDKit          3D

 41 40  0  0  0  0  0  0  0  0999 V2000
    0.6582   -0.0026   -7.5412 O   0  0  0  0  0  0  0  0  0  0  0  0
   -1.3531    0.0558   -6.5830 O   0  0  0  0  0  0  0  0  0  0  0  0
   -0.1514    0.0242   -6.4852 C   0  0  0  0  0  0  0  0  0  0  0  0
    0.6159    0.0116   -5.1927 C   0  0  0  0  0  0  0  0  0  0  0  0
   -0.2623    0.0183   -3.9523 C   0  0  0  0  0  0  0  0  0  0  0  0
    0.5656    0.0042   -2.6732 C   0  0  0  0  0  0  0  0  0  0  0  0
   -0.2912    0.0103   -1.4136 C   0  0  0  0  0  0  0  0  0  0  0  0
    0.5298   -0.0057   -0.1303 C   0  0  0  0  0  0  0  0  0  0  0  0
   -0.3260   -0.0010    1.1304 C   0  0  0  0  0  0  0  0  0  0  0  0
    0.4935   -0.0122    2.4148 C   0  0  0  0  0  0  0  0  0  0  0  0
   -0.3638   -0.0076    3.6746 C   0  0  0  0  0  0  0  0  0  0  0  0
    0.4531   -0.0184    4.9607 C   0  0  0  0  0  0  0  0  0  0  0  0
   -0.4072   -0.0118    6.2182 C   0  0  0  0  0  0  0  0  0  0  0  0
    0.4043   -0.0294    7.5081 C   0  0  0  0  0  0  0  0  0  0  0  0
   -0.4714   -0.0215    8.7538 C   0  0  0  0  0  0  0  0  0  0  0  0
    0.1368    0.0086   -8.3577 H   0  0  0  0  0  0  0  0  0  0  0  0
    1.2885    0.8761   -5.1901 H   0  0  0  0  0  0  0  0  0  0  0  0
    1.2716   -0.8653   -5.1946 H   0  0  0  0  0  0  0  0  0  0  0  0
   -0.9270   -0.8499   -3.9634 H   0  0  0  0  0  0  0  0  0  0  0  0
   -0.9069    0.9015   -3.9582 H   0  0  0  0  0  0  0  0  0  0  0  0
    1.2351    0.8715   -2.6611 H   0  0  0  0  0  0  0  0  0  0  0  0
    1.2139   -0.8794   -2.6671 H   0  0  0  0  0  0  0  0  0  0  0  0
   -0.9613   -0.8567   -1.4266 H   0  0  0  0  0  0  0  0  0  0  0  0
   -0.9392    0.8941   -1.4195 H   0  0  0  0  0  0  0  0  0  0  0  0
    1.1998    0.8615   -0.1174 H   0  0  0  0  0  0  0  0  0  0  0  0
    1.1785   -0.8889   -0.1251 H   0  0  0  0  0  0  0  0  0  0  0  0
   -0.9938   -0.8699    1.1182 H   0  0  0  0  0  0  0  0  0  0  0  0
   -0.9771    0.8805    1.1234 H   0  0  0  0  0  0  0  0  0  0  0  0
    1.1610    0.8569    2.4273 H   0  0  0  0  0  0  0  0  0  0  0  0
    1.1448   -0.8937    2.4225 H   0  0  0  0  0  0  0  0  0  0  0  0
   -1.0318   -0.8765    3.6615 H   0  0  0  0  0  0  0  0  0  0  0  0
   -1.0150    0.8739    3.6663 H   0  0  0  0  0  0  0  0  0  0  0  0
    1.1204    0.8508    4.9736 H   0  0  0  0  0  0  0  0  0  0  0  0
    1.1043   -0.8999    4.9702 H   0  0  0  0  0  0  0  0  0  0  0  0
   -1.0809   -0.8762    6.2025 H   0  0  0  0  0  0  0  0  0  0  0  0
   -1.0530    0.8738    6.2105 H   0  0  0  0  0  0  0  0  0  0  0  0
    1.0747    0.8357    7.5247 H   0  0  0  0  0  0  0  0  0  0  0  0
    1.0503   -0.9130    7.5178 H   0  0  0  0  0  0  0  0  0  0  0  0
    0.1243   -0.0339    9.6673 H   0  0  0  0  0  0  0  0  0  0  0  0
   -1.1026    0.8689    8.7837 H   0  0  0  0  0  0  0  0  0  0  0  0
   -1.1295   -0.8922    8.7765 H   0  0  0  0  0  0  0  0  0  0  0  0
  1  3  1  0
  1 16  1  0
  2  3  2  0
  3  4  1  0
  4  5  1  0
  4 17  1  0
  4 18  1  0
  5  6  1  0
  5 19  1  0
  5 20  1  0
  6  7  1  0
  6 21  1  0
  6 22  1  0
  7  8  1  0
  7 23  1  0
  7 24  1  0
  8  9  1  0
  8 25  1  0
  8 26  1  0
  9 10  1  0
  9 27  1  0
  9 28  1  0
 10 11  1  0
 10 29  1  0
 10 30  1  0
 11 12  1  0
 11 31  1  0
 11 32  1  0
 12 13  1  0
 12 33  1  0
 12 34  1  0
 13 14  1  0
 13 35  1  0
 13 36  1  0
 14 15  1  0
 14 37  1  0
 14 38  1  0
 15 39  1  0
 15 40  1  0
 15 41  1  0
M  END
