
     RDKit          3D

 57 60  0  0  0  0  0  0  0  0999 V2000
   -3.2520    0.6843   -0.1584 C   0  0  0  0  0  0  0  0  0  0  0  0
   -4.6117    0.3671   -0.2780 C   0  0  0  0  0  0  0  0  0  0  0  0
   -1.5760    2.3113    0.0350 C   0  0  0  0  0  0  0  0  0  0  0  0
   -0.9161    2.8358   -1.0631 C   0  0  0  0  0  0  0  0  0  0  0  0
    0.4096    3.2283   -0.9460 C   0  0  0  0  0  0  0  0  0  0  0  0
    1.0602    3.0816    0.2689 C   0  0  0  0  0  0  0  0  0  0  0  0
    0.3960    2.5620    1.3703 C   0  0  0  0  0  0  0  0  0  0  0  0
   -0.9307    2.1802    1.2547 C   0  0  0  0  0  0  0  0  0  0  0  0
   -5.6726    1.3936   -0.4334 C   0  0  0  0  0  0  0  0  0  0  0  0
    0.6357   -3.1809   -0.1186 C   0  0  2  0  0  0  0  0  0  0  0  0
   -0.1629   -1.8904    0.0916 C   0  0  0  0  0  0  0  0  0  0  0  0
   -0.2759   -4.2539    0.4716 C   0  0  0  0  0  0  0  0  0  0  0  0
    5.7340    2.3764   -0.2753 C   0  0  0  0  0  0  0  0  0  0  0  0
    5.5345    1.0983   -0.7844 C   0  0  0  0  0  0  0  0  0  0  0  0
    4.2419    0.6096   -0.8971 C   0  0  0  0  0  0  0  0  0  0  0  0
    3.1507    1.3778   -0.5071 C   0  0  0  0  0  0  0  0  0  0  0  0
   -2.2925   -0.1987   -0.0695 N   0  0  0  0  0  0  0  0  0  0  0  0
   -4.8952   -1.0022   -0.3156 C   0  0  0  0  0  0  0  0  0  0  0  0
   -3.9070   -1.9543   -0.2350 C   0  0  0  0  0  0  0  0  0  0  0  0
   -2.5779   -1.5040   -0.1022 C   0  0  0  0  0  0  0  0  0  0  0  0
   -1.5365   -2.3449   -0.0021 N   0  0  0  0  0  0  0  0  0  0  0  0
   -2.9060    1.9853   -0.0958 O   0  0  0  0  0  0  0  0  0  0  0  0
   -5.4923    2.4475   -1.0283 O   0  0  0  0  0  0  0  0  0  0  0  0
   -6.8655    1.0650    0.0998 N   0  0  0  0  0  0  0  0  0  0  0  0
   -1.6655   -3.7929    0.0558 C   0  0  0  0  0  0  0  0  0  0  0  0
    3.1312   -2.8447   -1.4220 O   0  0  0  0  0  0  0  0  0  0  0  0
    4.3044   -2.9586    0.6491 C   0  0  0  0  0  0  0  0  0  0  0  0
    5.5162   -2.7963    0.1318 C   0  0  0  0  0  0  0  0  0  0  0  0
    2.3640    3.4879    0.4049 O   0  0  0  0  0  0  0  0  0  0  0  0
    3.3639    2.6567   -0.0041 C   0  0  0  0  0  0  0  0  0  0  0  0
    4.6578    3.1573    0.1136 C   0  0  0  0  0  0  0  0  0  0  0  0
   -1.4328    2.9419   -2.0082 H   0  0  0  0  0  0  0  0  0  0  0  0
    0.9300    3.6434   -1.7996 H   0  0  0  0  0  0  0  0  0  0  0  0
    0.9115    2.4574    2.3164 H   0  0  0  0  0  0  0  0  0  0  0  0
   -1.4527    1.7747    2.1111 H   0  0  0  0  0  0  0  0  0  0  0  0
    0.7618   -3.3584   -1.1869 H   0  0  0  0  0  0  0  0  0  0  0  0
    0.0521   -1.4564    1.0745 H   0  0  0  0  0  0  0  0  0  0  0  0
    0.0613   -1.1312   -0.6583 H   0  0  0  0  0  0  0  0  0  0  0  0
   -0.0407   -5.2538    0.1110 H   0  0  0  0  0  0  0  0  0  0  0  0
   -0.1912   -4.2568    1.5615 H   0  0  0  0  0  0  0  0  0  0  0  0
    6.7364    2.7727   -0.1784 H   0  0  0  0  0  0  0  0  0  0  0  0
    6.3780    0.4927   -1.0878 H   0  0  0  0  0  0  0  0  0  0  0  0
    4.0680   -0.3839   -1.2892 H   0  0  0  0  0  0  0  0  0  0  0  0
    2.1519    0.9725   -0.6045 H   0  0  0  0  0  0  0  0  0  0  0  0
   -5.9189   -1.3327   -0.4405 H   0  0  0  0  0  0  0  0  0  0  0  0
   -4.1503   -3.0049   -0.2949 H   0  0  0  0  0  0  0  0  0  0  0  0
   -6.9833    0.2823    0.7188 H   0  0  0  0  0  0  0  0  0  0  0  0
   -7.6438    1.6966    0.0048 H   0  0  0  0  0  0  0  0  0  0  0  0
   -1.9492   -4.2010   -0.9196 H   0  0  0  0  0  0  0  0  0  0  0  0
   -2.4277   -4.0962    0.7758 H   0  0  0  0  0  0  0  0  0  0  0  0
    1.9909   -3.2164    1.4854 H   0  0  0  0  0  0  0  0  0  0  0  0
    4.1774   -3.0808    1.7191 H   0  0  0  0  0  0  0  0  0  0  0  0
    5.6677   -2.6699   -0.9324 H   0  0  0  0  0  0  0  0  0  0  0  0
    6.3960   -2.7835    0.7597 H   0  0  0  0  0  0  0  0  0  0  0  0
    4.8153    4.1529    0.5095 H   0  0  0  0  0  0  0  0  0  0  0  0
    1.9423   -3.1500    0.4801 N   0  0  0  0  0  0  0  0  0  0  0  0
    3.0882   -2.9760   -0.2049 C   0  0  0  0  0  0  0  0  0  0  0  0
 23  9  2  0
 18 19  1  0
 18  2  2  0
 19 20  2  0
 28 27  2  0
 26 57  2  0
  9  2  1  0
  9 24  1  0
  2  1  1  0
 11 10  1  0
 11 21  1  0
 57 27  1  0
 57 56  1  0
 20 21  1  0
 20 17  1  0
 10 56  1  0
 10 12  1  0
 21 25  1  0
  1 17  2  0
  1 22  1  0
 22  3  1  0
 25 12  1  0
  3  4  2  0
  3  8  1  0
  4  5  1  0
  8  7  2  0
  5  6  2  0
  7  6  1  0
  6 29  1  0
 16 15  2  0
 16 30  1  0
 29 30  1  0
 15 14  1  0
 30 31  2  0
 14 13  2  0
 31 13  1  0
  4 32  1  0
  5 33  1  0
  7 34  1  0
  8 35  1  0
 10 36  1  6
 11 37  1  0
 11 38  1  0
 12 39  1  0
 12 40  1  0
 13 41  1  0
 14 42  1  0
 15 43  1  0
 16 44  1  0
 18 45  1  0
 19 46  1  0
 24 47  1  0
 24 48  1  0
 25 49  1  0
 25 50  1  0
 56 51  1  0
 27 52  1  0
 28 53  1  0
 28 54  1  0
 31 55  1  0
M  END
