
     RDKit          3D

 81 84  0  0  0  0  0  0  0  0999 V2000
   -4.3836   -0.8637   -1.0598 C   0  0  0  0  0  0  0  0  0  0  0  0
   -4.9157   -2.2487   -0.6817 C   0  0  0  0  0  0  0  0  0  0  0  0
   -4.7622   -2.2930    0.8337 C   0  0  0  0  0  0  0  0  0  0  0  0
   -5.2225   -0.9013    1.2489 C   0  0  0  0  0  0  0  0  0  0  0  0
   -4.6537    0.0519    0.1620 C   0  0  2  0  0  0  0  0  0  0  0  0
   -5.7254    1.1144   -0.1152 C   0  0  0  0  0  0  0  0  0  0  0  0
   -6.5211    1.0015   -1.0349 O   0  0  0  0  0  0  0  0  0  0  0  0
   -5.7988    2.0968    0.7927 N   0  0  0  0  0  0  0  0  0  0  0  0
   -3.4418    0.6719    0.6686 N   0  0  0  0  0  0  0  0  0  0  0  0
   -2.7618    1.5907   -0.0468 C   0  0  0  0  0  0  0  0  0  0  0  0
   -3.1966    2.0580   -1.0849 O   0  0  0  0  0  0  0  0  0  0  0  0
   -1.5112    2.1343    0.6353 C   0  0  2  0  0  0  0  0  0  0  0  0
   -0.7326    3.1725   -0.1606 C   0  0  0  0  0  0  0  0  0  0  0  0
    0.3399    3.7766    0.7496 C   0  0  0  0  0  0  0  0  0  0  0  0
    1.2007    2.7124    1.4294 C   0  0  0  0  0  0  0  0  0  0  0  0
    0.3431    1.6326    2.0850 C   0  0  0  0  0  0  0  0  0  0  0  0
   -0.6052    1.0921    1.1140 N   0  0  0  0  0  0  0  0  0  0  0  0
   -0.2880    0.0906    0.2471 C   0  0  0  0  0  0  0  0  0  0  0  0
   -0.8645   -0.0088   -0.8257 O   0  0  0  0  0  0  0  0  0  0  0  0
    0.7855   -0.9183    0.6524 C   0  0  1  0  0  0  0  0  0  0  0  0
    0.4577   -2.3076    0.0739 C   0  0  1  0  0  0  0  0  0  0  0  0
    1.5922   -3.3086    0.2887 C   0  0  0  0  0  0  0  0  0  0  0  0
    1.2338   -4.6784   -0.2845 C   0  0  0  0  0  0  0  0  0  0  0  0
   -0.0638   -5.2187    0.3059 C   0  0  0  0  0  0  0  0  0  0  0  0
   -1.2014   -4.2207    0.1263 C   0  0  0  0  0  0  0  0  0  0  0  0
   -0.8296   -2.8544    0.6907 C   0  0  0  0  0  0  0  0  0  0  0  0
    2.1369   -0.3940    0.2115 C   0  0  0  0  0  0  0  0  0  0  0  0
    3.1683   -0.3146    1.1370 C   0  0  0  0  0  0  0  0  0  0  0  0
    2.3379    0.0195   -1.1003 C   0  0  0  0  0  0  0  0  0  0  0  0
    3.5753    0.5312   -1.4823 C   0  0  0  0  0  0  0  0  0  0  0  0
    3.8646    0.9686   -2.7202 O   0  0  0  0  0  0  0  0  0  0  0  0
    2.8375    0.9643   -3.6912 C   0  0  0  0  0  0  0  0  0  0  0  0
    4.6162    0.6198   -0.5543 C   0  0  0  0  0  0  0  0  0  0  0  0
    5.8289    1.1085   -0.9269 O   0  0  0  0  0  0  0  0  0  0  0  0
    5.9475    2.5189   -0.7974 C   0  0  0  0  0  0  0  0  0  0  0  0
    4.4077    0.1978    0.7600 C   0  0  0  0  0  0  0  0  0  0  0  0
    5.4593    0.3281    1.5867 O   0  0  0  0  0  0  0  0  0  0  0  0
    5.2992   -0.0462    2.9402 C   0  0  0  0  0  0  0  0  0  0  0  0
   -3.3073   -0.9158   -1.2198 H   0  0  0  0  0  0  0  0  0  0  0  0
   -4.8286   -0.4784   -1.9744 H   0  0  0  0  0  0  0  0  0  0  0  0
   -5.9727   -2.3413   -0.9458 H   0  0  0  0  0  0  0  0  0  0  0  0
   -4.3817   -3.0509   -1.1930 H   0  0  0  0  0  0  0  0  0  0  0  0
   -5.3426   -3.0838    1.3100 H   0  0  0  0  0  0  0  0  0  0  0  0
   -3.7151   -2.4481    1.1062 H   0  0  0  0  0  0  0  0  0  0  0  0
   -6.3143   -0.8703    1.2290 H   0  0  0  0  0  0  0  0  0  0  0  0
   -4.9177   -0.6045    2.2541 H   0  0  0  0  0  0  0  0  0  0  0  0
   -5.1239    2.1934    1.5311 H   0  0  0  0  0  0  0  0  0  0  0  0
   -6.5066    2.8076    0.7120 H   0  0  0  0  0  0  0  0  0  0  0  0
   -3.0148    0.2857    1.4971 H   0  0  0  0  0  0  0  0  0  0  0  0
   -1.8835    2.6313    1.5414 H   0  0  0  0  0  0  0  0  0  0  0  0
   -0.2812    2.7081   -1.0413 H   0  0  0  0  0  0  0  0  0  0  0  0
   -1.4005    3.9577   -0.5165 H   0  0  0  0  0  0  0  0  0  0  0  0
    0.9741    4.4587    0.1805 H   0  0  0  0  0  0  0  0  0  0  0  0
   -0.1558    4.3808    1.5170 H   0  0  0  0  0  0  0  0  0  0  0  0
    1.8636    2.2412    0.6988 H   0  0  0  0  0  0  0  0  0  0  0  0
    1.8407    3.1724    2.1858 H   0  0  0  0  0  0  0  0  0  0  0  0
    0.9555    0.8419    2.5097 H   0  0  0  0  0  0  0  0  0  0  0  0
   -0.2362    2.0533    2.9105 H   0  0  0  0  0  0  0  0  0  0  0  0
    0.8013   -1.0169    1.7418 H   0  0  0  0  0  0  0  0  0  0  0  0
    0.3058   -2.1987   -1.0056 H   0  0  0  0  0  0  0  0  0  0  0  0
    2.5142   -2.9465   -0.1713 H   0  0  0  0  0  0  0  0  0  0  0  0
    1.7963   -3.4071    1.3618 H   0  0  0  0  0  0  0  0  0  0  0  0
    1.1275   -4.5946   -1.3717 H   0  0  0  0  0  0  0  0  0  0  0  0
    2.0526   -5.3803   -0.1086 H   0  0  0  0  0  0  0  0  0  0  0  0
   -0.3210   -6.1770   -0.1521 H   0  0  0  0  0  0  0  0  0  0  0  0
    0.0785   -5.4124    1.3745 H   0  0  0  0  0  0  0  0  0  0  0  0
   -1.4375   -4.1195   -0.9385 H   0  0  0  0  0  0  0  0  0  0  0  0
   -2.1113   -4.5858    0.6099 H   0  0  0  0  0  0  0  0  0  0  0  0
   -0.6932   -2.9370    1.7758 H   0  0  0  0  0  0  0  0  0  0  0  0
   -1.6551   -2.1581    0.5316 H   0  0  0  0  0  0  0  0  0  0  0  0
    2.9881   -0.6406    2.1528 H   0  0  0  0  0  0  0  0  0  0  0  0
    1.5245   -0.0420   -1.8095 H   0  0  0  0  0  0  0  0  0  0  0  0
    3.2729    1.3652   -4.6029 H   0  0  0  0  0  0  0  0  0  0  0  0
    2.4662   -0.0439   -3.8916 H   0  0  0  0  0  0  0  0  0  0  0  0
    1.9956    1.5967   -3.3970 H   0  0  0  0  0  0  0  0  0  0  0  0
    5.2545    3.0459   -1.4574 H   0  0  0  0  0  0  0  0  0  0  0  0
    5.7716    2.8481    0.2299 H   0  0  0  0  0  0  0  0  0  0  0  0
    6.9652    2.7842   -1.0781 H   0  0  0  0  0  0  0  0  0  0  0  0
    4.5262    0.5445    3.4385 H   0  0  0  0  0  0  0  0  0  0  0  0
    5.0558   -1.1064    3.0464 H   0  0  0  0  0  0  0  0  0  0  0  0
    6.2525    0.1438    3.4273 H   0  0  0  0  0  0  0  0  0  0  0  0
 24 23  1  0
 24 25  1  0
 23 22  1  0
 32 31  1  0
 22 21  1  0
 25 26  1  0
 31 30  1  0
 26 21  1  0
 30 29  2  0
 30 33  1  0
 29 27  1  0
 21 20  1  0
 34 33  1  0
 34 35  1  0
 33 36  2  0
 20 27  1  0
 20 18  1  0
 27 28  2  0
 36 28  1  0
 36 37  1  0
 18 19  2  0
 18 17  1  0
 37 38  1  0
 16 15  1  0
 16 17  1  0
 15 14  1  0
 17 12  1  0
  3  4  1  0
  3  2  1  0
 14 13  1  0
 12 13  1  0
 12 10  1  0
  4  5  1  0
  9 10  1  0
  9  5  1  0
  2  1  1  0
 10 11  2  0
  5  1  1  0
  5  6  1  6
  8  6  1  0
  6  7  2  0
  1 39  1  0
  1 40  1  0
  2 41  1  0
  2 42  1  0
  3 43  1  0
  3 44  1  0
  4 45  1  0
  4 46  1  0
  8 47  1  0
  8 48  1  0
  9 49  1  0
 12 50  1  1
 13 51  1  0
 13 52  1  0
 14 53  1  0
 14 54  1  0
 15 55  1  0
 15 56  1  0
 16 57  1  0
 16 58  1  0
 20 59  1  1
 21 60  1  6
 22 61  1  0
 22 62  1  0
 23 63  1  0
 23 64  1  0
 24 65  1  0
 24 66  1  0
 25 67  1  0
 25 68  1  0
 26 69  1  0
 26 70  1  0
 28 71  1  0
 29 72  1  0
 32 73  1  0
 32 74  1  0
 32 75  1  0
 35 76  1  0
 35 77  1  0
 35 78  1  0
 38 79  1  0
 38 80  1  0
 38 81  1  0
M  END
