
     RDKit          3D

 51 52  0  0  0  0  0  0  0  0999 V2000
   -2.4472    2.1914    0.3144 C   0  0  0  0  0  0  0  0  0  0  0  0
   -0.3702    1.1162    0.9565 C   0  0  0  0  0  0  0  0  0  0  0  0
    1.9749    0.3873    1.0560 N   0  0  0  0  0  0  0  0  0  0  0  0
    0.0340   -1.1204    0.2334 O   0  0  0  0  0  0  0  0  0  0  0  0
   -2.8352    1.0293   -0.3539 C   0  0  0  0  0  0  0  0  0  0  0  0
    0.9181    1.1259    1.7401 C   0  0  0  0  0  0  0  0  0  0  0  0
    5.6377   -0.9339   -0.7290 N   0  0  0  0  0  0  0  0  0  0  0  0
    3.0706    0.0409    1.9518 C   0  0  0  0  0  0  0  0  0  0  0  0
   -1.2070    2.2149    0.9588 C   0  0  0  0  0  0  0  0  0  0  0  0
   -1.9939   -0.0683   -0.3724 C   0  0  0  0  0  0  0  0  0  0  0  0
   -0.7558   -0.0532    0.2728 C   0  0  0  0  0  0  0  0  0  0  0  0
    4.1117   -0.8207    1.2550 C   0  0  0  0  0  0  0  0  0  0  0  0
    4.6801   -0.1190    0.0221 C   0  0  2  0  0  0  0  0  0  0  0  0
    6.3777   -0.1207   -1.6870 C   0  0  0  0  0  0  0  0  0  0  0  0
    7.2687   -0.9250   -2.6213 C   0  0  0  0  0  0  0  0  0  0  0  0
    6.5136   -1.7749    0.0751 C   0  0  0  0  0  0  0  0  0  0  0  0
    7.5284   -1.0553    0.9624 C   0  0  0  0  0  0  0  0  0  0  0  0
    3.4935    0.2663   -0.8665 C   0  0  0  0  0  0  0  0  0  0  0  0
    2.4764    1.1033   -0.1130 C   0  0  0  0  0  0  0  0  0  0  0  0
   -3.3022    3.3305    0.3394 C   0  0  0  0  0  0  0  0  0  0  0  0
   -4.0230    4.2957    0.3656 C   0  0  0  0  0  0  0  0  0  0  0  0
   -4.9095    5.4531    0.3965 C   0  0  0  0  0  0  0  0  0  0  0  0
   -4.1329    6.6276    0.3511 O   0  0  0  0  0  0  0  0  0  0  0  0
   -2.5714   -1.8075   -1.3946 I   0  0  0  0  0  0  0  0  0  0  0  0
   -3.7904    0.9989   -0.8604 H   0  0  0  0  0  0  0  0  0  0  0  0
   -0.8974    3.1122    1.4812 H   0  0  0  0  0  0  0  0  0  0  0  0
    1.2200    2.1586    1.9584 H   0  0  0  0  0  0  0  0  0  0  0  0
    0.7440    0.6387    2.7046 H   0  0  0  0  0  0  0  0  0  0  0  0
    3.5463    0.9526    2.3443 H   0  0  0  0  0  0  0  0  0  0  0  0
    2.6642   -0.5014    2.8072 H   0  0  0  0  0  0  0  0  0  0  0  0
    1.6397    1.3494   -0.7699 H   0  0  0  0  0  0  0  0  0  0  0  0
    2.9305    2.0573    0.1965 H   0  0  0  0  0  0  0  0  0  0  0  0
    0.9421   -0.8092    0.5530 H   0  0  0  0  0  0  0  0  0  0  0  0
    5.1583    0.8159    0.3712 H   0  0  0  0  0  0  0  0  0  0  0  0
    5.6604    0.4224   -2.3027 H   0  0  0  0  0  0  0  0  0  0  0  0
    6.9840    0.6518   -1.1857 H   0  0  0  0  0  0  0  0  0  0  0  0
    5.8997   -2.4381    0.6847 H   0  0  0  0  0  0  0  0  0  0  0  0
    7.0491   -2.4418   -0.6037 H   0  0  0  0  0  0  0  0  0  0  0  0
    4.8890   -1.0380    1.9892 H   0  0  0  0  0  0  0  0  0  0  0  0
    3.6595   -1.7743    0.9641 H   0  0  0  0  0  0  0  0  0  0  0  0
    3.8091    0.8371   -1.7404 H   0  0  0  0  0  0  0  0  0  0  0  0
    3.0198   -0.6486   -1.2362 H   0  0  0  0  0  0  0  0  0  0  0  0
    8.1365   -1.3501   -2.1162 H   0  0  0  0  0  0  0  0  0  0  0  0
    6.7120   -1.7409   -3.0851 H   0  0  0  0  0  0  0  0  0  0  0  0
    7.6426   -0.2793   -3.4163 H   0  0  0  0  0  0  0  0  0  0  0  0
    8.2284   -0.4552    0.3791 H   0  0  0  0  0  0  0  0  0  0  0  0
    7.0481   -0.3906    1.6827 H   0  0  0  0  0  0  0  0  0  0  0  0
    8.1138   -1.7821    1.5269 H   0  0  0  0  0  0  0  0  0  0  0  0
   -5.6008    5.3830   -0.4525 H   0  0  0  0  0  0  0  0  0  0  0  0
   -5.5252    5.4024    1.3036 H   0  0  0  0  0  0  0  0  0  0  0  0
   -4.7366    7.3764    0.3847 H   0  0  0  0  0  0  0  0  0  0  0  0
  1  5  2  0
  1  9  1  0
  1 20  1  0
  2  6  1  0
  2  9  2  0
  2 11  1  0
  3  6  1  0
  3  8  1  0
  3 19  1  0
  4 11  1  0
  5 10  1  0
  7 13  1  0
  7 14  1  0
  7 16  1  0
  8 12  1  0
 10 11  2  0
 10 24  1  0
 12 13  1  0
 13 18  1  0
 14 15  1  0
 16 17  1  0
 18 19  1  0
 20 21  3  0
 21 22  1  0
 22 23  1  0
  5 25  1  0
  9 26  1  0
  6 27  1  0
  6 28  1  0
  8 29  1  0
  8 30  1  0
 19 31  1  0
 19 32  1  0
  4 33  1  0
 13 34  1  1
 14 35  1  0
 14 36  1  0
 16 37  1  0
 16 38  1  0
 12 39  1  0
 12 40  1  0
 18 41  1  0
 18 42  1  0
 15 43  1  0
 15 44  1  0
 15 45  1  0
 17 46  1  0
 17 47  1  0
 17 48  1  0
 22 49  1  0
 22 50  1  0
 23 51  1  0
M  END
