
     RDKit          3D

 23 23  0  0  0  0  0  0  0  0999 V2000
   -5.1342   -0.1468    0.0337 O   0  0  0  0  0  0  0  0  0  0  0  0
   -3.9475    0.4515    0.0311 C   0  0  0  0  0  0  0  0  0  0  0  0
   -3.8148    1.6500    0.0309 O   0  0  0  0  0  0  0  0  0  0  0  0
   -2.8256   -0.5494    0.0285 C   0  0  0  0  0  0  0  0  0  0  0  0
   -1.4594    0.1071    0.0175 C   0  0  0  0  0  0  0  0  0  0  0  0
   -0.3293   -0.8918    0.0094 C   0  0  0  0  0  0  0  0  0  0  0  0
   -0.5366   -2.0894    0.0074 O   0  0  0  0  0  0  0  0  0  0  0  0
    1.0475   -0.3609    0.0030 C   0  0  0  0  0  0  0  0  0  0  0  0
    1.3758    1.0239    0.0079 C   0  0  0  0  0  0  0  0  0  0  0  0
    2.6636    1.4491    0.0033 C   0  0  0  0  0  0  0  0  0  0  0  0
    3.7631    0.5199   -0.0082 C   0  0  0  0  0  0  0  0  0  0  0  0
    4.9519    0.8051   -0.0134 O   0  0  0  0  0  0  0  0  0  0  0  0
    3.3626   -0.8133   -0.0134 N   0  0  0  0  0  0  0  0  0  0  0  0
    2.0959   -1.2409   -0.0078 C   0  0  0  0  0  0  0  0  0  0  0  0
   -5.8395    0.5171    0.0381 H   0  0  0  0  0  0  0  0  0  0  0  0
   -2.9434   -1.1961    0.9016 H   0  0  0  0  0  0  0  0  0  0  0  0
   -2.9533   -1.2019   -0.8389 H   0  0  0  0  0  0  0  0  0  0  0  0
   -1.3521    0.7592   -0.8546 H   0  0  0  0  0  0  0  0  0  0  0  0
   -1.3389    0.7624    0.8852 H   0  0  0  0  0  0  0  0  0  0  0  0
    0.5900    1.7674    0.0158 H   0  0  0  0  0  0  0  0  0  0  0  0
    2.9001    2.5040    0.0066 H   0  0  0  0  0  0  0  0  0  0  0  0
    1.9587   -2.3126   -0.0121 H   0  0  0  0  0  0  0  0  0  0  0  0
    4.1008   -1.5055   -0.0213 H   0  0  0  0  0  0  0  0  0  0  0  0
 13 14  1  0
 13 11  1  0
 12 11  2  0
 14  8  2  0
 11 10  1  0
  7  6  2  0
  8  6  1  0
  8  9  1  0
 10  9  2  0
  6  5  1  0
  5  4  1  0
  4  2  1  0
  2  3  2  0
  2  1  1  0
  1 15  1  0
  4 16  1  0
  4 17  1  0
  5 18  1  0
  5 19  1  0
  9 20  1  0
 10 21  1  0
 14 22  1  0
 13 23  1  0
M  END
