
     RDKit          3D

 31 32  0  0  0  0  0  0  0  0999 V2000
   -4.0069   -3.1158    0.1396 N   0  0  0  0  0  0  0  0  0  0  0  0
   -3.0480   -2.5092    0.3270 C   0  0  0  0  0  0  0  0  0  0  0  0
   -1.8197   -1.7754    0.5940 C   0  0  0  0  0  0  0  0  0  0  0  0
   -1.5618   -0.6487   -0.4123 C   0  0  1  0  0  0  0  0  0  0  0  0
   -2.6069    0.4598   -0.3031 C   0  0  0  0  0  0  0  0  0  0  0  0
   -3.8083    0.3176   -0.3904 O   0  0  0  0  0  0  0  0  0  0  0  0
   -1.9504    1.6291   -0.0740 N   0  0  0  0  0  0  0  0  0  0  0  0
   -2.5782    2.9158    0.0871 C   0  0  0  0  0  0  0  0  0  0  0  0
   -0.2771    0.0807   -0.1681 C   0  0  0  0  0  0  0  0  0  0  0  0
    1.0181   -0.3862   -0.1256 C   0  0  0  0  0  0  0  0  0  0  0  0
   -0.5743    1.4251    0.0132 C   0  0  0  0  0  0  0  0  0  0  0  0
    0.4264    2.3483    0.2416 C   0  0  0  0  0  0  0  0  0  0  0  0
    1.7349    1.8833    0.2870 C   0  0  0  0  0  0  0  0  0  0  0  0
    2.0493    0.5340    0.1099 C   0  0  0  0  0  0  0  0  0  0  0  0
    3.4054    0.1922    0.1792 N   0  0  0  0  0  0  0  0  0  0  0  0
    3.9995   -1.0175    0.0301 C   0  0  0  0  0  0  0  0  0  0  0  0
    3.3913   -2.0517   -0.1918 O   0  0  0  0  0  0  0  0  0  0  0  0
    5.5016   -0.9935    0.1556 C   0  0  0  0  0  0  0  0  0  0  0  0
   -1.8621   -1.3849    1.6126 H   0  0  0  0  0  0  0  0  0  0  0  0
   -0.9975   -2.4923    0.5591 H   0  0  0  0  0  0  0  0  0  0  0  0
   -1.5938   -1.0576   -1.4275 H   0  0  0  0  0  0  0  0  0  0  0  0
   -2.2515    3.6046   -0.6923 H   0  0  0  0  0  0  0  0  0  0  0  0
   -3.6556    2.7985    0.0217 H   0  0  0  0  0  0  0  0  0  0  0  0
   -2.3294    3.3433    1.0585 H   0  0  0  0  0  0  0  0  0  0  0  0
    1.2237   -1.4341   -0.2743 H   0  0  0  0  0  0  0  0  0  0  0  0
    0.2203    3.4008    0.3831 H   0  0  0  0  0  0  0  0  0  0  0  0
    2.5320    2.5955    0.4652 H   0  0  0  0  0  0  0  0  0  0  0  0
    4.0235    0.9684    0.3572 H   0  0  0  0  0  0  0  0  0  0  0  0
    5.9108   -0.0151    0.3984 H   0  0  0  0  0  0  0  0  0  0  0  0
    5.8088   -1.6978    0.9283 H   0  0  0  0  0  0  0  0  0  0  0  0
    5.9448   -1.3275   -0.7827 H   0  0  0  0  0  0  0  0  0  0  0  0
  8  7  1  0
 12 13  1  0
 12 11  2  0
 13 14  2  0
  7 11  1  0
  7  5  1  0
 11  9  1  0
 14 15  1  0
 14 10  1  0
  5  6  2  0
  5  4  1  0
 15 16  1  0
  9 10  2  0
  9  4  1  0
  4  3  1  0
  3  2  1  0
 16 18  1  0
 16 17  2  0
  2  1  3  0
  3 19  1  0
  3 20  1  0
  4 21  1  6
  8 22  1  0
  8 23  1  0
  8 24  1  0
 10 25  1  0
 12 26  1  0
 13 27  1  0
 15 28  1  0
 18 29  1  0
 18 30  1  0
 18 31  1  0
M  END
