
     RDKit          3D

 50 53  0  0  0  0  0  0  0  0999 V2000
   -6.3618   -0.9525    1.1598 Cl  0  0  0  0  0  0  0  0  0  0  0  0
   -4.7820   -0.3739    0.7491 C   0  0  0  0  0  0  0  0  0  0  0  0
   -3.7607   -1.2849    0.5315 C   0  0  0  0  0  0  0  0  0  0  0  0
   -2.5002   -0.8074    0.2094 C   0  0  0  0  0  0  0  0  0  0  0  0
   -4.5651    0.9930    0.6600 C   0  0  0  0  0  0  0  0  0  0  0  0
   -3.3026    1.4640    0.3328 C   0  0  0  0  0  0  0  0  0  0  0  0
   -2.2671    0.5591    0.0937 C   0  0  0  0  0  0  0  0  0  0  0  0
   -2.9909    2.9228    0.2118 C   0  0  0  0  0  0  0  0  0  0  0  0
   -1.5559    3.2209    0.6643 C   0  0  1  0  0  0  0  0  0  0  0  0
   -1.1927    4.6494    0.2714 C   0  0  0  0  0  0  0  0  0  0  0  0
   -1.4184    3.0604    2.1809 C   0  0  0  0  0  0  0  0  0  0  0  0
   -0.6061    2.3351    0.0042 N   0  0  0  0  0  0  0  0  0  0  0  0
   -0.9422    1.1295   -0.2304 C   0  0  0  0  0  0  0  0  0  0  0  0
   -0.0235    0.2615   -0.7629 N   0  0  0  0  0  0  0  0  0  0  0  0
    1.2757    0.7593   -1.1018 C   0  0  2  0  0  0  0  0  0  0  0  0
    1.2170    1.7722   -2.2357 C   0  0  0  0  0  0  0  0  0  0  0  0
    2.2258    2.6298   -2.1815 O   0  0  0  0  0  0  0  0  0  0  0  0
    0.3913    1.7574   -3.1117 O   0  0  0  0  0  0  0  0  0  0  0  0
    2.1945   -0.4039   -1.5090 C   0  0  0  0  0  0  0  0  0  0  0  0
    2.3544   -1.3832   -0.3905 C   0  0  0  0  0  0  0  0  0  0  0  0
    1.7526   -2.6021   -0.3040 C   0  0  0  0  0  0  0  0  0  0  0  0
    0.6123   -3.3985   -1.5445 Br  0  0  0  0  0  0  0  0  0  0  0  0
    2.0904   -3.4292    1.1618 S   0  0  0  0  0  0  0  0  0  0  0  0
    3.0682   -2.1318    1.6984 C   0  0  0  0  0  0  0  0  0  0  0  0
    3.1259   -1.1139    0.7930 C   0  0  0  0  0  0  0  0  0  0  0  0
    3.8699    0.1212    1.0318 C   0  0  0  0  0  0  0  0  0  0  0  0
    3.8362    0.8972    2.1735 C   0  0  0  0  0  0  0  0  0  0  0  0
    4.6909    1.9088    1.9714 N   0  0  0  0  0  0  0  0  0  0  0  0
    5.2873    1.8618    0.7870 N   0  0  0  0  0  0  0  0  0  0  0  0
    4.7997    0.7852    0.2028 C   0  0  0  0  0  0  0  0  0  0  0  0
   -3.9381   -2.3476    0.6199 H   0  0  0  0  0  0  0  0  0  0  0  0
   -1.6981   -1.5210    0.0707 H   0  0  0  0  0  0  0  0  0  0  0  0
   -5.3724    1.6894    0.8473 H   0  0  0  0  0  0  0  0  0  0  0  0
   -3.1009    3.2210   -0.8379 H   0  0  0  0  0  0  0  0  0  0  0  0
   -3.7068    3.5182    0.7821 H   0  0  0  0  0  0  0  0  0  0  0  0
   -1.8600    5.3695    0.7478 H   0  0  0  0  0  0  0  0  0  0  0  0
   -0.1705    4.8804    0.5740 H   0  0  0  0  0  0  0  0  0  0  0  0
   -1.2631    4.7827   -0.8091 H   0  0  0  0  0  0  0  0  0  0  0  0
   -1.6781    2.0523    2.5091 H   0  0  0  0  0  0  0  0  0  0  0  0
   -0.3907    3.2559    2.4907 H   0  0  0  0  0  0  0  0  0  0  0  0
   -2.0681    3.7628    2.7061 H   0  0  0  0  0  0  0  0  0  0  0  0
   -0.3932   -0.4517   -1.3724 H   0  0  0  0  0  0  0  0  0  0  0  0
    1.6966    1.2559   -0.2247 H   0  0  0  0  0  0  0  0  0  0  0  0
    2.2025    3.2207   -2.9494 H   0  0  0  0  0  0  0  0  0  0  0  0
    1.7983   -0.8917   -2.4022 H   0  0  0  0  0  0  0  0  0  0  0  0
    3.1667   -0.0025   -1.7951 H   0  0  0  0  0  0  0  0  0  0  0  0
    3.5731   -2.1901    2.6507 H   0  0  0  0  0  0  0  0  0  0  0  0
    3.2632    0.8009    3.0813 H   0  0  0  0  0  0  0  0  0  0  0  0
    4.9043    2.6575    2.6112 H   0  0  0  0  0  0  0  0  0  0  0  0
    5.1382    0.5010   -0.7821 H   0  0  0  0  0  0  0  0  0  0  0  0
  1  2  1  0
  3  2  2  0
  3  4  1  0
  2  5  1  0
  4  7  2  0
 29 28  1  0
 29 30  2  0
 18 16  2  0
  5  6  2  0
 28 27  1  0
  7  6  1  0
  7 13  1  0
 30 26  1  0
  6  8  1  0
 16 17  1  0
 16 15  1  0
 14 13  1  0
 14 15  1  0
 27 26  2  0
 13 12  2  0
 26 25  1  0
 15 19  1  0
  8  9  1  0
 19 20  1  0
 12  9  1  0
 25 20  1  0
 25 24  2  0
  9 11  1  1
  9 10  1  0
 20 21  2  0
 24 23  1  0
 21 23  1  0
 21 22  1  0
  3 31  1  0
  4 32  1  0
  5 33  1  0
  8 34  1  0
  8 35  1  0
 10 36  1  0
 10 37  1  0
 10 38  1  0
 11 39  1  0
 11 40  1  0
 11 41  1  0
 14 42  1  0
 15 43  1  1
 17 44  1  0
 19 45  1  0
 19 46  1  0
 24 47  1  0
 27 48  1  0
 28 49  1  0
 30 50  1  0
M  END
