
     RDKit          3D

 41 43  0  0  0  0  0  0  0  0999 V2000
    5.3885    2.5868   -0.3525 O   0  0  0  0  0  0  0  0  0  0  0  0
    5.9854    1.5414   -0.4513 C   0  0  0  0  0  0  0  0  0  0  0  0
    7.2961    1.4710   -0.6344 O   0  0  0  0  0  0  0  0  0  0  0  0
    5.3357    0.2065   -0.3842 C   0  0  0  0  0  0  0  0  0  0  0  0
    3.9490    0.1773   -0.2578 C   0  0  0  0  0  0  0  0  0  0  0  0
    6.0705   -0.9738   -0.4538 C   0  0  0  0  0  0  0  0  0  0  0  0
    5.3999   -2.1858   -0.3960 C   0  0  0  0  0  0  0  0  0  0  0  0
    4.0238   -2.2238   -0.2600 C   0  0  0  0  0  0  0  0  0  0  0  0
    3.2817   -1.0424   -0.1887 C   0  0  0  0  0  0  0  0  0  0  0  0
    1.8951   -1.1631   -0.0964 N   0  0  0  0  0  0  0  0  0  0  0  0
    1.0239   -0.2509    0.4399 C   0  0  0  0  0  0  0  0  0  0  0  0
    1.3679    0.8185    0.9073 O   0  0  0  0  0  0  0  0  0  0  0  0
   -0.2743   -0.6826    0.3901 N   0  0  0  0  0  0  0  0  0  0  0  0
   -1.4032    0.0138    0.8295 C   0  0  0  0  0  0  0  0  0  0  0  0
   -2.6129   -0.2759    0.1992 C   0  0  0  0  0  0  0  0  0  0  0  0
   -1.3831    0.9361    1.8761 C   0  0  0  0  0  0  0  0  0  0  0  0
   -2.5648    1.5583    2.2514 C   0  0  0  0  0  0  0  0  0  0  0  0
   -3.7654    1.2723    1.6219 C   0  0  0  0  0  0  0  0  0  0  0  0
   -3.8005    0.3370    0.5875 C   0  0  0  0  0  0  0  0  0  0  0  0
   -5.0700    0.0039   -0.0912 C   0  0  0  0  0  0  0  0  0  0  0  0
   -6.0226    0.9926   -0.3442 C   0  0  0  0  0  0  0  0  0  0  0  0
   -7.2165    0.6833   -0.9793 C   0  0  0  0  0  0  0  0  0  0  0  0
   -7.4816   -0.6219   -1.3729 C   0  0  0  0  0  0  0  0  0  0  0  0
   -6.5426   -1.6145   -1.1253 C   0  0  0  0  0  0  0  0  0  0  0  0
   -5.3483   -1.3044   -0.4911 C   0  0  0  0  0  0  0  0  0  0  0  0
    7.6710    2.3632   -0.6746 H   0  0  0  0  0  0  0  0  0  0  0  0
    3.4018    1.1053   -0.2262 H   0  0  0  0  0  0  0  0  0  0  0  0
    7.1464   -0.9622   -0.5508 H   0  0  0  0  0  0  0  0  0  0  0  0
    5.9547   -3.1126   -0.4512 H   0  0  0  0  0  0  0  0  0  0  0  0
    3.5166   -3.1798   -0.2055 H   0  0  0  0  0  0  0  0  0  0  0  0
    1.5338   -2.0790   -0.3166 H   0  0  0  0  0  0  0  0  0  0  0  0
   -0.4702   -1.4976   -0.1710 H   0  0  0  0  0  0  0  0  0  0  0  0
   -2.6195   -0.9760   -0.6284 H   0  0  0  0  0  0  0  0  0  0  0  0
   -0.4700    1.1642    2.4023 H   0  0  0  0  0  0  0  0  0  0  0  0
   -2.5460    2.2695    3.0668 H   0  0  0  0  0  0  0  0  0  0  0  0
   -4.6749    1.7571    1.9526 H   0  0  0  0  0  0  0  0  0  0  0  0
   -5.8227    2.0185   -0.0609 H   0  0  0  0  0  0  0  0  0  0  0  0
   -7.9376    1.4666   -1.1740 H   0  0  0  0  0  0  0  0  0  0  0  0
   -8.4125   -0.8644   -1.8687 H   0  0  0  0  0  0  0  0  0  0  0  0
   -6.7427   -2.6365   -1.4201 H   0  0  0  0  0  0  0  0  0  0  0  0
   -4.6361   -2.0946   -0.2873 H   0  0  0  0  0  0  0  0  0  0  0  0
  7  8  2  0
  7  6  1  0
 12 11  2  0
 17 16  2  0
 17 18  1  0
  8  9  1  0
 16 14  1  0
  6  4  2  0
 18 19  2  0
 11 10  1  0
 11 13  1  0
  9 10  1  0
  9  5  2  0
  4  5  1  0
  4  2  1  0
 14 13  1  0
 14 15  2  0
  1  2  2  0
  2  3  1  0
 19 15  1  0
 19 20  1  0
 25 20  1  0
 25 24  2  0
 20 21  2  0
 24 23  1  0
 21 22  1  0
 23 22  2  0
  3 26  1  0
  5 27  1  0
  6 28  1  0
  7 29  1  0
  8 30  1  0
 10 31  1  0
 13 32  1  0
 15 33  1  0
 16 34  1  0
 17 35  1  0
 18 36  1  0
 21 37  1  0
 22 38  1  0
 23 39  1  0
 24 40  1  0
 25 41  1  0
M  END
