
     RDKit          3D

 23 23  0  0  0  0  0  0  0  0999 V2000
   -1.9752   -0.0189    1.1639 N   0  0  0  0  0  0  0  0  0  0  0  0
   -1.6316   -0.0004   -0.2540 C   0  0  2  0  0  0  0  0  0  0  0  0
   -0.8262   -1.2495   -0.6070 C   0  0  0  0  0  0  0  0  0  0  0  0
   -0.8182    1.2526   -0.5722 C   0  0  0  0  0  0  0  0  0  0  0  0
    0.5592    1.2420    0.0832 C   0  0  0  0  0  0  0  0  0  0  0  0
    1.3570   -0.0096   -0.2791 C   0  0  1  0  0  0  0  0  0  0  0  0
    2.7128   -0.0246    0.4138 C   0  0  0  0  0  0  0  0  0  0  0  0
    0.5511   -1.2656    0.0482 C   0  0  0  0  0  0  0  0  0  0  0  0
   -2.5577    0.7820    1.3772 H   0  0  0  0  0  0  0  0  0  0  0  0
   -2.5491   -0.8308    1.3587 H   0  0  0  0  0  0  0  0  0  0  0  0
   -2.5278    0.0106   -0.8934 H   0  0  0  0  0  0  0  0  0  0  0  0
   -1.3894   -2.1452   -0.3263 H   0  0  0  0  0  0  0  0  0  0  0  0
   -0.7121   -1.2910   -1.6950 H   0  0  0  0  0  0  0  0  0  0  0  0
   -0.7038    1.3238   -1.6587 H   0  0  0  0  0  0  0  0  0  0  0  0
   -1.3757    2.1439   -0.2671 H   0  0  0  0  0  0  0  0  0  0  0  0
    1.1146    2.1348   -0.2192 H   0  0  0  0  0  0  0  0  0  0  0  0
    0.4511    1.2978    1.1708 H   0  0  0  0  0  0  0  0  0  0  0  0
    1.5261    0.0051   -1.3647 H   0  0  0  0  0  0  0  0  0  0  0  0
    2.5908   -0.0425    1.4995 H   0  0  0  0  0  0  0  0  0  0  0  0
    3.2965   -0.9031    0.1314 H   0  0  0  0  0  0  0  0  0  0  0  0
    3.3018    0.8591    0.1604 H   0  0  0  0  0  0  0  0  0  0  0  0
    0.4425   -1.3512    1.1338 H   0  0  0  0  0  0  0  0  0  0  0  0
    1.1010   -2.1530   -0.2790 H   0  0  0  0  0  0  0  0  0  0  0  0
  1  2  1  0
  2  3  1  0
  2  4  1  0
  3  8  1  0
  4  5  1  0
  5  6  1  0
  6  7  1  0
  6  8  1  0
  1  9  1  0
  1 10  1  0
  2 11  1  6
  3 12  1  0
  3 13  1  0
  4 14  1  0
  4 15  1  0
  5 16  1  0
  5 17  1  0
  6 18  1  6
  7 19  1  0
  7 20  1  0
  7 21  1  0
  8 22  1  0
  8 23  1  0
M  END
