
     RDKit          3D

 30 32  0  0  0  0  0  0  0  0999 V2000
    1.3208   -2.7423   -0.1517 O   0  0  0  0  0  0  0  0  0  0  0  0
    0.9836   -1.5663   -0.0845 C   0  0  0  0  0  0  0  0  0  0  0  0
    1.8976   -0.4383   -0.0131 C   0  0  0  0  0  0  0  0  0  0  0  0
    3.2804   -0.6647   -0.0244 C   0  0  0  0  0  0  0  0  0  0  0  0
    4.1614    0.3887    0.0452 C   0  0  0  0  0  0  0  0  0  0  0  0
   -0.3517   -1.2376   -0.0759 N   0  0  0  0  0  0  0  0  0  0  0  0
   -0.8788    0.0298    0.0013 C   0  0  0  0  0  0  0  0  0  0  0  0
   -0.0188    1.0986    0.0779 C   0  0  0  0  0  0  0  0  0  0  0  0
    1.3813    0.8725    0.0671 C   0  0  0  0  0  0  0  0  0  0  0  0
    2.3076    1.9369    0.1403 C   0  0  0  0  0  0  0  0  0  0  0  0
    3.6601    1.6970    0.1295 C   0  0  0  0  0  0  0  0  0  0  0  0
   -2.2199    0.1288   -0.0087 N   0  0  0  0  0  0  0  0  0  0  0  0
   -3.1452   -0.9971    0.0123 C   0  0  0  0  0  0  0  0  0  0  0  0
   -4.4941   -0.3331    0.2660 C   0  0  0  0  0  0  0  0  0  0  0  0
   -4.3380    1.0401   -0.3784 C   0  0  0  0  0  0  0  0  0  0  0  0
   -2.8979    1.4145   -0.0523 C   0  0  0  0  0  0  0  0  0  0  0  0
    3.6484   -1.6805   -0.0895 H   0  0  0  0  0  0  0  0  0  0  0  0
    5.2288    0.2147    0.0362 H   0  0  0  0  0  0  0  0  0  0  0  0
   -0.3998    2.1057    0.1587 H   0  0  0  0  0  0  0  0  0  0  0  0
    1.9380    2.9531    0.2059 H   0  0  0  0  0  0  0  0  0  0  0  0
    4.3495    2.5299    0.1864 H   0  0  0  0  0  0  0  0  0  0  0  0
   -3.1407   -1.5317   -0.9442 H   0  0  0  0  0  0  0  0  0  0  0  0
   -2.8974   -1.7134    0.7998 H   0  0  0  0  0  0  0  0  0  0  0  0
   -5.3172   -0.9138   -0.1475 H   0  0  0  0  0  0  0  0  0  0  0  0
   -4.6615   -0.2306    1.3399 H   0  0  0  0  0  0  0  0  0  0  0  0
   -4.4707    0.9686   -1.4598 H   0  0  0  0  0  0  0  0  0  0  0  0
   -5.0478    1.7748   -0.0010 H   0  0  0  0  0  0  0  0  0  0  0  0
   -2.8248    1.9293    0.9120 H   0  0  0  0  0  0  0  0  0  0  0  0
   -2.4532    2.0641   -0.8090 H   0  0  0  0  0  0  0  0  0  0  0  0
   -0.9809   -2.0256   -0.1491 H   0  0  0  0  0  0  0  0  0  0  0  0
 15 16  1  0
 15 14  1  0
 16 12  1  0
 14 13  1  0
 12 13  1  0
 12  7  1  0
  6  7  1  0
  6  2  1  0
  7  8  2  0
  1  2  2  0
  2  3  1  0
  8  9  1  0
  3  9  2  0
  3  4  1  0
  9 10  1  0
  4  5  2  0
 10 11  2  0
  5 11  1  0
  4 17  1  0
  5 18  1  0
  8 19  1  0
 10 20  1  0
 11 21  1  0
 13 22  1  0
 13 23  1  0
 14 24  1  0
 14 25  1  0
 15 26  1  0
 15 27  1  0
 16 28  1  0
 16 29  1  0
  6 30  1  0
M  END
