
     RDKit          3D

 55 59  0  0  0  0  0  0  0  0999 V2000
   -2.1037    2.8600   -0.2630 O   0  0  0  0  0  0  0  0  0  0  0  0
   -6.4888   -0.8064   -0.0615 C   0  0  0  0  0  0  0  0  0  0  0  0
   -5.1063   -0.4856    0.1960 C   0  0  0  0  0  0  0  0  0  0  0  0
   -2.6261   -0.5056    0.3138 C   0  0  0  0  0  0  0  0  0  0  0  0
   -1.2408   -0.8850    0.1542 C   0  0  0  0  0  0  0  0  0  0  0  0
    1.2230   -0.8932   -0.2023 C   0  0  0  0  0  0  0  0  0  0  0  0
    2.6104   -0.5196   -0.3545 C   0  0  0  0  0  0  0  0  0  0  0  0
    5.0887   -0.4918   -0.1957 C   0  0  0  0  0  0  0  0  0  0  0  0
    8.9158   -0.7190    0.3901 C   0  0  0  0  0  0  0  0  0  0  0  0
   10.3253   -0.3400    0.4537 C   0  0  0  0  0  0  0  0  0  0  0  0
    2.1365    2.8571    0.2090 O   0  0  0  0  0  0  0  0  0  0  0  0
   -8.4203   -1.9631   -0.6115 C   0  0  0  0  0  0  0  0  0  0  0  0
   -7.0225   -2.0104   -0.4597 C   0  0  0  0  0  0  0  0  0  0  0  0
   -4.5887    0.5674    0.9017 C   0  0  0  0  0  0  0  0  0  0  0  0
   -3.1765    0.5664    0.9776 C   0  0  0  0  0  0  0  0  0  0  0  0
   -0.7078   -2.1483    0.0982 C   0  0  0  0  0  0  0  0  0  0  0  0
    0.6874   -2.1531   -0.1066 C   0  0  0  0  0  0  0  0  0  0  0  0
   -2.4129    1.5856    1.7596 C   0  0  0  0  0  0  0  0  0  0  0  0
    1.9892    2.7574   -0.9810 C   0  0  0  0  0  0  0  0  0  0  0  0
   -8.9408   -0.7294   -0.3290 C   0  0  0  0  0  0  0  0  0  0  0  0
    6.4673   -0.8039    0.0915 C   0  0  0  0  0  0  0  0  0  0  0  0
  -11.2389   -1.1131   -0.6855 O   0  0  0  0  0  0  0  0  0  0  0  0
   11.2071   -1.0874    0.8024 O   0  0  0  0  0  0  0  0  0  0  0  0
  -10.5351    0.9168   -0.0419 O   0  0  0  0  0  0  0  0  0  0  0  0
   -7.7116    0.3897    0.1147 S   0  0  0  0  0  0  0  0  0  0  0  0
   -3.8439   -1.4869   -0.4133 S   0  0  0  0  0  0  0  0  0  0  0  0
   -0.0075    0.3027   -0.0408 S   0  0  0  0  0  0  0  0  0  0  0  0
    3.8190   -1.4926    0.3998 S   0  0  0  0  0  0  0  0  0  0  0  0
    7.6935    0.3856   -0.1075 S   0  0  0  0  0  0  0  0  0  0  0  0
    3.1694    0.5468   -1.0190 C   0  0  0  0  0  0  0  0  0  0  0  0
    4.5803    0.5556   -0.9157 C   0  0  0  0  0  0  0  0  0  0  0  0
    6.9946   -1.9942    0.5363 C   0  0  0  0  0  0  0  0  0  0  0  0
    8.3907   -1.9430    0.7041 C   0  0  0  0  0  0  0  0  0  0  0  0
   -1.8915    2.7223    0.9135 C   0  0  0  0  0  0  0  0  0  0  0  0
   10.5124    0.9218    0.0870 O   0  0  0  0  0  0  0  0  0  0  0  0
   -1.1616    3.5608    1.6367 O   0  0  0  0  0  0  0  0  0  0  0  0
    1.4115    3.6844   -1.7338 O   0  0  0  0  0  0  0  0  0  0  0  0
   -9.0238   -2.8070   -0.9130 H   0  0  0  0  0  0  0  0  0  0  0  0
   -6.4322   -2.9015   -0.6227 H   0  0  0  0  0  0  0  0  0  0  0  0
   -5.2007    1.3136    1.3919 H   0  0  0  0  0  0  0  0  0  0  0  0
   -1.2984   -3.0474    0.2082 H   0  0  0  0  0  0  0  0  0  0  0  0
    1.2769   -3.0562   -0.1842 H   0  0  0  0  0  0  0  0  0  0  0  0
   -3.0598    2.0160    2.5297 H   0  0  0  0  0  0  0  0  0  0  0  0
   -1.5768    1.1350    2.3018 H   0  0  0  0  0  0  0  0  0  0  0  0
    1.5351    1.1420   -2.2881 H   0  0  0  0  0  0  0  0  0  0  0  0
    3.0468    1.9337   -2.6283 H   0  0  0  0  0  0  0  0  0  0  0  0
  -11.4768    1.1436   -0.0727 H   0  0  0  0  0  0  0  0  0  0  0  0
    5.1962    1.3023   -1.4006 H   0  0  0  0  0  0  0  0  0  0  0  0
    6.4021   -2.8794    0.7215 H   0  0  0  0  0  0  0  0  0  0  0  0
    8.9883   -2.7784    1.0390 H   0  0  0  0  0  0  0  0  0  0  0  0
   11.4516    1.1545    0.1379 H   0  0  0  0  0  0  0  0  0  0  0  0
   -0.8698    4.3076    1.0934 H   0  0  0  0  0  0  0  0  0  0  0  0
    1.1759    4.4547   -1.1956 H   0  0  0  0  0  0  0  0  0  0  0  0
    2.4205    1.5704   -1.8090 C   0  0  0  0  0  0  0  0  0  0  0  0
  -10.3517   -0.3533   -0.3799 C   0  0  0  0  0  0  0  0  0  0  0  0
 11 19  2  0
 22 55  2  0
 19 54  1  0
 19 37  1  0
 27  6  1  0
 27  5  1  0
 54 30  1  0
 23 10  2  0
  6  7  1  0
  6 17  2  0
 26  4  1  0
 26  3  1  0
  7 30  2  0
  7 28  1  0
 25 20  1  0
 25  2  1  0
  5 16  2  0
  5  4  1  0
 55 24  1  0
 55 20  1  0
 30 31  1  0
 17 16  1  0
  1 34  2  0
  4 15  2  0
 28  8  1  0
 20 12  2  0
 10 35  1  0
 10  9  1  0
 29  9  1  0
 29 21  1  0
  3  2  1  0
  3 14  2  0
 31  8  2  0
  2 13  2  0
  8 21  1  0
  9 33  2  0
 15 14  1  0
 15 18  1  0
 34 18  1  0
 34 36  1  0
 21 32  2  0
 12 13  1  0
 33 32  1  0
 12 38  1  0
 13 39  1  0
 14 40  1  0
 16 41  1  0
 17 42  1  0
 18 43  1  0
 18 44  1  0
 54 45  1  0
 54 46  1  0
 24 47  1  0
 31 48  1  0
 32 49  1  0
 33 50  1  0
 35 51  1  0
 36 52  1  0
 37 53  1  0
M  END
