
     RDKit          3D

 64 69  0  0  0  0  0  0  0  0999 V2000
    2.3100   -0.8388    2.2640 F   0  0  0  0  0  0  0  0  0  0  0  0
    2.6755    0.0922    1.3725 C   0  0  0  0  0  0  0  0  0  0  0  0
    3.8845   -0.0828    0.7102 C   0  0  0  0  0  0  0  0  0  0  0  0
    4.2071    0.9223   -0.1866 C   0  0  0  0  0  0  0  0  0  0  0  0
    3.4084    2.0245   -0.4240 C   0  0  0  0  0  0  0  0  0  0  0  0
    2.2062    2.1566    0.2661 C   0  0  0  0  0  0  0  0  0  0  0  0
    1.8414    1.1714    1.1837 C   0  0  0  0  0  0  0  0  0  0  0  0
    1.3688    3.3528    0.0473 C   0  0  0  0  0  0  0  0  0  0  0  0
   -0.0395    3.2533   -0.1350 C   0  0  0  0  0  0  0  0  0  0  0  0
   -0.6332    2.0444   -0.1405 N   0  0  0  0  0  0  0  0  0  0  0  0
   -1.9305    1.9822   -0.2937 C   0  0  0  0  0  0  0  0  0  0  0  0
   -2.6949    3.1750   -0.4653 C   0  0  0  0  0  0  0  0  0  0  0  0
   -2.1491    4.3512   -0.4890 N   0  0  0  0  0  0  0  0  0  0  0  0
   -0.8044    4.4288   -0.3274 C   0  0  0  0  0  0  0  0  0  0  0  0
   -0.1766    5.6880   -0.3570 C   0  0  0  0  0  0  0  0  0  0  0  0
    1.1801    5.7668   -0.1948 C   0  0  0  0  0  0  0  0  0  0  0  0
    1.9441    4.6031    0.0079 C   0  0  0  0  0  0  0  0  0  0  0  0
   -2.5517    0.6727   -0.2827 C   0  0  0  0  0  0  0  0  0  0  0  0
   -3.8893    0.3311   -0.3946 C   0  0  0  0  0  0  0  0  0  0  0  0
   -3.9542   -1.0049   -0.3350 N   0  0  0  0  0  0  0  0  0  0  0  0
   -2.7520   -1.5647   -0.1838 N   0  0  0  0  0  0  0  0  0  0  0  0
   -1.8960   -0.5683   -0.1519 C   0  0  0  0  0  0  0  0  0  0  0  0
   -5.1276   -1.8675   -0.3446 C   0  0  1  0  0  0  0  0  0  0  0  0
   -5.5070   -2.3050    1.0677 C   0  0  0  0  0  0  0  0  0  0  0  0
   -6.7076   -3.2395    1.0054 C   0  0  0  0  0  0  0  0  0  0  0  0
   -7.8137   -2.5794    0.3368 N   0  0  0  0  0  0  0  0  0  0  0  0
   -7.4798   -2.2182   -1.0284 C   0  0  0  0  0  0  0  0  0  0  0  0
   -6.3223   -1.2269   -1.0357 C   0  0  0  0  0  0  0  0  0  0  0  0
    5.3510    0.8169   -0.8796 F   0  0  0  0  0  0  0  0  0  0  0  0
    4.7326   -1.3012    0.9465 C   0  0  0  0  0  0  0  0  0  0  0  0
    4.1525   -2.4768    0.3252 N   0  0  0  0  0  0  0  0  0  0  0  0
    4.7744   -3.6941    0.8124 C   0  0  0  0  0  0  0  0  0  0  0  0
    4.1104   -4.9034    0.1829 C   0  0  0  0  0  0  0  0  0  0  0  0
    4.1700   -4.8529   -1.2253 O   0  0  0  0  0  0  0  0  0  0  0  0
    3.5687   -3.6727   -1.7092 C   0  0  0  0  0  0  0  0  0  0  0  0
    4.2160   -2.4321   -1.1244 C   0  0  0  0  0  0  0  0  0  0  0  0
    3.7166    2.7603   -1.1554 H   0  0  0  0  0  0  0  0  0  0  0  0
    0.9270    1.2435    1.7544 H   0  0  0  0  0  0  0  0  0  0  0  0
   -3.7715    3.1226   -0.5881 H   0  0  0  0  0  0  0  0  0  0  0  0
   -0.7828    6.5719   -0.5072 H   0  0  0  0  0  0  0  0  0  0  0  0
    1.6766    6.7276   -0.2105 H   0  0  0  0  0  0  0  0  0  0  0  0
    3.0118    4.7023    0.1570 H   0  0  0  0  0  0  0  0  0  0  0  0
   -4.7685    0.9436   -0.5067 H   0  0  0  0  0  0  0  0  0  0  0  0
   -0.8375   -0.7495   -0.0458 H   0  0  0  0  0  0  0  0  0  0  0  0
   -4.8309   -2.7500   -0.9191 H   0  0  0  0  0  0  0  0  0  0  0  0
   -4.6662   -2.8095    1.5465 H   0  0  0  0  0  0  0  0  0  0  0  0
   -5.7560   -1.4245    1.6672 H   0  0  0  0  0  0  0  0  0  0  0  0
   -6.4041   -4.1715    0.5011 H   0  0  0  0  0  0  0  0  0  0  0  0
   -7.0142   -3.5129    2.0163 H   0  0  0  0  0  0  0  0  0  0  0  0
   -8.6217   -3.1879    0.3376 H   0  0  0  0  0  0  0  0  0  0  0  0
   -7.1985   -3.0895   -1.6424 H   0  0  0  0  0  0  0  0  0  0  0  0
   -8.3521   -1.7643   -1.5006 H   0  0  0  0  0  0  0  0  0  0  0  0
   -6.6320   -0.3207   -0.5084 H   0  0  0  0  0  0  0  0  0  0  0  0
   -6.0732   -0.9513   -2.0624 H   0  0  0  0  0  0  0  0  0  0  0  0
    5.7621   -1.1183    0.6076 H   0  0  0  0  0  0  0  0  0  0  0  0
    4.7962   -1.4842    2.0213 H   0  0  0  0  0  0  0  0  0  0  0  0
    5.8576   -3.7180    0.6014 H   0  0  0  0  0  0  0  0  0  0  0  0
    4.6569   -3.7503    1.8976 H   0  0  0  0  0  0  0  0  0  0  0  0
    4.6172   -5.8159    0.5005 H   0  0  0  0  0  0  0  0  0  0  0  0
    3.0659   -4.9620    0.5200 H   0  0  0  0  0  0  0  0  0  0  0  0
    3.6748   -3.6726   -2.7950 H   0  0  0  0  0  0  0  0  0  0  0  0
    2.4946   -3.6642   -1.4751 H   0  0  0  0  0  0  0  0  0  0  0  0
    3.6767   -1.5576   -1.4961 H   0  0  0  0  0  0  0  0  0  0  0  0
    5.2566   -2.3512   -1.4837 H   0  0  0  0  0  0  0  0  0  0  0  0
  1  2  1  0
  2  3  2  0
  2  7  1  0
  3  4  1  0
  3 30  1  0
  4  5  2  0
  4 29  1  0
  5  6  1  0
  6  7  2  0
  6  8  1  0
  8  9  1  0
  8 17  2  0
  9 10  2  0
  9 14  1  0
 10 11  1  0
 11 12  2  0
 11 18  1  0
 12 13  1  0
 13 14  2  0
 14 15  1  0
 15 16  2  0
 16 17  1  0
 18 19  2  0
 18 22  1  0
 19 20  1  0
 20 21  1  0
 20 23  1  0
 21 22  2  0
 23 24  1  0
 23 28  1  0
 24 25  1  0
 25 26  1  0
 26 27  1  0
 27 28  1  0
 30 31  1  0
 31 32  1  0
 31 36  1  0
 32 33  1  0
 33 34  1  0
 34 35  1  0
 35 36  1  0
  5 37  1  0
  7 38  1  0
 12 39  1  0
 15 40  1  0
 16 41  1  0
 17 42  1  0
 19 43  1  0
 22 44  1  0
 23 45  1  6
 24 46  1  0
 24 47  1  0
 25 48  1  0
 25 49  1  0
 26 50  1  0
 27 51  1  0
 27 52  1  0
 28 53  1  0
 28 54  1  0
 30 55  1  0
 30 56  1  0
 32 57  1  0
 32 58  1  0
 33 59  1  0
 33 60  1  0
 35 61  1  0
 35 62  1  0
 36 63  1  0
 36 64  1  0
M  END
