
     RDKit          3D

 11 11  0  0  0  0  0  0  0  0999 V2000
   -0.7270   -2.8370    0.3973 C   0  0  0  0  0  0  0  0  0  0  0  0
   -0.2107   -2.0424   -0.6951 C   0  0  0  0  0  0  0  0  0  0  0  0
    0.0111   -2.6631   -1.8790 O   0  0  0  0  0  0  0  0  0  0  0  0
    0.4786   -1.7457   -2.7292 C   0  0  0  0  0  0  0  0  0  0  0  0
    0.5699   -0.5294   -2.1249 C   0  0  0  0  0  0  0  0  0  0  0  0
    0.1201   -0.7220   -0.7974 C   0  0  0  0  0  0  0  0  0  0  0  0
   -0.9621   -2.3819    1.4960 O   0  0  0  0  0  0  0  0  0  0  0  0
   -0.8955   -3.9005    0.1599 H   0  0  0  0  0  0  0  0  0  0  0  0
    0.7079   -2.0796   -3.7285 H   0  0  0  0  0  0  0  0  0  0  0  0
    0.9151    0.3856   -2.5768 H   0  0  0  0  0  0  0  0  0  0  0  0
    0.0481    0.0166   -0.0157 H   0  0  0  0  0  0  0  0  0  0  0  0
  1  2  1  0
  1  7  2  0
  1  8  1  0
  2  3  1  0
  2  6  2  0
  3  4  1  0
  4  5  2  0
  4  9  1  0
  5  6  1  0
  5 10  1  0
  6 11  1  0
M  END
