
     RDKit          3D

 41 44  0  0  0  0  0  0  0  0999 V2000
    2.5725   -1.4672   -1.5003 O   0  0  0  0  0  0  0  0  0  0  0  0
    2.8792   -0.6696   -0.6518 C   0  0  0  0  0  0  0  0  0  0  0  0
    4.1915   -0.0179   -0.4275 C   0  0  0  0  0  0  0  0  0  0  0  0
    5.3555   -0.1618   -1.1342 C   0  0  0  0  0  0  0  0  0  0  0  0
    6.4750    0.5933   -0.7186 C   0  0  0  0  0  0  0  0  0  0  0  0
    7.6360    0.5257   -1.4071 N   0  0  0  0  0  0  0  0  0  0  0  0
    6.3496    1.4463    0.4001 C   0  0  0  0  0  0  0  0  0  0  0  0
    5.1585    1.5702    1.0909 C   0  0  0  0  0  0  0  0  0  0  0  0
    4.0677    0.8332    0.6614 C   0  0  0  0  0  0  0  0  0  0  0  0
    2.0375   -0.1736    0.3364 N   0  0  0  0  0  0  0  0  0  0  0  0
    2.7010    0.7415    1.1725 C   0  0  0  0  0  0  0  0  0  0  0  0
    2.1941    1.2893    2.1193 O   0  0  0  0  0  0  0  0  0  0  0  0
    0.6862   -0.5537    0.4933 C   0  0  0  0  0  0  0  0  0  0  0  0
   -0.3181    0.4041    0.4372 C   0  0  0  0  0  0  0  0  0  0  0  0
   -1.6460    0.0343    0.5773 C   0  0  0  0  0  0  0  0  0  0  0  0
   -1.9850   -1.3035    0.7518 C   0  0  0  0  0  0  0  0  0  0  0  0
   -0.9751   -2.2632    0.8014 C   0  0  0  0  0  0  0  0  0  0  0  0
    0.3525   -1.8897    0.6843 C   0  0  0  0  0  0  0  0  0  0  0  0
   -3.6492   -1.8713    0.9416 S   0  0  0  0  0  0  0  0  0  0  0  0
   -4.6151   -0.5289    0.3271 C   0  0  0  0  0  0  0  0  0  0  0  0
   -4.7439   -0.3163   -1.0440 C   0  0  0  0  0  0  0  0  0  0  0  0
   -5.5168    0.7211   -1.5273 C   0  0  0  0  0  0  0  0  0  0  0  0
   -6.2006    1.5765   -0.6480 C   0  0  0  0  0  0  0  0  0  0  0  0
   -7.0166    2.5669   -1.1231 N   0  0  0  0  0  0  0  0  0  0  0  0
   -6.0652    1.3555    0.7303 C   0  0  0  0  0  0  0  0  0  0  0  0
   -5.2819    0.3202    1.2063 C   0  0  0  0  0  0  0  0  0  0  0  0
    5.4281   -0.8307   -1.9823 H   0  0  0  0  0  0  0  0  0  0  0  0
    7.7837   -0.2297   -2.0550 H   0  0  0  0  0  0  0  0  0  0  0  0
    8.4708    0.9260   -1.0140 H   0  0  0  0  0  0  0  0  0  0  0  0
    7.2131    2.0173    0.7182 H   0  0  0  0  0  0  0  0  0  0  0  0
    5.0922    2.2355    1.9419 H   0  0  0  0  0  0  0  0  0  0  0  0
   -0.0711    1.4440    0.2722 H   0  0  0  0  0  0  0  0  0  0  0  0
    1.1258   -2.6434    0.7406 H   0  0  0  0  0  0  0  0  0  0  0  0
   -2.4145    0.7937    0.5340 H   0  0  0  0  0  0  0  0  0  0  0  0
   -1.2216   -3.3101    0.9289 H   0  0  0  0  0  0  0  0  0  0  0  0
   -4.2290   -0.9644   -1.7422 H   0  0  0  0  0  0  0  0  0  0  0  0
   -5.1853    0.1708    2.2744 H   0  0  0  0  0  0  0  0  0  0  0  0
   -5.6031    0.8729   -2.5963 H   0  0  0  0  0  0  0  0  0  0  0  0
   -6.8582    2.8769   -2.0674 H   0  0  0  0  0  0  0  0  0  0  0  0
   -7.2344    3.3192   -0.4907 H   0  0  0  0  0  0  0  0  0  0  0  0
   -6.5795    2.0036    1.4298 H   0  0  0  0  0  0  0  0  0  0  0  0
  1  2  2  0
  2  3  1  0
  2 10  1  0
  3  4  2  0
  3  9  1  0
  4  5  1  0
  5  6  1  0
  5  7  2  0
  7  8  1  0
  8  9  2  0
  9 11  1  0
 10 11  1  0
 10 13  1  0
 11 12  2  0
 13 14  2  0
 13 18  1  0
 14 15  1  0
 15 16  2  0
 16 17  1  0
 16 19  1  0
 17 18  2  0
 19 20  1  0
 20 21  2  0
 20 26  1  0
 21 22  1  0
 22 23  2  0
 23 24  1  0
 23 25  1  0
 25 26  2  0
  4 27  1  0
  6 28  1  0
  6 29  1  0
  7 30  1  0
  8 31  1  0
 14 32  1  0
 18 33  1  0
 15 34  1  0
 17 35  1  0
 21 36  1  0
 26 37  1  0
 22 38  1  0
 24 39  1  0
 24 40  1  0
 25 41  1  0
M  END
