
     RDKit          3D

 16 15  0  0  0  0  0  0  0  0999 V2000
   -0.5298   -0.1189    0.0827 C   0  0  0  0  0  0  0  0  0  0  0  0
   -2.9728    0.3901    0.0500 N   0  0  0  0  0  0  0  0  0  0  0  0
   -0.6326   -1.3379    0.2419 O   0  0  0  0  0  0  0  0  0  0  0  0
    1.8289   -0.4733    0.0975 C   0  0  0  0  0  0  0  0  0  0  0  0
    0.7135    0.4319   -0.0050 O   0  0  0  0  0  0  0  0  0  0  0  0
    3.0720    0.3719   -0.0322 C   0  0  0  0  0  0  0  0  0  0  0  0
   -1.6406    0.9076   -0.0354 C   0  0  0  0  0  0  0  0  0  0  0  0
   -3.1581   -0.2651   -0.6846 H   0  0  0  0  0  0  0  0  0  0  0  0
   -3.1355   -0.0565    0.9316 H   0  0  0  0  0  0  0  0  0  0  0  0
    1.7759   -0.9954    1.0883 H   0  0  0  0  0  0  0  0  0  0  0  0
    1.7493   -1.2338   -0.7224 H   0  0  0  0  0  0  0  0  0  0  0  0
    3.0879    0.8985   -1.0163 H   0  0  0  0  0  0  0  0  0  0  0  0
    3.1117    1.1395    0.7771 H   0  0  0  0  0  0  0  0  0  0  0  0
    3.9690   -0.2879    0.0445 H   0  0  0  0  0  0  0  0  0  0  0  0
   -1.4859    1.6668    0.7841 H   0  0  0  0  0  0  0  0  0  0  0  0
   -1.5105    1.4318   -1.0254 H   0  0  0  0  0  0  0  0  0  0  0  0
  1  3  2  0
  1  5  1  0
  1  7  1  0
  2  7  1  0
  4  5  1  0
  4  6  1  0
  2  8  1  0
  2  9  1  0
  4 10  1  0
  4 11  1  0
  6 12  1  0
  6 13  1  0
  6 14  1  0
  7 15  1  0
  7 16  1  0
M  END
