
     RDKit          3D

 51 50  0  0  0  0  0  0  0  0999 V2000
    7.1488    1.8854   -0.6221 C   0  0  0  0  0  0  0  0  0  0  0  0
    6.1348    1.0452    0.1594 C   0  0  1  0  0  0  0  0  0  0  0  0
    6.8837    0.0488    1.0458 C   0  0  0  0  0  0  0  0  0  0  0  0
    5.3045    1.9804    1.0402 C   0  0  0  0  0  0  0  0  0  0  0  0
    5.2271    0.3233   -0.8726 C   0  0  1  0  0  0  0  0  0  0  0  0
    5.9518   -0.5359   -1.7118 O   0  0  0  0  0  0  0  0  0  0  0  0
    4.0969   -0.4756   -0.2219 C   0  0  0  0  0  0  0  0  0  0  0  0
    4.2731   -1.6468    0.0945 O   0  0  0  0  0  0  0  0  0  0  0  0
    2.9401    0.1721   -0.0524 N   0  0  0  0  0  0  0  0  0  0  0  0
    1.7791   -0.3914    0.6044 C   0  0  0  0  0  0  0  0  0  0  0  0
    0.5140    0.2288    0.0321 C   0  0  0  0  0  0  0  0  0  0  0  0
   -0.7344   -0.2694    0.7315 C   0  0  0  0  0  0  0  0  0  0  0  0
   -0.7404   -0.5463    1.9241 O   0  0  0  0  0  0  0  0  0  0  0  0
   -1.8213   -0.3430   -0.0499 N   0  0  0  0  0  0  0  0  0  0  0  0
   -3.1387   -0.7298    0.4074 C   0  0  0  0  0  0  0  0  0  0  0  0
   -4.2236    0.0693   -0.2988 C   0  0  0  0  0  0  0  0  0  0  0  0
   -5.6185   -0.3538    0.1424 C   0  0  0  0  0  0  0  0  0  0  0  0
   -6.7190    0.4260   -0.5662 C   0  0  0  0  0  0  0  0  0  0  0  0
   -8.0970   -0.0109   -0.1114 C   0  0  0  0  0  0  0  0  0  0  0  0
   -9.0781    0.7328   -0.7923 O   0  0  0  0  0  0  0  0  0  0  0  0
  -10.3821    0.3835   -0.4074 C   0  0  0  0  0  0  0  0  0  0  0  0
    7.7898    2.4382    0.0670 H   0  0  0  0  0  0  0  0  0  0  0  0
    7.7910    1.2665   -1.2481 H   0  0  0  0  0  0  0  0  0  0  0  0
    6.6498    2.6145   -1.2654 H   0  0  0  0  0  0  0  0  0  0  0  0
    7.5444    0.5861    1.7293 H   0  0  0  0  0  0  0  0  0  0  0  0
    6.2080   -0.5541    1.6528 H   0  0  0  0  0  0  0  0  0  0  0  0
    7.5097   -0.6272    0.4610 H   0  0  0  0  0  0  0  0  0  0  0  0
    4.7120    2.6796    0.4451 H   0  0  0  0  0  0  0  0  0  0  0  0
    4.6272    1.4419    1.7049 H   0  0  0  0  0  0  0  0  0  0  0  0
    5.9670    2.5758    1.6701 H   0  0  0  0  0  0  0  0  0  0  0  0
    4.7871    1.0973   -1.5129 H   0  0  0  0  0  0  0  0  0  0  0  0
    6.0145   -1.3894   -1.2650 H   0  0  0  0  0  0  0  0  0  0  0  0
    2.8918    1.1408   -0.3271 H   0  0  0  0  0  0  0  0  0  0  0  0
    1.7786   -1.4691    0.4448 H   0  0  0  0  0  0  0  0  0  0  0  0
    1.8304   -0.2210    1.6816 H   0  0  0  0  0  0  0  0  0  0  0  0
    0.5451    1.3164    0.1601 H   0  0  0  0  0  0  0  0  0  0  0  0
    0.4614    0.0443   -1.0429 H   0  0  0  0  0  0  0  0  0  0  0  0
   -1.7124   -0.1599   -1.0348 H   0  0  0  0  0  0  0  0  0  0  0  0
   -3.2970   -1.8004    0.2395 H   0  0  0  0  0  0  0  0  0  0  0  0
   -3.1935   -0.5658    1.4836 H   0  0  0  0  0  0  0  0  0  0  0  0
   -4.0781    1.1344   -0.0983 H   0  0  0  0  0  0  0  0  0  0  0  0
   -4.1304   -0.0625   -1.3820 H   0  0  0  0  0  0  0  0  0  0  0  0
   -5.7484   -1.4247   -0.0451 H   0  0  0  0  0  0  0  0  0  0  0  0
   -5.7132   -0.2192    1.2250 H   0  0  0  0  0  0  0  0  0  0  0  0
   -6.5939    1.4958   -0.3732 H   0  0  0  0  0  0  0  0  0  0  0  0
   -6.6296    0.2852   -1.6478 H   0  0  0  0  0  0  0  0  0  0  0  0
   -8.2273   -1.0873   -0.3002 H   0  0  0  0  0  0  0  0  0  0  0  0
   -8.1925    0.1292    0.9759 H   0  0  0  0  0  0  0  0  0  0  0  0
  -11.0799    1.0022   -0.9709 H   0  0  0  0  0  0  0  0  0  0  0  0
  -10.6060   -0.6692   -0.6180 H   0  0  0  0  0  0  0  0  0  0  0  0
  -10.5553    0.5545    0.6620 H   0  0  0  0  0  0  0  0  0  0  0  0
  2  3  1  1
  5  6  1  0
  5  7  1  0
  5  2  1  0
  8  7  2  0
  1  2  1  0
  7  9  1  0
  2  4  1  0
  9 10  1  0
 10 11  1  0
 13 12  2  0
 11 12  1  0
 12 14  1  0
 14 15  1  0
 15 16  1  0
 16 17  1  0
 17 18  1  0
 18 19  1  0
 19 20  1  0
 20 21  1  0
  1 22  1  0
  1 23  1  0
  1 24  1  0
  3 25  1  0
  3 26  1  0
  3 27  1  0
  4 28  1  0
  4 29  1  0
  4 30  1  0
  5 31  1  6
  6 32  1  0
  9 33  1  0
 10 34  1  0
 10 35  1  0
 11 36  1  0
 11 37  1  0
 14 38  1  0
 15 39  1  0
 15 40  1  0
 16 41  1  0
 16 42  1  0
 17 43  1  0
 17 44  1  0
 18 45  1  0
 18 46  1  0
 19 47  1  0
 19 48  1  0
 21 49  1  0
 21 50  1  0
 21 51  1  0
M  END
