
     RDKit          3D

 34 36  0  0  0  0  0  0  0  0999 V2000
   -2.5917   -1.7413   -1.5888 C   0  0  0  0  0  0  0  0  0  0  0  0
   -2.4852   -1.1380   -0.1868 C   0  0  1  0  0  0  0  0  0  0  0  0
   -1.1832   -0.4145    0.0260 C   0  0  0  0  0  0  0  0  0  0  0  0
    0.1148   -0.8721   -0.0015 C   0  0  0  0  0  0  0  0  0  0  0  0
    1.1719    0.0207    0.2272 C   0  0  0  0  0  0  0  0  0  0  0  0
    0.8805    1.3643    0.4796 C   0  0  0  0  0  0  0  0  0  0  0  0
   -0.4283    1.8076    0.4886 C   0  0  0  0  0  0  0  0  0  0  0  0
   -1.4624    0.9261    0.2657 C   0  0  0  0  0  0  0  0  0  0  0  0
   -2.8303    1.1432    0.2290 N   0  0  0  0  0  0  0  0  0  0  0  0
   -3.5113   -0.0081   -0.0320 C   0  0  0  0  0  0  0  0  0  0  0  0
   -4.7149   -0.1130   -0.1225 O   0  0  0  0  0  0  0  0  0  0  0  0
   -0.6988    3.1000    0.7308 F   0  0  0  0  0  0  0  0  0  0  0  0
    2.5436   -0.4861    0.2443 C   0  0  0  0  0  0  0  0  0  0  0  0
    3.0135   -1.6451    0.8284 C   0  0  0  0  0  0  0  0  0  0  0  0
    4.4046   -1.7075    0.5954 C   0  0  0  0  0  0  0  0  0  0  0  0
    4.7365   -0.5897   -0.1289 C   0  0  0  0  0  0  0  0  0  0  0  0
    3.6110    0.1464   -0.3386 N   0  0  0  0  0  0  0  0  0  0  0  0
    3.5799    1.3580   -1.1291 C   0  0  0  0  0  0  0  0  0  0  0  0
   -2.7329   -2.2021    0.8847 C   0  0  0  0  0  0  0  0  0  0  0  0
   -1.8418   -2.5223   -1.7177 H   0  0  0  0  0  0  0  0  0  0  0  0
   -3.5742   -2.1898   -1.7373 H   0  0  0  0  0  0  0  0  0  0  0  0
   -2.4348   -0.9905   -2.3638 H   0  0  0  0  0  0  0  0  0  0  0  0
    0.3251   -1.9128   -0.2143 H   0  0  0  0  0  0  0  0  0  0  0  0
    1.6665    2.0749    0.7000 H   0  0  0  0  0  0  0  0  0  0  0  0
   -3.2784    2.0351    0.3764 H   0  0  0  0  0  0  0  0  0  0  0  0
    2.4140   -2.3505    1.3834 H   0  0  0  0  0  0  0  0  0  0  0  0
    5.0866   -2.4770    0.9210 H   0  0  0  0  0  0  0  0  0  0  0  0
    5.6872   -0.2661   -0.5214 H   0  0  0  0  0  0  0  0  0  0  0  0
    3.6348    2.2515   -0.5079 H   0  0  0  0  0  0  0  0  0  0  0  0
    4.4302    1.3586   -1.8061 H   0  0  0  0  0  0  0  0  0  0  0  0
    2.6701    1.3994   -1.7237 H   0  0  0  0  0  0  0  0  0  0  0  0
   -1.9806   -2.9878    0.8117 H   0  0  0  0  0  0  0  0  0  0  0  0
   -2.6859   -1.7812    1.8894 H   0  0  0  0  0  0  0  0  0  0  0  0
   -3.7138   -2.6579    0.7489 H   0  0  0  0  0  0  0  0  0  0  0  0
  2  1  1  6
  2  3  1  0
  2 10  1  0
  2 19  1  0
  3  4  2  0
  3  8  1  0
  4  5  1  0
  5  6  2  0
  5 13  1  0
  6  7  1  0
  7  8  2  0
  7 12  1  0
  8  9  1  0
  9 10  1  0
 10 11  2  0
 13 14  2  0
 13 17  1  0
 14 15  1  0
 15 16  2  0
 16 17  1  0
 17 18  1  0
  1 20  1  0
  1 21  1  0
  1 22  1  0
  4 23  1  0
  6 24  1  0
  9 25  1  0
 14 26  1  0
 15 27  1  0
 16 28  1  0
 18 29  1  0
 18 30  1  0
 18 31  1  0
 19 32  1  0
 19 33  1  0
 19 34  1  0
M  END
