
     RDKit          3D

 15 15  0  0  0  0  0  0  0  0999 V2000
   -2.1481    1.2322   -0.3500 S   0  0  0  0  0  0  0  0  0  0  0  0
    1.7072   -0.9424    0.1607 O   0  0  0  0  0  0  0  0  0  0  0  0
    0.5509   -1.6182    0.1454 C   0  0  0  0  0  0  0  0  0  0  0  0
   -0.6492   -1.0128   -0.0037 C   0  0  0  0  0  0  0  0  0  0  0  0
   -0.7107    0.4197   -0.1586 C   0  0  0  0  0  0  0  0  0  0  0  0
    0.5575    1.0657   -0.1320 C   0  0  0  0  0  0  0  0  0  0  0  0
    1.7177    0.3823    0.0247 C   0  0  0  0  0  0  0  0  0  0  0  0
    3.0762    0.9772    0.0685 C   0  0  0  0  0  0  0  0  0  0  0  0
   -1.6648   -2.6269    0.0894 H   0  0  0  0  0  0  0  0  0  0  0  0
    0.6913   -2.6845    0.2648 H   0  0  0  0  0  0  0  0  0  0  0  0
    0.6004    2.1402   -0.2384 H   0  0  0  0  0  0  0  0  0  0  0  0
    3.7077    0.5630   -0.7189 H   0  0  0  0  0  0  0  0  0  0  0  0
    3.0203    2.0544   -0.0644 H   0  0  0  0  0  0  0  0  0  0  0  0
    3.5600    0.7707    1.0243 H   0  0  0  0  0  0  0  0  0  0  0  0
   -1.8095   -1.6789   -0.0185 O   0  0  0  0  0  0  0  0  0  0  0  0
  2  3  1  0
  2  7  1  0
  3  4  2  0
  8  7  1  0
  7  6  2  0
  4 15  1  0
  4  5  1  0
  6  5  1  0
  5  1  2  0
 15  9  1  0
  3 10  1  0
  6 11  1  0
  8 12  1  0
  8 13  1  0
  8 14  1  0
M  END
