
     RDKit          3D

 44 44  0  0  0  0  0  0  0  0999 V2000
   -4.2375   -2.3968    1.5423 O   0  0  0  0  0  0  0  0  0  0  0  0
   -4.0603   -2.2625   -0.0386 P   0  0  1  0  0  0  0  0  0  0  0  0
   -3.3358   -3.4351   -0.5605 O   0  0  0  0  0  0  0  0  0  0  0  0
   -5.4803   -1.9155   -0.6683 O   0  0  0  0  0  0  0  0  0  0  0  0
   -3.3894   -0.8352   -0.3066 O   0  0  0  0  0  0  0  0  0  0  0  0
   -2.0300   -0.6209    0.0497 C   0  0  0  0  0  0  0  0  0  0  0  0
   -1.7138    0.8461   -0.0470 C   0  0  0  0  0  0  0  0  0  0  0  0
   -2.6690    1.7835   -0.3845 C   0  0  0  0  0  0  0  0  0  0  0  0
   -2.4083    3.0888   -0.4823 N   0  0  0  0  0  0  0  0  0  0  0  0
   -1.1941    3.5446   -0.2531 C   0  0  0  0  0  0  0  0  0  0  0  0
   -0.9384    5.0142   -0.3742 C   0  0  0  0  0  0  0  0  0  0  0  0
   -0.1462    2.6720    0.1010 C   0  0  0  0  0  0  0  0  0  0  0  0
    1.0552    3.1905    0.3218 O   0  0  0  0  0  0  0  0  0  0  0  0
   -0.4084    1.3002    0.2071 C   0  0  0  0  0  0  0  0  0  0  0  0
    0.6650    0.3798    0.5817 C   0  0  0  0  0  0  0  0  0  0  0  0
    1.8392    0.8044    0.8143 N   0  0  0  0  0  0  0  0  0  0  0  0
    2.8827   -0.1253    1.1706 C   0  0  0  0  0  0  0  0  0  0  0  0
    3.9852   -0.1324    0.1184 C   0  0  0  0  0  0  0  0  0  0  0  0
    5.1366   -1.0511    0.5066 C   0  0  0  0  0  0  0  0  0  0  0  0
    6.2453   -1.0831   -0.5367 C   0  0  0  0  0  0  0  0  0  0  0  0
    7.3992   -1.9898   -0.1376 C   0  0  0  0  0  0  0  0  0  0  0  0
    8.4365   -1.9967   -1.1599 N   0  0  0  0  0  0  0  0  0  0  0  0
   -4.7461   -1.6957    1.9722 H   0  0  0  0  0  0  0  0  0  0  0  0
   -6.0573   -2.6821   -0.7862 H   0  0  0  0  0  0  0  0  0  0  0  0
   -1.8422   -0.9740    1.0693 H   0  0  0  0  0  0  0  0  0  0  0  0
   -1.3819   -1.1927   -0.6201 H   0  0  0  0  0  0  0  0  0  0  0  0
   -3.6900    1.4914   -0.5887 H   0  0  0  0  0  0  0  0  0  0  0  0
   -0.5977    5.4428    0.5702 H   0  0  0  0  0  0  0  0  0  0  0  0
   -0.1672    5.2284   -1.1162 H   0  0  0  0  0  0  0  0  0  0  0  0
   -1.8515    5.5258   -0.6708 H   0  0  0  0  0  0  0  0  0  0  0  0
    1.6658    2.4336    0.5606 H   0  0  0  0  0  0  0  0  0  0  0  0
    0.4317   -0.6840    0.6613 H   0  0  0  0  0  0  0  0  0  0  0  0
    3.3011    0.1958    2.1285 H   0  0  0  0  0  0  0  0  0  0  0  0
    2.4869   -1.1389    1.3087 H   0  0  0  0  0  0  0  0  0  0  0  0
    3.5638   -0.4501   -0.8402 H   0  0  0  0  0  0  0  0  0  0  0  0
    4.3555    0.8872   -0.0233 H   0  0  0  0  0  0  0  0  0  0  0  0
    5.5492   -0.7280    1.4683 H   0  0  0  0  0  0  0  0  0  0  0  0
    4.7559   -2.0660    0.6640 H   0  0  0  0  0  0  0  0  0  0  0  0
    5.8426   -1.4177   -1.4978 H   0  0  0  0  0  0  0  0  0  0  0  0
    6.6236   -0.0668   -0.6958 H   0  0  0  0  0  0  0  0  0  0  0  0
    7.7646   -1.6840    0.8540 H   0  0  0  0  0  0  0  0  0  0  0  0
    7.0258   -3.0114   -0.0217 H   0  0  0  0  0  0  0  0  0  0  0  0
    8.8483   -1.0728   -1.2187 H   0  0  0  0  0  0  0  0  0  0  0  0
    9.1904   -2.6064   -0.8693 H   0  0  0  0  0  0  0  0  0  0  0  0
  2  1  1  1
  1 23  1  0
  2  5  1  0
  2  3  2  0
  2  4  1  0
  4 24  1  0
  5  6  1  0
  6  7  1  0
  6 25  1  0
  6 26  1  0
  7  8  2  0
  7 14  1  0
  8  9  1  0
  8 27  1  0
  9 10  2  0
 10 11  1  0
 10 12  1  0
 11 28  1  0
 11 29  1  0
 11 30  1  0
 12 13  1  0
 12 14  2  0
 13 31  1  0
 14 15  1  0
 15 16  2  0
 15 32  1  0
 16 17  1  0
 17 18  1  0
 17 33  1  0
 17 34  1  0
 18 19  1  0
 18 35  1  0
 18 36  1  0
 19 20  1  0
 19 37  1  0
 19 38  1  0
 20 21  1  0
 20 39  1  0
 20 40  1  0
 21 22  1  0
 21 41  1  0
 21 42  1  0
 22 43  1  0
 22 44  1  0
M  END
