
     RDKit          3D

 22 23  0  0  0  0  0  0  0  0999 V2000
    4.9197   -1.4325    3.3391 O   0  0  0  0  0  0  0  0  0  0  0  0
    5.9185   -2.2246    3.7772 C   0  0  0  0  0  0  0  0  0  0  0  0
    6.9377   -1.5939    4.6078 C   0  0  0  0  0  0  0  0  0  0  0  0
    7.8622   -2.4681    4.9799 O   0  0  0  0  0  0  0  0  0  0  0  0
    5.7456   -3.4944    3.3172 C   0  0  0  0  0  0  0  0  0  0  0  0
    4.5589   -3.4717    2.5481 C   0  0  0  0  0  0  0  0  0  0  0  0
    4.0970   -2.1874    2.5986 C   0  0  0  0  0  0  0  0  0  0  0  0
    6.9340   -0.4259    4.9110 O   0  0  0  0  0  0  0  0  0  0  0  0
    2.9346   -1.5716    1.9695 C   0  0  0  0  0  0  0  0  0  0  0  0
    2.6075   -1.9611    0.6679 C   0  0  0  0  0  0  0  0  0  0  0  0
    1.5069   -1.4367    0.0131 C   0  0  0  0  0  0  0  0  0  0  0  0
    0.7098   -0.4967    0.6509 C   0  0  0  0  0  0  0  0  0  0  0  0
    1.0090   -0.0977    1.9442 C   0  0  0  0  0  0  0  0  0  0  0  0
    2.1080   -0.6355    2.5964 C   0  0  0  0  0  0  0  0  0  0  0  0
    2.3913   -0.1510    4.2336 Cl  0  0  0  0  0  0  0  0  0  0  0  0
    8.5348   -2.0286    5.5210 H   0  0  0  0  0  0  0  0  0  0  0  0
    6.3810   -4.3437    3.5080 H   0  0  0  0  0  0  0  0  0  0  0  0
    4.0957   -4.3001    2.0375 H   0  0  0  0  0  0  0  0  0  0  0  0
    3.2439   -2.6741    0.1603 H   0  0  0  0  0  0  0  0  0  0  0  0
    1.2810   -1.7530   -0.9958 H   0  0  0  0  0  0  0  0  0  0  0  0
   -0.1481   -0.0721    0.1475 H   0  0  0  0  0  0  0  0  0  0  0  0
    0.3834    0.6237    2.4519 H   0  0  0  0  0  0  0  0  0  0  0  0
  1  2  1  0
  1  7  1  0
  2  3  1  0
  2  5  2  0
  3  4  1  0
  3  8  2  0
  4 16  1  0
  5  6  1  0
  5 17  1  0
  6  7  2  0
  6 18  1  0
  7  9  1  0
  9 10  2  0
  9 14  1  0
 10 11  1  0
 10 19  1  0
 11 12  2  0
 11 20  1  0
 12 13  1  0
 12 21  1  0
 13 14  2  0
 13 22  1  0
 14 15  1  0
M  END
