
     RDKit          3D

 44 45  0  0  0  0  0  0  0  0999 V2000
   69.3279   72.8370   98.6741 O   0  0  0  0  0  0  0  0  0  0  0  0
   68.3560   72.2675   99.1482 C   0  0  0  0  0  0  0  0  0  0  0  0
   68.1868   70.9391   99.1701 N   0  0  0  0  0  0  0  0  0  0  0  0
   69.0574   69.9901   98.5061 C   0  0  0  0  0  0  0  0  0  0  0  0
   68.4156   69.4024   97.2519 C   0  0  0  0  0  0  0  0  0  0  0  0
   68.1161   70.4312   96.1819 C   0  0  0  0  0  0  0  0  0  0  0  0
   69.3184   71.0075   95.7381 O   0  0  0  0  0  0  0  0  0  0  0  0
   69.1146   72.1418   94.9389 C   0  0  0  0  0  0  0  0  0  0  0  0
   67.2513   73.0680   99.7565 C   0  0  0  0  0  0  0  0  0  0  0  0
   65.9256   72.6905   99.6132 C   0  0  0  0  0  0  0  0  0  0  0  0
   67.5175   74.2690  100.4343 C   0  0  0  0  0  0  0  0  0  0  0  0
   66.5567   75.0148  100.9548 N   0  0  0  0  0  0  0  0  0  0  0  0
   65.2972   74.6444  100.8206 C   0  0  0  0  0  0  0  0  0  0  0  0
   64.9295   73.4871  100.1487 C   0  0  0  0  0  0  0  0  0  0  0  0
   63.2029   73.0901  100.0424 S   0  0  2  0  0  0  0  0  0  0  0  0
   62.5524   74.2228   99.4091 O   0  0  0  0  0  0  0  0  0  0  0  0
   62.7791   72.6687  101.3653 O   0  0  0  0  0  0  0  0  0  0  0  0
   63.0360   71.8099   99.0520 N   0  0  0  0  0  0  0  0  0  0  0  0
   69.1814   74.8295  100.6340 S   0  0  0  0  0  0  0  0  0  0  0  0
   68.9573   76.0732  101.8783 C   0  0  0  0  0  0  0  0  0  0  0  0
   68.9179   75.7129  103.2209 C   0  0  0  0  0  0  0  0  0  0  0  0
   68.7992   76.6951  104.1935 C   0  0  0  0  0  0  0  0  0  0  0  0
   68.7327   78.0339  103.8268 C   0  0  0  0  0  0  0  0  0  0  0  0
   68.7857   78.3912  102.4861 C   0  0  0  0  0  0  0  0  0  0  0  0
   68.8975   77.4111  101.5089 C   0  0  0  0  0  0  0  0  0  0  0  0
   67.4061   70.5563   99.6790 H   0  0  0  0  0  0  0  0  0  0  0  0
   69.9926   70.4894   98.2645 H   0  0  0  0  0  0  0  0  0  0  0  0
   69.2883   69.1894   99.2097 H   0  0  0  0  0  0  0  0  0  0  0  0
   69.0754   68.6273   96.8527 H   0  0  0  0  0  0  0  0  0  0  0  0
   67.4801   68.9038   97.5188 H   0  0  0  0  0  0  0  0  0  0  0  0
   67.5785   69.9563   95.3490 H   0  0  0  0  0  0  0  0  0  0  0  0
   67.4415   71.2013   96.5838 H   0  0  0  0  0  0  0  0  0  0  0  0
   68.5764   72.9301   95.4788 H   0  0  0  0  0  0  0  0  0  0  0  0
   70.0898   72.5306   94.6467 H   0  0  0  0  0  0  0  0  0  0  0  0
   68.5493   71.9119   94.0274 H   0  0  0  0  0  0  0  0  0  0  0  0
   65.6747   71.7881   99.0701 H   0  0  0  0  0  0  0  0  0  0  0  0
   64.5553   75.3017  101.2601 H   0  0  0  0  0  0  0  0  0  0  0  0
   63.2598   71.9619   98.0763 H   0  0  0  0  0  0  0  0  0  0  0  0
   63.3471   70.9165   99.4123 H   0  0  0  0  0  0  0  0  0  0  0  0
   68.9777   74.6699  103.5043 H   0  0  0  0  0  0  0  0  0  0  0  0
   68.7640   76.4159  105.2384 H   0  0  0  0  0  0  0  0  0  0  0  0
   68.6443   78.7984  104.5873 H   0  0  0  0  0  0  0  0  0  0  0  0
   68.7378   79.4335  102.1995 H   0  0  0  0  0  0  0  0  0  0  0  0
   68.9354   77.6863  100.4628 H   0  0  0  0  0  0  0  0  0  0  0  0
  1  2  2  0
  2  3  1  0
  2  9  1  0
  3  4  1  0
  4  5  1  0
  5  6  1  0
  6  7  1  0
  7  8  1  0
  9 10  2  0
  9 11  1  0
 10 14  1  0
 11 12  2  0
 11 19  1  0
 12 13  1  0
 13 14  2  0
 14 15  1  0
 15 16  2  0
 15 17  2  0
 15 18  1  6
 19 20  1  0
 20 21  2  0
 20 25  1  0
 21 22  1  0
 22 23  2  0
 23 24  1  0
 24 25  2  0
  3 26  1  0
  4 27  1  0
  4 28  1  0
  5 29  1  0
  5 30  1  0
  6 31  1  0
  6 32  1  0
  8 33  1  0
  8 34  1  0
  8 35  1  0
 10 36  1  0
 13 37  1  0
 18 38  1  0
 18 39  1  0
 21 40  1  0
 22 41  1  0
 23 42  1  0
 24 43  1  0
 25 44  1  0
M  END
