
     RDKit          3D

 35 37  0  0  0  0  0  0  0  0999 V2000
    3.5306   -3.4754   -0.0221 O   0  0  0  0  0  0  0  0  0  0  0  0
    2.3201   -3.3361   -0.0975 C   0  0  0  0  0  0  0  0  0  0  0  0
    1.4704   -4.3001   -0.4613 N   0  0  0  0  0  0  0  0  0  0  0  0
    1.6538   -2.0188    0.2693 C   0  0  1  0  0  0  0  0  0  0  0  0
    1.0179   -2.0997    1.6523 C   0  0  0  0  0  0  0  0  0  0  0  0
    2.9854   -0.7769    0.1785 S   0  0  0  0  0  0  0  0  0  0  0  0
    2.0326    0.6790    0.0288 C   0  0  0  0  0  0  0  0  0  0  0  0
    0.7399    0.6376    0.0435 N   0  0  0  0  0  0  0  0  0  0  0  0
    0.1454    1.8340   -0.1011 C   0  0  0  0  0  0  0  0  0  0  0  0
   -1.1861    2.0742   -0.1053 N   0  0  0  0  0  0  0  0  0  0  0  0
   -1.4376    3.3950   -0.2483 N   0  0  0  0  0  0  0  0  0  0  0  0
   -0.2792    3.9931   -0.3399 C   0  0  0  0  0  0  0  0  0  0  0  0
    0.7734    3.0586   -0.2532 C   0  0  0  0  0  0  0  0  0  0  0  0
    2.2038    3.1069   -0.2676 C   0  0  0  0  0  0  0  0  0  0  0  0
    2.9208    4.0790   -0.3906 O   0  0  0  0  0  0  0  0  0  0  0  0
    2.7504    1.8246   -0.1141 N   0  0  0  0  0  0  0  0  0  0  0  0
   -2.2436    1.1682    0.1047 C   0  0  0  0  0  0  0  0  0  0  0  0
   -2.0777   -0.1785   -0.2005 C   0  0  0  0  0  0  0  0  0  0  0  0
   -3.4465    1.6271    0.6315 C   0  0  0  0  0  0  0  0  0  0  0  0
   -4.4736    0.7263    0.8628 C   0  0  0  0  0  0  0  0  0  0  0  0
   -4.3192   -0.6271    0.5967 C   0  0  0  0  0  0  0  0  0  0  0  0
   -3.1132   -1.0558    0.0685 C   0  0  0  0  0  0  0  0  0  0  0  0
   -2.8696   -2.7384   -0.2712 Cl  0  0  0  0  0  0  0  0  0  0  0  0
    1.8059   -5.2304   -0.6535 H   0  0  0  0  0  0  0  0  0  0  0  0
    0.4780   -4.1480   -0.5224 H   0  0  0  0  0  0  0  0  0  0  0  0
    0.9039   -1.7549   -0.4781 H   0  0  0  0  0  0  0  0  0  0  0  0
    1.7412   -2.4279    2.3977 H   0  0  0  0  0  0  0  0  0  0  0  0
    0.6219   -1.1323    1.9506 H   0  0  0  0  0  0  0  0  0  0  0  0
    0.1864   -2.8065    1.6444 H   0  0  0  0  0  0  0  0  0  0  0  0
   -0.2245    5.0629   -0.4689 H   0  0  0  0  0  0  0  0  0  0  0  0
    3.7626    1.7727   -0.1237 H   0  0  0  0  0  0  0  0  0  0  0  0
   -1.1597   -0.5440   -0.6314 H   0  0  0  0  0  0  0  0  0  0  0  0
   -3.5791    2.6738    0.8633 H   0  0  0  0  0  0  0  0  0  0  0  0
   -5.4080    1.0832    1.2739 H   0  0  0  0  0  0  0  0  0  0  0  0
   -5.1181   -1.3267    0.7989 H   0  0  0  0  0  0  0  0  0  0  0  0
 15 14  2  0
 12 13  1  0
 12 11  2  0
 14 13  1  0
 14 16  1  0
 13  9  2  0
 11 10  1  0
 16  7  1  0
  9 10  1  0
  9  8  1  0
 10 17  1  0
  7  8  2  0
  7  6  1  0
 18 17  2  0
 18 22  1  0
 17 19  1  0
  6  4  1  0
 23 22  1  0
 22 21  2  0
 19 20  2  0
  4  5  1  0
  4  2  1  0
 21 20  1  0
  2  3  1  0
  2  1  2  0
  3 24  1  0
  3 25  1  0
  4 26  1  6
  5 27  1  0
  5 28  1  0
  5 29  1  0
 12 30  1  0
 16 31  1  0
 18 32  1  0
 19 33  1  0
 20 34  1  0
 21 35  1  0
M  END
