
     RDKit          3D

 43 45  0  0  0  0  0  0  0  0999 V2000
   -6.9533    1.8990   -0.0916 C   0  0  0  0  0  0  0  0  0  0  0  0
    4.8288    0.2631    0.0828 C   0  0  0  0  0  0  0  0  0  0  0  0
    5.8122    1.2337    0.2948 C   0  0  0  0  0  0  0  0  0  0  0  0
    4.2004    2.9229   -0.3339 C   0  0  0  0  0  0  0  0  0  0  0  0
   -2.7170    0.6031    0.9715 C   0  0  0  0  0  0  0  0  0  0  0  0
   -1.4549    0.0741    0.7662 C   0  0  0  0  0  0  0  0  0  0  0  0
   -1.1327   -0.5623   -0.4301 C   0  0  0  0  0  0  0  0  0  0  0  0
   -2.1105   -0.6753   -1.4100 C   0  0  0  0  0  0  0  0  0  0  0  0
   -3.3842   -0.1672   -1.2095 C   0  0  0  0  0  0  0  0  0  0  0  0
   -3.6858    0.4842   -0.0200 C   0  0  0  0  0  0  0  0  0  0  0  0
   -4.9665    1.0287    0.1838 N   0  0  0  0  0  0  0  0  0  0  0  0
   -5.4262    1.2286    1.4216 N   0  0  0  0  0  0  0  0  0  0  0  0
   -6.6240    1.7515    1.2688 C   0  0  0  0  0  0  0  0  0  0  0  0
   -5.8562    1.4225   -0.7593 C   0  0  0  0  0  0  0  0  0  0  0  0
    0.2390   -1.1459   -0.6619 C   0  0  1  0  0  0  0  0  0  0  0  0
    1.2609   -0.1617   -0.4138 N   0  0  0  0  0  0  0  0  0  0  0  0
    0.4249   -2.3486    0.2740 C   0  0  0  0  0  0  0  0  0  0  0  0
    0.6654   -2.2227    1.4558 O   0  0  0  0  0  0  0  0  0  0  0  0
    0.1804   -3.5203   -0.3387 N   0  0  0  0  0  0  0  0  0  0  0  0
    0.3935   -4.6815    0.3422 O   0  0  0  0  0  0  0  0  0  0  0  0
    2.5617   -0.4824   -0.5284 C   0  0  0  0  0  0  0  0  0  0  0  0
    3.5465    0.6188   -0.3170 C   0  0  0  0  0  0  0  0  0  0  0  0
    2.9110   -1.6255   -0.7918 O   0  0  0  0  0  0  0  0  0  0  0  0
    5.4747    2.5764    0.0794 C   0  0  0  0  0  0  0  0  0  0  0  0
    3.2240    1.9568   -0.5345 C   0  0  0  0  0  0  0  0  0  0  0  0
   -7.8552    2.3023   -0.5194 H   0  0  0  0  0  0  0  0  0  0  0  0
    5.0705   -0.7813    0.2389 H   0  0  0  0  0  0  0  0  0  0  0  0
    3.9642    3.9651   -0.5046 H   0  0  0  0  0  0  0  0  0  0  0  0
   -2.9481    1.1077    1.8987 H   0  0  0  0  0  0  0  0  0  0  0  0
   -0.7184    0.1680    1.5538 H   0  0  0  0  0  0  0  0  0  0  0  0
   -1.8846   -1.1724   -2.3453 H   0  0  0  0  0  0  0  0  0  0  0  0
   -4.1315   -0.2942   -1.9812 H   0  0  0  0  0  0  0  0  0  0  0  0
   -7.2197    2.0032    2.1328 H   0  0  0  0  0  0  0  0  0  0  0  0
   -5.6433    1.3599   -1.8132 H   0  0  0  0  0  0  0  0  0  0  0  0
    0.2977   -1.4792   -1.7029 H   0  0  0  0  0  0  0  0  0  0  0  0
    0.9808    0.7645   -0.1353 H   0  0  0  0  0  0  0  0  0  0  0  0
    0.2407   -3.6120   -1.3434 H   0  0  0  0  0  0  0  0  0  0  0  0
   -0.4806   -5.0053    0.5947 H   0  0  0  0  0  0  0  0  0  0  0  0
    6.2199    3.3478    0.2334 H   0  0  0  0  0  0  0  0  0  0  0  0
    2.2448    2.2575   -0.8826 H   0  0  0  0  0  0  0  0  0  0  0  0
    7.1866   -0.0148    1.1167 H   0  0  0  0  0  0  0  0  0  0  0  0
    7.6485    1.5901    1.0861 H   0  0  0  0  0  0  0  0  0  0  0  0
    7.0909    0.8731    0.6511 N   0  0  0  0  0  0  0  0  0  0  0  0
 43  3  1  0
 20 19  1  0
  3  2  2  0
  3 24  1  0
  2 22  1  0
 18 17  2  0
 19 17  1  0
 24  4  2  0
 17 15  1  0
 22 21  1  0
 22 25  2  0
 16 21  1  0
 16 15  1  0
 21 23  2  0
 15  7  1  0
  4 25  1  0
  7  8  2  0
  7  6  1  0
  8  9  1  0
  6  5  2  0
  9 10  2  0
  5 10  1  0
 10 11  1  0
 11 12  1  0
 11 14  1  0
 12 13  2  0
 14  1  2  0
 13  1  1  0
  1 26  1  0
  2 27  1  0
  4 28  1  0
  5 29  1  0
  6 30  1  0
  8 31  1  0
  9 32  1  0
 13 33  1  0
 14 34  1  0
 15 35  1  6
 16 36  1  0
 19 37  1  0
 20 38  1  0
 24 39  1  0
 25 40  1  0
 43 41  1  0
 43 42  1  0
M  END
