
     RDKit          3D

 39 42  0  0  0  0  0  0  0  0999 V2000
   -7.1172    1.1875    0.1052 O   0  0  0  0  0  0  0  0  0  0  0  0
   -5.8840    0.6529    0.0659 C   0  0  0  0  0  0  0  0  0  0  0  0
   -5.6539   -0.7195    0.1230 C   0  0  0  0  0  0  0  0  0  0  0  0
   -4.3609   -1.2118    0.0787 C   0  0  0  0  0  0  0  0  0  0  0  0
   -3.2626   -0.3578   -0.0269 C   0  0  0  0  0  0  0  0  0  0  0  0
   -3.5118    1.0164   -0.0809 C   0  0  0  0  0  0  0  0  0  0  0  0
   -4.7975    1.5205   -0.0349 C   0  0  0  0  0  0  0  0  0  0  0  0
   -1.8909   -0.8467   -0.0758 C   0  0  0  0  0  0  0  0  0  0  0  0
   -0.6792   -0.1932   -0.0293 C   0  0  0  0  0  0  0  0  0  0  0  0
   -0.0197    1.1433    0.0880 C   0  0  0  0  0  0  0  0  0  0  0  0
    1.4454    0.7464    0.0565 C   0  0  0  0  0  0  0  0  0  0  0  0
    1.6118   -0.6329   -0.0579 C   0  0  0  0  0  0  0  0  0  0  0  0
    0.2802   -1.2118   -0.1095 C   0  0  0  0  0  0  0  0  0  0  0  0
   -0.2517   -2.4125   -0.2033 N   0  0  0  0  0  0  0  0  0  0  0  0
   -1.5657   -2.1649   -0.1797 N   0  0  0  0  0  0  0  0  0  0  0  0
    2.8805   -1.2046   -0.1051 C   0  0  0  0  0  0  0  0  0  0  0  0
    3.9906   -0.3784   -0.0406 C   0  0  0  0  0  0  0  0  0  0  0  0
    5.2678   -0.8042   -0.0776 O   0  0  0  0  0  0  0  0  0  0  0  0
    5.5033   -2.1929   -0.1807 C   0  0  0  0  0  0  0  0  0  0  0  0
    3.8273    1.0230    0.0723 C   0  0  0  0  0  0  0  0  0  0  0  0
    2.5554    1.5774    0.1209 C   0  0  0  0  0  0  0  0  0  0  0  0
    4.9722    1.7292    0.1256 O   0  0  0  0  0  0  0  0  0  0  0  0
    4.8852    3.1362    0.2163 C   0  0  0  0  0  0  0  0  0  0  0  0
   -7.7844    0.4951    0.1726 H   0  0  0  0  0  0  0  0  0  0  0  0
   -6.4845   -1.4106    0.2054 H   0  0  0  0  0  0  0  0  0  0  0  0
   -4.2309   -2.2851    0.1359 H   0  0  0  0  0  0  0  0  0  0  0  0
   -2.6886    1.7141   -0.1644 H   0  0  0  0  0  0  0  0  0  0  0  0
   -4.9629    2.5896   -0.0791 H   0  0  0  0  0  0  0  0  0  0  0  0
   -0.2671    1.8219   -0.7337 H   0  0  0  0  0  0  0  0  0  0  0  0
   -0.2775    1.6663    1.0135 H   0  0  0  0  0  0  0  0  0  0  0  0
   -2.2029   -2.9399   -0.2663 H   0  0  0  0  0  0  0  0  0  0  0  0
    2.9844   -2.2777   -0.1927 H   0  0  0  0  0  0  0  0  0  0  0  0
    5.0980   -2.7417    0.6741 H   0  0  0  0  0  0  0  0  0  0  0  0
    5.0833   -2.6133   -1.0987 H   0  0  0  0  0  0  0  0  0  0  0  0
    6.5826   -2.3227   -0.1988 H   0  0  0  0  0  0  0  0  0  0  0  0
    2.4209    2.6478    0.2075 H   0  0  0  0  0  0  0  0  0  0  0  0
    5.9065    3.5084    0.2333 H   0  0  0  0  0  0  0  0  0  0  0  0
    4.3661    3.5695   -0.6432 H   0  0  0  0  0  0  0  0  0  0  0  0
    4.3780    3.4569    1.1303 H   0  0  0  0  0  0  0  0  0  0  0  0
 19 18  1  0
 18 17  1  0
 16 17  1  0
 16 12  2  0
 14 15  1  0
 14 13  2  0
 17 20  2  0
 15  8  1  0
 13 12  1  0
 13  9  1  0
 12 11  1  0
 20 22  1  0
 20 21  1  0
 22 23  1  0
  8  9  2  0
  8  5  1  0
  9 10  1  0
 11 21  2  0
 11 10  1  0
  6  5  2  0
  6  7  1  0
  5  4  1  0
  7  2  2  0
  4  3  2  0
  2  3  1  0
  2  1  1  0
  1 24  1  0
  3 25  1  0
  4 26  1  0
  6 27  1  0
  7 28  1  0
 10 29  1  0
 10 30  1  0
 15 31  1  0
 16 32  1  0
 19 33  1  0
 19 34  1  0
 19 35  1  0
 21 36  1  0
 23 37  1  0
 23 38  1  0
 23 39  1  0
M  END
