
     RDKit          3D

 33 35  0  0  0  0  0  0  0  0999 V2000
   -0.8531   -0.1097   -0.8120 C   0  0  0  0  0  0  0  0  0  0  0  0
   -0.0623    0.6891   -0.0280 C   0  0  0  0  0  0  0  0  0  0  0  0
   -0.6215    1.3889    1.0670 C   0  0  0  0  0  0  0  0  0  0  0  0
   -1.9446    1.2538    1.3801 C   0  0  0  0  0  0  0  0  0  0  0  0
   -2.7781    0.4380    0.5858 C   0  0  0  0  0  0  0  0  0  0  0  0
   -4.8107   -0.4394    0.1148 C   0  0  0  0  0  0  0  0  0  0  0  0
   -4.2586   -1.1203   -0.9988 C   0  0  0  0  0  0  0  0  0  0  0  0
    1.3670    0.9597   -0.3894 C   0  0  0  0  0  0  0  0  0  0  0  0
    1.9753   -1.4039    0.0638 C   0  0  0  0  0  0  0  0  0  0  0  0
    4.5372   -0.0215    0.1970 C   0  0  0  0  0  0  0  0  0  0  0  0
    4.3621   -1.3765    0.8744 C   0  0  0  0  0  0  0  0  0  0  0  0
   -2.2267   -0.2436   -0.5244 C   0  0  0  0  0  0  0  0  0  0  0  0
   -4.0919    0.3211    0.8899 N   0  0  0  0  0  0  0  0  0  0  0  0
   -2.9987   -1.0270   -1.3140 N   0  0  0  0  0  0  0  0  0  0  0  0
    2.9046   -1.6088    1.2560 C   0  0  0  0  0  0  0  0  0  0  0  0
    2.1940   -0.0917   -0.5322 N   0  0  0  0  0  0  0  0  0  0  0  0
    3.5679    0.1181   -0.9695 C   0  0  0  0  0  0  0  0  0  0  0  0
    1.7028    2.1218   -0.5815 O   0  0  0  0  0  0  0  0  0  0  0  0
   -0.4507   -0.6451   -1.6637 H   0  0  0  0  0  0  0  0  0  0  0  0
    0.0124    2.0269    1.6686 H   0  0  0  0  0  0  0  0  0  0  0  0
   -2.3753    1.7709    2.2277 H   0  0  0  0  0  0  0  0  0  0  0  0
   -5.8654   -0.5452    0.3410 H   0  0  0  0  0  0  0  0  0  0  0  0
   -4.8936   -1.7436   -1.6175 H   0  0  0  0  0  0  0  0  0  0  0  0
    0.9400   -1.5137    0.3736 H   0  0  0  0  0  0  0  0  0  0  0  0
    4.3582    0.7860    0.9130 H   0  0  0  0  0  0  0  0  0  0  0  0
    5.5592    0.0974   -0.1688 H   0  0  0  0  0  0  0  0  0  0  0  0
    4.6864   -2.1648    0.1868 H   0  0  0  0  0  0  0  0  0  0  0  0
    5.0018   -1.4493    1.7559 H   0  0  0  0  0  0  0  0  0  0  0  0
    2.6114   -0.9209    2.0554 H   0  0  0  0  0  0  0  0  0  0  0  0
    2.7626   -2.6208    1.6411 H   0  0  0  0  0  0  0  0  0  0  0  0
    3.6523    1.0916   -1.4449 H   0  0  0  0  0  0  0  0  0  0  0  0
    3.7897   -0.6398   -1.7275 H   0  0  0  0  0  0  0  0  0  0  0  0
    2.1650   -2.1648   -0.6988 H   0  0  0  0  0  0  0  0  0  0  0  0
 17 10  1  0
 17 16  1  0
 10 11  1  0
  6 13  2  0
  6  7  1  0
 13  5  1  0
  7 14  2  0
  5  4  2  0
  5 12  1  0
  4  3  1  0
 11 15  1  0
 14 12  1  0
 12  1  2  0
  3  2  2  0
 16  9  1  0
 16  8  1  0
  1  2  1  0
  2  8  1  0
  9 15  1  0
  8 18  2  0
  1 19  1  0
  3 20  1  0
  4 21  1  0
  6 22  1  0
  7 23  1  0
  9 33  1  0
  9 24  1  0
 10 25  1  0
 10 26  1  0
 11 27  1  0
 11 28  1  0
 15 29  1  0
 15 30  1  0
 17 31  1  0
 17 32  1  0
M  END
