
     RDKit          3D

 71 70  0  0  0  0  0  0  0  0999 V2000
   12.6107    0.4687    0.2597 C   0  0  0  0  0  0  0  0  0  0  0  0
   11.2645    1.1723    0.1547 C   0  0  0  0  0  0  0  0  0  0  0  0
   10.0916    0.1998    0.1405 C   0  0  0  0  0  0  0  0  0  0  0  0
    8.7344    0.8853    0.0429 C   0  0  0  0  0  0  0  0  0  0  0  0
    7.5709   -0.0978    0.0259 C   0  0  0  0  0  0  0  0  0  0  0  0
    6.2063    0.5756   -0.0521 C   0  0  0  0  0  0  0  0  0  0  0  0
    5.0567   -0.4234   -0.0665 C   0  0  0  0  0  0  0  0  0  0  0  0
    3.6837    0.2349   -0.1152 C   0  0  0  0  0  0  0  0  0  0  0  0
    2.5597   -0.7980   -0.1279 C   0  0  0  0  0  0  0  0  0  0  0  0
    1.2127   -0.0997   -0.1355 C   0  0  0  0  0  0  0  0  0  0  0  0
    0.0004   -1.0011   -0.1430 N   0  0  1  0  0  0  0  0  0  0  0  0
    0.0002   -1.8523   -1.3636 C   0  0  0  0  0  0  0  0  0  0  0  0
   -0.0027   -1.8699    1.0653 C   0  0  0  0  0  0  0  0  0  0  0  0
   -1.2089   -0.0950   -0.1382 C   0  0  0  0  0  0  0  0  0  0  0  0
   -2.5575   -0.7898   -0.1273 C   0  0  0  0  0  0  0  0  0  0  0  0
   -3.6800    0.2447   -0.1189 C   0  0  0  0  0  0  0  0  0  0  0  0
   -5.0535   -0.4125   -0.0698 C   0  0  0  0  0  0  0  0  0  0  0  0
   -6.2028    0.5868   -0.0555 C   0  0  0  0  0  0  0  0  0  0  0  0
   -7.5672   -0.0871    0.0213 C   0  0  0  0  0  0  0  0  0  0  0  0
   -8.7316    0.8953    0.0380 C   0  0  0  0  0  0  0  0  0  0  0  0
  -10.0880    0.2081    0.1326 C   0  0  0  0  0  0  0  0  0  0  0  0
  -11.2625    1.1788    0.1457 C   0  0  0  0  0  0  0  0  0  0  0  0
  -12.6074    0.4725    0.2511 C   0  0  0  0  0  0  0  0  0  0  0  0
   13.4385    1.1787    0.2661 H   0  0  0  0  0  0  0  0  0  0  0  0
   12.6745   -0.1213    1.1763 H   0  0  0  0  0  0  0  0  0  0  0  0
   12.7657   -0.2126   -0.5795 H   0  0  0  0  0  0  0  0  0  0  0  0
   11.1476    1.8667    0.9925 H   0  0  0  0  0  0  0  0  0  0  0  0
   11.2383    1.7854   -0.7516 H   0  0  0  0  0  0  0  0  0  0  0  0
   10.2089   -0.4949   -0.6990 H   0  0  0  0  0  0  0  0  0  0  0  0
   10.1223   -0.4165    1.0464 H   0  0  0  0  0  0  0  0  0  0  0  0
    8.6148    1.5757    0.8853 H   0  0  0  0  0  0  0  0  0  0  0  0
    8.7021    1.5036   -0.8613 H   0  0  0  0  0  0  0  0  0  0  0  0
    7.6873   -0.7808   -0.8232 H   0  0  0  0  0  0  0  0  0  0  0  0
    7.6137   -0.7237    0.9244 H   0  0  0  0  0  0  0  0  0  0  0  0
    6.0873    1.2552    0.7990 H   0  0  0  0  0  0  0  0  0  0  0  0
    6.1574    1.2020   -0.9498 H   0  0  0  0  0  0  0  0  0  0  0  0
    5.1687   -1.0930   -0.9261 H   0  0  0  0  0  0  0  0  0  0  0  0
    5.1198   -1.0599    0.8229 H   0  0  0  0  0  0  0  0  0  0  0  0
    3.5653    0.8964    0.7490 H   0  0  0  0  0  0  0  0  0  0  0  0
    3.6099    0.8705   -1.0032 H   0  0  0  0  0  0  0  0  0  0  0  0
    2.6769   -1.4354   -1.0066 H   0  0  0  0  0  0  0  0  0  0  0  0
    2.6629   -1.4382    0.7504 H   0  0  0  0  0  0  0  0  0  0  0  0
    1.1115    0.5333    0.7469 H   0  0  0  0  0  0  0  0  0  0  0  0
    1.1203    0.5363   -1.0165 H   0  0  0  0  0  0  0  0  0  0  0  0
    0.8807   -2.4863   -1.3633 H   0  0  0  0  0  0  0  0  0  0  0  0
   -0.8831   -2.4825   -1.3660 H   0  0  0  0  0  0  0  0  0  0  0  0
    0.0032   -1.2142   -2.2439 H   0  0  0  0  0  0  0  0  0  0  0  0
   -0.0000   -1.2444    1.9548 H   0  0  0  0  0  0  0  0  0  0  0  0
   -0.8867   -2.4989    1.0579 H   0  0  0  0  0  0  0  0  0  0  0  0
    0.8768   -2.5050    1.0568 H   0  0  0  0  0  0  0  0  0  0  0  0
   -1.1056    0.5401    0.7425 H   0  0  0  0  0  0  0  0  0  0  0  0
   -1.1141    0.5390   -1.0209 H   0  0  0  0  0  0  0  0  0  0  0  0
   -2.6755   -1.4311   -1.0031 H   0  0  0  0  0  0  0  0  0  0  0  0
   -2.6613   -1.4254    0.7541 H   0  0  0  0  0  0  0  0  0  0  0  0
   -3.5617    0.9080    0.7439 H   0  0  0  0  0  0  0  0  0  0  0  0
   -3.6045    0.8787   -1.0081 H   0  0  0  0  0  0  0  0  0  0  0  0
   -5.1657   -1.0823   -0.9293 H   0  0  0  0  0  0  0  0  0  0  0  0
   -5.1167   -1.0486    0.8197 H   0  0  0  0  0  0  0  0  0  0  0  0
   -6.0842    1.2653    0.7965 H   0  0  0  0  0  0  0  0  0  0  0  0
   -6.1535    1.2140   -0.9525 H   0  0  0  0  0  0  0  0  0  0  0  0
   -7.6824   -0.7701   -0.8277 H   0  0  0  0  0  0  0  0  0  0  0  0
   -7.6107   -0.7137    0.9193 H   0  0  0  0  0  0  0  0  0  0  0  0
   -8.6132    1.5841    0.8821 H   0  0  0  0  0  0  0  0  0  0  0  0
   -8.6983    1.5150   -0.8652 H   0  0  0  0  0  0  0  0  0  0  0  0
  -10.2033   -0.4864   -0.7072 H   0  0  0  0  0  0  0  0  0  0  0  0
  -10.1194   -0.4081    1.0387 H   0  0  0  0  0  0  0  0  0  0  0  0
  -11.1470    1.8740    0.9831 H   0  0  0  0  0  0  0  0  0  0  0  0
  -11.2372    1.7903   -0.7616 H   0  0  0  0  0  0  0  0  0  0  0  0
  -13.4368    1.1806    0.2544 H   0  0  0  0  0  0  0  0  0  0  0  0
  -12.7599   -0.2113   -0.5865 H   0  0  0  0  0  0  0  0  0  0  0  0
  -12.6704   -0.1160    1.1689 H   0  0  0  0  0  0  0  0  0  0  0  0
  1  2  1  0
  1 24  1  0
  1 25  1  0
  1 26  1  0
  2  3  1  0
  2 27  1  0
  2 28  1  0
  3  4  1  0
  3 29  1  0
  3 30  1  0
  4  5  1  0
  4 31  1  0
  4 32  1  0
  5  6  1  0
  5 33  1  0
  5 34  1  0
  6  7  1  0
  6 35  1  0
  6 36  1  0
  7  8  1  0
  7 37  1  0
  7 38  1  0
  8  9  1  0
  8 39  1  0
  8 40  1  0
  9 10  1  0
  9 41  1  0
  9 42  1  0
 11 10  1  1
 10 43  1  0
 10 44  1  0
 11 12  1  0
 11 13  1  0
 11 14  1  0
 12 45  1  0
 12 46  1  0
 12 47  1  0
 13 48  1  0
 13 49  1  0
 13 50  1  0
 14 15  1  0
 14 51  1  0
 14 52  1  0
 15 16  1  0
 15 53  1  0
 15 54  1  0
 16 17  1  0
 16 55  1  0
 16 56  1  0
 17 18  1  0
 17 57  1  0
 17 58  1  0
 18 19  1  0
 18 59  1  0
 18 60  1  0
 19 20  1  0
 19 61  1  0
 19 62  1  0
 20 21  1  0
 20 63  1  0
 20 64  1  0
 21 22  1  0
 21 65  1  0
 21 66  1  0
 22 23  1  0
 22 67  1  0
 22 68  1  0
 23 69  1  0
 23 70  1  0
 23 71  1  0
M  CHG  1  11   1
M  END
