
     RDKit          3D

 21 22  0  0  0  0  0  0  0  0999 V2000
   23.4533   50.3427   26.9233 C   0  0  0  0  0  0  0  0  0  0  0  0
   24.6590   48.8922   28.4114 C   0  0  0  0  0  0  0  0  0  0  0  0
   25.0740   48.5113   29.7635 C   0  0  0  0  0  0  0  0  0  0  0  0
   25.1155   48.1660   27.3155 C   0  0  0  0  0  0  0  0  0  0  0  0
   24.7368   48.5335   26.0374 C   0  0  0  0  0  0  0  0  0  0  0  0
   23.7999   49.9832   28.2269 C   0  0  0  0  0  0  0  0  0  0  0  0
   23.2937   50.6950   29.2343 O   0  0  0  0  0  0  0  0  0  0  0  0
   23.9127   49.6299   25.8294 C   0  0  0  0  0  0  0  0  0  0  0  0
   25.3182   47.1941   31.5446 C   0  0  0  0  0  0  0  0  0  0  0  0
   25.9998   48.3541   31.8163 C   0  0  0  0  0  0  0  0  0  0  0  0
   25.8435   49.1867   30.6849 C   0  0  0  0  0  0  0  0  0  0  0  0
   24.7706   47.3011   30.3124 N   0  0  0  0  0  0  0  0  0  0  0  0
   25.3578   47.5472   24.5565 Br  0  0  0  0  0  0  0  0  0  0  0  0
   22.3214   51.8182   26.6574 Br  0  0  0  0  0  0  0  0  0  0  0  0
   26.6145   50.8555   30.4434 Br  0  0  0  0  0  0  0  0  0  0  0  0
   26.9462   48.7405   33.3562 Br  0  0  0  0  0  0  0  0  0  0  0  0
   25.1088   45.6983   32.6033 Br  0  0  0  0  0  0  0  0  0  0  0  0
   23.6259   49.9270   24.8297 H   0  0  0  0  0  0  0  0  0  0  0  0
   25.7790   47.3277   27.4808 H   0  0  0  0  0  0  0  0  0  0  0  0
   24.1853   46.6058   29.8718 H   0  0  0  0  0  0  0  0  0  0  0  0
   23.4889   50.2821   30.0866 H   0  0  0  0  0  0  0  0  0  0  0  0
  1  6  2  0
  1  8  1  0
  1 14  1  0
  2  3  1  0
  2  4  2  0
  2  6  1  0
  3 11  2  0
  3 12  1  0
  4  5  1  0
  5  8  2  0
  5 13  1  0
  6  7  1  0
  9 10  2  0
  9 12  1  0
  9 17  1  0
 10 11  1  0
 10 16  1  0
 11 15  1  0
  8 18  1  0
  4 19  1  0
 12 20  1  0
  7 21  1  0
M  END
