
     RDKit          3D

 26 27  0  0  0  0  0  0  0  0999 V2000
    4.5546    0.5182    0.2436 C   0  0  0  0  0  0  0  0  0  0  0  0
    2.9315   -1.4011    0.2460 C   0  0  0  0  0  0  0  0  0  0  0  0
    1.6601   -1.9426    0.2408 C   0  0  0  0  0  0  0  0  0  0  0  0
    0.5691   -1.0798    0.1802 C   0  0  0  0  0  0  0  0  0  0  0  0
    3.1418   -0.0125    0.2005 C   0  0  0  0  0  0  0  0  0  0  0  0
    2.0491    0.8349    0.1416 C   0  0  0  0  0  0  0  0  0  0  0  0
    0.7482    0.3147    0.1301 C   0  0  0  0  0  0  0  0  0  0  0  0
   -0.5104    1.0049    0.0712 C   0  0  0  0  0  0  0  0  0  0  0  0
   -1.6047    0.1988    0.0688 C   0  0  0  0  0  0  0  0  0  0  0  0
   -3.2015    0.5642   -0.0739 B   0  0  1  0  0  0  0  0  0  0  0  0
   -3.8912   -0.5240    0.6396 O   0  0  0  0  0  0  0  0  0  0  0  0
   -3.4782    1.8951    0.4643 O   0  0  0  0  0  0  0  0  0  0  0  0
   -3.5923    0.6580   -1.4858 O   0  0  0  0  0  0  0  0  0  0  0  0
   -1.1200   -1.4741    0.1588 S   0  0  0  0  0  0  0  0  0  0  0  0
    4.6745    1.8325   -0.3610 N   0  0  0  0  0  0  0  0  0  0  0  0
    4.8637    0.6052    1.2901 H   0  0  0  0  0  0  0  0  0  0  0  0
    5.2206   -0.2361   -0.1984 H   0  0  0  0  0  0  0  0  0  0  0  0
    1.5222   -3.0161    0.2735 H   0  0  0  0  0  0  0  0  0  0  0  0
    2.2017    1.9064    0.0964 H   0  0  0  0  0  0  0  0  0  0  0  0
   -0.5839    2.0848    0.0259 H   0  0  0  0  0  0  0  0  0  0  0  0
   -4.8417   -0.4065    0.5499 H   0  0  0  0  0  0  0  0  0  0  0  0
   -3.1008    1.9675    1.3433 H   0  0  0  0  0  0  0  0  0  0  0  0
   -3.3482   -0.1496   -1.9429 H   0  0  0  0  0  0  0  0  0  0  0  0
    5.6176    2.1747   -0.2312 H   0  0  0  0  0  0  0  0  0  0  0  0
    4.5391    1.7583   -1.3615 H   0  0  0  0  0  0  0  0  0  0  0  0
    3.7870   -2.0658    0.2804 H   0  0  0  0  0  0  0  0  0  0  0  0
 15  1  1  0
  1  5  1  0
  5  2  2  0
  5  6  1  0
  2  3  1  0
  6  7  2  0
  3  4  2  0
  7  4  1  0
  7  8  1  0
  4 14  1  0
  8  9  2  0
  9 14  1  0
  9 10  1  0
 10 11  1  1
 10 13  1  0
 10 12  1  0
  1 16  1  0
  1 17  1  0
  2 26  1  0
  3 18  1  0
  6 19  1  0
  8 20  1  0
 11 21  1  0
 12 22  1  0
 13 23  1  0
 15 24  1  0
 15 25  1  0
M  CHG  1  10  -1
M  END
