
     RDKit          3D

 30 31  0  0  0  0  0  0  0  0999 V2000
   -0.5669   -0.8055    0.0662 C   0  0  0  0  0  0  0  0  0  0  0  0
   -1.1575   -0.3105    1.2250 C   0  0  0  0  0  0  0  0  0  0  0  0
    2.5857    2.8874   -0.4918 O   0  0  0  0  0  0  0  0  0  0  0  0
    2.5707    1.4816   -0.5746 C   0  0  1  0  0  0  0  0  0  0  0  0
    4.0035    0.9785   -0.5248 C   0  0  0  0  0  0  0  0  0  0  0  0
    4.0393   -0.5462   -0.4968 C   0  0  0  0  0  0  0  0  0  0  0  0
    3.1726   -1.0876    0.6317 C   0  0  0  0  0  0  0  0  0  0  0  0
    1.8146   -0.5704    0.5331 N   0  0  0  0  0  0  0  0  0  0  0  0
    1.7554    0.8811    0.5767 C   0  0  0  0  0  0  0  0  0  0  0  0
    0.8223   -1.3633    0.0759 C   0  0  0  0  0  0  0  0  0  0  0  0
    0.9983   -2.5183   -0.2881 O   0  0  0  0  0  0  0  0  0  0  0  0
   -2.4793    0.1069    1.2217 C   0  0  0  0  0  0  0  0  0  0  0  0
   -3.2038    0.0379    0.0419 C   0  0  0  0  0  0  0  0  0  0  0  0
   -4.8504    0.5736    0.0236 Cl  0  0  0  0  0  0  0  0  0  0  0  0
   -2.6352   -0.4533   -1.1235 C   0  0  0  0  0  0  0  0  0  0  0  0
   -1.3198   -0.8894   -1.0999 C   0  0  0  0  0  0  0  0  0  0  0  0
   -0.5917   -0.2550    2.1467 H   0  0  0  0  0  0  0  0  0  0  0  0
    2.1131    1.1463   -1.5182 H   0  0  0  0  0  0  0  0  0  0  0  0
    4.5630    1.3582   -1.3828 H   0  0  0  0  0  0  0  0  0  0  0  0
    4.4857    1.3725    0.3772 H   0  0  0  0  0  0  0  0  0  0  0  0
    3.6873   -0.9519   -1.4497 H   0  0  0  0  0  0  0  0  0  0  0  0
    5.0645   -0.8967   -0.3633 H   0  0  0  0  0  0  0  0  0  0  0  0
    3.1495   -2.1737    0.6266 H   0  0  0  0  0  0  0  0  0  0  0  0
    3.5796   -0.7706    1.5970 H   0  0  0  0  0  0  0  0  0  0  0  0
    2.1650    1.2252    1.5315 H   0  0  0  0  0  0  0  0  0  0  0  0
    0.7252    1.2267    0.5196 H   0  0  0  0  0  0  0  0  0  0  0  0
   -2.9342    0.4812    2.1283 H   0  0  0  0  0  0  0  0  0  0  0  0
   -3.2100   -0.5025   -2.0381 H   0  0  0  0  0  0  0  0  0  0  0  0
   -0.8790   -1.2832   -2.0064 H   0  0  0  0  0  0  0  0  0  0  0  0
    1.7003    3.2147   -0.6789 H   0  0  0  0  0  0  0  0  0  0  0  0
 14 13  1  0
 12 13  1  0
 12  2  2  0
 13 15  2  0
  2  1  1  0
 15 16  1  0
  1 16  2  0
  1 10  1  0
 11 10  2  0
 10  8  1  0
  8  9  1  0
  8  7  1  0
  9  4  1  0
  7  6  1  0
  6  5  1  0
  4  5  1  0
  4  3  1  0
  2 17  1  0
  3 30  1  0
  4 18  1  6
  5 19  1  0
  5 20  1  0
  6 21  1  0
  6 22  1  0
  7 23  1  0
  7 24  1  0
  9 25  1  0
  9 26  1  0
 12 27  1  0
 15 28  1  0
 16 29  1  0
M  END
