
     RDKit          3D

 10  9  0  0  0  0  0  0  0  0999 V2000
   -0.6142   -0.0094    1.7941 C   0  0  0  0  0  0  0  0  0  0  0  0
    0.0308   -0.2045    0.4472 C   0  0  0  0  0  0  0  0  0  0  0  0
    1.1813   -0.5805    0.3064 O   0  0  0  0  0  0  0  0  0  0  0  0
   -0.7794    0.1057   -0.5843 N   0  0  0  0  0  0  0  0  0  0  0  0
   -0.3987   -0.1926   -1.8582 O   0  0  0  0  0  0  0  0  0  0  0  0
   -0.6409   -0.9635    2.3203 H   0  0  0  0  0  0  0  0  0  0  0  0
   -0.0120    0.6777    2.3870 H   0  0  0  0  0  0  0  0  0  0  0  0
   -1.6290    0.3811    1.7402 H   0  0  0  0  0  0  0  0  0  0  0  0
   -1.7736    0.2344   -0.4633 H   0  0  0  0  0  0  0  0  0  0  0  0
   -0.0773    0.6332   -2.2417 H   0  0  0  0  0  0  0  0  0  0  0  0
  1  2  1  0
  1  6  1  0
  1  7  1  0
  1  8  1  0
  2  3  2  0
  2  4  1  0
  4  5  1  0
  4  9  1  0
  5 10  1  0
M  END
