
     RDKit          3D

 30 32  0  0  0  0  0  0  0  0999 V2000
   -3.1474   -0.8682    0.8895 C   0  0  0  0  0  0  0  0  0  0  0  0
   -2.3532   -1.9455    0.1531 C   0  0  0  0  0  0  0  0  0  0  0  0
   -0.9362   -1.5042    0.0959 C   0  0  0  0  0  0  0  0  0  0  0  0
    0.1293   -2.2910   -0.2341 N   0  0  0  0  0  0  0  0  0  0  0  0
    1.2663   -1.5365   -0.2159 C   0  0  0  0  0  0  0  0  0  0  0  0
    2.5873   -1.8960   -0.4598 C   0  0  0  0  0  0  0  0  0  0  0  0
    3.5520   -0.9145   -0.3549 C   0  0  0  0  0  0  0  0  0  0  0  0
    3.1883    0.3973   -0.0252 C   0  0  0  0  0  0  0  0  0  0  0  0
    4.4414    1.5967    0.0570 Cl  0  0  0  0  0  0  0  0  0  0  0  0
    1.8885    0.7740    0.2233 C   0  0  0  0  0  0  0  0  0  0  0  0
    0.8999   -0.2138    0.1320 C   0  0  0  0  0  0  0  0  0  0  0  0
   -0.5159   -0.2251    0.3229 C   0  0  0  0  0  0  0  0  0  0  0  0
   -1.4500    0.8873    0.6744 C   0  0  0  0  0  0  0  0  0  0  0  0
   -2.8168    0.4648    0.4004 N   0  0  0  0  0  0  0  0  0  0  0  0
   -3.6945    1.2874   -0.2115 C   0  0  0  0  0  0  0  0  0  0  0  0
   -3.3963    2.4327   -0.5324 O   0  0  0  0  0  0  0  0  0  0  0  0
   -5.0547    0.7272   -0.5581 C   0  0  0  0  0  0  0  0  0  0  0  0
   -4.2113   -1.0476    0.7865 H   0  0  0  0  0  0  0  0  0  0  0  0
   -2.9065   -0.8996    1.9553 H   0  0  0  0  0  0  0  0  0  0  0  0
   -2.4557   -2.8947    0.6836 H   0  0  0  0  0  0  0  0  0  0  0  0
   -2.7524   -2.0911   -0.8552 H   0  0  0  0  0  0  0  0  0  0  0  0
    0.0902   -3.2831   -0.4086 H   0  0  0  0  0  0  0  0  0  0  0  0
    2.8592   -2.9119   -0.7161 H   0  0  0  0  0  0  0  0  0  0  0  0
    4.5911   -1.1551   -0.5337 H   0  0  0  0  0  0  0  0  0  0  0  0
    1.6439    1.7986    0.4739 H   0  0  0  0  0  0  0  0  0  0  0  0
   -1.3585    1.1644    1.7312 H   0  0  0  0  0  0  0  0  0  0  0  0
   -1.2176    1.7801    0.0959 H   0  0  0  0  0  0  0  0  0  0  0  0
   -5.6744    0.6341    0.3365 H   0  0  0  0  0  0  0  0  0  0  0  0
   -5.5549    1.4039   -1.2459 H   0  0  0  0  0  0  0  0  0  0  0  0
   -5.0058   -0.2596   -1.0177 H   0  0  0  0  0  0  0  0  0  0  0  0
  6  5  1  0
  6  7  2  0
  4  5  1  0
  4  3  1  0
  5 11  2  0
  2  3  1  0
  2  1  1  0
  7  8  1  0
  3 12  2  0
 16 15  2  0
 15 17  1  0
 15 14  1  0
 11 12  1  0
 11 10  1  0
  8 10  2  0
  8  9  1  0
 12 13  1  0
 14  1  1  0
 14 13  1  0
  1 18  1  0
  1 19  1  0
  2 20  1  0
  2 21  1  0
  4 22  1  0
  6 23  1  0
  7 24  1  0
 10 25  1  0
 13 26  1  0
 13 27  1  0
 17 28  1  0
 17 29  1  0
 17 30  1  0
M  END
