
     RDKit          3D

 33 34  0  0  0  0  0  0  0  0999 V2000
    5.2772    0.3317   -0.4484 Cl  0  0  0  0  0  0  0  0  0  0  0  0
    3.6484    0.5370    0.0602 C   0  0  0  0  0  0  0  0  0  0  0  0
    2.7457   -0.5185    0.1589 C   0  0  0  0  0  0  0  0  0  0  0  0
    3.1008   -1.8705   -0.2418 N   0  0  0  0  0  0  0  0  0  0  0  0
    2.6854   -2.7766    0.4404 O   0  0  0  0  0  0  0  0  0  0  0  0
    3.7532   -2.0093   -1.2458 O   0  0  0  0  0  0  0  0  0  0  0  0
    1.4641   -0.3194    0.6463 C   0  0  0  0  0  0  0  0  0  0  0  0
    3.2353    1.7997    0.4537 C   0  0  0  0  0  0  0  0  0  0  0  0
    1.9430    2.0045    0.9079 C   0  0  0  0  0  0  0  0  0  0  0  0
    1.0422    0.9510    1.0108 C   0  0  0  0  0  0  0  0  0  0  0  0
   -0.3590    1.1710    1.5177 C   0  0  0  0  0  0  0  0  0  0  0  0
   -1.3486    1.1243    0.4458 N   0  0  0  0  0  0  0  0  0  0  0  0
   -2.0283   -0.0579    0.2541 C   0  0  0  0  0  0  0  0  0  0  0  0
   -1.8325   -1.0546    0.9186 O   0  0  0  0  0  0  0  0  0  0  0  0
   -2.9499   -0.0610   -0.7700 N   0  0  0  0  0  0  0  0  0  0  0  0
   -3.7108   -1.2717   -0.9604 C   0  0  0  0  0  0  0  0  0  0  0  0
   -4.7448   -1.4405    0.1328 C   0  0  0  0  0  0  0  0  0  0  0  0
   -5.3016   -2.6375    0.0680 O   0  0  0  0  0  0  0  0  0  0  0  0
   -5.0466   -0.5813    0.9147 O   0  0  0  0  0  0  0  0  0  0  0  0
   -3.1974    1.0493   -1.5187 C   0  0  0  0  0  0  0  0  0  0  0  0
   -2.5279    2.1961   -1.3416 C   0  0  0  0  0  0  0  0  0  0  0  0
   -1.5186    2.2846   -0.3179 C   0  0  0  0  0  0  0  0  0  0  0  0
   -0.8363    3.2664   -0.0990 O   0  0  0  0  0  0  0  0  0  0  0  0
    0.7884   -1.1606    0.7255 H   0  0  0  0  0  0  0  0  0  0  0  0
    3.9287    2.6271    0.4023 H   0  0  0  0  0  0  0  0  0  0  0  0
    1.6398    3.0027    1.1921 H   0  0  0  0  0  0  0  0  0  0  0  0
   -0.6160    0.4138    2.2532 H   0  0  0  0  0  0  0  0  0  0  0  0
   -0.4339    2.1365    2.0120 H   0  0  0  0  0  0  0  0  0  0  0  0
   -4.2236   -1.2141   -1.9220 H   0  0  0  0  0  0  0  0  0  0  0  0
   -3.0547   -2.1403   -1.0069 H   0  0  0  0  0  0  0  0  0  0  0  0
   -5.9922   -2.7258    0.7413 H   0  0  0  0  0  0  0  0  0  0  0  0
   -3.9610    0.9443   -2.2759 H   0  0  0  0  0  0  0  0  0  0  0  0
   -2.7300    3.0584   -1.9575 H   0  0  0  0  0  0  0  0  0  0  0  0
 21 20  2  0
 21 22  1  0
 23 22  2  0
 20 15  1  0
 22 12  1  0
 15 16  1  0
 15 13  1  0
 12 13  1  0
 12 11  1  0
 16 17  1  0
 13 14  2  0
 11 10  1  0
  9 10  2  0
  9  8  1  0
 17 19  2  0
 17 18  1  0
 10  7  1  0
  8  2  2  0
  7  3  2  0
  2  3  1  0
  2  1  1  0
  3  4  1  0
  4  5  2  0
  4  6  1  0
  7 24  1  0
  8 25  1  0
  9 26  1  0
 11 27  1  0
 11 28  1  0
 16 29  1  0
 16 30  1  0
 18 31  1  0
 20 32  1  0
 21 33  1  0
M  CHG  2   4   1   6  -1
M  END
