
     RDKit          3D

 55 56  0  0  0  0  0  0  0  0999 V2000
   11.1479   -0.0020    0.3808 N   0  0  0  0  0  0  0  0  0  0  0  0
   10.2153    0.8319   -0.1715 C   0  0  0  0  0  0  0  0  0  0  0  0
   10.4586    1.9427   -0.7562 N   0  0  0  0  0  0  0  0  0  0  0  0
    8.8141    0.3425   -0.1151 C   0  0  0  0  0  0  0  0  0  0  0  0
    8.5043   -1.0127    0.0207 C   0  0  0  0  0  0  0  0  0  0  0  0
    7.1930   -1.4455    0.0577 C   0  0  0  0  0  0  0  0  0  0  0  0
    7.7610    1.2447   -0.2176 C   0  0  0  0  0  0  0  0  0  0  0  0
    6.4392    0.8284   -0.1728 C   0  0  0  0  0  0  0  0  0  0  0  0
    6.1441   -0.5279   -0.0346 C   0  0  0  0  0  0  0  0  0  0  0  0
    4.9029   -1.0359    0.0175 O   0  0  0  0  0  0  0  0  0  0  0  0
    3.7852   -0.1609   -0.0503 C   0  0  0  0  0  0  0  0  0  0  0  0
    2.5283   -1.0018    0.0180 C   0  0  0  0  0  0  0  0  0  0  0  0
    1.2697   -0.1426   -0.0145 C   0  0  0  0  0  0  0  0  0  0  0  0
   -0.0022   -0.9803    0.0218 C   0  0  0  0  0  0  0  0  0  0  0  0
   -1.2736   -0.1410    0.0208 C   0  0  0  0  0  0  0  0  0  0  0  0
   -2.5325   -1.0003    0.0279 C   0  0  0  0  0  0  0  0  0  0  0  0
   -3.7892   -0.1564    0.0544 C   0  0  0  0  0  0  0  0  0  0  0  0
   -4.9066   -1.0341    0.0375 O   0  0  0  0  0  0  0  0  0  0  0  0
   -6.1482   -0.5252    0.0646 C   0  0  0  0  0  0  0  0  0  0  0  0
   -6.4448    0.8365    0.1249 C   0  0  0  0  0  0  0  0  0  0  0  0
   -7.7669    1.2531    0.1507 C   0  0  0  0  0  0  0  0  0  0  0  0
   -7.1960   -1.4476    0.0305 C   0  0  0  0  0  0  0  0  0  0  0  0
   -8.5077   -1.0150    0.0484 C   0  0  0  0  0  0  0  0  0  0  0  0
   -8.8194    0.3452    0.1054 C   0  0  0  0  0  0  0  0  0  0  0  0
  -10.2213    0.8357    0.1388 C   0  0  0  0  0  0  0  0  0  0  0  0
  -10.4613    1.9859    0.6428 N   0  0  0  0  0  0  0  0  0  0  0  0
  -11.1578   -0.0381   -0.3410 N   0  0  0  0  0  0  0  0  0  0  0  0
   10.8634   -0.5932    1.1446 H   0  0  0  0  0  0  0  0  0  0  0  0
   12.0819    0.3615    0.4856 H   0  0  0  0  0  0  0  0  0  0  0  0
   11.4447    2.1808   -0.6928 H   0  0  0  0  0  0  0  0  0  0  0  0
    9.2905   -1.7544    0.0784 H   0  0  0  0  0  0  0  0  0  0  0  0
    6.9717   -2.5011    0.1540 H   0  0  0  0  0  0  0  0  0  0  0  0
    7.9761    2.2993   -0.3267 H   0  0  0  0  0  0  0  0  0  0  0  0
    5.6578    1.5720   -0.2438 H   0  0  0  0  0  0  0  0  0  0  0  0
    3.8122    0.5540    0.7805 H   0  0  0  0  0  0  0  0  0  0  0  0
    3.8062    0.4142   -0.9831 H   0  0  0  0  0  0  0  0  0  0  0  0
    2.5151   -1.7041   -0.8207 H   0  0  0  0  0  0  0  0  0  0  0  0
    2.5386   -1.5988    0.9349 H   0  0  0  0  0  0  0  0  0  0  0  0
    1.2754    0.5489    0.8347 H   0  0  0  0  0  0  0  0  0  0  0  0
    1.2693    0.4792   -0.9162 H   0  0  0  0  0  0  0  0  0  0  0  0
   -0.0136   -1.6578   -0.8388 H   0  0  0  0  0  0  0  0  0  0  0  0
    0.0087   -1.6186    0.9119 H   0  0  0  0  0  0  0  0  0  0  0  0
   -1.2726    0.5200    0.8940 H   0  0  0  0  0  0  0  0  0  0  0  0
   -1.2792    0.5122   -0.8583 H   0  0  0  0  0  0  0  0  0  0  0  0
   -2.5425   -1.6413   -0.8587 H   0  0  0  0  0  0  0  0  0  0  0  0
   -2.5205   -1.6610    0.9000 H   0  0  0  0  0  0  0  0  0  0  0  0
   -3.8069    0.4676    0.9553 H   0  0  0  0  0  0  0  0  0  0  0  0
   -3.8179    0.5127   -0.8135 H   0  0  0  0  0  0  0  0  0  0  0  0
   -5.6642    1.5841    0.1505 H   0  0  0  0  0  0  0  0  0  0  0  0
   -7.9829    2.3120    0.1993 H   0  0  0  0  0  0  0  0  0  0  0  0
   -6.9738   -2.5069   -0.0050 H   0  0  0  0  0  0  0  0  0  0  0  0
   -9.2925   -1.7602    0.0388 H   0  0  0  0  0  0  0  0  0  0  0  0
  -11.4489    2.2169    0.5751 H   0  0  0  0  0  0  0  0  0  0  0  0
  -10.8794   -0.6870   -1.0587 H   0  0  0  0  0  0  0  0  0  0  0  0
  -12.0928    0.3164   -0.4661 H   0  0  0  0  0  0  0  0  0  0  0  0
 16 17  1  0
 16 15  1  0
 17 18  1  0
  3  2  2  0
 14 15  1  0
 14 13  1  0
 12 13  1  0
 12 11  1  0
  5  6  1  0
  5  4  2  0
  6  9  2  0
 18 19  1  0
  2  4  1  0
  2  1  1  0
 20 19  2  0
 20 21  1  0
  4  7  1  0
 19 22  1  0
 11 10  1  0
 21 24  2  0
  9 10  1  0
  9  8  1  0
 22 23  2  0
  7  8  2  0
 24 23  1  0
 24 25  1  0
 25 26  2  0
 25 27  1  0
  1 28  1  0
  1 29  1  0
  3 30  1  0
  5 31  1  0
  6 32  1  0
  7 33  1  0
  8 34  1  0
 11 35  1  0
 11 36  1  0
 12 37  1  0
 12 38  1  0
 13 39  1  0
 13 40  1  0
 14 41  1  0
 14 42  1  0
 15 43  1  0
 15 44  1  0
 16 45  1  0
 16 46  1  0
 17 47  1  0
 17 48  1  0
 20 49  1  0
 21 50  1  0
 22 51  1  0
 23 52  1  0
 26 53  1  0
 27 54  1  0
 27 55  1  0
M  END
