
     RDKit          3D

 41 44  0  0  0  0  0  0  0  0999 V2000
   -7.4422   -0.3183    0.4281 C   0  0  0  0  0  0  0  0  0  0  0  0
   -6.7661    0.6805   -0.2795 C   0  0  0  0  0  0  0  0  0  0  0  0
   -5.3907    0.6371   -0.2286 C   0  0  0  0  0  0  0  0  0  0  0  0
   -4.6806   -0.3462    0.4901 C   0  0  0  0  0  0  0  0  0  0  0  0
   -5.3751   -1.3320    1.1867 C   0  0  0  0  0  0  0  0  0  0  0  0
   -6.7565   -1.3097    1.1497 C   0  0  0  0  0  0  0  0  0  0  0  0
   -4.4187    1.4303   -0.7824 N   0  0  0  0  0  0  0  0  0  0  0  0
   -3.2179    0.9184   -0.3930 C   0  0  0  0  0  0  0  0  0  0  0  0
   -3.3344   -0.1448    0.3683 N   0  0  0  0  0  0  0  0  0  0  0  0
    1.9305    0.6511   -0.0050 C   0  0  0  0  0  0  0  0  0  0  0  0
    1.5781    1.7208   -0.8095 C   0  0  0  0  0  0  0  0  0  0  0  0
    0.2414    1.9791   -1.0520 C   0  0  0  0  0  0  0  0  0  0  0  0
   -0.7569    1.1715   -0.5004 C   0  0  0  0  0  0  0  0  0  0  0  0
   -0.3863    0.0947    0.3063 C   0  0  0  0  0  0  0  0  0  0  0  0
    0.9563   -0.1578    0.5483 C   0  0  0  0  0  0  0  0  0  0  0  0
   -2.0744    1.5110   -0.7980 N   0  0  0  0  0  0  0  0  0  0  0  0
   -8.8660   -0.3307    0.4180 C   0  0  0  0  0  0  0  0  0  0  0  0
  -10.0195   -0.3464    0.4141 N   0  0  0  0  0  0  0  0  0  0  0  0
    5.4188   -2.2525   -1.8322 C   0  0  0  0  0  0  0  0  0  0  0  0
    6.0291   -1.5736   -0.7848 C   0  0  0  0  0  0  0  0  0  0  0  0
    5.3027   -0.6518   -0.0541 C   0  0  0  0  0  0  0  0  0  0  0  0
    3.9627   -0.4530   -0.4202 C   0  0  0  0  0  0  0  0  0  0  0  0
    3.3821   -1.0857   -1.4083 N   0  0  0  0  0  0  0  0  0  0  0  0
    4.0954   -1.9700   -2.1022 C   0  0  0  0  0  0  0  0  0  0  0  0
    7.1905   -0.2123    1.2660 F   0  0  0  0  0  0  0  0  0  0  0  0
    5.8550    1.4295    0.8958 F   0  0  0  0  0  0  0  0  0  0  0  0
    5.2775   -0.1447    2.2426 F   0  0  0  0  0  0  0  0  0  0  0  0
   -7.3015    1.4414   -0.8308 H   0  0  0  0  0  0  0  0  0  0  0  0
   -4.8478   -2.0968    1.7408 H   0  0  0  0  0  0  0  0  0  0  0  0
   -7.3214   -2.0647    1.6791 H   0  0  0  0  0  0  0  0  0  0  0  0
   -4.5662    2.2409   -1.3636 H   0  0  0  0  0  0  0  0  0  0  0  0
    2.3378    2.3581   -1.2429 H   0  0  0  0  0  0  0  0  0  0  0  0
   -0.0285    2.8227   -1.6763 H   0  0  0  0  0  0  0  0  0  0  0  0
   -1.1359   -0.5442    0.7450 H   0  0  0  0  0  0  0  0  0  0  0  0
    1.2334   -0.9942    1.1773 H   0  0  0  0  0  0  0  0  0  0  0  0
   -2.1853    2.3219   -1.3873 H   0  0  0  0  0  0  0  0  0  0  0  0
    5.9628   -2.9786   -2.4178 H   0  0  0  0  0  0  0  0  0  0  0  0
    7.0652   -1.7734   -0.5500 H   0  0  0  0  0  0  0  0  0  0  0  0
    3.5768   -2.4715   -2.9102 H   0  0  0  0  0  0  0  0  0  0  0  0
    3.2616    0.4385    0.2961 O   0  0  0  0  0  0  0  0  0  0  0  0
    5.9045    0.1051    1.0860 C   0  0  1  0  0  0  0  0  0  0  0  0
 18 17  3  0
 19 24  2  0
 19 20  1  0
 24 23  1  0
 17  1  1  0
 20 21  2  0
  2  1  2  0
  2  3  1  0
 23 22  2  0
  1  6  1  0
 21 22  1  0
 21 41  1  0
 41 26  1  6
 22 40  1  0
  3  7  1  0
  3  4  2  0
  7  8  1  0
 41 25  1  0
 41 27  1  0
 11 12  2  0
 11 10  1  0
  6  5  2  0
 40 10  1  0
 12 13  1  0
 10 15  2  0
  4  5  1  0
  4  9  1  0
  8 16  1  0
  8  9  2  0
 13 16  1  0
 13 14  2  0
 15 14  1  0
  2 28  1  0
  5 29  1  0
  6 30  1  0
  7 31  1  0
 11 32  1  0
 12 33  1  0
 14 34  1  0
 15 35  1  0
 16 36  1  0
 19 37  1  0
 20 38  1  0
 24 39  1  0
M  END
