
     RDKit          3D

 23 23  0  0  0  0  0  0  0  0999 V2000
   -0.7339   -0.8141   -1.5282 C   0  0  2  0  0  0  0  0  0  0  0  0
    0.7882   -0.8141   -1.5282 C   0  0  1  0  0  0  0  0  0  0  0  0
    1.3449   -0.8141   -0.1537 C   0  0  2  0  0  0  0  0  0  0  0  0
    0.7799    0.2941    0.6815 C   0  0  1  0  0  0  0  0  0  0  0  0
   -0.7500    0.2945    0.6769 C   0  0  1  0  0  0  0  0  0  0  0  0
   -1.2381    1.5161    1.3994 C   0  0  0  0  0  0  0  0  0  0  0  0
   -1.1746   -0.6676   -2.8067 O   0  0  0  0  0  0  0  0  0  0  0  0
    2.7888   -0.6537   -0.2321 O   0  0  0  0  0  0  0  0  0  0  0  0
    1.2373    0.1379    2.0261 O   0  0  0  0  0  0  0  0  0  0  0  0
   -1.2996    0.2964   -0.6877 O   0  0  0  0  0  0  0  0  0  0  0  0
   -2.6266    1.6347    1.2329 O   0  0  0  0  0  0  0  0  0  0  0  0
    1.2417   -1.9616   -2.2014 F   0  0  0  0  0  0  0  0  0  0  0  0
   -1.0837   -1.7618   -1.1369 H   0  0  0  0  0  0  0  0  0  0  0  0
    1.1392    0.0685   -2.0491 H   0  0  0  0  0  0  0  0  0  0  0  0
    1.1152   -1.7617    0.3183 H   0  0  0  0  0  0  0  0  0  0  0  0
    1.1321    1.2415    0.2919 H   0  0  0  0  0  0  0  0  0  0  0  0
   -1.1015   -0.5900    1.1942 H   0  0  0  0  0  0  0  0  0  0  0  0
   -1.0072    1.4283    2.4542 H   0  0  0  0  0  0  0  0  0  0  0  0
   -0.7497    2.3943    0.9948 H   0  0  0  0  0  0  0  0  0  0  0  0
    3.2087   -1.4620    0.0117 H   0  0  0  0  0  0  0  0  0  0  0  0
    1.9404    0.7439    2.1914 H   0  0  0  0  0  0  0  0  0  0  0  0
   -2.9456    2.3522    1.7549 H   0  0  0  0  0  0  0  0  0  0  0  0
   -2.0059   -1.1016   -2.9044 H   0  0  0  0  0  0  0  0  0  0  0  0
  1  2  1  0
  1  7  1  0
  1 10  1  0
  1 13  1  1
  2  3  1  0
  2 12  1  0
  2 14  1  6
  3  4  1  0
  3  8  1  0
  3 15  1  1
  4  5  1  0
  4  9  1  0
  4 16  1  6
  5  6  1  0
  5 10  1  0
  5 17  1  1
  6 11  1  0
  6 18  1  0
  6 19  1  0
  8 20  1  0
  9 21  1  0
 11 22  1  0
  7 23  1  0
M  END
