
     RDKit          3D

 26 26  0  0  0  0  0  0  0  0999 V2000
    0.3600    0.0741   -3.0414 C   0  0  0  0  0  0  0  0  0  0  0  0
   -0.4435    0.1187   -3.9379 O   0  0  0  0  0  0  0  0  0  0  0  0
    0.0649    0.4371   -1.6010 C   0  0  1  0  0  0  0  0  0  0  0  0
   -1.1044    1.2824   -1.5537 N   0  0  0  0  0  0  0  0  0  0  0  0
   -0.0220   -0.8649   -0.7646 C   0  0  0  0  0  0  0  0  0  0  0  0
   -0.2350   -0.5618    0.6908 C   0  0  0  0  0  0  0  0  0  0  0  0
   -1.5068   -0.5869    1.2566 C   0  0  0  0  0  0  0  0  0  0  0  0
    0.8460   -0.1992    1.4916 C   0  0  0  0  0  0  0  0  0  0  0  0
   -1.6836   -0.2607    2.5945 C   0  0  0  0  0  0  0  0  0  0  0  0
    0.6876    0.1311    2.8346 C   0  0  0  0  0  0  0  0  0  0  0  0
   -0.5958    0.0976    3.3773 C   0  0  0  0  0  0  0  0  0  0  0  0
    1.8750    0.4855    3.6823 C   0  0  0  0  0  0  0  0  0  0  0  0
    1.6117   -0.3387   -3.1994 O   0  0  0  0  0  0  0  0  0  0  0  0
    0.9140    1.0149   -1.2242 H   0  0  0  0  0  0  0  0  0  0  0  0
   -1.9257    0.7704   -1.8520 H   0  0  0  0  0  0  0  0  0  0  0  0
   -1.2754    1.5693   -0.5985 H   0  0  0  0  0  0  0  0  0  0  0  0
    0.8954   -1.4447   -0.8865 H   0  0  0  0  0  0  0  0  0  0  0  0
   -0.8423   -1.4779   -1.1479 H   0  0  0  0  0  0  0  0  0  0  0  0
   -2.3614   -0.8678    0.6528 H   0  0  0  0  0  0  0  0  0  0  0  0
    1.8409   -0.1781    1.0568 H   0  0  0  0  0  0  0  0  0  0  0  0
   -2.6755   -0.2840    3.0279 H   0  0  0  0  0  0  0  0  0  0  0  0
   -0.7437    0.3522    4.4202 H   0  0  0  0  0  0  0  0  0  0  0  0
    2.3626   -0.4129    4.0664 H   0  0  0  0  0  0  0  0  0  0  0  0
    2.6221    1.0401    3.1150 H   0  0  0  0  0  0  0  0  0  0  0  0
    1.5860    1.0896    4.5419 H   0  0  0  0  0  0  0  0  0  0  0  0
    1.7617   -0.6058   -4.1187 H   0  0  0  0  0  0  0  0  0  0  0  0
  1  2  2  0
  1  3  1  0
  1 13  1  0
  3  4  1  0
  3  5  1  0
  3 14  1  1
  4 15  1  0
  4 16  1  0
  5  6  1  0
  5 17  1  0
  5 18  1  0
  6  7  2  0
  6  8  1  0
  7  9  1  0
  7 19  1  0
  8 10  2  0
  8 20  1  0
  9 11  2  0
  9 21  1  0
 10 11  1  0
 10 12  1  0
 11 22  1  0
 12 23  1  0
 12 24  1  0
 12 25  1  0
 13 26  1  0
M  END
