
     RDKit          3D

 45 47  0  0  0  0  0  0  0  0999 V2000
   -4.5653   -0.1527    1.0948 C   0  0  0  0  0  0  0  0  0  0  0  0
   -5.6114   -0.9096    1.6027 C   0  0  0  0  0  0  0  0  0  0  0  0
   -6.5289   -1.5024    0.7443 C   0  0  0  0  0  0  0  0  0  0  0  0
   -6.3923   -1.3373   -0.6267 C   0  0  0  0  0  0  0  0  0  0  0  0
   -5.3419   -0.5841   -1.1348 C   0  0  0  0  0  0  0  0  0  0  0  0
   -4.4226    0.0163   -0.2796 C   0  0  0  0  0  0  0  0  0  0  0  0
   -3.3187    0.8647   -0.8625 C   0  0  0  0  0  0  0  0  0  0  0  0
   -2.0565    0.7660   -0.1367 N   0  0  0  0  0  0  0  0  0  0  0  0
   -1.2736   -0.3568   -0.2556 C   0  0  0  0  0  0  0  0  0  0  0  0
   -1.7381   -1.3669   -0.9886 N   0  0  0  0  0  0  0  0  0  0  0  0
   -1.6695    1.8484    0.6426 C   0  0  0  0  0  0  0  0  0  0  0  0
   -2.3701    2.8300    0.7768 O   0  0  0  0  0  0  0  0  0  0  0  0
   -0.4578    1.7299    1.2458 N   0  0  0  0  0  0  0  0  0  0  0  0
    0.4248    0.6554    1.1759 C   0  0  0  0  0  0  0  0  0  0  0  0
    1.4651    0.6854    1.8129 O   0  0  0  0  0  0  0  0  0  0  0  0
   -0.0266   -0.4112    0.3471 C   0  0  0  0  0  0  0  0  0  0  0  0
    0.7230   -1.6011    0.2295 N   0  0  0  0  0  0  0  0  0  0  0  0
    1.0003   -2.3773    1.4392 C   0  0  0  0  0  0  0  0  0  0  0  0
    1.8575   -1.6370   -0.9914 S   0  0  1  0  0  0  0  0  0  0  0  0
    2.3938   -2.9884   -1.0163 O   0  0  0  0  0  0  0  0  0  0  0  0
    1.2143   -1.0908   -2.1736 O   0  0  0  0  0  0  0  0  0  0  0  0
    3.1552   -0.5338   -0.5266 C   0  0  0  0  0  0  0  0  0  0  0  0
    4.1788   -0.9933    0.2920 C   0  0  0  0  0  0  0  0  0  0  0  0
    5.1655   -0.1155    0.7072 C   0  0  0  0  0  0  0  0  0  0  0  0
    5.1005    1.2001    0.2864 C   0  0  0  0  0  0  0  0  0  0  0  0
    4.0959    1.6685   -0.5398 C   0  0  0  0  0  0  0  0  0  0  0  0
    3.1106    0.7879   -0.9502 C   0  0  0  0  0  0  0  0  0  0  0  0
    6.0501    2.0510    0.6880 F   0  0  0  0  0  0  0  0  0  0  0  0
   -5.2362   -0.4644   -2.2070 H   0  0  0  0  0  0  0  0  0  0  0  0
   -7.0986   -1.7998   -1.3037 H   0  0  0  0  0  0  0  0  0  0  0  0
   -7.3440   -2.0915    1.1436 H   0  0  0  0  0  0  0  0  0  0  0  0
   -5.7108   -1.0358    2.6730 H   0  0  0  0  0  0  0  0  0  0  0  0
   -3.8599    0.3000    1.7806 H   0  0  0  0  0  0  0  0  0  0  0  0
   -3.1437    0.6056   -1.9082 H   0  0  0  0  0  0  0  0  0  0  0  0
   -3.6122    1.9115   -0.8539 H   0  0  0  0  0  0  0  0  0  0  0  0
   -2.7103   -1.4647   -1.2255 H   0  0  0  0  0  0  0  0  0  0  0  0
   -1.1902   -2.2112   -1.0176 H   0  0  0  0  0  0  0  0  0  0  0  0
   -0.1830    2.5077    1.8322 H   0  0  0  0  0  0  0  0  0  0  0  0
    1.1833   -3.4184    1.1899 H   0  0  0  0  0  0  0  0  0  0  0  0
    1.8422   -1.9856    2.0107 H   0  0  0  0  0  0  0  0  0  0  0  0
    0.1103   -2.3295    2.0615 H   0  0  0  0  0  0  0  0  0  0  0  0
    4.2234   -2.0269    0.6063 H   0  0  0  0  0  0  0  0  0  0  0  0
    2.3183    1.1407   -1.5952 H   0  0  0  0  0  0  0  0  0  0  0  0
    5.9746   -0.4516    1.3415 H   0  0  0  0  0  0  0  0  0  0  0  0
    4.0823    2.7020   -0.8588 H   0  0  0  0  0  0  0  0  0  0  0  0
  5  4  1  0
  5  6  2  0
  4  3  2  0
  3  2  1  0
  2  1  2  0
  1  6  1  0
  6  7  1  0
  7  8  1  0
  8  9  1  0
  8 11  1  0
  9 10  1  0
  9 16  2  0
 11 12  2  0
 11 13  1  0
 13 14  1  0
 14 15  2  0
 14 16  1  0
 16 17  1  0
 17 18  1  0
 19 17  1  1
 19 21  2  0
 19 20  2  0
 19 22  1  0
 22 23  2  0
 22 27  1  0
 23 24  1  0
 24 25  2  0
 25 26  1  0
 25 28  1  0
 26 27  2  0
  5 29  1  0
  4 30  1  0
  3 31  1  0
  2 32  1  0
  1 33  1  0
  7 34  1  0
  7 35  1  0
 10 36  1  0
 10 37  1  0
 13 38  1  0
 18 39  1  0
 18 40  1  0
 18 41  1  0
 23 42  1  0
 27 43  1  0
 24 44  1  0
 26 45  1  0
M  END
