
     RDKit          3D

 46 49  0  0  0  0  0  0  0  0999 V2000
   -0.5380   -0.4234   -0.0025 N   0  0  0  0  0  0  0  0  0  0  0  0
   -1.7178   -1.0629   -0.0130 C   0  0  0  0  0  0  0  0  0  0  0  0
   -2.9041   -0.5135   -0.0275 N   0  0  0  0  0  0  0  0  0  0  0  0
   -2.9555    0.8454   -0.0342 C   0  0  0  0  0  0  0  0  0  0  0  0
   -1.7797    1.6268   -0.0237 C   0  0  0  0  0  0  0  0  0  0  0  0
   -0.5458    0.8985   -0.0075 C   0  0  0  0  0  0  0  0  0  0  0  0
    6.8191   -0.2262   -0.0041 C   0  0  0  0  0  0  0  0  0  0  0  0
   -1.5303   -5.3378   -0.0095 C   0  0  0  0  0  0  0  0  0  0  0  0
    6.2126    0.1285   -1.2022 C   0  0  0  0  0  0  0  0  0  0  0  0
    6.2074    0.1063    1.1977 C   0  0  0  0  0  0  0  0  0  0  0  0
   -0.3613   -4.5884   -0.0022 C   0  0  0  0  0  0  0  0  0  0  0  0
   -2.7607   -4.6912   -0.0171 C   0  0  0  0  0  0  0  0  0  0  0  0
    5.0021    0.8087   -1.1958 C   0  0  0  0  0  0  0  0  0  0  0  0
    4.9971    0.7868    1.1989 C   0  0  0  0  0  0  0  0  0  0  0  0
   -0.4208   -3.2023   -0.0026 C   0  0  0  0  0  0  0  0  0  0  0  0
   -2.8213   -3.3066   -0.0175 C   0  0  0  0  0  0  0  0  0  0  0  0
   -3.1270    3.6311   -0.0523 C   0  0  0  0  0  0  0  0  0  0  0  0
   -1.9004    3.0282   -0.0299 C   0  0  0  0  0  0  0  0  0  0  0  0
   -4.2088    1.4731   -0.0522 C   0  0  0  0  0  0  0  0  0  0  0  0
    1.9062    0.8340    0.0035 C   0  0  0  0  0  0  0  0  0  0  0  0
    3.0483    1.8451    0.0069 C   0  0  0  0  0  0  0  0  0  0  0  0
    0.6353    1.5259    0.0019 N   0  0  0  0  0  0  0  0  0  0  0  0
   -4.3160    2.8559   -0.0677 C   0  0  0  0  0  0  0  0  0  0  0  0
    4.3796    1.1475    0.0034 C   0  0  0  0  0  0  0  0  0  0  0  0
   -1.6514   -2.5452   -0.0105 C   0  0  0  0  0  0  0  0  0  0  0  0
   -5.5701    4.4480    0.1306 H   0  0  0  0  0  0  0  0  0  0  0  0
   -6.3431    2.9506    0.1090 H   0  0  0  0  0  0  0  0  0  0  0  0
   -1.4840   -6.4191   -0.0098 H   0  0  0  0  0  0  0  0  0  0  0  0
    6.6842   -0.1201   -2.1444 H   0  0  0  0  0  0  0  0  0  0  0  0
    6.6746   -0.1601    2.1372 H   0  0  0  0  0  0  0  0  0  0  0  0
    0.6009   -5.0843    0.0040 H   0  0  0  0  0  0  0  0  0  0  0  0
   -3.6757   -5.2695   -0.0231 H   0  0  0  0  0  0  0  0  0  0  0  0
    4.5377    1.0833   -2.1358 H   0  0  0  0  0  0  0  0  0  0  0  0
    4.5287    1.0441    2.1418 H   0  0  0  0  0  0  0  0  0  0  0  0
    0.4902   -2.6194    0.0024 H   0  0  0  0  0  0  0  0  0  0  0  0
   -3.7801   -2.8058   -0.0239 H   0  0  0  0  0  0  0  0  0  0  0  0
   -3.1975    4.7118   -0.0588 H   0  0  0  0  0  0  0  0  0  0  0  0
   -1.0252    3.6658   -0.0158 H   0  0  0  0  0  0  0  0  0  0  0  0
   -5.0962    0.8513   -0.0574 H   0  0  0  0  0  0  0  0  0  0  0  0
    1.9847    0.1866   -0.8742 H   0  0  0  0  0  0  0  0  0  0  0  0
    1.9813    0.1847    0.8799 H   0  0  0  0  0  0  0  0  0  0  0  0
    2.9630    2.4925   -0.8700 H   0  0  0  0  0  0  0  0  0  0  0  0
    2.9633    2.4861    0.8886 H   0  0  0  0  0  0  0  0  0  0  0  0
    0.6548    2.5311   -0.0105 H   0  0  0  0  0  0  0  0  0  0  0  0
   -5.5257    3.4808   -0.1429 N   0  0  0  0  0  0  0  0  0  0  0  0
    7.7633   -0.7556   -0.0068 H   0  0  0  0  0  0  0  0  0  0  0  0
  6  1  2  0
  1  2  1  0
  2  3  2  0
  2 25  1  0
  4  3  1  0
  5  4  2  0
  4 19  1  0
 18  5  1  0
  6  5  1  0
 22  6  1  0
 23 45  1  0
 45 26  1  0
 45 27  1  0
  9  7  2  0
  7 10  1  0
  7 46  1  0
 12  8  2  0
  8 11  1  0
  8 28  1  0
 13  9  1  0
  9 29  1  0
 14 10  2  0
 10 30  1  0
 15 11  2  0
 11 31  1  0
 16 12  1  0
 12 32  1  0
 13 24  2  0
 13 33  1  0
 24 14  1  0
 14 34  1  0
 25 15  1  0
 15 35  1  0
 16 25  2  0
 16 36  1  0
 18 17  2  0
 17 23  1  0
 17 37  1  0
 18 38  1  0
 23 19  2  0
 19 39  1  0
 21 20  1  0
 20 22  1  0
 20 40  1  0
 20 41  1  0
 21 24  1  0
 21 42  1  0
 21 43  1  0
 22 44  1  0
M  END
