
     RDKit          3D

 55 59  0  0  0  0  0  0  0  0999 V2000
   -5.2454    0.0300   -0.5844 C   0  0  0  0  0  0  0  0  0  0  0  0
   -3.9146    0.4362   -0.5411 C   0  0  0  0  0  0  0  0  0  0  0  0
   -3.5598    1.7132   -0.9678 C   0  0  0  0  0  0  0  0  0  0  0  0
   -4.5369    2.5982   -1.4365 C   0  0  0  0  0  0  0  0  0  0  0  0
   -5.8700    2.1857   -1.4729 C   0  0  0  0  0  0  0  0  0  0  0  0
   -6.2324    0.9047   -1.0523 C   0  0  0  0  0  0  0  0  0  0  0  0
   -7.5603    0.5254   -1.0386 N   0  0  0  0  0  0  0  0  0  0  0  0
   -4.1750    3.8390   -1.9194 N   0  0  0  0  0  0  0  0  0  0  0  0
   -2.8686   -0.4873   -0.0522 C   0  0  0  0  0  0  0  0  0  0  0  0
   -2.9007   -1.8527   -0.4053 C   0  0  0  0  0  0  0  0  0  0  0  0
   -1.9212   -2.7307    0.0087 C   0  0  0  0  0  0  0  0  0  0  0  0
   -0.8698   -2.2578    0.7984 C   0  0  0  0  0  0  0  0  0  0  0  0
   -0.8435   -0.8922    1.1520 C   0  0  0  0  0  0  0  0  0  0  0  0
   -1.8391   -0.0076    0.7457 C   0  0  0  0  0  0  0  0  0  0  0  0
    0.2847   -2.8666    1.3819 C   0  0  0  0  0  0  0  0  0  0  0  0
    0.9430   -1.8721    2.0424 C   0  0  0  0  0  0  0  0  0  0  0  0
    0.2732   -0.6832    1.9163 N   0  0  0  0  0  0  0  0  0  0  0  0
    0.6651   -4.3023    1.3223 C   0  0  0  0  0  0  0  0  0  0  0  0
    1.0888   -4.7604   -0.0521 C   0  0  0  0  0  0  0  0  0  0  0  0
    1.1849   -4.0564   -1.0234 O   0  0  0  0  0  0  0  0  0  0  0  0
    1.3543   -6.0632   -0.0631 O   0  0  0  0  0  0  0  0  0  0  0  0
    0.7450    0.5768    2.4571 C   0  0  0  0  0  0  0  0  0  0  0  0
    2.0258    1.0224    1.8176 C   0  0  0  0  0  0  0  0  0  0  0  0
    2.0851    1.5684    0.4845 C   0  0  0  0  0  0  0  0  0  0  0  0
    3.3960    1.8859    0.0967 C   0  0  0  0  0  0  0  0  0  0  0  0
    4.5222    1.5127    1.3561 S   0  0  0  0  0  0  0  0  0  0  0  0
    3.2512    0.9367    2.3971 C   0  0  0  0  0  0  0  0  0  0  0  0
    3.6305    0.4307    3.7462 C   0  0  0  0  0  0  0  0  0  0  0  0
    3.6795    2.4350   -1.1486 C   0  0  0  0  0  0  0  0  0  0  0  0
    2.6370    2.6771   -2.0222 C   0  0  0  0  0  0  0  0  0  0  0  0
    1.3309    2.3669   -1.6375 C   0  0  0  0  0  0  0  0  0  0  0  0
    1.0391    1.8163   -0.4083 C   0  0  0  0  0  0  0  0  0  0  0  0
    0.0326    2.6898   -2.7424 Cl  0  0  0  0  0  0  0  0  0  0  0  0
   -5.5287   -0.9533   -0.2282 H   0  0  0  0  0  0  0  0  0  0  0  0
   -2.5184    2.0128   -0.9832 H   0  0  0  0  0  0  0  0  0  0  0  0
   -6.6333    2.8671   -1.8347 H   0  0  0  0  0  0  0  0  0  0  0  0
   -7.7224   -0.4685   -1.0761 H   0  0  0  0  0  0  0  0  0  0  0  0
   -8.1575    1.0178   -1.6836 H   0  0  0  0  0  0  0  0  0  0  0  0
   -3.3118    4.2116   -1.5578 H   0  0  0  0  0  0  0  0  0  0  0  0
   -4.9033    4.5347   -1.9292 H   0  0  0  0  0  0  0  0  0  0  0  0
   -3.7011   -2.2133   -1.0385 H   0  0  0  0  0  0  0  0  0  0  0  0
   -1.9682   -3.7718   -0.2862 H   0  0  0  0  0  0  0  0  0  0  0  0
   -1.8364    1.0290    1.0605 H   0  0  0  0  0  0  0  0  0  0  0  0
    1.8580   -1.9250    2.6134 H   0  0  0  0  0  0  0  0  0  0  0  0
    1.4863   -4.5110    2.0141 H   0  0  0  0  0  0  0  0  0  0  0  0
   -0.1603   -4.9424    1.6519 H   0  0  0  0  0  0  0  0  0  0  0  0
    1.6293   -6.3388   -0.9503 H   0  0  0  0  0  0  0  0  0  0  0  0
   -0.0334    1.3258    2.3092 H   0  0  0  0  0  0  0  0  0  0  0  0
    0.8632    0.4795    3.5362 H   0  0  0  0  0  0  0  0  0  0  0  0
    4.1078    1.2121    4.3388 H   0  0  0  0  0  0  0  0  0  0  0  0
    2.7638    0.0778    4.3013 H   0  0  0  0  0  0  0  0  0  0  0  0
    4.3361   -0.3974    3.6697 H   0  0  0  0  0  0  0  0  0  0  0  0
    4.6944    2.6733   -1.4374 H   0  0  0  0  0  0  0  0  0  0  0  0
    2.8338    3.1064   -2.9948 H   0  0  0  0  0  0  0  0  0  0  0  0
    0.0152    1.5863   -0.1485 H   0  0  0  0  0  0  0  0  0  0  0  0
  1  6  2  0
  1  2  1  0
  1 34  1  0
  9  2  1  0
  2  3  2  0
  3  4  1  0
  3 35  1  0
  5  4  2  0
  4  8  1  0
  6  5  1  0
  5 36  1  0
  7  6  1  0
  7 37  1  0
  7 38  1  0
  8 39  1  0
  8 40  1  0
 14  9  1  0
  9 10  2  0
 11 10  1  0
 10 41  1  0
 12 11  2  0
 11 42  1  0
 13 12  1  0
 15 12  1  0
 17 13  1  0
 13 14  2  0
 14 43  1  0
 16 15  2  0
 15 18  1  0
 17 16  1  0
 16 44  1  0
 22 17  1  0
 18 19  1  0
 18 45  1  0
 18 46  1  0
 20 19  2  0
 19 21  1  0
 21 47  1  0
 23 22  1  0
 22 48  1  0
 22 49  1  0
 24 23  1  0
 27 23  2  0
 25 24  2  0
 32 24  1  0
 29 25  1  0
 25 26  1  0
 26 27  1  0
 27 28  1  0
 28 50  1  0
 28 51  1  0
 28 52  1  0
 30 29  2  0
 29 53  1  0
 30 31  1  0
 30 54  1  0
 33 31  1  0
 31 32  2  0
 32 55  1  0
M  END
