
     RDKit          3D

 44 45  0  0  0  0  0  0  0  0999 V2000
    3.1605    0.2739   -0.2686 C   0  0  1  0  0  0  0  0  0  0  0  0
   -7.0049   -0.1139    1.9006 F   0  0  0  0  0  0  0  0  0  0  0  0
    1.7473    0.2592   -0.0881 N   0  0  0  0  0  0  0  0  0  0  0  0
    3.7560    1.5613    0.3076 C   0  0  2  0  0  0  0  0  0  0  0  0
   -7.6929    0.1588   -0.1170 F   0  0  0  0  0  0  0  0  0  0  0  0
   -0.4256   -0.2510   -0.5760 N   0  0  0  0  0  0  0  0  0  0  0  0
    3.3033    2.6936   -0.3883 O   0  0  0  0  0  0  0  0  0  0  0  0
    5.2711    1.5099    0.1695 C   0  0  1  0  0  0  0  0  0  0  0  0
   -6.9190    1.8338    0.9897 F   0  0  0  0  0  0  0  0  0  0  0  0
    5.8979    2.5914    0.8160 O   0  0  0  0  0  0  0  0  0  0  0  0
    5.8261    0.2284    0.7799 C   0  0  2  0  0  0  0  0  0  0  0  0
    7.2007    0.0937    0.5203 O   0  0  0  0  0  0  0  0  0  0  0  0
    5.1043   -0.9803    0.1826 C   0  0  2  0  0  0  0  0  0  0  0  0
    3.7121   -0.8463    0.3809 O   0  0  0  0  0  0  0  0  0  0  0  0
    5.5439   -2.2761    0.8301 C   0  0  0  0  0  0  0  0  0  0  0  0
    4.9030   -3.3480    0.1815 O   0  0  0  0  0  0  0  0  0  0  0  0
    0.9056   -0.3176   -0.9877 C   0  0  0  0  0  0  0  0  0  0  0  0
    1.2580   -0.7980   -2.0399 O   0  0  0  0  0  0  0  0  0  0  0  0
   -1.4944   -0.8428   -1.2038 C   0  0  0  0  0  0  0  0  0  0  0  0
   -1.3996   -1.6326   -2.1135 O   0  0  0  0  0  0  0  0  0  0  0  0
   -2.8292   -0.4482   -0.6564 C   0  0  0  0  0  0  0  0  0  0  0  0
   -3.8722   -1.3657   -0.7612 C   0  0  0  0  0  0  0  0  0  0  0  0
   -5.1348   -1.0433   -0.3019 C   0  0  0  0  0  0  0  0  0  0  0  0
   -5.3735    0.2131    0.2474 C   0  0  0  0  0  0  0  0  0  0  0  0
   -4.3449    1.1381    0.3419 C   0  0  0  0  0  0  0  0  0  0  0  0
   -3.0752    0.8050   -0.1065 C   0  0  0  0  0  0  0  0  0  0  0  0
   -6.7472    0.5312    0.7541 C   0  0  1  0  0  0  0  0  0  0  0  0
    3.3723    0.2358   -1.3443 H   0  0  0  0  0  0  0  0  0  0  0  0
    1.4000    0.4954    0.8306 H   0  0  0  0  0  0  0  0  0  0  0  0
    3.5009    1.6167    1.3778 H   0  0  0  0  0  0  0  0  0  0  0  0
   -0.6225    0.2566    0.2733 H   0  0  0  0  0  0  0  0  0  0  0  0
    2.3817    2.8526   -0.1617 H   0  0  0  0  0  0  0  0  0  0  0  0
    5.5150    1.5048   -0.9052 H   0  0  0  0  0  0  0  0  0  0  0  0
    5.7205    3.3935    0.3153 H   0  0  0  0  0  0  0  0  0  0  0  0
    5.6283    0.2460    1.8640 H   0  0  0  0  0  0  0  0  0  0  0  0
    7.6486    0.8705    0.8715 H   0  0  0  0  0  0  0  0  0  0  0  0
    5.3281   -1.0269   -0.8961 H   0  0  0  0  0  0  0  0  0  0  0  0
    6.6334   -2.3476    0.7511 H   0  0  0  0  0  0  0  0  0  0  0  0
    5.2998   -2.2401    1.9012 H   0  0  0  0  0  0  0  0  0  0  0  0
    5.2568   -4.1661    0.5411 H   0  0  0  0  0  0  0  0  0  0  0  0
   -3.6967   -2.3403   -1.1954 H   0  0  0  0  0  0  0  0  0  0  0  0
   -5.9265   -1.7764   -0.3827 H   0  0  0  0  0  0  0  0  0  0  0  0
   -4.5120    2.1239    0.7527 H   0  0  0  0  0  0  0  0  0  0  0  0
   -2.2973    1.5551   -0.0453 H   0  0  0  0  0  0  0  0  0  0  0  0
  1  3  1  0
  1  4  1  0
  1 14  1  0
 27  2  1  1
  3 17  1  0
  4  7  1  0
  4  8  1  0
  5 27  1  0
  6 17  1  0
  6 19  1  0
  8 10  1  0
  8 11  1  0
  9 27  1  0
 11 12  1  0
 11 13  1  0
 13 14  1  0
 13 15  1  0
 15 16  1  0
 17 18  2  0
 19 20  2  0
 19 21  1  0
 21 22  2  0
 21 26  1  0
 22 23  1  0
 23 24  2  0
 24 25  1  0
 24 27  1  0
 25 26  2  0
  1 28  1  6
  3 29  1  0
  4 30  1  1
  6 31  1  0
  7 32  1  0
  8 33  1  6
 10 34  1  0
 11 35  1  1
 12 36  1  0
 13 37  1  6
 15 38  1  0
 15 39  1  0
 16 40  1  0
 22 41  1  0
 23 42  1  0
 25 43  1  0
 26 44  1  0
M  END
