
     RDKit          3D

 23 22  0  0  0  0  0  0  0  0999 V2000
    5.0949   -0.3629    0.0114 C   0  0  0  0  0  0  0  0  0  0  0  0
    3.8215    0.4713    0.0044 C   0  0  0  0  0  0  0  0  0  0  0  0
    2.5609   -0.3850    0.0198 C   0  0  0  0  0  0  0  0  0  0  0  0
    1.2813    0.4424    0.0206 C   0  0  0  0  0  0  0  0  0  0  0  0
    0.0431   -0.4419    0.0336 C   0  0  0  0  0  0  0  0  0  0  0  0
   -1.2575    0.3187    0.0353 C   0  0  0  0  0  0  0  0  0  0  0  0
   -1.3542    1.5158    0.1153 O   0  0  0  0  0  0  0  0  0  0  0  0
   -2.6757   -0.7399   -0.0869 S   0  0  0  0  0  0  0  0  0  0  0  0
   -4.0193    0.4629   -0.0328 C   0  0  0  0  0  0  0  0  0  0  0  0
    5.1449   -0.9952    0.9000 H   0  0  0  0  0  0  0  0  0  0  0  0
    5.1407   -1.0176   -0.8611 H   0  0  0  0  0  0  0  0  0  0  0  0
    5.9876    0.2634    0.0011 H   0  0  0  0  0  0  0  0  0  0  0  0
    3.8147    1.1404    0.8703 H   0  0  0  0  0  0  0  0  0  0  0  0
    3.8091    1.1172   -0.8790 H   0  0  0  0  0  0  0  0  0  0  0  0
    2.5660   -1.0515   -0.8498 H   0  0  0  0  0  0  0  0  0  0  0  0
    2.5764   -1.0360    0.9011 H   0  0  0  0  0  0  0  0  0  0  0  0
    1.2758    1.1029    0.8917 H   0  0  0  0  0  0  0  0  0  0  0  0
    1.2656    1.0896   -0.8607 H   0  0  0  0  0  0  0  0  0  0  0  0
    0.0442   -1.1178   -0.8278 H   0  0  0  0  0  0  0  0  0  0  0  0
    0.0467   -1.0936    0.9141 H   0  0  0  0  0  0  0  0  0  0  0  0
   -4.9439   -0.1068   -0.0923 H   0  0  0  0  0  0  0  0  0  0  0  0
   -4.0069    1.0217    0.8995 H   0  0  0  0  0  0  0  0  0  0  0  0
   -3.9671    1.1448   -0.8775 H   0  0  0  0  0  0  0  0  0  0  0  0
  1  2  1  0
  2  3  1  0
  3  4  1  0
  4  5  1  0
  5  6  1  0
  6  7  2  0
  6  8  1  0
  8  9  1  0
  1 10  1  0
  1 11  1  0
  1 12  1  0
  2 13  1  0
  2 14  1  0
  3 15  1  0
  3 16  1  0
  4 17  1  0
  4 18  1  0
  5 19  1  0
  5 20  1  0
  9 21  1  0
  9 22  1  0
  9 23  1  0
M  END
