
     RDKit          3D

 27 29  0  0  0  0  0  0  0  0999 V2000
    0.4792    1.5902   -0.0210 C   0  0  0  0  0  0  0  0  0  0  0  0
   -0.9436    1.8295   -0.0183 C   0  0  0  0  0  0  0  0  0  0  0  0
   -1.4421    2.9474   -0.0308 O   0  0  0  0  0  0  0  0  0  0  0  0
   -1.7598    0.6072   -0.0005 C   0  0  0  0  0  0  0  0  0  0  0  0
   -3.1560    0.6613    0.0039 C   0  0  0  0  0  0  0  0  0  0  0  0
   -3.8629   -0.5129    0.0215 C   0  0  0  0  0  0  0  0  0  0  0  0
   -5.2020   -0.4740    0.0276 F   0  0  0  0  0  0  0  0  0  0  0  0
   -3.2367   -1.7557    0.0338 C   0  0  0  0  0  0  0  0  0  0  0  0
   -1.8603   -1.8174    0.0279 C   0  0  0  0  0  0  0  0  0  0  0  0
   -1.1303   -0.6318    0.0111 C   0  0  0  0  0  0  0  0  0  0  0  0
    0.2155   -0.7434    0.0065 O   0  0  0  0  0  0  0  0  0  0  0  0
    0.9989    0.3405   -0.0088 C   0  0  0  0  0  0  0  0  0  0  0  0
    2.4286   -0.0003   -0.0120 C   0  0  0  0  0  0  0  0  0  0  0  0
    2.8431   -1.3350   -0.0286 C   0  0  0  0  0  0  0  0  0  0  0  0
    4.1931   -1.6509   -0.0328 C   0  0  0  0  0  0  0  0  0  0  0  0
    5.1488   -0.6454   -0.0203 C   0  0  0  0  0  0  0  0  0  0  0  0
    4.7456    0.6841   -0.0029 C   0  0  0  0  0  0  0  0  0  0  0  0
    3.3994    1.0049    0.0015 C   0  0  0  0  0  0  0  0  0  0  0  0
    1.1350    2.4482   -0.0351 H   0  0  0  0  0  0  0  0  0  0  0  0
   -3.6627    1.6175   -0.0057 H   0  0  0  0  0  0  0  0  0  0  0  0
   -3.8263   -2.6625    0.0488 H   0  0  0  0  0  0  0  0  0  0  0  0
   -1.3506   -2.7717    0.0372 H   0  0  0  0  0  0  0  0  0  0  0  0
    2.1222   -2.1396   -0.0397 H   0  0  0  0  0  0  0  0  0  0  0  0
    4.4951   -2.6897   -0.0467 H   0  0  0  0  0  0  0  0  0  0  0  0
    6.2020   -0.8933   -0.0239 H   0  0  0  0  0  0  0  0  0  0  0  0
    5.4820    1.4760    0.0085 H   0  0  0  0  0  0  0  0  0  0  0  0
    3.1169    2.0483    0.0173 H   0  0  0  0  0  0  0  0  0  0  0  0
 16 15  1  0
 16 17  2  0
 15 14  2  0
 17 18  1  0
 14 13  1  0
 18 13  2  0
 13 12  1  0
 12 11  1  0
 12  1  2  0
 11 10  1  0
  1  2  1  0
 10  9  1  0
 10  4  2  0
  9  8  2  0
  2  4  1  0
  2  3  2  0
  4  5  1  0
  8  6  1  0
  5  6  2  0
  6  7  1  0
  1 19  1  0
  5 20  1  0
  8 21  1  0
  9 22  1  0
 14 23  1  0
 15 24  1  0
 16 25  1  0
 17 26  1  0
 18 27  1  0
M  END
