
     RDKit          3D

 52 53  0  0  0  0  0  0  0  0999 V2000
   -4.1508    3.4063    0.3703 C   0  0  0  0  0  0  0  0  0  0  0  0
   -2.0782   -0.3868   -0.5187 N   0  0  0  0  0  0  0  0  0  0  0  0
   -0.9578   -0.8620    0.0500 C   0  0  0  0  0  0  0  0  0  0  0  0
    0.3313   -0.3172   -0.5462 C   0  0  0  0  0  0  0  0  0  0  0  0
    2.7127   -0.2580   -0.1539 C   0  0  0  0  0  0  0  0  0  0  0  0
    5.6669   -1.8080   -0.0172 C   0  0  0  0  0  0  0  0  0  0  0  0
    6.8815   -1.9867   -0.6665 C   0  0  0  0  0  0  0  0  0  0  0  0
    7.6083   -0.8863   -1.1024 C   0  0  0  0  0  0  0  0  0  0  0  0
    5.8979    0.5654   -0.2319 C   0  0  0  0  0  0  0  0  0  0  0  0
    1.2177    2.1986    1.0775 C   0  0  0  0  0  0  0  0  0  0  0  0
   -3.5736   -2.3014   -0.4188 C   0  0  0  0  0  0  0  0  0  0  0  0
   -4.4998   -2.8324    0.3595 O   0  0  0  0  0  0  0  0  0  0  0  0
   -4.8558   -4.1974    0.1269 C   0  0  0  0  0  0  0  0  0  0  0  0
   -3.3766   -0.8264   -0.0983 C   0  0  2  0  0  0  0  0  0  0  0  0
   -4.4697   -0.0070   -0.8102 C   0  0  0  0  0  0  0  0  0  0  0  0
   -4.2902    1.4566   -0.6275 C   0  0  0  0  0  0  0  0  0  0  0  0
   -3.9274    2.4382   -1.5090 C   0  0  0  0  0  0  0  0  0  0  0  0
   -3.8461    3.6478   -0.8780 N   0  0  0  0  0  0  0  0  0  0  0  0
   -4.4249    2.1014    0.5705 N   0  0  0  0  0  0  0  0  0  0  0  0
   -0.9840   -1.6809    0.9543 O   0  0  0  0  0  0  0  0  0  0  0  0
    1.3828   -0.2289    0.4329 N   0  0  0  0  0  0  0  0  0  0  0  0
    1.1465    0.7341    1.4716 C   0  0  0  0  0  0  0  0  0  0  0  0
    0.9731    2.9832    2.1216 O   0  0  0  0  0  0  0  0  0  0  0  0
    1.4623    2.6182   -0.0251 O   0  0  0  0  0  0  0  0  0  0  0  0
    3.8308   -0.3344    0.8837 C   0  0  0  0  0  0  0  0  0  0  0  0
    5.1607   -0.5304    0.2108 C   0  0  0  0  0  0  0  0  0  0  0  0
    7.1122    0.3923   -0.8829 C   0  0  0  0  0  0  0  0  0  0  0  0
   -4.1942    4.1318    1.1678 H   0  0  0  0  0  0  0  0  0  0  0  0
   -2.0121    0.2945   -1.2589 H   0  0  0  0  0  0  0  0  0  0  0  0
    0.6353   -1.0309   -1.3190 H   0  0  0  0  0  0  0  0  0  0  0  0
    0.1342    0.6249   -1.0761 H   0  0  0  0  0  0  0  0  0  0  0  0
    2.7664   -1.1556   -0.7768 H   0  0  0  0  0  0  0  0  0  0  0  0
    2.9047    0.5915   -0.8229 H   0  0  0  0  0  0  0  0  0  0  0  0
    7.2620   -2.9870   -0.8293 H   0  0  0  0  0  0  0  0  0  0  0  0
    8.5558   -1.0249   -1.6070 H   0  0  0  0  0  0  0  0  0  0  0  0
    5.5203    1.5667   -0.0584 H   0  0  0  0  0  0  0  0  0  0  0  0
   -5.2462   -4.3389   -0.8804 H   0  0  0  0  0  0  0  0  0  0  0  0
   -4.0039   -4.8585    0.2817 H   0  0  0  0  0  0  0  0  0  0  0  0
   -5.6306   -4.4311    0.8507 H   0  0  0  0  0  0  0  0  0  0  0  0
   -3.4822   -0.6927    0.9826 H   0  0  0  0  0  0  0  0  0  0  0  0
   -4.4503   -0.2235   -1.8805 H   0  0  0  0  0  0  0  0  0  0  0  0
   -5.4429   -0.3301   -0.4361 H   0  0  0  0  0  0  0  0  0  0  0  0
   -3.7281    2.3252   -2.5647 H   0  0  0  0  0  0  0  0  0  0  0  0
   -4.6962    1.6867    1.4483 H   0  0  0  0  0  0  0  0  0  0  0  0
    1.8447    0.5789    2.2985 H   0  0  0  0  0  0  0  0  0  0  0  0
    0.1626    0.5575    1.9162 H   0  0  0  0  0  0  0  0  0  0  0  0
    3.8664    0.5805    1.4800 H   0  0  0  0  0  0  0  0  0  0  0  0
    3.6307   -1.1588    1.5727 H   0  0  0  0  0  0  0  0  0  0  0  0
    7.6732    1.2572   -1.2136 H   0  0  0  0  0  0  0  0  0  0  0  0
    1.0210    3.9144    1.8573 H   0  0  0  0  0  0  0  0  0  0  0  0
   -2.9970   -2.8900   -1.2944 O   0  0  0  0  0  0  0  0  0  0  0  0
    5.1092   -2.6733    0.3225 H   0  0  0  0  0  0  0  0  0  0  0  0
  1 18  2  0
  1 28  1  0
  2 29  1  0
  3  2  1  0
  3  4  1  0
  4 30  1  0
  4 31  1  0
  5 32  1  0
  5 33  1  0
  6  7  2  0
  6 52  1  0
  7 34  1  0
  8  7  1  0
  8 35  1  0
  9 27  1  0
  9 26  2  0
  9 36  1  0
 10 22  1  0
 51 11  2  0
 11 12  1  0
 11 14  1  0
 13 12  1  0
 13 37  1  0
 13 38  1  0
 13 39  1  0
 14  2  1  0
 14 40  1  1
 15 16  1  0
 15 14  1  0
 15 41  1  0
 15 42  1  0
 16 17  2  0
 17 18  1  0
 17 43  1  0
 19 16  1  0
 19  1  1  0
 19 44  1  0
 20  3  2  0
 21  4  1  0
 21  5  1  0
 22 21  1  0
 22 45  1  0
 22 46  1  0
 23 10  1  0
 23 50  1  0
 24 10  2  0
 25 26  1  0
 25  5  1  0
 25 47  1  0
 25 48  1  0
 26  6  1  0
 27  8  2  0
 27 49  1  0
M  END
