
     RDKit          3D

 20 21  0  0  0  0  0  0  0  0999 V2000
    2.6103    1.0504    0.0174 C   0  0  0  0  0  0  0  0  0  0  0  0
    3.5107    2.0251    0.0182 N   0  0  0  0  0  0  0  0  0  0  0  0
    2.4716   -2.3915    0.0248 O   0  0  0  0  0  0  0  0  0  0  0  0
    2.1219   -1.2239    0.0228 C   0  0  0  0  0  0  0  0  0  0  0  0
    3.0092   -0.1992    0.0215 N   0  0  0  0  0  0  0  0  0  0  0  0
   -3.4744    1.6173   -0.0009 O   0  0  0  0  0  0  0  0  0  0  0  0
    0.6775   -0.8667    0.0219 C   0  0  0  0  0  0  0  0  0  0  0  0
    1.3017    1.4261    0.0126 N   0  0  0  0  0  0  0  0  0  0  0  0
   -4.1850   -0.5039    0.0117 O   0  0  0  0  0  0  0  0  0  0  0  0
    0.3154    0.4844    0.0149 C   0  0  0  0  0  0  0  0  0  0  0  0
   -0.9432    0.8796    0.0105 N   0  0  0  0  0  0  0  0  0  0  0  0
   -1.8558   -0.0755    0.0146 C   0  0  0  0  0  0  0  0  0  0  0  0
   -0.2483   -1.8086    0.0264 N   0  0  0  0  0  0  0  0  0  0  0  0
   -1.5138   -1.4279    0.0233 C   0  0  0  0  0  0  0  0  0  0  0  0
   -3.2996    0.3131    0.0086 C   0  0  0  0  0  0  0  0  0  0  0  0
    4.4874    1.7862    0.0215 H   0  0  0  0  0  0  0  0  0  0  0  0
    3.2607    2.9990    0.0236 H   0  0  0  0  0  0  0  0  0  0  0  0
   -4.4216    1.8255   -0.0072 H   0  0  0  0  0  0  0  0  0  0  0  0
    1.0369    2.4024    0.0052 H   0  0  0  0  0  0  0  0  0  0  0  0
   -2.2710   -2.1998    0.0273 H   0  0  0  0  0  0  0  0  0  0  0  0
  8  1  1  0
  1  5  2  0
  1  2  1  0
  2 16  1  0
  2 17  1  0
  4  3  2  0
  7  4  1  0
  4  5  1  0
  6 15  1  0
  6 18  1  0
 13  7  2  0
 10  7  1  0
 10  8  1  0
  8 19  1  0
  9 15  2  0
 11 10  2  0
 12 11  1  0
 15 12  1  0
 12 14  2  0
 14 13  1  0
 14 20  1  0
M  END
