
     RDKit          3D

 68 69  0  0  0  0  0  0  0  0999 V2000
   -1.2235    0.1146    0.1528 C   0  0  2  0  0  0  0  0  0  0  0  0
   -1.2893   -1.4121   -0.0304 C   0  0  0  0  0  0  0  0  0  0  0  0
   -2.6726   -1.9426    0.2259 C   0  0  0  0  0  0  0  0  0  0  0  0
   -3.1819   -2.0017    1.5217 C   0  0  0  0  0  0  0  0  0  0  0  0
   -4.4738   -2.4492    1.7557 C   0  0  0  0  0  0  0  0  0  0  0  0
   -5.2789   -2.8468    0.6948 C   0  0  0  0  0  0  0  0  0  0  0  0
    4.7587    3.7764   -0.9455 N   0  0  0  0  0  0  0  0  0  0  0  0
   -4.7795   -2.7969   -0.5987 C   0  0  0  0  0  0  0  0  0  0  0  0
   -3.7568    2.4571   -1.3780 C   0  0  0  0  0  0  0  0  0  0  0  0
   -5.1362    2.4732   -0.7047 C   0  0  1  0  0  0  0  0  0  0  0  0
   -6.1668    3.0673   -1.6585 C   0  0  0  0  0  0  0  0  0  0  0  0
   -5.5606    1.0807   -0.2474 C   0  0  0  0  0  0  0  0  0  0  0  0
   -2.2851    2.6638    0.5058 O   0  0  0  0  0  0  0  0  0  0  0  0
   -2.2086    0.7483   -0.6723 N   0  0  0  0  0  0  0  0  0  0  0  0
   -3.4854   -2.3475   -0.8281 C   0  0  0  0  0  0  0  0  0  0  0  0
    0.1826    0.6153   -0.1914 C   0  0  0  0  0  0  0  0  0  0  0  0
    0.4410    1.1214   -1.2686 O   0  0  0  0  0  0  0  0  0  0  0  0
    1.0884    0.4087    0.7768 N   0  0  0  0  0  0  0  0  0  0  0  0
    2.5132    0.6046    0.5823 C   0  0  1  0  0  0  0  0  0  0  0  0
    2.9489    1.9828    1.0820 C   0  0  0  0  0  0  0  0  0  0  0  0
    4.4232    2.3162    0.8183 C   0  0  1  0  0  0  0  0  0  0  0  0
    4.6812    2.4633   -0.6759 C   0  0  0  0  0  0  0  0  0  0  0  0
    4.7731    1.5575   -1.4902 O   0  0  0  0  0  0  0  0  0  0  0  0
    4.5633    4.6436    0.1961 C   0  0  0  0  0  0  0  0  0  0  0  0
    4.8125    3.6912    1.3685 C   0  0  0  0  0  0  0  0  0  0  0  0
    3.2597   -0.4941    1.2963 C   0  0  0  0  0  0  0  0  0  0  0  0
    3.3182   -1.7881    0.9791 C   0  0  0  0  0  0  0  0  0  0  0  0
    2.6688   -2.4003   -0.1966 C   0  0  0  0  0  0  0  0  0  0  0  0
    2.0617   -1.8104   -1.0582 O   0  0  0  0  0  0  0  0  0  0  0  0
    2.8395   -3.7173   -0.1923 O   0  0  0  0  0  0  0  0  0  0  0  0
    2.2626   -4.4718   -1.2684 C   0  0  0  0  0  0  0  0  0  0  0  0
    2.5888   -5.9273   -1.0367 C   0  0  0  0  0  0  0  0  0  0  0  0
   -1.4405    0.3494    1.1993 H   0  0  0  0  0  0  0  0  0  0  0  0
   -0.9661   -1.6695   -1.0425 H   0  0  0  0  0  0  0  0  0  0  0  0
   -0.5719   -1.8741    0.6496 H   0  0  0  0  0  0  0  0  0  0  0  0
   -2.5630   -1.6969    2.3585 H   0  0  0  0  0  0  0  0  0  0  0  0
   -4.8520   -2.4927    2.7692 H   0  0  0  0  0  0  0  0  0  0  0  0
   -6.2865   -3.1966    0.8787 H   0  0  0  0  0  0  0  0  0  0  0  0
    4.8147    4.1241   -1.8905 H   0  0  0  0  0  0  0  0  0  0  0  0
   -5.3960   -3.1076   -1.4326 H   0  0  0  0  0  0  0  0  0  0  0  0
   -3.7991    1.8272   -2.2718 H   0  0  0  0  0  0  0  0  0  0  0  0
   -3.5004    3.4669   -1.7077 H   0  0  0  0  0  0  0  0  0  0  0  0
   -5.0743    3.1238    0.1737 H   0  0  0  0  0  0  0  0  0  0  0  0
   -6.2838    2.4442   -2.5482 H   0  0  0  0  0  0  0  0  0  0  0  0
   -7.1435    3.1436   -1.1783 H   0  0  0  0  0  0  0  0  0  0  0  0
   -5.8775    4.0668   -1.9877 H   0  0  0  0  0  0  0  0  0  0  0  0
   -6.5698    1.1038    0.1673 H   0  0  0  0  0  0  0  0  0  0  0  0
   -5.5612    0.3747   -1.0813 H   0  0  0  0  0  0  0  0  0  0  0  0
   -4.9034    0.6697    0.5202 H   0  0  0  0  0  0  0  0  0  0  0  0
   -2.5347    0.2608   -1.4905 H   0  0  0  0  0  0  0  0  0  0  0  0
   -3.1031   -2.3145   -1.8421 H   0  0  0  0  0  0  0  0  0  0  0  0
    0.7804    0.0284    1.6581 H   0  0  0  0  0  0  0  0  0  0  0  0
    2.7010    0.5309   -0.4878 H   0  0  0  0  0  0  0  0  0  0  0  0
    2.3081    2.7385    0.6191 H   0  0  0  0  0  0  0  0  0  0  0  0
    2.7719    2.0436    2.1605 H   0  0  0  0  0  0  0  0  0  0  0  0
    5.0594    1.5247    1.2223 H   0  0  0  0  0  0  0  0  0  0  0  0
    5.2634    5.4783    0.1802 H   0  0  0  0  0  0  0  0  0  0  0  0
    3.5503    5.0556    0.2109 H   0  0  0  0  0  0  0  0  0  0  0  0
    4.2482    3.9738    2.2566 H   0  0  0  0  0  0  0  0  0  0  0  0
    5.8713    3.7018    1.6306 H   0  0  0  0  0  0  0  0  0  0  0  0
    3.7849   -0.1984    2.1999 H   0  0  0  0  0  0  0  0  0  0  0  0
    3.8762   -2.4554    1.6241 H   0  0  0  0  0  0  0  0  0  0  0  0
    1.1822   -4.3124   -1.2911 H   0  0  0  0  0  0  0  0  0  0  0  0
    2.6714   -4.1267   -2.2202 H   0  0  0  0  0  0  0  0  0  0  0  0
    3.6650   -6.0999   -1.0266 H   0  0  0  0  0  0  0  0  0  0  0  0
    2.1678   -6.2885   -0.0985 H   0  0  0  0  0  0  0  0  0  0  0  0
    2.1636   -6.5220   -1.8446 H   0  0  0  0  0  0  0  0  0  0  0  0
   -2.6762    1.9851   -0.4351 C   0  0  0  0  0  0  0  0  0  0  0  0
 29 28  2  0
 28 30  1  0
 28 27  1  0
 30 31  1  0
 32 31  1  0
 27 26  2  0
 26 19  1  0
 20 19  1  0
 20 21  1  0
 19 18  1  0
 23 22  2  0
 22 21  1  0
 22  7  1  0
 21 25  1  0
 25 24  1  0
 18 16  1  0
  7 24  1  0
 17 16  2  0
 16  1  1  0
  2  1  1  0
  2  3  1  0
  1 14  1  0
  4  3  2  0
  4  5  1  0
  3 15  1  0
 13 68  2  0
 14 68  1  0
  5  6  2  0
 15  8  2  0
 68  9  1  0
  8  6  1  0
  9 10  1  0
 12 10  1  0
 10 11  1  0
  1 33  1  1
  2 34  1  0
  2 35  1  0
  4 36  1  0
  5 37  1  0
  6 38  1  0
  7 39  1  0
  8 40  1  0
  9 41  1  0
  9 42  1  0
 10 43  1  1
 11 44  1  0
 11 45  1  0
 11 46  1  0
 12 47  1  0
 12 48  1  0
 12 49  1  0
 14 50  1  0
 15 51  1  0
 18 52  1  0
 19 53  1  6
 20 54  1  0
 20 55  1  0
 21 56  1  1
 24 57  1  0
 24 58  1  0
 25 59  1  0
 25 60  1  0
 26 61  1  0
 27 62  1  0
 31 63  1  0
 31 64  1  0
 32 65  1  0
 32 66  1  0
 32 67  1  0
M  END
