
     RDKit          3D

 45 49  0  0  0  0  0  0  0  0999 V2000
   -0.4287    0.1179    1.1555 C   0  0  0  0  0  0  0  0  0  0  0  0
   -1.4621    0.8808    1.6801 C   0  0  0  0  0  0  0  0  0  0  0  0
   -3.0592   -0.4418    0.4982 C   0  0  0  0  0  0  0  0  0  0  0  0
   -7.4839    0.9038   -0.4514 C   0  0  0  0  0  0  0  0  0  0  0  0
    5.0175    2.7561    0.9385 N   0  0  0  0  0  0  0  0  0  0  0  0
    6.1932    2.2162    0.6279 N   0  0  0  0  0  0  0  0  0  0  0  0
    5.9153    1.0030    0.1971 C   0  0  0  0  0  0  0  0  0  0  0  0
    4.5297    0.7465    0.2280 C   0  0  0  0  0  0  0  0  0  0  0  0
    3.9932    1.9211    0.7175 C   0  0  0  0  0  0  0  0  0  0  0  0
    3.7856   -0.4435   -0.1674 C   0  0  0  0  0  0  0  0  0  0  0  0
    2.4749   -0.4217    0.0560 N   0  0  0  0  0  0  0  0  0  0  0  0
    1.7817   -1.4903   -0.3146 C   0  0  0  0  0  0  0  0  0  0  0  0
    2.3668   -2.6064   -0.9113 C   0  0  0  0  0  0  0  0  0  0  0  0
    3.7234   -2.6582   -1.1520 C   0  0  0  0  0  0  0  0  0  0  0  0
    4.4364   -1.5393   -0.7632 C   0  0  0  0  0  0  0  0  0  0  0  0
    0.3665   -1.7787   -0.2399 C   0  0  0  0  0  0  0  0  0  0  0  0
    0.2472   -3.0139   -0.7883 C   0  0  0  0  0  0  0  0  0  0  0  0
    1.4280   -3.5294   -1.1990 O   0  0  0  0  0  0  0  0  0  0  0  0
   -0.7080   -0.9453    0.2969 C   0  0  0  0  0  0  0  0  0  0  0  0
   -2.0394   -1.2074   -0.0374 C   0  0  0  0  0  0  0  0  0  0  0  0
   -2.7828    0.6089    1.3656 C   0  0  0  0  0  0  0  0  0  0  0  0
   -4.3445   -0.7866    0.1828 O   0  0  0  0  0  0  0  0  0  0  0  0
   -5.2065    0.1705   -0.2709 C   0  0  0  0  0  0  0  0  0  0  0  0
   -4.7892    1.2594   -1.0277 C   0  0  0  0  0  0  0  0  0  0  0  0
   -5.7319    2.1697   -1.4848 C   0  0  0  0  0  0  0  0  0  0  0  0
   -7.0795    2.0003   -1.2008 C   0  0  0  0  0  0  0  0  0  0  0  0
   -6.5529   -0.0102    0.0183 C   0  0  0  0  0  0  0  0  0  0  0  0
    0.5943    0.3510    1.4119 H   0  0  0  0  0  0  0  0  0  0  0  0
   -1.2353    1.6988    2.3505 H   0  0  0  0  0  0  0  0  0  0  0  0
   -8.5311    0.7587   -0.2215 H   0  0  0  0  0  0  0  0  0  0  0  0
    5.6218    4.2443    2.2634 H   0  0  0  0  0  0  0  0  0  0  0  0
    5.2401    4.8099    0.6265 H   0  0  0  0  0  0  0  0  0  0  0  0
    3.9381    4.3333    1.7252 H   0  0  0  0  0  0  0  0  0  0  0  0
    6.7183    0.3490   -0.1068 H   0  0  0  0  0  0  0  0  0  0  0  0
    2.9708    2.1980    0.9119 H   0  0  0  0  0  0  0  0  0  0  0  0
    4.2048   -3.5075   -1.6160 H   0  0  0  0  0  0  0  0  0  0  0  0
    5.5030   -1.5106   -0.9339 H   0  0  0  0  0  0  0  0  0  0  0  0
   -0.6108   -3.6492   -0.9385 H   0  0  0  0  0  0  0  0  0  0  0  0
   -2.2954   -2.0103   -0.7173 H   0  0  0  0  0  0  0  0  0  0  0  0
   -3.5812    1.2042    1.7888 H   0  0  0  0  0  0  0  0  0  0  0  0
   -3.7436    1.4049   -1.2650 H   0  0  0  0  0  0  0  0  0  0  0  0
   -5.4035    3.0169   -2.0715 H   0  0  0  0  0  0  0  0  0  0  0  0
   -7.8067    2.7160   -1.5582 H   0  0  0  0  0  0  0  0  0  0  0  0
   -6.8662   -0.8617    0.6081 H   0  0  0  0  0  0  0  0  0  0  0  0
    4.9552    4.1133    1.4138 C   0  0  0  0  0  0  0  0  0  0  0  0
 45  5  1  0
  6  5  1  0
  6  7  2  0
  5  9  1  0
  7  8  1  0
  4 27  2  0
  4 26  1  0
 27 23  1  0
  9  8  2  0
 26 25  2  0
  8 10  1  0
 23 22  1  0
 23 24  2  0
 10 15  1  0
 10 11  2  0
 25 24  1  0
 22  3  1  0
 15 14  2  0
 11 12  1  0
 20  3  2  0
 20 19  1  0
 14 13  1  0
  3 21  1  0
 12 13  2  0
 12 16  1  0
 13 18  1  0
 16 19  1  0
 16 17  2  0
 19  1  2  0
 21  2  2  0
 18 17  1  0
  1  2  1  0
  1 28  1  0
  2 29  1  0
  4 30  1  0
 45 31  1  0
 45 32  1  0
 45 33  1  0
  7 34  1  0
  9 35  1  0
 14 36  1  0
 15 37  1  0
 17 38  1  0
 20 39  1  0
 21 40  1  0
 24 41  1  0
 25 42  1  0
 26 43  1  0
 27 44  1  0
M  END
