
     RDKit          3D

 31 33  0  0  0  0  0  0  0  0999 V2000
   -2.1354   -2.9304   -0.0628 C   0  0  0  0  0  0  0  0  0  0  0  0
   -1.4799   -0.5763    0.0330 C   0  0  0  0  0  0  0  0  0  0  0  0
   -0.1080   -0.7801    0.0299 C   0  0  0  0  0  0  0  0  0  0  0  0
   -1.7794    2.9168    0.1463 C   0  0  0  0  0  0  0  0  0  0  0  0
    2.2161    0.1353    0.0700 C   0  0  0  0  0  0  0  0  0  0  0  0
    3.0664    1.1373   -0.3933 C   0  0  0  0  0  0  0  0  0  0  0  0
    4.4322    0.9206   -0.3868 C   0  0  0  0  0  0  0  0  0  0  0  0
    4.9097   -0.2914    0.0912 C   0  0  0  0  0  0  0  0  0  0  0  0
    2.8074   -1.0374    0.5373 C   0  0  0  0  0  0  0  0  0  0  0  0
   -3.4131   -3.7188   -0.2672 C   0  0  0  0  0  0  0  0  0  0  0  0
   -2.4221   -1.5100   -0.0208 N   0  0  0  0  0  0  0  0  0  0  0  0
   -1.8824    0.7243    0.0844 N   0  0  0  0  0  0  0  0  0  0  0  0
   -3.1613    1.1148    0.0948 N   0  0  0  0  0  0  0  0  0  0  0  0
   -3.0910    2.4372    0.1320 C   0  0  0  0  0  0  0  0  0  0  0  0
   -0.9882    1.7757    0.1132 C   0  0  0  0  0  0  0  0  0  0  0  0
    0.3348    1.5817    0.1110 N   0  0  0  0  0  0  0  0  0  0  0  0
    0.7514    0.3311    0.0754 C   0  0  0  0  0  0  0  0  0  0  0  0
    4.1160   -1.2510    0.5507 N   0  0  0  0  0  0  0  0  0  0  0  0
   -1.6465   -3.2400    0.8653 H   0  0  0  0  0  0  0  0  0  0  0  0
   -1.4371   -3.1337   -0.8782 H   0  0  0  0  0  0  0  0  0  0  0  0
    0.2786   -1.7852   -0.0335 H   0  0  0  0  0  0  0  0  0  0  0  0
   -1.4446    3.9395    0.1755 H   0  0  0  0  0  0  0  0  0  0  0  0
    2.6576    2.0684   -0.7614 H   0  0  0  0  0  0  0  0  0  0  0  0
    5.1186    1.6743   -0.7474 H   0  0  0  0  0  0  0  0  0  0  0  0
    5.9747   -0.4936    0.1053 H   0  0  0  0  0  0  0  0  0  0  0  0
    2.1961   -1.8373    0.9411 H   0  0  0  0  0  0  0  0  0  0  0  0
   -3.9051   -3.4379   -1.1985 H   0  0  0  0  0  0  0  0  0  0  0  0
   -3.1845   -4.7820   -0.3137 H   0  0  0  0  0  0  0  0  0  0  0  0
   -4.1119   -3.5627    0.5552 H   0  0  0  0  0  0  0  0  0  0  0  0
   -3.3834   -1.2038    0.0186 H   0  0  0  0  0  0  0  0  0  0  0  0
   -4.0026    3.0157    0.1482 H   0  0  0  0  0  0  0  0  0  0  0  0
 14  4  1  0
 14 13  2  0
  4 15  2  0
 13 12  1  0
 15 12  1  0
 15 16  1  0
 12  2  1  0
 16 17  2  0
  2 11  1  0
  2  3  2  0
 17  3  1  0
 17  5  1  0
 11  1  1  0
  9  5  1  0
  9 18  2  0
  5  6  2  0
 10  1  1  0
 18  8  1  0
  6  7  1  0
  8  7  2  0
  1 19  1  0
  1 20  1  0
  3 21  1  0
  4 22  1  0
  6 23  1  0
  7 24  1  0
  8 25  1  0
  9 26  1  0
 10 27  1  0
 10 28  1  0
 10 29  1  0
 11 30  1  0
 14 31  1  0
M  END
