
     RDKit          3D

 22 22  0  0  0  0  0  0  0  0999 V2000
    2.1141   -0.3278    0.0568 N   0  0  0  0  0  0  0  0  0  0  0  0
    2.6446    1.0109    0.1858 C   0  0  0  0  0  0  0  0  0  0  0  0
    1.7129    2.0028   -0.4784 C   0  0  0  0  0  0  0  0  0  0  0  0
    0.2743    1.7383   -0.0693 C   0  0  0  0  0  0  0  0  0  0  0  0
   -0.1400    0.3443   -0.5483 C   0  0  1  0  0  0  0  0  0  0  0  0
    0.8741   -0.7291   -0.2189 C   0  0  0  0  0  0  0  0  0  0  0  0
    3.0212   -1.2956    0.4090 O   0  0  0  0  0  0  0  0  0  0  0  0
    0.5889   -1.9266   -0.2117 O   0  0  0  0  0  0  0  0  0  0  0  0
   -1.7486   -0.1457    0.1577 P   0  0  1  0  0  0  0  0  0  0  0  0
   -1.7180   -0.5547    1.5801 O   0  0  0  0  0  0  0  0  0  0  0  0
   -2.6902    1.1497    0.0033 O   0  0  0  0  0  0  0  0  0  0  0  0
   -2.2878   -1.2163   -0.9052 O   0  0  0  0  0  0  0  0  0  0  0  0
    2.7729    1.2461    1.2465 H   0  0  0  0  0  0  0  0  0  0  0  0
    3.6295    1.0334   -0.2833 H   0  0  0  0  0  0  0  0  0  0  0  0
    2.0157    3.0085   -0.1876 H   0  0  0  0  0  0  0  0  0  0  0  0
    1.8089    1.9379   -1.5649 H   0  0  0  0  0  0  0  0  0  0  0  0
    0.1786    1.8145    1.0177 H   0  0  0  0  0  0  0  0  0  0  0  0
   -0.3838    2.4898   -0.5025 H   0  0  0  0  0  0  0  0  0  0  0  0
   -0.2460    0.3616   -1.6398 H   0  0  0  0  0  0  0  0  0  0  0  0
    2.5011   -2.1184    0.3955 H   0  0  0  0  0  0  0  0  0  0  0  0
   -2.8425    1.4580   -0.8996 H   0  0  0  0  0  0  0  0  0  0  0  0
   -3.0925   -1.6744   -0.6241 H   0  0  0  0  0  0  0  0  0  0  0  0
  8  6  2  0
  5  6  1  0
  5  4  1  0
  5  9  1  0
 10  9  2  0
  6  1  1  0
  4  3  1  0
  9 11  1  1
  9 12  1  0
  1  7  1  0
  1  2  1  0
  3  2  1  0
  2 13  1  0
  2 14  1  0
  3 15  1  0
  3 16  1  0
  4 17  1  0
  4 18  1  0
  5 19  1  6
  7 20  1  0
 11 21  1  0
 12 22  1  0
M  END
