
     RDKit          3D

 52 54  0  0  0  0  0  0  0  0999 V2000
   -5.7796    1.9524   -1.0969 N   0  0  0  0  0  0  0  0  0  0  0  0
   -6.9851    2.3691   -0.6189 C   0  0  0  0  0  0  0  0  0  0  0  0
   -7.8228    1.5962    0.0166 N   0  0  0  0  0  0  0  0  0  0  0  0
   -7.5539    0.2678    0.2582 C   0  0  0  0  0  0  0  0  0  0  0  0
   -4.3231    0.0096   -1.2399 N   0  0  0  0  0  0  0  0  0  0  0  0
   -4.4054   -1.3093   -0.8176 C   0  0  0  0  0  0  0  0  0  0  0  0
   -5.6038   -1.4755   -0.1861 C   0  0  0  0  0  0  0  0  0  0  0  0
   -6.2841   -0.2204   -0.2211 C   0  0  0  0  0  0  0  0  0  0  0  0
   -5.4477    0.6500   -0.8800 C   0  0  0  0  0  0  0  0  0  0  0  0
   -8.3668   -0.4346    0.8559 O   0  0  0  0  0  0  0  0  0  0  0  0
   -7.3140    3.6513   -0.8678 N   0  0  0  0  0  0  0  0  0  0  0  0
    1.4310   -1.4802   -0.1365 S   0  0  0  0  0  0  0  0  0  0  0  0
    2.3635   -1.6188    1.3097 C   0  0  0  0  0  0  0  0  0  0  0  0
    1.8004   -2.5298    2.1590 C   0  0  0  0  0  0  0  0  0  0  0  0
    0.6155   -3.1048    1.6459 C   0  0  0  0  0  0  0  0  0  0  0  0
    0.2799   -2.6352    0.4070 C   0  0  0  0  0  0  0  0  0  0  0  0
    4.2715   -1.1028    2.5763 O   0  0  0  0  0  0  0  0  0  0  0  0
    3.9586    0.0675    0.6735 N   0  0  0  0  0  0  0  0  0  0  0  0
    5.1066    0.9075    0.8737 C   0  0  1  0  0  0  0  0  0  0  0  0
    5.5834    1.4844   -0.4622 C   0  0  0  0  0  0  0  0  0  0  0  0
    6.0592    0.3846   -1.3977 C   0  0  0  0  0  0  0  0  0  0  0  0
    6.5354    0.9092   -2.7235 C   0  0  0  0  0  0  0  0  0  0  0  0
    6.5619    2.0719   -3.0410 O   0  0  0  0  0  0  0  0  0  0  0  0
    6.9347   -0.0730   -3.5238 O   0  0  0  0  0  0  0  0  0  0  0  0
    4.7895    2.0193    1.8666 C   0  0  0  0  0  0  0  0  0  0  0  0
    3.6846    2.2909    2.2549 O   0  0  0  0  0  0  0  0  0  0  0  0
    5.8888    2.6574    2.2389 O   0  0  0  0  0  0  0  0  0  0  0  0
   -3.2845   -2.2623   -1.0391 C   0  0  0  0  0  0  0  0  0  0  0  0
   -2.0313   -1.9088   -0.2357 C   0  0  0  0  0  0  0  0  0  0  0  0
   -0.9283   -2.9558   -0.4078 C   0  0  0  0  0  0  0  0  0  0  0  0
   -3.5517    0.4118   -1.7486 H   0  0  0  0  0  0  0  0  0  0  0  0
   -5.9567   -2.3934    0.2569 H   0  0  0  0  0  0  0  0  0  0  0  0
   -6.6018    4.3226   -1.1027 H   0  0  0  0  0  0  0  0  0  0  0  0
   -8.1070    4.0152   -0.3676 H   0  0  0  0  0  0  0  0  0  0  0  0
    2.2229   -2.7762    3.1224 H   0  0  0  0  0  0  0  0  0  0  0  0
    0.0230   -3.8403    2.1717 H   0  0  0  0  0  0  0  0  0  0  0  0
    3.2898    0.3771   -0.0158 H   0  0  0  0  0  0  0  0  0  0  0  0
    5.9114    0.3052    1.3033 H   0  0  0  0  0  0  0  0  0  0  0  0
    4.7730    2.0564   -0.9226 H   0  0  0  0  0  0  0  0  0  0  0  0
    6.3954    2.1864   -0.2750 H   0  0  0  0  0  0  0  0  0  0  0  0
    6.8795   -0.1759   -0.9384 H   0  0  0  0  0  0  0  0  0  0  0  0
    5.2711   -0.3507   -1.5825 H   0  0  0  0  0  0  0  0  0  0  0  0
    7.2465    0.2893   -4.3666 H   0  0  0  0  0  0  0  0  0  0  0  0
    5.6709    3.3825    2.8442 H   0  0  0  0  0  0  0  0  0  0  0  0
   -3.6325   -3.2582   -0.7566 H   0  0  0  0  0  0  0  0  0  0  0  0
   -3.0317   -2.3128   -2.1034 H   0  0  0  0  0  0  0  0  0  0  0  0
   -1.6519   -0.9300   -0.5433 H   0  0  0  0  0  0  0  0  0  0  0  0
   -2.2890   -1.8258    0.8228 H   0  0  0  0  0  0  0  0  0  0  0  0
   -0.6638   -3.0431   -1.4648 H   0  0  0  0  0  0  0  0  0  0  0  0
   -1.3006   -3.9349   -0.0971 H   0  0  0  0  0  0  0  0  0  0  0  0
   -5.1689    2.5787   -1.6002 H   0  0  0  0  0  0  0  0  0  0  0  0
    3.6004   -0.8664    1.5828 C   0  0  0  0  0  0  0  0  0  0  0  0
 11  2  1  0
  3  2  2  0
  3  4  1  0
  2  1  1  0
 10  4  2  0
  4  8  1  0
  1  9  1  0
  8  9  2  0
  8  7  1  0
  9  5  1  0
  7  6  2  0
  5  6  1  0
  6 28  1  0
 28 29  1  0
 29 30  1  0
 30 16  1  0
 23 22  2  0
 16 15  2  0
 16 12  1  0
 15 14  1  0
 22 24  1  0
 22 21  1  0
 12 13  1  0
 14 13  2  0
 21 20  1  0
 13 52  1  0
 20 19  1  0
 52 18  1  0
 52 17  2  0
 19 18  1  0
 19 25  1  0
 25 26  2  0
 25 27  1  0
  5 31  1  0
  7 32  1  0
 11 33  1  0
 11 34  1  0
 14 35  1  0
 15 36  1  0
 18 37  1  0
 19 38  1  1
 20 39  1  0
 20 40  1  0
 21 41  1  0
 21 42  1  0
 24 43  1  0
 27 44  1  0
 28 45  1  0
 28 46  1  0
 29 47  1  0
 29 48  1  0
 30 49  1  0
 30 50  1  0
  1 51  1  0
M  END
