
     RDKit          3D

 53 56  0  0  0  0  0  0  0  0999 V2000
   -2.5836   -1.8277   -1.3484 S   0  0  1  0  0  0  0  0  0  0  0  0
    5.7141    2.4654   -0.7424 N   0  0  0  0  0  0  0  0  0  0  0  0
    5.9610    1.1670   -0.5927 C   0  0  0  0  0  0  0  0  0  0  0  0
    5.1147    0.2000   -0.2822 N   0  0  0  0  0  0  0  0  0  0  0  0
    3.8790    0.6634   -0.1161 C   0  0  0  0  0  0  0  0  0  0  0  0
    3.4683    1.9804   -0.2399 C   0  0  0  0  0  0  0  0  0  0  0  0
    4.4657    2.9160   -0.5722 C   0  0  0  0  0  0  0  0  0  0  0  0
    4.2162    4.2172   -0.7165 N   0  0  0  0  0  0  0  0  0  0  0  0
    2.1216    2.0951   -0.0056 N   0  0  0  0  0  0  0  0  0  0  0  0
    1.7349    0.8839    0.2558 C   0  0  0  0  0  0  0  0  0  0  0  0
    2.7503   -0.0349    0.2098 N   0  0  0  0  0  0  0  0  0  0  0  0
    2.6618   -1.4561    0.4155 C   0  0  1  0  0  0  0  0  0  0  0  0
   -4.5340    2.5239   -0.2990 C   0  0  0  0  0  0  0  0  0  0  0  0
   -3.9748    2.6034   -1.5239 O   0  0  0  0  0  0  0  0  0  0  0  0
   -4.8340    3.6548    0.4553 C   0  0  0  0  0  0  0  0  0  0  0  0
   -5.4040    3.5232    1.7133 C   0  0  0  0  0  0  0  0  0  0  0  0
   -5.6793    2.2647    2.2274 C   0  0  0  0  0  0  0  0  0  0  0  0
   -5.3785    1.1430    1.4661 C   0  0  0  0  0  0  0  0  0  0  0  0
   -4.8101    1.2467    0.2018 C   0  0  0  0  0  0  0  0  0  0  0  0
   -2.7557   -1.5895   -2.7731 O   0  0  0  0  0  0  0  0  0  0  0  0
    2.1409   -1.8563    1.7954 C   0  0  2  0  0  0  0  0  0  0  0  0
    3.1899   -1.8575    2.7137 O   0  0  0  0  0  0  0  0  0  0  0  0
   -4.4795    0.0135   -0.5926 C   0  0  0  0  0  0  0  0  0  0  0  0
   -2.9929   -0.3216   -0.4694 C   0  0  0  0  0  0  0  0  0  0  0  0
   -3.2988   -2.9289   -0.7184 O   0  0  0  0  0  0  0  0  0  0  0  0
    1.5336   -3.2295    1.4960 C   0  0  2  0  0  0  0  0  0  0  0  0
    2.5311   -4.2063    1.3687 O   0  0  0  0  0  0  0  0  0  0  0  0
    0.9203   -2.9800    0.1253 C   0  0  2  0  0  0  0  0  0  0  0  0
    1.7646   -2.0132   -0.5089 O   0  0  0  0  0  0  0  0  0  0  0  0
   -0.5005   -2.4499    0.2239 C   0  0  0  0  0  0  0  0  0  0  0  0
   -0.9766   -2.0967   -1.1056 N   0  0  0  0  0  0  0  0  0  0  0  0
    4.9518    4.8473   -0.9863 H   0  0  0  0  0  0  0  0  0  0  0  0
    3.2835    4.5815   -0.6318 H   0  0  0  0  0  0  0  0  0  0  0  0
    0.7185    0.6019    0.4880 H   0  0  0  0  0  0  0  0  0  0  0  0
    3.6742   -1.8447    0.2665 H   0  0  0  0  0  0  0  0  0  0  0  0
   -3.8512    3.5245   -1.7794 H   0  0  0  0  0  0  0  0  0  0  0  0
   -4.6214    4.6409    0.0578 H   0  0  0  0  0  0  0  0  0  0  0  0
   -5.6310    4.4119    2.2878 H   0  0  0  0  0  0  0  0  0  0  0  0
   -6.1267    2.1547    3.2062 H   0  0  0  0  0  0  0  0  0  0  0  0
   -5.5939    0.1560    1.8586 H   0  0  0  0  0  0  0  0  0  0  0  0
    1.3349   -1.1771    2.1024 H   0  0  0  0  0  0  0  0  0  0  0  0
    2.8256   -1.8225    3.6042 H   0  0  0  0  0  0  0  0  0  0  0  0
   -5.0703   -0.8221   -0.2148 H   0  0  0  0  0  0  0  0  0  0  0  0
   -2.7149   -0.4730    0.5754 H   0  0  0  0  0  0  0  0  0  0  0  0
    0.7742   -3.5110    2.2372 H   0  0  0  0  0  0  0  0  0  0  0  0
    3.1180   -4.1359    2.1308 H   0  0  0  0  0  0  0  0  0  0  0  0
    0.9179   -3.8873   -0.4842 H   0  0  0  0  0  0  0  0  0  0  0  0
   -1.1310   -3.2425    0.6251 H   0  0  0  0  0  0  0  0  0  0  0  0
   -0.5522   -1.6060    0.9232 H   0  0  0  0  0  0  0  0  0  0  0  0
   -0.3931   -1.4324   -1.6038 H   0  0  0  0  0  0  0  0  0  0  0  0
   -4.7431    0.1447   -1.6430 H   0  0  0  0  0  0  0  0  0  0  0  0
   -2.3646    0.4662   -0.8877 H   0  0  0  0  0  0  0  0  0  0  0  0
    6.9922    0.8681   -0.7461 H   0  0  0  0  0  0  0  0  0  0  0  0
  1 25  2  0
  2  7  2  0
  3  2  1  0
  3 53  1  0
  4  3  2  0
  4  5  1  0
  5  6  2  0
  6  7  1  0
  6  9  1  0
  7  8  1  0
  8 32  1  0
  8 33  1  0
 10  9  2  0
 10 34  1  0
 11  5  1  0
 11 10  1  0
 12 11  1  0
 12 29  1  0
 12 35  1  6
 13 19  2  0
 14 13  1  0
 14 36  1  0
 15 13  1  0
 15 16  2  0
 15 37  1  0
 16 17  1  0
 16 38  1  0
 17 18  2  0
 17 39  1  0
 18 40  1  0
 19 18  1  0
 19 23  1  0
 20  1  2  0
 21 12  1  0
 21 41  1  1
 22 21  1  0
 22 42  1  0
 23 43  1  0
 24  1  1  0
 24 23  1  0
 24 44  1  0
 26 21  1  0
 26 28  1  0
 26 45  1  1
 27 26  1  0
 27 46  1  0
 28 30  1  0
 28 29  1  0
 28 47  1  6
 30 31  1  0
 30 48  1  0
 30 49  1  0
  1 31  1  6
 31 50  1  0
 23 51  1  0
 24 52  1  0
M  END
