
     RDKit          3D

 26 27  0  0  0  0  0  0  0  0999 V2000
   34.5056   55.2130   32.3739 C   0  0  0  0  0  0  0  0  0  0  0  0
   33.9629   53.9970   31.9976 C   0  0  0  0  0  0  0  0  0  0  0  0
   35.8896   53.5469   30.6436 C   0  0  0  0  0  0  0  0  0  0  0  0
   36.4525   54.7454   31.0282 C   0  0  0  0  0  0  0  0  0  0  0  0
   35.7592   55.5922   31.8969 C   0  0  0  0  0  0  0  0  0  0  0  0
   34.6430   53.1414   31.1311 C   0  0  0  0  0  0  0  0  0  0  0  0
   34.3506   51.4409   29.5421 O   0  0  0  0  0  0  0  0  0  0  0  0
   34.0563   51.8718   30.6445 C   0  0  0  0  0  0  0  0  0  0  0  0
   33.1044   51.1315   31.5051 C   0  0  0  0  0  0  0  0  0  0  0  0
   33.2032   51.1241   32.8963 C   0  0  0  0  0  0  0  0  0  0  0  0
   32.3430   50.3645   33.6698 C   0  0  0  0  0  0  0  0  0  0  0  0
   31.3462   49.6055   33.0589 C   0  0  0  0  0  0  0  0  0  0  0  0
   31.2352   49.6035   31.6664 C   0  0  0  0  0  0  0  0  0  0  0  0
   32.1159   50.3450   30.9066 C   0  0  0  0  0  0  0  0  0  0  0  0
   36.3422   56.7513   32.2313 O   0  0  0  0  0  0  0  0  0  0  0  0
   30.4748   48.8613   33.7541 O   0  0  0  0  0  0  0  0  0  0  0  0
   37.4269   55.0375   30.6576 H   0  0  0  0  0  0  0  0  0  0  0  0
   36.4344   52.9052   29.9637 H   0  0  0  0  0  0  0  0  0  0  0  0
   32.9803   53.7347   32.3671 H   0  0  0  0  0  0  0  0  0  0  0  0
   33.9511   55.8680   33.0358 H   0  0  0  0  0  0  0  0  0  0  0  0
   35.7809   57.2571   32.8303 H   0  0  0  0  0  0  0  0  0  0  0  0
   32.0224   50.3277   29.8284 H   0  0  0  0  0  0  0  0  0  0  0  0
   33.9785   51.6934   33.3922 H   0  0  0  0  0  0  0  0  0  0  0  0
   30.4592   49.0171   31.1909 H   0  0  0  0  0  0  0  0  0  0  0  0
   32.4513   50.3597   34.7483 H   0  0  0  0  0  0  0  0  0  0  0  0
   30.6439   48.9342   34.7005 H   0  0  0  0  0  0  0  0  0  0  0  0
  4  5  2  0
  4  3  1  0
  2  1  2  0
  2  6  1  0
  1  5  1  0
  5 15  1  0
  7  8  2  0
  8  6  1  0
  8  9  1  0
  6  3  2  0
  9 14  1  0
  9 10  2  0
 14 13  2  0
 13 12  1  0
 12 11  2  0
 12 16  1  0
 11 10  1  0
  4 17  1  0
  3 18  1  0
  2 19  1  0
  1 20  1  0
 15 21  1  0
 14 22  1  0
 10 23  1  0
 13 24  1  0
 11 25  1  0
 16 26  1  0
M  END
