
     RDKit          3D

 32 33  0  0  0  0  0  0  0  0999 V2000
   -4.4622    0.0865   -2.0039 C   0  0  0  0  0  0  0  0  0  0  0  0
   -3.2148    0.2446    0.4758 C   0  0  0  0  0  0  0  0  0  0  0  0
    3.6482    1.5370   -0.5599 C   0  0  0  0  0  0  0  0  0  0  0  0
   -0.0472    0.8067   -0.7079 C   0  0  0  0  0  0  0  0  0  0  0  0
    1.1639    1.4856   -0.7201 C   0  0  0  0  0  0  0  0  0  0  0  0
    2.3411    0.8348   -0.3853 C   0  0  0  0  0  0  0  0  0  0  0  0
    2.2656   -0.5142   -0.0419 C   0  0  0  0  0  0  0  0  0  0  0  0
    1.0775   -1.2088   -0.0461 C   0  0  0  0  0  0  0  0  0  0  0  0
   -0.0982   -0.5382   -0.3721 C   0  0  0  0  0  0  0  0  0  0  0  0
   -1.3785   -1.3043   -0.3759 C   0  0  0  0  0  0  0  0  0  0  0  0
   -2.6559   -0.5361   -0.5405 C   0  0  0  0  0  0  0  0  0  0  0  0
   -3.2876   -0.6168   -1.7738 C   0  0  0  0  0  0  0  0  0  0  0  0
   -5.0156    0.8652   -0.9988 C   0  0  0  0  0  0  0  0  0  0  0  0
   -4.3962    0.9416    0.2389 C   0  0  0  0  0  0  0  0  0  0  0  0
   -2.5463    0.2600    1.7976 C   0  0  0  0  0  0  0  0  0  0  0  0
   -1.6156   -0.4647    2.0643 O   0  0  0  0  0  0  0  0  0  0  0  0
   -3.0645    1.1309    2.6428 O   0  0  0  0  0  0  0  0  0  0  0  0
   -1.3841   -2.5122   -0.3662 O   0  0  0  0  0  0  0  0  0  0  0  0
    3.6046   -2.3590    0.0637 O   0  0  0  0  0  0  0  0  0  0  0  0
    4.1940   -0.6198    1.1641 O   0  0  0  0  0  0  0  0  0  0  0  0
    4.5819    1.0417   -1.1336 O   0  0  0  0  0  0  0  0  0  0  0  0
    3.6181    2.7584   -0.0666 O   0  0  0  0  0  0  0  0  0  0  0  0
   -4.9430    0.0240   -2.9709 H   0  0  0  0  0  0  0  0  0  0  0  0
   -0.9471    1.3425   -0.9788 H   0  0  0  0  0  0  0  0  0  0  0  0
    1.1840    2.5250   -1.0160 H   0  0  0  0  0  0  0  0  0  0  0  0
    1.0479   -2.2528    0.2347 H   0  0  0  0  0  0  0  0  0  0  0  0
   -2.8561   -1.2168   -2.5644 H   0  0  0  0  0  0  0  0  0  0  0  0
   -5.9330    1.4099   -1.1746 H   0  0  0  0  0  0  0  0  0  0  0  0
   -4.8456    1.5399    1.0188 H   0  0  0  0  0  0  0  0  0  0  0  0
   -2.6049    1.0881    3.4951 H   0  0  0  0  0  0  0  0  0  0  0  0
    4.4492    3.2208   -0.2579 H   0  0  0  0  0  0  0  0  0  0  0  0
    3.4542   -1.2179    0.4222 N   0  0  0  0  0  0  0  0  0  0  0  0
 18 10  2  0
  4  5  2  0
  4  9  1  0
 10  9  1  0
 10 11  1  0
  5  6  1  0
 16 15  2  0
  9  8  2  0
 11 12  1  0
 11  2  2  0
 12  1  2  0
 15  2  1  0
 15 17  1  0
 21  3  2  0
  2 14  1  0
  6  3  1  0
  6  7  2  0
  8  7  1  0
  1 13  1  0
  3 22  1  0
 14 13  2  0
  7 32  1  0
 32 19  1  0
 32 20  2  0
  1 23  1  0
  4 24  1  0
  5 25  1  0
  8 26  1  0
 12 27  1  0
 13 28  1  0
 14 29  1  0
 17 30  1  0
 22 31  1  0
M  CHG  2  19  -1  32   1
M  END
