
     RDKit          3D

 21 22  0  0  0  0  0  0  0  0999 V2000
   -3.6136   -0.5200    0.4262 O   0  0  0  0  0  0  0  0  0  0  0  0
   -2.7030    0.3565    0.0379 C   0  0  0  0  0  0  0  0  0  0  0  0
   -2.9349    1.3873   -0.5304 O   0  0  0  0  0  0  0  0  0  0  0  0
   -1.3156   -0.1271    0.4039 C   0  0  2  0  0  0  0  0  0  0  0  0
   -0.4198    0.9097    0.0867 O   0  0  0  0  0  0  0  0  0  0  0  0
    0.8886    0.5451    0.0661 C   0  0  0  0  0  0  0  0  0  0  0  0
    1.8536    1.5429    0.0901 C   0  0  0  0  0  0  0  0  0  0  0  0
    3.1997    1.2106    0.0773 C   0  0  0  0  0  0  0  0  0  0  0  0
    3.5859   -0.1240    0.0513 C   0  0  0  0  0  0  0  0  0  0  0  0
    2.6255   -1.1231    0.0203 C   0  0  0  0  0  0  0  0  0  0  0  0
    1.2759   -0.7954    0.0258 C   0  0  0  0  0  0  0  0  0  0  0  0
    0.3616   -1.7959    0.0006 O   0  0  0  0  0  0  0  0  0  0  0  0
   -0.9434   -1.3933   -0.3608 C   0  0  0  0  0  0  0  0  0  0  0  0
   -4.5019   -0.2225    0.1760 H   0  0  0  0  0  0  0  0  0  0  0  0
   -1.2883   -0.3406    1.4814 H   0  0  0  0  0  0  0  0  0  0  0  0
    1.5386    2.5786    0.1216 H   0  0  0  0  0  0  0  0  0  0  0  0
    3.9440    1.9949    0.0975 H   0  0  0  0  0  0  0  0  0  0  0  0
    4.6347   -0.3889    0.0460 H   0  0  0  0  0  0  0  0  0  0  0  0
    2.9114   -2.1675   -0.0091 H   0  0  0  0  0  0  0  0  0  0  0  0
   -1.6111   -2.2137   -0.1066 H   0  0  0  0  0  0  0  0  0  0  0  0
   -1.0044   -1.2117   -1.4399 H   0  0  0  0  0  0  0  0  0  0  0  0
  8  9  2  0
  8  7  1  0
  9 10  1  0
  7  6  2  0
 10 11  2  0
  6 11  1  0
  6  5  1  0
 11 12  1  0
  5  4  1  0
 12 13  1  0
  4 13  1  0
  4  2  1  0
  3  2  2  0
  2  1  1  0
  1 14  1  0
  4 15  1  1
  7 16  1  0
  8 17  1  0
  9 18  1  0
 10 19  1  0
 13 20  1  0
 13 21  1  0
M  END
