
     RDKit          3D

 16 17  0  0  0  0  0  0  0  0999 V2000
    0.8559   -1.0305   -0.1283 C   0  0  0  0  0  0  0  0  0  0  0  0
   -0.4645   -0.5722   -0.0573 C   0  0  0  0  0  0  0  0  0  0  0  0
   -1.6416   -1.2354   -0.0334 N   0  0  0  0  0  0  0  0  0  0  0  0
   -2.6940   -0.4092    0.0418 N   0  0  0  0  0  0  0  0  0  0  0  0
   -2.2125    0.8069    0.0670 C   0  0  0  0  0  0  0  0  0  0  0  0
   -0.7932    0.7923    0.0071 C   0  0  0  0  0  0  0  0  0  0  0  0
    0.2359    1.7445    0.0002 C   0  0  0  0  0  0  0  0  0  0  0  0
    1.5368    1.3134   -0.0689 C   0  0  0  0  0  0  0  0  0  0  0  0
    1.8457   -0.0686   -0.1330 C   0  0  0  0  0  0  0  0  0  0  0  0
    3.1556   -0.3778   -0.1975 O   0  0  0  0  0  0  0  0  0  0  0  0
    1.0876   -2.0878   -0.1775 H   0  0  0  0  0  0  0  0  0  0  0  0
   -1.7916   -2.2303   -0.0624 H   0  0  0  0  0  0  0  0  0  0  0  0
   -2.8732    1.6584    0.1276 H   0  0  0  0  0  0  0  0  0  0  0  0
    0.0154    2.8031    0.0487 H   0  0  0  0  0  0  0  0  0  0  0  0
    2.3505    2.0271   -0.0745 H   0  0  0  0  0  0  0  0  0  0  0  0
    3.2758   -1.3335   -0.2321 H   0  0  0  0  0  0  0  0  0  0  0  0
  1  2  2  0
  1  9  1  0
  2  3  1  0
  2  6  1  0
  3  4  1  0
  4  5  2  0
  5  6  1  0
  6  7  2  0
  7  8  1  0
  8  9  2  0
  9 10  1  0
  1 11  1  0
  3 12  1  0
  5 13  1  0
  7 14  1  0
  8 15  1  0
 10 16  1  0
M  END
