
     RDKit          3D

 42 45  0  0  0  0  0  0  0  0999 V2000
   -1.9494   -0.3375    2.1972 C   0  0  0  0  0  0  0  0  0  0  0  0
   -2.1407   -0.0344    0.7119 C   0  0  2  0  0  0  0  0  0  0  0  0
   -1.6674    1.2913    0.3551 N   0  0  0  0  0  0  0  0  0  0  0  0
   -0.3856    1.6308    0.1360 C   0  0  0  0  0  0  0  0  0  0  0  0
   -0.1584    2.9321   -0.1159 N   0  0  0  0  0  0  0  0  0  0  0  0
    1.0901    3.2727   -0.3597 C   0  0  0  0  0  0  0  0  0  0  0  0
    2.1530    2.4909   -0.3850 N   0  0  0  0  0  0  0  0  0  0  0  0
    1.9415    1.1835   -0.1255 C   0  0  0  0  0  0  0  0  0  0  0  0
    0.6673    0.7061    0.1467 C   0  0  0  0  0  0  0  0  0  0  0  0
    3.1019    0.3248   -0.1525 C   0  0  0  0  0  0  0  0  0  0  0  0
    3.1660   -1.0582    0.0286 C   0  0  0  0  0  0  0  0  0  0  0  0
    2.2426   -1.9830    0.2957 N   0  0  0  0  0  0  0  0  0  0  0  0
    2.6445   -3.2292    0.4027 C   0  0  0  0  0  0  0  0  0  0  0  0
    3.9815   -3.6287    0.2513 C   0  0  0  0  0  0  0  0  0  0  0  0
    4.9136   -2.6659   -0.0227 C   0  0  0  0  0  0  0  0  0  0  0  0
    4.4965   -1.3981   -0.1305 N   0  0  0  0  0  0  0  0  0  0  0  0
    5.2808   -0.3434   -0.3942 N   0  0  0  0  0  0  0  0  0  0  0  0
    4.4542    0.6983   -0.4057 C   0  0  0  0  0  0  0  0  0  0  0  0
    4.9218    1.9474   -0.5999 N   0  0  0  0  0  0  0  0  0  0  0  0
   -3.5837   -0.1684    0.2828 C   0  0  0  0  0  0  0  0  0  0  0  0
   -3.9364   -1.0311   -0.7490 C   0  0  0  0  0  0  0  0  0  0  0  0
   -5.2548   -1.1552   -1.1661 C   0  0  0  0  0  0  0  0  0  0  0  0
   -6.2183   -0.3932   -0.5365 C   0  0  0  0  0  0  0  0  0  0  0  0
   -7.4960   -0.4978   -0.9357 F   0  0  0  0  0  0  0  0  0  0  0  0
   -5.9082    0.4763    0.4919 C   0  0  0  0  0  0  0  0  0  0  0  0
   -4.5861    0.5785    0.8978 C   0  0  0  0  0  0  0  0  0  0  0  0
   -2.5260    0.3478    2.8190 H   0  0  0  0  0  0  0  0  0  0  0  0
   -2.2715   -1.3545    2.4205 H   0  0  0  0  0  0  0  0  0  0  0  0
   -0.9013   -0.2461    2.4853 H   0  0  0  0  0  0  0  0  0  0  0  0
   -1.5644   -0.7622    0.1350 H   0  0  0  0  0  0  0  0  0  0  0  0
   -2.3256    2.0553    0.3755 H   0  0  0  0  0  0  0  0  0  0  0  0
    1.2662    4.3245   -0.5648 H   0  0  0  0  0  0  0  0  0  0  0  0
    0.5117   -0.3414    0.3529 H   0  0  0  0  0  0  0  0  0  0  0  0
    1.8828   -3.9684    0.6199 H   0  0  0  0  0  0  0  0  0  0  0  0
    4.2730   -4.6629    0.3464 H   0  0  0  0  0  0  0  0  0  0  0  0
    5.9691   -2.8486   -0.1621 H   0  0  0  0  0  0  0  0  0  0  0  0
    4.2239    2.6499   -0.7940 H   0  0  0  0  0  0  0  0  0  0  0  0
    5.8211    2.0508   -1.0392 H   0  0  0  0  0  0  0  0  0  0  0  0
   -3.1735   -1.6233   -1.2392 H   0  0  0  0  0  0  0  0  0  0  0  0
   -5.5219   -1.8288   -1.9699 H   0  0  0  0  0  0  0  0  0  0  0  0
   -6.6818    1.0637    0.9688 H   0  0  0  0  0  0  0  0  0  0  0  0
   -4.3486    1.2566    1.7091 H   0  0  0  0  0  0  0  0  0  0  0  0
  1  2  1  0
  2  3  1  0
  2 20  1  0
  3  4  1  0
  4  5  2  0
  4  9  1  0
  5  6  1  0
  6  7  2  0
  7  8  1  0
  8  9  2  0
  8 10  1  0
 10 11  2  0
 10 18  1  0
 11 12  1  0
 11 16  1  0
 12 13  2  0
 13 14  1  0
 14 15  2  0
 15 16  1  0
 16 17  1  0
 17 18  2  0
 18 19  1  0
 20 21  2  0
 20 26  1  0
 21 22  1  0
 22 23  2  0
 23 24  1  0
 23 25  1  0
 25 26  2  0
  1 27  1  0
  1 28  1  0
  1 29  1  0
  2 30  1  6
  3 31  1  0
  6 32  1  0
  9 33  1  0
 13 34  1  0
 14 35  1  0
 15 36  1  0
 19 37  1  0
 19 38  1  0
 21 39  1  0
 22 40  1  0
 25 41  1  0
 26 42  1  0
M  END
