
     RDKit          3D

 54 58  0  0  0  0  0  0  0  0999 V2000
   -0.1426   -1.2658    0.8004 C   0  0  0  0  0  0  0  0  0  0  0  0
    1.4435    1.3919    0.9462 C   0  0  0  0  0  0  0  0  0  0  0  0
   -0.3378   -1.0760   -1.5626 C   0  0  0  0  0  0  0  0  0  0  0  0
    0.1133   -2.3800   -1.7185 C   0  0  0  0  0  0  0  0  0  0  0  0
    0.4443   -3.1048   -0.5926 C   0  0  0  0  0  0  0  0  0  0  0  0
    3.4864    0.0529    1.5087 C   0  0  0  0  0  0  0  0  0  0  0  0
    4.0244   -0.7433    0.3091 C   0  0  1  0  0  0  0  0  0  0  0  0
    2.9817   -0.0169   -0.5798 C   0  0  0  0  0  0  0  0  0  0  0  0
   -0.4797   -0.4858   -0.3067 C   0  0  0  0  0  0  0  0  0  0  0  0
    0.4939    1.7634   -0.1693 C   0  0  0  0  0  0  0  0  0  0  0  0
   -1.6790    1.2394    1.1448 C   0  0  1  0  0  0  0  0  0  0  0  0
   -0.8583    0.9892   -0.1474 C   0  0  2  0  0  0  0  0  0  0  0  0
   -1.7403    1.4925   -1.3237 C   0  0  2  0  0  0  0  0  0  0  0  0
   -2.0851    2.9795   -1.1662 C   0  0  0  0  0  0  0  0  0  0  0  0
   -2.8626    3.2069    0.1290 C   0  0  2  0  0  0  0  0  0  0  0  0
   -2.0146    2.7258    1.3066 C   0  0  0  0  0  0  0  0  0  0  0  0
   -2.9946    0.4521    1.0917 C   0  0  0  0  0  0  0  0  0  0  0  0
   -4.1672    2.4093    0.0803 C   0  0  0  0  0  0  0  0  0  0  0  0
   -3.8449    0.9238   -0.0879 C   0  0  1  0  0  0  0  0  0  0  0  0
   -3.0581    0.7089   -1.3808 C   0  0  0  0  0  0  0  0  0  0  0  0
    0.3226   -2.5669    0.6722 C   0  0  0  0  0  0  0  0  0  0  0  0
    2.5017    0.6454    0.6237 N   0  0  0  0  0  0  0  0  0  0  0  0
    1.2711    1.7609    2.1055 O   0  0  0  0  0  0  0  0  0  0  0  0
    0.8896   -4.3661   -0.7287 F   0  0  0  0  0  0  0  0  0  0  0  0
    5.3657   -0.4875    0.0467 O   0  0  0  0  0  0  0  0  0  0  0  0
    5.8282   -1.1405   -1.1130 C   0  0  0  0  0  0  0  0  0  0  0  0
   -0.2337   -0.8663    1.8013 H   0  0  0  0  0  0  0  0  0  0  0  0
   -0.5729   -0.5216   -2.4607 H   0  0  0  0  0  0  0  0  0  0  0  0
    0.2134   -2.8153   -2.7044 H   0  0  0  0  0  0  0  0  0  0  0  0
    4.1971    0.7688    1.9287 H   0  0  0  0  0  0  0  0  0  0  0  0
    3.8308   -1.8206    0.3777 H   0  0  0  0  0  0  0  0  0  0  0  0
    3.4127    0.6651   -1.3176 H   0  0  0  0  0  0  0  0  0  0  0  0
    2.2509   -0.6629   -1.0659 H   0  0  0  0  0  0  0  0  0  0  0  0
    0.3231    2.8363   -0.0813 H   0  0  0  0  0  0  0  0  0  0  0  0
    0.9552    1.6015   -1.1467 H   0  0  0  0  0  0  0  0  0  0  0  0
   -1.1134    0.9235    2.0214 H   0  0  0  0  0  0  0  0  0  0  0  0
   -1.2008    1.3731   -2.2679 H   0  0  0  0  0  0  0  0  0  0  0  0
   -1.1866    3.6006   -1.1847 H   0  0  0  0  0  0  0  0  0  0  0  0
   -2.6827    3.2949   -2.0273 H   0  0  0  0  0  0  0  0  0  0  0  0
   -3.0834    4.2725    0.2436 H   0  0  0  0  0  0  0  0  0  0  0  0
   -2.5622    2.8628    2.2445 H   0  0  0  0  0  0  0  0  0  0  0  0
   -1.1055    3.3236    1.3962 H   0  0  0  0  0  0  0  0  0  0  0  0
   -2.8036   -0.6218    1.0139 H   0  0  0  0  0  0  0  0  0  0  0  0
   -3.5389    0.5992    2.0303 H   0  0  0  0  0  0  0  0  0  0  0  0
   -4.7435    2.5673    0.9979 H   0  0  0  0  0  0  0  0  0  0  0  0
   -4.7933    2.7585   -0.7474 H   0  0  0  0  0  0  0  0  0  0  0  0
   -4.7725    0.3446   -0.1243 H   0  0  0  0  0  0  0  0  0  0  0  0
   -3.6400    1.0511   -2.2424 H   0  0  0  0  0  0  0  0  0  0  0  0
   -2.8790   -0.3579   -1.5368 H   0  0  0  0  0  0  0  0  0  0  0  0
    0.5788   -3.1497    1.5476 H   0  0  0  0  0  0  0  0  0  0  0  0
    6.8920   -0.9313   -1.2118 H   0  0  0  0  0  0  0  0  0  0  0  0
    5.6907   -2.2261   -1.0519 H   0  0  0  0  0  0  0  0  0  0  0  0
    5.3225   -0.7854   -2.0177 H   0  0  0  0  0  0  0  0  0  0  0  0
    3.0585   -0.5407    2.3185 H   0  0  0  0  0  0  0  0  0  0  0  0
 24  5  1  0
 26 25  1  0
  5 21  1  0
  5  4  2  0
 25  7  1  0
 21  1  2  0
  4  3  1  0
  7  6  1  0
  7  8  1  0
  1  9  1  0
  3  9  2  0
  6 22  1  0
  8 22  1  0
  9 12  1  0
 22  2  1  0
  2 10  1  0
  2 23  2  0
 12 10  1  1
 12 13  1  0
 12 11  1  0
 20 13  1  0
 20 19  1  0
 17 11  1  0
 17 19  1  0
 13 14  1  0
 11 16  1  0
 19 18  1  0
 14 15  1  0
 16 15  1  0
 18 15  1  0
  1 27  1  0
  3 28  1  0
  4 29  1  0
  6 54  1  0
  6 30  1  0
  7 31  1  1
  8 32  1  0
  8 33  1  0
 10 34  1  0
 10 35  1  0
 11 36  1  1
 13 37  1  6
 14 38  1  0
 14 39  1  0
 15 40  1  1
 16 41  1  0
 16 42  1  0
 17 43  1  0
 17 44  1  0
 18 45  1  0
 18 46  1  0
 19 47  1  6
 20 48  1  0
 20 49  1  0
 21 50  1  0
 26 51  1  0
 26 52  1  0
 26 53  1  0
M  END
