
     RDKit          3D

 33 33  0  0  0  0  0  0  0  0999 V2000
    1.6862    0.7989    0.4212 C   0  0  1  0  0  0  0  0  0  0  0  0
    0.7988   -1.5575    0.7906 N   0  0  0  0  0  0  0  0  0  0  0  0
    1.4809    1.9401   -0.3906 O   0  0  0  0  0  0  0  0  0  0  0  0
    0.6097   -0.2922    0.1245 C   0  0  1  0  0  0  0  0  0  0  0  0
   -0.7579    0.3328    0.4551 C   0  0  0  0  0  0  0  0  0  0  0  0
   -3.2234    0.2123    0.1774 C   0  0  0  0  0  0  0  0  0  0  0  0
   -4.3539   -0.5144   -0.3689 N   0  0  0  0  0  0  0  0  0  0  0  0
   -1.8949   -0.4941   -0.1020 C   0  0  0  0  0  0  0  0  0  0  0  0
   -5.6666   -0.0053   -0.0697 C   0  0  0  0  0  0  0  0  0  0  0  0
    3.0865    0.2793    0.2654 C   0  0  0  0  0  0  0  0  0  0  0  0
    3.6307   -0.6121    1.1035 N   0  0  0  0  0  0  0  0  0  0  0  0
    4.1631    0.8175   -0.9699 S   0  0  0  0  0  0  0  0  0  0  0  0
    4.9351   -0.8705    0.7274 C   0  0  0  0  0  0  0  0  0  0  0  0
    5.3735   -0.1715   -0.3894 C   0  0  0  0  0  0  0  0  0  0  0  0
   -5.8172    1.1500    0.5316 N   0  0  0  0  0  0  0  0  0  0  0  0
   -6.7478   -0.8626   -0.4742 N   0  0  0  0  0  0  0  0  0  0  0  0
    1.5965   -2.0404    0.4294 H   0  0  0  0  0  0  0  0  0  0  0  0
    0.6394   -0.4938   -0.9891 H   0  0  0  0  0  0  0  0  0  0  0  0
   -0.8708    0.4403    1.5654 H   0  0  0  0  0  0  0  0  0  0  0  0
   -0.7859    1.3646    0.0133 H   0  0  0  0  0  0  0  0  0  0  0  0
   -3.2108    1.2320   -0.3026 H   0  0  0  0  0  0  0  0  0  0  0  0
   -3.3188    0.3661    1.2921 H   0  0  0  0  0  0  0  0  0  0  0  0
   -4.2858   -1.4973   -0.1805 H   0  0  0  0  0  0  0  0  0  0  0  0
   -1.7565   -0.6334   -1.2061 H   0  0  0  0  0  0  0  0  0  0  0  0
   -1.8905   -1.5127    0.3674 H   0  0  0  0  0  0  0  0  0  0  0  0
    5.5205   -1.5850    1.3177 H   0  0  0  0  0  0  0  0  0  0  0  0
    6.3660   -0.2456   -0.8281 H   0  0  0  0  0  0  0  0  0  0  0  0
   -6.7573    1.4696    0.6159 H   0  0  0  0  0  0  0  0  0  0  0  0
   -6.5105   -1.5542   -1.1516 H   0  0  0  0  0  0  0  0  0  0  0  0
   -7.5699   -0.3611   -0.7331 H   0  0  0  0  0  0  0  0  0  0  0  0
    1.5534    1.1880    1.4748 H   0  0  0  0  0  0  0  0  0  0  0  0
    1.3547    1.6399   -1.3001 H   0  0  0  0  0  0  0  0  0  0  0  0
    0.9031   -1.4342    1.7783 H   0  0  0  0  0  0  0  0  0  0  0  0
  1  4  1  0
  2 17  1  0
  3  1  1  0
  4  2  1  0
  4  5  1  0
  4 18  1  6
  5  8  1  0
  5 19  1  0
  5 20  1  0
  6  7  1  0
  6 21  1  0
  6 22  1  0
  7  9  1  0
  7 23  1  0
  8  6  1  0
  8 24  1  0
  8 25  1  0
  9 15  2  0
  9 16  1  0
 10  1  1  0
 11 10  2  0
 12 10  1  0
 13 11  1  0
 13 26  1  0
 14 12  1  0
 14 13  2  0
 14 27  1  0
 15 28  1  0
 16 29  1  0
 16 30  1  0
  1 31  1  1
  3 32  1  0
  2 33  1  0
M  END
