
     RDKit          3D

 26 26  0  0  0  0  0  0  0  0999 V2000
    0.7374    3.5620   -0.0563 C   0  0  0  0  0  0  0  0  0  0  0  0
    1.4154    2.3625   -0.1597 C   0  0  0  0  0  0  0  0  0  0  0  0
    0.7356    1.1408   -0.1676 C   0  0  0  0  0  0  0  0  0  0  0  0
   -0.6727    1.1394   -0.0690 C   0  0  0  0  0  0  0  0  0  0  0  0
   -1.3382    2.3657    0.0333 C   0  0  0  0  0  0  0  0  0  0  0  0
   -0.6497    3.5628    0.0412 C   0  0  0  0  0  0  0  0  0  0  0  0
   -1.4174   -0.1177   -0.0402 C   0  0  0  0  0  0  0  0  0  0  0  0
   -2.7460   -0.2518    0.0380 C   0  0  0  0  0  0  0  0  0  0  0  0
   -3.3569   -1.5913    0.0621 C   0  0  0  0  0  0  0  0  0  0  0  0
    1.4998   -0.1014   -0.3003 C   0  0  0  0  0  0  0  0  0  0  0  0
    2.7472   -0.2773    0.1450 C   0  0  0  0  0  0  0  0  0  0  0  0
    3.4440   -1.5582   -0.0694 C   0  0  0  0  0  0  0  0  0  0  0  0
   -2.7537   -2.6385    0.0126 O   0  0  0  0  0  0  0  0  0  0  0  0
    2.9864   -2.5117   -0.6554 O   0  0  0  0  0  0  0  0  0  0  0  0
    1.2867    4.4939   -0.0624 H   0  0  0  0  0  0  0  0  0  0  0  0
    2.4921    2.3742   -0.2666 H   0  0  0  0  0  0  0  0  0  0  0  0
   -2.4166    2.3905    0.1151 H   0  0  0  0  0  0  0  0  0  0  0  0
   -1.1922    4.4953    0.1209 H   0  0  0  0  0  0  0  0  0  0  0  0
   -0.8389   -1.0327   -0.0749 H   0  0  0  0  0  0  0  0  0  0  0  0
   -3.4174    0.5954    0.0855 H   0  0  0  0  0  0  0  0  0  0  0  0
    1.0260   -0.9335   -0.8080 H   0  0  0  0  0  0  0  0  0  0  0  0
    3.2761    0.4959    0.6886 H   0  0  0  0  0  0  0  0  0  0  0  0
   -4.6815   -1.5175    0.1450 O   0  0  0  0  0  0  0  0  0  0  0  0
    4.6581   -1.5465    0.4695 O   0  0  0  0  0  0  0  0  0  0  0  0
   -5.0615   -2.4083    0.1605 H   0  0  0  0  0  0  0  0  0  0  0  0
    5.0941   -2.3986    0.3205 H   0  0  0  0  0  0  0  0  0  0  0  0
 14 12  2  0
 12 11  1  0
 11 10  2  0
 10  3  1  0
 13  9  2  0
  3  2  1  0
  3  4  2  0
  2  1  2  0
  9  8  1  0
  7  8  2  0
  7  4  1  0
  4  5  1  0
  1  6  1  0
  5  6  2  0
  1 15  1  0
  2 16  1  0
  5 17  1  0
  6 18  1  0
  7 19  1  0
  8 20  1  0
 10 21  1  0
 11 22  1  0
  9 23  1  0
 12 24  1  0
 23 25  1  0
 24 26  1  0
M  END
