
     RDKit          3D

 53 57  0  0  0  0  0  0  0  0999 V2000
   -0.5330    2.7724   -0.1617 C   0  0  0  0  0  0  0  0  0  0  0  0
   -2.5239   -3.4537    0.0986 C   0  0  1  0  0  0  0  0  0  0  0  0
   -0.6377    1.4071   -0.2324 C   0  0  0  0  0  0  0  0  0  0  0  0
   -1.9326    0.7855   -0.2883 C   0  0  0  0  0  0  0  0  0  0  0  0
   -3.0560    1.5625   -0.3372 C   0  0  0  0  0  0  0  0  0  0  0  0
   -2.9714    2.9729   -0.2927 C   0  0  0  0  0  0  0  0  0  0  0  0
   -4.0279    4.9971   -0.2657 C   0  0  0  0  0  0  0  0  0  0  0  0
   -3.0184   -1.2557   -1.0641 C   0  0  0  0  0  0  0  0  0  0  0  0
   -2.7211   -2.7375   -1.2376 C   0  0  0  0  0  0  0  0  0  0  0  0
   -1.6957    3.5747   -0.1822 C   0  0  0  0  0  0  0  0  0  0  0  0
   -2.8104    5.6969   -0.1561 C   0  0  0  0  0  0  0  0  0  0  0  0
   -1.6446    4.9829   -0.1144 C   0  0  0  0  0  0  0  0  0  0  0  0
   -4.1152    3.6933   -0.3329 N   0  0  0  0  0  0  0  0  0  0  0  0
   -1.9498   -0.6225   -0.3036 N   0  0  0  0  0  0  0  0  0  0  0  0
   -1.4936   -2.6929    0.9332 C   0  0  0  0  0  0  0  0  0  0  0  0
   -1.8075   -1.2090    1.0324 C   0  0  0  0  0  0  0  0  0  0  0  0
   -3.8264   -3.6556    0.8750 C   0  0  0  0  0  0  0  0  0  0  0  0
   -4.7768   -4.4547    0.1182 N   0  0  0  0  0  0  0  0  0  0  0  0
    0.4247    0.5168   -0.3057 N   0  0  0  0  0  0  0  0  0  0  0  0
    1.7368    0.7113   -0.0044 C   0  0  0  0  0  0  0  0  0  0  0  0
    2.1845    1.7694    0.4057 O   0  0  0  0  0  0  0  0  0  0  0  0
    2.5753   -0.4727   -0.2012 C   0  0  0  0  0  0  0  0  0  0  0  0
    2.2865   -1.6930   -0.8360 C   0  0  0  0  0  0  0  0  0  0  0  0
    3.2987   -2.5362   -0.8274 N   0  0  0  0  0  0  0  0  0  0  0  0
    4.2708   -1.8849   -0.1822 N   0  0  0  0  0  0  0  0  0  0  0  0
    3.8981   -0.6195    0.2231 C   0  0  0  0  0  0  0  0  0  0  0  0
    4.7409    0.1756    0.8893 N   0  0  0  0  0  0  0  0  0  0  0  0
    5.9360   -0.2945    1.1348 C   0  0  0  0  0  0  0  0  0  0  0  0
    6.3729   -1.5785    0.7394 C   0  0  0  0  0  0  0  0  0  0  0  0
    5.5026   -2.3765    0.0672 C   0  0  0  0  0  0  0  0  0  0  0  0
    0.4304    3.2563   -0.1160 H   0  0  0  0  0  0  0  0  0  0  0  0
   -2.1182   -4.4515   -0.1065 H   0  0  0  0  0  0  0  0  0  0  0  0
   -4.0396    1.1138   -0.3948 H   0  0  0  0  0  0  0  0  0  0  0  0
   -4.9606    5.5508   -0.2992 H   0  0  0  0  0  0  0  0  0  0  0  0
   -3.9984   -1.1238   -0.5826 H   0  0  0  0  0  0  0  0  0  0  0  0
   -1.8139   -2.8393   -1.8407 H   0  0  0  0  0  0  0  0  0  0  0  0
   -3.5334   -3.2017   -1.7988 H   0  0  0  0  0  0  0  0  0  0  0  0
   -2.8126    6.7769   -0.1074 H   0  0  0  0  0  0  0  0  0  0  0  0
   -0.6875    5.4833   -0.0294 H   0  0  0  0  0  0  0  0  0  0  0  0
   -1.4318   -3.1091    1.9422 H   0  0  0  0  0  0  0  0  0  0  0  0
   -0.5009   -2.8175    0.4892 H   0  0  0  0  0  0  0  0  0  0  0  0
   -1.0022   -0.7001    1.5661 H   0  0  0  0  0  0  0  0  0  0  0  0
   -2.7199   -1.0404    1.6221 H   0  0  0  0  0  0  0  0  0  0  0  0
   -3.5686   -4.0946    1.8503 H   0  0  0  0  0  0  0  0  0  0  0  0
   -4.2942   -2.6925    1.0964 H   0  0  0  0  0  0  0  0  0  0  0  0
   -4.4101   -5.3927    0.0101 H   0  0  0  0  0  0  0  0  0  0  0  0
   -5.6318   -4.5553    0.6496 H   0  0  0  0  0  0  0  0  0  0  0  0
    0.1111   -0.4100   -0.5695 H   0  0  0  0  0  0  0  0  0  0  0  0
    1.3713   -1.9914   -1.3280 H   0  0  0  0  0  0  0  0  0  0  0  0
    6.6146    0.3550    1.6748 H   0  0  0  0  0  0  0  0  0  0  0  0
    7.3708   -1.9208    0.9648 H   0  0  0  0  0  0  0  0  0  0  0  0
    5.7147   -3.3750   -0.2857 H   0  0  0  0  0  0  0  0  0  0  0  0
   -3.0804   -0.7736   -2.0412 H   0  0  0  0  0  0  0  0  0  0  0  0
  7 13  2  0
  7 11  1  0
 13  6  1  0
 11 12  2  0
  6  5  2  0
  6 10  1  0
 12 10  1  0
  5  4  1  0
 10  1  2  0
  8 14  1  0
  8  9  1  0
  4 14  1  0
  4  3  2  0
  1  3  1  0
 14 16  1  0
 17 18  1  0
 17  2  1  0
  3 19  1  0
  9  2  1  0
 16 15  1  0
  2 15  1  0
 19 20  1  0
 21 20  2  0
 20 22  1  0
 27 26  1  0
 27 28  2  0
 22 26  2  0
 22 23  1  0
 26 25  1  0
 28 29  1  0
 23 24  2  0
 25 24  1  0
 25 30  1  0
 29 30  2  0
  1 31  1  0
  2 32  1  6
  5 33  1  0
  7 34  1  0
  8 53  1  0
  8 35  1  0
  9 36  1  0
  9 37  1  0
 11 38  1  0
 12 39  1  0
 15 40  1  0
 15 41  1  0
 16 42  1  0
 16 43  1  0
 17 44  1  0
 17 45  1  0
 18 46  1  0
 18 47  1  0
 19 48  1  0
 23 49  1  0
 28 50  1  0
 29 51  1  0
 30 52  1  0
M  END
