
     RDKit          3D

 31 31  0  0  0  0  0  0  0  0999 V2000
    0.5138   -2.0661   -1.3239 O   0  0  0  0  0  0  0  0  0  0  0  0
   -3.5409    2.4317   -1.4693 C   0  0  0  0  0  0  0  0  0  0  0  0
   -3.3668    2.4566    0.0428 C   0  0  0  0  0  0  0  0  0  0  0  0
   -3.2434    1.1745    0.6824 N   0  0  0  0  0  0  0  0  0  0  0  0
    2.4294    0.4753    1.7259 N   0  0  0  0  0  0  0  0  0  0  0  0
    2.5231   -0.0050    0.3663 C   0  0  2  0  0  0  0  0  0  0  0  0
    3.8819    0.3560   -0.2139 C   0  0  0  0  0  0  0  0  0  0  0  0
    4.3508    1.4762   -0.4271 O   0  0  0  0  0  0  0  0  0  0  0  0
    1.4687    0.5323   -0.6257 C   0  0  0  0  0  0  0  0  0  0  0  0
    0.1025    0.0501   -0.2938 C   0  0  0  0  0  0  0  0  0  0  0  0
   -0.2113   -1.3693   -0.6017 C   0  0  0  0  0  0  0  0  0  0  0  0
   -0.8201    0.8531    0.2636 C   0  0  0  0  0  0  0  0  0  0  0  0
   -1.4341   -1.8786    0.0081 C   0  0  0  0  0  0  0  0  0  0  0  0
   -2.1908    0.4217    0.6134 C   0  0  0  0  0  0  0  0  0  0  0  0
   -2.3563   -1.0632    0.5741 C   0  0  0  0  0  0  0  0  0  0  0  0
   -3.5044   -1.5340    1.1476 O   0  0  0  0  0  0  0  0  0  0  0  0
    4.6498   -0.7199   -0.5252 O   0  0  0  0  0  0  0  0  0  0  0  0
   -2.6454    1.9898   -1.9699 H   0  0  0  0  0  0  0  0  0  0  0  0
   -4.4395    1.8363   -1.7580 H   0  0  0  0  0  0  0  0  0  0  0  0
   -3.6760    3.4780   -1.8332 H   0  0  0  0  0  0  0  0  0  0  0  0
   -2.4975    3.1326    0.2962 H   0  0  0  0  0  0  0  0  0  0  0  0
   -4.2916    2.9162    0.5015 H   0  0  0  0  0  0  0  0  0  0  0  0
    2.2015   -0.2795    2.3426 H   0  0  0  0  0  0  0  0  0  0  0  0
    2.4303   -1.1348    0.3948 H   0  0  0  0  0  0  0  0  0  0  0  0
    1.5026    1.6537   -0.6367 H   0  0  0  0  0  0  0  0  0  0  0  0
    1.7418    0.1647   -1.6532 H   0  0  0  0  0  0  0  0  0  0  0  0
   -0.5705    1.9059    0.4883 H   0  0  0  0  0  0  0  0  0  0  0  0
   -1.5670   -2.9713   -0.0149 H   0  0  0  0  0  0  0  0  0  0  0  0
   -3.7264   -2.3858    0.7354 H   0  0  0  0  0  0  0  0  0  0  0  0
    5.5000   -0.4206   -0.8892 H   0  0  0  0  0  0  0  0  0  0  0  0
    1.7438    1.2013    1.8088 H   0  0  0  0  0  0  0  0  0  0  0  0
  1 11  2  0
  2  3  1  0
  3  4  1  0
  4 14  2  0
  5  6  1  0
  6  7  1  0
  6  9  1  0
  7  8  2  0
  7 17  1  0
  9 10  1  0
 10 11  1  0
 10 12  2  0
 11 13  1  0
 12 14  1  0
 13 15  2  0
 14 15  1  0
 15 16  1  0
  2 18  1  0
  2 19  1  0
  2 20  1  0
  3 21  1  0
  3 22  1  0
  5 31  1  0
  5 23  1  0
  6 24  1  1
  9 25  1  0
  9 26  1  0
 12 27  1  0
 13 28  1  0
 16 29  1  0
 17 30  1  0
M  END
