
     RDKit          3D

 55 59  0  0  0  0  0  0  0  0999 V2000
   -0.7803   -0.2760    1.8585 C   0  0  0  0  0  0  0  0  0  0  0  0
   -0.8936   -0.1283    0.3364 C   0  0  2  0  0  0  0  0  0  0  0  0
   -0.3694   -1.3813   -0.3542 C   0  0  0  0  0  0  0  0  0  0  0  0
    1.1450   -1.5271   -0.1775 C   0  0  0  0  0  0  0  0  0  0  0  0
    1.9145   -0.2688   -0.6016 C   0  0  2  0  0  0  0  0  0  0  0  0
    3.4181   -0.3825   -0.4245 C   0  0  0  0  0  0  0  0  0  0  0  0
    4.0731   -1.6072   -0.5522 C   0  0  0  0  0  0  0  0  0  0  0  0
    5.4472   -1.7329   -0.4260 C   0  0  0  0  0  0  0  0  0  0  0  0
    6.2161   -0.6037   -0.1654 C   0  0  0  0  0  0  0  0  0  0  0  0
    7.5597   -0.6480   -0.0289 O   0  0  0  0  0  0  0  0  0  0  0  0
    5.5853    0.6265   -0.0405 C   0  0  0  0  0  0  0  0  0  0  0  0
    4.2044    0.7489   -0.1676 C   0  0  0  0  0  0  0  0  0  0  0  0
    3.5971    2.1188    0.0098 C   0  0  0  0  0  0  0  0  0  0  0  0
    2.1458    2.2032   -0.4344 C   0  0  0  0  0  0  0  0  0  0  0  0
    1.3687    0.9997    0.0762 C   0  0  1  0  0  0  0  0  0  0  0  0
   -0.1208    1.0852   -0.1974 C   0  0  2  0  0  0  0  0  0  0  0  0
   -0.9156    2.2903    0.3111 C   0  0  0  0  0  0  0  0  0  0  0  0
   -2.3797    1.7921    0.3333 C   0  0  0  0  0  0  0  0  0  0  0  0
   -2.3183    0.2922   -0.0548 C   0  0  2  0  0  0  0  0  0  0  0  0
   -3.3503   -0.5509    0.4924 N   0  0  0  0  0  0  0  0  0  0  0  0
   -4.6638   -0.4735    0.0926 C   0  0  0  0  0  0  0  0  0  0  0  0
   -5.6563   -1.0905    0.8729 C   0  0  0  0  0  0  0  0  0  0  0  0
   -6.9830   -1.0751    0.4827 C   0  0  0  0  0  0  0  0  0  0  0  0
   -7.3733   -0.4474   -0.6960 C   0  0  0  0  0  0  0  0  0  0  0  0
   -6.4003    0.1683   -1.4703 C   0  0  0  0  0  0  0  0  0  0  0  0
   -5.0653    0.1657   -1.0890 C   0  0  0  0  0  0  0  0  0  0  0  0
   -1.3375   -1.1499    2.2044 H   0  0  0  0  0  0  0  0  0  0  0  0
    0.2475   -0.4268    2.1844 H   0  0  0  0  0  0  0  0  0  0  0  0
   -1.1595    0.5930    2.3985 H   0  0  0  0  0  0  0  0  0  0  0  0
   -0.8730   -2.2771    0.0213 H   0  0  0  0  0  0  0  0  0  0  0  0
   -0.6003   -1.3185   -1.4241 H   0  0  0  0  0  0  0  0  0  0  0  0
    1.3895   -1.7725    0.8602 H   0  0  0  0  0  0  0  0  0  0  0  0
    1.4722   -2.3831   -0.7715 H   0  0  0  0  0  0  0  0  0  0  0  0
    1.7232   -0.1334   -1.6777 H   0  0  0  0  0  0  0  0  0  0  0  0
    3.5050   -2.5040   -0.7617 H   0  0  0  0  0  0  0  0  0  0  0  0
    5.9129   -2.7067   -0.5317 H   0  0  0  0  0  0  0  0  0  0  0  0
    7.8740   -1.5518   -0.1417 H   0  0  0  0  0  0  0  0  0  0  0  0
    6.1824    1.5101    0.1588 H   0  0  0  0  0  0  0  0  0  0  0  0
    3.6616    2.3869    1.0699 H   0  0  0  0  0  0  0  0  0  0  0  0
    4.2030    2.8582   -0.5196 H   0  0  0  0  0  0  0  0  0  0  0  0
    1.7096    3.1346   -0.0660 H   0  0  0  0  0  0  0  0  0  0  0  0
    2.0801    2.2383   -1.5277 H   0  0  0  0  0  0  0  0  0  0  0  0
    1.5340    0.9292    1.1598 H   0  0  0  0  0  0  0  0  0  0  0  0
   -0.2349    1.0635   -1.2923 H   0  0  0  0  0  0  0  0  0  0  0  0
   -0.5850    2.5816    1.3112 H   0  0  0  0  0  0  0  0  0  0  0  0
   -0.7865    3.1633   -0.3297 H   0  0  0  0  0  0  0  0  0  0  0  0
   -2.8196    1.9042    1.3267 H   0  0  0  0  0  0  0  0  0  0  0  0
   -3.0156    2.3514   -0.3542 H   0  0  0  0  0  0  0  0  0  0  0  0
   -2.3746    0.2118   -1.1455 H   0  0  0  0  0  0  0  0  0  0  0  0
   -3.2374   -0.7778    1.4684 H   0  0  0  0  0  0  0  0  0  0  0  0
   -5.3731   -1.5861    1.7949 H   0  0  0  0  0  0  0  0  0  0  0  0
   -7.7214   -1.5595    1.1098 H   0  0  0  0  0  0  0  0  0  0  0  0
   -8.4116   -0.4353   -0.9993 H   0  0  0  0  0  0  0  0  0  0  0  0
   -6.6789    0.6690   -2.3893 H   0  0  0  0  0  0  0  0  0  0  0  0
   -4.3422    0.6692   -1.7171 H   0  0  0  0  0  0  0  0  0  0  0  0
 10  9  1  0
  8  9  2  0
  8  7  1  0
  9 11  1  0
  7  6  2  0
 11 12  2  0
  6 12  1  0
  6  5  1  0
 12 13  1  0
 13 14  1  0
  5  4  1  0
  5 15  1  0
  4  3  1  0
 14 15  1  0
  3  2  1  0
 15 16  1  0
 16  2  1  0
 16 17  1  0
  2  1  1  1
  2 19  1  0
 19 20  1  0
 19 18  1  0
 17 18  1  0
 20 21  1  0
 21 22  2  0
 21 26  1  0
 22 23  1  0
 26 25  2  0
 23 24  2  0
 25 24  1  0
  1 27  1  0
  1 28  1  0
  1 29  1  0
  3 30  1  0
  3 31  1  0
  4 32  1  0
  4 33  1  0
  5 34  1  6
  7 35  1  0
  8 36  1  0
 10 37  1  0
 11 38  1  0
 13 39  1  0
 13 40  1  0
 14 41  1  0
 14 42  1  0
 15 43  1  1
 16 44  1  6
 17 45  1  0
 17 46  1  0
 18 47  1  0
 18 48  1  0
 19 49  1  6
 20 50  1  0
 22 51  1  0
 23 52  1  0
 24 53  1  0
 25 54  1  0
 26 55  1  0
M  END
