
     RDKit          3D

 47 48  0  0  0  0  0  0  0  0999 V2000
    3.6433   -0.8136    1.2800 O   0  0  0  0  0  0  0  0  0  0  0  0
    3.6865   -1.3820    0.2195 C   0  0  0  0  0  0  0  0  0  0  0  0
    4.7111   -2.1018   -0.2034 O   0  0  0  0  0  0  0  0  0  0  0  0
    5.8556   -2.2282    0.6582 C   0  0  0  0  0  0  0  0  0  0  0  0
    6.8918   -3.0454   -0.0734 C   0  0  0  0  0  0  0  0  0  0  0  0
    2.5873   -1.3690   -0.8164 C   0  0  0  0  0  0  0  0  0  0  0  0
    1.4834   -0.5686   -0.3683 N   0  0  0  0  0  0  0  0  0  0  0  0
    0.2687   -0.7036   -0.9751 C   0  0  0  0  0  0  0  0  0  0  0  0
    0.0818   -1.5095   -1.8822 O   0  0  0  0  0  0  0  0  0  0  0  0
   -0.7273    0.0947   -0.4913 N   0  0  0  0  0  0  0  0  0  0  0  0
   -0.6214    0.8314    0.7536 C   0  0  0  0  0  0  0  0  0  0  0  0
   -0.0481    2.1983    0.5826 C   0  0  0  0  0  0  0  0  0  0  0  0
   -0.6557    3.4269    0.5569 C   0  0  0  0  0  0  0  0  0  0  0  0
    0.3493    4.2874    0.3240 N   0  0  0  0  0  0  0  0  0  0  0  0
    0.2947    5.7313    0.2494 C   0  0  0  0  0  0  0  0  0  0  0  0
    1.5000    3.6525    0.2150 N   0  0  0  0  0  0  0  0  0  0  0  0
    1.2705    2.3940    0.3691 N   0  0  0  0  0  0  0  0  0  0  0  0
   -1.9780    0.2270   -1.2166 C   0  0  0  0  0  0  0  0  0  0  0  0
   -3.1249   -0.4902   -0.5552 C   0  0  0  0  0  0  0  0  0  0  0  0
   -4.2315    0.1988   -0.0733 C   0  0  0  0  0  0  0  0  0  0  0  0
   -5.2887   -0.4596    0.5387 C   0  0  0  0  0  0  0  0  0  0  0  0
   -5.2673   -1.8487    0.6939 C   0  0  0  0  0  0  0  0  0  0  0  0
   -6.2832   -2.5097    1.3520 N   0  0  0  0  0  0  0  0  0  0  0  0
   -4.1524   -2.5469    0.2077 C   0  0  0  0  0  0  0  0  0  0  0  0
   -3.1085   -1.8763   -0.4019 C   0  0  0  0  0  0  0  0  0  0  0  0
    6.2413   -1.2373    0.9039 H   0  0  0  0  0  0  0  0  0  0  0  0
    5.5585   -2.7145    1.5892 H   0  0  0  0  0  0  0  0  0  0  0  0
    7.2025   -2.5601   -0.9984 H   0  0  0  0  0  0  0  0  0  0  0  0
    7.7722   -3.1544    0.5591 H   0  0  0  0  0  0  0  0  0  0  0  0
    6.5233   -4.0437   -0.3088 H   0  0  0  0  0  0  0  0  0  0  0  0
    3.0114   -1.0244   -1.7673 H   0  0  0  0  0  0  0  0  0  0  0  0
    2.2610   -2.3970   -0.9828 H   0  0  0  0  0  0  0  0  0  0  0  0
    1.7244    0.3297    0.0341 H   0  0  0  0  0  0  0  0  0  0  0  0
   -1.6195    0.9050    1.1889 H   0  0  0  0  0  0  0  0  0  0  0  0
   -0.0257    0.2622    1.4694 H   0  0  0  0  0  0  0  0  0  0  0  0
   -1.6789    3.7369    0.6846 H   0  0  0  0  0  0  0  0  0  0  0  0
    0.5441    6.1714    1.2126 H   0  0  0  0  0  0  0  0  0  0  0  0
    0.9987    6.0770   -0.5016 H   0  0  0  0  0  0  0  0  0  0  0  0
   -0.7082    6.0336   -0.0350 H   0  0  0  0  0  0  0  0  0  0  0  0
   -2.2164    1.2915   -1.3088 H   0  0  0  0  0  0  0  0  0  0  0  0
   -1.8267   -0.1420   -2.2295 H   0  0  0  0  0  0  0  0  0  0  0  0
   -4.2795    1.2773   -0.1795 H   0  0  0  0  0  0  0  0  0  0  0  0
   -6.1365    0.1080    0.9048 H   0  0  0  0  0  0  0  0  0  0  0  0
   -7.1729   -2.0373    1.3669 H   0  0  0  0  0  0  0  0  0  0  0  0
   -6.3857   -3.4864    1.1271 H   0  0  0  0  0  0  0  0  0  0  0  0
   -4.1112   -3.6253    0.3097 H   0  0  0  0  0  0  0  0  0  0  0  0
   -2.2635   -2.4428   -0.7750 H   0  0  0  0  0  0  0  0  0  0  0  0
 23 22  1  0
 22 21  1  0
 22 24  2  0
 21 20  2  0
 24 25  1  0
 20 19  1  0
 25 19  2  0
 19 18  1  0
 18 10  1  0
  9  8  2  0
 10  8  1  0
 10 11  1  0
  8  7  1  0
  1  2  2  0
  4  5  1  0
  4  3  1  0
 11 12  1  0
 13 12  2  0
 13 14  1  0
  2  3  1  0
  2  6  1  0
 12 17  1  0
  7  6  1  0
 14 15  1  0
 14 16  1  0
 17 16  2  0
  4 26  1  0
  4 27  1  0
  5 28  1  0
  5 29  1  0
  5 30  1  0
  6 31  1  0
  6 32  1  0
  7 33  1  0
 11 34  1  0
 11 35  1  0
 13 36  1  0
 15 37  1  0
 15 38  1  0
 15 39  1  0
 18 40  1  0
 18 41  1  0
 20 42  1  0
 21 43  1  0
 23 44  1  0
 23 45  1  0
 24 46  1  0
 25 47  1  0
M  END
