
     RDKit          3D

 25 25  0  0  0  0  0  0  0  0999 V2000
    2.3985   -2.3724    0.2166 F   0  0  0  0  0  0  0  0  0  0  0  0
    2.5559   -1.0564    0.0263 C   0  0  0  0  0  0  0  0  0  0  0  0
    3.8116   -0.5661   -0.2683 C   0  0  0  0  0  0  0  0  0  0  0  0
    3.9522    0.8004   -0.4692 C   0  0  0  0  0  0  0  0  0  0  0  0
    2.8596    1.6509   -0.3840 C   0  0  0  0  0  0  0  0  0  0  0  0
    1.6247    1.1034   -0.0951 C   0  0  0  0  0  0  0  0  0  0  0  0
    0.5620    1.9139   -0.0012 F   0  0  0  0  0  0  0  0  0  0  0  0
    1.4311   -0.2518    0.1144 C   0  0  0  0  0  0  0  0  0  0  0  0
    0.0958   -0.8238    0.5129 C   0  0  0  0  0  0  0  0  0  0  0  0
   -0.0716   -1.2456    1.6517 O   0  0  0  0  0  0  0  0  0  0  0  0
   -0.8024   -0.8349   -0.4607 N   0  0  0  0  0  0  0  0  0  0  0  0
   -2.2114   -1.1842   -0.3136 C   0  0  0  0  0  0  0  0  0  0  0  0
   -3.1978    0.1415   -0.2079 B   0  0  1  0  0  0  0  0  0  0  0  0
   -3.0185    1.0439   -1.3597 O   0  0  0  0  0  0  0  0  0  0  0  0
   -4.6080   -0.2763   -0.2994 O   0  0  0  0  0  0  0  0  0  0  0  0
   -2.8659    0.7957    1.0694 O   0  0  0  0  0  0  0  0  0  0  0  0
    4.6578   -1.2359   -0.3381 H   0  0  0  0  0  0  0  0  0  0  0  0
    4.9275    1.2072   -0.6973 H   0  0  0  0  0  0  0  0  0  0  0  0
    2.9644    2.7166   -0.5343 H   0  0  0  0  0  0  0  0  0  0  0  0
   -0.5210   -0.4578   -1.3514 H   0  0  0  0  0  0  0  0  0  0  0  0
   -2.4694   -1.8025   -1.1806 H   0  0  0  0  0  0  0  0  0  0  0  0
   -2.2962   -1.8385    0.5579 H   0  0  0  0  0  0  0  0  0  0  0  0
   -2.1558    1.4599   -1.2976 H   0  0  0  0  0  0  0  0  0  0  0  0
   -4.7695   -0.9802    0.3325 H   0  0  0  0  0  0  0  0  0  0  0  0
   -3.3927    1.5958    1.1544 H   0  0  0  0  0  0  0  0  0  0  0  0
  1  2  1  0
  2  3  2  0
  2  8  1  0
  3  4  1  0
  4  5  2  0
  5  6  1  0
  6  7  1  0
  6  8  2  0
  8  9  1  0
  9 10  2  0
  9 11  1  0
 11 12  1  0
 12 13  1  0
 13 14  1  6
 13 15  1  0
 13 16  1  0
  3 17  1  0
  4 18  1  0
  5 19  1  0
 11 20  1  0
 12 21  1  0
 12 22  1  0
 14 23  1  0
 15 24  1  0
 16 25  1  0
M  CHG  1  13  -1
M  END
