
     RDKit          3D

 18 19  0  0  0  0  0  0  0  0999 V2000
    1.7630    1.2405   -0.0015 C   0  0  0  0  0  0  0  0  0  0  0  0
    2.7194    0.2580   -0.0124 C   0  0  0  0  0  0  0  0  0  0  0  0
    2.3517   -1.0982   -0.0268 C   0  0  0  0  0  0  0  0  0  0  0  0
    1.0253   -1.4508   -0.0291 C   0  0  0  0  0  0  0  0  0  0  0  0
    0.0283   -0.4586   -0.0167 C   0  0  0  0  0  0  0  0  0  0  0  0
    0.3941    0.9032   -0.0033 C   0  0  0  0  0  0  0  0  0  0  0  0
   -0.5327    1.8999    0.0072 N   0  0  0  0  0  0  0  0  0  0  0  0
   -1.7779    1.5169    0.0045 C   0  0  0  0  0  0  0  0  0  0  0  0
   -2.2599    0.2690   -0.0067 N   0  0  0  0  0  0  0  0  0  0  0  0
   -1.3866   -0.7250   -0.0172 C   0  0  0  0  0  0  0  0  0  0  0  0
   -1.8656   -1.9693   -0.0339 N   0  0  0  0  0  0  0  0  0  0  0  0
    2.0358    2.2881    0.0085 H   0  0  0  0  0  0  0  0  0  0  0  0
    3.7681    0.5254   -0.0110 H   0  0  0  0  0  0  0  0  0  0  0  0
    3.1153   -1.8636   -0.0366 H   0  0  0  0  0  0  0  0  0  0  0  0
    0.7677   -2.5020   -0.0414 H   0  0  0  0  0  0  0  0  0  0  0  0
   -2.5292    2.3008    0.0131 H   0  0  0  0  0  0  0  0  0  0  0  0
   -1.2807   -2.7846   -0.0066 H   0  0  0  0  0  0  0  0  0  0  0  0
   -2.8611   -2.1126   -0.0118 H   0  0  0  0  0  0  0  0  0  0  0  0
  3  4  2  0
  3  2  1  0
  4  5  1  0
  2  1  2  0
 11 10  1  0
  5 10  1  0
  5  6  2  0
  1  6  1  0
 10  9  2  0
  6  7  1  0
  9  8  1  0
  7  8  2  0
  1 12  1  0
  2 13  1  0
  3 14  1  0
  4 15  1  0
  8 16  1  0
 11 17  1  0
 11 18  1  0
M  END
