
     RDKit          3D

 23 25  0  0  0  0  0  0  0  0999 V2000
    3.6890    0.0132   -0.0855 N   0  0  0  0  0  0  0  0  0  0  0  0
    2.3417    0.0638   -0.0235 C   0  0  0  0  0  0  0  0  0  0  0  0
    1.6962   -1.1347   -0.0101 N   0  0  0  0  0  0  0  0  0  0  0  0
    1.7338    1.2105   -0.0189 N   0  0  0  0  0  0  0  0  0  0  0  0
    0.3590    1.2189   -0.0099 C   0  0  0  0  0  0  0  0  0  0  0  0
   -0.3370    2.4160   -0.0146 C   0  0  0  0  0  0  0  0  0  0  0  0
   -1.7395    2.4187    0.0023 C   0  0  0  0  0  0  0  0  0  0  0  0
   -2.4665    1.2532    0.0235 C   0  0  0  0  0  0  0  0  0  0  0  0
   -1.8001    0.0069    0.0279 C   0  0  0  0  0  0  0  0  0  0  0  0
   -0.3849    0.0067    0.0097 C   0  0  0  0  0  0  0  0  0  0  0  0
   -2.4730   -1.2391    0.0493 C   0  0  0  0  0  0  0  0  0  0  0  0
   -1.7598   -2.4099    0.0517 C   0  0  0  0  0  0  0  0  0  0  0  0
   -0.3541   -2.4196    0.0326 C   0  0  0  0  0  0  0  0  0  0  0  0
    0.3177   -1.2183    0.0118 C   0  0  0  0  0  0  0  0  0  0  0  0
    4.1716   -0.8214    0.2046 H   0  0  0  0  0  0  0  0  0  0  0  0
    4.1743    0.8740    0.1044 H   0  0  0  0  0  0  0  0  0  0  0  0
    2.2317   -1.9893   -0.0380 H   0  0  0  0  0  0  0  0  0  0  0  0
    0.2132    3.3481   -0.0302 H   0  0  0  0  0  0  0  0  0  0  0  0
   -2.2591    3.3691   -0.0013 H   0  0  0  0  0  0  0  0  0  0  0  0
   -3.5489    1.2782    0.0373 H   0  0  0  0  0  0  0  0  0  0  0  0
   -3.5555   -1.2564    0.0637 H   0  0  0  0  0  0  0  0  0  0  0  0
   -2.2852   -3.3564    0.0687 H   0  0  0  0  0  0  0  0  0  0  0  0
    0.1901   -3.3556    0.0340 H   0  0  0  0  0  0  0  0  0  0  0  0
  7  8  2  0
  7  6  1  0
  8  9  1  0
  6  5  2  0
  9 11  2  0
  9 10  1  0
  5 10  1  0
  5  4  1  0
 11 12  1  0
 10 14  2  0
  4  2  2  0
 12 13  2  0
 14 13  1  0
 14  3  1  0
  2  3  1  0
  2  1  1  0
  1 15  1  0
  1 16  1  0
  3 17  1  0
  6 18  1  0
  7 19  1  0
  8 20  1  0
 11 21  1  0
 12 22  1  0
 13 23  1  0
M  END
