
     RDKit          3D

 23 22  0  0  0  0  0  0  0  0999 V2000
    1.4479   -0.3995    1.5838 N   0  0  0  0  0  0  0  0  0  0  0  0
    0.2334    0.2651    1.1596 C   0  0  2  0  0  0  0  0  0  0  0  0
   -0.8316    0.1147    2.2420 C   0  0  0  0  0  0  0  0  0  0  0  0
   -1.3909    1.0098    2.8774 O   0  0  0  0  0  0  0  0  0  0  0  0
   -0.4007   -0.2249   -0.1555 C   0  0  0  0  0  0  0  0  0  0  0  0
    0.3480    0.2691   -1.3628 C   0  0  0  0  0  0  0  0  0  0  0  0
   -0.6770   -0.0400   -2.7723 S   0  0  0  0  0  0  0  0  0  0  0  0
    0.3996    0.3349   -4.1013 C   0  0  0  0  0  0  0  0  0  0  0  0
   -1.1879   -1.1681    2.5197 O   0  0  0  0  0  0  0  0  0  0  0  0
    2.6065    0.4369    1.7152 C   0  0  0  0  0  0  0  0  0  0  0  0
    1.6239   -1.2142    1.0293 H   0  0  0  0  0  0  0  0  0  0  0  0
    0.4343    1.3768    1.0726 H   0  0  0  0  0  0  0  0  0  0  0  0
   -0.4414   -1.3471   -0.1548 H   0  0  0  0  0  0  0  0  0  0  0  0
   -1.4603    0.1487   -0.1888 H   0  0  0  0  0  0  0  0  0  0  0  0
    0.5660    1.3623   -1.2777 H   0  0  0  0  0  0  0  0  0  0  0  0
    1.3235   -0.2636   -1.4742 H   0  0  0  0  0  0  0  0  0  0  0  0
   -0.1867    0.1614   -5.0338 H   0  0  0  0  0  0  0  0  0  0  0  0
    0.7377    1.3950   -4.0780 H   0  0  0  0  0  0  0  0  0  0  0  0
    1.2969   -0.3236   -4.1100 H   0  0  0  0  0  0  0  0  0  0  0  0
   -1.8665   -1.1749    3.2155 H   0  0  0  0  0  0  0  0  0  0  0  0
    3.4555   -0.1981    2.0827 H   0  0  0  0  0  0  0  0  0  0  0  0
    2.9227    0.9354    0.7575 H   0  0  0  0  0  0  0  0  0  0  0  0
    2.4021    1.2370    2.4747 H   0  0  0  0  0  0  0  0  0  0  0  0
  1  2  1  0
  1 10  1  0
  1 11  1  0
  2  3  1  0
  2  5  1  0
  2 12  1  6
  3  4  2  0
  3  9  1  0
  5  6  1  0
  5 13  1  0
  5 14  1  0
  6  7  1  0
  6 15  1  0
  6 16  1  0
  7  8  1  0
  8 17  1  0
  8 18  1  0
  8 19  1  0
  9 20  1  0
 10 21  1  0
 10 22  1  0
 10 23  1  0
M  END
