
     RDKit          3D

 57 61  0  0  0  0  0  0  0  0999 V2000
   -2.5416   -1.3730    8.0973 N   0  0  0  0  0  0  0  0  0  0  0  0
   -1.6550   -0.7883    7.2831 C   0  0  0  0  0  0  0  0  0  0  0  0
   -0.7806    0.0566    7.9164 N   0  0  0  0  0  0  0  0  0  0  0  0
    0.1300    0.6673    7.2263 C   0  0  0  0  0  0  0  0  0  0  0  0
    0.9851    1.4882    7.7907 O   0  0  0  0  0  0  0  0  0  0  0  0
    0.2005    0.4419    5.8286 C   0  0  0  0  0  0  0  0  0  0  0  0
    0.9832    0.8896    4.8549 N   0  0  0  0  0  0  0  0  0  0  0  0
    0.5112    0.2884    3.8010 N   0  0  0  0  0  0  0  0  0  0  0  0
   -0.5189   -0.5238    3.9815 N   0  0  0  0  0  0  0  0  0  0  0  0
   -0.7453   -0.4461    5.2890 C   0  0  0  0  0  0  0  0  0  0  0  0
   -1.6908   -1.0779    5.9956 N   0  0  0  0  0  0  0  0  0  0  0  0
    1.0746    0.4892    2.5203 C   0  0  0  0  0  0  0  0  0  0  0  0
    2.0696    1.4455    2.3501 C   0  0  0  0  0  0  0  0  0  0  0  0
    2.6132    1.6306    1.0912 C   0  0  0  0  0  0  0  0  0  0  0  0
    2.1831    0.8679    0.0146 C   0  0  0  0  0  0  0  0  0  0  0  0
    1.1899   -0.0892    0.1970 C   0  0  0  0  0  0  0  0  0  0  0  0
    0.6207   -0.2679    1.4523 C   0  0  0  0  0  0  0  0  0  0  0  0
    0.6587   -0.9154   -0.9324 C   0  0  0  0  0  0  0  0  0  0  0  0
   -0.5057   -1.2862   -0.9459 O   0  0  0  0  0  0  0  0  0  0  0  0
    1.5448   -1.2082   -1.8964 N   0  0  0  0  0  0  0  0  0  0  0  0
    1.1929   -1.8374   -3.1487 C   0  0  0  0  0  0  0  0  0  0  0  0
    1.8213   -1.1050   -4.3053 C   0  0  0  0  0  0  0  0  0  0  0  0
    2.8347   -1.7152   -5.0338 C   0  0  0  0  0  0  0  0  0  0  0  0
    3.4623   -1.0597   -6.0863 C   0  0  0  0  0  0  0  0  0  0  0  0
    3.0791    0.2276   -6.4256 C   0  0  0  0  0  0  0  0  0  0  0  0
    2.0583    0.8490   -5.7177 C   0  0  0  0  0  0  0  0  0  0  0  0
    1.4302    0.1904   -4.6678 C   0  0  0  0  0  0  0  0  0  0  0  0
    0.1672    1.0574   -3.7770 S   0  0  0  0  0  0  0  0  0  0  0  0
   -1.3282    0.2868   -4.3456 C   0  0  0  0  0  0  0  0  0  0  0  0
   -1.3646   -0.5192   -5.4778 C   0  0  0  0  0  0  0  0  0  0  0  0
   -2.5601   -1.0893   -5.8912 C   0  0  0  0  0  0  0  0  0  0  0  0
   -3.7247   -0.8424   -5.1825 C   0  0  0  0  0  0  0  0  0  0  0  0
   -3.6887   -0.0273   -4.0586 C   0  0  0  0  0  0  0  0  0  0  0  0
   -2.5002    0.5446   -3.6196 C   0  0  0  0  0  0  0  0  0  0  0  0
   -2.4508    1.4129   -2.3917 C   0  0  0  0  0  0  0  0  0  0  0  0
   -3.7385    1.5723   -1.8579 O   0  0  0  0  0  0  0  0  0  0  0  0
   -2.5998   -1.0984    9.0614 H   0  0  0  0  0  0  0  0  0  0  0  0
   -3.2820   -1.9342    7.7145 H   0  0  0  0  0  0  0  0  0  0  0  0
    0.8081    1.5425    8.7421 H   0  0  0  0  0  0  0  0  0  0  0  0
    2.4114    2.0429    3.1829 H   0  0  0  0  0  0  0  0  0  0  0  0
    3.3759    2.3837    0.9496 H   0  0  0  0  0  0  0  0  0  0  0  0
    2.6095    1.0485   -0.9638 H   0  0  0  0  0  0  0  0  0  0  0  0
   -0.1625   -0.9989    1.5915 H   0  0  0  0  0  0  0  0  0  0  0  0
    2.5163   -0.9837   -1.7544 H   0  0  0  0  0  0  0  0  0  0  0  0
    0.1064   -1.8499   -3.2322 H   0  0  0  0  0  0  0  0  0  0  0  0
    1.5233   -2.8787   -3.1579 H   0  0  0  0  0  0  0  0  0  0  0  0
    3.1431   -2.7193   -4.7687 H   0  0  0  0  0  0  0  0  0  0  0  0
    4.2513   -1.5571   -6.6346 H   0  0  0  0  0  0  0  0  0  0  0  0
    3.5631    0.7489   -7.2405 H   0  0  0  0  0  0  0  0  0  0  0  0
    1.7421    1.8487   -5.9851 H   0  0  0  0  0  0  0  0  0  0  0  0
   -0.4613   -0.7079   -6.0426 H   0  0  0  0  0  0  0  0  0  0  0  0
   -2.5735   -1.7199   -6.7706 H   0  0  0  0  0  0  0  0  0  0  0  0
   -4.6618   -1.2813   -5.4991 H   0  0  0  0  0  0  0  0  0  0  0  0
   -4.6033    0.1586   -3.5134 H   0  0  0  0  0  0  0  0  0  0  0  0
   -2.0068    2.3845   -2.6551 H   0  0  0  0  0  0  0  0  0  0  0  0
   -1.7692    0.9461   -1.6683 H   0  0  0  0  0  0  0  0  0  0  0  0
   -3.6612    2.0759   -1.0429 H   0  0  0  0  0  0  0  0  0  0  0  0
  1  2  1  0
  1 37  1  0
  1 38  1  0
  2  3  1  0
  2 11  2  0
  3  4  2  0
  4  5  1  0
  4  6  1  0
  5 39  1  0
  6  7  2  0
  6 10  1  0
  7  8  1  0
  8  9  1  0
  8 12  1  0
  9 10  2  0
 10 11  1  0
 12 13  2  0
 12 17  1  0
 13 14  1  0
 13 40  1  0
 14 15  2  0
 14 41  1  0
 15 16  1  0
 15 42  1  0
 16 17  2  0
 16 18  1  0
 17 43  1  0
 18 19  2  0
 18 20  1  0
 20 21  1  0
 20 44  1  0
 21 22  1  0
 21 45  1  0
 21 46  1  0
 22 23  2  0
 22 27  1  0
 23 24  1  0
 23 47  1  0
 24 25  2  0
 24 48  1  0
 25 26  1  0
 25 49  1  0
 26 27  2  0
 26 50  1  0
 27 28  1  0
 28 29  1  0
 29 30  2  0
 29 34  1  0
 30 31  1  0
 30 51  1  0
 31 32  2  0
 31 52  1  0
 32 33  1  0
 32 53  1  0
 33 34  2  0
 33 54  1  0
 34 35  1  0
 35 36  1  0
 35 55  1  0
 35 56  1  0
 36 57  1  0
M  END
