
     RDKit          3D

 54 58  0  0  0  0  0  0  0  0999 V2000
   -2.8903   -3.5243    0.5151 O   0  0  0  0  0  0  0  0  0  0  0  0
   -1.8373   -2.7207    0.4400 C   0  0  0  0  0  0  0  0  0  0  0  0
   -0.6954   -3.1140    0.4695 O   0  0  0  0  0  0  0  0  0  0  0  0
   -2.1928   -1.2970    0.3812 C   0  0  0  0  0  0  0  0  0  0  0  0
   -3.3959   -0.8039   -0.1080 N   0  0  0  0  0  0  0  0  0  0  0  0
   -3.4135    0.5364    0.1229 C   0  0  0  0  0  0  0  0  0  0  0  0
   -4.2580   -1.4861   -1.0764 C   0  0  0  0  0  0  0  0  0  0  0  0
   -4.5286   -0.6286   -2.3102 C   0  0  0  0  0  0  0  0  0  0  0  0
   -5.7301    0.3035   -2.2435 C   0  0  0  0  0  0  0  0  0  0  0  0
   -6.0453    1.1318   -0.6617 S   0  0  0  0  0  0  0  0  0  0  0  0
   -6.5581    0.0810    0.2963 O   0  0  0  0  0  0  0  0  0  0  0  0
   -4.3819    1.5118   -0.1625 C   0  0  0  0  0  0  0  0  0  0  0  0
   -4.1138    2.8235    0.1776 C   0  0  0  0  0  0  0  0  0  0  0  0
   -2.9012    3.1934    0.7781 C   0  0  0  0  0  0  0  0  0  0  0  0
   -1.9557    2.2396    1.0822 C   0  0  0  0  0  0  0  0  0  0  0  0
   -2.2046    0.9033    0.7503 C   0  0  0  0  0  0  0  0  0  0  0  0
   -1.4344   -0.2832    0.9125 C   0  0  0  0  0  0  0  0  0  0  0  0
   -0.0883   -0.3490    1.5537 C   0  0  0  0  0  0  0  0  0  0  0  0
    1.0436   -0.1804    0.5380 C   0  0  0  0  0  0  0  0  0  0  0  0
    2.3933   -0.2774    1.2175 C   0  0  0  0  0  0  0  0  0  0  0  0
    3.3944   -0.0395    0.2415 O   0  0  0  0  0  0  0  0  0  0  0  0
    4.6847   -0.0393    0.6125 C   0  0  0  0  0  0  0  0  0  0  0  0
    5.6148    0.2732   -0.4258 C   0  0  0  0  0  0  0  0  0  0  0  0
    5.1989    0.5675   -1.7452 C   0  0  0  0  0  0  0  0  0  0  0  0
    6.1185    0.8653   -2.7159 C   0  0  0  0  0  0  0  0  0  0  0  0
    7.4941    0.8831   -2.4139 C   0  0  0  0  0  0  0  0  0  0  0  0
    7.9213    0.6040   -1.1443 C   0  0  0  0  0  0  0  0  0  0  0  0
    6.9993    0.2928   -0.1177 C   0  0  0  0  0  0  0  0  0  0  0  0
    7.4305    0.0047    1.2003 C   0  0  0  0  0  0  0  0  0  0  0  0
    6.5125   -0.2875    2.1670 C   0  0  0  0  0  0  0  0  0  0  0  0
    5.1307   -0.3116    1.8829 C   0  0  0  0  0  0  0  0  0  0  0  0
   -2.5988   -4.4488    0.5379 H   0  0  0  0  0  0  0  0  0  0  0  0
   -3.7380   -2.3800   -1.4015 H   0  0  0  0  0  0  0  0  0  0  0  0
   -5.1820   -1.8022   -0.5957 H   0  0  0  0  0  0  0  0  0  0  0  0
   -3.6288   -0.0643   -2.5615 H   0  0  0  0  0  0  0  0  0  0  0  0
   -4.6997   -1.3008   -3.1529 H   0  0  0  0  0  0  0  0  0  0  0  0
   -5.6439    1.0973   -2.9873 H   0  0  0  0  0  0  0  0  0  0  0  0
   -6.6641   -0.2273   -2.4392 H   0  0  0  0  0  0  0  0  0  0  0  0
   -4.8668    3.5806   -0.0039 H   0  0  0  0  0  0  0  0  0  0  0  0
   -2.7265    4.2319    1.0232 H   0  0  0  0  0  0  0  0  0  0  0  0
   -1.0311    2.5223    1.5702 H   0  0  0  0  0  0  0  0  0  0  0  0
   -0.0149    0.4375    2.3096 H   0  0  0  0  0  0  0  0  0  0  0  0
    0.0348   -1.2945    2.0838 H   0  0  0  0  0  0  0  0  0  0  0  0
    0.9596   -0.9520   -0.2295 H   0  0  0  0  0  0  0  0  0  0  0  0
    0.9531    0.7887    0.0404 H   0  0  0  0  0  0  0  0  0  0  0  0
    2.4731    0.4585    2.0264 H   0  0  0  0  0  0  0  0  0  0  0  0
    2.5223   -1.2711    1.6621 H   0  0  0  0  0  0  0  0  0  0  0  0
    4.1464    0.5623   -1.9932 H   0  0  0  0  0  0  0  0  0  0  0  0
    5.7872    1.0909   -3.7211 H   0  0  0  0  0  0  0  0  0  0  0  0
    8.2114    1.1195   -3.1891 H   0  0  0  0  0  0  0  0  0  0  0  0
    8.9785    0.6186   -0.9076 H   0  0  0  0  0  0  0  0  0  0  0  0
    8.4895    0.0192    1.4262 H   0  0  0  0  0  0  0  0  0  0  0  0
    6.8364   -0.5091    3.1756 H   0  0  0  0  0  0  0  0  0  0  0  0
    4.4420   -0.5474    2.6824 H   0  0  0  0  0  0  0  0  0  0  0  0
  3  2  2  0
  2  1  1  0
  2  4  1  0
 18 17  1  0
 18 19  1  0
  4 17  2  0
  4  5  1  0
 17 16  1  0
 19 20  1  0
  8  7  1  0
  8  9  1  0
  5  7  1  0
  5  6  1  0
 25 24  2  0
 25 26  1  0
 16  6  2  0
 16 15  1  0
 24 23  1  0
  6 12  1  0
 15 14  2  0
 10  9  1  6
 21 20  1  0
 21 22  1  0
 26 27  2  0
 12 13  2  0
 12 10  1  0
 14 13  1  0
 23 22  2  0
 23 28  1  0
 10 11  2  0
 22 31  1  0
 27 28  1  0
 28 29  2  0
 31 30  2  0
 29 30  1  0
  1 32  1  0
  7 33  1  0
  7 34  1  0
  8 35  1  0
  8 36  1  0
  9 37  1  0
  9 38  1  0
 13 39  1  0
 14 40  1  0
 15 41  1  0
 18 42  1  0
 18 43  1  0
 19 44  1  0
 19 45  1  0
 20 46  1  0
 20 47  1  0
 24 48  1  0
 25 49  1  0
 26 50  1  0
 27 51  1  0
 29 52  1  0
 30 53  1  0
 31 54  1  0
M  END
