
     RDKit          3D

 21 22  0  0  0  0  0  0  0  0999 V2000
    2.3753    0.6655    0.3807 C   0  0  0  0  0  0  0  0  0  0  0  0
    1.1909    1.5145   -0.0496 C   0  0  0  0  0  0  0  0  0  0  0  0
   -0.0934    0.7272   -0.0217 C   0  0  0  0  0  0  0  0  0  0  0  0
   -1.3242    1.3831   -0.0494 C   0  0  0  0  0  0  0  0  0  0  0  0
   -2.5158    0.6767   -0.0298 C   0  0  0  0  0  0  0  0  0  0  0  0
   -2.4900   -0.7126    0.0197 C   0  0  0  0  0  0  0  0  0  0  0  0
   -1.2724   -1.3726    0.0482 C   0  0  0  0  0  0  0  0  0  0  0  0
   -0.0703   -0.6675    0.0247 C   0  0  0  0  0  0  0  0  0  0  0  0
    1.2371   -1.4152    0.0882 C   0  0  0  0  0  0  0  0  0  0  0  0
    2.3382   -0.5853   -0.3544 N   0  0  0  0  0  0  0  0  0  0  0  0
    3.3078    1.1846    0.1555 H   0  0  0  0  0  0  0  0  0  0  0  0
    2.3444    0.5156    1.4721 H   0  0  0  0  0  0  0  0  0  0  0  0
    1.1051    2.3939    0.5929 H   0  0  0  0  0  0  0  0  0  0  0  0
    1.3655    1.8865   -1.0639 H   0  0  0  0  0  0  0  0  0  0  0  0
   -1.3448    2.4667   -0.0829 H   0  0  0  0  0  0  0  0  0  0  0  0
   -3.4601    1.2058   -0.0517 H   0  0  0  0  0  0  0  0  0  0  0  0
   -3.4131   -1.2778    0.0345 H   0  0  0  0  0  0  0  0  0  0  0  0
   -1.2514   -2.4562    0.0847 H   0  0  0  0  0  0  0  0  0  0  0  0
    1.3725   -1.7795    1.1206 H   0  0  0  0  0  0  0  0  0  0  0  0
    1.1818   -2.3037   -0.5459 H   0  0  0  0  0  0  0  0  0  0  0  0
    3.2049   -1.0890   -0.2228 H   0  0  0  0  0  0  0  0  0  0  0  0
  5  6  2  0
  5  4  1  0
  6  7  1  0
  4  3  2  0
  7  8  2  0
  3  8  1  0
  3  2  1  0
  8  9  1  0
  2  1  1  0
  9 10  1  0
  1 10  1  0
  1 11  1  0
  1 12  1  0
  2 13  1  0
  2 14  1  0
  4 15  1  0
  5 16  1  0
  6 17  1  0
  7 18  1  0
  9 19  1  0
  9 20  1  0
 10 21  1  0
M  END
