
     RDKit          3D

 36 38  0  0  0  0  0  0  0  0999 V2000
    0.0356    0.3952    0.3234 C   0  0  0  0  0  0  0  0  0  0  0  0
    4.8878   -0.3013   -0.3147 C   0  0  0  0  0  0  0  0  0  0  0  0
    4.4415    2.0866   -0.2000 C   0  0  0  0  0  0  0  0  0  0  0  0
   -4.8933    0.4079   -1.5716 C   0  0  0  0  0  0  0  0  0  0  0  0
   -5.9674    1.7372    0.0917 C   0  0  0  0  0  0  0  0  0  0  0  0
   -4.6078   -0.0872    0.7732 C   0  0  0  0  0  0  0  0  0  0  0  0
   -3.3450   -0.9017    0.6015 C   0  0  0  0  0  0  0  0  0  0  0  0
   -0.9973   -0.5347    0.4251 C   0  0  0  0  0  0  0  0  0  0  0  0
   -0.7237   -1.9083    0.3522 C   0  0  0  0  0  0  0  0  0  0  0  0
    0.5739   -2.3776    0.1796 C   0  0  0  0  0  0  0  0  0  0  0  0
    1.3301   -0.0697    0.1503 C   0  0  0  0  0  0  0  0  0  0  0  0
    1.5794   -1.4419    0.0815 C   0  0  0  0  0  0  0  0  0  0  0  0
    3.5298   -0.4960   -0.1428 C   0  0  0  0  0  0  0  0  0  0  0  0
    5.3283    1.0148   -0.3407 C   0  0  0  0  0  0  0  0  0  0  0  0
    3.0837    1.8693   -0.0276 C   0  0  0  0  0  0  0  0  0  0  0  0
    2.6227    0.5572    0.0010 C   0  0  0  0  0  0  0  0  0  0  0  0
   -4.8040    0.9391   -0.2291 N   0  0  0  0  0  0  0  0  0  0  0  0
   -2.2345   -0.0246    0.5958 O   0  0  0  0  0  0  0  0  0  0  0  0
    2.9072   -1.7018   -0.0936 O   0  0  0  0  0  0  0  0  0  0  0  0
   -0.1797    1.4552    0.3790 H   0  0  0  0  0  0  0  0  0  0  0  0
    5.5737   -1.1306   -0.4241 H   0  0  0  0  0  0  0  0  0  0  0  0
    4.8233    3.0985   -0.2280 H   0  0  0  0  0  0  0  0  0  0  0  0
   -5.6977   -0.3353   -1.6954 H   0  0  0  0  0  0  0  0  0  0  0  0
   -5.0833    1.2210   -2.2730 H   0  0  0  0  0  0  0  0  0  0  0  0
   -3.9565   -0.0606   -1.8739 H   0  0  0  0  0  0  0  0  0  0  0  0
   -6.9068    1.1609    0.0905 H   0  0  0  0  0  0  0  0  0  0  0  0
   -5.8560    2.1815    1.0822 H   0  0  0  0  0  0  0  0  0  0  0  0
   -6.0753    2.5493   -0.6283 H   0  0  0  0  0  0  0  0  0  0  0  0
   -5.4430   -0.8095    0.7981 H   0  0  0  0  0  0  0  0  0  0  0  0
   -4.5877    0.3935    1.7555 H   0  0  0  0  0  0  0  0  0  0  0  0
   -3.2812   -1.6112    1.4343 H   0  0  0  0  0  0  0  0  0  0  0  0
   -3.3748   -1.4902   -0.3221 H   0  0  0  0  0  0  0  0  0  0  0  0
   -1.5178   -2.6372    0.4292 H   0  0  0  0  0  0  0  0  0  0  0  0
    0.7710   -3.4399    0.1256 H   0  0  0  0  0  0  0  0  0  0  0  0
    6.3838    1.2127   -0.4730 H   0  0  0  0  0  0  0  0  0  0  0  0
    2.3998    2.7013    0.0813 H   0  0  0  0  0  0  0  0  0  0  0  0
 14  3  2  0
 14  2  1  0
  3 15  1  0
  2 13  2  0
 15 16  2  0
 13 16  1  0
 13 19  1  0
 16 11  1  0
 19 12  1  0
 11 12  1  0
 11  1  2  0
 12 10  2  0
  1  8  1  0
 10  9  1  0
  7 18  1  0
  7  6  1  0
  8 18  1  0
  8  9  2  0
  6 17  1  0
  4 17  1  0
 17  5  1  0
  1 20  1  0
  2 21  1  0
  3 22  1  0
  4 23  1  0
  4 24  1  0
  4 25  1  0
  5 26  1  0
  5 27  1  0
  5 28  1  0
  6 29  1  0
  6 30  1  0
  7 31  1  0
  7 32  1  0
  9 33  1  0
 10 34  1  0
 14 35  1  0
 15 36  1  0
M  END
