
     RDKit          3D

 31 32  0  0  0  0  0  0  0  0999 V2000
   -4.9256   -0.3249   -1.1336 F   0  0  0  0  0  0  0  0  0  0  0  0
   -4.4487    0.7690   -0.5329 C   0  0  1  0  0  0  0  0  0  0  0  0
   -4.3688    1.7242   -1.4674 F   0  0  0  0  0  0  0  0  0  0  0  0
   -5.3688    1.1524    0.3589 F   0  0  0  0  0  0  0  0  0  0  0  0
   -3.1148    0.5163    0.1051 C   0  0  0  0  0  0  0  0  0  0  0  0
   -2.4619   -0.7013   -0.0364 C   0  0  0  0  0  0  0  0  0  0  0  0
   -2.4875    1.5179    0.8318 C   0  0  0  0  0  0  0  0  0  0  0  0
   -3.0967    2.6967    0.9771 F   0  0  0  0  0  0  0  0  0  0  0  0
   -1.2493    1.3371    1.4136 C   0  0  0  0  0  0  0  0  0  0  0  0
   -0.6076    0.1229    1.2526 C   0  0  0  0  0  0  0  0  0  0  0  0
   -1.2083   -0.9006    0.5273 C   0  0  0  0  0  0  0  0  0  0  0  0
   -0.4985   -2.1942    0.3318 C   0  0  0  0  0  0  0  0  0  0  0  0
   -1.2333   -3.2541    0.7149 N   0  0  0  0  0  0  0  0  0  0  0  0
   -0.7867   -4.5207    0.5194 O   0  0  0  0  0  0  0  0  0  0  0  0
    0.6922   -2.3451   -0.1146 N   0  0  0  0  0  0  0  0  0  0  0  0
    1.3897   -1.2887   -0.6828 C   0  0  0  0  0  0  0  0  0  0  0  0
    2.6847   -1.0255   -0.2269 C   0  0  0  0  0  0  0  0  0  0  0  0
    3.4221   -0.0077   -0.8073 C   0  0  0  0  0  0  0  0  0  0  0  0
    5.1674    0.3383   -0.1611 Br  0  0  0  0  0  0  0  0  0  0  0  0
    2.9235    0.7611   -1.8486 C   0  0  0  0  0  0  0  0  0  0  0  0
    1.6439    0.4799   -2.3095 C   0  0  0  0  0  0  0  0  0  0  0  0
    0.8831   -0.5289   -1.7426 C   0  0  0  0  0  0  0  0  0  0  0  0
   -2.9195   -1.4951   -0.6109 H   0  0  0  0  0  0  0  0  0  0  0  0
   -0.7947    2.1374    1.9813 H   0  0  0  0  0  0  0  0  0  0  0  0
    0.3645   -0.0254    1.7030 H   0  0  0  0  0  0  0  0  0  0  0  0
   -2.0710   -3.1610    1.2704 H   0  0  0  0  0  0  0  0  0  0  0  0
   -0.1378   -4.7007    1.2141 H   0  0  0  0  0  0  0  0  0  0  0  0
    3.0880   -1.6211    0.5821 H   0  0  0  0  0  0  0  0  0  0  0  0
    3.5111    1.5491   -2.2989 H   0  0  0  0  0  0  0  0  0  0  0  0
    1.2379    1.0591   -3.1288 H   0  0  0  0  0  0  0  0  0  0  0  0
   -0.1044   -0.7407   -2.1315 H   0  0  0  0  0  0  0  0  0  0  0  0
 21 20  2  0
 21 22  1  0
 20 18  1  0
 22 16  2  0
 18 19  1  0
 18 17  2  0
 16 17  1  0
 16 15  1  0
 15 12  2  0
 12 13  1  0
 12 11  1  0
  2  3  1  6
 14 13  1  0
  6 11  1  0
  6  5  2  0
 11 10  2  0
  1  2  1  0
  2  5  1  0
  2  4  1  0
  5  7  1  0
 10  9  1  0
  7  9  2  0
  7  8  1  0
  6 23  1  0
  9 24  1  0
 10 25  1  0
 13 26  1  0
 14 27  1  0
 17 28  1  0
 20 29  1  0
 21 30  1  0
 22 31  1  0
M  END
