
     RDKit          3D

 59 61  0  0  0  0  0  0  0  0999 V2000
    7.2979    1.7382   -0.6703 N   0  0  0  0  0  0  0  0  0  0  0  0
    7.9348    0.6966   -1.2060 C   0  0  0  0  0  0  0  0  0  0  0  0
    7.6096   -0.5849   -1.0625 N   0  0  0  0  0  0  0  0  0  0  0  0
    6.5200   -0.8536   -0.3345 C   0  0  0  0  0  0  0  0  0  0  0  0
    5.7763    0.1504    0.2474 C   0  0  0  0  0  0  0  0  0  0  0  0
    6.2201    1.4759    0.0589 C   0  0  0  0  0  0  0  0  0  0  0  0
    5.5463    2.5153    0.5953 N   0  0  0  0  0  0  0  0  0  0  0  0
    3.4446   -0.0746    0.2781 C   0  0  0  0  0  0  0  0  0  0  0  0
   -2.3222   -0.2102    2.0762 C   0  0  0  0  0  0  0  0  0  0  0  0
   -5.5068   -0.1986    0.0331 C   0  0  0  0  0  0  0  0  0  0  0  0
   -5.1468    2.9912   -0.7847 C   0  0  0  0  0  0  0  0  0  0  0  0
    8.9980    0.9796   -2.0012 N   0  0  0  0  0  0  0  0  0  0  0  0
    6.1876   -2.3027   -0.1283 C   0  0  0  0  0  0  0  0  0  0  0  0
    6.8253   -2.8392    1.1530 C   0  0  0  0  0  0  0  0  0  0  0  0
    4.6677   -0.0914    1.0102 O   0  0  0  0  0  0  0  0  0  0  0  0
    2.2973   -0.1304    1.2663 C   0  0  0  0  0  0  0  0  0  0  0  0
    0.9723   -0.1688    0.5319 C   0  0  0  0  0  0  0  0  0  0  0  0
   -0.0628   -0.1964    1.4998 O   0  0  0  0  0  0  0  0  0  0  0  0
   -1.3432   -0.2073    1.0803 C   0  0  0  0  0  0  0  0  0  0  0  0
   -3.6619   -0.2143    1.7345 C   0  0  0  0  0  0  0  0  0  0  0  0
   -1.7327   -0.2153   -0.2564 C   0  0  0  0  0  0  0  0  0  0  0  0
   -3.0845   -0.2147   -0.5792 C   0  0  0  0  0  0  0  0  0  0  0  0
   -4.0725   -0.2060    0.3994 C   0  0  0  0  0  0  0  0  0  0  0  0
   -6.2943    0.9404    0.0634 C   0  0  0  0  0  0  0  0  0  0  0  0
   -5.7246    2.2785    0.4383 C   0  0  0  0  0  0  0  0  0  0  0  0
   -6.1552   -1.3805   -0.3944 C   0  0  0  0  0  0  0  0  0  0  0  0
   -5.4875   -2.5459   -0.4894 N   0  0  0  0  0  0  0  0  0  0  0  0
   -7.4389   -1.3909   -0.7426 N   0  0  0  0  0  0  0  0  0  0  0  0
   -8.0910   -0.2330   -0.6730 C   0  0  0  0  0  0  0  0  0  0  0  0
   -7.5834    0.9352   -0.2863 N   0  0  0  0  0  0  0  0  0  0  0  0
   -9.4093   -0.2565   -0.9902 N   0  0  0  0  0  0  0  0  0  0  0  0
    6.0023    3.4124    0.5944 H   0  0  0  0  0  0  0  0  0  0  0  0
    4.9214    2.3447    1.3647 H   0  0  0  0  0  0  0  0  0  0  0  0
    3.3779    0.8324   -0.3334 H   0  0  0  0  0  0  0  0  0  0  0  0
    3.4055   -0.9304   -0.4057 H   0  0  0  0  0  0  0  0  0  0  0  0
   -2.0242   -0.2101    3.1176 H   0  0  0  0  0  0  0  0  0  0  0  0
   -4.7939    3.9877   -0.5190 H   0  0  0  0  0  0  0  0  0  0  0  0
   -4.3038    2.4376   -1.1988 H   0  0  0  0  0  0  0  0  0  0  0  0
   -5.8981    3.0980   -1.5678 H   0  0  0  0  0  0  0  0  0  0  0  0
    9.6389    0.2311   -2.2024 H   0  0  0  0  0  0  0  0  0  0  0  0
    9.4063    1.8951   -1.9245 H   0  0  0  0  0  0  0  0  0  0  0  0
    5.1087   -2.4558   -0.0893 H   0  0  0  0  0  0  0  0  0  0  0  0
    6.5603   -2.8636   -0.9864 H   0  0  0  0  0  0  0  0  0  0  0  0
    7.9065   -2.6991    1.1412 H   0  0  0  0  0  0  0  0  0  0  0  0
    6.4283   -2.3320    2.0322 H   0  0  0  0  0  0  0  0  0  0  0  0
    6.6274   -3.9055    1.2626 H   0  0  0  0  0  0  0  0  0  0  0  0
    2.3955   -1.0196    1.8944 H   0  0  0  0  0  0  0  0  0  0  0  0
    2.3333    0.7461    1.9185 H   0  0  0  0  0  0  0  0  0  0  0  0
    0.8689    0.7115   -0.1135 H   0  0  0  0  0  0  0  0  0  0  0  0
    0.9200   -1.0558   -0.1101 H   0  0  0  0  0  0  0  0  0  0  0  0
   -4.4070   -0.2174    2.5205 H   0  0  0  0  0  0  0  0  0  0  0  0
   -1.0089   -0.2170   -1.0592 H   0  0  0  0  0  0  0  0  0  0  0  0
   -3.3684   -0.2124   -1.6247 H   0  0  0  0  0  0  0  0  0  0  0  0
   -4.9467    2.1659    1.1940 H   0  0  0  0  0  0  0  0  0  0  0  0
   -6.5197    2.8841    0.8758 H   0  0  0  0  0  0  0  0  0  0  0  0
   -4.5781   -2.6456   -0.0741 H   0  0  0  0  0  0  0  0  0  0  0  0
   -6.0118   -3.3898   -0.6444 H   0  0  0  0  0  0  0  0  0  0  0  0
   -9.7487   -1.0446   -1.5145 H   0  0  0  0  0  0  0  0  0  0  0  0
   -9.8554    0.6234   -1.1850 H   0  0  0  0  0  0  0  0  0  0  0  0
 12  2  1  0
  2  3  1  0
  2  1  2  0
  3  4  2  0
  1  6  1  0
  4 13  1  0
  4  5  1  0
 14 13  1  0
  6  5  2  0
  6  7  1  0
  5 15  1  0
 25 11  1  0
 25 24  1  0
 15  8  1  0
 30 24  2  0
 30 29  1  0
 24 10  1  0
 31 29  1  0
  8 16  1  0
 29 28  2  0
 10 23  1  0
 10 26  2  0
 22 21  2  0
 22 23  1  0
 21 19  1  0
 28 26  1  0
 23 20  2  0
 26 27  1  0
 16 17  1  0
 19  9  2  0
 19 18  1  0
 20  9  1  0
 18 17  1  0
  7 32  1  0
  7 33  1  0
  8 34  1  0
  8 35  1  0
  9 36  1  0
 11 37  1  0
 11 38  1  0
 11 39  1  0
 12 40  1  0
 12 41  1  0
 13 42  1  0
 13 43  1  0
 14 44  1  0
 14 45  1  0
 14 46  1  0
 16 47  1  0
 16 48  1  0
 17 49  1  0
 17 50  1  0
 20 51  1  0
 21 52  1  0
 22 53  1  0
 25 54  1  0
 25 55  1  0
 27 56  1  0
 27 57  1  0
 31 58  1  0
 31 59  1  0
M  END
