
     RDKit          3D

 15 14  0  0  0  0  0  0  0  0999 V2000
   -1.0576    0.8060    1.7337 C   0  0  1  0  0  0  0  0  0  0  0  0
   -2.3966    0.1737    1.3904 C   0  0  0  0  0  0  0  0  0  0  0  0
   -2.9745    0.6356    0.2706 N   0  0  0  0  0  0  0  0  0  0  0  0
   -2.8917   -0.7158    2.0695 O   0  0  0  0  0  0  0  0  0  0  0  0
   -0.8645    0.9122    3.2397 C   0  0  0  0  0  0  0  0  0  0  0  0
    0.0567   -0.0193    1.0834 C   0  0  0  0  0  0  0  0  0  0  0  0
   -2.5492    1.3536   -0.2898 H   0  0  0  0  0  0  0  0  0  0  0  0
   -3.8237    0.2201   -0.0766 H   0  0  0  0  0  0  0  0  0  0  0  0
   -1.0248    1.8131    1.3074 H   0  0  0  0  0  0  0  0  0  0  0  0
    1.0306    0.4072    1.3249 H   0  0  0  0  0  0  0  0  0  0  0  0
   -0.0380   -0.0403   -0.0028 H   0  0  0  0  0  0  0  0  0  0  0  0
    0.0431   -1.0486    1.4449 H   0  0  0  0  0  0  0  0  0  0  0  0
   -1.6494    1.5080    3.7071 H   0  0  0  0  0  0  0  0  0  0  0  0
   -0.8595   -0.0697    3.7129 H   0  0  0  0  0  0  0  0  0  0  0  0
    0.0894    1.3926    3.4596 H   0  0  0  0  0  0  0  0  0  0  0  0
  2  1  1  0
  4  2  2  0
  2  3  1  0
  1  5  1  0
  1  6  1  0
  3  7  1  0
  3  8  1  0
  1  9  1  6
  6 10  1  0
  6 11  1  0
  6 12  1  0
  5 13  1  0
  5 14  1  0
  5 15  1  0
M  END
