
     RDKit          3D

 40 42  0  0  0  0  0  0  0  0999 V2000
   -2.7329    0.0542    1.1476 C   0  0  0  0  0  0  0  0  0  0  0  0
    0.2812   -0.8054   -0.4681 C   0  0  0  0  0  0  0  0  0  0  0  0
    1.3641   -1.6928   -0.4433 C   0  0  0  0  0  0  0  0  0  0  0  0
    1.1756   -3.0005   -0.0139 C   0  0  0  0  0  0  0  0  0  0  0  0
    0.5053    0.6158   -0.9081 C   0  0  0  0  0  0  0  0  0  0  0  0
    2.7393   -1.2356   -0.8403 C   0  0  0  0  0  0  0  0  0  0  0  0
    1.3504    1.4604    0.0617 C   0  0  2  0  0  0  0  0  0  0  0  0
    3.3413   -0.2036    0.1170 C   0  0  0  0  0  0  0  0  0  0  0  0
    2.8530    1.2129   -0.1255 C   0  0  2  0  0  0  0  0  0  0  0  0
   -3.8654    0.8588    1.1599 C   0  0  0  0  0  0  0  0  0  0  0  0
   -4.4550    1.2497   -0.0341 C   0  0  0  0  0  0  0  0  0  0  0  0
   -3.9074    0.8312   -1.2406 C   0  0  0  0  0  0  0  0  0  0  0  0
   -2.7748    0.0299   -1.2521 C   0  0  0  0  0  0  0  0  0  0  0  0
   -2.1742   -0.3661   -0.0575 C   0  0  0  0  0  0  0  0  0  0  0  0
   -0.9811   -1.2506   -0.0563 C   0  0  0  0  0  0  0  0  0  0  0  0
   -0.0727   -3.4398    0.4006 C   0  0  0  0  0  0  0  0  0  0  0  0
   -1.1439   -2.5648    0.3813 C   0  0  0  0  0  0  0  0  0  0  0  0
    3.5940    2.1361    0.7868 N   0  0  0  0  0  0  0  0  0  0  0  0
    1.0637    1.1800    1.3949 O   0  0  0  0  0  0  0  0  0  0  0  0
   -2.2817   -0.2523    2.0839 H   0  0  0  0  0  0  0  0  0  0  0  0
    2.0182   -3.6813    0.0008 H   0  0  0  0  0  0  0  0  0  0  0  0
    0.9699    0.6462   -1.8975 H   0  0  0  0  0  0  0  0  0  0  0  0
   -0.4537    1.1243   -1.0280 H   0  0  0  0  0  0  0  0  0  0  0  0
    3.4042   -2.0991   -0.8594 H   0  0  0  0  0  0  0  0  0  0  0  0
    2.7352   -0.8357   -1.8601 H   0  0  0  0  0  0  0  0  0  0  0  0
    3.1567   -0.5038    1.1512 H   0  0  0  0  0  0  0  0  0  0  0  0
    4.4248   -0.2047   -0.0235 H   0  0  0  0  0  0  0  0  0  0  0  0
    3.1272    1.5220   -1.1357 H   0  0  0  0  0  0  0  0  0  0  0  0
   -4.2866    1.1771    2.1046 H   0  0  0  0  0  0  0  0  0  0  0  0
   -5.3381    1.8751   -0.0260 H   0  0  0  0  0  0  0  0  0  0  0  0
   -4.3658    1.1244   -2.1762 H   0  0  0  0  0  0  0  0  0  0  0  0
   -2.3564   -0.2979   -2.1961 H   0  0  0  0  0  0  0  0  0  0  0  0
   -0.2090   -4.4602    0.7344 H   0  0  0  0  0  0  0  0  0  0  0  0
   -2.1235   -2.8994    0.6987 H   0  0  0  0  0  0  0  0  0  0  0  0
    4.6000    2.0758    0.6318 H   0  0  0  0  0  0  0  0  0  0  0  0
    3.3271    3.1103    0.6369 H   0  0  0  0  0  0  0  0  0  0  0  0
    0.2656    3.0741   -0.1898 H   0  0  0  0  0  0  0  0  0  0  0  0
    0.1138    1.0775    1.5291 H   0  0  0  0  0  0  0  0  0  0  0  0
    3.4271    1.9225    1.7714 H   0  0  0  0  0  0  0  0  0  0  0  0
    1.1958    2.8219   -0.2324 O   0  0  0  0  0  0  0  0  0  0  0  0
  8  6  1  0
  8  9  1  0
 18  9  1  0
  6  3  1  0
  9  7  1  0
  4  3  2  0
  4 16  1  0
  3  2  1  0
 16 17  2  0
  7 19  1  1
  7 40  1  0
  7  5  1  0
  2  5  1  0
  2 15  2  0
 17 15  1  0
 15 14  1  0
 14 13  1  0
 14  1  2  0
 13 12  2  0
  1 10  1  0
 12 11  1  0
 10 11  2  0
  1 20  1  0
  4 21  1  0
  5 22  1  0
  5 23  1  0
  6 24  1  0
  6 25  1  0
  8 26  1  0
  8 27  1  0
  9 28  1  6
 10 29  1  0
 11 30  1  0
 12 31  1  0
 13 32  1  0
 16 33  1  0
 17 34  1  0
 18 35  1  0
 18 36  1  0
 40 37  1  0
 19 38  1  0
 39 18  1  0
M  CHG  1  18   1
M  END
