
     RDKit          3D

 18 18  0  0  0  0  0  0  0  0999 V2000
    2.5926    0.3388    0.2199 C   0  0  0  0  0  0  0  0  0  0  0  0
    1.2123   -0.2462    0.1350 C   0  0  0  0  0  0  0  0  0  0  0  0
   -1.0315    0.0756   -0.0494 C   0  0  0  0  0  0  0  0  0  0  0  0
   -0.3237   -2.0440    0.2041 C   0  0  0  0  0  0  0  0  0  0  0  0
    0.9895   -1.6126    0.2542 C   0  0  0  0  0  0  0  0  0  0  0  0
    2.7107    1.5622   -0.5464 N   0  0  0  0  0  0  0  0  0  0  0  0
    0.1912    0.5901   -0.0144 N   0  0  0  0  0  0  0  0  0  0  0  0
   -1.3424   -1.2086    0.0519 N   0  0  0  0  0  0  0  0  0  0  0  0
   -2.1229    1.0640   -0.2199 C   0  0  0  0  0  0  0  0  0  0  0  0
   -3.3347    0.7134   -0.2601 N   0  0  0  0  0  0  0  0  0  0  0  0
    2.8218    0.4508    1.2912 H   0  0  0  0  0  0  0  0  0  0  0  0
    3.3058   -0.3953   -0.1597 H   0  0  0  0  0  0  0  0  0  0  0  0
   -0.5614   -3.0988    0.2838 H   0  0  0  0  0  0  0  0  0  0  0  0
    1.8045   -2.3127    0.3723 H   0  0  0  0  0  0  0  0  0  0  0  0
    2.1040    2.2684   -0.1513 H   0  0  0  0  0  0  0  0  0  0  0  0
   -1.7750    2.0948   -0.3041 H   0  0  0  0  0  0  0  0  0  0  0  0
   -3.9301    1.5276   -0.3838 H   0  0  0  0  0  0  0  0  0  0  0  0
    3.6539    1.9146   -0.4513 H   0  0  0  0  0  0  0  0  0  0  0  0
 10  9  2  0
  8  4  2  0
  8  3  1  0
  4  5  1  0
  9  3  1  0
  3  7  2  0
  5  2  2  0
  7  2  1  0
  2  1  1  0
  1  6  1  0
  1 11  1  0
  1 12  1  0
  4 13  1  0
  5 14  1  0
  6 15  1  0
  9 16  1  0
 10 17  1  0
  6 18  1  0
M  END
