
     RDKit          3D

 23 24  0  0  0  0  0  0  0  0999 V2000
   42.9860   23.7306   20.8799 C   0  0  0  0  0  0  0  0  0  0  0  0
   44.1869   23.8008   21.1169 O   0  0  0  0  0  0  0  0  0  0  0  0
   42.4490   24.1659   19.7289 N   0  0  0  0  0  0  0  0  0  0  0  0
   41.0219   24.2777   19.5078 C   0  0  0  0  0  0  0  0  0  0  0  0
   40.3111   23.0541   20.0490 C   0  0  0  0  0  0  0  0  0  0  0  0
   40.7336   22.7773   21.4634 C   0  0  0  0  0  0  0  0  0  0  0  0
   39.8793   22.1493   22.3777 C   0  0  0  0  0  0  0  0  0  0  0  0
   40.3376   21.9183   23.6707 C   0  0  0  0  0  0  0  0  0  0  0  0
   41.6197   22.2831   24.0621 C   0  0  0  0  0  0  0  0  0  0  0  0
   42.4710   22.8796   23.1507 C   0  0  0  0  0  0  0  0  0  0  0  0
   42.0290   23.1280   21.8538 C   0  0  0  0  0  0  0  0  0  0  0  0
   38.4956   21.7231   21.9785 C   0  0  0  0  0  0  0  0  0  0  0  0
   43.0693   24.6322   19.0840 H   0  0  0  0  0  0  0  0  0  0  0  0
   40.6262   25.1800   19.9858 H   0  0  0  0  0  0  0  0  0  0  0  0
   40.8502   24.3746   18.4375 H   0  0  0  0  0  0  0  0  0  0  0  0
   39.2356   23.2186   19.9848 H   0  0  0  0  0  0  0  0  0  0  0  0
   40.5306   22.1836   19.4213 H   0  0  0  0  0  0  0  0  0  0  0  0
   39.6782   21.4406   24.3857 H   0  0  0  0  0  0  0  0  0  0  0  0
   41.9503   22.0933   25.0746 H   0  0  0  0  0  0  0  0  0  0  0  0
   43.4754   23.1577   23.4397 H   0  0  0  0  0  0  0  0  0  0  0  0
   37.9837   21.2341   22.8056 H   0  0  0  0  0  0  0  0  0  0  0  0
   37.8828   22.5714   21.6665 H   0  0  0  0  0  0  0  0  0  0  0  0
   38.5178   21.0226   21.1419 H   0  0  0  0  0  0  0  0  0  0  0  0
  1  2  2  0
  1  3  1  0
  1 11  1  0
  3  4  1  0
  3 13  1  0
  4  5  1  0
  4 14  1  0
  4 15  1  0
  5  6  1  0
  5 16  1  0
  5 17  1  0
  6  7  1  0
  6 11  2  0
  7  8  2  0
  7 12  1  0
  8  9  1  0
  8 18  1  0
  9 10  2  0
  9 19  1  0
 10 11  1  0
 10 20  1  0
 12 21  1  0
 12 22  1  0
 12 23  1  0
M  END
