
     RDKit          3D

 53 56  0  0  0  0  0  0  0  0999 V2000
   -1.7429   -1.4995    0.8865 C   0  0  0  0  0  0  0  0  0  0  0  0
   -2.8862   -2.2546    1.2169 C   0  0  0  0  0  0  0  0  0  0  0  0
   -4.0975   -2.1356    0.5598 C   0  0  0  0  0  0  0  0  0  0  0  0
   -3.4315    0.4139   -1.9207 C   0  0  0  0  0  0  0  0  0  0  0  0
   -4.7439    0.1237   -2.1607 C   0  0  0  0  0  0  0  0  0  0  0  0
   -1.4005    2.2056    0.5806 C   0  0  0  0  0  0  0  0  0  0  0  0
   -1.1148    3.3032    1.5902 C   0  0  0  0  0  0  0  0  0  0  0  0
    0.1141    4.0978    1.1804 C   0  0  0  0  0  0  0  0  0  0  0  0
    1.2777    3.1437    0.9683 C   0  0  0  0  0  0  0  0  0  0  0  0
    0.9216    2.0327   -0.0256 C   0  0  1  0  0  0  0  0  0  0  0  0
    2.1098    1.1166   -0.1839 C   0  0  0  0  0  0  0  0  0  0  0  0
    2.8455    1.1125   -1.3642 C   0  0  0  0  0  0  0  0  0  0  0  0
    3.9576    0.2991   -1.5060 C   0  0  0  0  0  0  0  0  0  0  0  0
    4.3565   -0.5325   -0.4633 C   0  0  0  0  0  0  0  0  0  0  0  0
    3.6250   -0.5300    0.7259 C   0  0  0  0  0  0  0  0  0  0  0  0
    2.5179    0.2883    0.8600 C   0  0  0  0  0  0  0  0  0  0  0  0
    5.5482   -1.3902   -0.6611 C   0  0  0  0  0  0  0  0  0  0  0  0
   -4.1320   -1.2006   -0.4760 C   0  0  0  0  0  0  0  0  0  0  0  0
   -3.0111   -0.4263   -0.8402 C   0  0  0  0  0  0  0  0  0  0  0  0
   -1.7953   -0.5759   -0.1506 C   0  0  0  0  0  0  0  0  0  0  0  0
   -5.3046   -2.9426    0.9279 C   0  0  0  0  0  0  0  0  0  0  0  0
   -0.5946    0.2417   -0.5439 C   0  0  0  0  0  0  0  0  0  0  0  0
   -0.2696    1.3051    0.4047 N   0  0  0  0  0  0  0  0  0  0  0  0
   -0.4756   -1.7211    1.6654 C   0  0  0  0  0  0  0  0  0  0  0  0
   -5.1663   -0.8444   -1.2971 N   0  0  0  0  0  0  0  0  0  0  0  0
    6.1998   -1.4141   -1.6787 O   0  0  0  0  0  0  0  0  0  0  0  0
    5.8343   -2.1359    0.3977 O   0  0  0  0  0  0  0  0  0  0  0  0
   -2.8109   -2.9696    2.0295 H   0  0  0  0  0  0  0  0  0  0  0  0
   -2.8399    1.1430   -2.4499 H   0  0  0  0  0  0  0  0  0  0  0  0
   -5.4193    0.5388   -2.8915 H   0  0  0  0  0  0  0  0  0  0  0  0
   -2.2588    1.6238    0.9174 H   0  0  0  0  0  0  0  0  0  0  0  0
   -1.6901    2.6674   -0.3817 H   0  0  0  0  0  0  0  0  0  0  0  0
   -1.9924    3.9485    1.6688 H   0  0  0  0  0  0  0  0  0  0  0  0
   -0.9572    2.8571    2.5767 H   0  0  0  0  0  0  0  0  0  0  0  0
   -0.0914    4.6409    0.2520 H   0  0  0  0  0  0  0  0  0  0  0  0
    0.3676    4.8470    1.9334 H   0  0  0  0  0  0  0  0  0  0  0  0
    2.1570    3.6731    0.5952 H   0  0  0  0  0  0  0  0  0  0  0  0
    1.5587    2.6902    1.9240 H   0  0  0  0  0  0  0  0  0  0  0  0
    0.7382    2.5106   -1.0068 H   0  0  0  0  0  0  0  0  0  0  0  0
    2.5423    1.7498   -2.1865 H   0  0  0  0  0  0  0  0  0  0  0  0
    4.5132    0.3085   -2.4343 H   0  0  0  0  0  0  0  0  0  0  0  0
    3.9125   -1.1643    1.5531 H   0  0  0  0  0  0  0  0  0  0  0  0
    1.9555    0.2777    1.7846 H   0  0  0  0  0  0  0  0  0  0  0  0
   -6.1026   -2.3124    1.3273 H   0  0  0  0  0  0  0  0  0  0  0  0
   -5.7165   -3.4690    0.0640 H   0  0  0  0  0  0  0  0  0  0  0  0
   -5.0652   -3.6880    1.6847 H   0  0  0  0  0  0  0  0  0  0  0  0
    0.2692   -0.4226   -0.6195 H   0  0  0  0  0  0  0  0  0  0  0  0
   -0.7494    0.6528   -1.5557 H   0  0  0  0  0  0  0  0  0  0  0  0
    0.3145   -2.1514    1.0446 H   0  0  0  0  0  0  0  0  0  0  0  0
   -0.0855   -0.7851    2.0633 H   0  0  0  0  0  0  0  0  0  0  0  0
   -0.6392   -2.4051    2.4973 H   0  0  0  0  0  0  0  0  0  0  0  0
   -6.0985   -1.2212   -1.2707 H   0  0  0  0  0  0  0  0  0  0  0  0
    6.6228   -2.6702    0.2218 H   0  0  0  0  0  0  0  0  0  0  0  0
  7  8  1  0
  7  6  1  0
  8  9  1  0
  9 10  1  0
  6 23  1  0
 10 23  1  0
 10 11  1  0
 16 11  1  0
 16 15  2  0
 23 22  1  0
 11 12  2  0
 15 14  1  0
  5  4  2  0
  5 25  1  0
  4 19  1  0
 25 18  1  0
 12 13  1  0
 19 18  2  0
 19 20  1  0
 14 13  2  0
 14 17  1  0
 22 20  1  0
 18  3  1  0
 20  1  2  0
 26 17  2  0
  3 21  1  0
  3  2  2  0
  1  2  1  0
  1 24  1  0
 17 27  1  0
  2 28  1  0
  4 29  1  0
  5 30  1  0
  6 31  1  0
  6 32  1  0
  7 33  1  0
  7 34  1  0
  8 35  1  0
  8 36  1  0
  9 37  1  0
  9 38  1  0
 10 39  1  6
 12 40  1  0
 13 41  1  0
 15 42  1  0
 16 43  1  0
 21 44  1  0
 21 45  1  0
 21 46  1  0
 22 47  1  0
 22 48  1  0
 24 49  1  0
 24 50  1  0
 24 51  1  0
 25 52  1  0
 27 53  1  0
M  END
