
     RDKit          3D

 14 14  0  0  0  0  0  0  0  0999 V2000
   -1.1229   -1.0815    0.0331 N   0  0  0  0  0  0  0  0  0  0  0  0
    0.2061   -1.1729   -0.0054 C   0  0  0  0  0  0  0  0  0  0  0  0
    0.9841   -0.0167   -0.0541 C   0  0  0  0  0  0  0  0  0  0  0  0
    0.2945    1.2081   -0.0522 C   0  0  0  0  0  0  0  0  0  0  0  0
   -1.0838    1.2427   -0.0103 C   0  0  0  0  0  0  0  0  0  0  0  0
   -1.8017    0.0640    0.0322 C   0  0  0  0  0  0  0  0  0  0  0  0
    2.3327   -0.0836   -0.1401 N   0  0  0  0  0  0  0  0  0  0  0  0
   -1.6470   -1.9480    0.0704 H   0  0  0  0  0  0  0  0  0  0  0  0
    0.6230   -2.1686    0.0018 H   0  0  0  0  0  0  0  0  0  0  0  0
    0.8549    2.1338   -0.0854 H   0  0  0  0  0  0  0  0  0  0  0  0
   -1.6104    2.1852   -0.0084 H   0  0  0  0  0  0  0  0  0  0  0  0
   -2.8769    0.0026    0.0677 H   0  0  0  0  0  0  0  0  0  0  0  0
    2.8613    0.7428    0.0843 H   0  0  0  0  0  0  0  0  0  0  0  0
    2.7904   -0.9464    0.1028 H   0  0  0  0  0  0  0  0  0  0  0  0
  1  2  2  0
  1  6  1  0
  1  8  1  0
  2  3  1  0
  2  9  1  0
  3  4  2  0
  3  7  1  0
  4  5  1  0
  4 10  1  0
  5  6  2  0
  5 11  1  0
  6 12  1  0
  7 13  1  0
  7 14  1  0
M  CHG  1   1   1
M  END
