
     RDKit          3D

 30 30  0  0  0  0  0  0  0  0999 V2000
   -3.1503    0.1170   -0.0309 N   0  0  0  0  0  0  0  0  0  0  0  0
    3.6112    0.3962   -0.1491 S   0  0  1  0  0  0  0  0  0  0  0  0
   -0.8276   -0.4642    0.2369 C   0  0  0  0  0  0  0  0  0  0  0  0
   -0.3664    0.8460    0.3014 C   0  0  0  0  0  0  0  0  0  0  0  0
    0.9892    1.1220    0.1909 C   0  0  0  0  0  0  0  0  0  0  0  0
    1.8754    0.0729    0.0158 C   0  0  0  0  0  0  0  0  0  0  0  0
    1.4351   -1.2436   -0.0450 C   0  0  0  0  0  0  0  0  0  0  0  0
    0.0839   -1.5067    0.0765 C   0  0  0  0  0  0  0  0  0  0  0  0
   -2.2790   -0.8125    0.3802 C   0  0  0  0  0  0  0  0  0  0  0  0
   -2.6197   -1.8891    0.8510 O   0  0  0  0  0  0  0  0  0  0  0  0
   -4.5860   -0.0663    0.0483 C   0  0  0  0  0  0  0  0  0  0  0  0
   -6.8207    1.0733   -0.1280 C   0  0  0  0  0  0  0  0  0  0  0  0
    4.1727   -0.5183   -1.1319 O   0  0  0  0  0  0  0  0  0  0  0  0
   -5.3111    1.2442   -0.2098 C   0  0  0  0  0  0  0  0  0  0  0  0
    3.7783    1.8282   -0.3520 O   0  0  0  0  0  0  0  0  0  0  0  0
    4.1681   -0.1142    1.3167 N   0  0  0  0  0  0  0  0  0  0  0  0
   -2.8136    0.9091   -0.5544 H   0  0  0  0  0  0  0  0  0  0  0  0
   -1.0481    1.6711    0.4608 H   0  0  0  0  0  0  0  0  0  0  0  0
    1.3355    2.1446    0.2468 H   0  0  0  0  0  0  0  0  0  0  0  0
    2.1319   -2.0596   -0.1809 H   0  0  0  0  0  0  0  0  0  0  0  0
   -0.2654   -2.5294    0.0374 H   0  0  0  0  0  0  0  0  0  0  0  0
   -4.9139   -0.8226   -0.6727 H   0  0  0  0  0  0  0  0  0  0  0  0
   -4.8404   -0.4437    1.0408 H   0  0  0  0  0  0  0  0  0  0  0  0
   -7.1754    0.3382   -0.8521 H   0  0  0  0  0  0  0  0  0  0  0  0
   -7.1275    0.7370    0.8632 H   0  0  0  0  0  0  0  0  0  0  0  0
   -7.3328    2.0130   -0.3331 H   0  0  0  0  0  0  0  0  0  0  0  0
   -4.9804    1.9912    0.5164 H   0  0  0  0  0  0  0  0  0  0  0  0
   -5.0389    1.6250   -1.1987 H   0  0  0  0  0  0  0  0  0  0  0  0
    3.9908    0.5506    2.0628 H   0  0  0  0  0  0  0  0  0  0  0  0
    5.1540   -0.3553    1.2811 H   0  0  0  0  0  0  0  0  0  0  0  0
 11  1  1  0
  1  9  1  0
  1 17  1  0
  6  2  1  0
  2 16  1  1
  2 15  2  0
  2 13  2  0
  9  3  1  0
  3  8  2  0
  3  4  1  0
  4  5  2  0
  4 18  1  0
  5  6  1  0
  5 19  1  0
  7  6  2  0
  8  7  1  0
  7 20  1  0
  8 21  1  0
 10  9  2  0
 14 11  1  0
 11 22  1  0
 11 23  1  0
 12 14  1  0
 12 24  1  0
 12 25  1  0
 12 26  1  0
 14 27  1  0
 14 28  1  0
 16 29  1  0
 16 30  1  0
M  END
