
     RDKit          3D

 48 50  0  0  0  0  0  0  0  0999 V2000
   -6.2174   -0.6432   -0.2839 C   0  0  0  0  0  0  0  0  0  0  0  0
   -5.2650   -1.6472   -0.3832 C   0  0  0  0  0  0  0  0  0  0  0  0
   -3.9312   -1.3309   -0.2189 C   0  0  0  0  0  0  0  0  0  0  0  0
   -3.5331   -0.0169    0.0393 C   0  0  0  0  0  0  0  0  0  0  0  0
   -4.5008    0.9876    0.1327 C   0  0  0  0  0  0  0  0  0  0  0  0
   -5.8365    0.6662   -0.0274 C   0  0  0  0  0  0  0  0  0  0  0  0
   -8.5941    0.0912   -1.1619 O   0  0  0  0  0  0  0  0  0  0  0  0
   -1.5013    1.3527    0.4375 C   0  0  0  0  0  0  0  0  0  0  0  0
    2.3914    2.2852    0.0078 C   0  0  0  0  0  0  0  0  0  0  0  0
    4.5932    3.1057   -0.5114 C   0  0  0  0  0  0  0  0  0  0  0  0
    4.9801    1.7125   -0.4830 C   0  0  0  0  0  0  0  0  0  0  0  0
    4.0530    0.7385   -0.1732 C   0  0  0  0  0  0  0  0  0  0  0  0
   -0.0133    1.1488    0.6655 C   0  0  2  0  0  0  0  0  0  0  0  0
    0.2579    0.7438    2.1100 C   0  0  0  0  0  0  0  0  0  0  0  0
   -2.0086    2.4533    0.5169 O   0  0  0  0  0  0  0  0  0  0  0  0
    6.3213    1.4407   -0.8442 C   0  0  0  0  0  0  0  0  0  0  0  0
   -8.0205   -2.3421   -1.1007 O   0  0  0  0  0  0  0  0  0  0  0  0
    3.4753   -1.6310   -0.5659 C   0  0  0  0  0  0  0  0  0  0  0  0
    3.7501   -2.9844   -0.4903 C   0  0  0  0  0  0  0  0  0  0  0  0
    4.9310   -3.4009    0.1076 C   0  0  0  0  0  0  0  0  0  0  0  0
    5.8341   -2.4869    0.6275 C   0  0  0  0  0  0  0  0  0  0  0  0
    5.5578   -1.1332    0.5288 C   0  0  0  0  0  0  0  0  0  0  0  0
    4.3828   -0.6913   -0.0761 C   0  0  0  0  0  0  0  0  0  0  0  0
    2.7578    1.0405    0.0434 N   0  0  0  0  0  0  0  0  0  0  0  0
    7.4190    1.2557   -1.1460 N   0  0  0  0  0  0  0  0  0  0  0  0
    5.3258    4.0411   -0.7561 O   0  0  0  0  0  0  0  0  0  0  0  0
    3.2480    3.2974   -0.2265 N   0  0  0  0  0  0  0  0  0  0  0  0
    0.7376    2.7605    0.2579 S   0  0  0  0  0  0  0  0  0  0  0  0
   -2.1655    0.1983    0.1906 N   0  0  0  0  0  0  0  0  0  0  0  0
   -7.9278   -1.0194   -0.4966 S   0  0  1  0  0  0  0  0  0  0  0  0
   -8.4600   -0.9879    1.0678 N   0  0  0  0  0  0  0  0  0  0  0  0
   -5.5474   -2.6707   -0.5865 H   0  0  0  0  0  0  0  0  0  0  0  0
   -3.1887   -2.1156   -0.2919 H   0  0  0  0  0  0  0  0  0  0  0  0
   -4.2300    2.0115    0.3266 H   0  0  0  0  0  0  0  0  0  0  0  0
   -6.5747    1.4531    0.0483 H   0  0  0  0  0  0  0  0  0  0  0  0
    0.3950    0.4049   -0.0205 H   0  0  0  0  0  0  0  0  0  0  0  0
    1.3274    0.6381    2.2773 H   0  0  0  0  0  0  0  0  0  0  0  0
   -0.1361    1.4820    2.8067 H   0  0  0  0  0  0  0  0  0  0  0  0
   -0.2074   -0.2185    2.3256 H   0  0  0  0  0  0  0  0  0  0  0  0
    2.5518   -1.3043   -1.0239 H   0  0  0  0  0  0  0  0  0  0  0  0
    3.0492   -3.7052   -0.8882 H   0  0  0  0  0  0  0  0  0  0  0  0
    6.7409   -2.8210    1.1117 H   0  0  0  0  0  0  0  0  0  0  0  0
    6.2558   -0.4325    0.9665 H   0  0  0  0  0  0  0  0  0  0  0  0
    2.9194    4.2576   -0.2206 H   0  0  0  0  0  0  0  0  0  0  0  0
   -1.5957   -0.6308    0.1036 H   0  0  0  0  0  0  0  0  0  0  0  0
   -9.4730   -0.9215    1.1133 H   0  0  0  0  0  0  0  0  0  0  0  0
   -8.1395   -1.7874    1.6049 H   0  0  0  0  0  0  0  0  0  0  0  0
    5.2768   -5.0901    0.2171 Cl  0  0  0  0  0  0  0  0  0  0  0  0
 48 20  1  0
 21 20  2  0
 21 22  1  0
 20 19  1  0
 22 23  2  0
 19 18  2  0
 23 18  1  0
 23 12  1  0
 25 16  3  0
 14 13  1  0
 16 11  1  0
 12 11  2  0
 12 24  1  0
 11 10  1  0
 24  9  2  0
 13  8  1  0
 13 28  1  0
  9 27  1  0
  9 28  1  0
 10 27  1  0
 10 26  2  0
  8 29  1  0
  8 15  2  0
 29  4  1  0
  4  5  2  0
  4  3  1  0
  5  6  1  0
  3  2  2  0
  6  1  2  0
  2  1  1  0
  1 30  1  0
 30 31  1  1
  7 30  2  0
 30 17  2  0
  2 32  1  0
  3 33  1  0
  5 34  1  0
  6 35  1  0
 13 36  1  6
 14 37  1  0
 14 38  1  0
 14 39  1  0
 18 40  1  0
 19 41  1  0
 21 42  1  0
 22 43  1  0
 27 44  1  0
 29 45  1  0
 31 46  1  0
 31 47  1  0
M  END
