
     RDKit          3D

 26 26  0  0  0  0  0  0  0  0999 V2000
   -0.5665    0.5436   -1.2592 C   0  0  1  0  0  0  0  0  0  0  0  0
    0.7666    0.5436   -1.2592 C   0  0  2  0  0  0  0  0  0  0  0  0
    1.1790    0.5436    0.2315 C   0  0  1  0  0  0  0  0  0  0  0  0
   -0.1478    0.8652    1.0421 C   0  0  2  0  0  0  0  0  0  0  0  0
   -0.6574   -0.3968    1.7423 C   0  0  0  0  0  0  0  0  0  0  0  0
   -1.0772   -0.8468   -1.3060 C   0  0  0  0  0  0  0  0  0  0  0  0
    1.6944   -0.7601    0.6094 C   0  0  0  0  0  0  0  0  0  0  0  0
   -1.0134    1.2653    0.1509 O   0  0  0  0  0  0  0  0  0  0  0  0
    1.2734    1.7601   -1.9256 O   0  0  0  0  0  0  0  0  0  0  0  0
    0.0915    1.8853    1.9756 O   0  0  0  0  0  0  0  0  0  0  0  0
   -1.8674   -0.1130    2.3961 O   0  0  0  0  0  0  0  0  0  0  0  0
   -1.5636   -1.1245   -2.5959 O   0  0  0  0  0  0  0  0  0  0  0  0
   -0.9383    1.1130   -2.1024 H   0  0  0  0  0  0  0  0  0  0  0  0
    1.1410   -0.3459   -1.7513 H   0  0  0  0  0  0  0  0  0  0  0  0
    1.9209    1.3120    0.4122 H   0  0  0  0  0  0  0  0  0  0  0  0
    0.0757   -0.7283    2.4677 H   0  0  0  0  0  0  0  0  0  0  0  0
   -0.8179   -1.1774    1.0085 H   0  0  0  0  0  0  0  0  0  0  0  0
   -1.8781   -0.9618   -0.5857 H   0  0  0  0  0  0  0  0  0  0  0  0
   -0.2750   -1.5345   -1.0669 H   0  0  0  0  0  0  0  0  0  0  0  0
    0.9341   -1.5126    0.4384 H   0  0  0  0  0  0  0  0  0  0  0  0
    1.9644   -0.7514    1.6585 H   0  0  0  0  0  0  0  0  0  0  0  0
    2.5695   -0.9890    0.0133 H   0  0  0  0  0  0  0  0  0  0  0  0
    1.8317    1.5151   -2.6448 H   0  0  0  0  0  0  0  0  0  0  0  0
   -0.5444    2.5720    1.8608 H   0  0  0  0  0  0  0  0  0  0  0  0
   -2.0222   -0.7589    3.0653 H   0  0  0  0  0  0  0  0  0  0  0  0
   -2.0729   -1.9177   -2.5758 H   0  0  0  0  0  0  0  0  0  0  0  0
  1  2  1  0
  1  6  1  0
  1  8  1  0
  1 13  1  6
  2  3  1  0
  2  9  1  0
  2 14  1  6
  3  4  1  0
  3  7  1  0
  3 15  1  6
  4  5  1  0
  4  8  1  0
  4 10  1  1
  5 11  1  0
  5 16  1  0
  5 17  1  0
  6 12  1  0
  6 18  1  0
  6 19  1  0
  7 20  1  0
  7 21  1  0
  7 22  1  0
  9 23  1  0
 10 24  1  0
 11 25  1  0
 12 26  1  0
M  END
