
     RDKit          3D

 18 18  0  0  0  0  0  0  0  0999 V2000
   -1.3362    2.4264   -0.1102 C   0  0  0  0  0  0  0  0  0  0  0  0
   -2.5713    1.8024    0.0058 C   0  0  0  0  0  0  0  0  0  0  0  0
   -2.6587    0.4221    0.0006 C   0  0  0  0  0  0  0  0  0  0  0  0
   -1.5191   -0.3741   -0.1152 C   0  0  0  0  0  0  0  0  0  0  0  0
   -0.2587    0.2510   -0.1939 C   0  0  0  0  0  0  0  0  0  0  0  0
   -0.1983    1.6509   -0.2001 C   0  0  0  0  0  0  0  0  0  0  0  0
    1.0024   -0.4905   -0.3378 C   0  0  0  0  0  0  0  0  0  0  0  0
    1.1135   -1.6094   -0.7825 O   0  0  0  0  0  0  0  0  0  0  0  0
    2.2753    0.1705    0.2031 C   0  0  0  0  0  0  0  0  0  0  0  0
    3.2927   -0.0056   -0.6082 O   0  0  0  0  0  0  0  0  0  0  0  0
    2.3087    0.7006    1.2804 O   0  0  0  0  0  0  0  0  0  0  0  0
   -1.8415   -2.1038   -0.0312 S   0  0  0  0  0  0  0  0  0  0  0  0
   -1.2612    3.5045   -0.1263 H   0  0  0  0  0  0  0  0  0  0  0  0
   -3.4748    2.3916    0.0889 H   0  0  0  0  0  0  0  0  0  0  0  0
   -3.6316   -0.0481    0.0723 H   0  0  0  0  0  0  0  0  0  0  0  0
    0.7557    2.1516   -0.2987 H   0  0  0  0  0  0  0  0  0  0  0  0
    4.1065    0.3578   -0.2229 H   0  0  0  0  0  0  0  0  0  0  0  0
   -0.7296   -2.5674   -0.6023 H   0  0  0  0  0  0  0  0  0  0  0  0
 11  9  2  0
 10  9  1  0
  9  7  1  0
  7  8  2  0
  7  5  1  0
  6  5  1  0
  6  1  2  0
  5  4  2  0
  1  2  1  0
  4  3  1  0
  4 12  1  0
  2  3  2  0
  1 13  1  0
  2 14  1  0
  3 15  1  0
  6 16  1  0
 10 17  1  0
 12 18  1  0
M  END
