
     RDKit          3D

 57 59  0  0  0  0  0  0  0  0999 V2000
    0.2023    0.1845    3.6117 N   0  0  0  0  0  0  0  0  0  0  0  0
   -0.8615    1.0035    3.6961 C   0  0  0  0  0  0  0  0  0  0  0  0
   -1.1591    1.7957    2.8123 O   0  0  0  0  0  0  0  0  0  0  0  0
   -1.6603    0.9257    4.9240 C   0  0  0  0  0  0  0  0  0  0  0  0
   -1.3111    0.0592    5.9010 O   0  0  0  0  0  0  0  0  0  0  0  0
   -2.7712    1.6163    5.2913 C   0  0  0  0  0  0  0  0  0  0  0  0
   -3.1244    1.1378    6.5825 C   0  0  0  0  0  0  0  0  0  0  0  0
   -2.2017    0.1948    6.8971 C   0  0  0  0  0  0  0  0  0  0  0  0
    1.0037    0.1460    2.4190 C   0  0  1  0  0  0  0  0  0  0  0  0
    2.2116   -0.7721    2.6207 C   0  0  0  0  0  0  0  0  0  0  0  0
    3.1367   -0.3815    3.7762 C   0  0  1  0  0  0  0  0  0  0  0  0
    4.2833   -1.3842    3.8570 C   0  0  0  0  0  0  0  0  0  0  0  0
    3.6683    1.0397    3.6305 C   0  0  0  0  0  0  0  0  0  0  0  0
    0.1808   -0.3741    1.2396 C   0  0  0  0  0  0  0  0  0  0  0  0
   -0.6887   -1.2128    1.3783 O   0  0  0  0  0  0  0  0  0  0  0  0
    0.5626    0.1211    0.0434 N   0  0  0  0  0  0  0  0  0  0  0  0
   -0.0472   -0.2584   -1.2097 C   0  0  1  0  0  0  0  0  0  0  0  0
   -0.6416    0.9626   -1.9256 C   0  0  0  0  0  0  0  0  0  0  0  0
   -1.2748    0.6332   -3.2371 C   0  0  0  0  0  0  0  0  0  0  0  0
   -0.7411    0.8787   -4.5428 C   0  0  0  0  0  0  0  0  0  0  0  0
   -1.6639    0.3520   -5.4732 C   0  0  0  0  0  0  0  0  0  0  0  0
    0.4206    1.4975   -5.0176 C   0  0  0  0  0  0  0  0  0  0  0  0
   -2.4645   -0.0114   -3.4276 C   0  0  0  0  0  0  0  0  0  0  0  0
   -2.6961   -0.1846   -4.7614 N   0  0  0  0  0  0  0  0  0  0  0  0
   -1.4598    0.4292   -6.8502 C   0  0  0  0  0  0  0  0  0  0  0  0
    0.6274    1.5772   -6.3808 C   0  0  0  0  0  0  0  0  0  0  0  0
   -0.3040    1.0458   -7.2889 C   0  0  0  0  0  0  0  0  0  0  0  0
    1.1559   -1.2101   -2.2093 P   0  0  1  0  0  0  0  0  0  0  0  0
    0.6413   -1.9475   -3.3826 O   0  0  0  0  0  0  0  0  0  0  0  0
    2.2623   -0.0762   -2.4757 O   0  0  0  0  0  0  0  0  0  0  0  0
    1.8179   -2.2549   -1.1751 O   0  0  0  0  0  0  0  0  0  0  0  0
    0.3406   -0.5349    4.3039 H   0  0  0  0  0  0  0  0  0  0  0  0
   -3.2747    2.3726    4.7120 H   0  0  0  0  0  0  0  0  0  0  0  0
   -3.9518    1.4545    7.1958 H   0  0  0  0  0  0  0  0  0  0  0  0
   -2.0603   -0.4332    7.7616 H   0  0  0  0  0  0  0  0  0  0  0  0
    1.3551    1.1565    2.1910 H   0  0  0  0  0  0  0  0  0  0  0  0
    2.7982   -0.7689    1.6960 H   0  0  0  0  0  0  0  0  0  0  0  0
    1.8578   -1.7979    2.7663 H   0  0  0  0  0  0  0  0  0  0  0  0
    2.5740   -0.4430    4.7143 H   0  0  0  0  0  0  0  0  0  0  0  0
    4.9262   -1.1793    4.7140 H   0  0  0  0  0  0  0  0  0  0  0  0
    3.9140   -2.4064    3.9557 H   0  0  0  0  0  0  0  0  0  0  0  0
    4.9038   -1.3390    2.9591 H   0  0  0  0  0  0  0  0  0  0  0  0
    4.1707    1.1705    2.6688 H   0  0  0  0  0  0  0  0  0  0  0  0
    2.8785    1.7886    3.7019 H   0  0  0  0  0  0  0  0  0  0  0  0
    4.3937    1.2622    4.4144 H   0  0  0  0  0  0  0  0  0  0  0  0
    1.2168    0.8895    0.0277 H   0  0  0  0  0  0  0  0  0  0  0  0
   -0.8544   -0.9595   -0.9874 H   0  0  0  0  0  0  0  0  0  0  0  0
   -1.3749    1.3985   -1.2432 H   0  0  0  0  0  0  0  0  0  0  0  0
    0.1328    1.7210   -2.0634 H   0  0  0  0  0  0  0  0  0  0  0  0
    1.1480    1.9122   -4.3311 H   0  0  0  0  0  0  0  0  0  0  0  0
   -3.1751   -0.3686   -2.6979 H   0  0  0  0  0  0  0  0  0  0  0  0
   -3.5168   -0.6156   -5.1516 H   0  0  0  0  0  0  0  0  0  0  0  0
   -2.1789    0.0220   -7.5500 H   0  0  0  0  0  0  0  0  0  0  0  0
    1.5219    2.0541   -6.7605 H   0  0  0  0  0  0  0  0  0  0  0  0
   -0.1126    1.1230   -8.3515 H   0  0  0  0  0  0  0  0  0  0  0  0
    2.9682   -0.3290   -3.0868 H   0  0  0  0  0  0  0  0  0  0  0  0
    2.3297   -1.8672   -0.4552 H   0  0  0  0  0  0  0  0  0  0  0  0
  1  2  1  0
  1  9  1  0
  1 32  1  0
  2  3  2  0
  2  4  1  0
  4  5  1  0
  4  6  2  0
  5  8  1  0
  6  7  1  0
  6 33  1  0
  7  8  2  0
  7 34  1  0
  8 35  1  0
  9 10  1  0
  9 14  1  0
  9 36  1  6
 10 11  1  0
 10 37  1  0
 10 38  1  0
 11 12  1  0
 11 13  1  0
 11 39  1  1
 12 40  1  0
 12 41  1  0
 12 42  1  0
 13 43  1  0
 13 44  1  0
 13 45  1  0
 14 15  2  0
 14 16  1  0
 16 17  1  0
 16 46  1  0
 17 18  1  0
 17 28  1  0
 17 47  1  1
 18 19  1  0
 18 48  1  0
 18 49  1  0
 19 20  1  0
 19 23  2  0
 20 21  1  0
 20 22  2  0
 21 24  1  0
 21 25  2  0
 22 26  1  0
 22 50  1  0
 23 24  1  0
 23 51  1  0
 24 52  1  0
 25 27  1  0
 25 53  1  0
 26 27  2  0
 26 54  1  0
 27 55  1  0
 28 29  2  0
 28 30  1  6
 28 31  1  0
 30 56  1  0
 31 57  1  0
M  END
