
     RDKit          3D

 15 15  0  0  0  0  0  0  0  0999 V2000
    1.2087   -0.0901   -1.9816 N   0  0  0  0  0  0  0  0  0  0  0  0
    1.1827    0.3275   -0.7222 C   0  0  0  0  0  0  0  0  0  0  0  0
    0.0169    0.4941    0.0175 C   0  0  0  0  0  0  0  0  0  0  0  0
   -1.1874    0.1931   -0.6099 C   0  0  0  0  0  0  0  0  0  0  0  0
   -1.1733   -0.2430   -1.9241 C   0  0  0  0  0  0  0  0  0  0  0  0
    0.0504   -0.3689   -2.5665 C   0  0  0  0  0  0  0  0  0  0  0  0
    0.0675    0.9506    1.4413 C   0  0  0  0  0  0  0  0  0  0  0  0
   -0.1336   -0.5184    2.5138 S   0  0  0  0  0  0  0  0  0  0  0  0
    2.1432    0.5503   -0.2670 H   0  0  0  0  0  0  0  0  0  0  0  0
   -2.1245    0.3032   -0.0775 H   0  0  0  0  0  0  0  0  0  0  0  0
   -2.0906   -0.4804   -2.4448 H   0  0  0  0  0  0  0  0  0  0  0  0
    0.0949   -0.7077   -3.5956 H   0  0  0  0  0  0  0  0  0  0  0  0
   -0.7329    1.6588    1.6513 H   0  0  0  0  0  0  0  0  0  0  0  0
    1.0200    1.4315    1.6595 H   0  0  0  0  0  0  0  0  0  0  0  0
   -0.1463    0.1213    3.6896 H   0  0  0  0  0  0  0  0  0  0  0  0
  1  2  2  0
  1  6  1  0
  2  3  1  0
  2  9  1  0
  3  4  2  0
  3  7  1  0
  4  5  1  0
  4 10  1  0
  5  6  2  0
  5 11  1  0
  6 12  1  0
  7  8  1  0
  7 13  1  0
  7 14  1  0
  8 15  1  0
M  END
