
     RDKit          3D

 35 34  0  0  0  0  0  0  0  0999 V2000
    7.4296    0.4743   -0.0076 C   0  0  0  0  0  0  0  0  0  0  0  0
    6.1867   -0.4053   -0.0026 C   0  0  0  0  0  0  0  0  0  0  0  0
    4.8942    0.4022   -0.0100 C   0  0  0  0  0  0  0  0  0  0  0  0
    3.6399   -0.4629   -0.0085 C   0  0  0  0  0  0  0  0  0  0  0  0
    2.3507    0.3492   -0.0076 C   0  0  0  0  0  0  0  0  0  0  0  0
    1.0947   -0.5136   -0.0085 C   0  0  0  0  0  0  0  0  0  0  0  0
   -0.1929    0.3007   -0.0081 C   0  0  0  0  0  0  0  0  0  0  0  0
   -1.4478   -0.5630   -0.0038 C   0  0  0  0  0  0  0  0  0  0  0  0
   -2.7318    0.2574   -0.0036 C   0  0  0  0  0  0  0  0  0  0  0  0
   -3.9667   -0.6286    0.0016 C   0  0  0  0  0  0  0  0  0  0  0  0
   -5.2643    0.1303    0.0046 C   0  0  0  0  0  0  0  0  0  0  0  0
   -6.3147   -0.6869   -0.0146 O   0  0  0  0  0  0  0  0  0  0  0  0
   -5.3707    1.3314    0.0239 O   0  0  0  0  0  0  0  0  0  0  0  0
    7.4518    1.1269    0.8673 H   0  0  0  0  0  0  0  0  0  0  0  0
    8.3449   -0.1187   -0.0005 H   0  0  0  0  0  0  0  0  0  0  0  0
    7.4560    1.1114   -0.8938 H   0  0  0  0  0  0  0  0  0  0  0  0
    6.2031   -1.0699   -0.8722 H   0  0  0  0  0  0  0  0  0  0  0  0
    6.2008   -1.0572    0.8766 H   0  0  0  0  0  0  0  0  0  0  0  0
    4.8781    1.0666    0.8616 H   0  0  0  0  0  0  0  0  0  0  0  0
    4.8821    1.0571   -0.8888 H   0  0  0  0  0  0  0  0  0  0  0  0
    3.6529   -1.1222   -0.8837 H   0  0  0  0  0  0  0  0  0  0  0  0
    3.6545   -1.1219    0.8669 H   0  0  0  0  0  0  0  0  0  0  0  0
    2.3373    1.0077    0.8684 H   0  0  0  0  0  0  0  0  0  0  0  0
    2.3372    1.0097   -0.8822 H   0  0  0  0  0  0  0  0  0  0  0  0
    1.1075   -1.1718   -0.8846 H   0  0  0  0  0  0  0  0  0  0  0  0
    1.1073   -1.1737    0.8662 H   0  0  0  0  0  0  0  0  0  0  0  0
   -0.2046    0.9621    0.8655 H   0  0  0  0  0  0  0  0  0  0  0  0
   -0.2075    0.9575   -0.8852 H   0  0  0  0  0  0  0  0  0  0  0  0
   -1.4364   -1.2242   -0.8775 H   0  0  0  0  0  0  0  0  0  0  0  0
   -1.4334   -1.2197    0.8732 H   0  0  0  0  0  0  0  0  0  0  0  0
   -2.7422    0.9147    0.8701 H   0  0  0  0  0  0  0  0  0  0  0  0
   -2.7461    0.9093   -0.8815 H   0  0  0  0  0  0  0  0  0  0  0  0
   -3.9639   -1.2964   -0.8660 H   0  0  0  0  0  0  0  0  0  0  0  0
   -3.9604   -1.2888    0.8754 H   0  0  0  0  0  0  0  0  0  0  0  0
   -7.1346   -0.1709   -0.0072 H   0  0  0  0  0  0  0  0  0  0  0  0
  1  2  1  0
  1 14  1  0
  1 15  1  0
  1 16  1  0
  2  3  1  0
  2 17  1  0
  2 18  1  0
  3  4  1  0
  3 19  1  0
  3 20  1  0
  4  5  1  0
  4 21  1  0
  4 22  1  0
  5  6  1  0
  5 23  1  0
  5 24  1  0
  6  7  1  0
  6 25  1  0
  6 26  1  0
  7  8  1  0
  7 27  1  0
  7 28  1  0
  8  9  1  0
  8 29  1  0
  8 30  1  0
  9 10  1  0
  9 31  1  0
  9 32  1  0
 10 11  1  0
 10 33  1  0
 10 34  1  0
 11 12  1  0
 11 13  2  0
 12 35  1  0
M  END
