
     RDKit          3D

 55 57  0  0  0  0  0  0  0  0999 V2000
    4.4873   -0.8363   -1.7838 N   0  0  0  0  0  0  0  0  0  0  0  0
    5.6456   -0.3798   -1.3113 C   0  0  0  0  0  0  0  0  0  0  0  0
    5.8268    0.3106   -0.1820 N   0  0  0  0  0  0  0  0  0  0  0  0
    4.7442    0.5734    0.5386 C   0  0  0  0  0  0  0  0  0  0  0  0
    3.4755    0.1506    0.1490 C   0  0  0  0  0  0  0  0  0  0  0  0
    3.4045   -0.5797   -1.0641 C   0  0  0  0  0  0  0  0  0  0  0  0
   -5.5203   -0.1812   -0.8935 C   0  0  0  0  0  0  0  0  0  0  0  0
    6.7413   -0.6107   -2.0622 N   0  0  0  0  0  0  0  0  0  0  0  0
    4.9314    1.3929    1.7783 C   0  0  0  0  0  0  0  0  0  0  0  0
    2.2284   -1.0656   -1.5069 N   0  0  0  0  0  0  0  0  0  0  0  0
    2.2927    0.4016    0.8851 C   0  0  0  0  0  0  0  0  0  0  0  0
    1.2212    0.5528    1.4203 C   0  0  0  0  0  0  0  0  0  0  0  0
   -0.0972    0.6465    2.0411 C   0  0  2  0  0  0  0  0  0  0  0  0
   -0.0910    0.0721    3.4635 C   0  0  0  0  0  0  0  0  0  0  0  0
   -1.1205   -0.0555    1.1660 C   0  0  0  0  0  0  0  0  0  0  0  0
   -0.8525   -1.3439    0.6994 C   0  0  0  0  0  0  0  0  0  0  0  0
   -1.8059   -1.9847   -0.0759 C   0  0  0  0  0  0  0  0  0  0  0  0
   -3.0118   -1.3534   -0.3881 C   0  0  0  0  0  0  0  0  0  0  0  0
   -3.2931   -0.0764    0.0909 C   0  0  0  0  0  0  0  0  0  0  0  0
   -2.3155    0.5667    0.8744 C   0  0  0  0  0  0  0  0  0  0  0  0
   -4.5082    0.5512   -0.1607 N   0  0  0  0  0  0  0  0  0  0  0  0
   -4.4864    1.9597   -0.5291 C   0  0  0  0  0  0  0  0  0  0  0  0
   -5.8717    2.5613   -0.4057 C   0  0  0  0  0  0  0  0  0  0  0  0
   -6.8180    1.8532   -1.1725 O   0  0  0  0  0  0  0  0  0  0  0  0
   -6.8659    0.5081   -0.7612 C   0  0  0  0  0  0  0  0  0  0  0  0
    4.6959    2.8772    1.5007 C   0  0  0  0  0  0  0  0  0  0  0  0
   -1.6499   -3.2193   -0.5958 O   0  0  0  0  0  0  0  0  0  0  0  0
   -0.4325   -3.8912   -0.3730 C   0  0  0  0  0  0  0  0  0  0  0  0
   -5.6278   -1.1846   -0.4788 H   0  0  0  0  0  0  0  0  0  0  0  0
    6.6870   -1.2774   -2.8103 H   0  0  0  0  0  0  0  0  0  0  0  0
    7.6452   -0.4604   -1.6533 H   0  0  0  0  0  0  0  0  0  0  0  0
    4.2470    1.0544    2.5581 H   0  0  0  0  0  0  0  0  0  0  0  0
    5.9480    1.2442    2.1432 H   0  0  0  0  0  0  0  0  0  0  0  0
    2.1852   -1.3982   -2.4538 H   0  0  0  0  0  0  0  0  0  0  0  0
    1.3696   -0.7055   -1.1250 H   0  0  0  0  0  0  0  0  0  0  0  0
   -0.3758    1.7025    2.1110 H   0  0  0  0  0  0  0  0  0  0  0  0
    0.1805   -0.9827    3.4602 H   0  0  0  0  0  0  0  0  0  0  0  0
    0.6216    0.6058    4.0910 H   0  0  0  0  0  0  0  0  0  0  0  0
   -1.0801    0.1716    3.9085 H   0  0  0  0  0  0  0  0  0  0  0  0
    0.0871   -1.8142    0.9569 H   0  0  0  0  0  0  0  0  0  0  0  0
   -3.7038   -1.8845   -1.0264 H   0  0  0  0  0  0  0  0  0  0  0  0
   -2.4994    1.5527    1.2793 H   0  0  0  0  0  0  0  0  0  0  0  0
   -3.8249    2.5224    0.1250 H   0  0  0  0  0  0  0  0  0  0  0  0
   -4.1134    2.0903   -1.5552 H   0  0  0  0  0  0  0  0  0  0  0  0
   -6.1672    2.5782    0.6525 H   0  0  0  0  0  0  0  0  0  0  0  0
   -5.8538    3.5903   -0.7657 H   0  0  0  0  0  0  0  0  0  0  0  0
   -7.5987   -0.0044   -1.3855 H   0  0  0  0  0  0  0  0  0  0  0  0
   -7.2046    0.4369    0.2821 H   0  0  0  0  0  0  0  0  0  0  0  0
    5.3689    3.2419    0.7253 H   0  0  0  0  0  0  0  0  0  0  0  0
    3.6725    3.0618    1.1750 H   0  0  0  0  0  0  0  0  0  0  0  0
    4.8723    3.4655    2.4004 H   0  0  0  0  0  0  0  0  0  0  0  0
   -0.5027   -4.8418   -0.8967 H   0  0  0  0  0  0  0  0  0  0  0  0
    0.4249   -3.3358   -0.7657 H   0  0  0  0  0  0  0  0  0  0  0  0
   -0.2600   -4.0898    0.6887 H   0  0  0  0  0  0  0  0  0  0  0  0
   -5.2588   -0.2915   -1.9572 H   0  0  0  0  0  0  0  0  0  0  0  0
  2  1  2  0
  1  6  1  0
  3  2  1  0
  8  2  1  0
  3  4  2  0
  9  4  1  0
  4  5  1  0
  5 11  1  0
  5  6  2  0
  6 10  1  0
 21  7  1  0
 25  7  1  0
  7 55  1  0
  7 29  1  0
  8 30  1  0
  8 31  1  0
 26  9  1  0
  9 32  1  0
  9 33  1  0
 10 34  1  0
 10 35  1  0
 12 11  3  0
 13 12  1  0
 15 13  1  0
 13 14  1  0
 13 36  1  1
 14 37  1  0
 14 38  1  0
 14 39  1  0
 16 15  2  0
 20 15  1  0
 17 16  1  0
 16 40  1  0
 27 17  1  0
 18 17  2  0
 18 19  1  0
 18 41  1  0
 21 19  1  0
 19 20  2  0
 20 42  1  0
 22 21  1  0
 23 22  1  0
 22 43  1  0
 22 44  1  0
 23 24  1  0
 23 45  1  0
 23 46  1  0
 24 25  1  0
 25 47  1  0
 25 48  1  0
 26 49  1  0
 26 50  1  0
 26 51  1  0
 27 28  1  0
 28 52  1  0
 28 53  1  0
 28 54  1  0
M  END
