
     RDKit          3D

 35 36  0  0  0  0  0  0  0  0999 V2000
    5.4248   -2.1834   -0.2032 C   0  0  0  0  0  0  0  0  0  0  0  0
    4.0157   -2.2869   -0.1537 O   0  0  0  0  0  0  0  0  0  0  0  0
    3.2811   -1.1621   -0.0674 C   0  0  0  0  0  0  0  0  0  0  0  0
    1.9005   -1.3369   -0.0238 C   0  0  0  0  0  0  0  0  0  0  0  0
    3.8354    0.1153   -0.0223 C   0  0  0  0  0  0  0  0  0  0  0  0
    2.9814    1.2171    0.0656 C   0  0  0  0  0  0  0  0  0  0  0  0
    3.4223    2.4880    0.1240 O   0  0  0  0  0  0  0  0  0  0  0  0
    4.8141    2.7341    0.1315 C   0  0  0  0  0  0  0  0  0  0  0  0
    1.6030    1.0492    0.1042 C   0  0  0  0  0  0  0  0  0  0  0  0
    1.0534   -0.2328    0.0552 C   0  0  0  0  0  0  0  0  0  0  0  0
   -0.3897   -0.4736    0.0924 C   0  0  0  0  0  0  0  0  0  0  0  0
   -1.3447    0.4556   -0.0485 C   0  0  0  0  0  0  0  0  0  0  0  0
   -2.7868    0.2367   -0.0013 C   0  0  0  0  0  0  0  0  0  0  0  0
   -3.6458    1.3065   -0.2721 C   0  0  0  0  0  0  0  0  0  0  0  0
   -5.0218    1.1665   -0.2410 C   0  0  0  0  0  0  0  0  0  0  0  0
   -5.5848   -0.0684    0.0707 C   0  0  0  0  0  0  0  0  0  0  0  0
   -6.9266   -0.1649    0.0980 O   0  0  0  0  0  0  0  0  0  0  0  0
   -4.7467   -1.1501    0.3444 C   0  0  0  0  0  0  0  0  0  0  0  0
   -3.3738   -0.9943    0.3088 C   0  0  0  0  0  0  0  0  0  0  0  0
    5.7638   -1.6236   -1.0789 H   0  0  0  0  0  0  0  0  0  0  0  0
    5.8328   -1.7136    0.6956 H   0  0  0  0  0  0  0  0  0  0  0  0
    5.8056   -3.1995   -0.2702 H   0  0  0  0  0  0  0  0  0  0  0  0
    1.4910   -2.3395   -0.0584 H   0  0  0  0  0  0  0  0  0  0  0  0
    4.9065    0.2498   -0.0515 H   0  0  0  0  0  0  0  0  0  0  0  0
    4.9353    3.8126    0.1957 H   0  0  0  0  0  0  0  0  0  0  0  0
    5.3073    2.2751    0.9924 H   0  0  0  0  0  0  0  0  0  0  0  0
    5.2989    2.3817   -0.7828 H   0  0  0  0  0  0  0  0  0  0  0  0
    0.9728    1.9255    0.1874 H   0  0  0  0  0  0  0  0  0  0  0  0
   -0.6730   -1.5116    0.2367 H   0  0  0  0  0  0  0  0  0  0  0  0
   -1.0529    1.4860   -0.2287 H   0  0  0  0  0  0  0  0  0  0  0  0
   -3.2262    2.2754   -0.5163 H   0  0  0  0  0  0  0  0  0  0  0  0
   -5.6623    2.0128   -0.4559 H   0  0  0  0  0  0  0  0  0  0  0  0
   -7.1962   -1.0564    0.3463 H   0  0  0  0  0  0  0  0  0  0  0  0
   -5.1690   -2.1172    0.5926 H   0  0  0  0  0  0  0  0  0  0  0  0
   -2.7561   -1.8545    0.5346 H   0  0  0  0  0  0  0  0  0  0  0  0
 17 16  1  0
 16 18  2  0
 16 15  1  0
 18 19  1  0
 15 14  2  0
 19 13  2  0
 14 13  1  0
 13 12  1  0
 12 11  2  0
 11 10  1  0
 10  4  1  0
 10  9  2  0
  4  3  2  0
  9  6  1  0
  3  2  1  0
  3  5  1  0
  2  1  1  0
  6  5  2  0
  6  7  1  0
  7  8  1  0
  1 20  1  0
  1 21  1  0
  1 22  1  0
  4 23  1  0
  5 24  1  0
  8 25  1  0
  8 26  1  0
  8 27  1  0
  9 28  1  0
 11 29  1  0
 12 30  1  0
 14 31  1  0
 15 32  1  0
 17 33  1  0
 18 34  1  0
 19 35  1  0
M  END
