
     RDKit          3D

 24 26  0  0  0  0  0  0  0  0999 V2000
   -1.7561    1.8465   -0.4633 C   0  0  0  0  0  0  0  0  0  0  0  0
   -3.2447    2.2621   -0.3350 C   0  0  0  0  0  0  0  0  0  0  0  0
   -3.1237    0.1760    0.2598 C   0  0  0  0  0  0  0  0  0  0  0  0
   -1.5042   -1.6669    0.5779 C   0  0  0  0  0  0  0  0  0  0  0  0
    1.1640    0.8366    0.7037 C   0  0  0  0  0  0  0  0  0  0  0  0
    2.5353    1.0052    0.6048 C   0  0  0  0  0  0  0  0  0  0  0  0
   -0.9025   -0.4962    0.2943 C   0  0  0  0  0  0  0  0  0  0  0  0
    0.5418   -0.2902    0.1661 C   0  0  0  0  0  0  0  0  0  0  0  0
    1.3256   -1.2477   -0.4767 C   0  0  0  0  0  0  0  0  0  0  0  0
    2.6984   -1.0940   -0.5757 C   0  0  0  0  0  0  0  0  0  0  0  0
    3.2925    0.0361   -0.0353 C   0  0  0  0  0  0  0  0  0  0  0  0
   -1.8013    0.5462    0.1929 N   0  0  0  0  0  0  0  0  0  0  0  0
   -4.0037    1.0428   -0.0360 N   0  0  0  0  0  0  0  0  0  0  0  0
   -3.2494   -1.5104    0.6851 S   0  0  0  0  0  0  0  0  0  0  0  0
   -1.4357    1.7412   -1.5026 H   0  0  0  0  0  0  0  0  0  0  0  0
   -3.3731    2.9869    0.4741 H   0  0  0  0  0  0  0  0  0  0  0  0
   -1.0282   -2.6085    0.7974 H   0  0  0  0  0  0  0  0  0  0  0  0
    0.5859    1.5848    1.2290 H   0  0  0  0  0  0  0  0  0  0  0  0
    3.0063    1.8804    1.0304 H   0  0  0  0  0  0  0  0  0  0  0  0
    0.8598   -2.1181   -0.9195 H   0  0  0  0  0  0  0  0  0  0  0  0
    3.2937   -1.8430   -1.0795 H   0  0  0  0  0  0  0  0  0  0  0  0
   -1.0888    2.5416    0.0411 H   0  0  0  0  0  0  0  0  0  0  0  0
   -3.6110    2.7317   -1.2478 H   0  0  0  0  0  0  0  0  0  0  0  0
    5.0062    0.2420   -0.1651 Cl  0  0  0  0  0  0  0  0  0  0  0  0
  2 13  1  0
  2  1  1  0
 13  3  2  0
  1 12  1  0
  3 12  1  0
  3 14  1  0
 12  7  1  0
 14  4  1  0
  7  4  2  0
  7  8  1  0
  8  9  1  0
  8  5  2  0
  9 10  2  0
  5  6  1  0
 10 11  1  0
 11  6  2  0
 11 24  1  0
  1 15  1  0
  2 16  1  0
  4 17  1  0
  5 18  1  0
  6 19  1  0
  9 20  1  0
 10 21  1  0
  1 22  1  0
  2 23  1  0
M  END
