
     RDKit          3D

 42 44  0  0  0  0  0  0  0  0999 V2000
    6.2954   -1.1015    0.6450 C   0  0  0  0  0  0  0  0  0  0  0  0
    5.4864   -0.5815   -0.5376 C   0  0  1  0  0  0  0  0  0  0  0  0
    6.0911    0.6850   -1.1315 C   0  0  0  0  0  0  0  0  0  0  0  0
    5.3922   -1.6576   -1.6118 C   0  0  0  0  0  0  0  0  0  0  0  0
    4.0997   -0.3709   -0.1581 O   0  0  0  0  0  0  0  0  0  0  0  0
    3.7369    0.5080    0.7724 C   0  0  0  0  0  0  0  0  0  0  0  0
    4.4677    1.2695    1.3773 O   0  0  0  0  0  0  0  0  0  0  0  0
    2.4147    0.4448    0.9849 N   0  0  0  0  0  0  0  0  0  0  0  0
    1.5804    1.3362    1.7638 C   0  0  0  0  0  0  0  0  0  0  0  0
    0.3590    0.5528    1.2420 C   0  0  2  0  0  0  0  0  0  0  0  0
    1.3187   -0.2246    0.3055 C   0  0  0  0  0  0  0  0  0  0  0  0
   -0.6620    1.3618    0.6474 N   0  0  0  0  0  0  0  0  0  0  0  0
   -1.8383    0.8425    0.2659 C   0  0  0  0  0  0  0  0  0  0  0  0
   -2.7122    1.7046   -0.3385 N   0  0  0  0  0  0  0  0  0  0  0  0
   -3.9692    1.3450   -0.7707 C   0  0  0  0  0  0  0  0  0  0  0  0
   -4.7072    2.1519   -1.3038 O   0  0  0  0  0  0  0  0  0  0  0  0
   -4.2867   -0.0520   -0.5153 C   0  0  0  0  0  0  0  0  0  0  0  0
   -5.5155   -0.5950   -0.8792 C   0  0  0  0  0  0  0  0  0  0  0  0
   -5.7576   -1.9243   -0.6115 C   0  0  0  0  0  0  0  0  0  0  0  0
   -4.7476   -2.6553    0.0157 C   0  0  0  0  0  0  0  0  0  0  0  0
   -3.5770   -2.1613    0.3691 N   0  0  0  0  0  0  0  0  0  0  0  0
   -3.3285   -0.8702    0.1134 C   0  0  0  0  0  0  0  0  0  0  0  0
   -2.1070   -0.4093    0.4883 N   0  0  0  0  0  0  0  0  0  0  0  0
    6.4050   -0.3599    1.4332 H   0  0  0  0  0  0  0  0  0  0  0  0
    5.8349   -1.9961    1.0679 H   0  0  0  0  0  0  0  0  0  0  0  0
    7.2944   -1.3753    0.3042 H   0  0  0  0  0  0  0  0  0  0  0  0
    7.0746    0.4532   -1.5423 H   0  0  0  0  0  0  0  0  0  0  0  0
    5.4755    1.0624   -1.9498 H   0  0  0  0  0  0  0  0  0  0  0  0
    6.2142    1.4741   -0.3938 H   0  0  0  0  0  0  0  0  0  0  0  0
    4.9288   -2.5670   -1.2264 H   0  0  0  0  0  0  0  0  0  0  0  0
    4.8132   -1.3130   -2.4703 H   0  0  0  0  0  0  0  0  0  0  0  0
    6.3906   -1.9147   -1.9644 H   0  0  0  0  0  0  0  0  0  0  0  0
    1.7406    1.2999    2.8415 H   0  0  0  0  0  0  0  0  0  0  0  0
    1.6234    2.3787    1.4335 H   0  0  0  0  0  0  0  0  0  0  0  0
    1.2206    0.0419   -0.7498 H   0  0  0  0  0  0  0  0  0  0  0  0
    1.3073   -1.3096    0.4100 H   0  0  0  0  0  0  0  0  0  0  0  0
   -0.0848   -0.0906    1.9984 H   0  0  0  0  0  0  0  0  0  0  0  0
   -0.4058    2.2789    0.3154 H   0  0  0  0  0  0  0  0  0  0  0  0
   -2.4457    2.6726   -0.4692 H   0  0  0  0  0  0  0  0  0  0  0  0
   -6.2611    0.0222   -1.3634 H   0  0  0  0  0  0  0  0  0  0  0  0
   -6.6932   -2.3965   -0.8742 H   0  0  0  0  0  0  0  0  0  0  0  0
   -4.9098   -3.7042    0.2407 H   0  0  0  0  0  0  0  0  0  0  0  0
  1  2  1  0
  2  3  1  0
  2  4  1  0
  2  5  1  1
  5  6  1  0
  6  7  2  0
  6  8  1  0
  8  9  1  0
  8 11  1  0
  9 10  1  0
 10 11  1  0
 10 12  1  0
 12 13  1  0
 13 14  1  0
 13 23  2  0
 14 15  1  0
 15 16  2  0
 15 17  1  0
 17 18  2  0
 17 22  1  0
 18 19  1  0
 19 20  2  0
 20 21  1  0
 21 22  2  0
 22 23  1  0
  1 24  1  0
  1 25  1  0
  1 26  1  0
  3 27  1  0
  3 28  1  0
  3 29  1  0
  4 30  1  0
  4 31  1  0
  4 32  1  0
  9 33  1  0
  9 34  1  0
 11 35  1  0
 11 36  1  0
 10 37  1  1
 12 38  1  0
 14 39  1  0
 18 40  1  0
 19 41  1  0
 20 42  1  0
M  END
