
     RDKit          3D

 49 51  0  0  0  0  0  0  0  0999 V2000
   -1.3238    1.5938   -0.2438 C   0  0  0  0  0  0  0  0  0  0  0  0
   -6.9218    1.3972   -0.9997 C   0  0  0  0  0  0  0  0  0  0  0  0
   -0.6409    0.3825   -0.1176 C   0  0  0  0  0  0  0  0  0  0  0  0
   -1.3915   -0.7940   -0.0171 C   0  0  0  0  0  0  0  0  0  0  0  0
   -3.5620   -2.0961   -0.0487 C   0  0  1  0  0  0  0  0  0  0  0  0
   -4.8931   -1.8245    0.5971 C   0  0  0  0  0  0  0  0  0  0  0  0
   -5.4677   -0.6293    0.4959 C   0  0  0  0  0  0  0  0  0  0  0  0
   -3.7897   -2.5210   -1.5109 C   0  0  0  0  0  0  0  0  0  0  0  0
   -5.8038    2.4680    0.9987 C   0  0  0  0  0  0  0  0  0  0  0  0
   -4.8322    0.4603   -0.0832 N   0  0  0  0  0  0  0  0  0  0  0  0
   -2.7022    1.6219   -0.2461 C   0  0  0  0  0  0  0  0  0  0  0  0
   -2.7738   -0.7951   -0.0386 C   0  0  0  0  0  0  0  0  0  0  0  0
   -3.4539    0.4413   -0.1377 C   0  0  0  0  0  0  0  0  0  0  0  0
    0.7755    0.3357   -0.0837 C   0  0  0  0  0  0  0  0  0  0  0  0
    1.9833    0.2850   -0.0432 C   0  0  0  0  0  0  0  0  0  0  0  0
    3.3991    0.2204    0.0219 C   0  0  0  0  0  0  0  0  0  0  0  0
    4.0460   -1.0116    0.1797 C   0  0  0  0  0  0  0  0  0  0  0  0
    5.4235   -1.0700    0.2559 C   0  0  0  0  0  0  0  0  0  0  0  0
    6.1884    0.0932    0.1758 C   0  0  0  0  0  0  0  0  0  0  0  0
    5.5475    1.3218    0.0143 C   0  0  0  0  0  0  0  0  0  0  0  0
    4.1689    1.3860   -0.0622 C   0  0  0  0  0  0  0  0  0  0  0  0
    7.6630   -0.0245    0.2678 C   0  0  0  0  0  0  0  0  0  0  0  0
    8.2461   -1.0736    0.4075 O   0  0  0  0  0  0  0  0  0  0  0  0
    8.2821    1.1446    0.1847 O   0  0  0  0  0  0  0  0  0  0  0  0
   -0.7721    2.5214   -0.3215 H   0  0  0  0  0  0  0  0  0  0  0  0
   -7.3817    2.3384   -1.3002 H   0  0  0  0  0  0  0  0  0  0  0  0
   -6.7641    0.7992   -1.8975 H   0  0  0  0  0  0  0  0  0  0  0  0
   -7.6372    0.8778   -0.3612 H   0  0  0  0  0  0  0  0  0  0  0  0
   -0.8574   -1.7311    0.0641 H   0  0  0  0  0  0  0  0  0  0  0  0
   -1.9382   -3.5465    0.1895 H   0  0  0  0  0  0  0  0  0  0  0  0
   -2.5920   -2.9386    1.7148 H   0  0  0  0  0  0  0  0  0  0  0  0
   -3.5048   -4.0986    0.7489 H   0  0  0  0  0  0  0  0  0  0  0  0
   -5.4155   -2.6277    1.1009 H   0  0  0  0  0  0  0  0  0  0  0  0
   -6.4560   -0.4400    0.8920 H   0  0  0  0  0  0  0  0  0  0  0  0
   -4.4164   -3.4143   -1.5552 H   0  0  0  0  0  0  0  0  0  0  0  0
   -4.2884   -1.7339   -2.0782 H   0  0  0  0  0  0  0  0  0  0  0  0
   -2.8408   -2.7462   -2.0034 H   0  0  0  0  0  0  0  0  0  0  0  0
   -5.0221    2.3010   -0.9882 H   0  0  0  0  0  0  0  0  0  0  0  0
   -4.8519    2.7225    1.4659 H   0  0  0  0  0  0  0  0  0  0  0  0
   -6.3377    3.3981    0.8013 H   0  0  0  0  0  0  0  0  0  0  0  0
   -6.3901    1.8934    1.7182 H   0  0  0  0  0  0  0  0  0  0  0  0
   -3.1888    2.5846   -0.3058 H   0  0  0  0  0  0  0  0  0  0  0  0
    3.4615   -1.9193    0.2453 H   0  0  0  0  0  0  0  0  0  0  0  0
    5.9077   -2.0290    0.3819 H   0  0  0  0  0  0  0  0  0  0  0  0
    6.1161    2.2388   -0.0534 H   0  0  0  0  0  0  0  0  0  0  0  0
    3.6807    2.3431   -0.1871 H   0  0  0  0  0  0  0  0  0  0  0  0
    9.2400    1.0166    0.2501 H   0  0  0  0  0  0  0  0  0  0  0  0
   -2.8498   -3.2275    0.6952 C   0  0  0  0  0  0  0  0  0  0  0  0
   -5.6011    1.6887   -0.2966 C   0  0  1  0  0  0  0  0  0  0  0  0
 23 22  2  0
 24 22  1  0
 22 19  1  0
 19 18  1  0
 19 20  2  0
 18 17  2  0
 20 21  1  0
 17 16  1  0
 21 16  2  0
 16 15  1  0
 15 14  3  0
 14  3  1  0
  3  1  2  0
  3  4  1  0
  1 11  1  0
  4 12  2  0
 11 13  2  0
 12 13  1  0
 12  5  1  0
 13 10  1  0
  5 48  1  1
  5  8  1  0
  5  6  1  0
 10 49  1  0
 10  7  1  0
 49  2  1  0
 49  9  1  0
  7  6  2  0
  1 25  1  0
  2 26  1  0
  2 27  1  0
  2 28  1  0
  4 29  1  0
 48 30  1  0
 48 31  1  0
 48 32  1  0
  6 33  1  0
  7 34  1  0
  8 35  1  0
  8 36  1  0
  8 37  1  0
 49 38  1  6
  9 39  1  0
  9 40  1  0
  9 41  1  0
 11 42  1  0
 17 43  1  0
 18 44  1  0
 20 45  1  0
 21 46  1  0
 24 47  1  0
M  END
