
     RDKit          3D

 32 34  0  0  0  0  0  0  0  0999 V2000
    1.1775   -0.4223    0.0964 C   0  0  0  0  0  0  0  0  0  0  0  0
    3.1429    0.5113   -0.0056 C   0  0  0  0  0  0  0  0  0  0  0  0
    4.2805    1.2977   -0.0888 C   0  0  0  0  0  0  0  0  0  0  0  0
    5.5032    0.6463   -0.0375 C   0  0  0  0  0  0  0  0  0  0  0  0
    5.5750   -0.7426    0.0893 C   0  0  0  0  0  0  0  0  0  0  0  0
   -3.5604    1.0455   -0.0839 C   0  0  0  0  0  0  0  0  0  0  0  0
   -4.7050    0.3857   -0.0562 N   0  0  0  0  0  0  0  0  0  0  0  0
   -4.3840   -0.9086   -0.1032 N   0  0  0  0  0  0  0  0  0  0  0  0
   -5.4001   -1.9220   -0.0537 C   0  0  0  0  0  0  0  0  0  0  0  0
   -3.0796   -1.0858   -0.1579 C   0  0  0  0  0  0  0  0  0  0  0  0
   -2.4772    0.1570   -0.1279 C   0  0  0  0  0  0  0  0  0  0  0  0
   -1.0782    0.5292   -0.1118 C   0  0  0  0  0  0  0  0  0  0  0  0
   -0.6685    1.6487   -0.3008 O   0  0  0  0  0  0  0  0  0  0  0  0
   -0.1958   -0.5163    0.1518 N   0  0  0  0  0  0  0  0  0  0  0  0
    1.7975    0.7925   -0.0371 N   0  0  0  0  0  0  0  0  0  0  0  0
    4.4348   -1.5198    0.1648 C   0  0  0  0  0  0  0  0  0  0  0  0
    3.1994   -0.8961    0.1247 C   0  0  0  0  0  0  0  0  0  0  0  0
    1.9522   -1.4370    0.1936 N   0  0  0  0  0  0  0  0  0  0  0  0
    4.2436    2.3734   -0.1874 H   0  0  0  0  0  0  0  0  0  0  0  0
    6.4114    1.2291   -0.0911 H   0  0  0  0  0  0  0  0  0  0  0  0
    6.5484   -1.2117    0.1322 H   0  0  0  0  0  0  0  0  0  0  0  0
   -2.8762    2.8625    0.8099 H   0  0  0  0  0  0  0  0  0  0  0  0
   -3.0484    2.9595   -0.9018 H   0  0  0  0  0  0  0  0  0  0  0  0
   -4.5087    2.9418    0.1111 H   0  0  0  0  0  0  0  0  0  0  0  0
   -6.2608   -1.5858   -0.6035 H   0  0  0  0  0  0  0  0  0  0  0  0
   -5.0802   -2.8417   -0.5104 H   0  0  0  0  0  0  0  0  0  0  0  0
   -5.6989   -2.1414    0.9607 H   0  0  0  0  0  0  0  0  0  0  0  0
   -2.7041   -2.0873   -0.1059 H   0  0  0  0  0  0  0  0  0  0  0  0
   -0.5075   -1.3973    0.5023 H   0  0  0  0  0  0  0  0  0  0  0  0
    1.2111    1.6085   -0.1118 H   0  0  0  0  0  0  0  0  0  0  0  0
    4.4766   -2.5922    0.2627 H   0  0  0  0  0  0  0  0  0  0  0  0
   -3.5068    2.5323   -0.0134 C   0  0  0  0  0  0  0  0  0  0  0  0
  4  3  2  0
  4  5  1  0
  3  2  1  0
  5 16  2  0
  2 17  2  0
  2 15  1  0
 16 17  1  0
 17 18  1  0
 15  1  1  0
 18  1  2  0
  1 14  1  0
 13 12  2  0
 14 12  1  0
 12 11  1  0
 32  6  1  0
 11  6  1  0
 11 10  2  0
  6  7  2  0
  7  8  1  0
 10  8  1  0
  8  9  1  0
  3 19  1  0
  4 20  1  0
  5 21  1  0
 32 22  1  0
 32 23  1  0
 32 24  1  0
  9 25  1  0
  9 26  1  0
  9 27  1  0
 10 28  1  0
 14 29  1  0
 15 30  1  0
 16 31  1  0
M  END
