
     RDKit          3D

101102  0  0  0  0  0  0  0  0999 V2000
   -2.8594    0.3104    0.8376 N   0  0  0  0  0  0  0  0  0  0  0  0
   -3.3451   -1.8344    1.8531 C   0  0  0  0  0  0  0  0  0  0  0  0
    5.1946    1.0877    2.6007 O   0  0  0  0  0  0  0  0  0  0  0  0
   -9.2130    7.3883   -2.1451 C   0  0  0  0  0  0  0  0  0  0  0  0
   -8.5157    6.7096   -0.9747 C   0  0  0  0  0  0  0  0  0  0  0  0
   -7.4707    5.6909   -1.4141 C   0  0  0  0  0  0  0  0  0  0  0  0
   -6.7734    5.0079   -0.2455 C   0  0  0  0  0  0  0  0  0  0  0  0
   -5.7293    3.9843   -0.6739 C   0  0  0  0  0  0  0  0  0  0  0  0
   -5.0695    3.2924    0.5110 C   0  0  0  0  0  0  0  0  0  0  0  0
   -4.0246    2.2765    0.0780 C   0  0  0  0  0  0  0  0  0  0  0  0
   -3.4954    1.4335    1.2201 C   0  0  0  0  0  0  0  0  0  0  0  0
   -3.6289    1.7547    2.3922 O   0  0  0  0  0  0  0  0  0  0  0  0
   -2.3475   -0.6892    1.7481 C   0  0  1  0  0  0  0  0  0  0  0  0
   -3.4707   -2.4458    0.5846 O   0  0  0  0  0  0  0  0  0  0  0  0
   -4.6452   -3.1623    0.3947 C   0  0  1  0  0  0  0  0  0  0  0  0
   -5.7642   -2.3298    0.2517 O   0  0  0  0  0  0  0  0  0  0  0  0
   -5.7253   -1.4727   -0.8773 C   0  0  2  0  0  0  0  0  0  0  0  0
   -6.9415   -0.5738   -0.8311 C   0  0  0  0  0  0  0  0  0  0  0  0
   -6.8344    0.2605    0.2982 O   0  0  0  0  0  0  0  0  0  0  0  0
   -5.6268   -2.2640   -2.1732 C   0  0  2  0  0  0  0  0  0  0  0  0
   -6.8158   -2.9916   -2.3629 O   0  0  0  0  0  0  0  0  0  0  0  0
   -4.4077   -3.1809   -2.0990 C   0  0  2  0  0  0  0  0  0  0  0  0
   -4.3851   -3.9599   -3.2720 O   0  0  0  0  0  0  0  0  0  0  0  0
   -4.4876   -4.0452   -0.8472 C   0  0  1  0  0  0  0  0  0  0  0  0
   -3.3356   -4.8497   -0.7947 O   0  0  0  0  0  0  0  0  0  0  0  0
   -0.9418   -1.1395    1.2994 C   0  0  2  0  0  0  0  0  0  0  0  0
   -0.6119   -2.4097    1.8096 O   0  0  0  0  0  0  0  0  0  0  0  0
    0.1615   -0.1340    1.6900 C   0  0  2  0  0  0  0  0  0  0  0  0
   -0.1984    1.2104    1.4753 O   0  0  0  0  0  0  0  0  0  0  0  0
    1.4859   -0.4774    1.0133 C   0  0  0  0  0  0  0  0  0  0  0  0
    2.6600    0.3271    1.5570 C   0  0  0  0  0  0  0  0  0  0  0  0
    3.9688   -0.0761    0.8948 C   0  0  0  0  0  0  0  0  0  0  0  0
    5.1791    0.6269    1.4733 C   0  0  0  0  0  0  0  0  0  0  0  0
    6.2418    0.6638    0.6272 N   0  0  0  0  0  0  0  0  0  0  0  0
    7.5440    1.1231    0.8510 C   0  0  0  0  0  0  0  0  0  0  0  0
    8.4821    0.8487   -0.1479 C   0  0  0  0  0  0  0  0  0  0  0  0
    7.9457    1.8322    1.9839 C   0  0  0  0  0  0  0  0  0  0  0  0
    9.2690    2.2402    2.0901 C   0  0  0  0  0  0  0  0  0  0  0  0
   10.1951    1.9609    1.0981 C   0  0  0  0  0  0  0  0  0  0  0  0
    9.8038    1.2581   -0.0398 C   0  0  0  0  0  0  0  0  0  0  0  0
   10.8029    0.8925   -1.1010 C   0  0  0  0  0  0  0  0  0  0  0  0
   11.4661   -0.4575   -0.8207 C   0  0  0  0  0  0  0  0  0  0  0  0
   12.4912   -0.8425   -1.8787 C   0  0  0  0  0  0  0  0  0  0  0  0
   13.1478   -2.1913   -1.6113 C   0  0  0  0  0  0  0  0  0  0  0  0
   14.1735   -2.5681   -2.6709 C   0  0  0  0  0  0  0  0  0  0  0  0
   -2.8518    0.0793   -0.1430 H   0  0  0  0  0  0  0  0  0  0  0  0
   -4.2989   -1.4122    2.1859 H   0  0  0  0  0  0  0  0  0  0  0  0
   -9.7278    6.6597   -2.7742 H   0  0  0  0  0  0  0  0  0  0  0  0
   -9.9541    8.1126   -1.8050 H   0  0  0  0  0  0  0  0  0  0  0  0
   -8.4979    7.9186   -2.7767 H   0  0  0  0  0  0  0  0  0  0  0  0
   -8.0386    7.4655   -0.3432 H   0  0  0  0  0  0  0  0  0  0  0  0
   -9.2588    6.2133   -0.3428 H   0  0  0  0  0  0  0  0  0  0  0  0
   -7.9477    4.9338   -2.0465 H   0  0  0  0  0  0  0  0  0  0  0  0
   -6.7250    6.1866   -2.0456 H   0  0  0  0  0  0  0  0  0  0  0  0
   -6.2978    5.7652    0.3873 H   0  0  0  0  0  0  0  0  0  0  0  0
   -7.5220    4.5149    0.3846 H   0  0  0  0  0  0  0  0  0  0  0  0
   -6.2022    3.2304   -1.3134 H   0  0  0  0  0  0  0  0  0  0  0  0
   -4.9694    4.4754   -1.2916 H   0  0  0  0  0  0  0  0  0  0  0  0
   -4.6138    4.0396    1.1654 H   0  0  0  0  0  0  0  0  0  0  0  0
   -5.8392    2.7906    1.1017 H   0  0  0  0  0  0  0  0  0  0  0  0
   -4.4486    1.6185   -0.6853 H   0  0  0  0  0  0  0  0  0  0  0  0
   -3.1790    2.7835   -0.3990 H   0  0  0  0  0  0  0  0  0  0  0  0
   -2.2820   -0.2338    2.7397 H   0  0  0  0  0  0  0  0  0  0  0  0
   -4.8655   -3.7878    1.2715 H   0  0  0  0  0  0  0  0  0  0  0  0
   -4.8400   -0.8266   -0.8378 H   0  0  0  0  0  0  0  0  0  0  0  0
   -6.9623    0.0051   -1.7639 H   0  0  0  0  0  0  0  0  0  0  0  0
   -7.8569   -1.1765   -0.8041 H   0  0  0  0  0  0  0  0  0  0  0  0
   -7.5947    0.8480    0.3061 H   0  0  0  0  0  0  0  0  0  0  0  0
   -5.4707   -1.5440   -2.9909 H   0  0  0  0  0  0  0  0  0  0  0  0
   -6.6819   -3.5889   -3.1068 H   0  0  0  0  0  0  0  0  0  0  0  0
   -3.5118   -2.5463   -2.0383 H   0  0  0  0  0  0  0  0  0  0  0  0
   -3.7340   -4.6607   -3.1570 H   0  0  0  0  0  0  0  0  0  0  0  0
   -5.3926   -4.6629   -0.9136 H   0  0  0  0  0  0  0  0  0  0  0  0
   -3.5180   -5.6169   -0.2439 H   0  0  0  0  0  0  0  0  0  0  0  0
   -0.9496   -1.2586    0.2088 H   0  0  0  0  0  0  0  0  0  0  0  0
   -0.4825   -2.3365    2.7620 H   0  0  0  0  0  0  0  0  0  0  0  0
    0.2933   -0.2177    2.7780 H   0  0  0  0  0  0  0  0  0  0  0  0
   -0.3106    1.3513    0.5291 H   0  0  0  0  0  0  0  0  0  0  0  0
    1.6867   -1.5439    1.1440 H   0  0  0  0  0  0  0  0  0  0  0  0
    1.3845   -0.3165   -0.0673 H   0  0  0  0  0  0  0  0  0  0  0  0
    2.4871    1.3950    1.4067 H   0  0  0  0  0  0  0  0  0  0  0  0
    2.7325    0.1706    2.6359 H   0  0  0  0  0  0  0  0  0  0  0  0
    4.1287   -1.1536    1.0185 H   0  0  0  0  0  0  0  0  0  0  0  0
    3.9168    0.0939   -0.1845 H   0  0  0  0  0  0  0  0  0  0  0  0
    6.0952    0.2416   -0.2773 H   0  0  0  0  0  0  0  0  0  0  0  0
    8.1694    0.3010   -1.0317 H   0  0  0  0  0  0  0  0  0  0  0  0
    7.2474    2.0698    2.7688 H   0  0  0  0  0  0  0  0  0  0  0  0
    9.5750    2.7921    2.9699 H   0  0  0  0  0  0  0  0  0  0  0  0
   11.2219    2.2901    1.2031 H   0  0  0  0  0  0  0  0  0  0  0  0
   10.3148    0.8567   -2.0790 H   0  0  0  0  0  0  0  0  0  0  0  0
   11.5734    1.6659   -1.1634 H   0  0  0  0  0  0  0  0  0  0  0  0
   11.9478   -0.4261    0.1622 H   0  0  0  0  0  0  0  0  0  0  0  0
   10.6932   -1.2305   -0.7582 H   0  0  0  0  0  0  0  0  0  0  0  0
   12.0098   -0.8622   -2.8629 H   0  0  0  0  0  0  0  0  0  0  0  0
   13.2644   -0.0683   -1.9352 H   0  0  0  0  0  0  0  0  0  0  0  0
   13.6256   -2.1714   -0.6268 H   0  0  0  0  0  0  0  0  0  0  0  0
   12.3759   -2.9651   -1.5576 H   0  0  0  0  0  0  0  0  0  0  0  0
   13.7140   -2.6259   -3.6595 H   0  0  0  0  0  0  0  0  0  0  0  0
   14.9756   -1.8296   -2.7254 H   0  0  0  0  0  0  0  0  0  0  0  0
   14.6299   -3.5365   -2.4622 H   0  0  0  0  0  0  0  0  0  0  0  0
   -3.0324   -2.5687    2.6030 H   0  0  0  0  0  0  0  0  0  0  0  0
 45 44  1  0
 44 43  1  0
 43 42  1  0
 42 41  1  0
 41 40  1  0
 40 39  1  0
 40 36  2  0
 39 38  2  0
 36 35  1  0
 38 37  1  0
 35 37  2  0
 35 34  1  0
 34 33  1  0
  3 33  2  0
 33 32  1  0
  4  5  1  0
 32 31  1  0
 31 30  1  0
  5  6  1  0
  6  7  1  0
 30 28  1  0
 29 28  1  0
 28 26  1  0
  7  8  1  0
 27 26  1  0
  8  9  1  0
  9 10  1  0
 26 13  1  0
 12 11  2  0
 13  1  1  0
 13  2  1  0
 11  1  1  0
 11 10  1  0
  2 14  1  0
 14 15  1  0
 25 24  1  0
 15 24  1  0
 15 16  1  0
 24 22  1  0
 16 17  1  0
 22 20  1  0
 22 23  1  0
 17 20  1  0
 17 18  1  0
 19 18  1  0
 20 21  1  0
  1 46  1  0
  2101  1  0
  2 47  1  0
  4 48  1  0
  4 49  1  0
  4 50  1  0
  5 51  1  0
  5 52  1  0
  6 53  1  0
  6 54  1  0
  7 55  1  0
  7 56  1  0
  8 57  1  0
  8 58  1  0
  9 59  1  0
  9 60  1  0
 10 61  1  0
 10 62  1  0
 13 63  1  1
 15 64  1  1
 17 65  1  1
 18 66  1  0
 18 67  1  0
 19 68  1  0
 20 69  1  6
 21 70  1  0
 22 71  1  1
 23 72  1  0
 24 73  1  6
 25 74  1  0
 26 75  1  6
 27 76  1  0
 28 77  1  1
 29 78  1  0
 30 79  1  0
 30 80  1  0
 31 81  1  0
 31 82  1  0
 32 83  1  0
 32 84  1  0
 34 85  1  0
 36 86  1  0
 37 87  1  0
 38 88  1  0
 39 89  1  0
 41 90  1  0
 41 91  1  0
 42 92  1  0
 42 93  1  0
 43 94  1  0
 43 95  1  0
 44 96  1  0
 44 97  1  0
 45 98  1  0
 45 99  1  0
 45100  1  0
M  END
