
     RDKit          3D

 45 46  0  0  0  0  0  0  0  0999 V2000
    9.5012   -0.5086    0.3391 C   0  0  0  0  0  0  0  0  0  0  0  0
    8.1053   -0.5531    0.9454 C   0  0  0  0  0  0  0  0  0  0  0  0
    7.0129   -0.1778   -0.0484 C   0  0  0  0  0  0  0  0  0  0  0  0
    5.6123   -0.2157    0.5501 C   0  0  0  0  0  0  0  0  0  0  0  0
    4.5228    0.1605   -0.4465 C   0  0  0  0  0  0  0  0  0  0  0  0
    3.1197    0.1119    0.1459 C   0  0  0  0  0  0  0  0  0  0  0  0
    2.0369    0.4845   -0.8588 C   0  0  0  0  0  0  0  0  0  0  0  0
    0.6315    0.4021   -0.2780 C   0  0  0  0  0  0  0  0  0  0  0  0
   -0.4351    0.7998   -1.3035 C   0  0  0  0  0  0  0  0  0  0  0  0
   -1.8218    0.6777   -0.7567 C   0  0  0  0  0  0  0  0  0  0  0  0
   -2.5326    1.7397   -0.2813 C   0  0  0  0  0  0  0  0  0  0  0  0
   -3.8447    1.5940    0.2831 C   0  0  0  0  0  0  0  0  0  0  0  0
   -4.5033    2.5379    0.7272 O   0  0  0  0  0  0  0  0  0  0  0  0
   -4.3618    0.2168    0.2949 C   0  0  0  0  0  0  0  0  0  0  0  0
   -5.6348   -0.0717    0.8046 C   0  0  0  0  0  0  0  0  0  0  0  0
   -6.1189   -1.3598    0.8121 C   0  0  0  0  0  0  0  0  0  0  0  0
   -5.3306   -2.4002    0.3043 C   0  0  0  0  0  0  0  0  0  0  0  0
   -4.0772   -2.1482   -0.2028 C   0  0  0  0  0  0  0  0  0  0  0  0
   -3.5861   -0.8353   -0.2096 C   0  0  0  0  0  0  0  0  0  0  0  0
   -2.3417   -0.5678   -0.7140 N   0  0  0  0  0  0  0  0  0  0  0  0
    9.7401    0.4918   -0.0268 H   0  0  0  0  0  0  0  0  0  0  0  0
   10.2632   -0.7822    1.0702 H   0  0  0  0  0  0  0  0  0  0  0  0
    9.5904   -1.1967   -0.5036 H   0  0  0  0  0  0  0  0  0  0  0  0
    7.9076   -1.5553    1.3381 H   0  0  0  0  0  0  0  0  0  0  0  0
    8.0614    0.1233    1.8049 H   0  0  0  0  0  0  0  0  0  0  0  0
    7.2132    0.8247   -0.4429 H   0  0  0  0  0  0  0  0  0  0  0  0
    7.0575   -0.8562   -0.9079 H   0  0  0  0  0  0  0  0  0  0  0  0
    5.4117   -1.2187    0.9427 H   0  0  0  0  0  0  0  0  0  0  0  0
    5.5683    0.4615    1.4104 H   0  0  0  0  0  0  0  0  0  0  0  0
    4.7194    1.1660   -0.8348 H   0  0  0  0  0  0  0  0  0  0  0  0
    4.5723   -0.5135   -1.3089 H   0  0  0  0  0  0  0  0  0  0  0  0
    2.9233   -0.8937    0.5335 H   0  0  0  0  0  0  0  0  0  0  0  0
    3.0657    0.7869    1.0070 H   0  0  0  0  0  0  0  0  0  0  0  0
    2.2191    1.4987   -1.2302 H   0  0  0  0  0  0  0  0  0  0  0  0
    2.1043   -0.1773   -1.7288 H   0  0  0  0  0  0  0  0  0  0  0  0
    0.4434   -0.6153    0.0792 H   0  0  0  0  0  0  0  0  0  0  0  0
    0.5513    1.0581    0.5935 H   0  0  0  0  0  0  0  0  0  0  0  0
   -0.2710    1.8302   -1.6207 H   0  0  0  0  0  0  0  0  0  0  0  0
   -0.3419    0.1716   -2.1945 H   0  0  0  0  0  0  0  0  0  0  0  0
   -2.0917    2.7267   -0.3333 H   0  0  0  0  0  0  0  0  0  0  0  0
   -6.2360    0.7398    1.1931 H   0  0  0  0  0  0  0  0  0  0  0  0
   -7.1026   -1.5725    1.2080 H   0  0  0  0  0  0  0  0  0  0  0  0
   -5.7073   -3.4146    0.3093 H   0  0  0  0  0  0  0  0  0  0  0  0
   -3.4682   -2.9538   -0.5946 H   0  0  0  0  0  0  0  0  0  0  0  0
   -1.8007   -1.3348   -1.0861 H   0  0  0  0  0  0  0  0  0  0  0  0
  1  2  1  0
 13 12  2  0
 15 16  2  0
 15 14  1  0
  2  3  1  0
 16 17  1  0
 12 14  1  0
 12 11  1  0
 14 19  2  0
 17 18  2  0
  3  4  1  0
  4  5  1  0
 11 10  2  0
  5  6  1  0
 19 18  1  0
 19 20  1  0
 10 20  1  0
 10  9  1  0
  6  7  1  0
  8  9  1  0
  8  7  1  0
  1 21  1  0
  1 22  1  0
  1 23  1  0
  2 24  1  0
  2 25  1  0
  3 26  1  0
  3 27  1  0
  4 28  1  0
  4 29  1  0
  5 30  1  0
  5 31  1  0
  6 32  1  0
  6 33  1  0
  7 34  1  0
  7 35  1  0
  8 36  1  0
  8 37  1  0
  9 38  1  0
  9 39  1  0
 11 40  1  0
 15 41  1  0
 16 42  1  0
 17 43  1  0
 18 44  1  0
 20 45  1  0
M  END
