
     RDKit          3D

 21 21  0  0  0  0  0  0  0  0999 V2000
    2.2429   -0.9260    0.3296 C   0  0  0  0  0  0  0  0  0  0  0  0
    1.3552   -1.5189    0.8868 O   0  0  0  0  0  0  0  0  0  0  0  0
    2.1976    0.5263   -0.0133 C   0  0  0  0  0  0  0  0  0  0  0  0
    3.3925   -1.4791   -0.0244 O   0  0  0  0  0  0  0  0  0  0  0  0
    1.0677    1.2370   -0.1260 C   0  0  0  0  0  0  0  0  0  0  0  0
   -4.3378   -0.3108   -0.0811 O   0  0  0  0  0  0  0  0  0  0  0  0
   -0.3236    0.7730   -0.1178 C   0  0  0  0  0  0  0  0  0  0  0  0
    3.4342    1.0539   -0.1348 O   0  0  0  0  0  0  0  0  0  0  0  0
   -1.2792    1.4967    0.5986 C   0  0  0  0  0  0  0  0  0  0  0  0
   -2.6127    1.1257    0.6123 C   0  0  0  0  0  0  0  0  0  0  0  0
   -3.0310    0.0160   -0.1178 C   0  0  0  0  0  0  0  0  0  0  0  0
   -2.0971   -0.6995   -0.8646 C   0  0  0  0  0  0  0  0  0  0  0  0
   -0.7660   -0.3187   -0.8637 C   0  0  0  0  0  0  0  0  0  0  0  0
    1.1897    2.3089   -0.2681 H   0  0  0  0  0  0  0  0  0  0  0  0
   -4.5068   -1.0790   -0.6378 H   0  0  0  0  0  0  0  0  0  0  0  0
    3.3717    1.9885   -0.3657 H   0  0  0  0  0  0  0  0  0  0  0  0
   -0.9738    2.3683    1.1653 H   0  0  0  0  0  0  0  0  0  0  0  0
   -3.3322    1.6968    1.1856 H   0  0  0  0  0  0  0  0  0  0  0  0
   -2.4090   -1.5518   -1.4579 H   0  0  0  0  0  0  0  0  0  0  0  0
   -0.0700   -0.8731   -1.4794 H   0  0  0  0  0  0  0  0  0  0  0  0
    3.3985   -2.4124    0.2369 H   0  0  0  0  0  0  0  0  0  0  0  0
  1  2  2  0
  1  3  1  0
  1  4  1  0
  3  5  2  0
  3  8  1  0
  5  7  1  0
  5 14  1  0
  6 11  1  0
  6 15  1  0
  7  9  2  0
  7 13  1  0
  8 16  1  0
  9 10  1  0
  9 17  1  0
 10 11  2  0
 10 18  1  0
 11 12  1  0
 12 13  2  0
 12 19  1  0
 13 20  1  0
  4 21  1  0
M  END
