
     RDKit          3D

 18 18  0  0  0  0  0  0  0  0999 V2000
   -2.6396   -0.8471   -0.1633 C   0  0  0  0  0  0  0  0  0  0  0  0
   -1.6153   -1.7714   -0.2889 C   0  0  0  0  0  0  0  0  0  0  0  0
   -2.2916    0.4863    0.0056 C   0  0  0  0  0  0  0  0  0  0  0  0
   -0.1292   -0.1250   -0.0801 C   0  0  0  0  0  0  0  0  0  0  0  0
   -3.3039    1.5708    0.1487 C   0  0  0  0  0  0  0  0  0  0  0  0
   -0.3389   -1.4131   -0.2495 N   0  0  0  0  0  0  0  0  0  0  0  0
   -1.0004    0.8400    0.0479 N   0  0  0  0  0  0  0  0  0  0  0  0
    2.1526   -0.0584   -1.4872 N   0  0  0  0  0  0  0  0  0  0  0  0
    1.6940    1.7539    0.2129 O   0  0  0  0  0  0  0  0  0  0  0  0
    2.2153   -0.6034    0.9541 O   0  0  0  0  0  0  0  0  0  0  0  0
    1.6170    0.3206    0.0069 S   0  0  1  0  0  0  0  0  0  0  0  0
   -3.6734   -1.1587   -0.2001 H   0  0  0  0  0  0  0  0  0  0  0  0
   -1.8286   -2.8245   -0.4258 H   0  0  0  0  0  0  0  0  0  0  0  0
   -3.2409    2.0158    1.1429 H   0  0  0  0  0  0  0  0  0  0  0  0
   -3.1128    2.3644   -0.5732 H   0  0  0  0  0  0  0  0  0  0  0  0
   -4.3152    1.1973    0.0064 H   0  0  0  0  0  0  0  0  0  0  0  0
    2.3605    0.7333   -2.0820 H   0  0  0  0  0  0  0  0  0  0  0  0
    2.8660   -0.7753   -1.5095 H   0  0  0  0  0  0  0  0  0  0  0  0
  1  2  2  0
  1  3  1  0
  2  6  1  0
  3  5  1  0
  3  7  2  0
  4  6  2  0
  4  7  1  0
  4 11  1  0
 11  8  1  6
  9 11  2  0
 10 11  2  0
  1 12  1  0
  2 13  1  0
  5 14  1  0
  5 15  1  0
  5 16  1  0
  8 17  1  0
  8 18  1  0
M  END
