
     RDKit          3D

 40 42  0  0  0  0  0  0  0  0999 V2000
    4.5848   -0.7844    1.3322 C   0  0  0  0  0  0  0  0  0  0  0  0
    4.6628    0.1931    0.2671 N   0  0  0  0  0  0  0  0  0  0  0  0
    5.9267    0.0767   -0.4305 C   0  0  0  0  0  0  0  0  0  0  0  0
    3.5529    0.0804   -0.6587 C   0  0  0  0  0  0  0  0  0  0  0  0
    2.2154    0.4939   -0.0612 C   0  0  0  0  0  0  0  0  0  0  0  0
    1.1172    0.4390   -1.1331 C   0  0  0  0  0  0  0  0  0  0  0  0
   -0.2417    0.2272   -0.6580 N   0  0  0  0  0  0  0  0  0  0  0  0
   -0.9776    1.3237   -0.1948 C   0  0  0  0  0  0  0  0  0  0  0  0
   -0.3729    2.5401    0.1295 C   0  0  0  0  0  0  0  0  0  0  0  0
   -1.1266    3.6203    0.5688 C   0  0  0  0  0  0  0  0  0  0  0  0
   -2.4980    3.5094    0.7299 C   0  0  0  0  0  0  0  0  0  0  0  0
   -3.1142    2.3042    0.4242 C   0  0  0  0  0  0  0  0  0  0  0  0
   -2.3686    1.2371   -0.0540 C   0  0  0  0  0  0  0  0  0  0  0  0
   -3.1997   -0.2046   -0.6249 S   0  0  0  0  0  0  0  0  0  0  0  0
   -1.9845   -1.4001   -0.1890 C   0  0  0  0  0  0  0  0  0  0  0  0
   -0.6281   -1.0775   -0.3318 C   0  0  0  0  0  0  0  0  0  0  0  0
    0.2985   -2.1096   -0.1554 C   0  0  0  0  0  0  0  0  0  0  0  0
   -0.1144   -3.3962    0.1655 C   0  0  0  0  0  0  0  0  0  0  0  0
   -1.4561   -3.6871    0.3479 C   0  0  0  0  0  0  0  0  0  0  0  0
   -2.3903   -2.6756    0.1735 C   0  0  0  0  0  0  0  0  0  0  0  0
    5.4440   -0.6764    1.9951 H   0  0  0  0  0  0  0  0  0  0  0  0
    3.6900   -0.6409    1.9378 H   0  0  0  0  0  0  0  0  0  0  0  0
    4.5773   -1.8215    0.9593 H   0  0  0  0  0  0  0  0  0  0  0  0
    6.0621   -0.8991   -0.9238 H   0  0  0  0  0  0  0  0  0  0  0  0
    6.0092    0.8503   -1.1953 H   0  0  0  0  0  0  0  0  0  0  0  0
    6.7529    0.2095    0.2696 H   0  0  0  0  0  0  0  0  0  0  0  0
    3.7632    0.7291   -1.5142 H   0  0  0  0  0  0  0  0  0  0  0  0
    3.4686   -0.9459   -1.0641 H   0  0  0  0  0  0  0  0  0  0  0  0
    1.9451   -0.1461    0.7804 H   0  0  0  0  0  0  0  0  0  0  0  0
    2.3112    1.5014    0.3477 H   0  0  0  0  0  0  0  0  0  0  0  0
    1.1239    1.3549   -1.7262 H   0  0  0  0  0  0  0  0  0  0  0  0
    1.3298   -0.3658   -1.8411 H   0  0  0  0  0  0  0  0  0  0  0  0
    0.6958    2.6660    0.0407 H   0  0  0  0  0  0  0  0  0  0  0  0
   -0.6236    4.5499    0.8006 H   0  0  0  0  0  0  0  0  0  0  0  0
   -3.0841    4.3463    1.0843 H   0  0  0  0  0  0  0  0  0  0  0  0
   -4.1856    2.1946    0.5380 H   0  0  0  0  0  0  0  0  0  0  0  0
    1.3582   -1.9382   -0.2757 H   0  0  0  0  0  0  0  0  0  0  0  0
    0.6336   -4.1689    0.2836 H   0  0  0  0  0  0  0  0  0  0  0  0
   -1.7774   -4.6846    0.6141 H   0  0  0  0  0  0  0  0  0  0  0  0
   -3.4463   -2.8820    0.2955 H   0  0  0  0  0  0  0  0  0  0  0  0
  1  2  1  0
  2  3  1  0
  2  4  1  0
  4  5  1  0
  5  6  1  0
  6  7  1  0
 17 18  2  0
 17 16  1  0
 18 19  1  0
  7 16  1  0
  7  8  1  0
 16 15  2  0
 19 20  2  0
 15 20  1  0
 15 14  1  0
 14 13  1  0
  8 13  2  0
  8  9  1  0
 13 12  1  0
  9 10  2  0
 12 11  2  0
 10 11  1  0
  1 21  1  0
  1 22  1  0
  1 23  1  0
  3 24  1  0
  3 25  1  0
  3 26  1  0
  4 27  1  0
  4 28  1  0
  5 29  1  0
  5 30  1  0
  6 31  1  0
  6 32  1  0
  9 33  1  0
 10 34  1  0
 11 35  1  0
 12 36  1  0
 17 37  1  0
 18 38  1  0
 19 39  1  0
 20 40  1  0
M  END
