
     RDKit          3D

 28 30  0  0  0  0  0  0  0  0999 V2000
   -0.7398    1.5822   -0.2188 C   0  0  0  0  0  0  0  0  0  0  0  0
   -2.1809    1.7187   -0.2344 C   0  0  0  0  0  0  0  0  0  0  0  0
   -2.7496    2.7904   -0.3893 O   0  0  0  0  0  0  0  0  0  0  0  0
   -2.9057    0.4542   -0.0579 C   0  0  0  0  0  0  0  0  0  0  0  0
   -4.3034    0.3967   -0.0604 C   0  0  0  0  0  0  0  0  0  0  0  0
   -4.9536   -0.8062    0.1059 C   0  0  0  0  0  0  0  0  0  0  0  0
   -4.2146   -1.9806    0.2773 C   0  0  0  0  0  0  0  0  0  0  0  0
   -2.8354   -1.9522    0.2825 C   0  0  0  0  0  0  0  0  0  0  0  0
   -2.1933   -0.7293    0.1134 C   0  0  0  0  0  0  0  0  0  0  0  0
   -0.8403   -0.7449    0.1306 O   0  0  0  0  0  0  0  0  0  0  0  0
   -0.1452    0.3851   -0.0337 C   0  0  0  0  0  0  0  0  0  0  0  0
    1.3068    0.1613   -0.0111 C   0  0  0  0  0  0  0  0  0  0  0  0
    1.8375   -1.0872   -0.3411 C   0  0  0  0  0  0  0  0  0  0  0  0
    3.2052   -1.2869   -0.3401 C   0  0  0  0  0  0  0  0  0  0  0  0
    4.0563   -0.2381    0.0022 C   0  0  0  0  0  0  0  0  0  0  0  0
    5.4688   -0.4434    0.0066 C   0  0  0  0  0  0  0  0  0  0  0  0
    6.6088   -0.6086    0.0094 N   0  0  0  0  0  0  0  0  0  0  0  0
    3.5363    1.0093    0.3445 C   0  0  0  0  0  0  0  0  0  0  0  0
    2.1689    1.2018    0.3377 C   0  0  0  0  0  0  0  0  0  0  0  0
   -0.1344    2.4635   -0.3774 H   0  0  0  0  0  0  0  0  0  0  0  0
   -4.8664    1.3106   -0.1959 H   0  0  0  0  0  0  0  0  0  0  0  0
   -6.0341   -0.8450    0.1041 H   0  0  0  0  0  0  0  0  0  0  0  0
   -4.7257   -2.9247    0.4096 H   0  0  0  0  0  0  0  0  0  0  0  0
   -2.2556   -2.8559    0.4169 H   0  0  0  0  0  0  0  0  0  0  0  0
    1.1932   -1.9102   -0.6159 H   0  0  0  0  0  0  0  0  0  0  0  0
    3.6102   -2.2531   -0.6068 H   0  0  0  0  0  0  0  0  0  0  0  0
    4.1961    1.8194    0.6220 H   0  0  0  0  0  0  0  0  0  0  0  0
    1.7775    2.1668    0.6289 H   0  0  0  0  0  0  0  0  0  0  0  0
 17 16  3  0
 16 15  1  0
 15 14  1  0
 15 18  2  0
 14 13  2  0
 18 19  1  0
 13 12  1  0
 19 12  2  0
 12 11  1  0
 11 10  1  0
 11  1  2  0
 10  9  1  0
  1  2  1  0
  9  8  1  0
  9  4  2  0
  8  7  2  0
  2  4  1  0
  2  3  2  0
  4  5  1  0
  7  6  1  0
  5  6  2  0
  1 20  1  0
  5 21  1  0
  6 22  1  0
  7 23  1  0
  8 24  1  0
 13 25  1  0
 14 26  1  0
 18 27  1  0
 19 28  1  0
M  END
