
     RDKit          3D

 49 51  0  0  0  0  0  0  0  0999 V2000
    0.3318   -1.1426    1.0304 F   0  0  0  0  0  0  0  0  0  0  0  0
    0.0609    0.1490    0.8582 C   0  0  0  0  0  0  0  0  0  0  0  0
    1.0043    1.0773    1.2825 C   0  0  0  0  0  0  0  0  0  0  0  0
    2.4912    0.5963    2.0882 S   0  0  0  0  0  0  0  0  0  0  0  0
    3.4431   -0.0620    0.6720 C   0  0  0  0  0  0  0  0  0  0  0  0
    4.8076   -0.5199    1.1786 C   0  0  0  0  0  0  0  0  0  0  0  0
    5.6266   -1.0570    0.0369 C   0  0  0  0  0  0  0  0  0  0  0  0
    5.4766   -2.3772   -0.3827 C   0  0  0  0  0  0  0  0  0  0  0  0
    6.1986   -2.8655   -1.4629 C   0  0  0  0  0  0  0  0  0  0  0  0
    6.5155   -0.2349   -0.6511 C   0  0  0  0  0  0  0  0  0  0  0  0
    7.2407   -0.7198   -1.7317 C   0  0  0  0  0  0  0  0  0  0  0  0
    7.0834   -2.0371   -2.1419 C   0  0  0  0  0  0  0  0  0  0  0  0
   -1.1351    0.4978    0.2525 C   0  0  0  0  0  0  0  0  0  0  0  0
   -1.3958    1.8614    0.0664 C   0  0  0  0  0  0  0  0  0  0  0  0
   -2.8319    2.3288   -0.8977 S   0  0  1  0  0  0  0  0  0  0  0  0
   -2.5951    1.7915   -2.2244 O   0  0  0  0  0  0  0  0  0  0  0  0
   -4.0787    1.5877   -0.1352 N   0  0  0  0  0  0  0  0  0  0  0  0
   -3.0559    3.7541   -0.7412 O   0  0  0  0  0  0  0  0  0  0  0  0
   -0.4789    2.8105    0.4849 C   0  0  0  0  0  0  0  0  0  0  0  0
   -0.6608    4.1130    0.3120 F   0  0  0  0  0  0  0  0  0  0  0  0
    0.7029    2.4120    1.0915 C   0  0  0  0  0  0  0  0  0  0  0  0
    1.5574    3.3494    1.4754 F   0  0  0  0  0  0  0  0  0  0  0  0
   -2.0930   -0.4578   -0.1506 N   0  0  0  0  0  0  0  0  0  0  0  0
   -2.7590   -1.1534    0.9625 C   0  0  0  0  0  0  0  0  0  0  0  0
   -3.7902   -2.1038    0.4200 C   0  0  0  0  0  0  0  0  0  0  0  0
   -3.3926   -3.3117   -0.1502 C   0  0  0  0  0  0  0  0  0  0  0  0
   -4.3287   -4.1832   -0.6880 C   0  0  0  0  0  0  0  0  0  0  0  0
   -5.6800   -3.8603   -0.6564 C   0  0  0  0  0  0  0  0  0  0  0  0
   -6.0872   -2.6640   -0.0829 C   0  0  0  0  0  0  0  0  0  0  0  0
   -5.1460   -1.7917    0.4499 C   0  0  0  0  0  0  0  0  0  0  0  0
    2.9017   -0.8975    0.2296 H   0  0  0  0  0  0  0  0  0  0  0  0
    3.5519    0.7231   -0.0761 H   0  0  0  0  0  0  0  0  0  0  0  0
    5.3251    0.3172    1.6522 H   0  0  0  0  0  0  0  0  0  0  0  0
    4.6742   -1.2894    1.9425 H   0  0  0  0  0  0  0  0  0  0  0  0
    4.7900   -3.0314    0.1422 H   0  0  0  0  0  0  0  0  0  0  0  0
    6.0722   -3.8948   -1.7729 H   0  0  0  0  0  0  0  0  0  0  0  0
    6.6469    0.7937   -0.3361 H   0  0  0  0  0  0  0  0  0  0  0  0
    7.9319   -0.0683   -2.2508 H   0  0  0  0  0  0  0  0  0  0  0  0
    7.6482   -2.4172   -2.9833 H   0  0  0  0  0  0  0  0  0  0  0  0
   -4.8965    2.1848   -0.0772 H   0  0  0  0  0  0  0  0  0  0  0  0
   -4.2846    0.6684   -0.5053 H   0  0  0  0  0  0  0  0  0  0  0  0
   -1.6832   -1.1262   -0.7933 H   0  0  0  0  0  0  0  0  0  0  0  0
   -2.0554   -1.7013    1.5973 H   0  0  0  0  0  0  0  0  0  0  0  0
   -3.2376   -0.4002    1.5894 H   0  0  0  0  0  0  0  0  0  0  0  0
   -2.3420   -3.5803   -0.1668 H   0  0  0  0  0  0  0  0  0  0  0  0
   -4.0044   -5.1184   -1.1256 H   0  0  0  0  0  0  0  0  0  0  0  0
   -6.4116   -4.5421   -1.0705 H   0  0  0  0  0  0  0  0  0  0  0  0
   -7.1381   -2.4079   -0.0463 H   0  0  0  0  0  0  0  0  0  0  0  0
   -5.4759   -0.8657    0.9070 H   0  0  0  0  0  0  0  0  0  0  0  0
 29 28  2  0
 29 30  1  0
 28 27  1  0
 30 25  2  0
 27 26  2  0
 25 26  1  0
 25 24  1  0
 24 23  1  0
  1  2  1  0
  8  9  2  0
  8  7  1  0
  9 12  1  0
  4  3  1  0
  4  5  1  0
  2  3  2  0
  2 13  1  0
  6  7  1  0
  6  5  1  0
 23 13  1  0
  7 10  2  0
 12 11  2  0
  3 21  1  0
 13 14  2  0
 10 11  1  0
 21 22  1  0
 21 19  2  0
 14 19  1  0
 14 15  1  0
 15 17  1  1
 19 20  1  0
 15 16  2  0
 15 18  2  0
  5 31  1  0
  5 32  1  0
  6 33  1  0
  6 34  1  0
  8 35  1  0
  9 36  1  0
 10 37  1  0
 11 38  1  0
 12 39  1  0
 17 40  1  0
 17 41  1  0
 23 42  1  0
 24 43  1  0
 24 44  1  0
 26 45  1  0
 27 46  1  0
 28 47  1  0
 29 48  1  0
 30 49  1  0
M  END
