
     RDKit          3D

 61 63  0  0  0  0  0  0  0  0999 V2000
   -5.4556    0.0520   -0.8909 C   0  0  0  0  0  0  0  0  0  0  0  0
   -5.6335   -0.6861    1.3741 C   0  0  0  0  0  0  0  0  0  0  0  0
   -6.7281    0.6007   -0.8127 C   0  0  0  0  0  0  0  0  0  0  0  0
   -6.9058   -0.1400    1.4524 C   0  0  0  0  0  0  0  0  0  0  0  0
    9.5097   -1.8564    0.5125 C   0  0  0  0  0  0  0  0  0  0  0  0
    8.1369   -1.9560    0.5031 C   0  0  0  0  0  0  0  0  0  0  0  0
    7.8926    0.3640   -0.1527 C   0  0  0  0  0  0  0  0  0  0  0  0
   -4.8903   -0.6037    0.1993 C   0  0  0  0  0  0  0  0  0  0  0  0
   -7.4729    0.5103    0.3596 C   0  0  0  0  0  0  0  0  0  0  0  0
   10.1052   -0.6383    0.1879 C   0  0  0  0  0  0  0  0  0  0  0  0
    7.3166   -0.8591    0.1748 C   0  0  0  0  0  0  0  0  0  0  0  0
    9.2796    0.4453   -0.1377 C   0  0  0  0  0  0  0  0  0  0  0  0
   11.6952    0.8393   -0.1699 C   0  0  0  0  0  0  0  0  0  0  0  0
    4.9181   -0.2735   -0.1553 C   0  0  0  0  0  0  0  0  0  0  0  0
  -11.3323    0.4689    0.3955 C   0  0  0  0  0  0  0  0  0  0  0  0
   -9.7390   -0.7695   -1.0298 C   0  0  0  0  0  0  0  0  0  0  0  0
   -0.0146    0.0510   -0.0938 C   0  0  0  0  0  0  0  0  0  0  0  0
   13.0484    1.4420   -0.2848 C   0  0  0  0  0  0  0  0  0  0  0  0
   -3.5008   -1.1707    0.1199 C   0  0  0  0  0  0  0  0  0  0  0  0
   -8.8731    1.0557    0.4385 C   0  0  0  0  0  0  0  0  0  0  0  0
    3.5563   -0.9186   -0.0225 C   0  0  0  0  0  0  0  0  0  0  0  0
   -2.4434   -0.0788    0.2709 C   0  0  0  0  0  0  0  0  0  0  0  0
    2.4300    0.1013   -0.0072 C   0  0  0  0  0  0  0  0  0  0  0  0
   -9.9149   -0.0611    0.2991 C   0  0  1  0  0  0  0  0  0  0  0  0
   11.4557   -0.3796    0.1580 N   0  0  0  0  0  0  0  0  0  0  0  0
    5.9394   -1.0878    0.2179 N   0  0  0  0  0  0  0  0  0  0  0  0
   -1.1194   -0.6561    0.2677 N   0  0  0  0  0  0  0  0  0  0  0  0
    1.1673   -0.5873    0.1382 N   0  0  0  0  0  0  0  0  0  0  0  0
    5.0703    0.8591   -0.5747 O   0  0  0  0  0  0  0  0  0  0  0  0
  -11.6284    1.5748    0.7609 O   0  0  0  0  0  0  0  0  0  0  0  0
   -9.8716   -0.2093   -2.0883 O   0  0  0  0  0  0  0  0  0  0  0  0
   -0.0744    1.1537   -0.6275 O   0  0  0  0  0  0  0  0  0  0  0  0
  -12.2110   -0.4592    0.0465 O   0  0  0  0  0  0  0  0  0  0  0  0
   -9.4069   -2.0405   -0.8976 O   0  0  0  0  0  0  0  0  0  0  0  0
   10.2738    1.8178   -0.4871 S   0  0  0  0  0  0  0  0  0  0  0  0
   -4.8963    0.1322   -1.8163 H   0  0  0  0  0  0  0  0  0  0  0  0
   -7.1468    1.1036   -1.6765 H   0  0  0  0  0  0  0  0  0  0  0  0
   -5.2127   -1.1867    2.2386 H   0  0  0  0  0  0  0  0  0  0  0  0
   -7.4661   -0.2215    2.3774 H   0  0  0  0  0  0  0  0  0  0  0  0
    7.6752   -2.9023    0.7576 H   0  0  0  0  0  0  0  0  0  0  0  0
    7.2942    1.2239   -0.4040 H   0  0  0  0  0  0  0  0  0  0  0  0
   -3.3659   -1.9198    0.9046 H   0  0  0  0  0  0  0  0  0  0  0  0
   -3.3524   -1.6787   -0.8362 H   0  0  0  0  0  0  0  0  0  0  0  0
   -9.0266    1.5481    1.3997 H   0  0  0  0  0  0  0  0  0  0  0  0
   -9.0326    1.8062   -0.3367 H   0  0  0  0  0  0  0  0  0  0  0  0
    5.6738   -2.0039    0.5473 H   0  0  0  0  0  0  0  0  0  0  0  0
   13.2023    1.8775   -1.2722 H   0  0  0  0  0  0  0  0  0  0  0  0
   13.1844    2.2380    0.4483 H   0  0  0  0  0  0  0  0  0  0  0  0
   13.8058    0.6802   -0.1152 H   0  0  0  0  0  0  0  0  0  0  0  0
    3.4237   -1.6086   -0.8623 H   0  0  0  0  0  0  0  0  0  0  0  0
    3.5269   -1.5310    0.8832 H   0  0  0  0  0  0  0  0  0  0  0  0
   -9.7864   -0.7783    1.1165 H   0  0  0  0  0  0  0  0  0  0  0  0
  -13.1158   -0.1175    0.1165 H   0  0  0  0  0  0  0  0  0  0  0  0
   -9.2768   -2.4446   -1.7697 H   0  0  0  0  0  0  0  0  0  0  0  0
   -0.9916   -1.4724    0.8451 H   0  0  0  0  0  0  0  0  0  0  0  0
    1.1593   -1.3802    0.7614 H   0  0  0  0  0  0  0  0  0  0  0  0
   -2.5247    0.6248   -0.5568 H   0  0  0  0  0  0  0  0  0  0  0  0
   -2.6303    0.4865    1.1915 H   0  0  0  0  0  0  0  0  0  0  0  0
    2.5896    0.8214    0.8026 H   0  0  0  0  0  0  0  0  0  0  0  0
    2.4237    0.6624   -0.9397 H   0  0  0  0  0  0  0  0  0  0  0  0
   10.1200   -2.7119    0.7701 H   0  0  0  0  0  0  0  0  0  0  0  0
  1  3  2  0
  1  8  1  0
  2  4  1  0
  2  8  2  0
  3  9  1  0
  4  9  2  0
  5  6  2  0
  5 10  1  0
  6 11  1  0
  7 11  2  0
  7 12  1  0
  8 19  1  0
  9 20  1  0
 10 12  2  0
 10 25  1  0
 11 26  1  0
 12 35  1  0
 13 18  1  0
 13 25  2  0
 13 35  1  0
 14 21  1  0
 14 26  1  0
 14 29  2  0
 15 24  1  0
 15 30  2  0
 15 33  1  0
 16 24  1  0
 16 31  2  0
 16 34  1  0
 17 27  1  0
 17 28  1  0
 17 32  2  0
 19 22  1  0
 20 24  1  0
 21 23  1  0
 22 27  1  0
 23 28  1  0
  1 36  1  0
  3 37  1  0
  2 38  1  0
  4 39  1  0
  5 61  1  0
  6 40  1  0
  7 41  1  0
 19 42  1  0
 19 43  1  0
 20 44  1  0
 20 45  1  0
 26 46  1  0
 18 47  1  0
 18 48  1  0
 18 49  1  0
 21 50  1  0
 21 51  1  0
 24 52  1  1
 33 53  1  0
 34 54  1  0
 27 55  1  0
 28 56  1  0
 22 57  1  0
 22 58  1  0
 23 59  1  0
 23 60  1  0
M  END
