
     RDKit          3D

 27 28  0  0  0  0  0  0  0  0999 V2000
   -1.2211   -2.1134   -0.1117 O   0  0  0  0  0  0  0  0  0  0  0  0
   -1.1833   -0.8837   -0.0691 C   0  0  0  0  0  0  0  0  0  0  0  0
   -2.3079   -0.1480   -0.0626 N   0  0  0  0  0  0  0  0  0  0  0  0
   -3.6204   -0.7843   -0.0427 C   0  0  0  0  0  0  0  0  0  0  0  0
   -4.5632    0.3618    0.2990 C   0  0  0  0  0  0  0  0  0  0  0  0
   -3.8820    1.5684   -0.3363 C   0  0  0  0  0  0  0  0  0  0  0  0
   -2.4010    1.3117   -0.0762 C   0  0  0  0  0  0  0  0  0  0  0  0
    0.0981   -0.1439   -0.0103 C   0  0  0  0  0  0  0  0  0  0  0  0
    1.2645   -0.7982   -0.0473 C   0  0  0  0  0  0  0  0  0  0  0  0
    2.5812   -0.1957    0.0086 C   0  0  0  0  0  0  0  0  0  0  0  0
    3.8295   -0.9048    0.0000 C   0  0  0  0  0  0  0  0  0  0  0  0
    2.9194    1.1236    0.0771 C   0  0  0  0  0  0  0  0  0  0  0  0
    4.2510    1.2656    0.1108 O   0  0  0  0  0  0  0  0  0  0  0  0
    4.7998    0.0308    0.0645 C   0  0  0  0  0  0  0  0  0  0  0  0
   -3.8552   -1.2122   -1.0224 H   0  0  0  0  0  0  0  0  0  0  0  0
   -3.6521   -1.5929    0.6874 H   0  0  0  0  0  0  0  0  0  0  0  0
   -5.5719    0.1894   -0.0738 H   0  0  0  0  0  0  0  0  0  0  0  0
   -4.6253    0.4885    1.3822 H   0  0  0  0  0  0  0  0  0  0  0  0
   -4.0741    1.5898   -1.4109 H   0  0  0  0  0  0  0  0  0  0  0  0
   -4.2086    2.5204    0.0798 H   0  0  0  0  0  0  0  0  0  0  0  0
   -2.0922    1.7326    0.8851 H   0  0  0  0  0  0  0  0  0  0  0  0
   -1.7734    1.7486   -0.8532 H   0  0  0  0  0  0  0  0  0  0  0  0
    0.0811    0.9352    0.0740 H   0  0  0  0  0  0  0  0  0  0  0  0
    1.2472   -1.8803   -0.1244 H   0  0  0  0  0  0  0  0  0  0  0  0
    3.9667   -1.9734   -0.0460 H   0  0  0  0  0  0  0  0  0  0  0  0
    2.3345    2.0297    0.1049 H   0  0  0  0  0  0  0  0  0  0  0  0
    5.8759   -0.0220    0.0828 H   0  0  0  0  0  0  0  0  0  0  0  0
  6  5  1  0
  6  7  1  0
  5  4  1  0
  7  3  1  0
  3  4  1  0
  3  2  1  0
  2  1  2  0
  2  8  1  0
  8  9  2  0
  9 10  1  0
 11 10  1  0
 11 14  2  0
 10 12  2  0
 14 13  1  0
 12 13  1  0
  4 15  1  0
  4 16  1  0
  5 17  1  0
  5 18  1  0
  6 19  1  0
  6 20  1  0
  7 21  1  0
  7 22  1  0
  8 23  1  0
  9 24  1  0
 11 25  1  0
 12 26  1  0
 14 27  1  0
M  END
