
     RDKit          3D

 19 19  0  0  0  0  0  0  0  0999 V2000
   -3.7287   -0.2909    0.0051 C   0  0  0  0  0  0  0  0  0  0  0  0
   -2.4791   -0.9501   -0.0208 O   0  0  0  0  0  0  0  0  0  0  0  0
   -1.3593   -0.1972   -0.0563 C   0  0  0  0  0  0  0  0  0  0  0  0
   -0.1503   -0.8673   -0.0700 C   0  0  0  0  0  0  0  0  0  0  0  0
    1.0673   -0.1802   -0.1052 C   0  0  0  0  0  0  0  0  0  0  0  0
    1.0698    1.2242   -0.1225 C   0  0  0  0  0  0  0  0  0  0  0  0
   -0.1519    1.8924   -0.1118 C   0  0  0  0  0  0  0  0  0  0  0  0
   -1.3480    1.2010   -0.0804 C   0  0  0  0  0  0  0  0  0  0  0  0
    2.3070   -0.9653   -0.1293 C   0  0  0  0  0  0  0  0  0  0  0  0
    2.1697    1.9986   -0.1515 O   0  0  0  0  0  0  0  0  0  0  0  0
   -4.4884   -1.0673    0.0441 H   0  0  0  0  0  0  0  0  0  0  0  0
   -3.8361    0.3492    0.8850 H   0  0  0  0  0  0  0  0  0  0  0  0
   -3.8914    0.3141   -0.8910 H   0  0  0  0  0  0  0  0  0  0  0  0
   -0.1414   -1.9502   -0.0551 H   0  0  0  0  0  0  0  0  0  0  0  0
   -0.1625    2.9746   -0.1273 H   0  0  0  0  0  0  0  0  0  0  0  0
   -2.2656    1.7735   -0.0742 H   0  0  0  0  0  0  0  0  0  0  0  0
    3.2551   -0.4017   -0.1716 H   0  0  0  0  0  0  0  0  0  0  0  0
    2.9860    1.4907   -0.1278 H   0  0  0  0  0  0  0  0  0  0  0  0
    2.3461   -2.1748   -0.1100 O   0  0  0  0  0  0  0  0  0  0  0  0
 10  6  1  0
  9  5  1  0
  6  5  2  0
  6  7  1  0
  5  4  1  0
  7  8  2  0
  4  3  2  0
  8  3  1  0
  3  2  1  0
  2  1  1  0
  1 11  1  0
  1 12  1  0
  1 13  1  0
  4 14  1  0
  7 15  1  0
  8 16  1  0
  9 17  1  0
 10 18  1  0
  9 19  2  0
M  END
