
     RDKit          3D

 36 38  0  0  0  0  0  0  0  0999 V2000
    5.3717   -0.5037   -2.0674 C   0  0  0  0  0  0  0  0  0  0  0  0
    3.4157   -0.1201   -0.5123 N   0  0  0  0  0  0  0  0  0  0  0  0
    1.1207   -0.3684    0.8917 O   0  0  0  0  0  0  0  0  0  0  0  0
   -5.5232    1.2989    0.6703 Cl  0  0  0  0  0  0  0  0  0  0  0  0
    6.7549   -0.4568   -2.0635 C   0  0  0  0  0  0  0  0  0  0  0  0
    4.5554    0.4247    1.3118 N   0  0  0  0  0  0  0  0  0  0  0  0
   -0.5565    1.0663    1.3492 O   0  0  0  0  0  0  0  0  0  0  0  0
   -6.6553   -1.0382   -1.1101 Cl  0  0  0  0  0  0  0  0  0  0  0  0
    7.4751   -0.1038   -0.9116 C   0  0  0  0  0  0  0  0  0  0  0  0
   -0.9004   -0.8964    0.2209 N   0  0  0  0  0  0  0  0  0  0  0  0
    6.8328    0.2114    0.2723 C   0  0  0  0  0  0  0  0  0  0  0  0
    4.7350   -0.1811   -0.8746 C   0  0  0  0  0  0  0  0  0  0  0  0
    5.4388    0.1706    0.2887 C   0  0  0  0  0  0  0  0  0  0  0  0
    3.3740    0.2417    0.7944 C   0  0  0  0  0  0  0  0  0  0  0  0
    2.0873    0.4759    1.5255 C   0  0  2  0  0  0  0  0  0  0  0  0
   -2.2643   -0.8617   -0.0549 C   0  0  0  0  0  0  0  0  0  0  0  0
   -2.7747   -1.8971   -0.8413 C   0  0  0  0  0  0  0  0  0  0  0  0
   -4.1165   -1.9478   -1.1581 C   0  0  0  0  0  0  0  0  0  0  0  0
   -4.9838   -0.9663   -0.7016 C   0  0  0  0  0  0  0  0  0  0  0  0
   -4.4781    0.0625    0.0801 C   0  0  0  0  0  0  0  0  0  0  0  0
   -3.1317    0.1249    0.4083 C   0  0  0  0  0  0  0  0  0  0  0  0
    2.1978    0.1709    3.0052 C   0  0  0  0  0  0  0  0  0  0  0  0
    4.8185   -0.7793   -2.9554 H   0  0  0  0  0  0  0  0  0  0  0  0
    7.2944   -0.6996   -2.9696 H   0  0  0  0  0  0  0  0  0  0  0  0
    8.5562   -0.0800   -0.9545 H   0  0  0  0  0  0  0  0  0  0  0  0
   -0.4034   -1.6982   -0.1395 H   0  0  0  0  0  0  0  0  0  0  0  0
    7.3906    0.4820    1.1596 H   0  0  0  0  0  0  0  0  0  0  0  0
    1.8025    1.5232    1.3841 H   0  0  0  0  0  0  0  0  0  0  0  0
   -2.1169   -2.6723   -1.2139 H   0  0  0  0  0  0  0  0  0  0  0  0
   -4.4926   -2.7583   -1.7670 H   0  0  0  0  0  0  0  0  0  0  0  0
   -2.7808    0.9418    1.0170 H   0  0  0  0  0  0  0  0  0  0  0  0
    2.4582   -0.8735    3.1733 H   0  0  0  0  0  0  0  0  0  0  0  0
    2.9721    0.7925    3.4502 H   0  0  0  0  0  0  0  0  0  0  0  0
    1.2590    0.3900    3.5113 H   0  0  0  0  0  0  0  0  0  0  0  0
    2.6237   -0.3232   -1.1015 H   0  0  0  0  0  0  0  0  0  0  0  0
   -0.1541    0.0347    0.8679 C   0  0  0  0  0  0  0  0  0  0  0  0
  1 12  2  0
  1  5  1  0
  1 23  1  0
  2 12  1  0
  2 14  1  0
 15  3  1  0
  3 36  1  0
 20  4  1  0
  5  9  2  0
  5 24  1  0
 14  6  2  0
 13  6  1  0
 36  7  2  0
 19  8  1  0
  9 11  1  0
  9 25  1  0
 36 10  1  0
 10 16  1  0
 10 26  1  0
 13 11  2  0
 11 27  1  0
 12 13  1  0
 15 14  1  0
 22 15  1  0
 15 28  1  1
 16 21  1  0
 16 17  2  0
 17 18  1  0
 17 29  1  0
 18 19  2  0
 18 30  1  0
 20 19  1  0
 21 20  2  0
 21 31  1  0
 22 32  1  0
 22 33  1  0
 22 34  1  0
  2 35  1  0
M  END
