
     RDKit          3D

 16 17  0  0  0  0  0  0  0  0999 V2000
   -3.5094    0.2427    0.0226 O   0  0  0  0  0  0  0  0  0  0  0  0
   -2.3053    0.2707    0.0182 C   0  0  0  0  0  0  0  0  0  0  0  0
   -1.4803    1.3457    0.0006 N   0  0  0  0  0  0  0  0  0  0  0  0
   -0.1384    0.9675   -0.0020 C   0  0  0  0  0  0  0  0  0  0  0  0
    0.9799    1.7768   -0.0191 C   0  0  0  0  0  0  0  0  0  0  0  0
    2.2253    1.1570   -0.0182 C   0  0  0  0  0  0  0  0  0  0  0  0
    2.3282   -0.2261   -0.0004 C   0  0  0  0  0  0  0  0  0  0  0  0
    3.5509   -0.7779   -0.0004 F   0  0  0  0  0  0  0  0  0  0  0  0
    1.2192   -1.0476    0.0172 C   0  0  0  0  0  0  0  0  0  0  0  0
   -0.0169   -0.4226    0.0161 C   0  0  0  0  0  0  0  0  0  0  0  0
   -1.3686   -0.9694    0.0311 C   0  0  0  0  0  0  0  0  0  0  0  0
   -1.7606   -2.1044    0.0496 O   0  0  0  0  0  0  0  0  0  0  0  0
   -1.7960    2.3045   -0.0123 H   0  0  0  0  0  0  0  0  0  0  0  0
    0.9047    2.8551   -0.0333 H   0  0  0  0  0  0  0  0  0  0  0  0
    3.1241    1.7596   -0.0310 H   0  0  0  0  0  0  0  0  0  0  0  0
    1.3120   -2.1260    0.0309 H   0  0  0  0  0  0  0  0  0  0  0  0
  8  7  1  0
  6  7  2  0
  6  5  1  0
  7  9  1  0
  5  4  2  0
  9 10  2  0
  4 10  1  0
  4  3  1  0
 10 11  1  0
  3  2  1  0
 12 11  2  0
 11  2  1  0
  2  1  2  0
  3 13  1  0
  5 14  1  0
  6 15  1  0
  9 16  1  0
M  END
