
     RDKit          3D

118118  0  0  0  0  0  0  0  0999 V2000
   -7.2746   11.1038    5.1123 C   0  0  2  0  0  0  0  0  0  0  0  0
   -8.5134   11.0807    5.9523 C   0  0  1  0  0  0  0  0  0  0  0  0
   -9.4665   12.1161    5.5726 C   0  0  2  0  0  0  0  0  0  0  0  0
   -8.8607   13.4612    5.5537 C   0  0  1  0  0  0  0  0  0  0  0  0
   -7.5932   13.5348    4.6405 C   0  0  1  0  0  0  0  0  0  0  0  0
   -6.9675   14.7975    4.7841 C   0  0  0  0  0  0  0  0  0  0  0  0
   -6.3528   10.1577    5.6305 O   0  0  0  0  0  0  0  0  0  0  0  0
   -9.1618    9.7628    5.8000 O   0  0  0  0  0  0  0  0  0  0  0  0
  -10.5889   12.1131    6.5491 O   0  0  0  0  0  0  0  0  0  0  0  0
   -9.8282   14.3907    5.0705 O   0  0  0  0  0  0  0  0  0  0  0  0
   -6.6359   12.4233    5.0888 O   0  0  0  0  0  0  0  0  0  0  0  0
   -7.6057   15.7332    3.9546 O   0  0  0  0  0  0  0  0  0  0  0  0
   -5.5543    9.4788    4.6064 C   0  0  1  0  0  0  0  0  0  0  0  0
   -6.3162    8.2486    4.0975 C   0  0  0  0  0  0  0  0  0  0  0  0
   -5.2949   10.4419    3.4328 C   0  0  0  0  0  0  0  0  0  0  0  0
   -4.1583    9.0204    5.2391 C   0  0  0  0  0  0  0  0  0  0  0  0
   -3.5251    7.8898    4.3554 C   0  0  0  0  0  0  0  0  0  0  0  0
   -2.2639    7.2923    5.0938 C   0  0  0  0  0  0  0  0  0  0  0  0
   -1.5633    6.2561    4.1731 C   0  0  0  0  0  0  0  0  0  0  0  0
   -2.3830    5.2115    3.4496 C   0  0  0  0  0  0  0  0  0  0  0  0
   -0.2398    6.2863    4.0222 C   0  0  0  0  0  0  0  0  0  0  0  0
    0.4598    5.2508    3.1040 C   0  0  0  0  0  0  0  0  0  0  0  0
    1.5220    4.5872    3.5409 C   0  0  0  0  0  0  0  0  0  0  0  0
    2.2207    3.5525    2.6222 C   0  0  0  0  0  0  0  0  0  0  0  0
    3.2064    4.0316    1.5236 C   0  0  0  0  0  0  0  0  0  0  0  0
    1.9714    2.2333    2.7776 C   0  0  0  0  0  0  0  0  0  0  0  0
    2.6707    1.1982    1.8575 C   0  0  0  0  0  0  0  0  0  0  0  0
    2.5886   -0.1190    2.1397 C   0  0  0  0  0  0  0  0  0  0  0  0
    3.2936   -1.1643    1.2135 C   0  0  0  0  0  0  0  0  0  0  0  0
    4.8243   -1.2953    1.2274 C   0  0  0  0  0  0  0  0  0  0  0  0
    2.5749   -1.9337    0.4217 C   0  0  0  0  0  0  0  0  0  0  0  0
    3.2737   -2.9691   -0.4951 C   0  0  0  0  0  0  0  0  0  0  0  0
    2.5491   -3.7803   -1.2490 C   0  0  0  0  0  0  0  0  0  0  0  0
    3.2471   -4.8159   -2.1678 C   0  0  0  0  0  0  0  0  0  0  0  0
    2.6380   -5.2377   -3.2855 C   0  0  0  0  0  0  0  0  0  0  0  0
    1.2496   -4.6959   -3.6543 C   0  0  0  0  0  0  0  0  0  0  0  0
    3.3392   -6.2829   -4.2116 C   0  0  0  0  0  0  0  0  0  0  0  0
    2.8312   -7.5242   -4.3281 C   0  0  0  0  0  0  0  0  0  0  0  0
    3.5263   -8.5650   -5.2467 C   0  0  0  0  0  0  0  0  0  0  0  0
    2.8255   -9.5937   -5.7453 C   0  0  0  0  0  0  0  0  0  0  0  0
    1.3492   -9.7416   -5.4125 C   0  0  0  0  0  0  0  0  0  0  0  0
    3.5191  -10.6303   -6.6618 C   0  0  0  0  0  0  0  0  0  0  0  0
    3.9901  -11.7519   -6.1490 C   0  0  0  0  0  0  0  0  0  0  0  0
    4.6858  -12.7905   -7.0654 C   0  0  0  0  0  0  0  0  0  0  0  0
    4.7401  -14.0634   -6.7025 C   0  0  0  0  0  0  0  0  0  0  0  0
    4.1186  -14.5071   -5.3826 C   0  0  0  0  0  0  0  0  0  0  0  0
    5.4363  -15.1004   -7.6164 C   0  0  0  0  0  0  0  0  0  0  0  0
    6.6836  -15.5081   -7.3349 C   0  0  0  0  0  0  0  0  0  0  0  0
    7.3807  -16.5406   -8.2403 C   0  0  0  0  0  0  0  0  0  0  0  0
    8.7396  -16.6026   -8.2785 C   0  0  0  0  0  0  0  0  0  0  0  0
    9.4327  -17.6283   -9.1754 C   0  0  0  0  0  0  0  0  0  0  0  0
    9.5801  -15.6403   -7.4170 C   0  0  0  0  0  0  0  0  0  0  0  0
   -7.5381   10.8249    4.0932 H   0  0  0  0  0  0  0  0  0  0  0  0
   -8.2370   11.2234    6.9861 H   0  0  0  0  0  0  0  0  0  0  0  0
   -9.8543   11.8910    4.5802 H   0  0  0  0  0  0  0  0  0  0  0  0
   -8.5798   13.7329    6.5646 H   0  0  0  0  0  0  0  0  0  0  0  0
   -7.8782   13.3755    3.6046 H   0  0  0  0  0  0  0  0  0  0  0  0
   -7.0399   15.1228    5.8216 H   0  0  0  0  0  0  0  0  0  0  0  0
   -5.9253   14.7182    4.5028 H   0  0  0  0  0  0  0  0  0  0  0  0
   -9.6847    9.5789    6.5628 H   0  0  0  0  0  0  0  0  0  0  0  0
  -10.3460   12.6059    7.3046 H   0  0  0  0  0  0  0  0  0  0  0  0
  -10.0224   15.0211    5.7438 H   0  0  0  0  0  0  0  0  0  0  0  0
   -6.9992   16.4312    3.7393 H   0  0  0  0  0  0  0  0  0  0  0  0
   -6.4460    7.5420    4.9093 H   0  0  0  0  0  0  0  0  0  0  0  0
   -5.7524    7.7794    3.2951 H   0  0  0  0  0  0  0  0  0  0  0  0
   -7.2946    8.5560    3.7231 H   0  0  0  0  0  0  0  0  0  0  0  0
   -5.0015   11.4086    3.8176 H   0  0  0  0  0  0  0  0  0  0  0  0
   -6.2028   10.5473    2.8421 H   0  0  0  0  0  0  0  0  0  0  0  0
   -4.4956   10.0421    2.8034 H   0  0  0  0  0  0  0  0  0  0  0  0
   -3.4801    9.8728    5.2777 H   0  0  0  0  0  0  0  0  0  0  0  0
   -4.3227    8.6442    6.2434 H   0  0  0  0  0  0  0  0  0  0  0  0
   -3.2236    8.3024    3.4057 H   0  0  0  0  0  0  0  0  0  0  0  0
   -4.2536    7.1069    4.1938 H   0  0  0  0  0  0  0  0  0  0  0  0
   -1.5714    8.0920    5.3294 H   0  0  0  0  0  0  0  0  0  0  0  0
   -2.5803    6.8033    6.0146 H   0  0  0  0  0  0  0  0  0  0  0  0
   -1.9769    4.2237    3.6577 H   0  0  0  0  0  0  0  0  0  0  0  0
   -3.4150    5.2590    3.7923 H   0  0  0  0  0  0  0  0  0  0  0  0
   -2.3476    5.4000    2.3805 H   0  0  0  0  0  0  0  0  0  0  0  0
    0.3489    7.0355    4.5430 H   0  0  0  0  0  0  0  0  0  0  0  0
    0.0594    5.0429    2.1202 H   0  0  0  0  0  0  0  0  0  0  0  0
    1.8991    4.7676    4.5336 H   0  0  0  0  0  0  0  0  0  0  0  0
    4.0937    3.3979    1.5301 H   0  0  0  0  0  0  0  0  0  0  0  0
    2.7205    3.9690    0.5451 H   0  0  0  0  0  0  0  0  0  0  0  0
    3.4958    5.0629    1.7197 H   0  0  0  0  0  0  0  0  0  0  0  0
    1.2814    1.8977    3.5464 H   0  0  0  0  0  0  0  0  0  0  0  0
    3.1858    1.5293    0.9657 H   0  0  0  0  0  0  0  0  0  0  0  0
    2.0336   -0.4533    3.0098 H   0  0  0  0  0  0  0  0  0  0  0  0
    5.2254   -0.9603    0.2731 H   0  0  0  0  0  0  0  0  0  0  0  0
    5.2327   -0.6848    2.0251 H   0  0  0  0  0  0  0  0  0  0  0  0
    5.0994   -2.3426    1.3917 H   0  0  0  0  0  0  0  0  0  0  0  0
    1.5017   -1.8432    0.4117 H   0  0  0  0  0  0  0  0  0  0  0  0
    4.3562   -3.0570   -0.4881 H   0  0  0  0  0  0  0  0  0  0  0  0
    1.4738   -3.7206   -1.2247 H   0  0  0  0  0  0  0  0  0  0  0  0
    4.2310   -5.1999   -1.9060 H   0  0  0  0  0  0  0  0  0  0  0  0
    1.2349   -3.6133   -3.5256 H   0  0  0  0  0  0  0  0  0  0  0  0
    1.0290   -4.9403   -4.6901 H   0  0  0  0  0  0  0  0  0  0  0  0
    0.4982   -5.1501   -3.0051 H   0  0  0  0  0  0  0  0  0  0  0  0
    4.1873   -5.9852   -4.8194 H   0  0  0  0  0  0  0  0  0  0  0  0
    1.9367   -7.7973   -3.7795 H   0  0  0  0  0  0  0  0  0  0  0  0
    4.5794   -8.4605   -5.4848 H   0  0  0  0  0  0  0  0  0  0  0  0
    0.9322  -10.5639   -5.9814 H   0  0  0  0  0  0  0  0  0  0  0  0
    0.8285   -8.8262   -5.6664 H   0  0  0  0  0  0  0  0  0  0  0  0
    1.2356   -9.9404   -4.3536 H   0  0  0  0  0  0  0  0  0  0  0  0
    3.5155  -10.4869   -7.7415 H   0  0  0  0  0  0  0  0  0  0  0  0
    3.8914  -11.9454   -5.0914 H   0  0  0  0  0  0  0  0  0  0  0  0
    5.1280  -12.4747   -8.0049 H   0  0  0  0  0  0  0  0  0  0  0  0
    3.0808  -14.1843   -5.3437 H   0  0  0  0  0  0  0  0  0  0  0  0
    4.6675  -14.0635   -4.5571 H   0  0  0  0  0  0  0  0  0  0  0  0
    4.1642  -15.5888   -5.3075 H   0  0  0  0  0  0  0  0  0  0  0  0
    4.8794  -15.5717   -8.4259 H   0  0  0  0  0  0  0  0  0  0  0  0
    7.1982  -15.1125   -6.4722 H   0  0  0  0  0  0  0  0  0  0  0  0
    6.7879  -17.1600   -8.9163 H   0  0  0  0  0  0  0  0  0  0  0  0
   10.4963  -17.4046   -9.2281 H   0  0  0  0  0  0  0  0  0  0  0  0
    9.0061  -17.5862  -10.1669 H   0  0  0  0  0  0  0  0  0  0  0  0
    9.2930  -18.6188   -8.7644 H   0  0  0  0  0  0  0  0  0  0  0  0
    9.3578  -14.6156   -7.6974 H   0  0  0  0  0  0  0  0  0  0  0  0
    9.3405  -15.7885   -6.3702 H   0  0  0  0  0  0  0  0  0  0  0  0
   10.6424  -15.8395   -7.5793 H   0  0  0  0  0  0  0  0  0  0  0  0
 51 50  1  0
 50 52  1  0
 50 49  2  0
 49 48  1  0
 48 47  2  0
 47 45  1  0
 45 46  1  0
 45 44  2  0
 44 43  1  0
 43 42  2  0
 42 40  1  0
 40 39  2  0
 40 41  1  0
 39 38  1  0
 38 37  2  0
 37 35  1  0
 35 34  2  0
 35 36  1  0
 34 33  1  0
 33 32  2  0
 32 31  1  0
 30 29  1  0
 31 29  2  0
 29 28  1  0
 28 27  2  0
 27 26  1  0
 26 24  2  0
 25 24  1  0
 24 23  1  0
 23 22  2  0
 22 21  1  0
 21 19  2  0
 20 19  1  0
 19 18  1  0
 18 17  1  0
 17 16  1  0
 16 13  1  0
 15 13  1  0
 14 13  1  0
 13  7  1  1
  7  1  1  0
  1 11  1  0
  1  2  1  0
 11  5  1  0
  8  2  1  0
 12  6  1  0
  2  3  1  0
  5  6  1  0
  5  4  1  0
  3  4  1  0
  3  9  1  0
  4 10  1  0
  1 53  1  6
  2 54  1  1
  3 55  1  6
  4 56  1  1
  5 57  1  6
  6 58  1  0
  6 59  1  0
  8 60  1  0
  9 61  1  0
 10 62  1  0
 12 63  1  0
 14 64  1  0
 14 65  1  0
 14 66  1  0
 15 67  1  0
 15 68  1  0
 15 69  1  0
 16 70  1  0
 16 71  1  0
 17 72  1  0
 17 73  1  0
 18 74  1  0
 18 75  1  0
 20 76  1  0
 20 77  1  0
 20 78  1  0
 21 79  1  0
 22 80  1  0
 23 81  1  0
 25 82  1  0
 25 83  1  0
 25 84  1  0
 26 85  1  0
 27 86  1  0
 28 87  1  0
 30 88  1  0
 30 89  1  0
 30 90  1  0
 31 91  1  0
 32 92  1  0
 33 93  1  0
 34 94  1  0
 36 95  1  0
 36 96  1  0
 36 97  1  0
 37 98  1  0
 38 99  1  0
 39100  1  0
 41101  1  0
 41102  1  0
 41103  1  0
 42104  1  0
 43105  1  0
 44106  1  0
 46107  1  0
 46108  1  0
 46109  1  0
 47110  1  0
 48111  1  0
 49112  1  0
 51113  1  0
 51114  1  0
 51115  1  0
 52116  1  0
 52117  1  0
 52118  1  0
M  END
