
     RDKit          3D

 41 44  0  0  0  0  0  0  0  0999 V2000
    5.6930   -0.6380   -0.1168 C   0  0  0  0  0  0  0  0  0  0  0  0
    5.0912    0.6286   -0.0180 C   0  0  0  0  0  0  0  0  0  0  0  0
    3.7121    0.7409   -0.0083 C   0  0  0  0  0  0  0  0  0  0  0  0
    2.8949   -0.3934   -0.0987 C   0  0  0  0  0  0  0  0  0  0  0  0
    3.5036   -1.6398   -0.1946 C   0  0  0  0  0  0  0  0  0  0  0  0
    4.8876   -1.7596   -0.2027 C   0  0  0  0  0  0  0  0  0  0  0  0
    7.0325   -0.7814   -0.1287 O   0  0  0  0  0  0  0  0  0  0  0  0
    5.9582    1.6594    0.0740 O   0  0  0  0  0  0  0  0  0  0  0  0
    5.4440    2.9751    0.1286 C   0  0  0  0  0  0  0  0  0  0  0  0
    1.4260   -0.2569   -0.0983 C   0  0  0  0  0  0  0  0  0  0  0  0
    0.6294   -1.2351    0.5101 C   0  0  0  0  0  0  0  0  0  0  0  0
   -0.7396   -1.0779    0.4797 C   0  0  0  0  0  0  0  0  0  0  0  0
   -1.3604    0.0200   -0.1284 C   0  0  0  0  0  0  0  0  0  0  0  0
   -0.5702    0.9875   -0.7268 C   0  0  0  0  0  0  0  0  0  0  0  0
    0.8110    0.8420   -0.7093 C   0  0  0  0  0  0  0  0  0  0  0  0
   -1.7222   -1.8975    1.0102 N   0  0  0  0  0  0  0  0  0  0  0  0
   -2.9744   -1.4081    0.7833 C   0  0  0  0  0  0  0  0  0  0  0  0
   -2.7956   -0.1429    0.0373 C   0  0  0  0  0  0  0  0  0  0  0  0
   -4.0056   -1.9605    1.1554 O   0  0  0  0  0  0  0  0  0  0  0  0
   -3.7483    0.7180   -0.4102 C   0  0  0  0  0  0  0  0  0  0  0  0
   -5.1633    0.6995   -0.3298 C   0  0  0  0  0  0  0  0  0  0  0  0
   -5.9375   -0.2669    0.2544 N   0  0  0  0  0  0  0  0  0  0  0  0
   -7.2353    0.0518    0.1395 C   0  0  0  0  0  0  0  0  0  0  0  0
   -7.3381    1.2590   -0.5363 C   0  0  0  0  0  0  0  0  0  0  0  0
   -6.0345    1.6679   -0.8331 C   0  0  0  0  0  0  0  0  0  0  0  0
    3.2524    1.7152    0.0964 H   0  0  0  0  0  0  0  0  0  0  0  0
    2.9023   -2.5348   -0.2896 H   0  0  0  0  0  0  0  0  0  0  0  0
    5.3487   -2.7358   -0.2885 H   0  0  0  0  0  0  0  0  0  0  0  0
    7.4614    0.0801   -0.0569 H   0  0  0  0  0  0  0  0  0  0  0  0
    6.3011    3.6407    0.1871 H   0  0  0  0  0  0  0  0  0  0  0  0
    4.8645    3.2197   -0.7655 H   0  0  0  0  0  0  0  0  0  0  0  0
    4.8169    3.1282    1.0104 H   0  0  0  0  0  0  0  0  0  0  0  0
    1.0760   -2.0838    1.0122 H   0  0  0  0  0  0  0  0  0  0  0  0
   -1.0119    1.8486   -1.2131 H   0  0  0  0  0  0  0  0  0  0  0  0
    1.4191    1.5897   -1.2016 H   0  0  0  0  0  0  0  0  0  0  0  0
   -1.5492   -2.7586    1.5057 H   0  0  0  0  0  0  0  0  0  0  0  0
   -3.3789    1.5968   -0.9303 H   0  0  0  0  0  0  0  0  0  0  0  0
   -5.5330   -1.0870    0.7033 H   0  0  0  0  0  0  0  0  0  0  0  0
   -8.0053   -0.5888    0.5377 H   0  0  0  0  0  0  0  0  0  0  0  0
   -8.2552    1.7719   -0.7770 H   0  0  0  0  0  0  0  0  0  0  0  0
   -5.7323    2.5641   -1.3533 H   0  0  0  0  0  0  0  0  0  0  0  0
  1  2  2  0
  1  6  1  0
  1  7  1  0
  2  3  1  0
  2  8  1  0
  3  4  2  0
  3 26  1  0
  4  5  1  0
  4 10  1  0
  5  6  2  0
  5 27  1  0
  6 28  1  0
  7 29  1  0
  8  9  1  0
  9 30  1  0
  9 31  1  0
  9 32  1  0
 10 11  2  0
 10 15  1  0
 11 12  1  0
 11 33  1  0
 12 13  2  0
 12 16  1  0
 13 14  1  0
 13 18  1  0
 14 15  2  0
 14 34  1  0
 15 35  1  0
 16 17  1  0
 16 36  1  0
 17 18  1  0
 17 19  2  0
 18 20  2  0
 20 21  1  0
 20 37  1  0
 21 22  1  0
 21 25  2  0
 22 23  1  0
 22 38  1  0
 23 24  2  0
 23 39  1  0
 24 25  1  0
 24 40  1  0
 25 41  1  0
M  END
