
     RDKit          3D

 50 54  0  0  0  0  0  0  0  0999 V2000
   -2.2276    1.1182    0.0639 C   0  0  0  0  0  0  0  0  0  0  0  0
   -1.9002    2.4704   -0.0591 C   0  0  0  0  0  0  0  0  0  0  0  0
   -0.5845    2.8813   -0.1283 C   0  0  0  0  0  0  0  0  0  0  0  0
    0.4491    1.9459   -0.0963 C   0  0  0  0  0  0  0  0  0  0  0  0
    0.1472    0.5875    0.0129 C   0  0  0  0  0  0  0  0  0  0  0  0
   -1.1843    0.2006    0.1013 C   0  0  0  0  0  0  0  0  0  0  0  0
   -3.6387    0.7095    0.1805 C   0  0  0  0  0  0  0  0  0  0  0  0
    1.7035    2.4270   -0.1936 O   0  0  0  0  0  0  0  0  0  0  0  0
    2.7737    1.5744    0.2389 C   0  0  1  0  0  0  0  0  0  0  0  0
    2.5449    0.1962   -0.3891 C   0  0  2  0  0  0  0  0  0  0  0  0
    1.2413   -0.4534    0.0732 C   0  0  1  0  0  0  0  0  0  0  0  0
    4.0514    2.1377   -0.3794 C   0  0  0  0  0  0  0  0  0  0  0  0
    5.2044    1.1497   -0.2138 C   0  0  0  0  0  0  0  0  0  0  0  0
    4.8081   -0.2272   -0.7232 C   0  0  0  0  0  0  0  0  0  0  0  0
    3.6035   -0.6731   -0.1365 O   0  0  0  0  0  0  0  0  0  0  0  0
    1.3301   -1.0435    1.3898 N   0  0  0  0  0  0  0  0  0  0  0  0
    1.2028   -2.3033    1.2346 C   0  0  0  0  0  0  0  0  0  0  0  0
    0.9648   -2.7335   -0.0666 N   0  0  0  0  0  0  0  0  0  0  0  0
    0.9622   -1.6292   -0.8784 C   0  0  0  0  0  0  0  0  0  0  0  0
    0.8021   -1.6090   -2.0688 O   0  0  0  0  0  0  0  0  0  0  0  0
    1.3199   -3.2271    2.2171 N   0  0  0  0  0  0  0  0  0  0  0  0
    2.8402    1.5774    1.7595 C   0  0  0  0  0  0  0  0  0  0  0  0
    0.8618   -4.0948   -0.5216 C   0  0  0  0  0  0  0  0  0  0  0  0
   -4.5331    1.3942    0.9967 C   0  0  0  0  0  0  0  0  0  0  0  0
   -5.8613    1.0009    1.0704 C   0  0  0  0  0  0  0  0  0  0  0  0
   -6.2616   -0.0864    0.3161 C   0  0  0  0  0  0  0  0  0  0  0  0
   -5.4275   -0.7559   -0.4717 N   0  0  0  0  0  0  0  0  0  0  0  0
   -4.1906   -0.3636   -0.5232 C   0  0  0  0  0  0  0  0  0  0  0  0
   -3.4003   -1.0608   -1.3377 F   0  0  0  0  0  0  0  0  0  0  0  0
   -2.6829    3.2164   -0.1091 H   0  0  0  0  0  0  0  0  0  0  0  0
   -0.3469    3.9340   -0.2164 H   0  0  0  0  0  0  0  0  0  0  0  0
   -1.4028   -0.8536    0.2198 H   0  0  0  0  0  0  0  0  0  0  0  0
    2.4393    0.3675   -1.4762 H   0  0  0  0  0  0  0  0  0  0  0  0
    3.8767    2.3131   -1.4458 H   0  0  0  0  0  0  0  0  0  0  0  0
    4.3005    3.1030    0.0676 H   0  0  0  0  0  0  0  0  0  0  0  0
    6.0771    1.5007   -0.7688 H   0  0  0  0  0  0  0  0  0  0  0  0
    5.5080    1.0858    0.8337 H   0  0  0  0  0  0  0  0  0  0  0  0
    4.7082   -0.2042   -1.8182 H   0  0  0  0  0  0  0  0  0  0  0  0
    5.5672   -0.9709   -0.4799 H   0  0  0  0  0  0  0  0  0  0  0  0
    1.3770   -2.8463    3.1464 H   0  0  0  0  0  0  0  0  0  0  0  0
    0.8039   -4.0872    2.1478 H   0  0  0  0  0  0  0  0  0  0  0  0
    1.9000    1.2808    2.2192 H   0  0  0  0  0  0  0  0  0  0  0  0
    3.5942    0.8813    2.1207 H   0  0  0  0  0  0  0  0  0  0  0  0
    3.0991    2.5752    2.1182 H   0  0  0  0  0  0  0  0  0  0  0  0
    1.7188   -4.6810   -0.1905 H   0  0  0  0  0  0  0  0  0  0  0  0
   -0.0567   -4.5710   -0.1740 H   0  0  0  0  0  0  0  0  0  0  0  0
    0.8447   -4.0915   -1.6086 H   0  0  0  0  0  0  0  0  0  0  0  0
   -4.1793    2.2291    1.5880 H   0  0  0  0  0  0  0  0  0  0  0  0
   -6.5635    1.5194    1.7068 H   0  0  0  0  0  0  0  0  0  0  0  0
   -7.2860   -0.4370    0.3392 H   0  0  0  0  0  0  0  0  0  0  0  0
 20 19  2  0
 14 13  1  0
 14 15  1  0
 13 12  1  0
 12  9  1  0
 15 10  1  0
 19 18  1  0
 19 11  1  0
 10  9  1  0
 10 11  1  0
 23 18  1  0
  8  9  1  0
  8  4  1  0
 18 17  1  0
  9 22  1  1
 11  5  1  0
 11 16  1  1
  4  5  2  0
  4  3  1  0
  5  6  1  0
  3  2  2  0
 24 25  2  0
 24  7  1  0
  6  1  2  0
  2  1  1  0
 17 16  2  0
 17 21  1  0
  1  7  1  0
 25 26  1  0
  7 28  2  0
 26 27  2  0
 28 27  1  0
 28 29  1  0
  2 30  1  0
  3 31  1  0
  6 32  1  0
 10 33  1  6
 12 34  1  0
 12 35  1  0
 13 36  1  0
 13 37  1  0
 14 38  1  0
 14 39  1  0
 21 40  1  0
 21 41  1  0
 22 42  1  0
 22 43  1  0
 22 44  1  0
 23 45  1  0
 23 46  1  0
 23 47  1  0
 24 48  1  0
 25 49  1  0
 26 50  1  0
M  END
