
     RDKit          3D

 15 15  0  0  0  0  0  0  0  0999 V2000
    0.4585   -0.0088   -2.4675 C   0  0  0  0  0  0  0  0  0  0  0  0
   -0.4487   -0.0888   -3.2658 O   0  0  0  0  0  0  0  0  0  0  0  0
    0.2873    0.0277   -1.0129 C   0  0  0  0  0  0  0  0  0  0  0  0
    1.4164   -0.0009   -0.1938 C   0  0  0  0  0  0  0  0  0  0  0  0
    1.2944    0.0350    1.1822 C   0  0  0  0  0  0  0  0  0  0  0  0
    0.0259    0.0561    1.7604 C   0  0  0  0  0  0  0  0  0  0  0  0
   -1.1115    0.0560    0.9493 C   0  0  0  0  0  0  0  0  0  0  0  0
   -0.9786    0.0415   -0.4250 C   0  0  0  0  0  0  0  0  0  0  0  0
   -0.0673    0.0545    3.1068 O   0  0  0  0  0  0  0  0  0  0  0  0
    1.5087   -0.0957   -2.8004 H   0  0  0  0  0  0  0  0  0  0  0  0
    2.3982    0.0099   -0.6515 H   0  0  0  0  0  0  0  0  0  0  0  0
    2.1700    0.0224    1.8183 H   0  0  0  0  0  0  0  0  0  0  0  0
   -2.1000    0.0415    1.3925 H   0  0  0  0  0  0  0  0  0  0  0  0
   -1.8724    0.0516   -1.0362 H   0  0  0  0  0  0  0  0  0  0  0  0
   -0.7783    0.6413    3.3898 H   0  0  0  0  0  0  0  0  0  0  0  0
  1  2  2  0
  1  3  1  0
  1 10  1  0
  3  4  2  0
  3  8  1  0
  4  5  1  0
  4 11  1  0
  5  6  2  0
  5 12  1  0
  6  7  1  0
  6  9  1  0
  7  8  2  0
  7 13  1  0
  8 14  1  0
  9 15  1  0
M  END
