
     RDKit          3D

 48 50  0  0  0  0  0  0  0  0999 V2000
    2.2942    1.1056    0.9747 C   0  0  0  0  0  0  0  0  0  0  0  0
    3.2825    2.0424    1.2321 C   0  0  0  0  0  0  0  0  0  0  0  0
    3.6511    2.9549    0.2460 C   0  0  0  0  0  0  0  0  0  0  0  0
    4.6095    3.8853    0.4343 O   0  0  0  0  0  0  0  0  0  0  0  0
    3.0178    2.9104   -0.9931 C   0  0  0  0  0  0  0  0  0  0  0  0
    2.0266    1.9715   -1.2302 C   0  0  0  0  0  0  0  0  0  0  0  0
    1.6335    1.0577   -0.2521 C   0  0  0  0  0  0  0  0  0  0  0  0
    0.5895    0.0327   -0.5062 C   0  0  0  0  0  0  0  0  0  0  0  0
    1.0372   -1.3628   -0.2694 C   0  0  0  0  0  0  0  0  0  0  0  0
    0.3640   -2.2196    0.5986 C   0  0  0  0  0  0  0  0  0  0  0  0
    0.8067   -3.5142    0.8315 C   0  0  0  0  0  0  0  0  0  0  0  0
    1.9512   -3.9836    0.1945 C   0  0  0  0  0  0  0  0  0  0  0  0
    2.4303   -5.2310    0.3760 O   0  0  0  0  0  0  0  0  0  0  0  0
    2.6488   -3.1366   -0.6654 C   0  0  0  0  0  0  0  0  0  0  0  0
    2.1966   -1.8468   -0.8802 C   0  0  0  0  0  0  0  0  0  0  0  0
   -0.6534    0.3453   -0.9128 C   0  0  0  0  0  0  0  0  0  0  0  0
   -1.1900    1.7481   -0.9809 C   0  0  0  0  0  0  0  0  0  0  0  0
   -2.4040    1.8824   -0.0552 C   0  0  0  0  0  0  0  0  0  0  0  0
   -1.7055   -0.6627   -1.2830 C   0  0  0  0  0  0  0  0  0  0  0  0
   -2.9277   -0.5489   -0.3692 C   0  0  0  0  0  0  0  0  0  0  0  0
   -3.5019    0.8681   -0.3704 C   0  0  1  0  0  0  0  0  0  0  0  0
   -4.6746    1.0303    0.5948 C   0  0  0  0  0  0  0  0  0  0  0  0
   -5.8796    0.1810    0.2358 C   0  0  0  0  0  0  0  0  0  0  0  0
   -6.9419    0.5061    1.1096 O   0  0  0  0  0  0  0  0  0  0  0  0
    2.0304    0.4003    1.7538 H   0  0  0  0  0  0  0  0  0  0  0  0
    3.7676    2.0586    2.2018 H   0  0  0  0  0  0  0  0  0  0  0  0
    4.9702    3.8190    1.3253 H   0  0  0  0  0  0  0  0  0  0  0  0
    3.3075    3.6057   -1.7714 H   0  0  0  0  0  0  0  0  0  0  0  0
    1.5528    1.9455   -2.2040 H   0  0  0  0  0  0  0  0  0  0  0  0
   -0.5203   -1.8710    1.1184 H   0  0  0  0  0  0  0  0  0  0  0  0
    0.2613   -4.1532    1.5172 H   0  0  0  0  0  0  0  0  0  0  0  0
    1.8774   -5.7156    0.9988 H   0  0  0  0  0  0  0  0  0  0  0  0
    3.5451   -3.4911   -1.1595 H   0  0  0  0  0  0  0  0  0  0  0  0
    2.7575   -1.2010   -1.5449 H   0  0  0  0  0  0  0  0  0  0  0  0
   -0.4403    2.4902   -0.7109 H   0  0  0  0  0  0  0  0  0  0  0  0
   -1.5011    1.9698   -2.0085 H   0  0  0  0  0  0  0  0  0  0  0  0
   -2.0738    1.7521    0.9818 H   0  0  0  0  0  0  0  0  0  0  0  0
   -2.8068    2.8964   -0.1289 H   0  0  0  0  0  0  0  0  0  0  0  0
   -2.0271   -0.4482   -2.3103 H   0  0  0  0  0  0  0  0  0  0  0  0
   -1.3220   -1.6820   -1.2836 H   0  0  0  0  0  0  0  0  0  0  0  0
   -3.6836   -1.2705   -0.6886 H   0  0  0  0  0  0  0  0  0  0  0  0
   -2.6457   -0.8223    0.6544 H   0  0  0  0  0  0  0  0  0  0  0  0
   -3.8639    1.0802   -1.3865 H   0  0  0  0  0  0  0  0  0  0  0  0
   -4.3430    0.7895    1.6112 H   0  0  0  0  0  0  0  0  0  0  0  0
   -4.9816    2.0815    0.6037 H   0  0  0  0  0  0  0  0  0  0  0  0
   -6.1532    0.3712   -0.8119 H   0  0  0  0  0  0  0  0  0  0  0  0
   -5.6272   -0.8842    0.3073 H   0  0  0  0  0  0  0  0  0  0  0  0
   -7.6885   -0.0595    0.8939 H   0  0  0  0  0  0  0  0  0  0  0  0
 23 24  1  0
 23 22  1  0
 21 18  1  0
 21 20  1  0
 21 22  1  0
 17 18  1  0
 17 16  1  0
 19 20  1  0
 19 16  1  0
 16  8  2  0
 10 11  2  0
 10  9  1  0
 11 12  1  0
  8  9  1  0
  8  7  1  0
  1  7  2  0
  1  2  1  0
  9 15  2  0
  7  6  1  0
  2  3  2  0
 12 13  1  0
 12 14  2  0
  6  5  2  0
  3  5  1  0
  3  4  1  0
 15 14  1  0
  1 25  1  0
  2 26  1  0
  4 27  1  0
  5 28  1  0
  6 29  1  0
 10 30  1  0
 11 31  1  0
 13 32  1  0
 14 33  1  0
 15 34  1  0
 17 35  1  0
 17 36  1  0
 18 37  1  0
 18 38  1  0
 19 39  1  0
 19 40  1  0
 20 41  1  0
 20 42  1  0
 21 43  1  6
 22 44  1  0
 22 45  1  0
 23 46  1  0
 23 47  1  0
 24 48  1  0
M  END
