
     RDKit          3D

 41 43  0  0  0  0  0  0  0  0999 V2000
    3.9482   -0.5614    0.8407 C   0  0  0  0  0  0  0  0  0  0  0  0
    4.7938    0.1156   -0.0235 C   0  0  0  0  0  0  0  0  0  0  0  0
    4.2625    1.0523   -0.8944 C   0  0  0  0  0  0  0  0  0  0  0  0
    2.8980    1.2981   -0.8925 C   0  0  0  0  0  0  0  0  0  0  0  0
    2.0488    0.6122   -0.0266 C   0  0  0  0  0  0  0  0  0  0  0  0
    2.5907   -0.3245    0.8508 C   0  0  0  0  0  0  0  0  0  0  0  0
    0.5997    0.9073   -0.0170 C   0  0  0  0  0  0  0  0  0  0  0  0
    0.1876    2.2105    0.2305 C   0  0  0  0  0  0  0  0  0  0  0  0
   -1.9984    1.6592    0.0450 C   0  0  0  0  0  0  0  0  0  0  0  0
   -0.3732   -0.0712   -0.2657 C   0  0  0  0  0  0  0  0  0  0  0  0
   -1.7117    0.3232   -0.2210 C   0  0  0  0  0  0  0  0  0  0  0  0
   -2.8489   -0.6390   -0.5065 C   0  0  1  0  0  0  0  0  0  0  0  0
   -2.3989   -2.0946   -0.4522 C   0  0  0  0  0  0  0  0  0  0  0  0
   -1.1168   -2.2707   -1.2464 C   0  0  0  0  0  0  0  0  0  0  0  0
    0.0135   -1.4888   -0.5935 C   0  0  0  0  0  0  0  0  0  0  0  0
   -6.2564   -0.2193    1.1012 C   0  0  0  0  0  0  0  0  0  0  0  0
   -7.6012    0.3398    0.6711 C   0  0  0  0  0  0  0  0  0  0  0  0
    6.4820   -0.2202    0.0055 Cl  0  0  0  0  0  0  0  0  0  0  0  0
   -1.0822    2.5895    0.2618 N   0  0  0  0  0  0  0  0  0  0  0  0
   -5.5749   -0.2895   -1.2037 O   0  0  0  0  0  0  0  0  0  0  0  0
    4.4654   -1.4567    1.6844 F   0  0  0  0  0  0  0  0  0  0  0  0
   -3.9647   -0.3941    0.3797 N   0  0  0  0  0  0  0  0  0  0  0  0
    4.9133    1.5838   -1.5750 H   0  0  0  0  0  0  0  0  0  0  0  0
    2.4906    2.0246   -1.5829 H   0  0  0  0  0  0  0  0  0  0  0  0
    1.9646   -0.8618    1.5519 H   0  0  0  0  0  0  0  0  0  0  0  0
    0.9299    2.9795    0.4201 H   0  0  0  0  0  0  0  0  0  0  0  0
   -3.0319    1.9877    0.0818 H   0  0  0  0  0  0  0  0  0  0  0  0
   -3.2051   -0.4342   -1.5193 H   0  0  0  0  0  0  0  0  0  0  0  0
   -2.2351   -2.3914    0.5892 H   0  0  0  0  0  0  0  0  0  0  0  0
   -3.1987   -2.7261   -0.8435 H   0  0  0  0  0  0  0  0  0  0  0  0
   -0.8419   -3.3244   -1.3071 H   0  0  0  0  0  0  0  0  0  0  0  0
   -1.2669   -1.9250   -2.2738 H   0  0  0  0  0  0  0  0  0  0  0  0
    0.8992   -1.4864   -1.2324 H   0  0  0  0  0  0  0  0  0  0  0  0
    0.3118   -1.9972    0.3289 H   0  0  0  0  0  0  0  0  0  0  0  0
   -6.3813   -1.2334    1.4949 H   0  0  0  0  0  0  0  0  0  0  0  0
   -5.8429    0.3673    1.9251 H   0  0  0  0  0  0  0  0  0  0  0  0
   -7.5122    1.3625    0.3050 H   0  0  0  0  0  0  0  0  0  0  0  0
   -8.0522   -0.2610   -0.1169 H   0  0  0  0  0  0  0  0  0  0  0  0
   -8.2886    0.3487    1.5159 H   0  0  0  0  0  0  0  0  0  0  0  0
   -3.7852   -0.4565    1.3708 H   0  0  0  0  0  0  0  0  0  0  0  0
   -5.2475   -0.2974   -0.0264 C   0  0  0  0  0  0  0  0  0  0  0  0
 21  1  1  0
  1  6  2  0
  1  2  1  0
 14 15  1  0
 14 13  1  0
  6  5  1  0
 15 10  1  0
 18  2  1  0
 13 12  1  0
  2  3  2  0
 12 11  1  0
 12 22  1  0
 10 11  2  0
 10  7  1  0
  5  7  1  0
  5  4  2  0
 11  9  1  0
 22 41  1  0
  7  8  2  0
  3  4  1  0
  9 19  2  0
  8 19  1  0
 41 16  1  0
 41 20  2  0
 16 17  1  0
  3 23  1  0
  4 24  1  0
  6 25  1  0
  8 26  1  0
  9 27  1  0
 12 28  1  6
 13 29  1  0
 13 30  1  0
 14 31  1  0
 14 32  1  0
 15 33  1  0
 15 34  1  0
 16 35  1  0
 16 36  1  0
 17 37  1  0
 17 38  1  0
 17 39  1  0
 22 40  1  0
M  END
