
     RDKit          3D

 66 71  0  0  0  0  0  0  0  0999 V2000
   -4.3841    4.1616   -1.0850 C   0  0  0  0  0  0  0  0  0  0  0  0
   -3.9553   -2.2907    1.2642 C   0  0  0  0  0  0  0  0  0  0  0  0
   -4.3043   -0.8037    1.3332 C   0  0  0  0  0  0  0  0  0  0  0  0
   -3.3849   -0.1030    0.3981 C   0  0  0  0  0  0  0  0  0  0  0  0
   -2.2192   -0.6414   -0.0903 C   0  0  0  0  0  0  0  0  0  0  0  0
   -1.7333    0.3328   -0.9833 C   0  0  0  0  0  0  0  0  0  0  0  0
   -4.6305    2.0329   -0.0262 C   0  0  1  0  0  0  0  0  0  0  0  0
   -4.1695    3.4709    0.2528 C   0  0  0  0  0  0  0  0  0  0  0  0
   -5.4682    2.1717   -1.3199 C   0  0  0  0  0  0  0  0  0  0  0  0
   -0.7820    0.4441   -3.2385 C   0  0  0  0  0  0  0  0  0  0  0  0
    0.0430   -0.5815   -3.9947 C   0  0  0  0  0  0  0  0  0  0  0  0
   -2.0077   -3.0584    2.5153 C   0  0  0  0  0  0  0  0  0  0  0  0
    1.5107   -0.4182   -3.6350 C   0  0  0  0  0  0  0  0  0  0  0  0
    1.7145   -0.2984   -2.1480 C   0  0  0  0  0  0  0  0  0  0  0  0
    0.6517    0.0443   -1.2918 C   0  0  0  0  0  0  0  0  0  0  0  0
    0.9170    0.1907    0.0727 C   0  0  0  0  0  0  0  0  0  0  0  0
    2.1854   -0.0203    0.5946 C   0  0  0  0  0  0  0  0  0  0  0  0
    3.2428   -0.3998   -0.2387 C   0  0  0  0  0  0  0  0  0  0  0  0
    2.9662   -0.5201   -1.6005 C   0  0  0  0  0  0  0  0  0  0  0  0
    4.6056   -0.6494    0.2406 C   0  0  0  0  0  0  0  0  0  0  0  0
    5.0606   -1.4331    1.3215 C   0  0  0  0  0  0  0  0  0  0  0  0
    5.7763   -0.1910   -0.3349 C   0  0  0  0  0  0  0  0  0  0  0  0
    2.4206    0.1955    2.0557 C   0  0  1  0  0  0  0  0  0  0  0  0
   -1.7239   -1.9990    0.2864 C   0  0  0  0  0  0  0  0  0  0  0  0
    1.5341    1.0891    2.5721 F   0  0  0  0  0  0  0  0  0  0  0  0
    2.2199   -0.9686    2.7550 F   0  0  0  0  0  0  0  0  0  0  0  0
   -2.5353    1.3819   -1.0221 N   0  0  0  0  0  0  0  0  0  0  0  0
   -3.5355    1.1012   -0.1860 N   0  0  0  0  0  0  0  0  0  0  0  0
   -0.6140    0.2569   -1.8053 N   0  0  0  0  0  0  0  0  0  0  0  0
    6.3783   -1.4437    1.3937 N   0  0  0  0  0  0  0  0  0  0  0  0
    6.7938   -0.6847    0.3864 N   0  0  0  0  0  0  0  0  0  0  0  0
   -2.5225   -2.4991    1.3946 N   0  0  0  0  0  0  0  0  0  0  0  0
   -5.5474    3.5491   -1.6100 O   0  0  0  0  0  0  0  0  0  0  0  0
   -2.7189   -3.4043    3.4499 O   0  0  0  0  0  0  0  0  0  0  0  0
   -4.5657    5.2332   -0.9990 H   0  0  0  0  0  0  0  0  0  0  0  0
   -3.5224    4.0082   -1.7452 H   0  0  0  0  0  0  0  0  0  0  0  0
   -4.4716   -2.8426    2.0432 H   0  0  0  0  0  0  0  0  0  0  0  0
   -4.2771   -2.6945    0.3003 H   0  0  0  0  0  0  0  0  0  0  0  0
   -5.3512   -0.6639    1.0564 H   0  0  0  0  0  0  0  0  0  0  0  0
   -4.1883   -0.4338    2.3555 H   0  0  0  0  0  0  0  0  0  0  0  0
   -5.2340    1.6524    0.7958 H   0  0  0  0  0  0  0  0  0  0  0  0
   -3.1414    3.5220    0.6069 H   0  0  0  0  0  0  0  0  0  0  0  0
   -4.8106    3.9143    1.0152 H   0  0  0  0  0  0  0  0  0  0  0  0
    0.0249   -2.3081    2.5797 H   0  0  0  0  0  0  0  0  0  0  0  0
   -0.2611   -3.7948    3.4793 H   0  0  0  0  0  0  0  0  0  0  0  0
   -0.1439   -3.8314    1.7177 H   0  0  0  0  0  0  0  0  0  0  0  0
   -4.9847    1.6184   -2.1336 H   0  0  0  0  0  0  0  0  0  0  0  0
   -6.4801    1.7825   -1.1997 H   0  0  0  0  0  0  0  0  0  0  0  0
   -0.4849    1.4559   -3.5363 H   0  0  0  0  0  0  0  0  0  0  0  0
   -1.8401    0.3369   -3.4713 H   0  0  0  0  0  0  0  0  0  0  0  0
   -0.3071   -1.5848   -3.7389 H   0  0  0  0  0  0  0  0  0  0  0  0
   -0.1015   -0.4511   -5.0679 H   0  0  0  0  0  0  0  0  0  0  0  0
    2.1003   -1.2523   -4.0209 H   0  0  0  0  0  0  0  0  0  0  0  0
    1.9017    0.4815   -4.1210 H   0  0  0  0  0  0  0  0  0  0  0  0
    0.1178    0.5118    0.7283 H   0  0  0  0  0  0  0  0  0  0  0  0
    3.7693   -0.8147   -2.2675 H   0  0  0  0  0  0  0  0  0  0  0  0
    4.4759   -2.0003    2.0292 H   0  0  0  0  0  0  0  0  0  0  0  0
    5.9391    0.4531   -1.1844 H   0  0  0  0  0  0  0  0  0  0  0  0
    8.6762   -0.0819    1.0537 H   0  0  0  0  0  0  0  0  0  0  0  0
    8.6846   -1.4291   -0.1003 H   0  0  0  0  0  0  0  0  0  0  0  0
    8.3375    0.2145   -0.6579 H   0  0  0  0  0  0  0  0  0  0  0  0
    3.4281    0.5475    2.2799 H   0  0  0  0  0  0  0  0  0  0  0  0
   -1.7858   -2.6859   -0.5658 H   0  0  0  0  0  0  0  0  0  0  0  0
   -0.6741   -1.9565    0.5710 H   0  0  0  0  0  0  0  0  0  0  0  0
    8.2057   -0.4871    0.1606 C   0  0  0  0  0  0  0  0  0  0  0  0
   -0.5119   -3.2572    2.5686 C   0  0  0  0  0  0  0  0  0  0  0  0
  1  8  1  0
  1 33  1  0
  8  7  1  0
 33  9  1  0
  7  9  1  0
  7 28  1  0
  3  2  1  0
  3  4  1  0
 28  4  1  0
 28 27  1  0
  2 32  1  0
  4  5  2  0
 27  6  2  0
 34 12  2  0
 25 23  1  0
  5  6  1  0
  5 24  1  0
 32 12  1  0
 32 24  1  0
  6 29  1  0
 12 66  1  0
 23 26  1  0
 23 17  1  0
 16 17  2  0
 16 15  1  0
 29 15  1  0
 29 10  1  0
 17 18  1  0
 15 14  2  0
 10 11  1  0
 11 13  1  0
 18 20  1  0
 18 19  2  0
 14 19  1  0
 14 13  1  0
 20 21  1  0
 20 22  2  0
 21 30  2  0
 22 31  1  0
 30 31  1  0
 31 65  1  0
  1 35  1  0
  1 36  1  0
  2 37  1  0
  2 38  1  0
  3 39  1  0
  3 40  1  0
  7 41  1  1
  8 42  1  0
  8 43  1  0
 66 44  1  0
 66 45  1  0
 66 46  1  0
  9 47  1  0
  9 48  1  0
 10 49  1  0
 10 50  1  0
 11 51  1  0
 11 52  1  0
 13 53  1  0
 13 54  1  0
 16 55  1  0
 19 56  1  0
 21 57  1  0
 22 58  1  0
 65 59  1  0
 65 60  1  0
 65 61  1  0
 23 62  1  6
 24 63  1  0
 24 64  1  0
M  END
