
     RDKit          3D

 41 44  0  0  0  0  0  0  0  0999 V2000
    4.2143    2.3275    0.0207 C   0  0  0  0  0  0  0  0  0  0  0  0
    3.6251    1.0460    0.0007 C   0  0  0  0  0  0  0  0  0  0  0  0
    2.2132    0.9446    0.0281 C   0  0  0  0  0  0  0  0  0  0  0  0
    1.6491   -0.3605    0.0016 C   0  0  0  0  0  0  0  0  0  0  0  0
    1.7843   -2.8143   -0.0923 C   0  0  0  0  0  0  0  0  0  0  0  0
   -1.8157   -1.4714    0.0382 C   0  0  1  0  0  0  0  0  0  0  0  0
   -2.2965   -0.9582    1.4030 C   0  0  0  0  0  0  0  0  0  0  0  0
   -3.8196   -0.9111    1.4457 C   0  0  0  0  0  0  0  0  0  0  0  0
   -4.4036   -0.0747    0.3172 C   0  0  2  0  0  0  0  0  0  0  0  0
    1.4296    2.1177    0.0745 C   0  0  0  0  0  0  0  0  0  0  0  0
    4.4176   -0.1336   -0.0489 C   0  0  0  0  0  0  0  0  0  0  0  0
   -3.8872   -0.5505   -1.0385 C   0  0  0  0  0  0  0  0  0  0  0  0
   -2.3644   -0.5939   -1.0938 C   0  0  0  0  0  0  0  0  0  0  0  0
   -4.8738    3.0166   -0.7932 N   0  0  0  0  0  0  0  0  0  0  0  0
   -4.0228    1.3308    0.5846 N   0  0  0  0  0  0  0  0  0  0  0  0
   -0.3305   -1.6014   -0.0098 C   0  0  0  0  0  0  0  0  0  0  0  0
    0.3053   -0.4222    0.0297 O   0  0  0  0  0  0  0  0  0  0  0  0
    2.0342    3.3475    0.0914 C   0  0  0  0  0  0  0  0  0  0  0  0
    3.4366    3.4546    0.0640 C   0  0  0  0  0  0  0  0  0  0  0  0
    0.3401   -2.7680   -0.0715 C   0  0  0  0  0  0  0  0  0  0  0  0
    2.4271   -3.8563   -0.1426 O   0  0  0  0  0  0  0  0  0  0  0  0
    2.4253   -1.4955   -0.0527 C   0  0  0  0  0  0  0  0  0  0  0  0
    3.8370   -1.3614   -0.0758 C   0  0  0  0  0  0  0  0  0  0  0  0
    5.2941    2.4070   -0.0005 H   0  0  0  0  0  0  0  0  0  0  0  0
   -2.2093   -2.4839   -0.0990 H   0  0  0  0  0  0  0  0  0  0  0  0
   -1.9286   -1.6114    2.1971 H   0  0  0  0  0  0  0  0  0  0  0  0
   -1.8895    0.0378    1.5957 H   0  0  0  0  0  0  0  0  0  0  0  0
   -4.2201   -1.9244    1.3552 H   0  0  0  0  0  0  0  0  0  0  0  0
   -4.1585   -0.5237    2.4083 H   0  0  0  0  0  0  0  0  0  0  0  0
   -5.4954   -0.1527    0.3391 H   0  0  0  0  0  0  0  0  0  0  0  0
    0.3505    2.0533    0.0956 H   0  0  0  0  0  0  0  0  0  0  0  0
    5.4957   -0.0364   -0.0675 H   0  0  0  0  0  0  0  0  0  0  0  0
   -4.2936   -1.5503   -1.2179 H   0  0  0  0  0  0  0  0  0  0  0  0
   -4.2763    0.0793   -1.8429 H   0  0  0  0  0  0  0  0  0  0  0  0
   -1.9636    0.4193   -1.0132 H   0  0  0  0  0  0  0  0  0  0  0  0
   -2.0443   -0.9861   -2.0612 H   0  0  0  0  0  0  0  0  0  0  0  0
    1.4278    4.2427    0.1260 H   0  0  0  0  0  0  0  0  0  0  0  0
    3.8996    4.4325    0.0769 H   0  0  0  0  0  0  0  0  0  0  0  0
   -0.2226   -3.6913   -0.1033 H   0  0  0  0  0  0  0  0  0  0  0  0
    4.4431   -2.2560   -0.1163 H   0  0  0  0  0  0  0  0  0  0  0  0
   -4.4882    2.1705   -0.1586 N   0  0  0  0  0  0  0  0  0  0  0  0
 19 18  1  0
 19  1  2  0
 18 10  2  0
  1  2  1  0
 10  3  1  0
  2  3  2  0
  2 11  1  0
  3  4  1  0
 14 41  2  0
 11 23  2  0
 41 15  2  0
  4 17  1  0
  4 22  2  0
 17 16  1  0
  7  8  1  0
  7  6  1  0
  8  9  1  0
 15  9  1  0
 23 22  1  0
 22  5  1  0
  9 12  1  0
 16  6  1  0
 16 20  2  0
 12 13  1  0
  6 13  1  0
  5 20  1  0
  5 21  2  0
  1 24  1  0
  6 25  1  6
  7 26  1  0
  7 27  1  0
  8 28  1  0
  8 29  1  0
  9 30  1  6
 10 31  1  0
 11 32  1  0
 12 33  1  0
 12 34  1  0
 13 35  1  0
 13 36  1  0
 18 37  1  0
 19 38  1  0
 20 39  1  0
 23 40  1  0
M  CHG  2  14  -1  41   1
M  END
