
     RDKit          3D

 61 65  0  0  0  0  0  0  0  0999 V2000
   -0.5462    3.9544   -0.6486 C   0  0  0  0  0  0  0  0  0  0  0  0
    0.8019    3.6186   -0.6011 C   0  0  0  0  0  0  0  0  0  0  0  0
    1.1595    2.4001   -0.0053 C   0  0  0  0  0  0  0  0  0  0  0  0
    0.1839    1.5652    0.5240 C   0  0  0  0  0  0  0  0  0  0  0  0
   -1.1625    1.8999    0.4300 C   0  0  0  0  0  0  0  0  0  0  0  0
   -1.5257    3.1105   -0.1528 C   0  0  0  0  0  0  0  0  0  0  0  0
   -2.1494    0.9503    1.0249 C   0  0  0  0  0  0  0  0  0  0  0  0
   -4.5549    0.3345    0.8777 C   0  0  0  0  0  0  0  0  0  0  0  0
   -5.7028    0.5927    0.1261 C   0  0  0  0  0  0  0  0  0  0  0  0
   -6.9002   -0.0330    0.4315 C   0  0  0  0  0  0  0  0  0  0  0  0
   -6.9790   -0.9321    1.4878 C   0  0  0  0  0  0  0  0  0  0  0  0
   -5.8381   -1.1827    2.2315 C   0  0  0  0  0  0  0  0  0  0  0  0
   -4.6303   -0.5657    1.9420 C   0  0  0  0  0  0  0  0  0  0  0  0
    1.8382    4.5401   -1.1685 C   0  0  0  0  0  0  0  0  0  0  0  0
    3.1120    0.8824   -0.1185 C   0  0  0  0  0  0  0  0  0  0  0  0
    3.0297   -1.2809   -0.5995 C   0  0  0  0  0  0  0  0  0  0  0  0
    5.0052   -0.3247   -0.2237 C   0  0  0  0  0  0  0  0  0  0  0  0
    2.7596   -3.6660   -1.1515 C   0  0  0  0  0  0  0  0  0  0  0  0
    0.6360   -3.7807   -1.3097 C   0  0  0  0  0  0  0  0  0  0  0  0
    0.9031   -2.4852   -1.0068 C   0  0  0  0  0  0  0  0  0  0  0  0
    7.0761   -1.6346   -0.4107 C   0  0  0  0  0  0  0  0  0  0  0  0
    8.5170   -1.1365   -0.4570 C   0  0  0  0  0  0  0  0  0  0  0  0
    8.5249    0.0326    0.5155 C   0  0  1  0  0  0  0  0  0  0  0  0
    7.1864    0.7050    0.2192 C   0  0  0  0  0  0  0  0  0  0  0  0
   -8.1024    0.2264   -0.4229 C   0  0  1  0  0  0  0  0  0  0  0  0
   -8.1474   -0.6070   -1.4738 F   0  0  0  0  0  0  0  0  0  0  0  0
   -9.2455    0.0589    0.2502 F   0  0  0  0  0  0  0  0  0  0  0  0
   -8.1167    1.4688   -0.9185 F   0  0  0  0  0  0  0  0  0  0  0  0
   -3.4022    1.0255    0.5027 N   0  0  0  0  0  0  0  0  0  0  0  0
    2.5215    2.0816    0.0806 N   0  0  0  0  0  0  0  0  0  0  0  0
    2.3468   -0.1692   -0.4209 N   0  0  0  0  0  0  0  0  0  0  0  0
    4.3265   -1.4498   -0.5227 N   0  0  0  0  0  0  0  0  0  0  0  0
    4.4339    0.8637   -0.0091 N   0  0  0  0  0  0  0  0  0  0  0  0
    2.2750   -2.4134   -0.9053 N   0  0  0  0  0  0  0  0  0  0  0  0
    6.3272   -0.4130   -0.1390 N   0  0  0  0  0  0  0  0  0  0  0  0
    1.8011   -4.5062   -1.3977 N   0  0  0  0  0  0  0  0  0  0  0  0
   -1.8275    0.1694    1.9027 O   0  0  0  0  0  0  0  0  0  0  0  0
   -0.8371    4.8981   -1.0921 H   0  0  0  0  0  0  0  0  0  0  0  0
    0.4701    0.6450    1.0100 H   0  0  0  0  0  0  0  0  0  0  0  0
   -2.5584    3.4310   -0.2030 H   0  0  0  0  0  0  0  0  0  0  0  0
   -5.6460    1.2967   -0.6955 H   0  0  0  0  0  0  0  0  0  0  0  0
   -7.9054   -1.4305    1.7376 H   0  0  0  0  0  0  0  0  0  0  0  0
   -5.8839   -1.8765    3.0600 H   0  0  0  0  0  0  0  0  0  0  0  0
   -3.7659   -0.7900    2.5438 H   0  0  0  0  0  0  0  0  0  0  0  0
    2.4834    4.9555   -0.3902 H   0  0  0  0  0  0  0  0  0  0  0  0
    2.4846    4.0289   -1.8843 H   0  0  0  0  0  0  0  0  0  0  0  0
    1.3709    5.3795   -1.6791 H   0  0  0  0  0  0  0  0  0  0  0  0
    3.8153   -3.8826   -1.1349 H   0  0  0  0  0  0  0  0  0  0  0  0
   -0.3295   -4.2341   -1.4713 H   0  0  0  0  0  0  0  0  0  0  0  0
    0.2701   -1.6286   -0.8593 H   0  0  0  0  0  0  0  0  0  0  0  0
    6.7598   -2.0883   -1.3491 H   0  0  0  0  0  0  0  0  0  0  0  0
    6.9227   -2.3696    0.3828 H   0  0  0  0  0  0  0  0  0  0  0  0
    9.2410   -1.9096   -0.2015 H   0  0  0  0  0  0  0  0  0  0  0  0
    8.7560   -0.7708   -1.4573 H   0  0  0  0  0  0  0  0  0  0  0  0
    9.3539    0.7247    0.3321 H   0  0  0  0  0  0  0  0  0  0  0  0
    6.7920    1.2560    1.0739 H   0  0  0  0  0  0  0  0  0  0  0  0
    7.2842    1.4085   -0.6130 H   0  0  0  0  0  0  0  0  0  0  0  0
   -3.5207    1.6311   -0.2947 H   0  0  0  0  0  0  0  0  0  0  0  0
    3.1697    2.8447    0.2063 H   0  0  0  0  0  0  0  0  0  0  0  0
    8.5734   -0.4954    1.8228 O   0  0  0  0  0  0  0  0  0  0  0  0
    8.5309    0.2343    2.4486 H   0  0  0  0  0  0  0  0  0  0  0  0
 36 19  1  0
 36 18  2  0
 19 20  2  0
 18 34  1  0
 20 34  1  0
 34 16  1  0
 16 31  2  0
 16 32  1  0
 31 15  1  0
 32 17  2  0
 30 15  1  0
 30  3  1  0
 15 33  2  0
 14  2  1  0
  3  2  1  0
  3  4  2  0
 17 33  1  0
 17 35  1  0
  2  1  2  0
  4  5  1  0
 24 35  1  0
 24 23  1  0
 35 21  1  0
  1  6  1  0
  5  6  2  0
  5  7  1  0
 37  7  2  0
 25 27  1  1
 21 22  1  0
  7 29  1  0
 23 22  1  0
 23 60  1  0
  9  8  2  0
  9 10  1  0
 29  8  1  0
 25 26  1  0
 25 10  1  0
 25 28  1  0
  8 13  1  0
 10 11  2  0
 13 12  2  0
 11 12  1  0
  1 38  1  0
  4 39  1  0
  6 40  1  0
  9 41  1  0
 11 42  1  0
 12 43  1  0
 13 44  1  0
 14 45  1  0
 14 46  1  0
 14 47  1  0
 18 48  1  0
 19 49  1  0
 20 50  1  0
 21 51  1  0
 21 52  1  0
 22 53  1  0
 22 54  1  0
 23 55  1  6
 24 56  1  0
 24 57  1  0
 29 58  1  0
 30 59  1  0
 60 61  1  0
M  END
