
     RDKit          3D

 43 45  0  0  0  0  0  0  0  0999 V2000
   -2.5064   -1.2368    1.7975 N   0  0  0  0  0  0  0  0  0  0  0  0
   -3.1154   -1.6609    0.5599 C   0  0  2  0  0  0  0  0  0  0  0  0
   -3.2180   -3.1741    0.4005 C   0  0  0  0  0  0  0  0  0  0  0  0
   -2.3193   -4.0066    0.5313 O   0  0  0  0  0  0  0  0  0  0  0  0
   -2.3627   -1.1253   -0.6790 C   0  0  0  0  0  0  0  0  0  0  0  0
   -1.9611    0.2944   -0.5060 C   0  0  0  0  0  0  0  0  0  0  0  0
   -3.0218    1.3355   -0.6633 C   0  0  0  0  0  0  0  0  0  0  0  0
   -4.1916    1.0526   -0.9272 O   0  0  0  0  0  0  0  0  0  0  0  0
   -2.5889    2.7308   -0.4854 C   0  0  0  0  0  0  0  0  0  0  0  0
   -1.3119    3.0545   -0.1962 C   0  0  0  0  0  0  0  0  0  0  0  0
   -0.8515    4.3349   -0.0203 O   0  0  0  0  0  0  0  0  0  0  0  0
   -0.2561    2.0172   -0.0421 C   0  0  0  0  0  0  0  0  0  0  0  0
    0.9896    2.3717    0.2442 N   0  0  0  0  0  0  0  0  0  0  0  0
    2.1670    1.7973   -0.3381 C   0  0  1  0  0  0  0  0  0  0  0  0
    3.5221    2.4393   -0.1245 C   0  0  0  0  0  0  0  0  0  0  0  0
    3.2426    1.1091    0.5184 C   0  0  2  0  0  0  0  0  0  0  0  0
    3.8319   -0.1518    0.0440 C   0  0  0  0  0  0  0  0  0  0  0  0
    4.0107   -1.1869    0.9751 C   0  0  0  0  0  0  0  0  0  0  0  0
    4.5649   -2.4038    0.5814 C   0  0  0  0  0  0  0  0  0  0  0  0
    4.9473   -2.6029   -0.7446 C   0  0  0  0  0  0  0  0  0  0  0  0
    4.7738   -1.5804   -1.6770 C   0  0  0  0  0  0  0  0  0  0  0  0
    4.2205   -0.3619   -1.2890 C   0  0  0  0  0  0  0  0  0  0  0  0
   -0.6836    0.6344   -0.2165 C   0  0  0  0  0  0  0  0  0  0  0  0
   -4.4597   -3.6129    0.0770 O   0  0  0  0  0  0  0  0  0  0  0  0
   -2.9603   -1.6699    2.5787 H   0  0  0  0  0  0  0  0  0  0  0  0
   -1.5309   -1.4688    1.8186 H   0  0  0  0  0  0  0  0  0  0  0  0
   -4.1750   -1.2558    0.5238 H   0  0  0  0  0  0  0  0  0  0  0  0
   -1.4667   -1.7679   -0.8866 H   0  0  0  0  0  0  0  0  0  0  0  0
   -3.0654   -1.2099   -1.5574 H   0  0  0  0  0  0  0  0  0  0  0  0
   -3.3743    3.4993   -0.6023 H   0  0  0  0  0  0  0  0  0  0  0  0
   -1.4469    4.8081    0.5866 H   0  0  0  0  0  0  0  0  0  0  0  0
    1.1401    3.0966    0.9327 H   0  0  0  0  0  0  0  0  0  0  0  0
    1.9472    1.3584   -1.3415 H   0  0  0  0  0  0  0  0  0  0  0  0
    4.1970    2.5020   -1.0010 H   0  0  0  0  0  0  0  0  0  0  0  0
    3.6170    3.3279    0.5287 H   0  0  0  0  0  0  0  0  0  0  0  0
    3.0973    1.1190    1.6218 H   0  0  0  0  0  0  0  0  0  0  0  0
    3.7124   -1.0410    2.0248 H   0  0  0  0  0  0  0  0  0  0  0  0
    4.7002   -3.2085    1.3205 H   0  0  0  0  0  0  0  0  0  0  0  0
    5.3850   -3.5643   -1.0549 H   0  0  0  0  0  0  0  0  0  0  0  0
    5.0750   -1.7351   -2.7246 H   0  0  0  0  0  0  0  0  0  0  0  0
    4.0945    0.4277   -2.0442 H   0  0  0  0  0  0  0  0  0  0  0  0
    0.0802   -0.1591   -0.1052 H   0  0  0  0  0  0  0  0  0  0  0  0
   -4.4568   -4.5831   -0.0095 H   0  0  0  0  0  0  0  0  0  0  0  0
  1  2  1  0
  2  3  1  0
  2  5  1  0
  3  4  2  0
  3 24  1  0
  5  6  1  0
  6  7  1  0
  6 23  2  0
  7  8  2  0
  7  9  1  0
  9 10  2  0
 10 11  1  0
 10 12  1  0
 12 13  2  0
 12 23  1  0
 13 14  1  0
 14 15  1  0
 14 16  1  0
 15 16  1  0
 16 17  1  0
 17 18  2  0
 17 22  1  0
 18 19  1  0
 19 20  2  0
 20 21  1  0
 21 22  2  0
  1 25  1  0
  1 26  1  0
  2 27  1  1
  5 28  1  0
  5 29  1  0
  9 30  1  0
 11 31  1  0
 13 32  1  0
 14 33  1  6
 15 34  1  0
 15 35  1  0
 16 36  1  1
 18 37  1  0
 19 38  1  0
 20 39  1  0
 21 40  1  0
 22 41  1  0
 23 42  1  0
 24 43  1  0
M  CHG  1  13   1
M  END
