
     RDKit          3D

  5  4  0  0  0  0  0  0  0  0999 V2000
   -0.0283    0.0047   -0.5696 C   0  0  1  0  0  0  0  0  0  0  0  0
    1.5693    0.9017    0.0249 Br  0  0  0  0  0  0  0  0  0  0  0  0
   -0.0665   -1.8114    0.0693 Br  0  0  0  0  0  0  0  0  0  0  0  0
   -1.5985    0.9612    0.0038 Br  0  0  0  0  0  0  0  0  0  0  0  0
   -0.0212   -0.0170   -1.6594 H   0  0  0  0  0  0  0  0  0  0  0  0
  4  1  1  0
  1  3  1  0
  1  2  1  0
  1  5  1  6
M  END
