
     RDKit          3D

 40 43  0  0  0  0  0  0  0  0999 V2000
   -3.3992    0.6831   -0.1362 C   0  0  0  0  0  0  0  0  0  0  0  0
   -2.0561    1.0764   -0.2308 C   0  0  0  0  0  0  0  0  0  0  0  0
   -1.1168    0.0914   -0.1188 C   0  0  0  0  0  0  0  0  0  0  0  0
   -1.4488   -1.2733    0.0811 C   0  0  0  0  0  0  0  0  0  0  0  0
   -2.7760   -1.6530    0.1769 C   0  0  0  0  0  0  0  0  0  0  0  0
   -3.7618   -0.6720    0.0692 C   0  0  0  0  0  0  0  0  0  0  0  0
   -4.4423    1.6689   -0.2723 C   0  0  0  0  0  0  0  0  0  0  0  0
   -4.2889    2.8689   -0.4741 O   0  0  0  0  0  0  0  0  0  0  0  0
   -5.0772   -1.0644    0.1767 N   0  0  0  0  0  0  0  0  0  0  0  0
   -5.9888   -0.1734    0.0429 C   0  0  0  0  0  0  0  0  0  0  0  0
   -7.3088   -0.5132    0.0569 N   0  0  0  0  0  0  0  0  0  0  0  0
   -5.7184    1.1521   -0.1780 N   0  0  0  0  0  0  0  0  0  0  0  0
    0.2620    0.1020   -0.1643 N   0  0  0  0  0  0  0  0  0  0  0  0
   -0.3191   -2.0343    0.1495 N   0  0  0  0  0  0  0  0  0  0  0  0
    0.6699   -1.1883   -0.0041 C   0  0  0  0  0  0  0  0  0  0  0  0
    1.9683   -1.5443   -0.0320 N   0  0  0  0  0  0  0  0  0  0  0  0
    3.0613   -0.6066    0.0684 C   0  0  0  0  0  0  0  0  0  0  0  0
    4.3948   -1.3106   -0.1600 C   0  0  0  0  0  0  0  0  0  0  0  0
    7.6008    1.5363    0.1269 C   0  0  0  0  0  0  0  0  0  0  0  0
    7.1880    0.8355    1.2506 C   0  0  0  0  0  0  0  0  0  0  0  0
    6.1630   -0.0937    1.1521 C   0  0  0  0  0  0  0  0  0  0  0  0
    5.5379   -0.3389   -0.0667 C   0  0  0  0  0  0  0  0  0  0  0  0
    5.9614    0.3687   -1.1877 C   0  0  0  0  0  0  0  0  0  0  0  0
    6.9847    1.3000   -1.0935 C   0  0  0  0  0  0  0  0  0  0  0  0
   -1.7919    2.1122   -0.3912 H   0  0  0  0  0  0  0  0  0  0  0  0
   -3.0564   -2.6855    0.3322 H   0  0  0  0  0  0  0  0  0  0  0  0
   -7.4950   -1.4697    0.3038 H   0  0  0  0  0  0  0  0  0  0  0  0
   -7.9897    0.1461    0.3908 H   0  0  0  0  0  0  0  0  0  0  0  0
   -6.4743    1.8042   -0.3243 H   0  0  0  0  0  0  0  0  0  0  0  0
    0.8409    0.9129   -0.2878 H   0  0  0  0  0  0  0  0  0  0  0  0
    2.1343   -2.4976    0.2459 H   0  0  0  0  0  0  0  0  0  0  0  0
    2.9487    0.1675   -0.6967 H   0  0  0  0  0  0  0  0  0  0  0  0
    3.0784   -0.0976    1.0404 H   0  0  0  0  0  0  0  0  0  0  0  0
    4.5205   -2.1031    0.5834 H   0  0  0  0  0  0  0  0  0  0  0  0
    4.3801   -1.7945   -1.1395 H   0  0  0  0  0  0  0  0  0  0  0  0
    7.6679    1.0077    2.2051 H   0  0  0  0  0  0  0  0  0  0  0  0
    5.8517   -0.6425    2.0337 H   0  0  0  0  0  0  0  0  0  0  0  0
    5.4923    0.1846   -2.1475 H   0  0  0  0  0  0  0  0  0  0  0  0
    7.3044    1.8401   -1.9751 H   0  0  0  0  0  0  0  0  0  0  0  0
    8.4023    2.2590    0.1994 H   0  0  0  0  0  0  0  0  0  0  0  0
 19 20  2  0
 19 24  1  0
 20 21  1  0
 24 23  2  0
 21 22  2  0
 23 22  1  0
 22 18  1  0
 18 17  1  0
 17 16  1  0
 16 15  1  0
 15 14  2  0
 15 13  1  0
 14  4  1  0
 13  3  1  0
  4  3  1  0
  4  5  2  0
  3  2  2  0
  5  6  1  0
  2  1  1  0
  6  1  2  0
  6  9  1  0
  1  7  1  0
  9 10  2  0
  7  8  2  0
  7 12  1  0
 10 12  1  0
 10 11  1  0
  2 25  1  0
  5 26  1  0
 11 27  1  0
 11 28  1  0
 12 29  1  0
 13 30  1  0
 16 31  1  0
 17 32  1  0
 17 33  1  0
 18 34  1  0
 18 35  1  0
 19 40  1  0
 20 36  1  0
 21 37  1  0
 23 38  1  0
 24 39  1  0
M  END
