
     RDKit          3D

 15 14  0  0  0  0  0  0  0  0999 V2000
   -2.2524    0.4494    0.1872 C   0  0  0  0  0  0  0  0  0  0  0  0
   -3.3905    0.2751    0.5394 O   0  0  0  0  0  0  0  0  0  0  0  0
   -1.1575   -0.5583    0.4138 C   0  0  0  0  0  0  0  0  0  0  0  0
    0.0402   -0.0253   -0.0664 O   0  0  0  0  0  0  0  0  0  0  0  0
    1.1439   -0.8719    0.1431 C   0  0  0  0  0  0  0  0  0  0  0  0
    2.3896   -0.2370   -0.4179 C   0  0  0  0  0  0  0  0  0  0  0  0
    2.6828    0.9382    0.3004 O   0  0  0  0  0  0  0  0  0  0  0  0
   -1.9410    1.3718   -0.3348 H   0  0  0  0  0  0  0  0  0  0  0  0
   -1.1094   -0.7984    1.4863 H   0  0  0  0  0  0  0  0  0  0  0  0
   -1.4391   -1.4890   -0.0998 H   0  0  0  0  0  0  0  0  0  0  0  0
    1.2778   -1.0795    1.2142 H   0  0  0  0  0  0  0  0  0  0  0  0
    0.9961   -1.8397   -0.3554 H   0  0  0  0  0  0  0  0  0  0  0  0
    3.1940   -0.9787   -0.3379 H   0  0  0  0  0  0  0  0  0  0  0  0
    2.2475   -0.0374   -1.4878 H   0  0  0  0  0  0  0  0  0  0  0  0
    3.4760    1.3260   -0.0766 H   0  0  0  0  0  0  0  0  0  0  0  0
  7  6  1  0
  6  5  1  0
  5  4  1  0
  3  4  1  0
  3  1  1  0
  1  2  2  0
  1  8  1  0
  3  9  1  0
  3 10  1  0
  5 11  1  0
  5 12  1  0
  6 13  1  0
  6 14  1  0
  7 15  1  0
M  END
