
     RDKit          3D

 24 24  0  0  0  0  0  0  0  0999 V2000
    0.5618    3.0915   -0.1298 C   0  0  0  0  0  0  0  0  0  0  0  0
    1.2197    1.8421   -0.1382 O   0  0  0  0  0  0  0  0  0  0  0  0
    0.4732    0.7298   -0.0005 C   0  0  0  0  0  0  0  0  0  0  0  0
   -0.9027    0.7085    0.1321 C   0  0  0  0  0  0  0  0  0  0  0  0
   -1.5947   -0.5012    0.2723 C   0  0  0  0  0  0  0  0  0  0  0  0
   -3.0868   -0.4905    0.4367 C   0  0  0  0  0  0  0  0  0  0  0  0
   -3.6734    0.1687   -0.6666 O   0  0  0  0  0  0  0  0  0  0  0  0
   -0.8819   -1.6829    0.2653 C   0  0  0  0  0  0  0  0  0  0  0  0
    0.5085   -1.6782    0.1368 C   0  0  0  0  0  0  0  0  0  0  0  0
    1.1944   -0.4850    0.0043 C   0  0  0  0  0  0  0  0  0  0  0  0
    2.5296   -0.3679   -0.1230 O   0  0  0  0  0  0  0  0  0  0  0  0
    3.3062   -1.5465   -0.0785 C   0  0  0  0  0  0  0  0  0  0  0  0
    1.3334    3.8480   -0.2495 H   0  0  0  0  0  0  0  0  0  0  0  0
   -0.1516    3.1846   -0.9531 H   0  0  0  0  0  0  0  0  0  0  0  0
    0.0359    3.2708    0.8119 H   0  0  0  0  0  0  0  0  0  0  0  0
   -1.4645    1.6340    0.1388 H   0  0  0  0  0  0  0  0  0  0  0  0
   -3.4439   -1.5239    0.5301 H   0  0  0  0  0  0  0  0  0  0  0  0
   -3.3450    0.0165    1.3750 H   0  0  0  0  0  0  0  0  0  0  0  0
   -4.5935    0.3461   -0.4497 H   0  0  0  0  0  0  0  0  0  0  0  0
   -1.3981   -2.6300    0.3650 H   0  0  0  0  0  0  0  0  0  0  0  0
    1.0384   -2.6215    0.1380 H   0  0  0  0  0  0  0  0  0  0  0  0
    3.0683   -2.2271   -0.9007 H   0  0  0  0  0  0  0  0  0  0  0  0
    4.3442   -1.2365   -0.1710 H   0  0  0  0  0  0  0  0  0  0  0  0
    3.1822   -2.0831    0.8663 H   0  0  0  0  0  0  0  0  0  0  0  0
  1  2  1  0
  7  6  1  0
  2  3  1  0
  4  3  2  0
  4  5  1  0
  6  5  1  0
  3 10  1  0
  5  8  2  0
 10 11  1  0
 10  9  2  0
  8  9  1  0
 12 11  1  0
  1 13  1  0
  1 14  1  0
  1 15  1  0
  4 16  1  0
  6 17  1  0
  6 18  1  0
  7 19  1  0
  8 20  1  0
  9 21  1  0
 12 22  1  0
 12 23  1  0
 12 24  1  0
M  END
