
     RDKit          3D

 44 46  0  0  0  0  0  0  0  0999 V2000
   -2.3231   -0.0290   -1.2737 C   0  0  0  0  0  0  0  0  0  0  0  0
   -3.4008    0.8397   -1.3187 C   0  0  0  0  0  0  0  0  0  0  0  0
   -2.8036    1.6603    0.8740 C   0  0  0  0  0  0  0  0  0  0  0  0
   -1.4730   -0.0790   -0.1728 C   0  0  0  0  0  0  0  0  0  0  0  0
   -0.3106   -0.9968   -0.1717 C   0  0  0  0  0  0  0  0  0  0  0  0
    0.9486   -0.5214   -0.5046 C   0  0  0  0  0  0  0  0  0  0  0  0
   -0.4220   -2.3526    0.1233 C   0  0  0  0  0  0  0  0  0  0  0  0
   -3.6289    1.6769   -0.2386 C   0  0  0  0  0  0  0  0  0  0  0  0
   -1.7325    0.7815    0.8891 C   0  0  0  0  0  0  0  0  0  0  0  0
    2.0023   -1.4015   -0.5390 C   0  0  0  0  0  0  0  0  0  0  0  0
    0.7289   -3.1702    0.0416 C   0  0  0  0  0  0  0  0  0  0  0  0
    3.2353   -0.6617   -0.9203 C   0  0  0  0  0  0  0  0  0  0  0  0
    1.4270    0.8411   -0.8723 C   0  0  0  0  0  0  0  0  0  0  0  0
    0.6387   -4.6365    0.3343 C   0  0  0  0  0  0  0  0  0  0  0  0
    4.8566    2.6857    1.8698 C   0  0  0  0  0  0  0  0  0  0  0  0
   -1.7497   -2.9531    0.5037 C   0  0  0  0  0  0  0  0  0  0  0  0
    3.9988    2.6309   -0.3012 C   0  0  0  0  0  0  0  0  0  0  0  0
    1.9258   -2.6960   -0.2823 N   0  0  0  0  0  0  0  0  0  0  0  0
    2.8378    0.6169   -1.1197 N   0  0  0  0  0  0  0  0  0  0  0  0
   -2.3454   -3.6364   -0.6360 N   0  0  0  0  0  0  0  0  0  0  0  0
    4.3597   -1.1118   -1.0439 O   0  0  0  0  0  0  0  0  0  0  0  0
    4.6236    1.9081    0.7234 O   0  0  0  0  0  0  0  0  0  0  0  0
   -4.9675    2.7688   -0.2732 Cl  0  0  0  0  0  0  0  0  0  0  0  0
   -0.7059    0.7518    2.2790 Cl  0  0  0  0  0  0  0  0  0  0  0  0
   -2.1300   -0.6768   -2.1193 H   0  0  0  0  0  0  0  0  0  0  0  0
   -4.0480    0.8623   -2.1841 H   0  0  0  0  0  0  0  0  0  0  0  0
   -2.9903    2.3158    1.7133 H   0  0  0  0  0  0  0  0  0  0  0  0
    0.9271    1.2328   -1.7633 H   0  0  0  0  0  0  0  0  0  0  0  0
    1.2736    1.5624   -0.0638 H   0  0  0  0  0  0  0  0  0  0  0  0
   -0.1535   -5.1012   -0.2524 H   0  0  0  0  0  0  0  0  0  0  0  0
    1.5837   -5.1251    0.1088 H   0  0  0  0  0  0  0  0  0  0  0  0
    0.4050   -4.8143    1.3863 H   0  0  0  0  0  0  0  0  0  0  0  0
    5.3330    2.0512    2.6164 H   0  0  0  0  0  0  0  0  0  0  0  0
    5.5182    3.5359    1.6654 H   0  0  0  0  0  0  0  0  0  0  0  0
    3.9258    3.0811    2.2941 H   0  0  0  0  0  0  0  0  0  0  0  0
   -1.5946   -3.6890    1.2946 H   0  0  0  0  0  0  0  0  0  0  0  0
   -2.3876   -2.1748    0.9383 H   0  0  0  0  0  0  0  0  0  0  0  0
    3.2736    2.2831   -2.2775 H   0  0  0  0  0  0  0  0  0  0  0  0
    4.6511    1.2802   -1.8436 H   0  0  0  0  0  0  0  0  0  0  0  0
    4.6312    3.4559   -0.6587 H   0  0  0  0  0  0  0  0  0  0  0  0
    3.0634    3.0882    0.0549 H   0  0  0  0  0  0  0  0  0  0  0  0
   -3.1607   -4.1500   -0.3260 H   0  0  0  0  0  0  0  0  0  0  0  0
   -2.6859   -2.9549   -1.3030 H   0  0  0  0  0  0  0  0  0  0  0  0
    3.7196    1.7021   -1.4667 C   0  0  0  0  0  0  0  0  0  0  0  0
  2  1  2  0
  1  4  1  0
  1 25  1  0
  8  2  1  0
  2 26  1  0
  8  3  2  0
  3  9  1  0
  3 27  1  0
  9  4  2  0
  4  5  1  0
  5  6  1  0
  5  7  2  0
 13  6  1  0
  6 10  2  0
 16  7  1  0
  7 11  1  0
 23  8  1  0
  9 24  1  0
 10 12  1  0
 10 18  1  0
 11 18  2  0
 11 14  1  0
 19 12  1  0
 12 21  2  0
 13 19  1  0
 13 28  1  0
 13 29  1  0
 14 30  1  0
 14 31  1  0
 14 32  1  0
 15 22  1  0
 15 33  1  0
 15 34  1  0
 15 35  1  0
 20 16  1  0
 16 36  1  0
 16 37  1  0
 17 44  1  0
 19 44  1  0
 44 38  1  0
 44 39  1  0
 22 17  1  0
 17 40  1  0
 17 41  1  0
 20 42  1  0
 20 43  1  0
M  END
