
     RDKit          3D

 54 58  0  0  0  0  0  0  0  0999 V2000
   -1.3596   -1.4062    0.2868 C   0  0  0  0  0  0  0  0  0  0  0  0
   -2.2375   -2.3139    0.8727 C   0  0  0  0  0  0  0  0  0  0  0  0
   -0.0584   -1.9186    0.0448 C   0  0  0  0  0  0  0  0  0  0  0  0
   -0.7311   -3.9408    0.8773 C   0  0  0  0  0  0  0  0  0  0  0  0
   -3.2418   -0.0668    0.5078 C   0  0  0  0  0  0  0  0  0  0  0  0
   -1.9597   -3.5802    1.1835 N   0  0  0  0  0  0  0  0  0  0  0  0
    3.7461    1.9873    2.2979 C   0  0  0  0  0  0  0  0  0  0  0  0
    4.3063    0.7150    2.2785 C   0  0  0  0  0  0  0  0  0  0  0  0
    4.1368   -0.1035    1.1717 C   0  0  0  0  0  0  0  0  0  0  0  0
    3.4068    0.3341    0.0677 C   0  0  0  0  0  0  0  0  0  0  0  0
    3.2009   -0.5769   -1.1110 C   0  0  0  0  0  0  0  0  0  0  0  0
   -1.9552   -0.1142    0.0689 C   0  0  0  0  0  0  0  0  0  0  0  0
    0.2179   -3.1888    0.3315 N   0  0  0  0  0  0  0  0  0  0  0  0
    0.0137    3.1917   -1.9051 C   0  0  0  0  0  0  0  0  0  0  0  0
   -0.3296    2.0421   -2.5897 C   0  0  0  0  0  0  0  0  0  0  0  0
   -0.9744    0.9752   -1.9452 C   0  0  0  0  0  0  0  0  0  0  0  0
   -0.2978    3.2452   -0.5486 C   0  0  0  0  0  0  0  0  0  0  0  0
   -1.2851    1.0238   -0.5933 C   0  0  0  0  0  0  0  0  0  0  0  0
   -0.9371    2.1789    0.1248 C   0  0  0  0  0  0  0  0  0  0  0  0
    2.2189   -1.7129   -0.7797 C   0  0  2  0  0  0  0  0  0  0  0  0
   -0.5351    3.8234    1.5893 C   0  0  0  0  0  0  0  0  0  0  0  0
   -1.0763    2.5742    1.4892 C   0  0  0  0  0  0  0  0  0  0  0  0
    3.0224    2.4339    1.2019 C   0  0  0  0  0  0  0  0  0  0  0  0
    2.8573    1.6115    0.0941 C   0  0  0  0  0  0  0  0  0  0  0  0
    2.1071   -2.6607   -1.9656 C   0  0  0  0  0  0  0  0  0  0  0  0
    1.2192   -2.6340   -2.7760 O   0  0  0  0  0  0  0  0  0  0  0  0
    3.1379   -3.4917   -2.0133 O   0  0  0  0  0  0  0  0  0  0  0  0
    0.9391   -1.1616   -0.4416 N   0  0  0  0  0  0  0  0  0  0  0  0
   -3.7726   -1.5838    1.1772 S   0  0  0  0  0  0  0  0  0  0  0  0
   -4.2238    1.0520    0.3825 C   0  0  0  0  0  0  0  0  0  0  0  0
   -5.1317    0.8924   -0.8364 C   0  0  0  0  0  0  0  0  0  0  0  0
   -0.0704    4.2259    0.3706 N   0  0  0  0  0  0  0  0  0  0  0  0
   -0.4570   -4.9673    1.0945 H   0  0  0  0  0  0  0  0  0  0  0  0
    4.8783    0.3609    3.1266 H   0  0  0  0  0  0  0  0  0  0  0  0
    4.5811   -1.0926    1.1652 H   0  0  0  0  0  0  0  0  0  0  0  0
    2.8279   -0.0143   -1.9713 H   0  0  0  0  0  0  0  0  0  0  0  0
    4.1519   -1.0183   -1.4139 H   0  0  0  0  0  0  0  0  0  0  0  0
    0.5124    4.0140   -2.4018 H   0  0  0  0  0  0  0  0  0  0  0  0
   -0.1035    1.9605   -3.6446 H   0  0  0  0  0  0  0  0  0  0  0  0
   -1.2397    0.0950   -2.5185 H   0  0  0  0  0  0  0  0  0  0  0  0
    2.6114   -2.2760    0.0701 H   0  0  0  0  0  0  0  0  0  0  0  0
   -0.4433    4.4678    2.4485 H   0  0  0  0  0  0  0  0  0  0  0  0
   -1.5191    2.0066    2.2916 H   0  0  0  0  0  0  0  0  0  0  0  0
    2.5842    3.4229    1.2056 H   0  0  0  0  0  0  0  0  0  0  0  0
    2.2994    1.9760   -0.7606 H   0  0  0  0  0  0  0  0  0  0  0  0
    3.0848   -4.0508   -2.8034 H   0  0  0  0  0  0  0  0  0  0  0  0
    0.7082   -0.2446   -0.7916 H   0  0  0  0  0  0  0  0  0  0  0  0
   -4.8301    1.1176    1.2888 H   0  0  0  0  0  0  0  0  0  0  0  0
   -3.6774    1.9927    0.3118 H   0  0  0  0  0  0  0  0  0  0  0  0
   -5.8287    1.7277   -0.9040 H   0  0  0  0  0  0  0  0  0  0  0  0
   -4.5459    0.8651   -1.7552 H   0  0  0  0  0  0  0  0  0  0  0  0
   -5.7156   -0.0268   -0.7826 H   0  0  0  0  0  0  0  0  0  0  0  0
    0.3745    5.1094    0.1853 H   0  0  0  0  0  0  0  0  0  0  0  0
    3.8768    2.6274    3.1609 H   0  0  0  0  0  0  0  0  0  0  0  0
 11 10  1  0
 11 20  1  0
 10  9  2  0
 10 24  1  0
  9  8  1  0
 15 14  2  0
 15 16  1  0
 24 23  2  0
 26 25  2  0
 14 17  1  0
  8  7  2  0
 23  7  1  0
 25 27  1  0
 25 20  1  0
 20 28  1  0
 16 18  2  0
 17 32  1  0
 17 19  2  0
 28  3  1  0
 32 21  1  0
 18 19  1  0
 18 12  1  0
 19 22  1  0
  3 13  1  0
  3  1  2  0
 21 22  2  0
 13  4  2  0
 12  1  1  0
 12  5  2  0
  1  2  1  0
  4  6  1  0
  5 30  1  0
  5 29  1  0
 30 31  1  0
  2  6  2  0
  2 29  1  0
  4 33  1  0
  7 54  1  0
  8 34  1  0
  9 35  1  0
 11 36  1  0
 11 37  1  0
 14 38  1  0
 15 39  1  0
 16 40  1  0
 20 41  1  1
 21 42  1  0
 22 43  1  0
 23 44  1  0
 24 45  1  0
 27 46  1  0
 28 47  1  0
 30 48  1  0
 30 49  1  0
 31 50  1  0
 31 51  1  0
 31 52  1  0
 32 53  1  0
M  END
