
     RDKit          3D

 97 99  0  0  0  0  0  0  0  0999 V2000
    3.8314   -0.6143    2.0358 O   0  0  0  0  0  0  0  0  0  0  0  0
    4.1262   -0.3062    0.9014 C   0  0  0  0  0  0  0  0  0  0  0  0
    5.1849   -0.7886    0.2427 O   0  0  0  0  0  0  0  0  0  0  0  0
    5.9919   -1.7629    0.9051 C   0  0  0  0  0  0  0  0  0  0  0  0
    6.8392   -2.4288   -0.1373 C   0  0  0  0  0  0  0  0  0  0  0  0
    8.2246   -2.4233   -0.0347 C   0  0  0  0  0  0  0  0  0  0  0  0
    9.0073   -3.0625   -0.9895 C   0  0  0  0  0  0  0  0  0  0  0  0
    8.4066   -3.7058   -2.0613 C   0  0  0  0  0  0  0  0  0  0  0  0
    7.0203   -3.7113   -2.1733 C   0  0  0  0  0  0  0  0  0  0  0  0
    6.2422   -3.0791   -1.2164 C   0  0  0  0  0  0  0  0  0  0  0  0
    3.4620    0.5805    0.1295 N   0  0  0  0  0  0  0  0  0  0  0  0
    2.1655    1.0893    0.4905 C   0  0  1  0  0  0  0  0  0  0  0  0
    2.0546    2.5660    0.1299 C   0  0  0  0  0  0  0  0  0  0  0  0
    2.9854    3.4198    0.9612 C   0  0  0  0  0  0  0  0  0  0  0  0
    3.3827    3.1019    2.0537 O   0  0  0  0  0  0  0  0  0  0  0  0
    3.2574    4.5531    0.3418 O   0  0  0  0  0  0  0  0  0  0  0  0
    4.0564    5.6213    0.9353 C   0  0  1  0  0  0  0  0  0  0  0  0
    5.4843    5.1534    1.1858 C   0  0  0  0  0  0  0  0  0  0  0  0
    4.0447    6.6989   -0.1409 C   0  0  0  0  0  0  0  0  0  0  0  0
    3.4014    6.1500    2.2052 C   0  0  0  0  0  0  0  0  0  0  0  0
    1.0771    0.3117   -0.2515 C   0  0  0  0  0  0  0  0  0  0  0  0
    1.2089    0.0183   -1.4274 O   0  0  0  0  0  0  0  0  0  0  0  0
   -0.0084    0.0329    0.4850 N   0  0  0  0  0  0  0  0  0  0  0  0
   -1.1342   -0.7222    0.0022 C   0  0  1  0  0  0  0  0  0  0  0  0
   -1.1663   -2.1301    0.6282 C   0  0  0  0  0  0  0  0  0  0  0  0
    0.0748   -2.9059    0.2946 C   0  0  0  0  0  0  0  0  0  0  0  0
    1.1917   -2.8615    1.1240 C   0  0  0  0  0  0  0  0  0  0  0  0
    2.3523   -3.5458    0.7874 C   0  0  0  0  0  0  0  0  0  0  0  0
    2.4129   -4.2837   -0.3861 C   0  0  0  0  0  0  0  0  0  0  0  0
    1.3050   -4.3307   -1.2239 C   0  0  0  0  0  0  0  0  0  0  0  0
    0.1475   -3.6456   -0.8839 C   0  0  0  0  0  0  0  0  0  0  0  0
   -2.4221    0.0172    0.3535 C   0  0  0  0  0  0  0  0  0  0  0  0
   -2.5553    0.5491    1.4457 O   0  0  0  0  0  0  0  0  0  0  0  0
   -3.3631   -0.0217   -0.5973 N   0  0  0  0  0  0  0  0  0  0  0  0
   -4.6873    0.5683   -0.4889 C   0  0  1  0  0  0  0  0  0  0  0  0
   -4.8066    1.6695   -1.5475 C   0  0  0  0  0  0  0  0  0  0  0  0
   -6.1524    2.3736   -1.6639 C   0  0  2  0  0  0  0  0  0  0  0  0
   -6.1987    3.4057   -2.7929 C   0  0  0  0  0  0  0  0  0  0  0  0
   -7.2463    4.4160   -2.3256 C   0  0  0  0  0  0  0  0  0  0  0  0
   -7.1432    4.3131   -0.8854 N   0  0  0  0  0  0  0  0  0  0  0  0
   -6.5728    3.1804   -0.4439 C   0  0  0  0  0  0  0  0  0  0  0  0
   -6.4400    2.8570    0.7267 O   0  0  0  0  0  0  0  0  0  0  0  0
   -5.7626   -0.5085   -0.6139 C   0  0  0  0  0  0  0  0  0  0  0  0
   -5.6246   -1.5860    0.4484 C   0  0  0  0  0  0  0  0  0  0  0  0
   -6.7203   -2.6166    0.3914 C   0  0  0  0  0  0  0  0  0  0  0  0
   -7.5854   -2.6625   -0.4481 O   0  0  0  0  0  0  0  0  0  0  0  0
   -6.6190   -3.4886    1.3856 O   0  0  0  0  0  0  0  0  0  0  0  0
   -7.5924   -4.5419    1.4646 C   0  0  0  0  0  0  0  0  0  0  0  0
   -7.2729   -5.3748    2.6821 C   0  0  0  0  0  0  0  0  0  0  0  0
    3.7275    0.6503   -0.8420 H   0  0  0  0  0  0  0  0  0  0  0  0
    6.6139   -1.2849    1.6657 H   0  0  0  0  0  0  0  0  0  0  0  0
    5.3607   -2.4981    1.4093 H   0  0  0  0  0  0  0  0  0  0  0  0
    8.6995   -1.9162    0.7968 H   0  0  0  0  0  0  0  0  0  0  0  0
    5.1625   -3.0905   -1.3121 H   0  0  0  0  0  0  0  0  0  0  0  0
   10.0855   -3.0511   -0.8961 H   0  0  0  0  0  0  0  0  0  0  0  0
    9.0130   -4.2008   -2.8086 H   0  0  0  0  0  0  0  0  0  0  0  0
    6.5457   -4.2107   -3.0079 H   0  0  0  0  0  0  0  0  0  0  0  0
    2.0440    0.9738    1.5668 H   0  0  0  0  0  0  0  0  0  0  0  0
    2.2388    2.7209   -0.9347 H   0  0  0  0  0  0  0  0  0  0  0  0
    1.0343    2.9164    0.3192 H   0  0  0  0  0  0  0  0  0  0  0  0
    5.9255    4.7343    0.2803 H   0  0  0  0  0  0  0  0  0  0  0  0
    6.0900    6.0115    1.4808 H   0  0  0  0  0  0  0  0  0  0  0  0
    5.5515    4.4143    1.9811 H   0  0  0  0  0  0  0  0  0  0  0  0
    3.0291    7.0271   -0.3659 H   0  0  0  0  0  0  0  0  0  0  0  0
    4.6074    7.5669    0.2024 H   0  0  0  0  0  0  0  0  0  0  0  0
    4.5061    6.3460   -1.0642 H   0  0  0  0  0  0  0  0  0  0  0  0
    3.4321    5.4346    3.0239 H   0  0  0  0  0  0  0  0  0  0  0  0
    3.9341    7.0460    2.5256 H   0  0  0  0  0  0  0  0  0  0  0  0
    2.3627    6.4313    2.0250 H   0  0  0  0  0  0  0  0  0  0  0  0
   -0.0161    0.2925    1.4597 H   0  0  0  0  0  0  0  0  0  0  0  0
   -1.0279   -0.8188   -1.0790 H   0  0  0  0  0  0  0  0  0  0  0  0
   -1.2813   -2.0337    1.7105 H   0  0  0  0  0  0  0  0  0  0  0  0
   -2.0515   -2.6542    0.2589 H   0  0  0  0  0  0  0  0  0  0  0  0
    1.1594   -2.2899    2.0436 H   0  0  0  0  0  0  0  0  0  0  0  0
   -0.7133   -3.6856   -1.5419 H   0  0  0  0  0  0  0  0  0  0  0  0
    3.2049   -3.5082    1.4525 H   0  0  0  0  0  0  0  0  0  0  0  0
    3.3141   -4.8258   -0.6449 H   0  0  0  0  0  0  0  0  0  0  0  0
    1.3411   -4.9058   -2.1404 H   0  0  0  0  0  0  0  0  0  0  0  0
   -3.1210   -0.4436   -1.4816 H   0  0  0  0  0  0  0  0  0  0  0  0
   -4.7520    1.0136    0.5024 H   0  0  0  0  0  0  0  0  0  0  0  0
   -4.0288    2.4152   -1.3585 H   0  0  0  0  0  0  0  0  0  0  0  0
   -4.5788    1.2349   -2.5270 H   0  0  0  0  0  0  0  0  0  0  0  0
   -6.7404   -0.0342   -0.5162 H   0  0  0  0  0  0  0  0  0  0  0  0
   -5.7307   -0.9507   -1.6144 H   0  0  0  0  0  0  0  0  0  0  0  0
   -6.9465    1.6348   -1.8279 H   0  0  0  0  0  0  0  0  0  0  0  0
   -5.2266    3.8970   -2.8818 H   0  0  0  0  0  0  0  0  0  0  0  0
   -6.4433    2.9696   -3.7596 H   0  0  0  0  0  0  0  0  0  0  0  0
   -7.0345    5.4298   -2.6635 H   0  0  0  0  0  0  0  0  0  0  0  0
   -8.2491    4.1470   -2.6703 H   0  0  0  0  0  0  0  0  0  0  0  0
   -7.6071    4.9543   -0.2604 H   0  0  0  0  0  0  0  0  0  0  0  0
   -4.6693   -2.1119    0.3558 H   0  0  0  0  0  0  0  0  0  0  0  0
   -5.6181   -1.1408    1.4482 H   0  0  0  0  0  0  0  0  0  0  0  0
   -8.5937   -4.1127    1.5384 H   0  0  0  0  0  0  0  0  0  0  0  0
   -7.5538   -5.1483    0.5574 H   0  0  0  0  0  0  0  0  0  0  0  0
   -8.0047   -6.1775    2.7681 H   0  0  0  0  0  0  0  0  0  0  0  0
   -6.2852   -5.8304    2.6104 H   0  0  0  0  0  0  0  0  0  0  0  0
   -7.3174   -4.7837    3.5969 H   0  0  0  0  0  0  0  0  0  0  0  0
  1  2  2  0
  2  3  1  0
  2 11  1  0
  3  4  1  0
  4  5  1  0
  5  6  2  0
  5 10  1  0
  6  7  1  0
  7  8  2  0
  8  9  1  0
  9 10  2  0
 11 12  1  0
 12 13  1  0
 12 21  1  0
 13 14  1  0
 14 15  2  0
 14 16  1  0
 17 16  1  6
 17 18  1  0
 17 19  1  0
 17 20  1  0
 21 22  2  0
 21 23  1  0
 23 24  1  0
 24 25  1  0
 24 32  1  0
 25 26  1  0
 26 27  2  0
 26 31  1  0
 27 28  1  0
 28 29  2  0
 29 30  1  0
 30 31  2  0
 32 33  2  0
 32 34  1  0
 34 35  1  0
 35 36  1  0
 35 43  1  0
 36 37  1  0
 37 38  1  0
 37 41  1  0
 38 39  1  0
 39 40  1  0
 40 41  1  0
 41 42  2  0
 43 44  1  0
 44 45  1  0
 45 46  2  0
 45 47  1  0
 47 48  1  0
 48 49  1  0
 11 50  1  0
  4 51  1  0
  4 52  1  0
  6 53  1  0
 10 54  1  0
  7 55  1  0
  8 56  1  0
  9 57  1  0
 12 58  1  1
 13 59  1  0
 13 60  1  0
 18 61  1  0
 18 62  1  0
 18 63  1  0
 19 64  1  0
 19 65  1  0
 19 66  1  0
 20 67  1  0
 20 68  1  0
 20 69  1  0
 23 70  1  0
 24 71  1  6
 25 72  1  0
 25 73  1  0
 27 74  1  0
 31 75  1  0
 28 76  1  0
 29 77  1  0
 30 78  1  0
 34 79  1  0
 35 80  1  1
 36 81  1  0
 36 82  1  0
 43 83  1  0
 43 84  1  0
 37 85  1  6
 38 86  1  0
 38 87  1  0
 39 88  1  0
 39 89  1  0
 40 90  1  0
 44 91  1  0
 44 92  1  0
 48 93  1  0
 48 94  1  0
 49 95  1  0
 49 96  1  0
 49 97  1  0
M  END
