
     RDKit          3D

 26 26  0  0  0  0  0  0  0  0999 V2000
    3.0611    1.2611    0.7973 N   0  0  0  0  0  0  0  0  0  0  0  0
    1.0986   -1.4078    0.3282 C   0  0  0  0  0  0  0  0  0  0  0  0
    1.0281    0.1171    0.1734 C   0  0  2  0  0  0  0  0  0  0  0  0
   -0.0065    0.4879   -0.8927 C   0  0  0  0  0  0  0  0  0  0  0  0
    2.3920    0.6647   -0.1985 C   0  0  0  0  0  0  0  0  0  0  0  0
   -1.2963   -0.0830   -0.5548 N   0  0  0  0  0  0  0  0  0  0  0  0
   -3.5911    0.0203    0.2925 C   0  0  0  0  0  0  0  0  0  0  0  0
   -2.2287    1.9275   -0.1290 O   0  0  0  0  0  0  0  0  0  0  0  0
   -2.3156    0.7051   -0.1427 C   0  0  0  0  0  0  0  0  0  0  0  0
   -1.2792   -1.5328   -0.4668 C   0  0  0  0  0  0  0  0  0  0  0  0
   -0.2855   -1.9879    0.5943 C   0  0  0  0  0  0  0  0  0  0  0  0
    2.8474    0.5438   -1.3286 O   0  0  0  0  0  0  0  0  0  0  0  0
    2.6704    1.3534    1.7186 H   0  0  0  0  0  0  0  0  0  0  0  0
    3.9901    1.6215    0.6486 H   0  0  0  0  0  0  0  0  0  0  0  0
    1.5058   -1.8441   -0.5895 H   0  0  0  0  0  0  0  0  0  0  0  0
    1.7823   -1.6733    1.1373 H   0  0  0  0  0  0  0  0  0  0  0  0
    0.7054    0.5513    1.1263 H   0  0  0  0  0  0  0  0  0  0  0  0
   -0.1032    1.5664   -0.9858 H   0  0  0  0  0  0  0  0  0  0  0  0
    0.3075    0.0970   -1.8642 H   0  0  0  0  0  0  0  0  0  0  0  0
   -4.3218    0.7779    0.5636 H   0  0  0  0  0  0  0  0  0  0  0  0
   -4.0134   -0.5972   -0.5009 H   0  0  0  0  0  0  0  0  0  0  0  0
   -3.4288   -0.6242    1.1574 H   0  0  0  0  0  0  0  0  0  0  0  0
   -2.2721   -1.9172   -0.2518 H   0  0  0  0  0  0  0  0  0  0  0  0
   -0.9898   -1.9362   -1.4428 H   0  0  0  0  0  0  0  0  0  0  0  0
   -0.2416   -3.0786    0.6035 H   0  0  0  0  0  0  0  0  0  0  0  0
   -0.6421   -1.6710    1.5792 H   0  0  0  0  0  0  0  0  0  0  0  0
  7  9  1  0
  8  9  2  0
  9  6  1  0
  6 10  1  0
  6  4  1  0
 10 11  1  0
 11  2  1  0
  4  3  1  0
  3  2  1  0
  3  5  1  0
 12  5  2  0
  5  1  1  0
  1 13  1  0
  1 14  1  0
  2 15  1  0
  2 16  1  0
  3 17  1  1
  4 18  1  0
  4 19  1  0
  7 20  1  0
  7 21  1  0
  7 22  1  0
 10 23  1  0
 10 24  1  0
 11 25  1  0
 11 26  1  0
M  END
