
     RDKit          3D

 35 36  0  0  0  0  0  0  0  0999 V2000
    5.1770    0.5334    0.0029 N   0  0  0  0  0  0  0  0  0  0  0  0
    4.3086   -0.4867   -0.0608 C   0  0  0  0  0  0  0  0  0  0  0  0
    4.6637   -1.6544   -0.1245 O   0  0  0  0  0  0  0  0  0  0  0  0
    2.8566   -0.1400   -0.0382 C   0  0  0  0  0  0  0  0  0  0  0  0
    1.9529   -1.1586   -0.0945 C   0  0  0  0  0  0  0  0  0  0  0  0
    2.3726    1.2235    0.0432 C   0  0  0  0  0  0  0  0  0  0  0  0
    3.0370    2.2324    0.0955 O   0  0  0  0  0  0  0  0  0  0  0  0
    1.0242    1.4010    0.0667 O   0  0  0  0  0  0  0  0  0  0  0  0
    0.1226    0.3986    0.0139 C   0  0  0  0  0  0  0  0  0  0  0  0
   -1.2097    0.7428    0.0388 C   0  0  0  0  0  0  0  0  0  0  0  0
    0.5633   -0.9261   -0.0723 C   0  0  0  0  0  0  0  0  0  0  0  0
   -0.4235   -1.9240   -0.1296 C   0  0  0  0  0  0  0  0  0  0  0  0
   -1.7547   -1.6152   -0.1020 C   0  0  0  0  0  0  0  0  0  0  0  0
   -2.1960   -0.2627   -0.0183 C   0  0  0  0  0  0  0  0  0  0  0  0
   -3.5125    0.0455    0.0040 N   0  0  0  0  0  0  0  0  0  0  0  0
   -4.5496   -0.9603   -0.1483 C   0  0  0  0  0  0  0  0  0  0  0  0
   -4.9627   -1.5961    1.1711 C   0  0  0  0  0  0  0  0  0  0  0  0
   -3.9771    1.4056    0.2154 C   0  0  0  0  0  0  0  0  0  0  0  0
   -4.0756    2.2154   -1.0697 C   0  0  0  0  0  0  0  0  0  0  0  0
    6.1641    0.3412    0.0059 H   0  0  0  0  0  0  0  0  0  0  0  0
    4.8625    1.4891    0.0641 H   0  0  0  0  0  0  0  0  0  0  0  0
    2.3166   -2.1775   -0.1593 H   0  0  0  0  0  0  0  0  0  0  0  0
   -1.4649    1.7910    0.0871 H   0  0  0  0  0  0  0  0  0  0  0  0
   -0.1194   -2.9616   -0.1884 H   0  0  0  0  0  0  0  0  0  0  0  0
   -2.4664   -2.4256   -0.1274 H   0  0  0  0  0  0  0  0  0  0  0  0
   -5.4098   -0.4728   -0.6102 H   0  0  0  0  0  0  0  0  0  0  0  0
   -4.2331   -1.7209   -0.8622 H   0  0  0  0  0  0  0  0  0  0  0  0
   -4.9598    1.3446    0.6863 H   0  0  0  0  0  0  0  0  0  0  0  0
   -3.3377    1.9064    0.9431 H   0  0  0  0  0  0  0  0  0  0  0  0
   -4.1216   -2.0880    1.6590 H   0  0  0  0  0  0  0  0  0  0  0  0
   -5.3594   -0.8496    1.8598 H   0  0  0  0  0  0  0  0  0  0  0  0
   -5.7400   -2.3421    1.0054 H   0  0  0  0  0  0  0  0  0  0  0  0
   -4.4435    3.2189   -0.8550 H   0  0  0  0  0  0  0  0  0  0  0  0
   -3.1079    2.3111   -1.5622 H   0  0  0  0  0  0  0  0  0  0  0  0
   -4.7660    1.7500   -1.7740 H   0  0  0  0  0  0  0  0  0  0  0  0
  1  2  1  0
  2  3  2  0
  2  4  1  0
  4  5  2  0
  4  6  1  0
  5 11  1  0
  6  7  2  0
  6  8  1  0
  8  9  1  0
  9 10  2  0
  9 11  1  0
 10 14  1  0
 11 12  2  0
 12 13  1  0
 13 14  2  0
 14 15  1  0
 15 16  1  0
 15 18  1  0
 16 17  1  0
 18 19  1  0
  1 20  1  0
  1 21  1  0
  5 22  1  0
 10 23  1  0
 12 24  1  0
 13 25  1  0
 16 26  1  0
 16 27  1  0
 18 28  1  0
 18 29  1  0
 17 30  1  0
 17 31  1  0
 17 32  1  0
 19 33  1  0
 19 34  1  0
 19 35  1  0
M  END
