
     RDKit          3D

 28 27  0  0  0  0  0  0  0  0999 V2000
    0.3958   -0.6573    0.1746 C   0  0  0  0  0  0  0  0  0  0  0  0
   -0.8509    0.2010   -0.0366 C   0  0  0  0  0  0  0  0  0  0  0  0
   -2.1312   -0.6010    0.1587 C   0  0  0  0  0  0  0  0  0  0  0  0
    4.4139   -0.5581   -0.0012 C   0  0  0  0  0  0  0  0  0  0  0  0
    1.9137    0.2505   -0.1519 P   0  0  2  0  0  0  0  0  0  0  0  0
    3.0326   -0.8330    0.2451 O   0  0  0  0  0  0  0  0  0  0  0  0
    2.0202    1.4329    0.9390 O   0  0  0  0  0  0  0  0  0  0  0  0
   -3.3884    0.2336   -0.0466 C   0  0  0  0  0  0  0  0  0  0  0  0
   -4.6741   -0.5654    0.1264 C   0  0  0  0  0  0  0  0  0  0  0  0
   -5.9244    0.2768   -0.0853 C   0  0  0  0  0  0  0  0  0  0  0  0
    2.0510    0.8390   -1.5070 O   0  0  0  0  0  0  0  0  0  0  0  0
    0.4231   -1.0579    1.1914 H   0  0  0  0  0  0  0  0  0  0  0  0
    0.3842   -1.5153   -0.5030 H   0  0  0  0  0  0  0  0  0  0  0  0
   -0.8424    1.0462    0.6570 H   0  0  0  0  0  0  0  0  0  0  0  0
   -0.8386    0.6258   -1.0441 H   0  0  0  0  0  0  0  0  0  0  0  0
   -2.1367   -1.4467   -0.5377 H   0  0  0  0  0  0  0  0  0  0  0  0
   -2.1388   -1.0336    1.1647 H   0  0  0  0  0  0  0  0  0  0  0  0
    4.7354    0.3607    0.4913 H   0  0  0  0  0  0  0  0  0  0  0  0
    4.9813   -1.3899    0.4082 H   0  0  0  0  0  0  0  0  0  0  0  0
    4.6163   -0.4809   -1.0693 H   0  0  0  0  0  0  0  0  0  0  0  0
    1.9405    1.1547    1.8606 H   0  0  0  0  0  0  0  0  0  0  0  0
   -3.3870    1.0738    0.6566 H   0  0  0  0  0  0  0  0  0  0  0  0
   -3.3706    0.6775   -1.0481 H   0  0  0  0  0  0  0  0  0  0  0  0
   -4.6756   -1.4047   -0.5760 H   0  0  0  0  0  0  0  0  0  0  0  0
   -4.6933   -1.0088    1.1268 H   0  0  0  0  0  0  0  0  0  0  0  0
   -5.9737    1.0993    0.6310 H   0  0  0  0  0  0  0  0  0  0  0  0
   -5.9405    0.7123   -1.0862 H   0  0  0  0  0  0  0  0  0  0  0  0
   -6.8326   -0.3162    0.0295 H   0  0  0  0  0  0  0  0  0  0  0  0
  1  2  1  0
  5  1  1  0
  1 12  1  0
  1 13  1  0
  2  3  1  0
  2 14  1  0
  2 15  1  0
  3  8  1  0
  3 16  1  0
  3 17  1  0
  4  6  1  0
  4 18  1  0
  4 19  1  0
  4 20  1  0
 11  5  2  0
  5  7  1  1
  5  6  1  0
  7 21  1  0
  8  9  1  0
  8 22  1  0
  8 23  1  0
  9 10  1  0
  9 24  1  0
  9 25  1  0
 10 26  1  0
 10 27  1  0
 10 28  1  0
M  END
