
     RDKit          3D

 14 13  0  0  0  0  0  0  0  0999 V2000
   -2.2716   -0.2599   -1.1337 O   0  0  0  0  0  0  0  0  0  0  0  0
   -1.5472   -0.3685   -0.1796 C   0  0  0  0  0  0  0  0  0  0  0  0
   -1.5845   -1.3832    0.6659 O   0  0  0  0  0  0  0  0  0  0  0  0
   -0.4888    0.6635    0.1947 C   0  0  1  0  0  0  0  0  0  0  0  0
    1.2382   -0.2416   -0.2288 Br  0  0  0  0  0  0  0  0  0  0  0  0
   -0.5982    1.9031   -0.6679 C   0  0  0  0  0  0  0  0  0  0  0  0
   -0.5045    1.0045    1.6749 C   0  0  0  0  0  0  0  0  0  0  0  0
   -2.2555   -2.0255    0.3886 H   0  0  0  0  0  0  0  0  0  0  0  0
   -1.5480    2.3991   -0.4598 H   0  0  0  0  0  0  0  0  0  0  0  0
    0.1998    2.6037   -0.4273 H   0  0  0  0  0  0  0  0  0  0  0  0
   -0.5581    1.6817   -1.7321 H   0  0  0  0  0  0  0  0  0  0  0  0
   -0.3372    0.1424    2.3156 H   0  0  0  0  0  0  0  0  0  0  0  0
    0.2548    1.7537    1.8943 H   0  0  0  0  0  0  0  0  0  0  0  0
   -1.4768    1.4338    1.9268 H   0  0  0  0  0  0  0  0  0  0  0  0
  1  2  2  0
  3  2  1  0
  4  2  1  1
  6  4  1  0
  4  7  1  0
  4  5  1  0
  3  8  1  0
  6  9  1  0
  6 10  1  0
  6 11  1  0
  7 12  1  0
  7 13  1  0
  7 14  1  0
M  END
