
     RDKit          3D

 18 17  0  0  0  0  0  0  0  0999 V2000
    0.1480    1.7803    0.2266 C   0  0  0  0  0  0  0  0  0  0  0  0
    0.0308    0.4093   -0.3670 C   0  0  0  0  0  0  0  0  0  0  0  0
   -1.3195    0.0408   -0.9052 C   0  0  0  0  0  0  0  0  0  0  0  0
   -2.3368   -0.1213    0.1973 C   0  0  0  0  0  0  0  0  0  0  0  0
   -2.0728   -0.1564    1.3719 O   0  0  0  0  0  0  0  0  0  0  0  0
   -3.5651   -0.2463   -0.2864 O   0  0  0  0  0  0  0  0  0  0  0  0
    1.0249   -0.4829   -0.4719 C   0  0  0  0  0  0  0  0  0  0  0  0
    2.4027   -0.2611   -0.0186 C   0  0  0  0  0  0  0  0  0  0  0  0
    2.8420    0.7482    0.4842 O   0  0  0  0  0  0  0  0  0  0  0  0
    3.1551   -1.3410   -0.2335 O   0  0  0  0  0  0  0  0  0  0  0  0
    0.8517    2.3908   -0.3397 H   0  0  0  0  0  0  0  0  0  0  0  0
   -0.8123    2.2933    0.2227 H   0  0  0  0  0  0  0  0  0  0  0  0
    0.5098    1.7467    1.2526 H   0  0  0  0  0  0  0  0  0  0  0  0
   -1.6692    0.8076   -1.6034 H   0  0  0  0  0  0  0  0  0  0  0  0
   -1.2855   -0.8956   -1.4691 H   0  0  0  0  0  0  0  0  0  0  0  0
   -4.1958   -0.3844    0.4365 H   0  0  0  0  0  0  0  0  0  0  0  0
    0.8197   -1.4460   -0.9241 H   0  0  0  0  0  0  0  0  0  0  0  0
    4.0608   -1.1717    0.0645 H   0  0  0  0  0  0  0  0  0  0  0  0
  1  2  1  0
  9  8  2  0
  2  7  2  0
  2  3  1  0
  5  4  2  0
  7  8  1  0
  3  4  1  0
  8 10  1  0
  4  6  1  0
  1 11  1  0
  1 12  1  0
  1 13  1  0
  3 14  1  0
  3 15  1  0
  6 16  1  0
  7 17  1  0
 10 18  1  0
M  END
