
     RDKit          3D

 59 61  0  0  0  0  0  0  0  0999 V2000
    1.6079   -1.4498  -12.8952 C   0  0  0  0  0  0  0  0  0  0  0  0
    1.6490   -0.2964  -12.2389 C   0  0  0  0  0  0  0  0  0  0  0  0
    0.6762    0.0858  -11.1632 C   0  0  0  0  0  0  0  0  0  0  0  0
    1.2904    0.2206   -9.8473 N   0  0  0  0  0  0  0  0  0  0  0  0
    0.2650    0.3104   -8.8206 C   0  0  0  0  0  0  0  0  0  0  0  0
    0.7967    0.1905   -7.3988 C   0  0  0  0  0  0  0  0  0  0  0  0
   -0.3358    0.1540   -6.3813 C   0  0  0  0  0  0  0  0  0  0  0  0
    0.1484    0.0796   -4.9384 C   0  0  0  0  0  0  0  0  0  0  0  0
   -1.0095    0.0171   -3.9511 C   0  0  0  0  0  0  0  0  0  0  0  0
   -0.5413   -0.0228   -2.5118 C   0  0  0  0  0  0  0  0  0  0  0  0
   -1.6965   -0.1137   -1.6891 O   0  0  0  0  0  0  0  0  0  0  0  0
   -1.5777   -0.1114   -0.3497 C   0  0  0  0  0  0  0  0  0  0  0  0
   -2.7652   -0.1225    0.3613 C   0  0  0  0  0  0  0  0  0  0  0  0
   -2.6725   -0.1187    1.7523 C   0  0  0  0  0  0  0  0  0  0  0  0
   -3.6384   -0.0872    2.7018 N   0  0  0  0  0  0  0  0  0  0  0  0
   -3.1200   -0.0908    3.9320 N   0  0  0  0  0  0  0  0  0  0  0  0
   -1.8121   -0.1086    3.8169 C   0  0  0  0  0  0  0  0  0  0  0  0
   -1.4439   -0.1239    2.4366 C   0  0  0  0  0  0  0  0  0  0  0  0
   -0.2603   -0.0993    1.6917 C   0  0  0  0  0  0  0  0  0  0  0  0
   -0.3289   -0.0951    0.3165 C   0  0  0  0  0  0  0  0  0  0  0  0
   -0.9618   -0.0838    5.0063 C   0  0  0  0  0  0  0  0  0  0  0  0
   -1.4115    0.5192    6.1827 C   0  0  0  0  0  0  0  0  0  0  0  0
   -0.6235    0.5450    7.3209 C   0  0  0  0  0  0  0  0  0  0  0  0
    0.6357   -0.0384    7.2871 C   0  0  0  0  0  0  0  0  0  0  0  0
    1.1064   -0.6483    6.1348 C   0  0  0  0  0  0  0  0  0  0  0  0
    0.3042   -0.6689    5.0038 C   0  0  0  0  0  0  0  0  0  0  0  0
    1.7210   -0.0006    8.8312 Br  0  0  0  0  0  0  0  0  0  0  0  0
   -5.0630   -0.1699    2.5099 C   0  0  0  0  0  0  0  0  0  0  0  0
    2.2025    1.3451   -9.7960 C   0  0  0  0  0  0  0  0  0  0  0  0
    2.3169   -1.6821  -13.6795 H   0  0  0  0  0  0  0  0  0  0  0  0
    0.8614   -2.2044  -12.6749 H   0  0  0  0  0  0  0  0  0  0  0  0
    2.4121    0.4289  -12.5046 H   0  0  0  0  0  0  0  0  0  0  0  0
   -0.0933   -0.6873  -11.0988 H   0  0  0  0  0  0  0  0  0  0  0  0
    0.1621    1.0170  -11.4618 H   0  0  0  0  0  0  0  0  0  0  0  0
   -0.3185    1.2453   -8.9100 H   0  0  0  0  0  0  0  0  0  0  0  0
   -0.4439   -0.5065   -8.9860 H   0  0  0  0  0  0  0  0  0  0  0  0
    1.4012   -0.7183   -7.3189 H   0  0  0  0  0  0  0  0  0  0  0  0
    1.4607    1.0267   -7.1628 H   0  0  0  0  0  0  0  0  0  0  0  0
   -0.9642    1.0433   -6.5017 H   0  0  0  0  0  0  0  0  0  0  0  0
   -0.9853   -0.7036   -6.5867 H   0  0  0  0  0  0  0  0  0  0  0  0
    0.7904   -0.7985   -4.8133 H   0  0  0  0  0  0  0  0  0  0  0  0
    0.7765    0.9502   -4.7227 H   0  0  0  0  0  0  0  0  0  0  0  0
   -1.6602    0.8851   -4.0931 H   0  0  0  0  0  0  0  0  0  0  0  0
   -1.6161   -0.8700   -4.1557 H   0  0  0  0  0  0  0  0  0  0  0  0
    0.1171   -0.8837   -2.3468 H   0  0  0  0  0  0  0  0  0  0  0  0
    0.0291    0.8812   -2.2700 H   0  0  0  0  0  0  0  0  0  0  0  0
   -3.7161   -0.1260   -0.1562 H   0  0  0  0  0  0  0  0  0  0  0  0
    0.7087   -0.0763    2.1721 H   0  0  0  0  0  0  0  0  0  0  0  0
    0.5918   -0.0788   -0.2498 H   0  0  0  0  0  0  0  0  0  0  0  0
   -2.3868    0.9872    6.2084 H   0  0  0  0  0  0  0  0  0  0  0  0
   -0.9930    1.0246    8.2172 H   0  0  0  0  0  0  0  0  0  0  0  0
    2.0816   -1.1155    6.1071 H   0  0  0  0  0  0  0  0  0  0  0  0
    0.6736   -1.1745    4.1216 H   0  0  0  0  0  0  0  0  0  0  0  0
   -5.4059   -1.2051    2.5019 H   0  0  0  0  0  0  0  0  0  0  0  0
   -5.5631    0.3650    3.3127 H   0  0  0  0  0  0  0  0  0  0  0  0
   -5.3311    0.2957    1.5645 H   0  0  0  0  0  0  0  0  0  0  0  0
    2.9661    1.2578  -10.5675 H   0  0  0  0  0  0  0  0  0  0  0  0
    1.6960    2.3146   -9.9307 H   0  0  0  0  0  0  0  0  0  0  0  0
    2.7250    1.3740   -8.8405 H   0  0  0  0  0  0  0  0  0  0  0  0
  1  2  2  0
  1 30  1  0
  1 31  1  0
  2  3  1  0
  2 32  1  0
  3  4  1  0
  3 33  1  0
  3 34  1  0
  4  5  1  0
  4 29  1  0
  5  6  1  0
  5 35  1  0
  5 36  1  0
  6  7  1  0
  6 37  1  0
  6 38  1  0
  7  8  1  0
  7 39  1  0
  7 40  1  0
  8  9  1  0
  8 41  1  0
  8 42  1  0
  9 10  1  0
  9 43  1  0
  9 44  1  0
 10 11  1  0
 10 45  1  0
 10 46  1  0
 11 12  1  0
 12 13  2  0
 12 20  1  0
 13 14  1  0
 13 47  1  0
 14 15  1  0
 14 18  2  0
 15 16  1  0
 15 28  1  0
 16 17  2  0
 17 18  1  0
 17 21  1  0
 18 19  1  0
 19 20  2  0
 19 48  1  0
 20 49  1  0
 21 22  2  0
 21 26  1  0
 22 23  1  0
 22 50  1  0
 23 24  2  0
 23 51  1  0
 24 25  1  0
 24 27  1  0
 25 26  2  0
 25 52  1  0
 26 53  1  0
 28 54  1  0
 28 55  1  0
 28 56  1  0
 29 57  1  0
 29 58  1  0
 29 59  1  0
M  END
