
     RDKit          3D

 15 15  0  0  0  0  0  0  0  0999 V2000
    0.3083   -0.1329   -0.0432 C   0  0  0  0  0  0  0  0  0  0  0  0
   -0.5245    0.9855   -0.0849 C   0  0  0  0  0  0  0  0  0  0  0  0
   -2.8004    1.8509   -0.1092 N   0  0  0  0  0  0  0  0  0  0  0  0
   -1.8927    0.8072   -0.0365 C   0  0  0  0  0  0  0  0  0  0  0  0
    2.1813    0.0803   -0.1120 Br  0  0  0  0  0  0  0  0  0  0  0  0
   -0.2446   -1.3884    0.0632 C   0  0  0  0  0  0  0  0  0  0  0  0
   -1.5651   -1.5671    0.0959 N   0  0  0  0  0  0  0  0  0  0  0  0
   -2.3745   -0.5276    0.0370 C   0  0  0  0  0  0  0  0  0  0  0  0
   -3.7273   -0.7473    0.0993 N   0  0  0  0  0  0  0  0  0  0  0  0
   -0.1143    1.9863   -0.1446 H   0  0  0  0  0  0  0  0  0  0  0  0
   -2.3797    2.7656   -0.0422 H   0  0  0  0  0  0  0  0  0  0  0  0
   -3.5685    1.7787    0.5440 H   0  0  0  0  0  0  0  0  0  0  0  0
    0.3697   -2.2799    0.1129 H   0  0  0  0  0  0  0  0  0  0  0  0
   -4.3056   -0.1027   -0.4189 H   0  0  0  0  0  0  0  0  0  0  0  0
   -3.9986   -1.7072   -0.0482 H   0  0  0  0  0  0  0  0  0  0  0  0
  3  4  1  0
  4  2  1  0
  4  8  2  0
  9  8  1  0
  2  1  2  0
  8  7  1  0
  1  6  1  0
  1  5  1  0
  7  6  2  0
  2 10  1  0
  3 11  1  0
  3 12  1  0
  6 13  1  0
  9 14  1  0
  9 15  1  0
M  END
