
     RDKit          3D

 55 57  0  0  0  0  0  0  0  0999 V2000
    2.6577    3.6067   -0.9382 C   0  0  0  0  0  0  0  0  0  0  0  0
    1.6366    2.7292   -0.5103 C   0  0  0  0  0  0  0  0  0  0  0  0
    1.8488    1.3339   -0.5607 C   0  0  0  0  0  0  0  0  0  0  0  0
    3.0993    0.8521   -1.0118 C   0  0  0  0  0  0  0  0  0  0  0  0
    4.0763    1.7221   -1.4176 C   0  0  0  0  0  0  0  0  0  0  0  0
    3.8524    3.1122   -1.3869 C   0  0  0  0  0  0  0  0  0  0  0  0
    0.4859    3.2670   -0.0469 N   0  0  0  0  0  0  0  0  0  0  0  0
   -0.4791    2.4881    0.3625 C   0  0  0  0  0  0  0  0  0  0  0  0
   -0.3808    1.0610    0.3258 C   0  0  0  0  0  0  0  0  0  0  0  0
    0.7851    0.4882   -0.1307 C   0  0  0  0  0  0  0  0  0  0  0  0
   -1.7025    3.1929    0.8738 C   0  0  0  0  0  0  0  0  0  0  0  0
    0.9756   -0.9815   -0.2055 C   0  0  0  0  0  0  0  0  0  0  0  0
   -1.5568    0.2084    0.7566 C   0  0  2  0  0  0  0  0  0  0  0  0
   -2.7472    0.5892    0.1440 O   0  0  0  0  0  0  0  0  0  0  0  0
    1.0651   -1.6113   -1.4426 C   0  0  0  0  0  0  0  0  0  0  0  0
    1.2515   -2.9833   -1.5113 C   0  0  0  0  0  0  0  0  0  0  0  0
    1.3626   -3.7603   -0.3630 C   0  0  0  0  0  0  0  0  0  0  0  0
    1.2868   -3.1318    0.8878 C   0  0  0  0  0  0  0  0  0  0  0  0
    1.0959   -1.7554    0.9461 C   0  0  0  0  0  0  0  0  0  0  0  0
    1.5668   -5.2423   -0.4647 C   0  0  0  0  0  0  0  0  0  0  0  0
    1.4143   -3.9285    2.1527 C   0  0  0  0  0  0  0  0  0  0  0  0
   -3.2869   -0.2205   -0.9070 C   0  0  1  0  0  0  0  0  0  0  0  0
   -2.3284   -0.2988   -2.0915 C   0  0  0  0  0  0  0  0  0  0  0  0
   -3.6314   -1.6188   -0.3994 C   0  0  0  0  0  0  0  0  0  0  0  0
   -4.5610    0.5075   -1.3155 C   0  0  0  0  0  0  0  0  0  0  0  0
   -1.7949    0.2231    2.2671 C   0  0  0  0  0  0  0  0  0  0  0  0
   -2.8699    0.0522    2.7748 O   0  0  0  0  0  0  0  0  0  0  0  0
   -0.6711    0.3990    2.9459 O   0  0  0  0  0  0  0  0  0  0  0  0
    2.4705    4.6721   -0.8959 H   0  0  0  0  0  0  0  0  0  0  0  0
    3.2894   -0.2122   -1.0339 H   0  0  0  0  0  0  0  0  0  0  0  0
    5.0283    1.3404   -1.7617 H   0  0  0  0  0  0  0  0  0  0  0  0
    4.6325    3.7881   -1.7122 H   0  0  0  0  0  0  0  0  0  0  0  0
   -2.5273    3.1176    0.1669 H   0  0  0  0  0  0  0  0  0  0  0  0
   -2.0593    2.7947    1.8238 H   0  0  0  0  0  0  0  0  0  0  0  0
   -1.4707    4.2451    1.0211 H   0  0  0  0  0  0  0  0  0  0  0  0
   -1.3000   -0.8386    0.5410 H   0  0  0  0  0  0  0  0  0  0  0  0
    0.9895   -1.0306   -2.3540 H   0  0  0  0  0  0  0  0  0  0  0  0
    1.3162   -3.4594   -2.4826 H   0  0  0  0  0  0  0  0  0  0  0  0
    1.0538   -1.2745    1.9158 H   0  0  0  0  0  0  0  0  0  0  0  0
    2.4645   -5.5610    0.0685 H   0  0  0  0  0  0  0  0  0  0  0  0
    0.7304   -5.7933   -0.0287 H   0  0  0  0  0  0  0  0  0  0  0  0
    1.6663   -5.5574   -1.5023 H   0  0  0  0  0  0  0  0  0  0  0  0
    2.3653   -4.4638    2.1954 H   0  0  0  0  0  0  0  0  0  0  0  0
    1.3535   -3.2894    3.0325 H   0  0  0  0  0  0  0  0  0  0  0  0
    0.6270   -4.6813    2.2336 H   0  0  0  0  0  0  0  0  0  0  0  0
   -1.4230   -0.8542   -1.8466 H   0  0  0  0  0  0  0  0  0  0  0  0
   -2.8042   -0.8159   -2.9253 H   0  0  0  0  0  0  0  0  0  0  0  0
   -2.0347    0.6960   -2.4295 H   0  0  0  0  0  0  0  0  0  0  0  0
   -4.3019   -1.5694    0.4592 H   0  0  0  0  0  0  0  0  0  0  0  0
   -4.1273   -2.1884   -1.1861 H   0  0  0  0  0  0  0  0  0  0  0  0
   -2.7479   -2.1905   -0.1070 H   0  0  0  0  0  0  0  0  0  0  0  0
   -4.3432    1.5219   -1.6542 H   0  0  0  0  0  0  0  0  0  0  0  0
   -5.0514   -0.0213   -2.1331 H   0  0  0  0  0  0  0  0  0  0  0  0
   -5.2653    0.5672   -0.4841 H   0  0  0  0  0  0  0  0  0  0  0  0
   -0.8426    0.3380    3.8982 H   0  0  0  0  0  0  0  0  0  0  0  0
  6  1  2  0
  1  2  1  0
  1 29  1  0
  2  7  2  0
  2  3  1  0
  4  3  1  0
  3 10  2  0
  5  4  2  0
  4 30  1  0
  6  5  1  0
  5 31  1  0
  6 32  1  0
  7  8  1  0
  8 11  1  0
  8  9  2  0
 10  9  1  0
  9 13  1  0
 10 12  1  0
 11 33  1  0
 11 34  1  0
 11 35  1  0
 15 12  2  0
 12 19  1  0
 14 13  1  0
 13 26  1  0
 13 36  1  6
 22 14  1  1
 15 16  1  0
 15 37  1  0
 16 17  2  0
 16 38  1  0
 17 20  1  0
 17 18  1  0
 19 18  2  0
 18 21  1  0
 19 39  1  0
 20 40  1  0
 20 41  1  0
 20 42  1  0
 21 43  1  0
 21 44  1  0
 21 45  1  0
 23 22  1  0
 25 22  1  0
 22 24  1  0
 23 46  1  0
 23 47  1  0
 23 48  1  0
 24 49  1  0
 24 50  1  0
 24 51  1  0
 25 52  1  0
 25 53  1  0
 25 54  1  0
 26 27  2  0
 26 28  1  0
 28 55  1  0
M  END
