
     RDKit          3D

 54 57  0  0  0  0  0  0  0  0999 V2000
   -1.4373   -3.6860    0.6122 C   0  0  0  0  0  0  0  0  0  0  0  0
   -1.6203   -4.3917   -0.3720 O   0  0  0  0  0  0  0  0  0  0  0  0
   -3.5525    1.5463    0.5768 O   0  0  0  0  0  0  0  0  0  0  0  0
   -1.9747   -2.2911    0.6603 C   0  0  0  0  0  0  0  0  0  0  0  0
   -0.7583   -4.1069    1.6873 N   0  0  0  0  0  0  0  0  0  0  0  0
   -1.5400    2.5061   -0.3512 C   0  0  0  0  0  0  0  0  0  0  0  0
    0.4778    3.5242   -1.4046 C   0  0  0  0  0  0  0  0  0  0  0  0
    1.4969    2.2337    0.4657 C   0  0  0  0  0  0  0  0  0  0  0  0
    1.5745    0.7162    0.5046 C   0  0  0  0  0  0  0  0  0  0  0  0
    2.7492    0.2046   -0.3324 C   0  0  2  0  0  0  0  0  0  0  0  0
    2.6887    0.8030   -1.7423 C   0  0  0  0  0  0  0  0  0  0  0  0
    2.5808    2.3233   -1.7039 C   0  0  0  0  0  0  0  0  0  0  0  0
    2.8121   -1.3011   -0.3542 C   0  0  0  0  0  0  0  0  0  0  0  0
    3.9394   -1.9714    0.1106 C   0  0  0  0  0  0  0  0  0  0  0  0
    4.0164   -3.3586    0.1006 C   0  0  0  0  0  0  0  0  0  0  0  0
   -2.9939   -1.9505   -0.2250 C   0  0  0  0  0  0  0  0  0  0  0  0
    2.9409   -4.0732   -0.3852 C   0  0  0  0  0  0  0  0  0  0  0  0
    1.8019   -3.4492   -0.8568 C   0  0  0  0  0  0  0  0  0  0  0  0
    1.7482   -2.0637   -0.8360 C   0  0  0  0  0  0  0  0  0  0  0  0
   -1.9905   -0.0247    1.5011 C   0  0  0  0  0  0  0  0  0  0  0  0
   -1.4801   -1.3117    1.5197 C   0  0  0  0  0  0  0  0  0  0  0  0
   -3.5130   -0.6670   -0.2541 C   0  0  0  0  0  0  0  0  0  0  0  0
   -3.0055    0.2934    0.6077 C   0  0  0  0  0  0  0  0  0  0  0  0
   -2.7556    2.6201    0.3084 C   0  0  0  0  0  0  0  0  0  0  0  0
   -3.2322    3.8678    0.6936 C   0  0  0  0  0  0  0  0  0  0  0  0
   -2.4878    4.9997    0.4012 C   0  0  0  0  0  0  0  0  0  0  0  0
   -1.2721    4.9015   -0.2624 C   0  0  0  0  0  0  0  0  0  0  0  0
   -0.7931    3.6485   -0.6205 C   0  0  0  0  0  0  0  0  0  0  0  0
    3.0018   -5.4167   -0.4002 F   0  0  0  0  0  0  0  0  0  0  0  0
    1.4317    2.7151   -0.9049 N   0  0  0  0  0  0  0  0  0  0  0  0
    0.5837    4.1167   -2.4704 O   0  0  0  0  0  0  0  0  0  0  0  0
   -0.3570   -5.0302    1.6931 H   0  0  0  0  0  0  0  0  0  0  0  0
   -0.6836   -3.5740    2.5356 H   0  0  0  0  0  0  0  0  0  0  0  0
   -1.1705    1.5385   -0.6663 H   0  0  0  0  0  0  0  0  0  0  0  0
    0.6482    2.5954    1.0402 H   0  0  0  0  0  0  0  0  0  0  0  0
    2.3942    2.6597    0.9293 H   0  0  0  0  0  0  0  0  0  0  0  0
    1.6804    0.3889    1.5411 H   0  0  0  0  0  0  0  0  0  0  0  0
    0.6344    0.2944    0.1360 H   0  0  0  0  0  0  0  0  0  0  0  0
    3.6712    0.5683    0.1379 H   0  0  0  0  0  0  0  0  0  0  0  0
    3.5822    0.5232   -2.3041 H   0  0  0  0  0  0  0  0  0  0  0  0
    1.8288    0.3997   -2.2855 H   0  0  0  0  0  0  0  0  0  0  0  0
    3.4876    2.7561   -1.2677 H   0  0  0  0  0  0  0  0  0  0  0  0
    2.4787    2.7241   -2.7087 H   0  0  0  0  0  0  0  0  0  0  0  0
    4.7792   -1.4041    0.4929 H   0  0  0  0  0  0  0  0  0  0  0  0
    4.8976   -3.8684    0.4676 H   0  0  0  0  0  0  0  0  0  0  0  0
   -3.3877   -2.6930   -0.9055 H   0  0  0  0  0  0  0  0  0  0  0  0
    0.9689   -4.0309   -1.2283 H   0  0  0  0  0  0  0  0  0  0  0  0
    0.8535   -1.5780   -1.2059 H   0  0  0  0  0  0  0  0  0  0  0  0
   -1.5890    0.7232    2.1734 H   0  0  0  0  0  0  0  0  0  0  0  0
   -0.6717   -1.5223    2.2080 H   0  0  0  0  0  0  0  0  0  0  0  0
   -4.3053   -0.4120   -0.9458 H   0  0  0  0  0  0  0  0  0  0  0  0
   -4.1795    3.9481    1.2115 H   0  0  0  0  0  0  0  0  0  0  0  0
   -2.8627    5.9705    0.6967 H   0  0  0  0  0  0  0  0  0  0  0  0
   -0.6993    5.7922   -0.4842 H   0  0  0  0  0  0  0  0  0  0  0  0
 18 19  2  0
 18 17  1  0
 29 17  1  0
 19 13  1  0
 17 15  2  0
 12 11  1  0
 12 30  1  0
 11 10  1  0
 13 10  1  0
 13 14  2  0
 15 14  1  0
 10  9  1  0
 31  7  2  0
 30  7  1  0
 30  8  1  0
  7 28  1  0
  8  9  1  0
  5  1  1  0
  6 28  2  0
  6 24  1  0
 28 27  1  0
 21 20  1  0
 21  4  2  0
 20 23  2  0
  4  1  1  0
  4 16  1  0
 23  3  1  0
 23 22  1  0
  1  2  2  0
  3 24  1  0
 24 25  2  0
 16 22  2  0
 27 26  2  0
 25 26  1  0
  5 32  1  0
  5 33  1  0
  6 34  1  0
  8 35  1  0
  8 36  1  0
  9 37  1  0
  9 38  1  0
 10 39  1  1
 11 40  1  0
 11 41  1  0
 12 42  1  0
 12 43  1  0
 14 44  1  0
 15 45  1  0
 16 46  1  0
 18 47  1  0
 19 48  1  0
 20 49  1  0
 21 50  1  0
 22 51  1  0
 25 52  1  0
 26 53  1  0
 27 54  1  0
M  END
