
     RDKit          3D

 41 42  0  0  0  0  0  0  0  0999 V2000
    5.4651    2.0735   -0.7329 C   0  0  0  0  0  0  0  0  0  0  0  0
    4.0610    1.9383   -0.8171 O   0  0  0  0  0  0  0  0  0  0  0  0
    3.4771    0.8965   -0.1926 C   0  0  0  0  0  0  0  0  0  0  0  0
    4.1663   -0.0698    0.5350 C   0  0  0  0  0  0  0  0  0  0  0  0
    3.4523   -1.1012    1.1369 C   0  0  0  0  0  0  0  0  0  0  0  0
    2.0772   -1.1880    1.0216 C   0  0  0  0  0  0  0  0  0  0  0  0
    1.3842   -0.2210    0.2897 C   0  0  0  0  0  0  0  0  0  0  0  0
    2.0889    0.8155   -0.3084 C   0  0  0  0  0  0  0  0  0  0  0  0
   -0.0811   -0.2492    0.1839 C   0  0  0  0  0  0  0  0  0  0  0  0
   -0.7539    0.8720    0.2702 N   0  0  0  0  0  0  0  0  0  0  0  0
   -2.0574    0.5496    0.1771 N   0  0  0  0  0  0  0  0  0  0  0  0
   -2.2277   -0.7813    0.0262 C   0  0  0  0  0  0  0  0  0  0  0  0
   -3.4430   -1.3993   -0.0893 N   0  0  0  0  0  0  0  0  0  0  0  0
   -0.9548   -1.3533    0.0391 C   0  0  0  0  0  0  0  0  0  0  0  0
   -0.6104   -2.7549   -0.2240 C   0  0  0  0  0  0  0  0  0  0  0  0
   -1.5000   -3.6679    0.2429 N   0  0  0  0  0  0  0  0  0  0  0  0
    0.3841   -3.0786   -0.8579 O   0  0  0  0  0  0  0  0  0  0  0  0
   -3.0804    1.6196    0.1966 C   0  0  1  0  0  0  0  0  0  0  0  0
   -3.7103    1.7449   -1.1928 C   0  0  0  0  0  0  0  0  0  0  0  0
   -4.1262    1.3204    1.2728 C   0  0  0  0  0  0  0  0  0  0  0  0
   -2.4080    2.9451    0.5467 C   0  0  0  0  0  0  0  0  0  0  0  0
    5.7246    2.9654   -1.2982 H   0  0  0  0  0  0  0  0  0  0  0  0
    5.8026    2.2004    0.2992 H   0  0  0  0  0  0  0  0  0  0  0  0
    5.9860    1.2174   -1.1695 H   0  0  0  0  0  0  0  0  0  0  0  0
    5.2414   -0.0368    0.6470 H   0  0  0  0  0  0  0  0  0  0  0  0
    3.9903   -1.8459    1.7092 H   0  0  0  0  0  0  0  0  0  0  0  0
    1.5451   -1.9879    1.5170 H   0  0  0  0  0  0  0  0  0  0  0  0
    1.5616    1.5708   -0.8781 H   0  0  0  0  0  0  0  0  0  0  0  0
   -3.3834   -2.3433   -0.4418 H   0  0  0  0  0  0  0  0  0  0  0  0
   -4.1665   -0.8874   -0.5673 H   0  0  0  0  0  0  0  0  0  0  0  0
   -2.0854   -3.4454    1.0320 H   0  0  0  0  0  0  0  0  0  0  0  0
   -1.2731   -4.6450    0.1387 H   0  0  0  0  0  0  0  0  0  0  0  0
   -4.2405    0.8482   -1.5145 H   0  0  0  0  0  0  0  0  0  0  0  0
   -4.4341    2.5598   -1.1985 H   0  0  0  0  0  0  0  0  0  0  0  0
   -2.9460    1.9638   -1.9391 H   0  0  0  0  0  0  0  0  0  0  0  0
   -3.6557    1.2548    2.2546 H   0  0  0  0  0  0  0  0  0  0  0  0
   -4.8517    2.1334    1.3025 H   0  0  0  0  0  0  0  0  0  0  0  0
   -4.6805    0.3994    1.1050 H   0  0  0  0  0  0  0  0  0  0  0  0
   -1.6621    3.2387   -0.1891 H   0  0  0  0  0  0  0  0  0  0  0  0
   -3.1773    3.7168    0.5752 H   0  0  0  0  0  0  0  0  0  0  0  0
   -1.9308    2.9108    1.5251 H   0  0  0  0  0  0  0  0  0  0  0  0
 13 12  1  0
 17 15  2  0
 18 20  1  1
 12 14  2  0
 12 11  1  0
 19 18  1  0
 15 14  1  0
 15 16  1  0
 18 11  1  0
 18 21  1  0
 14  9  1  0
 11 10  1  0
  9 10  2  0
  9  7  1  0
  1  2  1  0
  8  7  1  0
  8  3  2  0
  7  6  2  0
  2  3  1  0
  3  4  1  0
  6  5  1  0
  4  5  2  0
  1 22  1  0
  1 23  1  0
  1 24  1  0
  4 25  1  0
  5 26  1  0
  6 27  1  0
  8 28  1  0
 13 29  1  0
 13 30  1  0
 16 31  1  0
 16 32  1  0
 19 33  1  0
 19 34  1  0
 19 35  1  0
 20 36  1  0
 20 37  1  0
 20 38  1  0
 21 39  1  0
 21 40  1  0
 21 41  1  0
M  END
