
     RDKit          3D

 43 44  0  0  0  0  0  0  0  0999 V2000
    4.2586    1.2788    0.7895 C   0  0  0  0  0  0  0  0  0  0  0  0
    3.6105   -0.0047    0.3194 C   0  0  0  0  0  0  0  0  0  0  0  0
    2.0912    0.1284    0.2751 C   0  0  2  0  0  0  0  0  0  0  0  0
    1.3194   -1.2007    0.2715 C   0  0  1  0  0  0  0  0  0  0  0  0
    1.1893   -1.8489    1.6347 C   0  0  0  0  0  0  0  0  0  0  0  0
    5.6400    1.1019    0.8793 F   0  0  0  0  0  0  0  0  0  0  0  0
    1.5725    0.8207   -0.9693 C   0  0  0  0  0  0  0  0  0  0  0  0
    2.1082    1.7281   -1.5772 O   0  0  0  0  0  0  0  0  0  0  0  0
    0.3959    0.2464   -1.2953 N   0  0  0  0  0  0  0  0  0  0  0  0
   -0.0368   -0.8200   -0.4246 C   0  0  1  0  0  0  0  0  0  0  0  0
   -0.4823   -2.0299   -1.2345 C   0  0  0  0  0  0  0  0  0  0  0  0
   -1.0508   -2.9714   -0.7473 O   0  0  0  0  0  0  0  0  0  0  0  0
   -1.1531   -0.3905    0.5602 C   0  0  1  0  0  0  0  0  0  0  0  0
   -0.7291    0.6706    1.3756 O   0  0  0  0  0  0  0  0  0  0  0  0
   -2.5268   -0.0886   -0.0831 C   0  0  1  0  0  0  0  0  0  0  0  0
   -3.6200   -0.2756    0.9745 C   0  0  0  0  0  0  0  0  0  0  0  0
   -4.9612    0.2718    0.5091 C   0  0  0  0  0  0  0  0  0  0  0  0
   -4.8688    1.7710    0.2573 C   0  0  0  0  0  0  0  0  0  0  0  0
   -3.6360    2.1180   -0.5161 C   0  0  0  0  0  0  0  0  0  0  0  0
   -2.6058    1.2914   -0.6862 C   0  0  0  0  0  0  0  0  0  0  0  0
    1.9240   -2.0920   -0.6511 O   0  0  0  0  0  0  0  0  0  0  0  0
    4.0687    2.1007    0.1006 H   0  0  0  0  0  0  0  0  0  0  0  0
    3.8915    1.5562    1.7800 H   0  0  0  0  0  0  0  0  0  0  0  0
    4.0096   -0.2836   -0.6578 H   0  0  0  0  0  0  0  0  0  0  0  0
    3.8839   -0.7985    1.0206 H   0  0  0  0  0  0  0  0  0  0  0  0
    1.7550    0.7139    1.1369 H   0  0  0  0  0  0  0  0  0  0  0  0
    0.7559   -1.1740    2.3696 H   0  0  0  0  0  0  0  0  0  0  0  0
    0.5799   -2.7524    1.5877 H   0  0  0  0  0  0  0  0  0  0  0  0
    2.1761   -2.1384    2.0046 H   0  0  0  0  0  0  0  0  0  0  0  0
   -0.1297    0.5563   -2.0994 H   0  0  0  0  0  0  0  0  0  0  0  0
   -0.2581   -1.9808   -2.3148 H   0  0  0  0  0  0  0  0  0  0  0  0
   -1.3041   -1.2416    1.2299 H   0  0  0  0  0  0  0  0  0  0  0  0
   -0.8421    1.5014    0.8992 H   0  0  0  0  0  0  0  0  0  0  0  0
   -2.7027   -0.8212   -0.8801 H   0  0  0  0  0  0  0  0  0  0  0  0
   -3.7051   -1.3369    1.2192 H   0  0  0  0  0  0  0  0  0  0  0  0
   -3.3211    0.2385    1.8935 H   0  0  0  0  0  0  0  0  0  0  0  0
   -5.2611   -0.2354   -0.4129 H   0  0  0  0  0  0  0  0  0  0  0  0
   -5.7348    0.0589    1.2496 H   0  0  0  0  0  0  0  0  0  0  0  0
   -5.7499    2.1279   -0.2826 H   0  0  0  0  0  0  0  0  0  0  0  0
   -4.8678    2.3202    1.2059 H   0  0  0  0  0  0  0  0  0  0  0  0
   -3.5982    3.0991   -0.9781 H   0  0  0  0  0  0  0  0  0  0  0  0
   -1.7863    1.6349   -1.3078 H   0  0  0  0  0  0  0  0  0  0  0  0
    2.7020   -2.4904   -0.2455 H   0  0  0  0  0  0  0  0  0  0  0  0
  1  2  1  0
  1  6  1  0
  2  3  1  0
  3  4  1  0
  3  7  1  0
  4  5  1  0
  4 10  1  0
  4 21  1  6
  7  8  2  0
  7  9  1  0
  9 10  1  0
 10 11  1  6
 10 13  1  0
 11 12  2  0
 13 14  1  0
 13 15  1  0
 15 16  1  0
 15 20  1  0
 16 17  1  0
 17 18  1  0
 18 19  1  0
 19 20  2  0
  1 22  1  0
  1 23  1  0
  2 24  1  0
  2 25  1  0
  3 26  1  1
  5 27  1  0
  5 28  1  0
  5 29  1  0
  9 30  1  0
 11 31  1  0
 13 32  1  1
 14 33  1  0
 15 34  1  6
 16 35  1  0
 16 36  1  0
 17 37  1  0
 17 38  1  0
 18 39  1  0
 18 40  1  0
 19 41  1  0
 20 42  1  0
 21 43  1  0
M  END
