
     RDKit          3D

 23 24  0  0  0  0  0  0  0  0999 V2000
    0.0969    0.3854   -0.0623 C   0  0  0  0  0  0  0  0  0  0  0  0
    1.4670    0.6888   -0.0546 C   0  0  0  0  0  0  0  0  0  0  0  0
    2.4258   -0.3170   -0.0561 C   0  0  0  0  0  0  0  0  0  0  0  0
    2.0229   -1.6433   -0.0456 C   0  0  0  0  0  0  0  0  0  0  0  0
    0.6758   -1.9619   -0.0294 C   0  0  0  0  0  0  0  0  0  0  0  0
   -0.2911   -0.9568   -0.0369 C   0  0  0  0  0  0  0  0  0  0  0  0
   -1.7491   -1.3450   -0.0274 C   0  0  0  0  0  0  0  0  0  0  0  0
   -2.6661   -0.2145    0.4123 C   0  0  0  0  0  0  0  0  0  0  0  0
   -2.3333    1.0465   -0.3674 C   0  0  0  0  0  0  0  0  0  0  0  0
   -0.9133    1.5086   -0.0639 C   0  0  0  0  0  0  0  0  0  0  0  0
    1.9221    1.9623   -0.0456 O   0  0  0  0  0  0  0  0  0  0  0  0
    3.4771   -0.0560   -0.0572 H   0  0  0  0  0  0  0  0  0  0  0  0
    2.7683   -2.4282   -0.0400 H   0  0  0  0  0  0  0  0  0  0  0  0
    0.3644   -2.9997   -0.0054 H   0  0  0  0  0  0  0  0  0  0  0  0
   -2.0350   -1.6652   -1.0354 H   0  0  0  0  0  0  0  0  0  0  0  0
   -1.8835   -2.2192    0.6138 H   0  0  0  0  0  0  0  0  0  0  0  0
   -3.7079   -0.5016    0.2569 H   0  0  0  0  0  0  0  0  0  0  0  0
   -2.5456   -0.0285    1.4843 H   0  0  0  0  0  0  0  0  0  0  0  0
   -2.4363    0.8460   -1.4382 H   0  0  0  0  0  0  0  0  0  0  0  0
   -3.0317    1.8514   -0.1315 H   0  0  0  0  0  0  0  0  0  0  0  0
   -0.6374    2.2750   -0.7969 H   0  0  0  0  0  0  0  0  0  0  0  0
   -0.9023    2.0070    0.9131 H   0  0  0  0  0  0  0  0  0  0  0  0
    1.1954    2.5921   -0.0001 H   0  0  0  0  0  0  0  0  0  0  0  0
  1  2  2  0
  1  6  1  0
  1 10  1  0
  2  3  1  0
  2 11  1  0
  3  4  2  0
  3 12  1  0
  4  5  1  0
  4 13  1  0
  5  6  2  0
  5 14  1  0
  6  7  1  0
  7  8  1  0
  7 15  1  0
  7 16  1  0
  8  9  1  0
  8 17  1  0
  8 18  1  0
  9 10  1  0
  9 19  1  0
  9 20  1  0
 10 21  1  0
 10 22  1  0
 11 23  1  0
M  END
