
     RDKit          3D

 54 54  0  0  0  0  0  0  0  0999 V2000
   -0.6159   -0.0482    0.2404 C   0  0  0  0  0  0  0  0  0  0  0  0
    4.3576   -0.4351    0.9622 C   0  0  0  0  0  0  0  0  0  0  0  0
    8.0987    0.9768   -1.6786 C   0  0  0  0  0  0  0  0  0  0  0  0
    7.5722    0.5413    0.5000 C   0  0  0  0  0  0  0  0  0  0  0  0
  -12.0614    0.1158   -0.4088 C   0  0  0  0  0  0  0  0  0  0  0  0
  -10.7016   -0.3732   -0.8876 C   0  0  0  0  0  0  0  0  0  0  0  0
   -9.5407    0.2675   -0.1369 C   0  0  0  0  0  0  0  0  0  0  0  0
   -8.1767   -0.2110   -0.6174 C   0  0  0  0  0  0  0  0  0  0  0  0
   -7.0137    0.3697    0.1773 C   0  0  0  0  0  0  0  0  0  0  0  0
   -4.4881    0.3530    0.5411 C   0  0  0  0  0  0  0  0  0  0  0  0
   -3.1330   -0.0197   -0.0472 C   0  0  0  0  0  0  0  0  0  0  0  0
   -1.9643    0.2143    0.9017 C   0  0  0  0  0  0  0  0  0  0  0  0
    0.5388    0.0656    1.2219 C   0  0  0  0  0  0  0  0  0  0  0  0
    1.8995   -0.1647    0.6257 C   0  0  0  0  0  0  0  0  0  0  0  0
    3.0705    0.0824    1.5587 C   0  0  0  0  0  0  0  0  0  0  0  0
    6.3359    0.2058   -0.3246 C   0  0  2  0  0  0  0  0  0  0  0  0
    6.5797    0.9964   -1.6018 C   0  0  0  0  0  0  0  0  0  0  0  0
    5.1126    0.4982    0.3530 N   0  0  0  0  0  0  0  0  0  0  0  0
    2.0705   -0.5147   -0.5176 O   0  0  0  0  0  0  0  0  0  0  0  0
    4.6549   -1.6170    1.0045 O   0  0  0  0  0  0  0  0  0  0  0  0
    8.5434    0.9541   -0.3076 O   0  0  0  0  0  0  0  0  0  0  0  0
   -0.6192   -1.0453   -0.2082 H   0  0  0  0  0  0  0  0  0  0  0  0
   -0.4748    0.6594   -0.5809 H   0  0  0  0  0  0  0  0  0  0  0  0
    8.4709    0.0817   -2.1790 H   0  0  0  0  0  0  0  0  0  0  0  0
    8.5265    1.8549   -2.1560 H   0  0  0  0  0  0  0  0  0  0  0  0
  -12.8756   -0.3634   -0.9536 H   0  0  0  0  0  0  0  0  0  0  0  0
  -12.2042   -0.0952    0.6527 H   0  0  0  0  0  0  0  0  0  0  0  0
  -12.1630    1.1943   -0.5444 H   0  0  0  0  0  0  0  0  0  0  0  0
  -10.6435   -1.4607   -0.7779 H   0  0  0  0  0  0  0  0  0  0  0  0
  -10.5958   -0.1722   -1.9583 H   0  0  0  0  0  0  0  0  0  0  0  0
   -9.6006    1.3572   -0.2367 H   0  0  0  0  0  0  0  0  0  0  0  0
   -9.6430    0.0574    0.9337 H   0  0  0  0  0  0  0  0  0  0  0  0
   -8.1363   -1.3047   -0.5605 H   0  0  0  0  0  0  0  0  0  0  0  0
   -8.0575    0.0388   -1.6775 H   0  0  0  0  0  0  0  0  0  0  0  0
   -7.0645    1.4639    0.1565 H   0  0  0  0  0  0  0  0  0  0  0  0
   -7.1201    0.0834    1.2298 H   0  0  0  0  0  0  0  0  0  0  0  0
   -5.6440   -1.1777   -0.4165 H   0  0  0  0  0  0  0  0  0  0  0  0
   -5.5078    0.2907   -1.3562 H   0  0  0  0  0  0  0  0  0  0  0  0
   -4.5304    1.4362    0.6994 H   0  0  0  0  0  0  0  0  0  0  0  0
   -4.5988   -0.1008    1.5323 H   0  0  0  0  0  0  0  0  0  0  0  0
   -3.1430   -1.0742   -0.3434 H   0  0  0  0  0  0  0  0  0  0  0  0
   -2.9731    0.5498   -0.9694 H   0  0  0  0  0  0  0  0  0  0  0  0
   -2.0771   -0.4339    1.7775 H   0  0  0  0  0  0  0  0  0  0  0  0
   -1.9906    1.2423    1.2788 H   0  0  0  0  0  0  0  0  0  0  0  0
    0.5443    1.0452    1.7133 H   0  0  0  0  0  0  0  0  0  0  0  0
    0.4210   -0.6557    2.0392 H   0  0  0  0  0  0  0  0  0  0  0  0
    2.8837   -0.4123    2.5143 H   0  0  0  0  0  0  0  0  0  0  0  0
    3.1071    1.1547    1.7732 H   0  0  0  0  0  0  0  0  0  0  0  0
    6.3720   -0.8683   -0.5330 H   0  0  0  0  0  0  0  0  0  0  0  0
    6.2131    2.0199   -1.4920 H   0  0  0  0  0  0  0  0  0  0  0  0
    6.1138    0.5542   -2.4791 H   0  0  0  0  0  0  0  0  0  0  0  0
    4.8222    1.4629    0.3921 H   0  0  0  0  0  0  0  0  0  0  0  0
    7.7065    0.4651    1.6884 O   0  0  0  0  0  0  0  0  0  0  0  0
   -5.6540   -0.0849   -0.3374 C   0  0  0  0  0  0  0  0  0  0  0  0
 53  4  2  0
 21  4  1  0
 21  3  1  0
  4 16  1  0
 19 14  2  0
  3 17  1  0
  1 12  1  0
  1 13  1  0
 16 17  1  0
 16 18  1  0
 12 11  1  0
 11 10  1  0
 14 13  1  0
 14 15  1  0
 18  2  1  0
 20  2  2  0
  2 15  1  0
 10 54  1  0
 54  9  1  0
  9  8  1  0
  8  7  1  0
  7  6  1  0
  6  5  1  0
  1 22  1  0
  1 23  1  0
  3 24  1  0
  3 25  1  0
  5 26  1  0
  5 27  1  0
  5 28  1  0
  6 29  1  0
  6 30  1  0
  7 31  1  0
  7 32  1  0
  8 33  1  0
  8 34  1  0
  9 35  1  0
  9 36  1  0
 54 37  1  0
 54 38  1  0
 10 39  1  0
 10 40  1  0
 11 41  1  0
 11 42  1  0
 12 43  1  0
 12 44  1  0
 13 45  1  0
 13 46  1  0
 15 47  1  0
 15 48  1  0
 16 49  1  6
 17 50  1  0
 17 51  1  0
 18 52  1  0
M  END
