
     RDKit          3D

 38 40  0  0  0  0  0  0  0  0999 V2000
    1.6310   -0.7348   -0.1332 C   0  0  0  0  0  0  0  0  0  0  0  0
   -1.9892    0.5675   -0.9124 C   0  0  0  0  0  0  0  0  0  0  0  0
   -5.0713   -0.0437    2.0645 C   0  0  0  0  0  0  0  0  0  0  0  0
   -2.9648   -1.3582   -1.9651 C   0  0  0  0  0  0  0  0  0  0  0  0
   -2.1311   -1.1635   -3.0540 C   0  0  0  0  0  0  0  0  0  0  0  0
    2.0374    2.7442   -1.5330 O   0  0  0  0  0  0  0  0  0  0  0  0
    1.3490    1.4794   -1.6789 S   0  0  1  0  0  0  0  0  0  0  0  0
    1.3152    0.6180   -0.1090 C   0  0  0  0  0  0  0  0  0  0  0  0
    0.9548    1.2291    1.0907 C   0  0  0  0  0  0  0  0  0  0  0  0
    0.4652    3.0400    1.2075 Br  0  0  0  0  0  0  0  0  0  0  0  0
    0.9217    0.4822    2.2585 C   0  0  0  0  0  0  0  0  0  0  0  0
    1.2414   -0.8658    2.2396 C   0  0  0  0  0  0  0  0  0  0  0  0
    1.5925   -1.4663    1.0419 C   0  0  0  0  0  0  0  0  0  0  0  0
    2.0175   -3.2967    1.0040 Br  0  0  0  0  0  0  0  0  0  0  0  0
   -0.2340    1.8268   -2.0220 N   0  0  0  0  0  0  0  0  0  0  0  0
   -1.1642    0.7502   -2.0150 C   0  0  0  0  0  0  0  0  0  0  0  0
   -2.8963   -0.4900   -0.8717 C   0  0  0  0  0  0  0  0  0  0  0  0
   -3.7126   -0.6393    0.2552 N   0  0  0  0  0  0  0  0  0  0  0  0
   -3.9352    0.4648    1.1846 C   0  0  0  0  0  0  0  0  0  0  0  0
   -4.8612   -1.5499    2.0646 C   0  0  0  0  0  0  0  0  0  0  0  0
   -4.1816   -1.8298    0.7456 C   0  0  0  0  0  0  0  0  0  0  0  0
   -4.0448   -2.9185    0.2265 O   0  0  0  0  0  0  0  0  0  0  0  0
   -1.2251   -0.1145   -3.0968 C   0  0  0  0  0  0  0  0  0  0  0  0
    1.8062    0.5173   -2.6609 O   0  0  0  0  0  0  0  0  0  0  0  0
    1.9000   -1.2066   -1.0674 H   0  0  0  0  0  0  0  0  0  0  0  0
   -1.9120    1.2604   -0.0854 H   0  0  0  0  0  0  0  0  0  0  0  0
   -5.0430    0.3974    3.0584 H   0  0  0  0  0  0  0  0  0  0  0  0
   -6.0314    0.2055    1.6119 H   0  0  0  0  0  0  0  0  0  0  0  0
   -3.6706   -2.1721   -1.9849 H   0  0  0  0  0  0  0  0  0  0  0  0
   -2.2037   -1.8384   -3.8963 H   0  0  0  0  0  0  0  0  0  0  0  0
    0.6437    0.9417    3.1971 H   0  0  0  0  0  0  0  0  0  0  0  0
    1.2080   -1.4286    3.1623 H   0  0  0  0  0  0  0  0  0  0  0  0
   -4.1935    1.3755    0.6446 H   0  0  0  0  0  0  0  0  0  0  0  0
   -3.0343    0.6620    1.7747 H   0  0  0  0  0  0  0  0  0  0  0  0
   -4.1828   -1.8645    2.8635 H   0  0  0  0  0  0  0  0  0  0  0  0
   -5.7741   -2.1355    2.1651 H   0  0  0  0  0  0  0  0  0  0  0  0
   -0.5954    0.0400   -3.9613 H   0  0  0  0  0  0  0  0  0  0  0  0
   -0.5510    2.6816   -1.5757 H   0  0  0  0  0  0  0  0  0  0  0  0
  1  8  2  0
  1 13  1  0
  2 16  2  0
  2 17  1  0
  3 19  1  0
  3 20  1  0
  4  5  1  0
  4 17  2  0
  5 23  2  0
  6  7  2  0
  7  8  1  0
  7 15  1  6
  7 24  2  0
  8  9  1  0
  9 10  1  0
  9 11  2  0
 11 12  1  0
 12 13  2  0
 13 14  1  0
 15 16  1  0
 16 23  1  0
 17 18  1  0
 18 19  1  0
 18 21  1  0
 20 21  1  0
 21 22  2  0
  1 25  1  0
  2 26  1  0
  3 27  1  0
  3 28  1  0
  4 29  1  0
  5 30  1  0
 11 31  1  0
 12 32  1  0
 15 38  1  0
 19 33  1  0
 19 34  1  0
 20 35  1  0
 20 36  1  0
 23 37  1  0
M  END
