
     RDKit          3D

 22 21  0  0  0  0  0  0  0  0999 V2000
    2.0372   -0.3273   -2.8054 N   0  0  0  0  0  0  0  0  0  0  0  0
    0.9017   -0.2542   -1.9115 C   0  0  1  0  0  0  0  0  0  0  0  0
    0.9708    0.8419   -0.8405 C   0  0  0  0  0  0  0  0  0  0  0  0
   -0.5107    1.0713    0.0795 S   0  0  0  0  0  0  0  0  0  0  0  0
   -0.8396   -0.7139    1.1452 S   0  0  0  0  0  0  0  0  0  0  0  0
    0.1708   -0.6520    2.5824 C   0  0  0  0  0  0  0  0  0  0  0  0
   -0.2479    0.4181    3.5666 C   0  0  0  0  0  0  0  0  0  0  0  0
    0.6666    0.3555    4.6511 O   0  0  0  0  0  0  0  0  0  0  0  0
   -0.3598   -0.0316   -2.7352 C   0  0  0  0  0  0  0  0  0  0  0  0
   -0.4864    0.6278   -3.7693 O   0  0  0  0  0  0  0  0  0  0  0  0
   -1.4576   -0.6517   -2.2361 O   0  0  0  0  0  0  0  0  0  0  0  0
    2.7931   -0.8175   -2.3712 H   0  0  0  0  0  0  0  0  0  0  0  0
    2.3375    0.5846   -3.0888 H   0  0  0  0  0  0  0  0  0  0  0  0
    0.8145   -1.2601   -1.3931 H   0  0  0  0  0  0  0  0  0  0  0  0
    1.8295    0.6468   -0.1533 H   0  0  0  0  0  0  0  0  0  0  0  0
    1.1338    1.8436   -1.3235 H   0  0  0  0  0  0  0  0  0  0  0  0
    0.0410   -1.6679    3.0431 H   0  0  0  0  0  0  0  0  0  0  0  0
    1.2529   -0.5306    2.3331 H   0  0  0  0  0  0  0  0  0  0  0  0
   -0.2015    1.4337    3.0871 H   0  0  0  0  0  0  0  0  0  0  0  0
   -1.2928    0.2329    3.9340 H   0  0  0  0  0  0  0  0  0  0  0  0
    0.3829    1.0210    5.2882 H   0  0  0  0  0  0  0  0  0  0  0  0
   -2.2232   -0.4693   -2.8065 H   0  0  0  0  0  0  0  0  0  0  0  0
  1  2  1  0
  1 12  1  0
  1 13  1  0
  2  3  1  0
  2  9  1  0
  2 14  1  1
  3  4  1  0
  3 15  1  0
  3 16  1  0
  4  5  1  0
  5  6  1  0
  6  7  1  0
  6 17  1  0
  6 18  1  0
  7  8  1  0
  7 19  1  0
  7 20  1  0
  8 21  1  0
  9 10  2  0
  9 11  1  0
 11 22  1  0
M  END
