
     RDKit          3D

 38 40  0  0  0  0  0  0  0  0999 V2000
   -4.7388   -0.8369    1.2200 C   0  0  0  0  0  0  0  0  0  0  0  0
   -3.0129   -2.4616   -0.1954 C   0  0  0  0  0  0  0  0  0  0  0  0
   -0.4877    1.0663   -2.2869 C   0  0  0  0  0  0  0  0  0  0  0  0
    1.2653   -0.2816    0.1477 C   0  0  0  0  0  0  0  0  0  0  0  0
    3.6274    0.0877    0.3901 C   0  0  0  0  0  0  0  0  0  0  0  0
   -2.0317   -0.5872   -1.4412 C   0  0  0  0  0  0  0  0  0  0  0  0
   -1.4163    1.2836   -0.0080 C   0  0  0  0  0  0  0  0  0  0  0  0
   -0.3572    1.5357    0.7645 C   0  0  0  0  0  0  0  0  0  0  0  0
    2.0729    1.8109    0.9996 C   0  0  0  0  0  0  0  0  0  0  0  0
    2.5666   -0.7375    0.0344 C   0  0  0  0  0  0  0  0  0  0  0  0
   -2.7205    1.9469    0.2972 C   0  0  0  0  0  0  0  0  0  0  0  0
   -4.7965   -2.2081    1.3781 C   0  0  0  0  0  0  0  0  0  0  0  0
    5.0372   -0.3787    0.2068 C   0  0  1  0  0  0  0  0  0  0  0  0
   -2.8050    3.1304    0.5564 O   0  0  0  0  0  0  0  0  0  0  0  0
   -3.8111    1.1376    0.2464 N   0  0  0  0  0  0  0  0  0  0  0  0
   -3.8029   -0.2575    0.3624 C   0  0  0  0  0  0  0  0  0  0  0  0
   -2.9422   -1.0779   -0.3714 C   0  0  0  0  0  0  0  0  0  0  0  0
   -3.9165   -3.0290    0.6812 C   0  0  0  0  0  0  0  0  0  0  0  0
   -1.3538    0.5664   -1.2236 N   0  0  0  0  0  0  0  0  0  0  0  0
   -1.8802   -1.2257   -2.4697 O   0  0  0  0  0  0  0  0  0  0  0  0
    0.9989    1.0050    0.6186 C   0  0  0  0  0  0  0  0  0  0  0  0
    3.3774    1.3655    0.8757 C   0  0  0  0  0  0  0  0  0  0  0  0
    5.8685    0.1525    1.1103 F   0  0  0  0  0  0  0  0  0  0  0  0
    5.1496   -1.7077    0.3029 F   0  0  0  0  0  0  0  0  0  0  0  0
    5.5123   -0.0372   -1.0012 F   0  0  0  0  0  0  0  0  0  0  0  0
   -5.4176   -0.1973    1.7704 H   0  0  0  0  0  0  0  0  0  0  0  0
   -2.3485   -3.0965   -0.7660 H   0  0  0  0  0  0  0  0  0  0  0  0
   -1.0428    1.1435   -3.2198 H   0  0  0  0  0  0  0  0  0  0  0  0
   -0.1322    2.0546   -2.0129 H   0  0  0  0  0  0  0  0  0  0  0  0
    0.3730    0.4169   -2.4447 H   0  0  0  0  0  0  0  0  0  0  0  0
    0.4577   -0.9520   -0.1107 H   0  0  0  0  0  0  0  0  0  0  0  0
   -0.5026    2.2373    1.5783 H   0  0  0  0  0  0  0  0  0  0  0  0
    1.8861    2.8037    1.3886 H   0  0  0  0  0  0  0  0  0  0  0  0
    2.7384   -1.7425   -0.3265 H   0  0  0  0  0  0  0  0  0  0  0  0
   -5.5253   -2.6370    2.0530 H   0  0  0  0  0  0  0  0  0  0  0  0
   -4.6802    1.5907    0.4983 H   0  0  0  0  0  0  0  0  0  0  0  0
   -3.9474   -4.1020    0.8112 H   0  0  0  0  0  0  0  0  0  0  0  0
    4.1869    2.0217    1.1666 H   0  0  0  0  0  0  0  0  0  0  0  0
  1 12  2  0
  1 16  1  0
 12 18  1  0
 15 16  1  0
 15 11  1  0
 14 11  2  0
 16 17  2  0
 11  7  1  0
 18  2  2  0
 17  2  1  0
 17  6  1  0
  7  8  2  0
  7 19  1  0
  8 21  1  0
  6 19  1  0
  6 20  2  0
 19  3  1  0
 21  9  1  0
 21  4  2  0
  9 22  2  0
  4 10  1  0
 22  5  1  0
 10  5  2  0
  5 13  1  0
 13 24  1  6
 13 25  1  0
 13 23  1  0
  1 26  1  0
  2 27  1  0
  3 28  1  0
  3 29  1  0
  3 30  1  0
  4 31  1  0
  8 32  1  0
  9 33  1  0
 10 34  1  0
 12 35  1  0
 15 36  1  0
 18 37  1  0
 22 38  1  0
M  END
