
     RDKit          3D

 19 19  0  0  0  0  0  0  0  0999 V2000
   -2.5054   -0.1163   -0.2307 O   0  0  0  0  0  0  0  0  0  0  0  0
   -1.3382    0.0119    0.1251 C   0  0  0  0  0  0  0  0  0  0  0  0
   -0.7039    1.1932    0.0404 N   0  0  0  0  0  0  0  0  0  0  0  0
   -0.5385   -1.1546    0.6590 C   0  0  0  0  0  0  0  0  0  0  0  0
    0.6378   -1.5571   -0.2399 C   0  0  0  0  0  0  0  0  0  0  0  0
    1.8887   -0.7034   -0.0689 C   0  0  0  0  0  0  0  0  0  0  0  0
    1.7221    0.7731   -0.4033 C   0  0  0  0  0  0  0  0  0  0  0  0
    0.6631    1.4843    0.4298 C   0  0  0  0  0  0  0  0  0  0  0  0
   -1.2410    1.9544   -0.3461 H   0  0  0  0  0  0  0  0  0  0  0  0
   -0.1715   -0.9302    1.6663 H   0  0  0  0  0  0  0  0  0  0  0  0
   -1.2293   -1.9915    0.7562 H   0  0  0  0  0  0  0  0  0  0  0  0
    0.8957   -2.5914   -0.0034 H   0  0  0  0  0  0  0  0  0  0  0  0
    0.3186   -1.5580   -1.2864 H   0  0  0  0  0  0  0  0  0  0  0  0
    2.2325   -0.7926    0.9673 H   0  0  0  0  0  0  0  0  0  0  0  0
    2.6864   -1.1198   -0.6890 H   0  0  0  0  0  0  0  0  0  0  0  0
    2.6762    1.2775   -0.2312 H   0  0  0  0  0  0  0  0  0  0  0  0
    1.4875    0.9038   -1.4639 H   0  0  0  0  0  0  0  0  0  0  0  0
    0.7817    2.5611    0.3209 H   0  0  0  0  0  0  0  0  0  0  0  0
    0.8132    1.2658    1.4918 H   0  0  0  0  0  0  0  0  0  0  0  0
  1  2  2  0
  2  3  1  0
  2  4  1  0
  3  8  1  0
  4  5  1  0
  5  6  1  0
  6  7  1  0
  7  8  1  0
  3  9  1  0
  4 10  1  0
  4 11  1  0
  5 12  1  0
  5 13  1  0
  6 14  1  0
  6 15  1  0
  7 16  1  0
  7 17  1  0
  8 18  1  0
  8 19  1  0
M  END
