
     RDKit          3D

 43 44  0  0  0  0  0  0  0  0999 V2000
    0.8847    0.2828    1.0180 C   0  0  0  0  0  0  0  0  0  0  0  0
    1.5869   -0.4971   -0.1056 C   0  0  1  0  0  0  0  0  0  0  0  0
    2.4830    0.3458   -1.0033 C   0  0  0  0  0  0  0  0  0  0  0  0
    2.1502    1.2687   -1.7993 N   0  0  0  0  0  0  0  0  0  0  0  0
    3.8971   -0.1543   -0.8834 C   0  0  0  0  0  0  0  0  0  0  0  0
    3.6931   -1.6270   -0.5074 C   0  0  1  0  0  0  0  0  0  0  0  0
    4.9134   -2.3094    0.0433 C   0  0  0  0  0  0  0  0  0  0  0  0
    4.9523   -2.9267    1.0781 O   0  0  0  0  0  0  0  0  0  0  0  0
    5.9623   -2.1669   -0.7584 O   0  0  0  0  0  0  0  0  0  0  0  0
    2.5135   -1.5818    0.4615 C   0  0  0  0  0  0  0  0  0  0  0  0
   -0.0688    1.3580    0.5676 C   0  0  0  0  0  0  0  0  0  0  0  0
    0.3083    2.6986    0.5282 C   0  0  0  0  0  0  0  0  0  0  0  0
    1.5273    3.1505    0.8784 O   0  0  0  0  0  0  0  0  0  0  0  0
   -0.6043    3.6748    0.0989 C   0  0  0  0  0  0  0  0  0  0  0  0
   -0.2064    5.1179    0.0467 C   0  0  0  0  0  0  0  0  0  0  0  0
   -1.8291    3.3479   -0.2706 N   0  0  0  0  0  0  0  0  0  0  0  0
   -2.2105    2.0748   -0.2321 C   0  0  0  0  0  0  0  0  0  0  0  0
   -1.3800    1.0467    0.1775 C   0  0  0  0  0  0  0  0  0  0  0  0
   -1.8492   -0.3802    0.2270 C   0  0  0  0  0  0  0  0  0  0  0  0
   -3.2030   -0.4507   -0.2011 O   0  0  0  0  0  0  0  0  0  0  0  0
   -3.9911   -1.8390   -0.1039 P   0  0  1  0  0  0  0  0  0  0  0  0
   -4.2715   -2.0998    1.4461 O   0  0  0  0  0  0  0  0  0  0  0  0
   -5.3417   -1.3281   -0.7730 O   0  0  0  0  0  0  0  0  0  0  0  0
   -3.3232   -3.0130   -0.6939 O   0  0  0  0  0  0  0  0  0  0  0  0
    0.3490   -0.4411    1.6373 H   0  0  0  0  0  0  0  0  0  0  0  0
    1.6491    0.6829    1.6907 H   0  0  0  0  0  0  0  0  0  0  0  0
    0.8321   -0.9632   -0.7462 H   0  0  0  0  0  0  0  0  0  0  0  0
    1.1474    1.4382   -1.7680 H   0  0  0  0  0  0  0  0  0  0  0  0
    4.4728    0.0122   -1.7915 H   0  0  0  0  0  0  0  0  0  0  0  0
    4.3977    0.3739   -0.0638 H   0  0  0  0  0  0  0  0  0  0  0  0
    3.4029   -2.1755   -1.4121 H   0  0  0  0  0  0  0  0  0  0  0  0
    6.7295   -2.6300   -0.3890 H   0  0  0  0  0  0  0  0  0  0  0  0
    2.8670   -1.2887    1.4540 H   0  0  0  0  0  0  0  0  0  0  0  0
    2.0094   -2.5415    0.5663 H   0  0  0  0  0  0  0  0  0  0  0  0
    2.1048    2.4381    1.1703 H   0  0  0  0  0  0  0  0  0  0  0  0
    0.6292    5.2820   -0.6363 H   0  0  0  0  0  0  0  0  0  0  0  0
   -1.0475    5.7186   -0.2931 H   0  0  0  0  0  0  0  0  0  0  0  0
    0.1051    5.4882    1.0250 H   0  0  0  0  0  0  0  0  0  0  0  0
   -3.2283    1.8783   -0.5420 H   0  0  0  0  0  0  0  0  0  0  0  0
   -1.2304   -1.0110   -0.4173 H   0  0  0  0  0  0  0  0  0  0  0  0
   -1.7528   -0.7637    1.2485 H   0  0  0  0  0  0  0  0  0  0  0  0
   -4.7529   -1.4025    1.9116 H   0  0  0  0  0  0  0  0  0  0  0  0
   -5.9710   -2.0321   -0.9802 H   0  0  0  0  0  0  0  0  0  0  0  0
  8  7  2  0
 24 21  2  0
 21 22  1  1
 23 21  1  0
 21 20  1  0
  7  9  1  0
  7  6  1  0
  5  3  1  0
  5  6  1  0
  4  3  2  0
  3  2  1  0
  6 10  1  0
 20 19  1  0
 10  2  1  0
 19 18  1  0
  2  1  1  0
  1 11  1  0
 18 11  1  0
 18 17  2  0
 11 12  2  0
 17 16  1  0
 12 13  1  0
 12 14  1  0
 16 14  2  0
 14 15  1  0
  1 25  1  0
  1 26  1  0
  2 27  1  6
  4 28  1  0
  5 29  1  0
  5 30  1  0
  6 31  1  6
  9 32  1  0
 10 33  1  0
 10 34  1  0
 13 35  1  0
 15 36  1  0
 15 37  1  0
 15 38  1  0
 17 39  1  0
 19 40  1  0
 19 41  1  0
 22 42  1  0
 23 43  1  0
M  END
