
     RDKit          3D

 32 32  0  0  0  0  0  0  0  0999 V2000
    1.0870   -0.5284    1.9608 C   0  0  1  0  0  0  0  0  0  0  0  0
    2.1525   -1.5981    1.0256 Cl  0  0  0  0  0  0  0  0  0  0  0  0
    2.0304    0.4431    3.0928 Cl  0  0  0  0  0  0  0  0  0  0  0  0
    0.3577    0.3938    0.9786 C   0  0  0  0  0  0  0  0  0  0  0  0
    0.9198    1.3384    0.4702 O   0  0  0  0  0  0  0  0  0  0  0  0
   -0.9094    0.0190    0.7660 N   0  0  0  0  0  0  0  0  0  0  0  0
   -1.8263    0.7162   -0.1131 C   0  0  2  0  0  0  0  0  0  0  0  0
   -3.1483    0.9320    0.6156 C   0  0  0  0  0  0  0  0  0  0  0  0
   -3.6261   -0.2837    1.1473 O   0  0  0  0  0  0  0  0  0  0  0  0
   -1.9626    0.0108   -1.4767 C   0  0  2  0  0  0  0  0  0  0  0  0
   -2.5490   -1.2627   -1.3802 O   0  0  0  0  0  0  0  0  0  0  0  0
   -0.6399    0.0034   -2.2064 C   0  0  0  0  0  0  0  0  0  0  0  0
   -0.2689    1.0962   -2.9831 C   0  0  0  0  0  0  0  0  0  0  0  0
    0.9576    1.1523   -3.6216 C   0  0  0  0  0  0  0  0  0  0  0  0
    1.8712    0.0992   -3.5000 C   0  0  0  0  0  0  0  0  0  0  0  0
    3.1209    0.1695   -4.0851 N   0  0  0  0  0  0  0  0  0  0  0  0
    1.4986   -1.0034   -2.7251 C   0  0  0  0  0  0  0  0  0  0  0  0
    0.2658   -1.0457   -2.0956 C   0  0  0  0  0  0  0  0  0  0  0  0
    0.4170   -1.1592    2.5400 H   0  0  0  0  0  0  0  0  0  0  0  0
   -1.2989   -0.7236    1.3281 H   0  0  0  0  0  0  0  0  0  0  0  0
   -1.4133    1.7066   -0.3136 H   0  0  0  0  0  0  0  0  0  0  0  0
   -2.9767    1.6680    1.4073 H   0  0  0  0  0  0  0  0  0  0  0  0
   -3.8654    1.3780   -0.0851 H   0  0  0  0  0  0  0  0  0  0  0  0
   -4.1009   -0.0907    1.9594 H   0  0  0  0  0  0  0  0  0  0  0  0
   -2.6664    0.6171   -2.0568 H   0  0  0  0  0  0  0  0  0  0  0  0
   -2.0417   -1.8071   -0.7698 H   0  0  0  0  0  0  0  0  0  0  0  0
   -0.9563    1.9279   -3.0968 H   0  0  0  0  0  0  0  0  0  0  0  0
    1.2113    2.0157   -4.2262 H   0  0  0  0  0  0  0  0  0  0  0  0
    3.5609   -0.7173   -4.2726 H   0  0  0  0  0  0  0  0  0  0  0  0
    3.1939    0.7892   -4.8764 H   0  0  0  0  0  0  0  0  0  0  0  0
    2.1854   -1.8345   -2.6142 H   0  0  0  0  0  0  0  0  0  0  0  0
    0.0283   -1.9227   -1.5053 H   0  0  0  0  0  0  0  0  0  0  0  0
  1  2  1  0
  1  3  1  0
  1  4  1  0
  1 19  1  1
  4  5  2  0
  4  6  1  0
  6  7  1  0
  6 20  1  0
  7  8  1  0
  7 10  1  0
  7 21  1  6
  8  9  1  0
  8 22  1  0
  8 23  1  0
  9 24  1  0
 10 11  1  0
 10 12  1  0
 10 25  1  6
 11 26  1  0
 12 13  2  0
 12 18  1  0
 13 14  1  0
 13 27  1  0
 14 15  2  0
 14 28  1  0
 15 16  1  0
 15 17  1  0
 16 29  1  0
 16 30  1  0
 17 18  2  0
 17 31  1  0
 18 32  1  0
M  END
