
     RDKit          3D

 45 48  0  0  0  0  0  0  0  0999 V2000
    1.6384    0.1626   -2.7131 C   0  0  0  0  0  0  0  0  0  0  0  0
    1.5585   -0.8383   -3.8588 C   0  0  0  0  0  0  0  0  0  0  0  0
    0.3190   -0.6447   -4.6892 C   0  0  0  0  0  0  0  0  0  0  0  0
   -0.8693   -0.2336   -3.9576 C   0  0  0  0  0  0  0  0  0  0  0  0
   -0.8600    0.0803   -2.6402 C   0  0  0  0  0  0  0  0  0  0  0  0
   -2.1452    0.3479   -1.9212 C   0  0  0  0  0  0  0  0  0  0  0  0
   -2.0889   -0.2400   -0.5206 C   0  0  0  0  0  0  0  0  0  0  0  0
   -0.9431    0.3971    0.2466 C   0  0  2  0  0  0  0  0  0  0  0  0
    0.3600    0.3450   -0.5334 C   0  0  0  0  0  0  0  0  0  0  0  0
    0.3805    0.1804   -1.8831 C   0  0  0  0  0  0  0  0  0  0  0  0
    1.5891    0.4823    0.2441 C   0  0  0  0  0  0  0  0  0  0  0  0
    1.6283    0.5274    1.5842 C   0  0  0  0  0  0  0  0  0  0  0  0
    0.3844    0.4817    2.4051 C   0  0  1  0  0  0  0  0  0  0  0  0
   -0.7081   -0.2344    1.6071 C   0  0  1  0  0  0  0  0  0  0  0  0
   -1.8489   -0.3587    2.6110 C   0  0  0  0  0  0  0  0  0  0  0  0
   -1.1182   -0.5918    3.9555 C   0  0  0  0  0  0  0  0  0  0  0  0
    0.4022   -0.3642    3.7004 C   0  0  1  0  0  0  0  0  0  0  0  0
    0.0119    1.9374    2.7513 C   0  0  0  0  0  0  0  0  0  0  0  0
    1.1327   -1.6955    3.5283 C   0  0  0  0  0  0  0  0  0  0  0  0
    0.2921   -0.8848   -5.8861 O   0  0  0  0  0  0  0  0  0  0  0  0
    1.0370    0.3729    4.7244 O   0  0  0  0  0  0  0  0  0  0  0  0
    2.5202   -0.0625   -2.1180 H   0  0  0  0  0  0  0  0  0  0  0  0
    1.7945    1.1644   -3.1291 H   0  0  0  0  0  0  0  0  0  0  0  0
    1.5232   -1.8571   -3.4558 H   0  0  0  0  0  0  0  0  0  0  0  0
    2.4442   -0.7768   -4.4921 H   0  0  0  0  0  0  0  0  0  0  0  0
   -1.8099   -0.2502   -4.4981 H   0  0  0  0  0  0  0  0  0  0  0  0
   -2.9864   -0.0502   -2.4902 H   0  0  0  0  0  0  0  0  0  0  0  0
   -2.2956    1.4310   -1.8477 H   0  0  0  0  0  0  0  0  0  0  0  0
   -1.9515   -1.3247   -0.5759 H   0  0  0  0  0  0  0  0  0  0  0  0
   -3.0320   -0.0592   -0.0022 H   0  0  0  0  0  0  0  0  0  0  0  0
   -1.2017    1.4562    0.3818 H   0  0  0  0  0  0  0  0  0  0  0  0
    2.5257    0.5657   -0.2910 H   0  0  0  0  0  0  0  0  0  0  0  0
    2.5831    0.6684    2.0812 H   0  0  0  0  0  0  0  0  0  0  0  0
   -0.3435   -1.2488    1.4046 H   0  0  0  0  0  0  0  0  0  0  0  0
   -2.5335   -1.1716    2.3669 H   0  0  0  0  0  0  0  0  0  0  0  0
   -2.4436    0.5578    2.6388 H   0  0  0  0  0  0  0  0  0  0  0  0
   -1.2979   -1.5998    4.3350 H   0  0  0  0  0  0  0  0  0  0  0  0
   -1.4754    0.0992    4.7208 H   0  0  0  0  0  0  0  0  0  0  0  0
   -0.2502    2.5017    1.8567 H   0  0  0  0  0  0  0  0  0  0  0  0
   -0.8287    2.0033    3.4425 H   0  0  0  0  0  0  0  0  0  0  0  0
    0.8539    2.4503    3.2147 H   0  0  0  0  0  0  0  0  0  0  0  0
    1.0928   -2.2655    4.4604 H   0  0  0  0  0  0  0  0  0  0  0  0
    0.6869   -2.3264    2.7604 H   0  0  0  0  0  0  0  0  0  0  0  0
    2.1831   -1.5454    3.2725 H   0  0  0  0  0  0  0  0  0  0  0  0
    1.0724   -0.1750    5.5151 H   0  0  0  0  0  0  0  0  0  0  0  0
  1  2  1  0
  1 10  1  0
  1 22  1  0
  1 23  1  0
  2  3  1  0
  2 24  1  0
  2 25  1  0
  3  4  1  0
  3 20  2  0
  4  5  2  0
  4 26  1  0
  5  6  1  0
  5 10  1  0
  6  7  1  0
  6 27  1  0
  6 28  1  0
  7  8  1  0
  7 29  1  0
  7 30  1  0
  8  9  1  0
  8 14  1  0
  8 31  1  1
  9 10  2  0
  9 11  1  0
 11 12  2  0
 11 32  1  0
 12 13  1  0
 12 33  1  0
 13 14  1  0
 13 17  1  0
 13 18  1  1
 14 15  1  0
 14 34  1  6
 15 16  1  0
 15 35  1  0
 15 36  1  0
 16 17  1  0
 16 37  1  0
 16 38  1  0
 17 19  1  0
 17 21  1  1
 18 39  1  0
 18 40  1  0
 18 41  1  0
 19 42  1  0
 19 43  1  0
 19 44  1  0
 21 45  1  0
M  END
