
     RDKit          3D

 59 62  0  0  0  0  0  0  0  0999 V2000
   -8.4738   -1.6423   -0.7324 C   0  0  0  0  0  0  0  0  0  0  0  0
   -7.4349   -1.8985   -1.6175 C   0  0  0  0  0  0  0  0  0  0  0  0
   -8.2108   -0.9808    0.4600 C   0  0  0  0  0  0  0  0  0  0  0  0
    2.5707    6.3929   -1.2315 C   0  0  0  0  0  0  0  0  0  0  0  0
    3.6101    6.3922   -0.2887 C   0  0  0  0  0  0  0  0  0  0  0  0
   -6.1430   -1.4965   -1.3126 C   0  0  0  0  0  0  0  0  0  0  0  0
   -6.9191   -0.5773    0.7640 C   0  0  0  0  0  0  0  0  0  0  0  0
   -3.3944   -1.1897   -0.1464 C   0  0  0  0  0  0  0  0  0  0  0  0
   -4.2518    0.7956    0.8837 C   0  0  0  0  0  0  0  0  0  0  0  0
   -2.1034   -0.7891    0.1538 C   0  0  0  0  0  0  0  0  0  0  0  0
   -2.9640    1.1911    1.1973 C   0  0  0  0  0  0  0  0  0  0  0  0
    1.7746    5.2777   -1.4315 C   0  0  0  0  0  0  0  0  0  0  0  0
    3.8845    5.2763    0.4824 C   0  0  0  0  0  0  0  0  0  0  0  0
   -5.8662   -0.8299   -0.1175 C   0  0  0  0  0  0  0  0  0  0  0  0
   -4.4912   -0.4029    0.2073 C   0  0  0  0  0  0  0  0  0  0  0  0
   -1.8731    0.4100    0.8243 C   0  0  0  0  0  0  0  0  0  0  0  0
    2.0595    4.1616   -0.6544 C   0  0  0  0  0  0  0  0  0  0  0  0
    3.0947    4.1424    0.2957 C   0  0  0  0  0  0  0  0  0  0  0  0
    2.1788    2.2226    0.3700 C   0  0  0  0  0  0  0  0  0  0  0  0
   -0.5066    0.8737    1.1973 C   0  0  0  0  0  0  0  0  0  0  0  0
    4.3888   -4.8351   -0.4111 C   0  0  0  0  0  0  0  0  0  0  0  0
    3.9305   -6.2132    0.0061 C   0  0  0  0  0  0  0  0  0  0  0  0
    2.8176   -0.1437   -0.0830 C   0  0  0  0  0  0  0  0  0  0  0  0
    3.6909   -2.4771   -0.3892 C   0  0  0  0  0  0  0  0  0  0  0  0
    1.8798    0.7863    0.6892 C   0  0  2  0  0  0  0  0  0  0  0  0
    1.5003    2.9132   -0.5793 N   0  0  0  0  0  0  0  0  0  0  0  0
    5.4848   -4.7043   -1.0471 N   0  0  0  0  0  0  0  0  0  0  0  0
    3.1375    2.9156    0.9175 N   0  0  0  0  0  0  0  0  0  0  0  0
    0.5027    0.4557    0.4050 N   0  0  0  0  0  0  0  0  0  0  0  0
    3.5369   -3.8603   -0.0010 N   0  0  0  0  0  0  0  0  0  0  0  0
   -0.3137    1.5938    2.1649 O   0  0  0  0  0  0  0  0  0  0  0  0
   -9.4819   -1.9555   -0.9707 H   0  0  0  0  0  0  0  0  0  0  0  0
   -7.6312   -2.4082   -2.5519 H   0  0  0  0  0  0  0  0  0  0  0  0
   -9.0125   -0.7826    1.1594 H   0  0  0  0  0  0  0  0  0  0  0  0
    2.3871    7.2856   -1.8150 H   0  0  0  0  0  0  0  0  0  0  0  0
    4.2080    7.2857   -0.1648 H   0  0  0  0  0  0  0  0  0  0  0  0
   -5.3470   -1.6875   -2.0217 H   0  0  0  0  0  0  0  0  0  0  0  0
   -6.7272   -0.0793    1.7063 H   0  0  0  0  0  0  0  0  0  0  0  0
   -3.5465   -2.1414   -0.6390 H   0  0  0  0  0  0  0  0  0  0  0  0
   -5.0801    1.4371    1.1562 H   0  0  0  0  0  0  0  0  0  0  0  0
   -1.2851   -1.4473   -0.1112 H   0  0  0  0  0  0  0  0  0  0  0  0
   -2.8056    2.1233    1.7229 H   0  0  0  0  0  0  0  0  0  0  0  0
    0.9730    5.2779   -2.1581 H   0  0  0  0  0  0  0  0  0  0  0  0
    4.6873    5.2793    1.2084 H   0  0  0  0  0  0  0  0  0  0  0  0
    3.8422   -6.2624    1.0940 H   0  0  0  0  0  0  0  0  0  0  0  0
    2.9496   -6.4283   -0.4251 H   0  0  0  0  0  0  0  0  0  0  0  0
    2.8209   -1.6958    1.4103 H   0  0  0  0  0  0  0  0  0  0  0  0
    1.6682   -1.9651    0.1111 H   0  0  0  0  0  0  0  0  0  0  0  0
    3.8396    0.1931    0.1026 H   0  0  0  0  0  0  0  0  0  0  0  0
    2.6422   -0.0299   -1.1577 H   0  0  0  0  0  0  0  0  0  0  0  0
    3.5847   -2.3555   -1.4745 H   0  0  0  0  0  0  0  0  0  0  0  0
    4.6989   -2.1409   -0.1297 H   0  0  0  0  0  0  0  0  0  0  0  0
    2.0623    0.6540    1.7586 H   0  0  0  0  0  0  0  0  0  0  0  0
    0.7172    2.5742   -1.1153 H   0  0  0  0  0  0  0  0  0  0  0  0
    5.6804   -3.7337   -1.2719 H   0  0  0  0  0  0  0  0  0  0  0  0
    0.2957   -0.0166   -0.4613 H   0  0  0  0  0  0  0  0  0  0  0  0
    2.6201   -4.1427    0.3093 H   0  0  0  0  0  0  0  0  0  0  0  0
    4.8213   -7.1735   -0.4144 F   0  0  0  0  0  0  0  0  0  0  0  0
    2.6769   -1.6028    0.3301 C   0  0  0  0  0  0  0  0  0  0  0  0
  1  3  2  0
  1  2  1  0
  3  7  1  0
  2  6  2  0
  7 14  2  0
  6 14  1  0
 14 15  1  0
  9 15  1  0
  9 11  2  0
 15  8  2  0
 11 16  1  0
  8 10  1  0
 16 10  2  0
 16 20  1  0
 29 20  1  0
 29 25  1  0
 20 31  2  0
 26 17  1  0
 26 19  1  0
 12 17  1  0
 12  4  2  0
 23 25  1  0
 23 59  1  0
 17 18  2  0
 25 19  1  0
 19 28  2  0
 22 21  1  0
  4  5  1  0
 24 59  1  0
 24 30  1  0
 18 28  1  0
 18 13  1  0
 21 30  1  0
 21 27  2  0
  5 13  2  0
  1 32  1  0
  2 33  1  0
  3 34  1  0
  4 35  1  0
  5 36  1  0
  6 37  1  0
  7 38  1  0
  8 39  1  0
  9 40  1  0
 10 41  1  0
 11 42  1  0
 12 43  1  0
 13 44  1  0
 22 45  1  0
 22 46  1  0
 59 47  1  0
 59 48  1  0
 23 49  1  0
 23 50  1  0
 24 51  1  0
 24 52  1  0
 25 53  1  1
 26 54  1  0
 27 55  1  0
 29 56  1  0
 30 57  1  0
 22 58  1  0
M  END
