
     RDKit          3D

 40 39  0  0  0  0  0  0  0  0999 V2000
    6.1470    1.4457    1.5433 O   0  0  0  0  0  0  0  0  0  0  0  0
    4.7642    1.4830    1.2811 C   0  0  0  0  0  0  0  0  0  0  0  0
    4.4056    0.3044    0.3893 C   0  0  1  0  0  0  0  0  0  0  0  0
    4.7119   -0.9273    0.9997 O   0  0  0  0  0  0  0  0  0  0  0  0
    2.9234    0.3654   -0.0172 C   0  0  1  0  0  0  0  0  0  0  0  0
    2.6194    1.5492   -0.7147 O   0  0  0  0  0  0  0  0  0  0  0  0
    2.5058   -0.8663   -0.8412 C   0  0  2  0  0  0  0  0  0  0  0  0
    3.2926   -0.9708   -1.9932 O   0  0  0  0  0  0  0  0  0  0  0  0
    1.0373   -0.7362   -1.2131 C   0  0  0  0  0  0  0  0  0  0  0  0
    0.7233   -0.5069   -2.3576 O   0  0  0  0  0  0  0  0  0  0  0  0
    0.0340   -0.9347   -0.1114 C   0  0  0  0  0  0  0  0  0  0  0  0
   -1.3057   -0.6010   -0.5175 N   0  0  0  0  0  0  0  0  0  0  0  0
   -2.2977   -0.8409    0.5029 C   0  0  2  0  0  0  0  0  0  0  0  0
   -2.6310   -2.3242    0.5552 C   0  0  0  0  0  0  0  0  0  0  0  0
   -2.3680   -3.1255   -0.3027 O   0  0  0  0  0  0  0  0  0  0  0  0
   -3.5820   -0.0522    0.2102 C   0  0  0  0  0  0  0  0  0  0  0  0
   -3.4001    1.4390    0.4518 C   0  0  0  0  0  0  0  0  0  0  0  0
   -4.6565    2.2310    0.2134 C   0  0  0  0  0  0  0  0  0  0  0  0
   -4.4713    3.5250    0.4514 O   0  0  0  0  0  0  0  0  0  0  0  0
   -5.7099    1.7704   -0.1485 O   0  0  0  0  0  0  0  0  0  0  0  0
   -3.2748   -2.6317    1.6752 O   0  0  0  0  0  0  0  0  0  0  0  0
    6.3648    2.2068    2.0884 H   0  0  0  0  0  0  0  0  0  0  0  0
    4.1731    1.4191    2.2086 H   0  0  0  0  0  0  0  0  0  0  0  0
    4.4720    2.4138    0.7839 H   0  0  0  0  0  0  0  0  0  0  0  0
    5.0216    0.3505   -0.5155 H   0  0  0  0  0  0  0  0  0  0  0  0
    4.2764   -0.9635    1.8586 H   0  0  0  0  0  0  0  0  0  0  0  0
    2.3201    0.3903    0.8967 H   0  0  0  0  0  0  0  0  0  0  0  0
    3.1257    1.5571   -1.5354 H   0  0  0  0  0  0  0  0  0  0  0  0
    2.6215   -1.7622   -0.2190 H   0  0  0  0  0  0  0  0  0  0  0  0
    2.7264   -0.7845   -2.7552 H   0  0  0  0  0  0  0  0  0  0  0  0
    0.0958   -1.9967    0.1527 H   0  0  0  0  0  0  0  0  0  0  0  0
    0.3724   -0.4015    0.7903 H   0  0  0  0  0  0  0  0  0  0  0  0
   -1.3368    0.3659   -0.8107 H   0  0  0  0  0  0  0  0  0  0  0  0
   -1.9496   -0.5542    1.5097 H   0  0  0  0  0  0  0  0  0  0  0  0
   -3.8866   -0.2432   -0.8211 H   0  0  0  0  0  0  0  0  0  0  0  0
   -4.3831   -0.4178    0.8528 H   0  0  0  0  0  0  0  0  0  0  0  0
   -3.0707    1.6171    1.4800 H   0  0  0  0  0  0  0  0  0  0  0  0
   -2.6187    1.8682   -0.1823 H   0  0  0  0  0  0  0  0  0  0  0  0
   -5.2906    4.0134    0.2824 H   0  0  0  0  0  0  0  0  0  0  0  0
   -3.5215   -3.5686    1.6714 H   0  0  0  0  0  0  0  0  0  0  0  0
  1  2  1  0
  4  3  1  0
  2  3  1  0
  3  5  1  0
  8  7  1  0
  5  7  1  0
  5  6  1  0
  7  9  1  0
  9 11  1  0
  9 10  2  0
 11 12  1  0
 12 13  1  0
 15 14  2  0
 14 13  1  0
 14 21  1  0
 13 16  1  0
 16 17  1  0
 17 18  1  0
 20 18  2  0
 18 19  1  0
  1 22  1  0
  2 23  1  0
  2 24  1  0
  3 25  1  6
  4 26  1  0
  5 27  1  1
  6 28  1  0
  7 29  1  1
  8 30  1  0
 11 31  1  0
 11 32  1  0
 12 33  1  0
 13 34  1  1
 16 35  1  0
 16 36  1  0
 17 37  1  0
 17 38  1  0
 19 39  1  0
 21 40  1  0
M  END
