
     RDKit          3D

 30 32  0  0  0  0  0  0  0  0999 V2000
   -0.3871    1.5807   -0.2366 C   0  0  0  0  0  0  0  0  0  0  0  0
   -1.8222    1.7369   -0.2420 C   0  0  0  0  0  0  0  0  0  0  0  0
   -2.3826    2.8154   -0.3941 O   0  0  0  0  0  0  0  0  0  0  0  0
   -2.5645    0.4818   -0.0619 C   0  0  0  0  0  0  0  0  0  0  0  0
   -3.9626    0.4420   -0.0606 C   0  0  0  0  0  0  0  0  0  0  0  0
   -4.6280   -0.7528    0.1069 C   0  0  0  0  0  0  0  0  0  0  0  0
   -3.9034   -1.9362    0.2760 C   0  0  0  0  0  0  0  0  0  0  0  0
   -2.5238   -1.9248    0.2770 C   0  0  0  0  0  0  0  0  0  0  0  0
   -1.8663   -0.7100    0.1066 C   0  0  0  0  0  0  0  0  0  0  0  0
   -0.5143   -0.7425    0.1206 O   0  0  0  0  0  0  0  0  0  0  0  0
    0.2001    0.3765   -0.0509 C   0  0  0  0  0  0  0  0  0  0  0  0
    1.6450    0.1327   -0.0281 C   0  0  0  0  0  0  0  0  0  0  0  0
    2.1655   -1.1307   -0.3152 C   0  0  0  0  0  0  0  0  0  0  0  0
    3.5341   -1.3410   -0.3139 C   0  0  0  0  0  0  0  0  0  0  0  0
    4.4251   -0.3120   -0.0173 C   0  0  0  0  0  0  0  0  0  0  0  0
    5.9033   -0.5556    0.0179 C   0  0  0  0  0  0  0  0  0  0  0  0
    3.8979    0.9454    0.2753 C   0  0  0  0  0  0  0  0  0  0  0  0
    2.5327    1.1674    0.2722 C   0  0  0  0  0  0  0  0  0  0  0  0
    0.2290    2.4531   -0.4023 H   0  0  0  0  0  0  0  0  0  0  0  0
   -4.5139    1.3632   -0.1944 H   0  0  0  0  0  0  0  0  0  0  0  0
   -5.7090   -0.7779    0.1083 H   0  0  0  0  0  0  0  0  0  0  0  0
   -4.4262   -2.8737    0.4103 H   0  0  0  0  0  0  0  0  0  0  0  0
   -1.9549   -2.8358    0.4093 H   0  0  0  0  0  0  0  0  0  0  0  0
    1.5112   -1.9564   -0.5597 H   0  0  0  0  0  0  0  0  0  0  0  0
    3.9150   -2.3263   -0.5540 H   0  0  0  0  0  0  0  0  0  0  0  0
    6.2219   -0.8404    1.0229 H   0  0  0  0  0  0  0  0  0  0  0  0
    6.1922   -1.3625   -0.6543 H   0  0  0  0  0  0  0  0  0  0  0  0
    6.4626    0.3376   -0.2580 H   0  0  0  0  0  0  0  0  0  0  0  0
    4.5652    1.7644    0.5150 H   0  0  0  0  0  0  0  0  0  0  0  0
    2.1615    2.1520    0.5255 H   0  0  0  0  0  0  0  0  0  0  0  0
 16 15  1  0
 15 17  2  0
 15 14  1  0
 17 18  1  0
 14 13  2  0
 18 12  2  0
 13 12  1  0
 12 11  1  0
 11 10  1  0
 11  1  2  0
 10  9  1  0
  1  2  1  0
  9  8  1  0
  9  4  2  0
  8  7  2  0
  2  4  1  0
  2  3  2  0
  4  5  1  0
  7  6  1  0
  5  6  2  0
  1 19  1  0
  5 20  1  0
  6 21  1  0
  7 22  1  0
  8 23  1  0
 13 24  1  0
 14 25  1  0
 16 26  1  0
 16 27  1  0
 16 28  1  0
 17 29  1  0
 18 30  1  0
M  END
