
     RDKit          3D

 51 54  0  0  0  0  0  0  0  0999 V2000
   -5.7213   -4.5518   -1.6650 C   0  0  0  0  0  0  0  0  0  0  0  0
   -4.8199   -3.6471   -0.8665 C   0  0  0  0  0  0  0  0  0  0  0  0
   -4.5765   -1.2176   -0.3668 C   0  0  0  0  0  0  0  0  0  0  0  0
   -3.4274   -1.2598    0.4285 C   0  0  0  0  0  0  0  0  0  0  0  0
   -2.8917   -0.0852    0.9282 C   0  0  0  0  0  0  0  0  0  0  0  0
   -3.4899    1.1349    0.6476 C   0  0  0  0  0  0  0  0  0  0  0  0
   -0.6507    2.1752   -0.3611 C   0  0  0  0  0  0  0  0  0  0  0  0
    0.5145    2.1267    0.3904 C   0  0  0  0  0  0  0  0  0  0  0  0
    1.5351    1.2485    0.0555 C   0  0  0  0  0  0  0  0  0  0  0  0
    1.3891    0.4187   -1.0504 C   0  0  0  0  0  0  0  0  0  0  0  0
    3.4347   -0.6970   -0.6774 C   0  0  0  0  0  0  0  0  0  0  0  0
    3.2814   -1.5250    0.4548 C   0  0  0  0  0  0  0  0  0  0  0  0
    4.3720   -1.8248    1.2208 C   0  0  0  0  0  0  0  0  0  0  0  0
    5.6530   -1.3169    0.8969 C   0  0  0  0  0  0  0  0  0  0  0  0
    6.7962   -1.6164    1.6734 C   0  0  0  0  0  0  0  0  0  0  0  0
    8.0212   -1.1091    1.3349 C   0  0  0  0  0  0  0  0  0  0  0  0
    8.1585   -0.2801    0.2017 C   0  0  0  0  0  0  0  0  0  0  0  0
    7.0706    0.0238   -0.5708 C   0  0  0  0  0  0  0  0  0  0  0  0
    5.7920   -0.4854   -0.2445 C   0  0  0  0  0  0  0  0  0  0  0  0
    4.6502   -0.1817   -1.0227 C   0  0  0  0  0  0  0  0  0  0  0  0
    0.2250    0.4648   -1.8117 C   0  0  0  0  0  0  0  0  0  0  0  0
   -0.7911    1.3329   -1.4602 C   0  0  0  0  0  0  0  0  0  0  0  0
   -4.6339    1.1906   -0.1409 C   0  0  0  0  0  0  0  0  0  0  0  0
   -5.1707    0.0224   -0.6368 C   0  0  0  0  0  0  0  0  0  0  0  0
   -5.1894   -2.3322   -0.9211 N   0  0  0  0  0  0  0  0  0  0  0  0
   -1.6812    3.0866   -0.0063 N   0  0  0  0  0  0  0  0  0  0  0  0
   -3.8507   -4.0483   -0.2533 O   0  0  0  0  0  0  0  0  0  0  0  0
   -3.7456    3.6774    1.2435 O   0  0  0  0  0  0  0  0  0  0  0  0
   -1.9383    2.3320    2.3714 O   0  0  0  0  0  0  0  0  0  0  0  0
    2.3482   -0.4462   -1.4769 O   0  0  0  0  0  0  0  0  0  0  0  0
   -2.7396    2.6299    1.1981 S   0  0  1  0  0  0  0  0  0  0  0  0
   -5.5051   -5.5915   -1.4363 H   0  0  0  0  0  0  0  0  0  0  0  0
   -6.7739   -4.3554   -1.4624 H   0  0  0  0  0  0  0  0  0  0  0  0
   -5.5573   -4.3906   -2.7321 H   0  0  0  0  0  0  0  0  0  0  0  0
   -2.9458   -2.1940    0.6611 H   0  0  0  0  0  0  0  0  0  0  0  0
   -2.0035   -0.1381    1.5427 H   0  0  0  0  0  0  0  0  0  0  0  0
    0.6385    2.7901    1.2350 H   0  0  0  0  0  0  0  0  0  0  0  0
    2.4376    1.2380    0.6519 H   0  0  0  0  0  0  0  0  0  0  0  0
    2.3057   -1.9238    0.7029 H   0  0  0  0  0  0  0  0  0  0  0  0
    4.2626   -2.4648    2.0877 H   0  0  0  0  0  0  0  0  0  0  0  0
    6.6885   -2.2555    2.5415 H   0  0  0  0  0  0  0  0  0  0  0  0
    8.8906   -1.3418    1.9357 H   0  0  0  0  0  0  0  0  0  0  0  0
    9.1324    0.1155   -0.0554 H   0  0  0  0  0  0  0  0  0  0  0  0
    7.1776    0.6599   -1.4412 H   0  0  0  0  0  0  0  0  0  0  0  0
    4.7469    0.4547   -1.8944 H   0  0  0  0  0  0  0  0  0  0  0  0
    0.1177   -0.1832   -2.6719 H   0  0  0  0  0  0  0  0  0  0  0  0
   -1.6979    1.3576   -2.0517 H   0  0  0  0  0  0  0  0  0  0  0  0
   -5.1131    2.1332   -0.3676 H   0  0  0  0  0  0  0  0  0  0  0  0
   -6.0660    0.0696   -1.2446 H   0  0  0  0  0  0  0  0  0  0  0  0
   -6.0149   -2.1329   -1.4665 H   0  0  0  0  0  0  0  0  0  0  0  0
   -2.1819    3.4782   -0.7980 H   0  0  0  0  0  0  0  0  0  0  0  0
 28 31  2  0
  9  8  2  0
  9 10  1  0
 16 15  1  0
 16 17  2  0
 15 14  2  0
  8  7  1  0
 17 18  1  0
 14 13  1  0
 14 19  1  0
 13 12  2  0
 18 19  2  0
 19 20  1  0
 12 11  1  0
 20 11  2  0
 11 30  1  0
 30 10  1  0
 10 21  2  0
 29 31  2  0
 31 26  1  6
 31  6  1  0
  7 26  1  0
  7 22  2  0
 23  6  2  0
 23 24  1  0
  6  5  1  0
 24  3  2  0
 21 22  1  0
  5  4  2  0
  3  4  1  0
  3 25  1  0
 25  2  1  0
  2  1  1  0
  2 27  2  0
  1 32  1  0
  1 33  1  0
  1 34  1  0
  4 35  1  0
  5 36  1  0
  8 37  1  0
  9 38  1  0
 12 39  1  0
 13 40  1  0
 15 41  1  0
 16 42  1  0
 17 43  1  0
 18 44  1  0
 20 45  1  0
 21 46  1  0
 22 47  1  0
 23 48  1  0
 24 49  1  0
 25 50  1  0
 26 51  1  0
M  END
