
     RDKit          3D

 40 41  0  0  0  0  0  0  0  0999 V2000
   -0.1152   -0.6644    0.2814 C   0  0  0  0  0  0  0  0  0  0  0  0
    0.2549   -0.3479   -1.0237 C   0  0  0  0  0  0  0  0  0  0  0  0
    0.2157    0.9576   -1.4897 C   0  0  0  0  0  0  0  0  0  0  0  0
   -0.2126    1.9707   -0.6472 C   0  0  0  0  0  0  0  0  0  0  0  0
   -0.5916    1.6925    0.6598 C   0  0  0  0  0  0  0  0  0  0  0  0
   -0.5262    0.3875    1.0970 C   0  0  0  0  0  0  0  0  0  0  0  0
   -0.1052   -1.9599    0.7781 N   0  0  0  0  0  0  0  0  0  0  0  0
    0.7486   -2.9445    0.3210 C   0  0  0  0  0  0  0  0  0  0  0  0
    2.1228   -2.7278    0.1315 C   0  0  0  0  0  0  0  0  0  0  0  0
    2.9276   -3.7477   -0.3610 C   0  0  0  0  0  0  0  0  0  0  0  0
    2.4135   -5.0049   -0.6397 C   0  0  0  0  0  0  0  0  0  0  0  0
    1.0690   -5.2215   -0.4279 C   0  0  0  0  0  0  0  0  0  0  0  0
    0.2473   -4.2077    0.0268 C   0  0  0  0  0  0  0  0  0  0  0  0
    2.7516   -1.4536    0.5982 C   0  0  0  0  0  0  0  0  0  0  0  0
    3.4971   -0.8523   -0.3432 N   0  0  0  0  0  0  0  0  0  0  0  0
    2.6096   -1.0249    1.7276 O   0  0  0  0  0  0  0  0  0  0  0  0
    4.2307    0.2439   -0.0297 O   0  0  0  0  0  0  0  0  0  0  0  0
    3.4828    1.4464   -0.2132 C   0  0  0  0  0  0  0  0  0  0  0  0
    3.5634    3.8905    0.1891 C   0  0  0  0  0  0  0  0  0  0  0  0
    5.5379    2.6884   -0.5860 O   0  0  0  0  0  0  0  0  0  0  0  0
    4.3676    4.9353    0.6759 O   0  0  0  0  0  0  0  0  0  0  0  0
    4.3746    2.6038    0.2002 C   0  0  2  0  0  0  0  0  0  0  0  0
   -0.3070    3.9471   -1.3477 I   0  0  0  0  0  0  0  0  0  0  0  0
   -0.8887    0.1064    2.3555 F   0  0  0  0  0  0  0  0  0  0  0  0
   -1.0591   -4.4444    0.1829 F   0  0  0  0  0  0  0  0  0  0  0  0
    0.5252   -6.4116   -0.6842 F   0  0  0  0  0  0  0  0  0  0  0  0
   -0.9238    2.4644    1.3415 H   0  0  0  0  0  0  0  0  0  0  0  0
    0.5655   -1.1351   -1.6988 H   0  0  0  0  0  0  0  0  0  0  0  0
   -0.9023   -2.2503    1.3223 H   0  0  0  0  0  0  0  0  0  0  0  0
    0.5079    1.1610   -2.5104 H   0  0  0  0  0  0  0  0  0  0  0  0
    3.2139    4.0914   -0.8345 H   0  0  0  0  0  0  0  0  0  0  0  0
    4.7172    2.4240    1.2249 H   0  0  0  0  0  0  0  0  0  0  0  0
    3.8645    5.7518    0.6112 H   0  0  0  0  0  0  0  0  0  0  0  0
    3.9882   -3.5793   -0.4922 H   0  0  0  0  0  0  0  0  0  0  0  0
    3.0461   -5.8051   -0.9980 H   0  0  0  0  0  0  0  0  0  0  0  0
    3.5802   -1.1856   -1.2944 H   0  0  0  0  0  0  0  0  0  0  0  0
    3.1790    1.5468   -1.2622 H   0  0  0  0  0  0  0  0  0  0  0  0
    2.5803    1.4294    0.4050 H   0  0  0  0  0  0  0  0  0  0  0  0
    5.2849    2.9176   -1.4873 H   0  0  0  0  0  0  0  0  0  0  0  0
    2.6652    3.7462    0.8048 H   0  0  0  0  0  0  0  0  0  0  0  0
 23  4  1  0
  5  6  2  0
  5  4  1  0
  6  1  1  0
  6 24  1  0
  1  2  2  0
  1  7  1  0
  2  3  1  0
  3  4  2  0
 19 22  1  0
 19 21  1  0
  7  8  1  0
  8  9  2  0
  8 13  1  0
  9 10  1  0
  9 14  1  0
 10 11  2  0
 11 12  1  0
 12 13  2  0
 12 26  1  0
 13 25  1  0
 14 16  2  0
 14 15  1  0
 15 17  1  0
 17 18  1  0
 18 22  1  0
 22 20  1  0
  5 27  1  0
  2 28  1  0
  7 29  1  0
  3 30  1  0
 19 40  1  0
 19 31  1  0
 22 32  1  1
 21 33  1  0
 10 34  1  0
 11 35  1  0
 15 36  1  0
 18 37  1  0
 18 38  1  0
 20 39  1  0
M  END
