
     RDKit          3D

 43 46  0  0  0  0  0  0  0  0999 V2000
    2.7243    0.8179   -1.4807 C   0  0  0  0  0  0  0  0  0  0  0  0
    0.4690    0.4622   -0.8010 N   0  0  0  0  0  0  0  0  0  0  0  0
    5.5508    0.9543    1.7636 C   0  0  0  0  0  0  0  0  0  0  0  0
    1.7738   -1.5460   -1.1304 C   0  0  0  0  0  0  0  0  0  0  0  0
   -3.8299   -2.4316    0.8430 C   0  0  0  0  0  0  0  0  0  0  0  0
   -3.7934   -3.8052    0.9383 C   0  0  0  0  0  0  0  0  0  0  0  0
    0.7129   -2.2906   -0.7200 N   0  0  0  0  0  0  0  0  0  0  0  0
   -2.2510    4.5441   -0.3132 O   0  0  0  0  0  0  0  0  0  0  0  0
    2.8266   -2.0418   -1.4882 O   0  0  0  0  0  0  0  0  0  0  0  0
   -3.1346    2.3495    0.1539 C   0  0  0  0  0  0  0  0  0  0  0  0
   -1.7409    0.2936   -0.0874 C   0  0  0  0  0  0  0  0  0  0  0  0
   -2.7001   -1.7353    0.3994 C   0  0  0  0  0  0  0  0  0  0  0  0
   -1.5434   -2.4474    0.0606 C   0  0  0  0  0  0  0  0  0  0  0  0
   -1.5167   -3.8431    0.1582 C   0  0  0  0  0  0  0  0  0  0  0  0
   -2.6360   -4.5148    0.5943 C   0  0  0  0  0  0  0  0  0  0  0  0
   -0.3952   -1.7012   -0.3848 C   0  0  0  0  0  0  0  0  0  0  0  0
    1.5826   -0.0777   -1.1257 C   0  0  0  0  0  0  0  0  0  0  0  0
    3.7283    0.8577   -0.3512 C   0  0  0  0  0  0  0  0  0  0  0  0
    3.4027    1.5106    0.8357 C   0  0  0  0  0  0  0  0  0  0  0  0
    4.3070    1.5610    1.8871 C   0  0  0  0  0  0  0  0  0  0  0  0
    5.8822    0.3011    0.5840 C   0  0  0  0  0  0  0  0  0  0  0  0
    4.9738    0.2502   -0.4656 C   0  0  0  0  0  0  0  0  0  0  0  0
   -0.5450   -0.3421   -0.4299 N   0  0  0  0  0  0  0  0  0  0  0  0
   -3.1778    3.8460    0.0144 C   0  0  0  0  0  0  0  0  0  0  0  0
   -4.3830    4.3249    0.3015 O   0  0  0  0  0  0  0  0  0  0  0  0
   -2.7587   -0.3666    0.3055 N   0  0  0  0  0  0  0  0  0  0  0  0
    3.1963    0.4618   -2.3973 H   0  0  0  0  0  0  0  0  0  0  0  0
    2.3350    1.8183   -1.6730 H   0  0  0  0  0  0  0  0  0  0  0  0
    6.2586    0.9924    2.5813 H   0  0  0  0  0  0  0  0  0  0  0  0
   -4.7189   -1.8746    1.1072 H   0  0  0  0  0  0  0  0  0  0  0  0
   -4.6678   -4.3411    1.2825 H   0  0  0  0  0  0  0  0  0  0  0  0
   -3.9177    1.9210   -0.4757 H   0  0  0  0  0  0  0  0  0  0  0  0
   -3.4099    2.0925    1.1795 H   0  0  0  0  0  0  0  0  0  0  0  0
   -1.4984    2.0642   -1.2254 H   0  0  0  0  0  0  0  0  0  0  0  0
   -0.9975    2.2097    0.4337 H   0  0  0  0  0  0  0  0  0  0  0  0
   -0.6177   -4.3801   -0.1109 H   0  0  0  0  0  0  0  0  0  0  0  0
   -2.6223   -5.5933    0.6721 H   0  0  0  0  0  0  0  0  0  0  0  0
    2.4351    1.9897    0.9356 H   0  0  0  0  0  0  0  0  0  0  0  0
    4.0417    2.0771    2.8008 H   0  0  0  0  0  0  0  0  0  0  0  0
    6.8498   -0.1732    0.4803 H   0  0  0  0  0  0  0  0  0  0  0  0
    5.2388   -0.2629   -1.3812 H   0  0  0  0  0  0  0  0  0  0  0  0
   -4.3892    5.2890    0.2050 H   0  0  0  0  0  0  0  0  0  0  0  0
   -1.7736    1.7839   -0.2063 C   0  0  0  0  0  0  0  0  0  0  0  0
  6 15  2  0
  6  5  1  0
 15 14  1  0
  5 12  2  0
 14 13  2  0
 12 13  1  0
 12 26  1  0
 13 16  1  0
 26 11  2  0
 16  7  2  0
 16 23  1  0
  7  4  1  0
 11 23  1  0
 11 43  1  0
  8 24  2  0
 23  2  1  0
 10 24  1  0
 10 43  1  0
  4  9  2  0
  4 17  1  0
 24 25  1  0
  2 17  2  0
 17  1  1  0
  1 18  1  0
 18 22  2  0
 18 19  1  0
 22 21  1  0
 19 20  2  0
 21  3  2  0
 20  3  1  0
  1 27  1  0
  1 28  1  0
  3 29  1  0
  5 30  1  0
  6 31  1  0
 10 32  1  0
 10 33  1  0
 43 34  1  0
 43 35  1  0
 14 36  1  0
 15 37  1  0
 19 38  1  0
 20 39  1  0
 21 40  1  0
 22 41  1  0
 25 42  1  0
M  END
