
     RDKit          3D

 42 44  0  0  0  0  0  0  0  0999 V2000
    5.3015    0.7445   -0.9389 C   0  0  0  0  0  0  0  0  0  0  0  0
    5.1921   -0.4367   -0.1991 C   0  0  0  0  0  0  0  0  0  0  0  0
    3.9592   -0.8330    0.2898 C   0  0  0  0  0  0  0  0  0  0  0  0
   -1.9146    0.9355    0.0547 C   0  0  0  0  0  0  0  0  0  0  0  0
   -2.6612    1.8923    0.7461 C   0  0  0  0  0  0  0  0  0  0  0  0
   -3.7840    2.4877    0.1954 C   0  0  0  0  0  0  0  0  0  0  0  0
   -4.1666    2.1419   -1.0907 C   0  0  0  0  0  0  0  0  0  0  0  0
   -3.4415    1.2105   -1.8168 C   0  0  0  0  0  0  0  0  0  0  0  0
   -2.3337    0.6118   -1.2387 C   0  0  0  0  0  0  0  0  0  0  0  0
   -1.0582   -0.7311    1.6101 C   0  0  0  0  0  0  0  0  0  0  0  0
   -1.0900   -2.0705    1.0181 C   0  0  0  0  0  0  0  0  0  0  0  0
   -1.1143   -3.1662    0.5212 C   0  0  0  0  0  0  0  0  0  0  0  0
   -1.1457   -4.4960   -0.0764 C   0  0  0  0  0  0  0  0  0  0  0  0
   -1.1330   -5.6123    0.9674 C   0  0  0  0  0  0  0  0  0  0  0  0
    2.8406    0.0178    0.0094 C   0  0  0  0  0  0  0  0  0  0  0  0
    3.0824    1.1798   -0.7599 C   0  0  0  0  0  0  0  0  0  0  0  0
    4.3014    1.5395   -1.2287 N   0  0  0  0  0  0  0  0  0  0  0  0
    1.5358   -0.2671    0.4662 C   0  0  0  0  0  0  0  0  0  0  0  0
    0.4771    0.5689    0.1782 C   0  0  0  0  0  0  0  0  0  0  0  0
    0.7251    1.7307   -0.5984 C   0  0  0  0  0  0  0  0  0  0  0  0
    1.9796    2.0164   -1.0485 C   0  0  0  0  0  0  0  0  0  0  0  0
   -0.8016    0.3313    0.6567 N   0  0  0  0  0  0  0  0  0  0  0  0
   -1.4395   -0.5468   -2.1479 Cl  0  0  0  0  0  0  0  0  0  0  0  0
   -2.1545    2.3543    2.3304 Cl  0  0  0  0  0  0  0  0  0  0  0  0
    3.8237   -1.9530    1.0473 N   0  0  0  0  0  0  0  0  0  0  0  0
    6.2785    1.0338   -1.3140 H   0  0  0  0  0  0  0  0  0  0  0  0
    6.0740   -1.0382   -0.0188 H   0  0  0  0  0  0  0  0  0  0  0  0
   -4.3434    3.2205    0.7596 H   0  0  0  0  0  0  0  0  0  0  0  0
   -5.0370    2.6059   -1.5336 H   0  0  0  0  0  0  0  0  0  0  0  0
   -3.7388    0.9442   -2.8213 H   0  0  0  0  0  0  0  0  0  0  0  0
   -2.0138   -0.5292    2.0964 H   0  0  0  0  0  0  0  0  0  0  0  0
   -0.3081   -0.6900    2.4050 H   0  0  0  0  0  0  0  0  0  0  0  0
   -2.0359   -4.5847   -0.7039 H   0  0  0  0  0  0  0  0  0  0  0  0
   -0.2896   -4.6048   -0.7467 H   0  0  0  0  0  0  0  0  0  0  0  0
   -0.2340   -5.5656    1.5809 H   0  0  0  0  0  0  0  0  0  0  0  0
   -1.9980   -5.5435    1.6258 H   0  0  0  0  0  0  0  0  0  0  0  0
   -1.1574   -6.5848    0.4771 H   0  0  0  0  0  0  0  0  0  0  0  0
    1.3616   -1.1626    1.0447 H   0  0  0  0  0  0  0  0  0  0  0  0
   -0.0837    2.4120   -0.8298 H   0  0  0  0  0  0  0  0  0  0  0  0
    2.1555    2.9099   -1.6342 H   0  0  0  0  0  0  0  0  0  0  0  0
    4.6013   -2.5922    1.0599 H   0  0  0  0  0  0  0  0  0  0  0  0
    2.9325   -2.4163    1.0901 H   0  0  0  0  0  0  0  0  0  0  0  0
 23  9  1  0
  8  9  2  0
  8  7  1  0
  9  4  1  0
  7  6  2  0
  4 22  1  0
  4  5  2  0
 10 22  1  0
 10 11  1  0
 22 19  1  0
  6  5  1  0
 20 19  2  0
 20 21  1  0
  5 24  1  0
 19 18  1  0
 21 16  2  0
 18 15  2  0
 11 12  3  0
 16 15  1  0
 16 17  1  0
 15  3  1  0
 17  1  2  0
 12 13  1  0
  3 25  1  0
  3  2  2  0
  1  2  1  0
 13 14  1  0
  1 26  1  0
  2 27  1  0
  6 28  1  0
  7 29  1  0
  8 30  1  0
 10 31  1  0
 10 32  1  0
 13 33  1  0
 13 34  1  0
 14 35  1  0
 14 36  1  0
 14 37  1  0
 18 38  1  0
 20 39  1  0
 21 40  1  0
 25 41  1  0
 25 42  1  0
M  END
