
     RDKit          3D

 26 25  0  0  0  0  0  0  0  0999 V2000
   -1.9166    0.1402   -0.1401 N   0  0  1  0  0  0  0  0  0  0  0  0
   -1.0583   -0.7035    0.7652 C   0  0  0  0  0  0  0  0  0  0  0  0
    0.3265   -1.0472    0.2730 C   0  0  0  0  0  0  0  0  0  0  0  0
    1.1782    0.0791    0.4565 O   0  0  0  0  0  0  0  0  0  0  0  0
    2.4609   -0.0476    0.1081 C   0  0  0  0  0  0  0  0  0  0  0  0
    2.9174   -1.0658   -0.3433 O   0  0  0  0  0  0  0  0  0  0  0  0
    3.2186    1.2206    0.3527 C   0  0  0  0  0  0  0  0  0  0  0  0
   -2.2047   -0.5748   -1.4148 C   0  0  0  0  0  0  0  0  0  0  0  0
   -3.2040    0.3821    0.5748 C   0  0  0  0  0  0  0  0  0  0  0  0
   -1.2895    1.4582   -0.4466 C   0  0  0  0  0  0  0  0  0  0  0  0
   -1.6061   -1.6329    0.9183 H   0  0  0  0  0  0  0  0  0  0  0  0
   -1.0038   -0.1886    1.7242 H   0  0  0  0  0  0  0  0  0  0  0  0
    0.3326   -1.3810   -0.7663 H   0  0  0  0  0  0  0  0  0  0  0  0
    0.6715   -1.8864    0.8807 H   0  0  0  0  0  0  0  0  0  0  0  0
    4.2637    1.0955    0.0854 H   0  0  0  0  0  0  0  0  0  0  0  0
    2.7951    2.0352   -0.2358 H   0  0  0  0  0  0  0  0  0  0  0  0
    3.1491    1.5099    1.4015 H   0  0  0  0  0  0  0  0  0  0  0  0
   -2.6728   -1.5300   -1.1927 H   0  0  0  0  0  0  0  0  0  0  0  0
   -2.8754    0.0358   -2.0131 H   0  0  0  0  0  0  0  0  0  0  0  0
   -1.2834   -0.7354   -1.9657 H   0  0  0  0  0  0  0  0  0  0  0  0
   -3.0069    0.9488    1.4805 H   0  0  0  0  0  0  0  0  0  0  0  0
   -3.8707    0.9436   -0.0737 H   0  0  0  0  0  0  0  0  0  0  0  0
   -3.6562   -0.5719    0.8320 H   0  0  0  0  0  0  0  0  0  0  0  0
   -0.4204    1.3190   -1.0810 H   0  0  0  0  0  0  0  0  0  0  0  0
   -2.0191    2.0675   -0.9729 H   0  0  0  0  0  0  0  0  0  0  0  0
   -1.0023    1.9463    0.4801 H   0  0  0  0  0  0  0  0  0  0  0  0
  1  2  1  1
  1  8  1  0
  1  9  1  0
  1 10  1  0
  2  3  1  0
  2 11  1  0
  2 12  1  0
  3  4  1  0
  3 13  1  0
  3 14  1  0
  4  5  1  0
  5  6  2  0
  5  7  1  0
  7 15  1  0
  7 16  1  0
  7 17  1  0
  8 18  1  0
  8 19  1  0
  8 20  1  0
  9 21  1  0
  9 22  1  0
  9 23  1  0
 10 24  1  0
 10 25  1  0
 10 26  1  0
M  CHG  1   1   1
M  END
