
     RDKit          3D

 32 32  0  0  0  0  0  0  0  0999 V2000
   -1.4904   -1.2352    3.7667 C   0  0  0  0  0  0  0  0  0  0  0  0
   -0.2489   -0.7304    3.3881 C   0  0  0  0  0  0  0  0  0  0  0  0
    0.3375    0.3259    4.1126 C   0  0  0  0  0  0  0  0  0  0  0  0
   -0.3774    0.8497    5.2019 C   0  0  0  0  0  0  0  0  0  0  0  0
   -1.6124    0.3413    5.5565 C   0  0  0  0  0  0  0  0  0  0  0  0
   -2.1834   -0.7096    4.8447 C   0  0  0  0  0  0  0  0  0  0  0  0
    1.5797    0.8110    3.8082 N   0  0  0  0  0  0  0  0  0  0  0  0
    0.5981   -1.4311    2.0001 S   0  0  0  0  0  0  0  0  0  0  0  0
   -0.0670   -0.4153    0.6349 C   0  0  0  0  0  0  0  0  0  0  0  0
    0.7009   -0.7169   -0.6420 C   0  0  0  0  0  0  0  0  0  0  0  0
    0.1238    0.0388   -1.8340 C   0  0  0  0  0  0  0  0  0  0  0  0
    0.9406   -0.2151   -3.0995 C   0  0  0  0  0  0  0  0  0  0  0  0
    0.2842    0.6627   -4.5270 P   0  0  1  0  0  0  0  0  0  0  0  0
    1.3017    0.1923   -5.6807 O   0  0  0  0  0  0  0  0  0  0  0  0
   -1.1460    0.0057   -4.8724 O   0  0  0  0  0  0  0  0  0  0  0  0
    0.1133    2.1279   -4.3707 O   0  0  0  0  0  0  0  0  0  0  0  0
   -1.9145   -2.0508    3.1939 H   0  0  0  0  0  0  0  0  0  0  0  0
    0.0542    1.6643    5.7719 H   0  0  0  0  0  0  0  0  0  0  0  0
   -2.1364    0.7715    6.4007 H   0  0  0  0  0  0  0  0  0  0  0  0
   -3.1488   -1.1091    5.1241 H   0  0  0  0  0  0  0  0  0  0  0  0
    1.7907    1.7453    4.1163 H   0  0  0  0  0  0  0  0  0  0  0  0
    1.9474    0.5887    2.8971 H   0  0  0  0  0  0  0  0  0  0  0  0
   -1.1278   -0.6407    0.5148 H   0  0  0  0  0  0  0  0  0  0  0  0
    0.0302    0.6382    0.9010 H   0  0  0  0  0  0  0  0  0  0  0  0
    1.7519   -0.4469   -0.5081 H   0  0  0  0  0  0  0  0  0  0  0  0
    0.6748   -1.7914   -0.8462 H   0  0  0  0  0  0  0  0  0  0  0  0
   -0.9144   -0.2661   -1.9876 H   0  0  0  0  0  0  0  0  0  0  0  0
    0.1081    1.1097   -1.6170 H   0  0  0  0  0  0  0  0  0  0  0  0
    1.9721    0.1165   -2.9540 H   0  0  0  0  0  0  0  0  0  0  0  0
    0.9824   -1.2844   -3.3236 H   0  0  0  0  0  0  0  0  0  0  0  0
    1.1881    0.6569   -6.5214 H   0  0  0  0  0  0  0  0  0  0  0  0
   -1.1364   -0.9485   -5.0225 H   0  0  0  0  0  0  0  0  0  0  0  0
  1  2  2  0
  1  6  1  0
  1 17  1  0
  2  3  1  0
  2  8  1  0
  3  4  2  0
  3  7  1  0
  4  5  1  0
  4 18  1  0
  5  6  2  0
  5 19  1  0
  6 20  1  0
  7 21  1  0
  7 22  1  0
  8  9  1  0
  9 10  1  0
  9 23  1  0
  9 24  1  0
 10 11  1  0
 10 25  1  0
 10 26  1  0
 11 12  1  0
 11 27  1  0
 11 28  1  0
 12 13  1  0
 12 29  1  0
 12 30  1  0
 13 14  1  6
 13 15  1  0
 13 16  2  0
 14 31  1  0
 15 32  1  0
M  END
