
     RDKit          3D

 49 50  0  0  0  0  0  0  0  0999 V2000
    2.6192   -3.2660    0.6275 N   0  0  0  0  0  0  0  0  0  0  0  0
   -4.0197    1.5289    1.6753 C   0  0  0  0  0  0  0  0  0  0  0  0
   -6.0439    0.5623    2.5344 C   0  0  0  0  0  0  0  0  0  0  0  0
   -6.2059   -0.1624    1.3623 C   0  0  0  0  0  0  0  0  0  0  0  0
   -5.2803   -0.0242    0.3341 C   0  0  0  0  0  0  0  0  0  0  0  0
   -2.9426    2.3176    1.8418 O   0  0  0  0  0  0  0  0  0  0  0  0
   -4.9525    1.4061    2.6965 C   0  0  0  0  0  0  0  0  0  0  0  0
   -4.1892    0.8228    0.4747 C   0  0  0  0  0  0  0  0  0  0  0  0
   -3.1786    1.0159   -0.4971 N   0  0  0  0  0  0  0  0  0  0  0  0
    4.1820    3.0341   -0.4080 O   0  0  0  0  0  0  0  0  0  0  0  0
    4.5959    2.0121    0.5700 P   0  0  1  0  0  0  0  0  0  0  0  0
    6.1000    1.4941    0.5273 O   0  0  0  0  0  0  0  0  0  0  0  0
    4.2901    2.5291    2.0497 O   0  0  0  0  0  0  0  0  0  0  0  0
    3.9043    0.5766    0.4341 O   0  0  0  0  0  0  0  0  0  0  0  0
    2.4871    0.4867    0.3487 C   0  0  0  0  0  0  0  0  0  0  0  0
    2.0701   -0.9541    0.4085 C   0  0  0  0  0  0  0  0  0  0  0  0
    2.9763   -1.9868    0.5895 C   0  0  0  0  0  0  0  0  0  0  0  0
    0.7197   -1.2782    0.2683 C   0  0  0  0  0  0  0  0  0  0  0  0
    0.3634   -2.6211    0.2852 C   0  0  0  0  0  0  0  0  0  0  0  0
   -0.9342   -2.9326    0.1069 O   0  0  0  0  0  0  0  0  0  0  0  0
    1.3487   -3.6003    0.4779 C   0  0  0  0  0  0  0  0  0  0  0  0
    0.9834   -5.0541    0.5134 C   0  0  0  0  0  0  0  0  0  0  0  0
   -0.3375   -0.2258    0.0483 C   0  0  0  0  0  0  0  0  0  0  0  0
   -0.4015    0.0538   -1.3684 N   0  0  0  0  0  0  0  0  0  0  0  0
   -1.5047    0.0951   -1.9802 C   0  0  0  0  0  0  0  0  0  0  0  0
   -1.4525    0.4332   -3.4475 C   0  0  0  0  0  0  0  0  0  0  0  0
   -0.2321    0.4170   -3.9447 O   0  0  0  0  0  0  0  0  0  0  0  0
   -2.4409    0.7013   -4.0850 O   0  0  0  0  0  0  0  0  0  0  0  0
   -2.8775   -0.0988   -1.3787 C   0  0  0  0  0  0  0  0  0  0  0  0
   -6.7631    0.4652    3.3372 H   0  0  0  0  0  0  0  0  0  0  0  0
   -7.0513   -0.8264    1.2411 H   0  0  0  0  0  0  0  0  0  0  0  0
   -5.4136   -0.5807   -0.5856 H   0  0  0  0  0  0  0  0  0  0  0  0
   -2.3586    2.1643    1.0804 H   0  0  0  0  0  0  0  0  0  0  0  0
   -4.8122    1.9567    3.6187 H   0  0  0  0  0  0  0  0  0  0  0  0
   -3.3320    1.8639   -1.0313 H   0  0  0  0  0  0  0  0  0  0  0  0
    6.7573    2.1954    0.4237 H   0  0  0  0  0  0  0  0  0  0  0  0
    4.5506    1.9357    2.7671 H   0  0  0  0  0  0  0  0  0  0  0  0
    2.0212    1.0422    1.1705 H   0  0  0  0  0  0  0  0  0  0  0  0
    2.1408    0.9349   -0.5871 H   0  0  0  0  0  0  0  0  0  0  0  0
    4.0332   -1.7880    0.7087 H   0  0  0  0  0  0  0  0  0  0  0  0
   -1.0754   -3.8852    0.1419 H   0  0  0  0  0  0  0  0  0  0  0  0
    0.2763   -5.2801    1.3158 H   0  0  0  0  0  0  0  0  0  0  0  0
    0.5307   -5.3851   -0.4249 H   0  0  0  0  0  0  0  0  0  0  0  0
    1.8738   -5.6553    0.6798 H   0  0  0  0  0  0  0  0  0  0  0  0
   -1.2794   -0.5306    0.5052 H   0  0  0  0  0  0  0  0  0  0  0  0
   -0.0507    0.7059    0.5434 H   0  0  0  0  0  0  0  0  0  0  0  0
   -0.2609    0.6538   -4.8839 H   0  0  0  0  0  0  0  0  0  0  0  0
   -2.8709   -1.0183   -0.7900 H   0  0  0  0  0  0  0  0  0  0  0  0
   -3.6212   -0.2404   -2.1654 H   0  0  0  0  0  0  0  0  0  0  0  0
 10 11  2  0
  4  3  2  0
  4  5  1  0
 11 13  1  1
 11 14  1  0
 11 12  1  0
 15 14  1  0
 15 16  1  0
  3  7  1  0
  5  8  2  0
 17 16  1  0
 17  1  2  0
 16 18  2  0
  7  2  2  0
  8  2  1  0
  8  9  1  0
  1 21  1  0
 18 23  1  0
 18 19  1  0
  2  6  1  0
 23 24  1  0
  9 29  1  0
 29 25  1  0
 21 19  2  0
 21 22  1  0
 19 20  1  0
 24 25  2  0
 25 26  1  0
 26 28  2  0
 26 27  1  0
  3 30  1  0
  4 31  1  0
  5 32  1  0
  6 33  1  0
  7 34  1  0
  9 35  1  0
 12 36  1  0
 13 37  1  0
 15 38  1  0
 15 39  1  0
 17 40  1  0
 20 41  1  0
 22 42  1  0
 22 43  1  0
 22 44  1  0
 23 45  1  0
 23 46  1  0
 27 47  1  0
 29 48  1  0
 29 49  1  0
M  END
