
     RDKit          3D

 23 22  0  0  0  0  0  0  0  0999 V2000
   -1.1278    0.0417   -1.6309 C   0  0  0  0  0  0  0  0  0  0  0  0
   -2.2291    0.5178   -1.5601 O   0  0  0  0  0  0  0  0  0  0  0  0
   -0.5365   -0.2881   -2.7713 O   0  0  0  0  0  0  0  0  0  0  0  0
   -0.2416   -0.2901   -0.4453 C   0  0  2  0  0  0  0  0  0  0  0  0
   -0.8130    0.2568    0.8639 C   0  0  0  0  0  0  0  0  0  0  0  0
    0.0144   -0.0648    2.1106 C   0  0  1  0  0  0  0  0  0  0  0  0
   -0.6310    0.5964    3.3251 C   0  0  0  0  0  0  0  0  0  0  0  0
    0.1676   -1.5653    2.3383 C   0  0  0  0  0  0  0  0  0  0  0  0
    1.1369    0.2878   -0.6970 C   0  0  0  0  0  0  0  0  0  0  0  0
    1.3258    1.4586   -0.9108 O   0  0  0  0  0  0  0  0  0  0  0  0
    2.0983   -0.6170   -0.6252 O   0  0  0  0  0  0  0  0  0  0  0  0
   -1.1127   -0.0839   -3.5238 H   0  0  0  0  0  0  0  0  0  0  0  0
   -0.1786   -1.3816   -0.4016 H   0  0  0  0  0  0  0  0  0  0  0  0
   -1.8188   -0.1506    0.9961 H   0  0  0  0  0  0  0  0  0  0  0  0
   -0.9251    1.3399    0.7747 H   0  0  0  0  0  0  0  0  0  0  0  0
    1.0155    0.3670    1.9948 H   0  0  0  0  0  0  0  0  0  0  0  0
   -0.0449    0.4172    4.2277 H   0  0  0  0  0  0  0  0  0  0  0  0
   -0.7180    1.6766    3.1944 H   0  0  0  0  0  0  0  0  0  0  0  0
   -1.6346    0.2007    3.4977 H   0  0  0  0  0  0  0  0  0  0  0  0
   -0.8086   -2.0466    2.4368 H   0  0  0  0  0  0  0  0  0  0  0  0
    0.7024   -2.0606    1.5270 H   0  0  0  0  0  0  0  0  0  0  0  0
    0.7258   -1.7612    3.2548 H   0  0  0  0  0  0  0  0  0  0  0  0
    2.9638   -0.1978   -0.7534 H   0  0  0  0  0  0  0  0  0  0  0  0
  1  2  2  0
  1  3  1  0
  1  4  1  0
  3 12  1  0
  4  5  1  0
  4  9  1  0
  4 13  1  1
  5  6  1  0
  5 14  1  0
  5 15  1  0
  6  7  1  0
  6  8  1  0
  6 16  1  6
  7 17  1  0
  7 18  1  0
  7 19  1  0
  8 20  1  0
  8 21  1  0
  8 22  1  0
  9 10  2  0
  9 11  1  0
 11 23  1  0
M  END
