
     RDKit          3D

 36 39  0  0  0  0  0  0  0  0999 V2000
    5.1650    1.2526    0.7489 C   0  0  0  0  0  0  0  0  0  0  0  0
    6.4376    0.7510    0.8131 C   0  0  0  0  0  0  0  0  0  0  0  0
    6.7172   -0.5567    0.3642 C   0  0  0  0  0  0  0  0  0  0  0  0
    5.7160   -1.3429   -0.1399 C   0  0  0  0  0  0  0  0  0  0  0  0
    4.3944   -0.8519   -0.2123 C   0  0  0  0  0  0  0  0  0  0  0  0
    3.3139   -1.6123   -0.7128 C   0  0  0  0  0  0  0  0  0  0  0  0
    2.0655   -1.0652   -0.7461 C   0  0  0  0  0  0  0  0  0  0  0  0
    1.8883    0.2587   -0.2748 C   0  0  0  0  0  0  0  0  0  0  0  0
    0.5333    0.9057   -0.3365 C   0  0  0  0  0  0  0  0  0  0  0  0
   -0.4210   -0.0354    0.1160 O   0  0  0  0  0  0  0  0  0  0  0  0
   -1.7321    0.2591    0.0328 C   0  0  0  0  0  0  0  0  0  0  0  0
   -2.6123   -0.7226    0.4284 C   0  0  0  0  0  0  0  0  0  0  0  0
   -3.9997   -0.5035    0.3645 C   0  0  0  0  0  0  0  0  0  0  0  0
   -4.8323   -1.4976    0.7662 N   0  0  0  0  0  0  0  0  0  0  0  0
   -6.1195   -1.2866    0.7046 C   0  0  0  0  0  0  0  0  0  0  0  0
   -6.7087   -0.0903    0.2435 C   0  0  0  0  0  0  0  0  0  0  0  0
   -5.8893    0.9240   -0.1641 C   0  0  0  0  0  0  0  0  0  0  0  0
   -4.4915    0.7378   -0.1152 C   0  0  0  0  0  0  0  0  0  0  0  0
   -3.5665    1.7245   -0.5118 C   0  0  0  0  0  0  0  0  0  0  0  0
   -2.2185    1.5000   -0.4424 C   0  0  0  0  0  0  0  0  0  0  0  0
    2.8646    0.9870    0.1945 N   0  0  0  0  0  0  0  0  0  0  0  0
    4.1139    0.4619    0.2346 C   0  0  0  0  0  0  0  0  0  0  0  0
    4.9384    2.2548    1.0897 H   0  0  0  0  0  0  0  0  0  0  0  0
    7.2405    1.3595    1.2085 H   0  0  0  0  0  0  0  0  0  0  0  0
    7.7285   -0.9372    0.4219 H   0  0  0  0  0  0  0  0  0  0  0  0
    5.9254   -2.3466   -0.4896 H   0  0  0  0  0  0  0  0  0  0  0  0
    3.4891   -2.6197   -1.0693 H   0  0  0  0  0  0  0  0  0  0  0  0
    1.2256   -1.6274   -1.1288 H   0  0  0  0  0  0  0  0  0  0  0  0
    0.5318    1.8113    0.2779 H   0  0  0  0  0  0  0  0  0  0  0  0
    0.3263    1.2004   -1.3729 H   0  0  0  0  0  0  0  0  0  0  0  0
   -2.2432   -1.6788    0.7778 H   0  0  0  0  0  0  0  0  0  0  0  0
   -6.7589   -2.0976    1.0380 H   0  0  0  0  0  0  0  0  0  0  0  0
   -7.7850    0.0079    0.2206 H   0  0  0  0  0  0  0  0  0  0  0  0
   -6.2933    1.8636   -0.5207 H   0  0  0  0  0  0  0  0  0  0  0  0
   -3.9321    2.6740   -0.8825 H   0  0  0  0  0  0  0  0  0  0  0  0
   -1.5402    2.2809   -0.7567 H   0  0  0  0  0  0  0  0  0  0  0  0
  3  4  2  0
  3  2  1  0
  4  5  1  0
  2  1  2  0
  5  6  1  0
  5 22  2  0
  6  7  2  0
  1 22  1  0
 22 21  1  0
  7  8  1  0
 21  8  2  0
  8  9  1  0
 10  9  1  0
 10 11  1  0
 20 11  1  0
 20 19  2  0
 11 12  2  0
 19 18  1  0
 12 13  1  0
 18 13  2  0
 18 17  1  0
 13 14  1  0
 17 16  2  0
 14 15  2  0
 16 15  1  0
  1 23  1  0
  2 24  1  0
  3 25  1  0
  4 26  1  0
  6 27  1  0
  7 28  1  0
  9 29  1  0
  9 30  1  0
 12 31  1  0
 15 32  1  0
 16 33  1  0
 17 34  1  0
 19 35  1  0
 20 36  1  0
M  END
