
     RDKit          3D

 43 42  0  0  0  0  0  0  0  0999 V2000
   -0.9351    0.0547    0.9167 C   0  0  0  0  0  0  0  0  0  0  0  0
    0.1855    0.3989    0.6229 O   0  0  0  0  0  0  0  0  0  0  0  0
   -2.0352   -0.2032   -0.0166 C   0  0  0  0  0  0  0  0  0  0  0  0
   -1.9259   -0.1714   -1.3509 C   0  0  0  0  0  0  0  0  0  0  0  0
   -0.7218    0.1162   -2.1884 C   0  0  0  0  0  0  0  0  0  0  0  0
   -0.9425   -0.2115   -3.6611 C   0  0  0  0  0  0  0  0  0  0  0  0
    0.2780    0.0994   -4.5159 C   0  0  0  0  0  0  0  0  0  0  0  0
    0.0779   -0.2297   -5.9894 C   0  0  0  0  0  0  0  0  0  0  0  0
    1.3014    0.0768   -6.8433 C   0  0  0  0  0  0  0  0  0  0  0  0
    1.1065   -0.2522   -8.3180 C   0  0  0  0  0  0  0  0  0  0  0  0
    2.3378    0.0526   -9.1598 C   0  0  0  0  0  0  0  0  0  0  0  0
   -1.4357   -0.2014    2.6028 S   0  0  0  0  0  0  0  0  0  0  0  0
    0.1026    0.1743    3.4796 C   0  0  0  0  0  0  0  0  0  0  0  0
   -0.1209   -0.0546    4.9665 C   0  0  0  0  0  0  0  0  0  0  0  0
    1.1065    0.2265    5.6779 N   0  0  0  0  0  0  0  0  0  0  0  0
    1.1677    0.2758    7.0185 C   0  0  0  0  0  0  0  0  0  0  0  0
    0.1830    0.0995    7.7243 O   0  0  0  0  0  0  0  0  0  0  0  0
    2.5264    0.5758    7.5991 C   0  0  0  0  0  0  0  0  0  0  0  0
   -2.9979   -0.4418    0.4206 H   0  0  0  0  0  0  0  0  0  0  0  0
   -2.8402   -0.3825   -1.8991 H   0  0  0  0  0  0  0  0  0  0  0  0
    0.1436   -0.4320   -1.8087 H   0  0  0  0  0  0  0  0  0  0  0  0
   -0.4610    1.1752   -2.0834 H   0  0  0  0  0  0  0  0  0  0  0  0
   -1.8047    0.3505   -4.0354 H   0  0  0  0  0  0  0  0  0  0  0  0
   -1.2001   -1.2706   -3.7644 H   0  0  0  0  0  0  0  0  0  0  0  0
    1.1407   -0.4576   -4.1331 H   0  0  0  0  0  0  0  0  0  0  0  0
    0.5337    1.1597   -4.4110 H   0  0  0  0  0  0  0  0  0  0  0  0
   -0.7830    0.3290   -6.3733 H   0  0  0  0  0  0  0  0  0  0  0  0
   -0.1803   -1.2896   -6.0921 H   0  0  0  0  0  0  0  0  0  0  0  0
    2.1622   -0.4816   -6.4585 H   0  0  0  0  0  0  0  0  0  0  0  0
    1.5602    1.1367   -6.7403 H   0  0  0  0  0  0  0  0  0  0  0  0
    0.2495    0.3091   -8.7037 H   0  0  0  0  0  0  0  0  0  0  0  0
    0.8452   -1.3101   -8.4205 H   0  0  0  0  0  0  0  0  0  0  0  0
    2.1801   -0.1989  -10.2093 H   0  0  0  0  0  0  0  0  0  0  0  0
    2.5981    1.1117   -9.1093 H   0  0  0  0  0  0  0  0  0  0  0  0
    3.2034   -0.5140   -8.8107 H   0  0  0  0  0  0  0  0  0  0  0  0
    0.8926   -0.4767    3.1032 H   0  0  0  0  0  0  0  0  0  0  0  0
    0.3830    1.2103    3.2882 H   0  0  0  0  0  0  0  0  0  0  0  0
   -0.9160    0.5984    5.3318 H   0  0  0  0  0  0  0  0  0  0  0  0
   -0.4407   -1.0852    5.1452 H   0  0  0  0  0  0  0  0  0  0  0  0
    1.9535    0.3405    5.1455 H   0  0  0  0  0  0  0  0  0  0  0  0
    2.7878   -0.1937    8.3248 H   0  0  0  0  0  0  0  0  0  0  0  0
    3.3173    0.6317    6.8539 H   0  0  0  0  0  0  0  0  0  0  0  0
    2.4891    1.5258    8.1328 H   0  0  0  0  0  0  0  0  0  0  0  0
  1  2  2  0
  1  3  1  0
  1 12  1  0
  3  4  2  0
  3 19  1  0
  4  5  1  0
  4 20  1  0
  5  6  1  0
  5 21  1  0
  5 22  1  0
  6  7  1  0
  6 23  1  0
  6 24  1  0
  7  8  1  0
  7 25  1  0
  7 26  1  0
  8  9  1  0
  8 27  1  0
  8 28  1  0
  9 10  1  0
  9 29  1  0
  9 30  1  0
 10 11  1  0
 10 31  1  0
 10 32  1  0
 11 33  1  0
 11 34  1  0
 11 35  1  0
 12 13  1  0
 13 14  1  0
 13 36  1  0
 13 37  1  0
 14 15  1  0
 14 38  1  0
 14 39  1  0
 15 16  1  0
 15 40  1  0
 16 17  2  0
 16 18  1  0
 18 41  1  0
 18 42  1  0
 18 43  1  0
M  END
