
     RDKit          3D

 63 67  0  0  0  0  0  0  0  0999 V2000
    3.5685    1.6932   -0.0014 C   0  0  0  0  0  0  0  0  0  0  0  0
    3.2771   -1.4000    1.7536 C   0  0  0  0  0  0  0  0  0  0  0  0
   -5.9783    1.0126   -0.7720 C   0  0  0  0  0  0  0  0  0  0  0  0
   -0.4342    0.2055    1.1536 C   0  0  0  0  0  0  0  0  0  0  0  0
   -2.8864    0.0483    0.9659 C   0  0  0  0  0  0  0  0  0  0  0  0
    5.7878    0.6711   -0.1701 C   0  0  0  0  0  0  0  0  0  0  0  0
   -5.1798    0.1742    0.0054 C   0  0  0  0  0  0  0  0  0  0  0  0
    7.9874   -0.1697   -0.9591 C   0  0  0  0  0  0  0  0  0  0  0  0
    4.0559   -0.4609    1.0233 C   0  0  0  0  0  0  0  0  0  0  0  0
    3.1666    0.5869    0.7531 C   0  0  0  0  0  0  0  0  0  0  0  0
    9.3537    0.1231   -0.9591 C   0  0  0  0  0  0  0  0  0  0  0  0
   10.3208   -0.7978   -1.2909 C   0  0  0  0  0  0  0  0  0  0  0  0
    9.9382   -2.0902   -1.6299 C   0  0  0  0  0  0  0  0  0  0  0  0
    7.6266   -1.4697   -1.3228 C   0  0  0  0  0  0  0  0  0  0  0  0
    8.5899   -2.4155   -1.6429 C   0  0  0  0  0  0  0  0  0  0  0  0
    7.0844    0.8264   -0.6440 N   0  0  0  0  0  0  0  0  0  0  0  0
    4.8650    1.7095   -0.4546 C   0  0  0  0  0  0  0  0  0  0  0  0
    5.3822   -0.4175    0.5807 C   0  0  0  0  0  0  0  0  0  0  0  0
    1.9708    0.2283    1.3180 N   0  0  0  0  0  0  0  0  0  0  0  0
    2.0530   -0.9739    1.9085 N   0  0  0  0  0  0  0  0  0  0  0  0
    0.7485    0.9178    1.3015 C   0  0  0  0  0  0  0  0  0  0  0  0
    0.7192    2.3012    1.4465 C   0  0  0  0  0  0  0  0  0  0  0  0
   -0.4964    2.9653    1.4111 C   0  0  0  0  0  0  0  0  0  0  0  0
   -1.6501    0.8774    1.1164 C   0  0  0  0  0  0  0  0  0  0  0  0
   -1.6806    2.2645    1.2445 C   0  0  0  0  0  0  0  0  0  0  0  0
   -2.9323   -1.0893    1.4011 O   0  0  0  0  0  0  0  0  0  0  0  0
   -3.9007    0.6576    0.3060 N   0  0  0  0  0  0  0  0  0  0  0  0
   -5.6570   -1.0581    0.4406 C   0  0  0  0  0  0  0  0  0  0  0  0
   -6.9485   -1.4453    0.0838 C   0  0  0  0  0  0  0  0  0  0  0  0
   -7.5014   -2.6130    0.4516 O   0  0  0  0  0  0  0  0  0  0  0  0
   -6.7344   -3.5149    1.2244 C   0  0  0  0  0  0  0  0  0  0  0  0
   -7.7546   -0.6242   -0.7047 C   0  0  0  0  0  0  0  0  0  0  0  0
   -8.9982   -1.0318   -1.0730 O   0  0  0  0  0  0  0  0  0  0  0  0
  -10.0299   -0.6332   -0.1806 C   0  0  0  0  0  0  0  0  0  0  0  0
   -7.2632    0.6151   -1.1230 C   0  0  0  0  0  0  0  0  0  0  0  0
   -8.1014    1.3512   -1.8693 O   0  0  0  0  0  0  0  0  0  0  0  0
   -7.6674    2.6179   -2.3240 C   0  0  0  0  0  0  0  0  0  0  0  0
    2.8971    2.5036   -0.2482 H   0  0  0  0  0  0  0  0  0  0  0  0
    3.5822   -2.3519    2.1609 H   0  0  0  0  0  0  0  0  0  0  0  0
   -0.4040   -0.8708    1.0536 H   0  0  0  0  0  0  0  0  0  0  0  0
   11.3636   -0.5078   -1.2705 H   0  0  0  0  0  0  0  0  0  0  0  0
   10.6885   -2.8266   -1.8827 H   0  0  0  0  0  0  0  0  0  0  0  0
    6.5813   -1.7433   -1.3671 H   0  0  0  0  0  0  0  0  0  0  0  0
    8.2743   -3.4130   -1.9184 H   0  0  0  0  0  0  0  0  0  0  0  0
    7.3772    1.7733   -0.8190 H   0  0  0  0  0  0  0  0  0  0  0  0
    5.1973    2.5480   -1.0549 H   0  0  0  0  0  0  0  0  0  0  0  0
    6.0650   -1.2182    0.8313 H   0  0  0  0  0  0  0  0  0  0  0  0
    1.6294    2.8596    1.6173 H   0  0  0  0  0  0  0  0  0  0  0  0
   -0.5201    4.0389    1.5373 H   0  0  0  0  0  0  0  0  0  0  0  0
   -2.6160    2.8094    1.2535 H   0  0  0  0  0  0  0  0  0  0  0  0
   -3.6956    1.5597   -0.0958 H   0  0  0  0  0  0  0  0  0  0  0  0
   -5.0362   -1.6968    1.0443 H   0  0  0  0  0  0  0  0  0  0  0  0
   -6.4593   -3.0929    2.1942 H   0  0  0  0  0  0  0  0  0  0  0  0
   -7.3608   -4.3880    1.3888 H   0  0  0  0  0  0  0  0  0  0  0  0
   -5.8261   -3.8276    0.7037 H   0  0  0  0  0  0  0  0  0  0  0  0
   -9.8601   -1.0100    0.8311 H   0  0  0  0  0  0  0  0  0  0  0  0
  -10.1309    0.4539   -0.1373 H   0  0  0  0  0  0  0  0  0  0  0  0
  -10.9610   -1.0543   -0.5561 H   0  0  0  0  0  0  0  0  0  0  0  0
   -8.4867    3.0329   -2.9055 H   0  0  0  0  0  0  0  0  0  0  0  0
   -7.4459    3.2950   -1.4952 H   0  0  0  0  0  0  0  0  0  0  0  0
   -6.7851    2.5416   -2.9644 H   0  0  0  0  0  0  0  0  0  0  0  0
    9.7259    1.3747   -0.6244 F   0  0  0  0  0  0  0  0  0  0  0  0
   -5.5835    1.9673   -1.0941 H   0  0  0  0  0  0  0  0  0  0  0  0
  1 10  2  0
  1 17  1  0
  2  9  1  0
  2 20  2  0
  3  7  2  0
  3 35  1  0
  4 21  2  0
  4 24  1  0
  5 24  1  0
  5 26  2  0
  5 27  1  0
  6 16  1  0
  6 17  2  0
  6 18  1  0
  7 27  1  0
  7 28  1  0
  8 11  2  0
  8 14  1  0
  8 16  1  0
  9 10  1  0
  9 18  2  0
 10 19  1  0
 62 11  1  0
 11 12  1  0
 12 13  2  0
 13 15  1  0
 14 15  2  0
 19 20  1  0
 19 21  1  0
 21 22  1  0
 22 23  2  0
 23 25  1  0
 24 25  2  0
 28 29  2  0
 29 30  1  0
 29 32  1  0
 30 31  1  0
 32 33  1  0
 32 35  2  0
 33 34  1  0
 35 36  1  0
 36 37  1  0
  1 38  1  0
  2 39  1  0
  3 63  1  0
  4 40  1  0
 12 41  1  0
 13 42  1  0
 14 43  1  0
 15 44  1  0
 16 45  1  0
 17 46  1  0
 18 47  1  0
 22 48  1  0
 23 49  1  0
 25 50  1  0
 27 51  1  0
 28 52  1  0
 31 53  1  0
 31 54  1  0
 31 55  1  0
 34 56  1  0
 34 57  1  0
 34 58  1  0
 37 59  1  0
 37 60  1  0
 37 61  1  0
M  END
