
     RDKit          3D

 32 34  0  0  0  0  0  0  0  0999 V2000
    1.6800    3.3091   -0.4754 N   0  0  0  0  0  0  0  0  0  0  0  0
    1.6387    1.9754   -0.2634 C   0  0  0  0  0  0  0  0  0  0  0  0
    0.3805    1.3319   -0.0728 C   0  0  0  0  0  0  0  0  0  0  0  0
   -0.8802    1.8629   -0.0379 N   0  0  0  0  0  0  0  0  0  0  0  0
   -1.6644    0.8402    0.1661 C   0  0  0  0  0  0  0  0  0  0  0  0
   -3.1423    0.8988    0.3425 C   0  0  0  0  0  0  0  0  0  0  0  0
   -3.6923   -0.2927   -0.1443 O   0  0  0  0  0  0  0  0  0  0  0  0
   -5.0808   -0.3998    0.1010 C   0  0  0  0  0  0  0  0  0  0  0  0
   -5.5735   -1.7257   -0.4294 C   0  0  0  0  0  0  0  0  0  0  0  0
   -0.9739   -0.3282    0.2617 N   0  0  0  0  0  0  0  0  0  0  0  0
    0.3450   -0.0341    0.1063 C   0  0  0  0  0  0  0  0  0  0  0  0
    1.5215   -0.8249    0.0985 C   0  0  0  0  0  0  0  0  0  0  0  0
    1.5727   -2.2168    0.2679 C   0  0  0  0  0  0  0  0  0  0  0  0
    2.7806   -2.8733    0.2449 C   0  0  0  0  0  0  0  0  0  0  0  0
    3.9649   -2.1459    0.0522 C   0  0  0  0  0  0  0  0  0  0  0  0
    3.9316   -0.7816   -0.1161 C   0  0  0  0  0  0  0  0  0  0  0  0
    2.7117   -0.0753   -0.0985 C   0  0  0  0  0  0  0  0  0  0  0  0
    2.7480    1.2776   -0.2680 N   0  0  0  0  0  0  0  0  0  0  0  0
    0.8771    3.8618   -0.2271 H   0  0  0  0  0  0  0  0  0  0  0  0
    2.5717    3.7693   -0.4017 H   0  0  0  0  0  0  0  0  0  0  0  0
   -3.3732    1.0347    1.4098 H   0  0  0  0  0  0  0  0  0  0  0  0
   -3.5260    1.7840   -0.1795 H   0  0  0  0  0  0  0  0  0  0  0  0
   -5.2807   -0.3216    1.1777 H   0  0  0  0  0  0  0  0  0  0  0  0
   -5.6153    0.4271   -0.3842 H   0  0  0  0  0  0  0  0  0  0  0  0
   -5.0757   -2.5611    0.0636 H   0  0  0  0  0  0  0  0  0  0  0  0
   -6.6437   -1.8180   -0.2465 H   0  0  0  0  0  0  0  0  0  0  0  0
   -5.4104   -1.8106   -1.5041 H   0  0  0  0  0  0  0  0  0  0  0  0
    0.6569   -2.7759    0.4176 H   0  0  0  0  0  0  0  0  0  0  0  0
    2.8184   -3.9466    0.3734 H   0  0  0  0  0  0  0  0  0  0  0  0
    4.9148   -2.6648    0.0356 H   0  0  0  0  0  0  0  0  0  0  0  0
    4.8461   -0.2218   -0.2677 H   0  0  0  0  0  0  0  0  0  0  0  0
   -1.3846   -1.2380    0.4069 H   0  0  0  0  0  0  0  0  0  0  0  0
 15 14  2  0
 15 16  1  0
 14 13  1  0
 16 17  2  0
 13 12  2  0
 17 12  1  0
 17 18  1  0
 12 11  1  0
 18  2  2  0
 11 10  1  0
 11  3  2  0
  2  3  1  0
  2  1  1  0
 10  5  1  0
  3  4  1  0
  5  4  2  0
  5  6  1  0
  9  8  1  0
  8  7  1  0
  7  6  1  0
  1 19  1  0
  1 20  1  0
  6 21  1  0
  6 22  1  0
  8 23  1  0
  8 24  1  0
  9 25  1  0
  9 26  1  0
  9 27  1  0
 13 28  1  0
 14 29  1  0
 15 30  1  0
 16 31  1  0
 10 32  1  0
M  END
