
     RDKit          3D

 47 47  0  0  0  0  0  0  0  0999 V2000
   -3.6546   -0.2134   -1.0098 N   0  0  0  0  0  0  0  0  0  0  0  0
   -3.7222    0.3168    0.2010 C   0  0  0  0  0  0  0  0  0  0  0  0
   -5.0518    0.3327    0.8944 C   0  0  0  0  0  0  0  0  0  0  0  0
   -2.5838    0.8490    0.8222 C   0  0  0  0  0  0  0  0  0  0  0  0
   -2.6264    1.3866    2.0542 O   0  0  0  0  0  0  0  0  0  0  0  0
   -1.3630    0.8384    0.1545 C   0  0  0  0  0  0  0  0  0  0  0  0
   -0.1290    1.3935    0.8137 C   0  0  0  0  0  0  0  0  0  0  0  0
   -1.3186    0.2611   -1.1163 C   0  0  0  0  0  0  0  0  0  0  0  0
   -2.4936   -0.2455   -1.6516 C   0  0  0  0  0  0  0  0  0  0  0  0
   -0.0229    0.2301   -1.8796 C   0  0  0  0  0  0  0  0  0  0  0  0
   -0.1393   -0.6765   -2.9720 O   0  0  0  0  0  0  0  0  0  0  0  0
    0.9792   -0.6594   -4.1148 P   0  0  1  0  0  0  0  0  0  0  0  0
    2.3793   -0.6423   -3.6544 O   0  0  0  0  0  0  0  0  0  0  0  0
    0.4582   -1.9414   -4.9018 O   0  0  0  0  0  0  0  0  0  0  0  0
    0.6926    0.6256   -5.0192 O   0  0  0  0  0  0  0  0  0  0  0  0
    0.4498    0.3972    1.6955 N   0  0  0  0  0  0  0  0  0  0  0  0
    1.6281    0.8316    2.4025 C   0  0  2  0  0  0  0  0  0  0  0  0
    2.8283    1.1896    1.5318 C   0  0  0  0  0  0  0  0  0  0  0  0
    3.6113    2.0698    1.7915 O   0  0  0  0  0  0  0  0  0  0  0  0
    2.0681   -0.2336    3.4151 C   0  0  0  0  0  0  0  0  0  0  0  0
    1.0605   -0.4252    4.5413 C   0  0  0  0  0  0  0  0  0  0  0  0
    1.4729   -1.5225    5.5142 C   0  0  0  0  0  0  0  0  0  0  0  0
    0.4860   -1.6870    6.6621 C   0  0  0  0  0  0  0  0  0  0  0  0
    2.9516    0.3934    0.4762 O   0  0  0  0  0  0  0  0  0  0  0  0
   -5.3680    1.3454    1.1586 H   0  0  0  0  0  0  0  0  0  0  0  0
   -5.8130   -0.0875    0.2414 H   0  0  0  0  0  0  0  0  0  0  0  0
   -5.0406   -0.2582    1.8138 H   0  0  0  0  0  0  0  0  0  0  0  0
   -3.5291    1.4197    2.3893 H   0  0  0  0  0  0  0  0  0  0  0  0
   -0.3912    2.2685    1.4117 H   0  0  0  0  0  0  0  0  0  0  0  0
    0.5629    1.7613    0.0427 H   0  0  0  0  0  0  0  0  0  0  0  0
   -2.5084   -0.6979   -2.6349 H   0  0  0  0  0  0  0  0  0  0  0  0
    0.2131    1.2385   -2.2377 H   0  0  0  0  0  0  0  0  0  0  0  0
    0.8006   -0.0877   -1.2361 H   0  0  0  0  0  0  0  0  0  0  0  0
    1.0382   -2.2253   -5.6215 H   0  0  0  0  0  0  0  0  0  0  0  0
   -0.1868    0.6713   -5.4187 H   0  0  0  0  0  0  0  0  0  0  0  0
    0.6262   -0.4678    1.1987 H   0  0  0  0  0  0  0  0  0  0  0  0
    1.3776    1.7443    2.9529 H   0  0  0  0  0  0  0  0  0  0  0  0
    3.0347    0.0514    3.8397 H   0  0  0  0  0  0  0  0  0  0  0  0
    2.2295   -1.1819    2.8910 H   0  0  0  0  0  0  0  0  0  0  0  0
    0.0796   -0.6550    4.1183 H   0  0  0  0  0  0  0  0  0  0  0  0
    0.9485    0.5193    5.0847 H   0  0  0  0  0  0  0  0  0  0  0  0
    2.4661   -1.2999    5.9165 H   0  0  0  0  0  0  0  0  0  0  0  0
    1.5705   -2.4685    4.9728 H   0  0  0  0  0  0  0  0  0  0  0  0
    0.7973   -2.4747    7.3491 H   0  0  0  0  0  0  0  0  0  0  0  0
    0.3967   -0.7635    7.2371 H   0  0  0  0  0  0  0  0  0  0  0  0
   -0.5093   -1.9431    6.2943 H   0  0  0  0  0  0  0  0  0  0  0  0
    3.7382    0.6347   -0.0356 H   0  0  0  0  0  0  0  0  0  0  0  0
  1  2  2  0
  1  9  1  0
  2  3  1  0
  2  4  1  0
  3 25  1  0
  3 26  1  0
  3 27  1  0
  4  5  1  0
  4  6  2  0
  5 28  1  0
  6  7  1  0
  6  8  1  0
  7 16  1  0
  7 29  1  0
  7 30  1  0
  8  9  2  0
  8 10  1  0
  9 31  1  0
 10 11  1  0
 10 32  1  0
 10 33  1  0
 12 11  1  1
 12 13  2  0
 12 14  1  0
 12 15  1  0
 14 34  1  0
 15 35  1  0
 16 17  1  0
 16 36  1  0
 17 18  1  0
 17 20  1  0
 17 37  1  1
 18 19  2  0
 18 24  1  0
 20 21  1  0
 20 38  1  0
 20 39  1  0
 21 22  1  0
 21 40  1  0
 21 41  1  0
 22 23  1  0
 22 42  1  0
 22 43  1  0
 23 44  1  0
 23 45  1  0
 23 46  1  0
 24 47  1  0
M  END
