
     RDKit          3D

 13 13  0  0  0  0  0  0  0  0999 V2000
    1.1711   -0.6171    0.0260 N   0  0  0  0  0  0  0  0  0  0  0  0
    0.0189   -1.3672    0.0028 C   0  0  0  0  0  0  0  0  0  0  0  0
    0.0389   -2.5737   -0.0073 O   0  0  0  0  0  0  0  0  0  0  0  0
   -1.1576   -0.6554   -0.0062 N   0  0  0  0  0  0  0  0  0  0  0  0
   -1.3001    0.7066    0.0047 C   0  0  0  0  0  0  0  0  0  0  0  0
   -2.3910    1.2248    0.0019 O   0  0  0  0  0  0  0  0  0  0  0  0
   -0.0287    1.5042    0.0174 C   0  0  0  0  0  0  0  0  0  0  0  0
    1.2682    0.7490    0.0381 C   0  0  0  0  0  0  0  0  0  0  0  0
    2.3412    1.3027    0.0622 O   0  0  0  0  0  0  0  0  0  0  0  0
    2.0353   -1.1454    0.0364 H   0  0  0  0  0  0  0  0  0  0  0  0
   -2.0038   -1.2120   -0.0212 H   0  0  0  0  0  0  0  0  0  0  0  0
   -0.0281    2.1569   -0.8598 H   0  0  0  0  0  0  0  0  0  0  0  0
   -0.0509    2.1710    0.8830 H   0  0  0  0  0  0  0  0  0  0  0  0
  1  2  1  0
  1  8  1  0
  2  3  2  0
  2  4  1  0
  4  5  1  0
  5  6  2  0
  5  7  1  0
  7  8  1  0
  8  9  2  0
  1 10  1  0
  4 11  1  0
  7 12  1  0
  7 13  1  0
M  END
