
     RDKit          3D

 35 37  0  0  0  0  0  0  0  0999 V2000
    4.5930    0.1898    0.2373 C   0  0  0  0  0  0  0  0  0  0  0  0
    7.5595   -1.5068   -0.2886 N   0  0  0  0  0  0  0  0  0  0  0  0
    5.1273    0.1437    1.3329 O   0  0  0  0  0  0  0  0  0  0  0  0
   -4.9472    0.9807   -0.3794 S   0  0  0  0  0  0  0  0  0  0  0  0
    5.2845   -0.4469   -0.9677 C   0  0  0  0  0  0  0  0  0  0  0  0
    3.4123    0.7838    0.0023 N   0  0  0  0  0  0  0  0  0  0  0  0
   -0.8061   -1.2878    0.4192 O   0  0  0  0  0  0  0  0  0  0  0  0
    6.5516   -1.0302   -0.5674 C   0  0  0  0  0  0  0  0  0  0  0  0
   -2.1185   -1.6745    0.4602 N   0  0  0  0  0  0  0  0  0  0  0  0
    2.6535    1.3839    1.0887 C   0  0  0  0  0  0  0  0  0  0  0  0
   -1.9551    0.4813   -0.1024 N   0  0  0  0  0  0  0  0  0  0  0  0
    1.3223    0.6693    1.2712 C   0  0  0  0  0  0  0  0  0  0  0  0
    0.5362    0.6792   -0.0462 C   0  0  1  0  0  0  0  0  0  0  0  0
    1.3840    0.0763   -1.1736 C   0  0  0  0  0  0  0  0  0  0  0  0
    2.7168    0.8070   -1.2728 C   0  0  0  0  0  0  0  0  0  0  0  0
   -0.7738   -0.0058    0.0810 C   0  0  0  0  0  0  0  0  0  0  0  0
   -2.7645   -0.5911    0.1434 C   0  0  0  0  0  0  0  0  0  0  0  0
   -4.2034   -0.5095    0.0536 C   0  0  0  0  0  0  0  0  0  0  0  0
   -5.1329   -1.4893    0.2714 C   0  0  0  0  0  0  0  0  0  0  0  0
   -6.4574   -1.0266    0.0865 C   0  0  0  0  0  0  0  0  0  0  0  0
   -6.5047    0.2901   -0.2679 C   0  0  0  0  0  0  0  0  0  0  0  0
    4.6709   -1.2344   -1.4119 H   0  0  0  0  0  0  0  0  0  0  0  0
    5.4763    0.2883   -1.7526 H   0  0  0  0  0  0  0  0  0  0  0  0
    3.2358    1.3453    2.0046 H   0  0  0  0  0  0  0  0  0  0  0  0
    2.4842    2.4389    0.8511 H   0  0  0  0  0  0  0  0  0  0  0  0
    1.5045   -0.3567    1.6006 H   0  0  0  0  0  0  0  0  0  0  0  0
    0.7533    1.1707    2.0558 H   0  0  0  0  0  0  0  0  0  0  0  0
    0.3047    1.7165   -0.3043 H   0  0  0  0  0  0  0  0  0  0  0  0
    1.5662   -0.9853   -0.9883 H   0  0  0  0  0  0  0  0  0  0  0  0
    0.8628    0.1591   -2.1287 H   0  0  0  0  0  0  0  0  0  0  0  0
    2.5508    1.8501   -1.5593 H   0  0  0  0  0  0  0  0  0  0  0  0
    3.3206    0.3601   -2.0571 H   0  0  0  0  0  0  0  0  0  0  0  0
   -4.8772   -2.5009    0.5528 H   0  0  0  0  0  0  0  0  0  0  0  0
   -7.3355   -1.6426    0.2124 H   0  0  0  0  0  0  0  0  0  0  0  0
   -7.3785    0.8900   -0.4713 H   0  0  0  0  0  0  0  0  0  0  0  0
  1  3  2  0
  1  5  1  0
  1  6  1  0
  2  8  3  0
  4 18  1  0
  4 21  1  0
  5  8  1  0
  6 10  1  0
  6 15  1  0
  7  9  1  0
  7 16  1  0
  9 17  2  0
 10 12  1  0
 11 16  2  0
 11 17  1  0
 12 13  1  0
 13 14  1  0
 13 16  1  0
 14 15  1  0
 17 18  1  0
 18 19  2  0
 19 20  1  0
 20 21  2  0
  5 22  1  0
  5 23  1  0
 10 24  1  0
 10 25  1  0
 12 26  1  0
 12 27  1  0
 13 28  1  6
 14 29  1  0
 14 30  1  0
 15 31  1  0
 15 32  1  0
 19 33  1  0
 20 34  1  0
 21 35  1  0
M  END
