
     RDKit          3D

 41 42  0  0  0  0  0  0  0  0999 V2000
   -1.6975   -0.4223    1.0239 C   0  0  0  0  0  0  0  0  0  0  0  0
    3.4609    2.8304    0.6303 C   0  0  0  0  0  0  0  0  0  0  0  0
   -1.0598    1.1902   -0.6323 C   0  0  0  0  0  0  0  0  0  0  0  0
    1.3955   -3.2520    0.4418 C   0  0  0  0  0  0  0  0  0  0  0  0
   -0.0929   -2.6017   -1.4237 C   0  0  0  0  0  0  0  0  0  0  0  0
   -3.0347   -0.1810    0.7225 C   0  0  0  0  0  0  0  0  0  0  0  0
   -2.3951    1.4303   -0.9369 C   0  0  0  0  0  0  0  0  0  0  0  0
   -1.3958   -1.4400    2.0883 C   0  0  0  0  0  0  0  0  0  0  0  0
   -3.3855    0.7365   -0.2606 C   0  0  0  0  0  0  0  0  0  0  0  0
    0.8557   -2.2650   -0.5530 C   0  0  0  0  0  0  0  0  0  0  0  0
   -0.1636    1.9002   -1.3549 O   0  0  0  0  0  0  0  0  0  0  0  0
   -4.6699    0.9955   -0.5851 O   0  0  0  0  0  0  0  0  0  0  0  0
    1.4206   -0.8663   -0.5280 C   0  0  1  0  0  0  0  0  0  0  0  0
    0.7881   -0.0252    0.6096 C   0  0  1  0  0  0  0  0  0  0  0  0
    2.9424   -0.8522   -0.3949 C   0  0  0  0  0  0  0  0  0  0  0  0
    3.4914    0.5590   -0.5294 C   0  0  0  0  0  0  0  0  0  0  0  0
    1.5647    1.2461    0.8643 C   0  0  0  0  0  0  0  0  0  0  0  0
    2.7659    1.5340    0.3534 C   0  0  0  0  0  0  0  0  0  0  0  0
   -0.6781    0.2595    0.3468 C   0  0  0  0  0  0  0  0  0  0  0  0
    2.8497    3.5054    1.2284 H   0  0  0  0  0  0  0  0  0  0  0  0
    4.4013    2.6588    1.1595 H   0  0  0  0  0  0  0  0  0  0  0  0
    3.7185    3.3386   -0.3022 H   0  0  0  0  0  0  0  0  0  0  0  0
    1.4080   -2.8467    1.4565 H   0  0  0  0  0  0  0  0  0  0  0  0
    0.8024   -4.1658    0.4557 H   0  0  0  0  0  0  0  0  0  0  0  0
    2.4265   -3.5271    0.2070 H   0  0  0  0  0  0  0  0  0  0  0  0
   -0.4750   -1.8915   -2.1469 H   0  0  0  0  0  0  0  0  0  0  0  0
   -0.5252   -3.5953   -1.4401 H   0  0  0  0  0  0  0  0  0  0  0  0
   -3.8074   -0.7201    1.2601 H   0  0  0  0  0  0  0  0  0  0  0  0
   -2.6511    2.1590   -1.6968 H   0  0  0  0  0  0  0  0  0  0  0  0
   -0.7612   -1.0370    2.8790 H   0  0  0  0  0  0  0  0  0  0  0  0
   -2.3145   -1.7930    2.5548 H   0  0  0  0  0  0  0  0  0  0  0  0
   -0.8869   -2.3119    1.6757 H   0  0  0  0  0  0  0  0  0  0  0  0
    0.7079    1.8772   -0.9312 H   0  0  0  0  0  0  0  0  0  0  0  0
   -5.2614    0.4600   -0.0447 H   0  0  0  0  0  0  0  0  0  0  0  0
    1.1618   -0.3907   -1.4799 H   0  0  0  0  0  0  0  0  0  0  0  0
    0.8517   -0.6115    1.5322 H   0  0  0  0  0  0  0  0  0  0  0  0
    3.2297   -1.2564    0.5806 H   0  0  0  0  0  0  0  0  0  0  0  0
    3.3909   -1.5026   -1.1498 H   0  0  0  0  0  0  0  0  0  0  0  0
    4.5562    0.5736   -0.2792 H   0  0  0  0  0  0  0  0  0  0  0  0
    3.4312    0.8975   -1.5707 H   0  0  0  0  0  0  0  0  0  0  0  0
    1.0886    1.9635    1.5285 H   0  0  0  0  0  0  0  0  0  0  0  0
 12  9  1  0
  9  6  1  0
  9  7  2  0
  6  1  2  0
  7  3  1  0
  1  8  1  0
  1 19  1  0
  3 19  2  0
  3 11  1  0
  4 10  1  0
 19 14  1  0
 10  5  2  0
 10 13  1  0
 14 13  1  0
 14 17  1  0
 13 15  1  0
 17 18  2  0
 15 16  1  0
 18 16  1  0
 18  2  1  0
  2 20  1  0
  2 21  1  0
  2 22  1  0
  4 23  1  0
  4 24  1  0
  4 25  1  0
  5 26  1  0
  5 27  1  0
  6 28  1  0
  7 29  1  0
  8 30  1  0
  8 31  1  0
  8 32  1  0
 11 33  1  0
 12 34  1  0
 13 35  1  6
 14 36  1  1
 15 37  1  0
 15 38  1  0
 16 39  1  0
 16 40  1  0
 17 41  1  0
M  END
