
     RDKit          3D

 35 36  0  0  0  0  0  0  0  0999 V2000
   -5.3249    0.6804   -0.1417 C   0  0  0  0  0  0  0  0  0  0  0  0
   -6.2813   -0.2731    0.0586 N   0  0  0  0  0  0  0  0  0  0  0  0
    2.2942   -1.0404    0.2347 O   0  0  0  0  0  0  0  0  0  0  0  0
   -3.9191    0.1910   -0.1023 C   0  0  0  0  0  0  0  0  0  0  0  0
    1.0905   -0.3942    0.2714 N   0  0  0  0  0  0  0  0  0  0  0  0
    3.4746    0.6277   -0.7127 O   0  0  0  0  0  0  0  0  0  0  0  0
   -2.8871    1.0889    0.1792 C   0  0  0  0  0  0  0  0  0  0  0  0
   -5.5309    1.9134   -0.4051 N   0  0  0  0  0  0  0  0  0  0  0  0
   -1.5727    0.6699    0.2147 C   0  0  0  0  0  0  0  0  0  0  0  0
   -1.2485   -0.6652   -0.0453 C   0  0  0  0  0  0  0  0  0  0  0  0
    0.1262   -1.1603   -0.0325 C   0  0  0  0  0  0  0  0  0  0  0  0
    3.3457   -0.1464    0.4465 C   0  0  2  0  0  0  0  0  0  0  0  0
    4.5171    1.5828   -0.6135 C   0  0  0  0  0  0  0  0  0  0  0  0
    5.8608    0.9111   -0.3927 C   0  0  0  0  0  0  0  0  0  0  0  0
    5.7944    0.0003    0.8284 C   0  0  0  0  0  0  0  0  0  0  0  0
    4.6021   -0.9493    0.7253 C   0  0  0  0  0  0  0  0  0  0  0  0
   -2.2751   -1.5584   -0.3379 C   0  0  0  0  0  0  0  0  0  0  0  0
   -3.5962   -1.1375   -0.3630 C   0  0  0  0  0  0  0  0  0  0  0  0
   -7.2308    0.0446    0.1732 H   0  0  0  0  0  0  0  0  0  0  0  0
   -6.0532   -1.0676    0.6333 H   0  0  0  0  0  0  0  0  0  0  0  0
   -3.1270    2.1245    0.3774 H   0  0  0  0  0  0  0  0  0  0  0  0
   -6.5230    2.1345   -0.3829 H   0  0  0  0  0  0  0  0  0  0  0  0
   -0.7901    1.3819    0.4419 H   0  0  0  0  0  0  0  0  0  0  0  0
    0.2846   -2.2062   -0.2949 H   0  0  0  0  0  0  0  0  0  0  0  0
    3.1167    0.5051    1.3067 H   0  0  0  0  0  0  0  0  0  0  0  0
    4.5041    2.1564   -1.5408 H   0  0  0  0  0  0  0  0  0  0  0  0
    4.3137    2.2831    0.2098 H   0  0  0  0  0  0  0  0  0  0  0  0
    6.1319    0.3325   -1.2802 H   0  0  0  0  0  0  0  0  0  0  0  0
    6.6286    1.6767   -0.2633 H   0  0  0  0  0  0  0  0  0  0  0  0
    6.7178   -0.5703    0.9369 H   0  0  0  0  0  0  0  0  0  0  0  0
    5.6954    0.6107    1.7317 H   0  0  0  0  0  0  0  0  0  0  0  0
    4.4806   -1.5164    1.6507 H   0  0  0  0  0  0  0  0  0  0  0  0
    4.7627   -1.6667   -0.0853 H   0  0  0  0  0  0  0  0  0  0  0  0
   -2.0439   -2.5944   -0.5532 H   0  0  0  0  0  0  0  0  0  0  0  0
   -4.3664   -1.8560   -0.6108 H   0  0  0  0  0  0  0  0  0  0  0  0
 14 15  1  0
 14 13  1  0
 15 16  1  0
 13  6  1  0
 16 12  1  0
  6 12  1  0
 12  3  1  0
  3  5  1  0
  5 11  2  0
 11 10  1  0
 10 17  2  0
 10  9  1  0
 17 18  1  0
  9  7  2  0
 18  4  2  0
  7  4  1  0
  4  1  1  0
  1  2  1  0
  1  8  2  0
  2 19  1  0
  2 20  1  0
  7 21  1  0
  8 22  1  0
  9 23  1  0
 11 24  1  0
 12 25  1  1
 13 26  1  0
 13 27  1  0
 14 28  1  0
 14 29  1  0
 15 30  1  0
 15 31  1  0
 16 32  1  0
 16 33  1  0
 17 34  1  0
 18 35  1  0
M  END
