
     RDKit          3D

 32 34  0  0  0  0  0  0  0  0999 V2000
   -2.2265   -0.7572   -0.2155 C   0  0  0  0  0  0  0  0  0  0  0  0
   -3.6244   -0.5936   -0.1507 C   0  0  0  0  0  0  0  0  0  0  0  0
   -4.5302   -1.6270   -0.4816 C   0  0  0  0  0  0  0  0  0  0  0  0
   -5.8786   -1.4110   -0.4039 C   0  0  0  0  0  0  0  0  0  0  0  0
   -6.3769   -0.1556    0.0058 C   0  0  0  0  0  0  0  0  0  0  0  0
   -5.5213    0.8625    0.3308 C   0  0  0  0  0  0  0  0  0  0  0  0
   -4.1246    0.6670    0.2580 C   0  0  0  0  0  0  0  0  0  0  0  0
   -3.2997    1.6917    0.5835 N   0  0  0  0  0  0  0  0  0  0  0  0
   -2.0132    1.5044    0.5077 C   0  0  0  0  0  0  0  0  0  0  0  0
   -1.3997    0.2879    0.1085 C   0  0  0  0  0  0  0  0  0  0  0  0
    0.0667    0.1754    0.0592 C   0  0  0  0  0  0  0  0  0  0  0  0
    0.8478    1.2460   -0.3739 C   0  0  0  0  0  0  0  0  0  0  0  0
    2.2291    1.1445   -0.4257 C   0  0  0  0  0  0  0  0  0  0  0  0
    2.8335   -0.0399   -0.0360 C   0  0  0  0  0  0  0  0  0  0  0  0
    4.5945   -0.1973   -0.0959 S   0  0  1  0  0  0  0  0  0  0  0  0
    4.9478   -1.5415   -0.5290 O   0  0  0  0  0  0  0  0  0  0  0  0
    5.1193    0.9328   -0.8502 O   0  0  0  0  0  0  0  0  0  0  0  0
    4.9728   -0.1290    1.5098 N   0  0  0  0  0  0  0  0  0  0  0  0
    2.0778   -1.1223    0.3976 C   0  0  0  0  0  0  0  0  0  0  0  0
    0.7015   -1.0088    0.4436 C   0  0  0  0  0  0  0  0  0  0  0  0
   -1.8224   -1.7076   -0.5448 H   0  0  0  0  0  0  0  0  0  0  0  0
   -4.1421   -2.5878   -0.7966 H   0  0  0  0  0  0  0  0  0  0  0  0
   -6.5709   -2.2031   -0.6569 H   0  0  0  0  0  0  0  0  0  0  0  0
   -7.4463   -0.0008    0.0625 H   0  0  0  0  0  0  0  0  0  0  0  0
   -5.8938    1.8283    0.6473 H   0  0  0  0  0  0  0  0  0  0  0  0
   -1.3861    2.3439    0.7931 H   0  0  0  0  0  0  0  0  0  0  0  0
    0.3800    2.1656   -0.7001 H   0  0  0  0  0  0  0  0  0  0  0  0
    2.8142    1.9834   -0.7757 H   0  0  0  0  0  0  0  0  0  0  0  0
    2.5496   -2.0446    0.7088 H   0  0  0  0  0  0  0  0  0  0  0  0
    0.1179   -1.8466    0.8021 H   0  0  0  0  0  0  0  0  0  0  0  0
    4.9152    0.8109    1.8884 H   0  0  0  0  0  0  0  0  0  0  0  0
    5.8892   -0.5273    1.6933 H   0  0  0  0  0  0  0  0  0  0  0  0
  1  2  2  0
  1 10  1  0
  2  3  1  0
  2  7  1  0
  3  4  2  0
  4  5  1  0
  5  6  2  0
  6  7  1  0
  7  8  2  0
  8  9  1  0
  9 10  2  0
 10 11  1  0
 11 12  2  0
 11 20  1  0
 12 13  1  0
 13 14  2  0
 14 15  1  0
 14 19  1  0
 15 16  2  0
 15 17  2  0
 15 18  1  1
 19 20  2  0
  1 21  1  0
  3 22  1  0
  4 23  1  0
  5 24  1  0
  6 25  1  0
  9 26  1  0
 12 27  1  0
 13 28  1  0
 18 31  1  0
 18 32  1  0
 19 29  1  0
 20 30  1  0
M  END
