
     RDKit          3D

 10  9  0  0  0  0  0  0  0  0999 V2000
   -2.0923   -0.7409    0.0075 O   0  0  0  0  0  0  0  0  0  0  0  0
   -1.2139    0.2313    0.0265 C   0  0  0  0  0  0  0  0  0  0  0  0
    0.2239   -0.2936   -0.0018 C   0  0  0  0  0  0  0  0  0  0  0  0
    1.2730    0.7836    0.0131 C   0  0  0  0  0  0  0  0  0  0  0  0
    2.5184    0.2041   -0.0198 F   0  0  0  0  0  0  0  0  0  0  0  0
    0.4656   -1.4659   -0.0316 O   0  0  0  0  0  0  0  0  0  0  0  0
   -1.4491    1.4095    0.0625 O   0  0  0  0  0  0  0  0  0  0  0  0
   -2.9959   -0.3869    0.0261 H   0  0  0  0  0  0  0  0  0  0  0  0
    1.1500    1.4400   -0.8517 H   0  0  0  0  0  0  0  0  0  0  0  0
    1.1740    1.3906    0.9166 H   0  0  0  0  0  0  0  0  0  0  0  0
  4  3  1  0
  4  5  1  0
  6  3  2  0
  3  2  1  0
  2  7  2  0
  2  1  1  0
  1  8  1  0
  4  9  1  0
  4 10  1  0
M  END
