
     RDKit          3D

 45 47  0  0  0  0  0  0  0  0999 V2000
   -0.5506   -2.2169    3.3273 O   0  0  0  0  0  0  0  0  0  0  0  0
   -1.0679   -1.8255    2.1741 C   0  0  0  0  0  0  0  0  0  0  0  0
   -0.8567   -2.3494    1.1141 O   0  0  0  0  0  0  0  0  0  0  0  0
   -2.0090   -0.6578    2.3769 C   0  0  0  0  0  0  0  0  0  0  0  0
   -2.3804   -0.0530    1.1296 N   0  0  0  0  0  0  0  0  0  0  0  0
   -3.5678   -0.2670    0.4849 C   0  0  0  0  0  0  0  0  0  0  0  0
   -4.6638   -1.0505    0.8399 C   0  0  0  0  0  0  0  0  0  0  0  0
   -5.7510   -1.0716   -0.0086 C   0  0  0  0  0  0  0  0  0  0  0  0
   -5.7682   -0.3223   -1.2064 C   0  0  0  0  0  0  0  0  0  0  0  0
   -6.8161   -0.3151   -2.0600 O   0  0  0  0  0  0  0  0  0  0  0  0
   -7.9524   -1.0971   -1.7566 C   0  0  0  0  0  0  0  0  0  0  0  0
   -4.6803    0.4521   -1.5605 C   0  0  0  0  0  0  0  0  0  0  0  0
   -3.5707    0.4819   -0.7091 C   0  0  0  0  0  0  0  0  0  0  0  0
   -2.3233    1.1515   -0.7696 C   0  0  0  0  0  0  0  0  0  0  0  0
   -1.6230    0.7983    0.3574 C   0  0  0  0  0  0  0  0  0  0  0  0
   -0.2564    1.1624    0.7221 C   0  0  0  0  0  0  0  0  0  0  0  0
    0.4017    0.5939    1.5694 O   0  0  0  0  0  0  0  0  0  0  0  0
    0.2741    2.2100   -0.0005 N   0  0  0  0  0  0  0  0  0  0  0  0
    1.8441    2.7333    0.1916 S   0  0  1  0  0  0  0  0  0  0  0  0
    2.0046    3.7839   -0.7827 O   0  0  0  0  0  0  0  0  0  0  0  0
    2.1263    2.9384    1.5900 O   0  0  0  0  0  0  0  0  0  0  0  0
    2.8077    1.3470   -0.3224 C   0  0  0  0  0  0  0  0  0  0  0  0
    3.2036    0.0288    0.7029 S   0  0  0  0  0  0  0  0  0  0  0  0
    3.3192    1.2924   -1.5003 N   0  0  0  0  0  0  0  0  0  0  0  0
    4.0708    0.2053   -1.7004 N   0  0  0  0  0  0  0  0  0  0  0  0
    4.1233   -0.5581   -0.6436 C   0  0  0  0  0  0  0  0  0  0  0  0
    4.8003   -1.7331   -0.5388 N   0  0  0  0  0  0  0  0  0  0  0  0
    5.4169   -2.4290   -1.5708 C   0  0  0  0  0  0  0  0  0  0  0  0
    5.4188   -2.0358   -2.7099 O   0  0  0  0  0  0  0  0  0  0  0  0
    6.0642   -3.7001   -1.1011 C   0  0  0  0  0  0  0  0  0  0  0  0
    0.0147   -2.9935    3.1983 H   0  0  0  0  0  0  0  0  0  0  0  0
   -2.9110   -1.0263    2.8703 H   0  0  0  0  0  0  0  0  0  0  0  0
   -1.5755    0.0724    3.0577 H   0  0  0  0  0  0  0  0  0  0  0  0
   -4.6805   -1.6427    1.7452 H   0  0  0  0  0  0  0  0  0  0  0  0
   -6.5966   -1.6862    0.2677 H   0  0  0  0  0  0  0  0  0  0  0  0
   -8.4168   -0.8016   -0.8119 H   0  0  0  0  0  0  0  0  0  0  0  0
   -8.6649   -0.9292   -2.5606 H   0  0  0  0  0  0  0  0  0  0  0  0
   -7.7181   -2.1642   -1.7147 H   0  0  0  0  0  0  0  0  0  0  0  0
   -4.6907    1.0260   -2.4788 H   0  0  0  0  0  0  0  0  0  0  0  0
   -1.9854    1.7886   -1.5725 H   0  0  0  0  0  0  0  0  0  0  0  0
   -0.2575    2.6878   -0.7188 H   0  0  0  0  0  0  0  0  0  0  0  0
    4.8359   -2.1601    0.3759 H   0  0  0  0  0  0  0  0  0  0  0  0
    5.3380   -4.3430   -0.6022 H   0  0  0  0  0  0  0  0  0  0  0  0
    6.4915   -4.2352   -1.9438 H   0  0  0  0  0  0  0  0  0  0  0  0
    6.8552   -3.4806   -0.3824 H   0  0  0  0  0  0  0  0  0  0  0  0
 20 19  2  0
 30 28  1  0
 29 28  2  0
 28 27  1  0
 27 26  1  0
 25 26  2  0
 25 24  1  0
 26 23  1  0
 24 22  2  0
 23 22  1  0
 22 19  1  0
 19 21  2  0
 19 18  1  1
 18 16  1  0
 16 17  2  0
 16 15  1  0
 15 14  2  0
 15  5  1  0
 14 13  1  0
  3  2  2  0
  2  1  1  0
  2  4  1  0
  5  4  1  0
  5  6  1  0
 13 12  1  0
 13  6  2  0
 12  9  2  0
  6  7  1  0
  9 10  1  0
  9  8  1  0
  7  8  2  0
 11 10  1  0
  1 31  1  0
  4 32  1  0
  4 33  1  0
  7 34  1  0
  8 35  1  0
 11 36  1  0
 11 37  1  0
 11 38  1  0
 12 39  1  0
 14 40  1  0
 18 41  1  0
 27 42  1  0
 30 43  1  0
 30 44  1  0
 30 45  1  0
M  END
