
     RDKit          3D

 20 21  0  0  0  0  0  0  0  0999 V2000
    0.7558   -2.3345    0.0173 O   0  0  0  0  0  0  0  0  0  0  0  0
    0.5519   -1.1358    0.0066 C   0  0  0  0  0  0  0  0  0  0  0  0
    1.6397   -0.2863    0.0151 N   0  0  0  0  0  0  0  0  0  0  0  0
    2.8707   -0.8678    0.0376 O   0  0  0  0  0  0  0  0  0  0  0  0
    1.6491    1.0889    0.0111 C   0  0  0  0  0  0  0  0  0  0  0  0
    2.6889    1.7019    0.0355 O   0  0  0  0  0  0  0  0  0  0  0  0
    0.3074    1.7574   -0.0323 C   0  0  0  0  0  0  0  0  0  0  0  0
   -0.8980    0.8752   -0.0275 C   0  0  0  0  0  0  0  0  0  0  0  0
   -0.7735   -0.5097   -0.0117 C   0  0  0  0  0  0  0  0  0  0  0  0
   -1.9034   -1.3288   -0.0102 C   0  0  0  0  0  0  0  0  0  0  0  0
   -3.1619   -0.7611   -0.0247 C   0  0  0  0  0  0  0  0  0  0  0  0
   -3.2935    0.6248   -0.0416 C   0  0  0  0  0  0  0  0  0  0  0  0
   -2.1710    1.4353   -0.0430 C   0  0  0  0  0  0  0  0  0  0  0  0
    2.6800   -1.8226    0.0448 H   0  0  0  0  0  0  0  0  0  0  0  0
    0.2698    2.4473    0.8150 H   0  0  0  0  0  0  0  0  0  0  0  0
    0.3017    2.3895   -0.9253 H   0  0  0  0  0  0  0  0  0  0  0  0
   -1.7911   -2.4043    0.0032 H   0  0  0  0  0  0  0  0  0  0  0  0
   -4.0397   -1.3927   -0.0235 H   0  0  0  0  0  0  0  0  0  0  0  0
   -4.2780    1.0739   -0.0537 H   0  0  0  0  0  0  0  0  0  0  0  0
   -2.2810    2.5123   -0.0555 H   0  0  0  0  0  0  0  0  0  0  0  0
 11 12  2  0
 11 10  1  0
 12 13  1  0
 10  9  2  0
 13  8  2  0
  9  8  1  0
  9  2  1  0
  8  7  1  0
  1  2  2  0
  2  3  1  0
  7  5  1  0
  3  5  1  0
  3  4  1  0
  5  6  2  0
  4 14  1  0
  7 15  1  0
  7 16  1  0
 10 17  1  0
 11 18  1  0
 12 19  1  0
 13 20  1  0
M  END
