
     RDKit          3D

 67 71  0  0  0  0  0  0  0  0999 V2000
   -0.8163    1.0376   -1.7451 N   0  0  0  0  0  0  0  0  0  0  0  0
    1.9341   -0.5765   -0.2908 C   0  0  0  0  0  0  0  0  0  0  0  0
    1.4364    1.9664   -1.5020 C   0  0  0  0  0  0  0  0  0  0  0  0
   -2.6839   -0.1024   -0.7575 C   0  0  0  0  0  0  0  0  0  0  0  0
    3.2311   -1.0231   -0.5019 C   0  0  0  0  0  0  0  0  0  0  0  0
    1.5861   -0.0946    0.9681 C   0  0  0  0  0  0  0  0  0  0  0  0
    2.7215    2.1621   -1.9964 C   0  0  0  0  0  0  0  0  0  0  0  0
    0.9561    2.8037   -0.5036 C   0  0  0  0  0  0  0  0  0  0  0  0
   -3.5872   -0.8042   -1.5338 C   0  0  0  0  0  0  0  0  0  0  0  0
   -3.0998    0.5641    0.4042 C   0  0  0  0  0  0  0  0  0  0  0  0
    4.1758   -0.9900    0.5137 C   0  0  0  0  0  0  0  0  0  0  0  0
    2.5139   -0.0582    1.9949 C   0  0  0  0  0  0  0  0  0  0  0  0
    3.5220    3.1726   -1.4872 C   0  0  0  0  0  0  0  0  0  0  0  0
    1.7679    3.8090   -0.0070 C   0  0  0  0  0  0  0  0  0  0  0  0
   -4.9294   -0.8530   -1.1891 C   0  0  0  0  0  0  0  0  0  0  0  0
   -4.4444    0.5348    0.7510 C   0  0  0  0  0  0  0  0  0  0  0  0
    3.8052   -0.5050    1.7561 C   0  0  0  0  0  0  0  0  0  0  0  0
    3.0524    4.0093   -0.4834 C   0  0  0  0  0  0  0  0  0  0  0  0
   -5.3418   -0.1755   -0.0491 C   0  0  0  0  0  0  0  0  0  0  0  0
    4.9719   -0.4599    3.0380 Cl  0  0  0  0  0  0  0  0  0  0  0  0
    1.1512    4.8397    1.2481 Cl  0  0  0  0  0  0  0  0  0  0  0  0
   -6.7215   -0.1982    0.3207 C   0  0  0  0  0  0  0  0  0  0  0  0
   -1.1505    1.9269    3.1130 C   0  0  0  0  0  0  0  0  0  0  0  0
   -2.9290    3.2917    1.9698 C   0  0  0  0  0  0  0  0  0  0  0  0
   -7.8347   -0.2177    0.6165 N   0  0  0  0  0  0  0  0  0  0  0  0
    0.2688   -5.0385   -1.9809 C   0  0  0  0  0  0  0  0  0  0  0  0
   -0.3289   -5.7865   -1.0482 N   0  0  0  0  0  0  0  0  0  0  0  0
    0.5380   -5.4478   -3.1018 O   0  0  0  0  0  0  0  0  0  0  0  0
   -0.6324   -5.3765    0.3094 C   0  0  0  0  0  0  0  0  0  0  0  0
    0.1689   -3.1845   -0.3200 N   0  0  0  0  0  0  0  0  0  0  0  0
    0.2555   -4.2149    0.6928 C   0  0  0  0  0  0  0  0  0  0  0  0
   -0.3778   -1.0445   -1.0134 N   0  0  0  0  0  0  0  0  0  0  0  0
    0.6355   -3.6050   -1.6215 C   0  0  0  0  0  0  0  0  0  0  0  0
   -0.5789   -2.0788   -0.0943 C   0  0  0  0  0  0  0  0  0  0  0  0
   -1.3443   -1.9609    0.8427 O   0  0  0  0  0  0  0  0  0  0  0  0
   -1.2695    0.0048   -1.1704 C   0  0  0  0  0  0  0  0  0  0  0  0
   -2.1362    1.1695    1.1024 O   0  0  0  0  0  0  0  0  0  0  0  0
    0.5904    0.8349   -2.0259 C   0  0  1  0  0  0  0  0  0  0  0  0
    0.9535   -0.5791   -1.4293 C   0  0  1  0  0  0  0  0  0  0  0  0
   -2.4306    1.8970    2.3036 C   0  0  1  0  0  0  0  0  0  0  0  0
    3.5197   -1.4023   -1.4749 H   0  0  0  0  0  0  0  0  0  0  0  0
    0.5818    0.2577    1.1677 H   0  0  0  0  0  0  0  0  0  0  0  0
    3.1023    1.5221   -2.7833 H   0  0  0  0  0  0  0  0  0  0  0  0
   -0.0426    2.6617   -0.1130 H   0  0  0  0  0  0  0  0  0  0  0  0
   -3.2451   -1.3145   -2.4248 H   0  0  0  0  0  0  0  0  0  0  0  0
    5.1828   -1.3409    0.3345 H   0  0  0  0  0  0  0  0  0  0  0  0
    2.2326    0.3166    2.9697 H   0  0  0  0  0  0  0  0  0  0  0  0
    4.5217    3.3183   -1.8741 H   0  0  0  0  0  0  0  0  0  0  0  0
   -5.6371   -1.3981   -1.7967 H   0  0  0  0  0  0  0  0  0  0  0  0
   -4.8166    1.0431    1.6284 H   0  0  0  0  0  0  0  0  0  0  0  0
    3.6748    4.7990   -0.0856 H   0  0  0  0  0  0  0  0  0  0  0  0
   -1.3296    2.4403    4.0575 H   0  0  0  0  0  0  0  0  0  0  0  0
   -0.8003    0.9199    3.3400 H   0  0  0  0  0  0  0  0  0  0  0  0
   -0.3596    2.4637    2.5867 H   0  0  0  0  0  0  0  0  0  0  0  0
   -2.1548    3.8660    1.4580 H   0  0  0  0  0  0  0  0  0  0  0  0
   -3.8189    3.2785    1.3395 H   0  0  0  0  0  0  0  0  0  0  0  0
   -3.1881    3.8189    2.8880 H   0  0  0  0  0  0  0  0  0  0  0  0
   -1.6847   -5.0956    0.4029 H   0  0  0  0  0  0  0  0  0  0  0  0
   -0.4527   -6.2186    0.9773 H   0  0  0  0  0  0  0  0  0  0  0  0
   -0.0317   -3.8192    1.6625 H   0  0  0  0  0  0  0  0  0  0  0  0
    1.2969   -4.5410    0.7617 H   0  0  0  0  0  0  0  0  0  0  0  0
    1.7246   -3.5190   -1.7037 H   0  0  0  0  0  0  0  0  0  0  0  0
    0.1977   -2.9839   -2.4016 H   0  0  0  0  0  0  0  0  0  0  0  0
    0.7272    0.7855   -3.1099 H   0  0  0  0  0  0  0  0  0  0  0  0
    1.3509   -1.1949   -2.2363 H   0  0  0  0  0  0  0  0  0  0  0  0
   -3.1879    1.3529    2.8777 H   0  0  0  0  0  0  0  0  0  0  0  0
   -0.5982   -6.7190   -1.3262 H   0  0  0  0  0  0  0  0  0  0  0  0
  1 36  2  0
  1 38  1  0
  2  5  2  0
  2  6  1  0
  2 39  1  0
  3  7  2  0
  3  8  1  0
  3 38  1  0
  4  9  2  0
  4 10  1  0
  4 36  1  0
  5 11  1  0
  6 12  2  0
  7 13  1  0
  8 14  2  0
  9 15  1  0
 10 16  2  0
 10 37  1  0
 11 17  2  0
 12 17  1  0
 13 18  2  0
 14 18  1  0
 15 19  2  0
 16 19  1  0
 19 22  1  0
 22 25  3  0
 23 40  1  0
 24 40  1  0
 26 27  1  0
 26 28  2  0
 26 33  1  0
 27 29  1  0
 29 31  1  0
 30 31  1  0
 30 33  1  0
 30 34  1  0
 32 34  1  0
 32 36  1  0
 32 39  1  0
 34 35  2  0
 37 40  1  0
 38 39  1  0
 17 20  1  0
 14 21  1  0
  5 41  1  0
  6 42  1  0
  7 43  1  0
  8 44  1  0
  9 45  1  0
 11 46  1  0
 12 47  1  0
 13 48  1  0
 15 49  1  0
 16 50  1  0
 18 51  1  0
 23 52  1  0
 23 53  1  0
 23 54  1  0
 24 55  1  0
 24 56  1  0
 24 57  1  0
 27 67  1  0
 29 58  1  0
 29 59  1  0
 31 60  1  0
 31 61  1  0
 33 62  1  0
 33 63  1  0
 38 64  1  6
 39 65  1  6
 40 66  1  1
M  END
