
     RDKit          3D

 63 65  0  0  0  0  0  0  0  0999 V2000
   -5.5199   -2.3414    0.0466 C   0  0  0  0  0  0  0  0  0  0  0  0
   -6.5247   -1.8177    0.8506 C   0  0  0  0  0  0  0  0  0  0  0  0
   -6.1997   -1.1454    2.0205 C   0  0  0  0  0  0  0  0  0  0  0  0
   -4.8647   -0.9999    2.3784 C   0  0  0  0  0  0  0  0  0  0  0  0
   -3.8623   -1.5273    1.5764 C   0  0  0  0  0  0  0  0  0  0  0  0
   -4.1819   -2.2072    0.4030 C   0  0  0  0  0  0  0  0  0  0  0  0
   -3.1060   -2.8200   -0.4576 C   0  0  0  0  0  0  0  0  0  0  0  0
   -1.9668   -1.9479   -0.6181 N   0  0  0  0  0  0  0  0  0  0  0  0
   -0.6968   -2.3158   -0.4035 C   0  0  0  0  0  0  0  0  0  0  0  0
   -0.3591   -3.4372   -0.0594 O   0  0  0  0  0  0  0  0  0  0  0  0
    0.3508   -1.2461   -0.7399 C   0  0  2  0  0  0  0  0  0  0  0  0
    1.5833   -1.5635   -0.0491 N   0  0  0  0  0  0  0  0  0  0  0  0
    2.7379   -0.7971   -0.4653 C   0  0  1  0  0  0  0  0  0  0  0  0
    3.9439   -1.2038    0.3752 C   0  0  0  0  0  0  0  0  0  0  0  0
    5.2339   -0.4328    0.0929 C   0  0  1  0  0  0  0  0  0  0  0  0
    5.0739    1.0680    0.3146 C   0  0  0  0  0  0  0  0  0  0  0  0
    6.3593   -0.9819    0.9650 C   0  0  0  0  0  0  0  0  0  0  0  0
    3.0335   -0.9897   -1.9539 C   0  0  0  0  0  0  0  0  0  0  0  0
    3.3285   -2.0723   -2.4287 O   0  0  0  0  0  0  0  0  0  0  0  0
    2.9256    0.1402   -2.6741 N   0  0  0  0  0  0  0  0  0  0  0  0
    2.9909    0.1034   -4.0329 O   0  0  0  0  0  0  0  0  0  0  0  0
   -0.0752    0.1513   -0.4194 C   0  0  0  0  0  0  0  0  0  0  0  0
   -0.3660    1.1957   -1.3480 C   0  0  0  0  0  0  0  0  0  0  0  0
   -0.4482    1.2599   -2.7449 C   0  0  0  0  0  0  0  0  0  0  0  0
   -0.7647    2.4588   -3.3438 C   0  0  0  0  0  0  0  0  0  0  0  0
   -1.0059    3.5976   -2.5574 C   0  0  0  0  0  0  0  0  0  0  0  0
   -1.4090    5.0811   -3.3621 Cl  0  0  0  0  0  0  0  0  0  0  0  0
   -0.9337    3.5842   -1.1826 C   0  0  0  0  0  0  0  0  0  0  0  0
   -0.5996    2.3654   -0.5944 C   0  0  0  0  0  0  0  0  0  0  0  0
   -0.4300    2.0486    0.7180 N   0  0  0  0  0  0  0  0  0  0  0  0
   -0.1265    0.7180    0.8263 C   0  0  0  0  0  0  0  0  0  0  0  0
    0.1245    0.0525    2.1274 C   0  0  0  0  0  0  0  0  0  0  0  0
   -0.3826   -1.0114    2.4252 O   0  0  0  0  0  0  0  0  0  0  0  0
    0.9727    0.7363    2.9158 N   0  0  0  0  0  0  0  0  0  0  0  0
    1.1596    0.3572    4.2068 O   0  0  0  0  0  0  0  0  0  0  0  0
   -5.7821   -2.8555   -0.8708 H   0  0  0  0  0  0  0  0  0  0  0  0
   -7.5604   -1.9294    0.5568 H   0  0  0  0  0  0  0  0  0  0  0  0
   -6.9801   -0.7337    2.6475 H   0  0  0  0  0  0  0  0  0  0  0  0
   -4.6018   -0.4737    3.2874 H   0  0  0  0  0  0  0  0  0  0  0  0
   -2.8248   -1.4036    1.8625 H   0  0  0  0  0  0  0  0  0  0  0  0
   -2.7553   -3.7497   -0.0087 H   0  0  0  0  0  0  0  0  0  0  0  0
   -3.5204   -3.0811   -1.4351 H   0  0  0  0  0  0  0  0  0  0  0  0
   -2.1537   -0.9932   -0.8835 H   0  0  0  0  0  0  0  0  0  0  0  0
    0.4477   -1.3153   -1.8393 H   0  0  0  0  0  0  0  0  0  0  0  0
    1.7690   -2.5568   -0.1209 H   0  0  0  0  0  0  0  0  0  0  0  0
    2.5206    0.2583   -0.2720 H   0  0  0  0  0  0  0  0  0  0  0  0
    3.6666   -1.0728    1.4261 H   0  0  0  0  0  0  0  0  0  0  0  0
    4.1253   -2.2736    0.2285 H   0  0  0  0  0  0  0  0  0  0  0  0
    5.5204   -0.5969   -0.9526 H   0  0  0  0  0  0  0  0  0  0  0  0
    6.0246    1.5850    0.1762 H   0  0  0  0  0  0  0  0  0  0  0  0
    4.3638    1.5208   -0.3783 H   0  0  0  0  0  0  0  0  0  0  0  0
    4.7262    1.2764    1.3295 H   0  0  0  0  0  0  0  0  0  0  0  0
    6.4863   -2.0567    0.8228 H   0  0  0  0  0  0  0  0  0  0  0  0
    7.3094   -0.5007    0.7283 H   0  0  0  0  0  0  0  0  0  0  0  0
    6.1554   -0.8082    2.0244 H   0  0  0  0  0  0  0  0  0  0  0  0
    2.5332    0.9890   -2.2919 H   0  0  0  0  0  0  0  0  0  0  0  0
    3.8934    0.3561   -4.2676 H   0  0  0  0  0  0  0  0  0  0  0  0
   -0.2744    0.3831   -3.3557 H   0  0  0  0  0  0  0  0  0  0  0  0
   -0.8321    2.5270   -4.4206 H   0  0  0  0  0  0  0  0  0  0  0  0
   -1.1209    4.4704   -0.5914 H   0  0  0  0  0  0  0  0  0  0  0  0
   -0.6209    2.6693    1.4894 H   0  0  0  0  0  0  0  0  0  0  0  0
    1.3779    1.6266    2.6628 H   0  0  0  0  0  0  0  0  0  0  0  0
    1.9457   -0.2053    4.2164 H   0  0  0  0  0  0  0  0  0  0  0  0
 27 26  1  0
 28 26  2  0
 28 29  1  0
 33 32  2  0
 30 29  1  0
 30 31  1  0
 26 25  1  0
 29 23  2  0
 17 15  1  0
 32 31  1  0
 32 34  1  0
 31 22  2  0
 25 24  2  0
 23 22  1  0
 23 24  1  0
 35 34  1  0
 22 11  1  0
 16 15  1  0
 15 14  1  0
 19 18  2  0
 14 13  1  0
 13 18  1  0
 13 12  1  0
 11 12  1  0
 11  9  1  0
 18 20  1  0
  2  3  1  0
  2  1  2  0
  3  4  2  0
  1  6  1  0
  8  9  1  0
  8  7  1  0
  9 10  2  0
 20 21  1  0
  4  5  1  0
  6  5  2  0
  6  7  1  0
  1 36  1  0
  2 37  1  0
  3 38  1  0
  4 39  1  0
  5 40  1  0
  7 41  1  0
  7 42  1  0
  8 43  1  0
 11 44  1  6
 12 45  1  0
 13 46  1  6
 14 47  1  0
 14 48  1  0
 15 49  1  6
 16 50  1  0
 16 51  1  0
 16 52  1  0
 17 53  1  0
 17 54  1  0
 17 55  1  0
 20 56  1  0
 21 57  1  0
 24 58  1  0
 25 59  1  0
 28 60  1  0
 30 61  1  0
 34 62  1  0
 35 63  1  0
M  END
