
     RDKit          3D

 84 85  0  0  0  0  0  0  0  0999 V2000
    0.2692   -0.7710    6.4279 C   0  0  2  0  0  0  0  0  0  0  0  0
    0.6422   -1.4891    5.1313 C   0  0  0  0  0  0  0  0  0  0  0  0
    1.6806   -1.1370    2.9395 C   0  0  2  0  0  0  0  0  0  0  0  0
    3.1505   -0.7818    2.7239 C   0  0  0  0  0  0  0  0  0  0  0  0
    0.7438   -0.4923    1.8979 C   0  0  2  0  0  0  0  0  0  0  0  0
   -0.6937   -0.4691    2.3521 C   0  0  0  0  0  0  0  0  0  0  0  0
   -1.4763   -1.6188    2.3061 C   0  0  0  0  0  0  0  0  0  0  0  0
   -1.2449    0.7127    2.8324 C   0  0  0  0  0  0  0  0  0  0  0  0
   -2.7997   -1.5815    2.7029 C   0  0  0  0  0  0  0  0  0  0  0  0
   -2.5639    0.7675    3.2448 C   0  0  0  0  0  0  0  0  0  0  0  0
   -3.3305   -0.3840    3.1618 C   0  0  0  0  0  0  0  0  0  0  0  0
    1.6875   -1.7810   -1.7661 C   0  0  0  0  0  0  0  0  0  0  0  0
    1.4795   -1.4588   -3.2165 C   0  0  0  0  0  0  0  0  0  0  0  0
    2.2314   -0.4753   -3.8474 C   0  0  0  0  0  0  0  0  0  0  0  0
    0.4973   -2.1087   -3.9593 C   0  0  0  0  0  0  0  0  0  0  0  0
    2.0355   -0.1455   -5.1805 C   0  0  0  0  0  0  0  0  0  0  0  0
    0.2864   -1.7922   -5.2880 C   0  0  0  0  0  0  0  0  0  0  0  0
    1.0527   -0.8084   -5.9127 C   0  0  0  0  0  0  0  0  0  0  0  0
    1.3905    0.2839   -8.1047 C   0  0  0  0  0  0  0  0  0  0  0  0
    0.7937    0.2705   -9.5271 C   0  0  1  0  0  0  0  0  0  0  0  0
   -1.5963   -1.7752   -1.0517 C   0  0  0  0  0  0  0  0  0  0  0  0
   -3.8207   -2.8181   -1.0469 C   0  0  0  0  0  0  0  0  0  0  0  0
   -5.1623   -2.3674   -0.4983 C   0  0  0  0  0  0  0  0  0  0  0  0
   -1.4785    0.6447   -1.6561 C   0  0  0  0  0  0  0  0  0  0  0  0
   -2.1586    1.4263   -0.5375 C   0  0  0  0  0  0  0  0  0  0  0  0
   -3.0611    2.5135   -1.1053 C   0  0  0  0  0  0  0  0  0  0  0  0
   -4.2476    4.5382   -0.6475 C   0  0  0  0  0  0  0  0  0  0  0  0
   -4.7347    2.5906    0.6246 C   0  0  0  0  0  0  0  0  0  0  0  0
    1.3139   -0.7124    4.2712 N   0  0  0  0  0  0  0  0  0  0  0  0
   -4.7274   -0.3367    3.5618 N   0  0  0  0  0  0  0  0  0  0  0  0
    0.7689   -0.5596   -7.2654 N   0  0  0  0  0  0  0  0  0  0  0  0
   -0.8640   -0.6046   -1.2063 N   0  0  0  0  0  0  0  0  0  0  0  0
   -2.9308   -1.6831   -1.1941 N   0  0  0  0  0  0  0  0  0  0  0  0
   -3.7075    3.3185   -0.0867 N   0  0  0  0  0  0  0  0  0  0  0  0
    0.3223   -2.6419    4.9416 O   0  0  0  0  0  0  0  0  0  0  0  0
    3.5539   -1.1715    1.4384 O   0  0  0  0  0  0  0  0  0  0  0  0
   -5.1546    0.6982    4.0182 O   0  0  0  0  0  0  0  0  0  0  0  0
   -5.3960   -1.3333    3.4132 O   0  0  0  0  0  0  0  0  0  0  0  0
    0.8660   -1.2648    0.7135 O   0  0  0  0  0  0  0  0  0  0  0  0
    1.2934    0.7965   -0.8220 O   0  0  0  0  0  0  0  0  0  0  0  0
   -1.0294   -2.8267   -0.7817 O   0  0  0  0  0  0  0  0  0  0  0  0
    2.3202    1.0163   -7.8562 O   0  0  0  0  0  0  0  0  0  0  0  0
    0.8035   -1.7440    7.8025 Cl  0  0  0  0  0  0  0  0  0  0  0  0
   -1.4942   -0.5840    6.4459 Cl  0  0  0  0  0  0  0  0  0  0  0  0
    1.5096    1.0369  -10.3322 F   0  0  0  0  0  0  0  0  0  0  0  0
    0.7732   -0.9657  -10.0325 F   0  0  0  0  0  0  0  0  0  0  0  0
   -0.4619    0.7252   -9.5206 F   0  0  0  0  0  0  0  0  0  0  0  0
    0.7797   -0.5962   -0.7469 P   0  0  1  0  0  0  0  0  0  0  0  0
    0.7080    0.2197    6.5277 H   0  0  0  0  0  0  0  0  0  0  0  0
    1.5518   -2.2200    2.8920 H   0  0  0  0  0  0  0  0  0  0  0  0
    3.2717    0.2999    2.8776 H   0  0  0  0  0  0  0  0  0  0  0  0
    3.7308   -1.2843    3.5076 H   0  0  0  0  0  0  0  0  0  0  0  0
    1.0712    0.5389    1.7206 H   0  0  0  0  0  0  0  0  0  0  0  0
   -1.0675   -2.5499    1.9408 H   0  0  0  0  0  0  0  0  0  0  0  0
   -0.6426    1.6114    2.8719 H   0  0  0  0  0  0  0  0  0  0  0  0
   -3.4022   -2.4768    2.6545 H   0  0  0  0  0  0  0  0  0  0  0  0
   -2.9766    1.6965    3.6088 H   0  0  0  0  0  0  0  0  0  0  0  0
    2.7369   -1.6800   -1.4787 H   0  0  0  0  0  0  0  0  0  0  0  0
    1.3719   -2.7949   -1.5309 H   0  0  0  0  0  0  0  0  0  0  0  0
    3.0012    0.0474   -3.2938 H   0  0  0  0  0  0  0  0  0  0  0  0
   -0.1081   -2.8794   -3.4985 H   0  0  0  0  0  0  0  0  0  0  0  0
    2.6490    0.6200   -5.6259 H   0  0  0  0  0  0  0  0  0  0  0  0
   -0.4800   -2.3166   -5.8467 H   0  0  0  0  0  0  0  0  0  0  0  0
   -3.3597   -3.5337   -0.3687 H   0  0  0  0  0  0  0  0  0  0  0  0
   -3.9575   -3.3246   -2.0067 H   0  0  0  0  0  0  0  0  0  0  0  0
   -5.8437   -3.2142   -0.4303 H   0  0  0  0  0  0  0  0  0  0  0  0
   -5.0570   -1.9379    0.4986 H   0  0  0  0  0  0  0  0  0  0  0  0
   -5.6293   -1.6210   -1.1433 H   0  0  0  0  0  0  0  0  0  0  0  0
   -0.7097    1.2545   -2.1245 H   0  0  0  0  0  0  0  0  0  0  0  0
   -2.1843    0.4151   -2.4592 H   0  0  0  0  0  0  0  0  0  0  0  0
   -2.7204    0.7358    0.0969 H   0  0  0  0  0  0  0  0  0  0  0  0
   -1.4021    1.8818    0.1037 H   0  0  0  0  0  0  0  0  0  0  0  0
   -2.4518    3.1804   -1.7224 H   0  0  0  0  0  0  0  0  0  0  0  0
   -3.7981    2.0539   -1.7900 H   0  0  0  0  0  0  0  0  0  0  0  0
   -4.6842    5.1503    0.1432 H   0  0  0  0  0  0  0  0  0  0  0  0
   -3.4543    5.1203   -1.1186 H   0  0  0  0  0  0  0  0  0  0  0  0
   -5.0296    4.3626   -1.4028 H   0  0  0  0  0  0  0  0  0  0  0  0
   -5.1545    3.2146    1.4144 H   0  0  0  0  0  0  0  0  0  0  0  0
   -5.5655    2.2672   -0.0232 H   0  0  0  0  0  0  0  0  0  0  0  0
   -4.3228    1.7026    1.1027 H   0  0  0  0  0  0  0  0  0  0  0  0
    1.5446    0.2312    4.5439 H   0  0  0  0  0  0  0  0  0  0  0  0
    0.0080   -1.1137   -7.6336 H   0  0  0  0  0  0  0  0  0  0  0  0
   -3.3548   -0.8251   -1.5016 H   0  0  0  0  0  0  0  0  0  0  0  0
    4.4748   -0.9175    1.3290 H   0  0  0  0  0  0  0  0  0  0  0  0
  1  2  1  0
  1 43  1  0
  1 44  1  0
  1 49  1  6
  2 29  1  0
  2 35  2  0
  3  4  1  0
  3  5  1  0
  3 29  1  0
  3 50  1  1
  4 36  1  0
  4 51  1  0
  4 52  1  0
  5  6  1  0
  5 39  1  0
  5 53  1  6
  6  7  2  0
  6  8  1  0
  7  9  1  0
  7 54  1  0
  8 10  2  0
  8 55  1  0
  9 11  2  0
  9 56  1  0
 10 11  1  0
 10 57  1  0
 11 30  1  0
 12 13  1  0
 12 48  1  0
 12 58  1  0
 12 59  1  0
 13 14  2  0
 13 15  1  0
 14 16  1  0
 14 60  1  0
 15 17  2  0
 15 61  1  0
 16 18  2  0
 16 62  1  0
 17 18  1  0
 17 63  1  0
 18 31  1  0
 19 20  1  0
 19 31  1  0
 19 42  2  0
 20 45  1  6
 20 46  1  0
 20 47  1  0
 21 32  1  0
 21 33  1  0
 21 41  2  0
 22 23  1  0
 22 33  1  0
 22 64  1  0
 22 65  1  0
 23 66  1  0
 23 67  1  0
 23 68  1  0
 24 25  1  0
 24 32  1  0
 24 69  1  0
 24 70  1  0
 25 26  1  0
 25 71  1  0
 25 72  1  0
 26 34  1  0
 26 73  1  0
 26 74  1  0
 27 34  1  0
 27 75  1  0
 27 76  1  0
 27 77  1  0
 28 34  1  0
 28 78  1  0
 28 79  1  0
 28 80  1  0
 29 81  1  0
 30 37  1  0
 30 38  2  0
 31 82  1  0
 32 48  1  0
 33 83  1  0
 36 84  1  0
 48 39  1  1
 40 48  2  0
M  CHG  2  30   1  37  -1
M  END
