
     RDKit          3D

 51 55  0  0  0  0  0  0  0  0999 V2000
    5.1304    0.2387    0.0215 C   0  0  0  0  0  0  0  0  0  0  0  0
    5.2980   -1.1744    0.0658 C   0  0  0  0  0  0  0  0  0  0  0  0
    6.3915   -2.0335   -0.1147 C   0  0  0  0  0  0  0  0  0  0  0  0
    6.1986   -3.3910    0.0238 C   0  0  0  0  0  0  0  0  0  0  0  0
    4.9314   -3.9168    0.3393 C   0  0  0  0  0  0  0  0  0  0  0  0
    3.8355   -3.0986    0.5177 C   0  0  0  0  0  0  0  0  0  0  0  0
    4.0332   -1.7248    0.3705 C   0  0  0  0  0  0  0  0  0  0  0  0
    3.1488   -0.6944    0.4795 N   0  0  0  0  0  0  0  0  0  0  0  0
    3.8113    0.4930    0.2814 C   0  0  0  0  0  0  0  0  0  0  0  0
    3.1682    1.8218    0.3241 C   0  0  0  0  0  0  0  0  0  0  0  0
    3.8413    2.8314    0.4840 O   0  0  0  0  0  0  0  0  0  0  0  0
    1.8308    1.8363    0.1845 N   0  0  0  0  0  0  0  0  0  0  0  0
    1.0475    3.0583    0.2102 C   0  0  2  0  0  0  0  0  0  0  0  0
   -0.3628    2.7124    0.6698 C   0  0  0  0  0  0  0  0  0  0  0  0
    1.0035    3.7445   -1.1542 C   0  0  0  0  0  0  0  0  0  0  0  0
    0.2631    2.8773   -2.1621 C   0  0  0  0  0  0  0  0  0  0  0  0
   -1.1076    2.4739   -1.6443 C   0  0  0  0  0  0  0  0  0  0  0  0
   -1.0099    1.8669   -0.3182 N   0  0  0  0  0  0  0  0  0  0  0  0
   -2.0810    1.1021    0.0747 C   0  0  0  0  0  0  0  0  0  0  0  0
   -2.9126    0.2753   -0.6626 C   0  0  0  0  0  0  0  0  0  0  0  0
   -2.5049    0.9956    1.3537 N   0  0  0  0  0  0  0  0  0  0  0  0
   -3.5334    0.1591    1.5041 N   0  0  0  0  0  0  0  0  0  0  0  0
   -3.7916   -0.2819    0.2865 C   0  0  0  0  0  0  0  0  0  0  0  0
   -4.8735   -1.2379    0.0548 C   0  0  0  0  0  0  0  0  0  0  0  0
   -5.1094   -1.7761   -1.2081 C   0  0  0  0  0  0  0  0  0  0  0  0
   -6.1458   -2.6803   -1.3760 C   0  0  0  0  0  0  0  0  0  0  0  0
   -6.9470   -3.0756   -0.3938 N   0  0  0  0  0  0  0  0  0  0  0  0
   -6.7219   -2.5612    0.8116 C   0  0  0  0  0  0  0  0  0  0  0  0
   -5.7145   -1.6534    1.0871 C   0  0  0  0  0  0  0  0  0  0  0  0
    5.8840    0.9787   -0.1963 H   0  0  0  0  0  0  0  0  0  0  0  0
    7.3692   -1.6357   -0.3559 H   0  0  0  0  0  0  0  0  0  0  0  0
    7.0311   -4.0692   -0.1100 H   0  0  0  0  0  0  0  0  0  0  0  0
    4.8149   -4.9879    0.4421 H   0  0  0  0  0  0  0  0  0  0  0  0
    2.8622   -3.5055    0.7604 H   0  0  0  0  0  0  0  0  0  0  0  0
    2.2064   -0.7937    0.8207 H   0  0  0  0  0  0  0  0  0  0  0  0
    1.3537    1.0075   -0.1377 H   0  0  0  0  0  0  0  0  0  0  0  0
    1.4892    3.7277    0.9490 H   0  0  0  0  0  0  0  0  0  0  0  0
   -0.2898    2.1849    1.6217 H   0  0  0  0  0  0  0  0  0  0  0  0
   -0.9226    3.6409    0.8451 H   0  0  0  0  0  0  0  0  0  0  0  0
    0.4906    4.7043   -1.0388 H   0  0  0  0  0  0  0  0  0  0  0  0
    2.0150    3.9676   -1.4970 H   0  0  0  0  0  0  0  0  0  0  0  0
    0.1358    3.4131   -3.1041 H   0  0  0  0  0  0  0  0  0  0  0  0
    0.8443    1.9795   -2.3902 H   0  0  0  0  0  0  0  0  0  0  0  0
   -1.7688    3.3508   -1.6072 H   0  0  0  0  0  0  0  0  0  0  0  0
   -1.5588    1.7590   -2.3297 H   0  0  0  0  0  0  0  0  0  0  0  0
   -2.8779    0.0930   -1.7231 H   0  0  0  0  0  0  0  0  0  0  0  0
   -2.1521    1.4786    2.1642 H   0  0  0  0  0  0  0  0  0  0  0  0
   -4.4982   -1.5072   -2.0593 H   0  0  0  0  0  0  0  0  0  0  0  0
   -6.3325   -3.1057   -2.3560 H   0  0  0  0  0  0  0  0  0  0  0  0
   -7.3814   -2.8881    1.6081 H   0  0  0  0  0  0  0  0  0  0  0  0
   -5.5914   -1.2757    2.0925 H   0  0  0  0  0  0  0  0  0  0  0  0
 26 27  1  0
 26 25  2  0
 27 28  2  0
 25 24  1  0
 28 29  1  0
 24 29  2  0
 24 23  1  0
 23 22  2  0
 23 20  1  0
 22 21  1  0
 21 19  1  0
 20 19  2  0
 19 18  1  0
 18 14  1  0
 18 17  1  0
 11 10  2  0
 14 13  1  0
 10  9  1  0
 10 12  1  0
 17 16  1  0
 13 12  1  0
 13 15  1  0
  9  8  1  0
  9  1  2  0
  8  7  1  0
  1  2  1  0
 16 15  1  0
  7  2  2  0
  7  6  1  0
  2  3  1  0
  6  5  2  0
  3  4  2  0
  5  4  1  0
  1 30  1  0
  3 31  1  0
  4 32  1  0
  5 33  1  0
  6 34  1  0
  8 35  1  0
 12 36  1  0
 13 37  1  1
 14 38  1  0
 14 39  1  0
 15 40  1  0
 15 41  1  0
 16 42  1  0
 16 43  1  0
 17 44  1  0
 17 45  1  0
 20 46  1  0
 21 47  1  0
 25 48  1  0
 26 49  1  0
 28 50  1  0
 29 51  1  0
M  END
