
     RDKit          3D

 60 64  0  0  0  0  0  0  0  0999 V2000
   -4.9650    2.2906   -0.5052 C   0  0  0  0  0  0  0  0  0  0  0  0
   -3.9469    1.3950   -0.5155 C   0  0  0  0  0  0  0  0  0  0  0  0
   -4.5576    0.1949   -0.0673 C   0  0  0  0  0  0  0  0  0  0  0  0
   -5.0547    3.7406   -0.8343 C   0  0  1  0  0  0  0  0  0  0  0  0
   -3.3878   -1.4895    1.3603 C   0  0  0  0  0  0  0  0  0  0  0  0
   -2.7172   -2.6883    1.5334 C   0  0  0  0  0  0  0  0  0  0  0  0
   -2.5359   -3.5228    0.4418 C   0  0  0  0  0  0  0  0  0  0  0  0
   -3.0114   -3.1666   -0.8099 C   0  0  0  0  0  0  0  0  0  0  0  0
   -3.6765   -1.9606   -0.9552 C   0  0  0  0  0  0  0  0  0  0  0  0
    5.8846   -0.1038    1.2578 C   0  0  0  0  0  0  0  0  0  0  0  0
    3.7229    0.0555    0.1513 C   0  0  0  0  0  0  0  0  0  0  0  0
    4.3481   -0.4052   -1.0325 C   0  0  0  0  0  0  0  0  0  0  0  0
    5.6840   -0.6884   -1.0834 C   0  0  0  0  0  0  0  0  0  0  0  0
    2.2825    0.3676    0.1665 C   0  0  0  0  0  0  0  0  0  0  0  0
   -2.5172    1.5501   -0.8701 C   0  0  0  0  0  0  0  0  0  0  0  0
   -6.0777    1.6712   -0.0966 O   0  0  0  0  0  0  0  0  0  0  0  0
   -5.8200    0.3638    0.1807 N   0  0  0  0  0  0  0  0  0  0  0  0
   -6.0621    3.9976   -1.9565 C   0  0  0  0  0  0  0  0  0  0  0  0
   -5.3730    4.5666    0.4142 C   0  0  0  0  0  0  0  0  0  0  0  0
   -3.8877   -1.1015    0.1199 C   0  0  0  0  0  0  0  0  0  0  0  0
   -4.2483   -1.4978   -2.5199 Cl  0  0  0  0  0  0  0  0  0  0  0  0
    8.6064   -0.7100    1.2739 C   0  0  0  0  0  0  0  0  0  0  0  0
    7.9792   -0.2673    2.4505 C   0  0  0  0  0  0  0  0  0  0  0  0
    6.6477    0.0341    2.4403 C   0  0  0  0  0  0  0  0  0  0  0  0
    7.9078   -0.8347    0.0941 C   0  0  0  0  0  0  0  0  0  0  0  0
    6.5109   -0.5379    0.0575 C   0  0  0  0  0  0  0  0  0  0  0  0
    4.5041    0.1930    1.2719 C   0  0  0  0  0  0  0  0  0  0  0  0
    1.5004    0.1411    1.3039 C   0  0  0  0  0  0  0  0  0  0  0  0
    0.1528    0.4388    1.3210 C   0  0  0  0  0  0  0  0  0  0  0  0
   -0.4604    0.9845    0.1919 C   0  0  0  0  0  0  0  0  0  0  0  0
    0.2990    1.2170   -0.9504 C   0  0  0  0  0  0  0  0  0  0  0  0
    1.6519    0.9056   -0.9522 C   0  0  0  0  0  0  0  0  0  0  0  0
   -1.7742    1.2567    0.3023 O   0  0  0  0  0  0  0  0  0  0  0  0
    8.3730   -0.8572   -2.2528 O   0  0  0  0  0  0  0  0  0  0  0  0
    9.7090   -1.9765   -0.8702 O   0  0  0  0  0  0  0  0  0  0  0  0
   -4.0645    4.0351   -1.1923 H   0  0  0  0  0  0  0  0  0  0  0  0
   -2.3405   -2.9670    2.5073 H   0  0  0  0  0  0  0  0  0  0  0  0
   -2.0138   -4.4615    0.5680 H   0  0  0  0  0  0  0  0  0  0  0  0
   -2.8662   -3.8163   -1.6614 H   0  0  0  0  0  0  0  0  0  0  0  0
    3.7507   -0.5602   -1.9222 H   0  0  0  0  0  0  0  0  0  0  0  0
    6.0968   -1.0438   -2.0136 H   0  0  0  0  0  0  0  0  0  0  0  0
   -2.2538    0.8518   -1.6726 H   0  0  0  0  0  0  0  0  0  0  0  0
   -2.3048    2.5604   -1.2335 H   0  0  0  0  0  0  0  0  0  0  0  0
   -7.0761    3.7352   -1.6532 H   0  0  0  0  0  0  0  0  0  0  0  0
   -6.0566    5.0547   -2.2216 H   0  0  0  0  0  0  0  0  0  0  0  0
   -5.8145    3.4275   -2.8521 H   0  0  0  0  0  0  0  0  0  0  0  0
   -4.6363    4.3995    1.2000 H   0  0  0  0  0  0  0  0  0  0  0  0
   -5.3628    5.6281    0.1664 H   0  0  0  0  0  0  0  0  0  0  0  0
   -6.3587    4.3260    0.8139 H   0  0  0  0  0  0  0  0  0  0  0  0
    9.6646   -0.9289    1.3078 H   0  0  0  0  0  0  0  0  0  0  0  0
    8.5603   -0.1641    3.3567 H   0  0  0  0  0  0  0  0  0  0  0  0
    6.1568    0.3784    3.3422 H   0  0  0  0  0  0  0  0  0  0  0  0
    4.0752    0.5545    2.1992 H   0  0  0  0  0  0  0  0  0  0  0  0
    1.9449   -0.2994    2.1876 H   0  0  0  0  0  0  0  0  0  0  0  0
   -0.4416    0.2380    2.2036 H   0  0  0  0  0  0  0  0  0  0  0  0
   -0.1349    1.6511   -1.8410 H   0  0  0  0  0  0  0  0  0  0  0  0
    2.2232    1.1154   -1.8480 H   0  0  0  0  0  0  0  0  0  0  0  0
   10.2038   -2.1417   -1.6869 H   0  0  0  0  0  0  0  0  0  0  0  0
   -3.5967   -0.4456    2.7186 Cl  0  0  0  0  0  0  0  0  0  0  0  0
    8.6562   -1.2122   -1.1336 C   0  0  0  0  0  0  0  0  0  0  0  0
  2  1  2  0
  1 16  1  0
  1  4  1  0
 15  2  1  0
  3  2  1  0
 20  3  1  0
  3 17  2  0
 18  4  1  0
  4 19  1  0
  4 36  1  6
  6  5  2  0
 20  5  1  0
  5 59  1  0
  7  6  1  0
  6 37  1  0
  8  7  2  0
  7 38  1  0
  8  9  1  0
  8 39  1  0
 21  9  1  0
  9 20  2  0
 24 10  1  0
 10 26  1  0
 10 27  2  0
 27 11  1  0
 11 12  2  0
 11 14  1  0
 13 12  1  0
 12 40  1  0
 26 13  2  0
 13 41  1  0
 28 14  2  0
 14 32  1  0
 34 60  2  0
 25 60  1  0
 60 35  1  0
 33 15  1  0
 15 42  1  0
 15 43  1  0
 17 16  1  0
 18 44  1  0
 18 45  1  0
 18 46  1  0
 19 47  1  0
 19 48  1  0
 19 49  1  0
 23 22  1  0
 22 25  2  0
 22 50  1  0
 23 24  2  0
 23 51  1  0
 24 52  1  0
 25 26  1  0
 27 53  1  0
 28 29  1  0
 28 54  1  0
 29 30  2  0
 29 55  1  0
 30 31  1  0
 30 33  1  0
 32 31  2  0
 31 56  1  0
 32 57  1  0
 35 58  1  0
M  END
