
     RDKit          3D

 24 25  0  0  0  0  0  0  0  0999 V2000
    2.2594   -0.8625    0.2531 C   0  0  0  0  0  0  0  0  0  0  0  0
    2.6828    1.4529   -0.2517 C   0  0  0  0  0  0  0  0  0  0  0  0
   -3.0657   -0.2153   -0.2094 C   0  0  0  0  0  0  0  0  0  0  0  0
    1.7708    0.4107   -0.0474 C   0  0  0  0  0  0  0  0  0  0  0  0
   -1.9660    0.6053   -0.2557 C   0  0  0  0  0  0  0  0  0  0  0  0
   -1.7538   -2.0170    0.1109 C   0  0  0  0  0  0  0  0  0  0  0  0
   -0.6218   -1.3096    0.0772 N   0  0  0  0  0  0  0  0  0  0  0  0
    4.5328   -0.0361    0.1360 C   0  0  0  0  0  0  0  0  0  0  0  0
    3.6307   -1.0688    0.3402 C   0  0  0  0  0  0  0  0  0  0  0  0
    4.0448    1.2308   -0.1607 C   0  0  0  0  0  0  0  0  0  0  0  0
   -0.6982   -0.0028   -0.1061 C   0  0  0  0  0  0  0  0  0  0  0  0
   -2.9876   -1.5271   -0.0289 N   0  0  0  0  0  0  0  0  0  0  0  0
    0.4216    0.7532   -0.1557 N   0  0  0  0  0  0  0  0  0  0  0  0
   -2.1379    2.3095   -0.4955 Cl  0  0  0  0  0  0  0  0  0  0  0  0
    1.5812   -1.6833    0.4143 H   0  0  0  0  0  0  0  0  0  0  0  0
    2.3180    2.4459   -0.4880 H   0  0  0  0  0  0  0  0  0  0  0  0
   -4.0583    0.2074   -0.3232 H   0  0  0  0  0  0  0  0  0  0  0  0
    5.5978   -0.2124    0.2064 H   0  0  0  0  0  0  0  0  0  0  0  0
    3.9909   -2.0622    0.5750 H   0  0  0  0  0  0  0  0  0  0  0  0
    4.7272    2.0545   -0.3252 H   0  0  0  0  0  0  0  0  0  0  0  0
   -2.4324   -3.9285    0.1712 H   0  0  0  0  0  0  0  0  0  0  0  0
   -0.7277   -3.7652    0.2536 H   0  0  0  0  0  0  0  0  0  0  0  0
    0.2642    1.7353   -0.3261 H   0  0  0  0  0  0  0  0  0  0  0  0
   -1.6346   -3.3393    0.3338 N   0  0  0  0  0  0  0  0  0  0  0  0
 10  8  2  0
 10  2  1  0
  8  9  1  0
  2  4  2  0
  9  1  2  0
  4  1  1  0
  4 13  1  0
 13 11  1  0
 11  7  2  0
 11  5  1  0
 14  5  1  0
  7  6  1  0
  5  3  2  0
  6 24  1  0
  6 12  2  0
  3 12  1  0
  1 15  1  0
  2 16  1  0
  3 17  1  0
  8 18  1  0
  9 19  1  0
 10 20  1  0
 24 21  1  0
 24 22  1  0
 13 23  1  0
M  END
