
     RDKit          3D

 35 36  0  0  0  0  0  0  0  0999 V2000
    0.6277    0.2624   -0.0674 N   0  0  0  0  0  0  0  0  0  0  0  0
   -4.4670    0.5516   -0.5822 N   0  0  0  0  0  0  0  0  0  0  0  0
    1.2949   -1.9017    0.4869 N   0  0  0  0  0  0  0  0  0  0  0  0
    5.2688    2.6147   -0.5406 C   0  0  0  0  0  0  0  0  0  0  0  0
    5.5802   -0.4174    0.2188 C   0  0  0  0  0  0  0  0  0  0  0  0
   -4.0447   -1.4955    0.2868 O   0  0  0  0  0  0  0  0  0  0  0  0
    3.4437   -2.5861    0.7091 O   0  0  0  0  0  0  0  0  0  0  0  0
   -6.3119    2.2442    0.8562 O   0  0  0  0  0  0  0  0  0  0  0  0
   -6.5838    0.8759    0.6607 C   0  0  0  0  0  0  0  0  0  0  0  0
   -5.9086    0.4266   -0.6191 C   0  0  0  0  0  0  0  0  0  0  0  0
   -2.1905   -0.0379   -0.0936 C   0  0  0  0  0  0  0  0  0  0  0  0
   -1.2960   -1.5476    0.3353 S   0  0  0  0  0  0  0  0  0  0  0  0
    2.5244    2.1230   -0.4926 S   0  0  0  0  0  0  0  0  0  0  0  0
   -3.6621   -0.4041   -0.1081 C   0  0  0  0  0  0  0  0  0  0  0  0
    4.1802    1.6128   -0.3350 C   0  0  0  0  0  0  0  0  0  0  0  0
    4.2851    0.2967    0.0004 C   0  0  0  0  0  0  0  0  0  0  0  0
    0.3474   -0.9627    0.2300 C   0  0  0  0  0  0  0  0  0  0  0  0
    2.6710   -1.6777    0.4624 C   0  0  0  0  0  0  0  0  0  0  0  0
    1.9472    0.5518   -0.1104 C   0  0  0  0  0  0  0  0  0  0  0  0
    2.9953   -0.3158    0.1270 C   0  0  0  0  0  0  0  0  0  0  0  0
   -4.0661    1.4360   -0.8495 H   0  0  0  0  0  0  0  0  0  0  0  0
    1.0081   -2.8459    0.7168 H   0  0  0  0  0  0  0  0  0  0  0  0
    4.9279    3.4664   -1.1280 H   0  0  0  0  0  0  0  0  0  0  0  0
    5.6406    3.0012    0.4098 H   0  0  0  0  0  0  0  0  0  0  0  0
    6.1120    2.1756   -1.0723 H   0  0  0  0  0  0  0  0  0  0  0  0
    5.6325   -0.8393    1.2223 H   0  0  0  0  0  0  0  0  0  0  0  0
    5.7029   -1.2427   -0.4824 H   0  0  0  0  0  0  0  0  0  0  0  0
    6.4275    0.2545    0.0974 H   0  0  0  0  0  0  0  0  0  0  0  0
   -6.6705    2.5053    1.7087 H   0  0  0  0  0  0  0  0  0  0  0  0
   -6.2207    0.2648    1.4962 H   0  0  0  0  0  0  0  0  0  0  0  0
   -7.6594    0.6798    0.5627 H   0  0  0  0  0  0  0  0  0  0  0  0
   -6.2733    1.0157   -1.4615 H   0  0  0  0  0  0  0  0  0  0  0  0
   -6.1743   -0.6112   -0.8159 H   0  0  0  0  0  0  0  0  0  0  0  0
   -1.9982    0.7374    0.6496 H   0  0  0  0  0  0  0  0  0  0  0  0
   -1.8615    0.3352   -1.0634 H   0  0  0  0  0  0  0  0  0  0  0  0
 17  1  2  0
 19  1  1  0
 14  2  1  0
 10  2  1  0
  2 21  1  0
 18  3  1  0
  3 17  1  0
  3 22  1  0
  4 15  1  0
  4 23  1  0
  4 24  1  0
  4 25  1  0
  5 16  1  0
  5 26  1  0
  5 27  1  0
  5 28  1  0
  6 14  2  0
  7 18  2  0
  9  8  1  0
  8 29  1  0
 10  9  1  0
  9 30  1  0
  9 31  1  0
 10 32  1  0
 10 33  1  0
 12 11  1  0
 14 11  1  0
 11 34  1  0
 11 35  1  0
 17 12  1  0
 15 13  1  0
 19 13  1  0
 16 15  2  0
 16 20  1  0
 18 20  1  0
 20 19  2  0
M  END
