
     RDKit          3D

 17 17  0  0  0  0  0  0  0  0999 V2000
    3.0830   -0.5519    0.0180 C   0  0  0  0  0  0  0  0  0  0  0  0
    0.2768    2.2521   -0.0741 Cl  0  0  0  0  0  0  0  0  0  0  0  0
    2.3619   -1.7351    0.0468 C   0  0  0  0  0  0  0  0  0  0  0  0
    0.9766   -1.6971    0.0320 C   0  0  0  0  0  0  0  0  0  0  0  0
    0.3107   -0.4785   -0.0087 C   0  0  0  0  0  0  0  0  0  0  0  0
    1.0418    0.7086   -0.0363 C   0  0  0  0  0  0  0  0  0  0  0  0
    2.4266    0.6693   -0.0226 C   0  0  0  0  0  0  0  0  0  0  0  0
   -1.4671   -0.4942   -0.0574 S   0  0  1  0  0  0  0  0  0  0  0  0
   -1.8456    0.2577    1.3531 N   0  0  0  0  0  0  0  0  0  0  0  0
   -1.9322    0.3624   -1.1343 O   0  0  0  0  0  0  0  0  0  0  0  0
   -1.8745   -1.8911   -0.0572 O   0  0  0  0  0  0  0  0  0  0  0  0
    2.9907    1.5915   -0.0438 H   0  0  0  0  0  0  0  0  0  0  0  0
    0.4128   -2.6187    0.0559 H   0  0  0  0  0  0  0  0  0  0  0  0
    4.1642   -0.5708    0.0276 H   0  0  0  0  0  0  0  0  0  0  0  0
    2.8718   -2.6876    0.0817 H   0  0  0  0  0  0  0  0  0  0  0  0
   -1.8565   -0.3658    2.1523 H   0  0  0  0  0  0  0  0  0  0  0  0
   -2.7017    0.7974    1.2875 H   0  0  0  0  0  0  0  0  0  0  0  0
  2  6  1  0
  6  5  2  0
  6  7  1  0
  5  8  1  0
  5  4  1  0
  8 10  2  0
  8 11  2  0
  8  9  1  1
  7  1  2  0
  1  3  1  0
  3  4  2  0
  7 12  1  0
  4 13  1  0
  1 14  1  0
  3 15  1  0
  9 16  1  0
  9 17  1  0
M  END
