
     RDKit          3D

 27 27  0  0  0  0  0  0  0  0999 V2000
    3.5505    0.0704    1.3242 C   0  0  0  0  0  0  0  0  0  0  0  0
    3.0461    0.1385   -0.1148 C   0  0  2  0  0  0  0  0  0  0  0  0
   -0.6080   -0.9527    0.0537 C   0  0  0  0  0  0  0  0  0  0  0  0
    0.7817   -0.9851    0.0296 C   0  0  0  0  0  0  0  0  0  0  0  0
   -0.5318    1.4262   -0.2810 C   0  0  0  0  0  0  0  0  0  0  0  0
    0.8510    1.3716   -0.3028 C   0  0  0  0  0  0  0  0  0  0  0  0
    1.5357    0.1687   -0.1440 C   0  0  0  0  0  0  0  0  0  0  0  0
   -1.2768    0.2603   -0.1003 C   0  0  0  0  0  0  0  0  0  0  0  0
   -3.4253   -0.7477    0.1274 C   0  0  0  0  0  0  0  0  0  0  0  0
   -4.8722   -0.3155    0.1088 C   0  0  0  0  0  0  0  0  0  0  0  0
   -2.6181    0.3997   -0.0937 O   0  0  0  0  0  0  0  0  0  0  0  0
    3.5452   -1.0178   -0.8470 N   0  0  0  0  0  0  0  0  0  0  0  0
    3.2066   -0.8455    1.8079 H   0  0  0  0  0  0  0  0  0  0  0  0
    4.6422    0.0847    1.3587 H   0  0  0  0  0  0  0  0  0  0  0  0
    3.1883    0.9194    1.9036 H   0  0  0  0  0  0  0  0  0  0  0  0
    3.3999    1.0886   -0.5432 H   0  0  0  0  0  0  0  0  0  0  0  0
   -1.1483   -1.8797    0.1918 H   0  0  0  0  0  0  0  0  0  0  0  0
    1.2843   -1.9372    0.1468 H   0  0  0  0  0  0  0  0  0  0  0  0
   -1.0443    2.3717   -0.4105 H   0  0  0  0  0  0  0  0  0  0  0  0
    1.4100    2.2887   -0.4520 H   0  0  0  0  0  0  0  0  0  0  0  0
   -3.1758   -1.2057    1.0908 H   0  0  0  0  0  0  0  0  0  0  0  0
   -3.2420   -1.4978   -0.6496 H   0  0  0  0  0  0  0  0  0  0  0  0
   -5.0786    0.4218    0.8848 H   0  0  0  0  0  0  0  0  0  0  0  0
   -5.1499    0.1080   -0.8565 H   0  0  0  0  0  0  0  0  0  0  0  0
   -5.5095   -1.1801    0.2910 H   0  0  0  0  0  0  0  0  0  0  0  0
    3.2985   -0.9337   -1.8255 H   0  0  0  0  0  0  0  0  0  0  0  0
    4.5577   -1.0185   -0.8147 H   0  0  0  0  0  0  0  0  0  0  0  0
 10  9  1  0
  9 11  1  0
 11  8  1  0
  5  8  1  0
  5  6  2  0
  8  3  2  0
  6  7  1  0
  3  4  1  0
  7  4  2  0
  7  2  1  0
 12  2  1  0
  2  1  1  0
  1 13  1  0
  1 14  1  0
  1 15  1  0
  2 16  1  6
  3 17  1  0
  4 18  1  0
  5 19  1  0
  6 20  1  0
  9 21  1  0
  9 22  1  0
 10 23  1  0
 10 24  1  0
 10 25  1  0
 12 26  1  0
 12 27  1  0
M  END
