
     RDKit          3D

 42 43  0  0  0  0  0  0  0  0999 V2000
    7.2496    1.7265   -2.2103 C   0  0  0  0  0  0  0  0  0  0  0  0
    6.4963    1.3923   -0.9552 C   0  0  0  0  0  0  0  0  0  0  0  0
    6.7630    2.0500    0.2424 C   0  0  0  0  0  0  0  0  0  0  0  0
    6.0474    1.7486    1.3926 C   0  0  0  0  0  0  0  0  0  0  0  0
    5.0392    0.7885    1.3977 C   0  0  0  0  0  0  0  0  0  0  0  0
    4.2797    0.4509    2.6465 C   0  0  0  0  0  0  0  0  0  0  0  0
    4.7816    0.1286    0.1954 C   0  0  0  0  0  0  0  0  0  0  0  0
    3.8275   -0.8474    0.1678 O   0  0  0  0  0  0  0  0  0  0  0  0
    2.5690   -0.4395   -0.3555 C   0  0  0  0  0  0  0  0  0  0  0  0
    1.6177   -1.6187   -0.2955 C   0  0  1  0  0  0  0  0  0  0  0  0
    2.0284   -2.6762   -1.1362 O   0  0  0  0  0  0  0  0  0  0  0  0
    1.3951   -2.1311    1.1306 C   0  0  0  0  0  0  0  0  0  0  0  0
    0.9418   -1.1042    2.0422 N   0  0  0  0  0  0  0  0  0  0  0  0
   -0.4353   -0.7059    1.8177 C   0  0  0  0  0  0  0  0  0  0  0  0
   -0.8078    0.4214    2.7611 C   0  0  0  0  0  0  0  0  0  0  0  0
   -0.6151    0.0589    4.1100 O   0  0  0  0  0  0  0  0  0  0  0  0
    0.7181   -0.3398    4.3399 C   0  0  0  0  0  0  0  0  0  0  0  0
    1.1251   -1.4827    3.4298 C   0  0  0  0  0  0  0  0  0  0  0  0
    5.4935    0.4268   -0.9593 C   0  0  0  0  0  0  0  0  0  0  0  0
    7.2507    0.8932   -2.9119 H   0  0  0  0  0  0  0  0  0  0  0  0
    6.8002    2.5807   -2.7214 H   0  0  0  0  0  0  0  0  0  0  0  0
    8.2859    1.9889   -1.9975 H   0  0  0  0  0  0  0  0  0  0  0  0
    7.5412    2.8030    0.2812 H   0  0  0  0  0  0  0  0  0  0  0  0
    6.2770    2.2746    2.3122 H   0  0  0  0  0  0  0  0  0  0  0  0
    4.5580    1.1213    3.4590 H   0  0  0  0  0  0  0  0  0  0  0  0
    3.2001    0.5222    2.5049 H   0  0  0  0  0  0  0  0  0  0  0  0
    4.4850   -0.5698    2.9756 H   0  0  0  0  0  0  0  0  0  0  0  0
    2.1606    0.3950    0.2223 H   0  0  0  0  0  0  0  0  0  0  0  0
    2.6784   -0.1075   -1.3946 H   0  0  0  0  0  0  0  0  0  0  0  0
    0.6699   -1.2676   -0.7134 H   0  0  0  0  0  0  0  0  0  0  0  0
    2.8993   -2.9713   -0.8492 H   0  0  0  0  0  0  0  0  0  0  0  0
    0.6973   -2.9848    1.0891 H   0  0  0  0  0  0  0  0  0  0  0  0
    2.3437   -2.5223    1.5093 H   0  0  0  0  0  0  0  0  0  0  0  0
   -1.1306   -1.5528    1.9536 H   0  0  0  0  0  0  0  0  0  0  0  0
   -0.5665   -0.3502    0.7937 H   0  0  0  0  0  0  0  0  0  0  0  0
   -0.2113    1.3102    2.5099 H   0  0  0  0  0  0  0  0  0  0  0  0
   -1.8611    0.6792    2.6400 H   0  0  0  0  0  0  0  0  0  0  0  0
    0.7912   -0.6476    5.3842 H   0  0  0  0  0  0  0  0  0  0  0  0
    1.4040    0.5067    4.1896 H   0  0  0  0  0  0  0  0  0  0  0  0
    2.1790   -1.7138    3.6043 H   0  0  0  0  0  0  0  0  0  0  0  0
    0.5472   -2.3859    3.6934 H   0  0  0  0  0  0  0  0  0  0  0  0
    5.2685   -0.1169   -1.8708 H   0  0  0  0  0  0  0  0  0  0  0  0
 11 10  1  0
  1  2  1  0
  9 10  1  0
  9  8  1  0
 10 12  1  0
 13 12  1  0
 13 14  1  0
 13 18  1  0
 15 14  1  0
 15 16  1  0
 19  2  2  0
 19  7  1  0
 17 18  1  0
 17 16  1  0
  2  3  1  0
  8  7  1  0
  7  5  2  0
  3  4  2  0
  5  4  1  0
  5  6  1  0
  1 20  1  0
  1 21  1  0
  1 22  1  0
  3 23  1  0
  4 24  1  0
  6 25  1  0
  6 26  1  0
  6 27  1  0
  9 28  1  0
  9 29  1  0
 10 30  1  6
 11 31  1  0
 12 32  1  0
 12 33  1  0
 14 34  1  0
 14 35  1  0
 15 36  1  0
 15 37  1  0
 17 38  1  0
 17 39  1  0
 18 40  1  0
 18 41  1  0
 19 42  1  0
M  END
