
     RDKit          3D

 57 60  0  0  0  0  0  0  0  0999 V2000
   -6.7711   -0.1429   -0.6965 C   0  0  0  0  0  0  0  0  0  0  0  0
   -7.8115   -0.9353   -1.1740 C   0  0  0  0  0  0  0  0  0  0  0  0
   -8.8483   -0.2766   -1.8047 C   0  0  0  0  0  0  0  0  0  0  0  0
   -8.8676    1.0444   -1.9600 N   0  0  0  0  0  0  0  0  0  0  0  0
   -7.8293    1.7016   -1.4714 C   0  0  0  0  0  0  0  0  0  0  0  0
   -6.7869    1.1766   -0.8477 N   0  0  0  0  0  0  0  0  0  0  0  0
   -5.6398   -0.7640   -0.0095 C   0  0  0  0  0  0  0  0  0  0  0  0
   -5.5934   -2.0458    0.2533 N   0  0  0  0  0  0  0  0  0  0  0  0
   -4.4375   -2.3008    0.8808 N   0  0  0  0  0  0  0  0  0  0  0  0
   -3.7900   -1.1701    0.9952 C   0  0  0  0  0  0  0  0  0  0  0  0
   -4.5054   -0.1640    0.4406 N   0  0  0  0  0  0  0  0  0  0  0  0
   -4.1186    1.2435    0.4372 C   0  0  0  0  0  0  0  0  0  0  0  0
   -4.7174    2.0096    1.6058 C   0  0  0  0  0  0  0  0  0  0  0  0
   -4.3043    3.4730    1.5613 C   0  0  0  0  0  0  0  0  0  0  0  0
   -2.4558   -1.0217    1.6367 C   0  0  0  0  0  0  0  0  0  0  0  0
   -1.4521   -0.7007    0.6469 N   0  0  0  0  0  0  0  0  0  0  0  0
   -0.1353   -0.5146    1.0151 C   0  0  0  0  0  0  0  0  0  0  0  0
    0.8528   -0.5252    0.0237 C   0  0  0  0  0  0  0  0  0  0  0  0
    2.1881   -0.3357    0.3423 C   0  0  0  0  0  0  0  0  0  0  0  0
    2.5669   -0.0970    1.6638 C   0  0  0  0  0  0  0  0  0  0  0  0
    1.5898   -0.0670    2.6452 C   0  0  0  0  0  0  0  0  0  0  0  0
    0.2541   -0.2821    2.3387 C   0  0  0  0  0  0  0  0  0  0  0  0
    3.1803   -0.3516   -0.7773 C   0  0  0  0  0  0  0  0  0  0  0  0
    4.4044   -0.8059   -0.4530 N   0  0  0  0  0  0  0  0  0  0  0  0
    2.8745    0.0168   -1.9023 O   0  0  0  0  0  0  0  0  0  0  0  0
    5.5271   -0.8185   -1.3633 C   0  0  0  0  0  0  0  0  0  0  0  0
    6.6995   -0.0700   -0.7871 C   0  0  0  0  0  0  0  0  0  0  0  0
    7.8695   -0.6891   -0.3729 C   0  0  0  0  0  0  0  0  0  0  0  0
    8.9398   -0.0048    0.1729 C   0  0  0  0  0  0  0  0  0  0  0  0
    8.8402    1.3698    0.3177 C   0  0  0  0  0  0  0  0  0  0  0  0
    7.6917    2.0435   -0.0755 C   0  0  0  0  0  0  0  0  0  0  0  0
    6.6565    1.3081   -0.6138 C   0  0  0  0  0  0  0  0  0  0  0  0
    5.5431    1.9475   -0.9971 F   0  0  0  0  0  0  0  0  0  0  0  0
    7.9698   -2.0195   -0.5082 F   0  0  0  0  0  0  0  0  0  0  0  0
   -7.8119   -2.0088   -1.0592 H   0  0  0  0  0  0  0  0  0  0  0  0
   -9.6920   -0.8305   -2.1992 H   0  0  0  0  0  0  0  0  0  0  0  0
   -7.8281    2.7792   -1.5894 H   0  0  0  0  0  0  0  0  0  0  0  0
   -3.0300    1.2755    0.4688 H   0  0  0  0  0  0  0  0  0  0  0  0
   -4.4282    1.6808   -0.5072 H   0  0  0  0  0  0  0  0  0  0  0  0
   -5.8050    1.9262    1.5727 H   0  0  0  0  0  0  0  0  0  0  0  0
   -4.3903    1.5587    2.5465 H   0  0  0  0  0  0  0  0  0  0  0  0
   -4.6470    3.9537    0.6436 H   0  0  0  0  0  0  0  0  0  0  0  0
   -4.7279    4.0225    2.4015 H   0  0  0  0  0  0  0  0  0  0  0  0
   -3.2196    3.5817    1.6093 H   0  0  0  0  0  0  0  0  0  0  0  0
   -2.5032   -0.2267    2.3856 H   0  0  0  0  0  0  0  0  0  0  0  0
   -2.2440   -1.9522    2.1756 H   0  0  0  0  0  0  0  0  0  0  0  0
   -1.5629   -1.1993   -0.2234 H   0  0  0  0  0  0  0  0  0  0  0  0
    0.5673   -0.6979   -1.0073 H   0  0  0  0  0  0  0  0  0  0  0  0
    3.5986    0.0926    1.9292 H   0  0  0  0  0  0  0  0  0  0  0  0
    1.8682    0.1261    3.6730 H   0  0  0  0  0  0  0  0  0  0  0  0
   -0.4738   -0.2641    3.1383 H   0  0  0  0  0  0  0  0  0  0  0  0
    4.5483   -1.2128    0.4572 H   0  0  0  0  0  0  0  0  0  0  0  0
    5.8077   -1.8450   -1.5957 H   0  0  0  0  0  0  0  0  0  0  0  0
    5.2118   -0.3632   -2.3002 H   0  0  0  0  0  0  0  0  0  0  0  0
    9.8289   -0.5386    0.4797 H   0  0  0  0  0  0  0  0  0  0  0  0
    9.6667    1.9231    0.7416 H   0  0  0  0  0  0  0  0  0  0  0  0
    7.6025    3.1159    0.0327 H   0  0  0  0  0  0  0  0  0  0  0  0
  1  2  2  0
  1  6  1  0
  1  7  1  0
  2  3  1  0
  3  4  2  0
  4  5  1  0
  5  6  2  0
  7  8  2  0
  7 11  1  0
  8  9  1  0
  9 10  2  0
 10 11  1  0
 10 15  1  0
 11 12  1  0
 12 13  1  0
 13 14  1  0
 15 16  1  0
 16 17  1  0
 17 18  2  0
 17 22  1  0
 18 19  1  0
 19 20  2  0
 19 23  1  0
 20 21  1  0
 21 22  2  0
 23 24  1  0
 23 25  2  0
 24 26  1  0
 26 27  1  0
 27 28  2  0
 27 32  1  0
 28 29  1  0
 28 34  1  0
 29 30  2  0
 30 31  1  0
 31 32  2  0
 32 33  1  0
  2 35  1  0
  3 36  1  0
  5 37  1  0
 12 38  1  0
 12 39  1  0
 13 40  1  0
 13 41  1  0
 14 42  1  0
 14 43  1  0
 14 44  1  0
 15 45  1  0
 15 46  1  0
 16 47  1  0
 18 48  1  0
 20 49  1  0
 21 50  1  0
 22 51  1  0
 24 52  1  0
 26 53  1  0
 26 54  1  0
 29 55  1  0
 30 56  1  0
 31 57  1  0
M  END
