
     RDKit          3D

 48 50  0  0  0  0  0  0  0  0999 V2000
   -5.4780    0.7869   -0.8640 P   0  0  2  0  0  0  0  0  0  0  0  0
   -6.6445    1.3669   -1.5539 O   0  0  0  0  0  0  0  0  0  0  0  0
   -5.0045   -0.6624   -1.3520 O   0  0  0  0  0  0  0  0  0  0  0  0
   -5.6868    0.6899    0.7105 O   0  0  0  0  0  0  0  0  0  0  0  0
   -2.6866    1.4889   -0.1964 P   0  0  2  0  0  0  0  0  0  0  0  0
   -2.9554    0.6995    1.0272 O   0  0  0  0  0  0  0  0  0  0  0  0
   -2.1174    2.9312    0.1289 O   0  0  0  0  0  0  0  0  0  0  0  0
   -4.0708    1.6805   -1.0948 N   0  0  0  0  0  0  0  0  0  0  0  0
   -0.1751    0.2216   -0.8274 P   0  0  2  0  0  0  0  0  0  0  0  0
    0.4077    0.9113    0.3449 O   0  0  0  0  0  0  0  0  0  0  0  0
    0.5695    0.2147   -2.1618 O   0  0  0  0  0  0  0  0  0  0  0  0
   -1.6479    0.8362   -1.2362 O   0  0  0  0  0  0  0  0  0  0  0  0
   -0.6399   -1.2925   -0.5162 O   0  0  0  0  0  0  0  0  0  0  0  0
    0.1338   -2.1367    0.3209 C   0  0  0  0  0  0  0  0  0  0  0  0
    1.3468   -2.6925   -0.4033 C   0  0  1  0  0  0  0  0  0  0  0  0
    2.3074   -1.6392   -0.6838 O   0  0  0  0  0  0  0  0  0  0  0  0
    2.1351   -3.6914    0.4237 C   0  0  1  0  0  0  0  0  0  0  0  0
    2.8705   -4.5034   -0.4483 O   0  0  0  0  0  0  0  0  0  0  0  0
    3.0580   -2.7682    1.2279 C   0  0  1  0  0  0  0  0  0  0  0  0
    4.2079   -3.3839    1.7185 O   0  0  0  0  0  0  0  0  0  0  0  0
    3.4414   -1.7244    0.1847 C   0  0  2  0  0  0  0  0  0  0  0  0
    3.7326   -0.4300    0.7175 N   0  0  0  0  0  0  0  0  0  0  0  0
    4.0297   -0.0759    2.0226 C   0  0  0  0  0  0  0  0  0  0  0  0
    4.4288    1.1659    2.0988 N   0  0  0  0  0  0  0  0  0  0  0  0
    4.3996    1.6456    0.8231 C   0  0  0  0  0  0  0  0  0  0  0  0
    4.7349    2.9190    0.2447 C   0  0  0  0  0  0  0  0  0  0  0  0
    5.1044    3.9960    1.0427 N   0  0  0  0  0  0  0  0  0  0  0  0
    4.6276    3.0475   -1.0631 N   0  0  0  0  0  0  0  0  0  0  0  0
    4.1973    2.0562   -1.8338 C   0  0  0  0  0  0  0  0  0  0  0  0
    3.8023    0.7830   -1.3857 N   0  0  0  0  0  0  0  0  0  0  0  0
    3.9729    0.6695   -0.0509 C   0  0  0  0  0  0  0  0  0  0  0  0
    2.4060   -0.3560   -2.2974 Mg  0  0  0  0  0  0  0  0  0  0  0  0
   -5.6559   -1.3641   -1.2130 H   0  0  0  0  0  0  0  0  0  0  0  0
   -4.8524    0.5196    1.1923 H   0  0  0  0  0  0  0  0  0  0  0  0
   -1.7247    3.4292   -0.6011 H   0  0  0  0  0  0  0  0  0  0  0  0
   -4.0638    2.3045   -1.8943 H   0  0  0  0  0  0  0  0  0  0  0  0
   -0.5103   -2.9728    0.5944 H   0  0  0  0  0  0  0  0  0  0  0  0
    0.4167   -1.6168    1.2404 H   0  0  0  0  0  0  0  0  0  0  0  0
    1.0383   -3.1208   -1.3596 H   0  0  0  0  0  0  0  0  0  0  0  0
    1.4820   -4.2760    1.0831 H   0  0  0  0  0  0  0  0  0  0  0  0
    3.5837   -4.9149    0.0544 H   0  0  0  0  0  0  0  0  0  0  0  0
    2.4714   -2.3004    2.0274 H   0  0  0  0  0  0  0  0  0  0  0  0
    4.0033   -3.7994    2.5628 H   0  0  0  0  0  0  0  0  0  0  0  0
    4.2940   -2.0686   -0.4091 H   0  0  0  0  0  0  0  0  0  0  0  0
    3.9505   -0.7664    2.8457 H   0  0  0  0  0  0  0  0  0  0  0  0
    5.5803    4.7200    0.5242 H   0  0  0  0  0  0  0  0  0  0  0  0
    5.6548    3.7283    1.8467 H   0  0  0  0  0  0  0  0  0  0  0  0
    4.1288    2.2279   -2.8995 H   0  0  0  0  0  0  0  0  0  0  0  0
  1  2  2  0
  1  3  1  6
  1  4  1  0
  1  8  1  0
  3 33  1  0
  4 34  1  0
  5  6  2  0
  5  7  1  1
  5  8  1  0
  5 12  1  0
  7 35  1  0
  8 36  1  0
  9 10  2  0
  9 11  1  6
  9 12  1  0
  9 13  1  0
 11 32  1  0
 13 14  1  0
 14 15  1  0
 14 37  1  0
 14 38  1  0
 15 16  1  0
 15 17  1  0
 15 39  1  6
 16 21  1  0
 17 18  1  0
 17 19  1  0
 17 40  1  1
 18 41  1  0
 19 20  1  0
 19 21  1  0
 19 42  1  1
 20 43  1  0
 21 22  1  0
 21 44  1  6
 22 23  1  0
 22 31  1  0
 23 24  2  0
 23 45  1  0
 24 25  1  0
 25 26  1  0
 25 31  2  0
 26 27  1  0
 26 28  2  0
 27 46  1  0
 27 47  1  0
 28 29  1  0
 29 30  2  0
 29 48  1  0
 30 31  1  0
M  CHG  1  32   1
M  END
