
     RDKit          3D

 33 35  0  0  0  0  0  0  0  0999 V2000
   -0.8163   -0.3580    0.0070 C   0  0  0  0  0  0  0  0  0  0  0  0
    1.9215   -0.3340    0.0349 C   0  0  0  0  0  0  0  0  0  0  0  0
   -3.0324   -1.5200    0.1736 C   0  0  0  0  0  0  0  0  0  0  0  0
   -5.0909   -0.2821   -0.0009 C   0  0  0  0  0  0  0  0  0  0  0  0
   -2.9770    0.8538   -0.1715 C   0  0  0  0  0  0  0  0  0  0  0  0
    6.7048   -1.2339   -0.1745 C   0  0  0  0  0  0  0  0  0  0  0  0
    5.9857    1.0351    0.0494 O   0  0  0  0  0  0  0  0  0  0  0  0
    4.3917   -0.5798    0.0187 N   0  0  0  0  0  0  0  0  0  0  0  0
    3.2445    0.1819    0.1508 C   0  0  0  0  0  0  0  0  0  0  0  0
    3.2263    1.4632    0.4091 N   0  0  0  0  0  0  0  0  0  0  0  0
    1.9305    1.8223    0.4698 N   0  0  0  0  0  0  0  0  0  0  0  0
    1.1018    0.7845    0.2533 C   0  0  0  0  0  0  0  0  0  0  0  0
   -0.2229    0.8019    0.2494 N   0  0  0  0  0  0  0  0  0  0  0  0
   -0.0890   -1.5473   -0.2475 C   0  0  0  0  0  0  0  0  0  0  0  0
    1.2872   -1.5462   -0.2325 C   0  0  0  0  0  0  0  0  0  0  0  0
   -2.2927   -0.3541   -0.0021 C   0  0  0  0  0  0  0  0  0  0  0  0
   -4.4197   -1.4807    0.1755 C   0  0  0  0  0  0  0  0  0  0  0  0
   -4.3574    0.9013   -0.1780 C   0  0  0  0  0  0  0  0  0  0  0  0
   -4.9703    2.0902   -0.3553 O   0  0  0  0  0  0  0  0  0  0  0  0
   -2.5458   -2.4719    0.3360 H   0  0  0  0  0  0  0  0  0  0  0  0
   -2.4222    1.7732   -0.3073 H   0  0  0  0  0  0  0  0  0  0  0  0
    6.2776   -2.2333   -0.2232 H   0  0  0  0  0  0  0  0  0  0  0  0
    7.2865   -1.0639   -1.0803 H   0  0  0  0  0  0  0  0  0  0  0  0
    7.3948   -1.1949    0.6679 H   0  0  0  0  0  0  0  0  0  0  0  0
    4.2438   -1.5727   -0.0663 H   0  0  0  0  0  0  0  0  0  0  0  0
   -0.6141   -2.4618   -0.4800 H   0  0  0  0  0  0  0  0  0  0  0  0
    1.8382   -2.4558   -0.4357 H   0  0  0  0  0  0  0  0  0  0  0  0
   -4.9833   -2.3946    0.3238 H   0  0  0  0  0  0  0  0  0  0  0  0
   -6.8615   -1.0060    0.1463 H   0  0  0  0  0  0  0  0  0  0  0  0
   -5.9285    1.9860   -0.3276 H   0  0  0  0  0  0  0  0  0  0  0  0
    1.6858    2.7831    0.6446 H   0  0  0  0  0  0  0  0  0  0  0  0
   -6.4335   -0.1581   -0.0156 O   0  0  0  0  0  0  0  0  0  0  0  0
    5.6809   -0.1384   -0.0257 C   0  0  0  0  0  0  0  0  0  0  0  0
 32  4  1  0
 19 18  1  0
  4 18  2  0
  4 17  1  0
 18  5  1  0
 17  3  2  0
  5 16  2  0
  3 16  1  0
 16  1  1  0
  1 14  2  0
  1 13  1  0
 14 15  1  0
 13 12  2  0
 15  2  2  0
 12  2  1  0
 12 11  1  0
  2  9  1  0
  7 33  2  0
 11 10  1  0
  9 10  2  0
  9  8  1  0
 33  8  1  0
 33  6  1  0
  3 20  1  0
  5 21  1  0
  6 22  1  0
  6 23  1  0
  6 24  1  0
  8 25  1  0
 14 26  1  0
 15 27  1  0
 17 28  1  0
 32 29  1  0
 19 30  1  0
 11 31  1  0
M  END
