
     RDKit          3D

 27 27  0  0  0  0  0  0  0  0999 V2000
    3.7996    0.2431   -0.0157 C   0  0  0  0  0  0  0  0  0  0  0  0
    4.5058   -0.6584    0.4387 O   0  0  0  0  0  0  0  0  0  0  0  0
    2.3859    0.1621   -0.5653 C   0  0  1  0  0  0  0  0  0  0  0  0
    2.2651   -0.9424   -1.4892 N   0  0  0  0  0  0  0  0  0  0  0  0
    1.4467    0.1267    0.6634 C   0  0  0  0  0  0  0  0  0  0  0  0
    0.1224    0.0900    0.1413 O   0  0  0  0  0  0  0  0  0  0  0  0
   -0.8599    0.0546    1.1814 C   0  0  0  0  0  0  0  0  0  0  0  0
   -2.2160    0.0055    0.5602 C   0  0  0  0  0  0  0  0  0  0  0  0
   -3.2136   -0.7568    1.1801 C   0  0  0  0  0  0  0  0  0  0  0  0
   -4.4894   -0.8218    0.6243 C   0  0  0  0  0  0  0  0  0  0  0  0
   -4.7779   -0.1272   -0.5506 C   0  0  0  0  0  0  0  0  0  0  0  0
   -3.7872    0.6333   -1.1698 C   0  0  0  0  0  0  0  0  0  0  0  0
   -2.5079    0.7015   -0.6173 C   0  0  0  0  0  0  0  0  0  0  0  0
    4.3231    1.4980   -0.0460 O   0  0  0  0  0  0  0  0  0  0  0  0
    5.2248    1.4852    0.3169 H   0  0  0  0  0  0  0  0  0  0  0  0
    2.1662    1.1095   -1.1445 H   0  0  0  0  0  0  0  0  0  0  0  0
    2.5135   -1.8075   -1.0488 H   0  0  0  0  0  0  0  0  0  0  0  0
    1.3224   -0.9936   -1.8248 H   0  0  0  0  0  0  0  0  0  0  0  0
    1.6387   -0.7827    1.2919 H   0  0  0  0  0  0  0  0  0  0  0  0
    1.5909    1.0499    1.2827 H   0  0  0  0  0  0  0  0  0  0  0  0
   -0.6819   -0.8483    1.8266 H   0  0  0  0  0  0  0  0  0  0  0  0
   -0.7591    0.9806    1.8123 H   0  0  0  0  0  0  0  0  0  0  0  0
   -2.9894   -1.3060    2.1064 H   0  0  0  0  0  0  0  0  0  0  0  0
   -5.2700   -1.4224    1.1142 H   0  0  0  0  0  0  0  0  0  0  0  0
   -5.7861   -0.1801   -0.9872 H   0  0  0  0  0  0  0  0  0  0  0  0
   -4.0124    1.1819   -2.0963 H   0  0  0  0  0  0  0  0  0  0  0  0
   -1.7233    1.3014   -1.1039 H   0  0  0  0  0  0  0  0  0  0  0  0
 14  1  1  0
 14 15  1  0
  1  2  2  0
  1  3  1  0
  3  4  1  0
  3  5  1  0
  3 16  1  6
  4 17  1  0
  4 18  1  0
  5  6  1  0
  5 19  1  0
  5 20  1  0
  6  7  1  0
  7  8  1  0
  7 21  1  0
  7 22  1  0
  8  9  2  0
  8 13  1  0
  9 10  1  0
  9 23  1  0
 10 11  2  0
 10 24  1  0
 11 12  1  0
 11 25  1  0
 12 13  2  0
 12 26  1  0
 13 27  1  0
M  END
