
     RDKit          3D

 65 68  0  0  0  0  0  0  0  0999 V2000
    0.9972   -5.4726   -0.3268 C   0  0  0  0  0  0  0  0  0  0  0  0
    0.0244   -4.5712   -0.7458 C   0  0  0  0  0  0  0  0  0  0  0  0
    2.2496   -5.0218    0.0792 C   0  0  0  0  0  0  0  0  0  0  0  0
    0.2878   -3.2049   -0.7608 C   0  0  0  0  0  0  0  0  0  0  0  0
   -0.8976   -1.0536    1.6387 C   0  0  0  0  0  0  0  0  0  0  0  0
   -2.2521   -0.7874    1.5271 C   0  0  0  0  0  0  0  0  0  0  0  0
   -0.4030    0.7265    0.1195 C   0  0  0  0  0  0  0  0  0  0  0  0
    2.5099   -3.6609    0.0633 C   0  0  0  0  0  0  0  0  0  0  0  0
    1.5347   -2.7570   -0.3526 C   0  0  0  0  0  0  0  0  0  0  0  0
    0.0504   -0.3111    0.9441 C   0  0  0  0  0  0  0  0  0  0  0  0
   -2.6974    0.2382    0.7105 C   0  0  0  0  0  0  0  0  0  0  0  0
   -1.7657    0.9977   -0.0009 C   0  0  0  0  0  0  0  0  0  0  0  0
   -8.2557    1.0036   -0.0122 C   0  0  0  0  0  0  0  0  0  0  0  0
    3.7658   -2.9367    0.4513 C   0  0  0  0  0  0  0  0  0  0  0  0
   -3.4810    2.4714   -0.5806 C   0  0  0  0  0  0  0  0  0  0  0  0
    2.0384   -1.3437   -0.2343 C   0  0  2  0  0  0  0  0  0  0  0  0
    3.5723   -1.5705   -0.2193 C   0  0  1  0  0  0  0  0  0  0  0  0
   -4.4289    1.2950   -0.4710 C   0  0  2  0  0  0  0  0  0  0  0  0
    1.5053   -0.6788    1.0475 C   0  0  0  0  0  0  0  0  0  0  0  0
    5.3977    1.6237    0.6868 C   0  0  0  0  0  0  0  0  0  0  0  0
   -5.8557    1.7424   -0.2322 C   0  0  0  0  0  0  0  0  0  0  0  0
    6.5627    2.2001   -0.1120 C   0  0  0  0  0  0  0  0  0  0  0  0
    7.4131    3.1390    0.7294 C   0  0  0  0  0  0  0  0  0  0  0  0
    4.3596   -0.5411    0.4086 N   0  0  0  0  0  0  0  0  0  0  0  0
    8.5219    3.6716   -0.0487 N   0  0  0  0  0  0  0  0  0  0  0  0
    0.4844    1.6086   -1.9096 O   0  0  0  0  0  0  0  0  0  0  0  0
   -9.0688   -0.0357    0.1464 O   0  0  0  0  0  0  0  0  0  0  0  0
    1.4168    2.2031    0.0271 O   0  0  0  0  0  0  0  0  0  0  0  0
    4.1032    0.9857   -1.2282 O   0  0  0  0  0  0  0  0  0  0  0  0
   -8.6455    2.1434   -0.0639 O   0  0  0  0  0  0  0  0  0  0  0  0
   -2.1500    2.0234   -0.7887 O   0  0  0  0  0  0  0  0  0  0  0  0
   -4.0255    0.4780    0.6241 O   0  0  0  0  0  0  0  0  0  0  0  0
    0.7808   -6.5334   -0.3241 H   0  0  0  0  0  0  0  0  0  0  0  0
   -0.9427   -4.9358   -1.0675 H   0  0  0  0  0  0  0  0  0  0  0  0
    3.0079   -5.7282    0.3954 H   0  0  0  0  0  0  0  0  0  0  0  0
   -0.4715   -2.5055   -1.0890 H   0  0  0  0  0  0  0  0  0  0  0  0
   -0.5700   -1.8703    2.2686 H   0  0  0  0  0  0  0  0  0  0  0  0
   -2.9748   -1.3770    2.0772 H   0  0  0  0  0  0  0  0  0  0  0  0
    3.8336   -2.8356    1.5409 H   0  0  0  0  0  0  0  0  0  0  0  0
    4.6776   -3.4355    0.1203 H   0  0  0  0  0  0  0  0  0  0  0  0
    1.7593   -0.7474   -1.1041 H   0  0  0  0  0  0  0  0  0  0  0  0
    2.1012    0.2018    1.2858 H   0  0  0  0  0  0  0  0  0  0  0  0
    1.6312   -1.3653    1.8890 H   0  0  0  0  0  0  0  0  0  0  0  0
    2.0675    2.6368   -0.5474 H   0  0  0  0  0  0  0  0  0  0  0  0
    4.7457    2.4371    1.0210 H   0  0  0  0  0  0  0  0  0  0  0  0
    5.7682    1.1338    1.5902 H   0  0  0  0  0  0  0  0  0  0  0  0
    4.7348   -0.7245    1.3253 H   0  0  0  0  0  0  0  0  0  0  0  0
   -6.5861   -0.0566    0.7399 H   0  0  0  0  0  0  0  0  0  0  0  0
   -6.7311   -0.0813   -0.9972 H   0  0  0  0  0  0  0  0  0  0  0  0
   -9.9874    0.2675    0.2021 H   0  0  0  0  0  0  0  0  0  0  0  0
    3.8886   -1.6604   -1.2625 H   0  0  0  0  0  0  0  0  0  0  0  0
   -3.7371    3.0950   -1.4356 H   0  0  0  0  0  0  0  0  0  0  0  0
   -3.5341    3.0845    0.3259 H   0  0  0  0  0  0  0  0  0  0  0  0
   -4.3761    0.7032   -1.3956 H   0  0  0  0  0  0  0  0  0  0  0  0
   -5.9013    2.3627    0.6666 H   0  0  0  0  0  0  0  0  0  0  0  0
   -6.1421    2.3797   -1.0709 H   0  0  0  0  0  0  0  0  0  0  0  0
    7.1865    1.3811   -0.4848 H   0  0  0  0  0  0  0  0  0  0  0  0
    6.1893    2.7362   -0.9865 H   0  0  0  0  0  0  0  0  0  0  0  0
    6.7963    3.9790    1.0608 H   0  0  0  0  0  0  0  0  0  0  0  0
    7.7290    2.6120    1.6417 H   0  0  0  0  0  0  0  0  0  0  0  0
    9.0334    4.3407    0.5124 H   0  0  0  0  0  0  0  0  0  0  0  0
    9.1795    2.9270   -0.2465 H   0  0  0  0  0  0  0  0  0  0  0  0
    0.5312    1.5462   -0.7074 C   0  0  0  0  0  0  0  0  0  0  0  0
   -6.8195    0.5719   -0.1228 C   0  0  0  0  0  0  0  0  0  0  0  0
    4.5605    0.6713   -0.1361 C   0  0  0  0  0  0  0  0  0  0  0  0
  1  2  2  0
  1  3  1  0
  2  4  1  0
  3  8  2  0
  4  9  2  0
  5  6  2  0
  5 10  1  0
  6 11  1  0
  7 10  2  0
  7 12  1  0
  7 63  1  0
  8  9  1  0
  8 14  1  0
  9 16  1  0
 10 19  1  0
 11 12  2  0
 11 32  1  0
 12 31  1  0
 63 26  2  0
 63 28  1  0
 65 20  1  0
 65 24  1  0
 65 29  2  0
 13 64  1  0
 13 27  1  0
 13 30  2  0
 14 17  1  0
 15 18  1  0
 15 31  1  0
 16 17  1  0
 16 19  1  0
 17 24  1  0
 18 21  1  0
 18 32  1  0
 20 22  1  0
 64 21  1  0
 22 23  1  0
 23 25  1  0
  1 33  1  0
  2 34  1  0
  3 35  1  0
  4 36  1  0
  5 37  1  0
  6 38  1  0
 14 39  1  0
 14 40  1  0
 16 41  1  6
 19 42  1  0
 19 43  1  0
 28 44  1  0
 20 45  1  0
 20 46  1  0
 24 47  1  0
 64 48  1  0
 64 49  1  0
 27 50  1  0
 17 51  1  6
 15 52  1  0
 15 53  1  0
 18 54  1  6
 21 55  1  0
 21 56  1  0
 22 57  1  0
 22 58  1  0
 23 59  1  0
 23 60  1  0
 25 61  1  0
 25 62  1  0
M  END
