
     RDKit          3D

 69 72  0  0  0  0  0  0  0  0999 V2000
   -8.2513    0.2142   -0.2941 O   0  0  0  0  0  0  0  0  0  0  0  0
   -7.1006    0.5754   -0.4605 C   0  0  0  0  0  0  0  0  0  0  0  0
   -6.3028    0.9066    0.6254 N   0  0  0  0  0  0  0  0  0  0  0  0
   -4.9991    1.3264    0.6169 C   0  0  0  0  0  0  0  0  0  0  0  0
   -4.3941    1.5936    1.6346 O   0  0  0  0  0  0  0  0  0  0  0  0
   -6.4264    0.7103   -1.7267 C   0  0  0  0  0  0  0  0  0  0  0  0
   -5.1453    1.1159   -1.7554 C   0  0  0  0  0  0  0  0  0  0  0  0
   -4.4295    1.4210   -0.6347 N   0  0  0  0  0  0  0  0  0  0  0  0
   -3.0300    1.8225   -0.7342 C   0  0  0  0  0  0  0  0  0  0  0  0
   -2.0618    0.7167   -0.3173 C   0  0  1  0  0  0  0  0  0  0  0  0
   -2.3865   -0.5617   -1.0730 C   0  0  0  0  0  0  0  0  0  0  0  0
   -2.6174   -1.6385   -0.3104 N   0  0  0  0  0  0  0  0  0  0  0  0
   -2.7481   -2.9753   -0.8452 C   0  0  0  0  0  0  0  0  0  0  0  0
   -1.4018   -3.6592   -0.9927 C   0  0  0  0  0  0  0  0  0  0  0  0
   -0.8017   -3.7204    0.2807 O   0  0  0  0  0  0  0  0  0  0  0  0
   -2.4340   -0.5765   -2.2964 O   0  0  0  0  0  0  0  0  0  0  0  0
   -0.6277    1.1499   -0.6267 C   0  0  0  0  0  0  0  0  0  0  0  0
    0.4035    0.2063   -0.0330 C   0  0  0  0  0  0  0  0  0  0  0  0
    1.6711    0.6268   -0.4968 O   0  0  0  0  0  0  0  0  0  0  0  0
    2.8097    0.1850    0.2088 C   0  0  1  0  0  0  0  0  0  0  0  0
    2.9618    0.9448    1.5311 C   0  0  0  0  0  0  0  0  0  0  0  0
    2.2111    2.0889    1.7835 C   0  0  0  0  0  0  0  0  0  0  0  0
    2.3977    2.8203    2.9508 C   0  0  0  0  0  0  0  0  0  0  0  0
    3.3467    2.4275    3.8815 C   0  0  0  0  0  0  0  0  0  0  0  0
    4.1152    1.2979    3.6301 C   0  0  0  0  0  0  0  0  0  0  0  0
    3.9257    0.5685    2.4665 C   0  0  0  0  0  0  0  0  0  0  0  0
    2.7296   -1.3347    0.3666 C   0  0  0  0  0  0  0  0  0  0  0  0
    2.4138   -1.9556    1.5693 C   0  0  0  0  0  0  0  0  0  0  0  0
    2.2913   -3.3387    1.6461 C   0  0  0  0  0  0  0  0  0  0  0  0
    2.4601   -4.1194    0.5118 C   0  0  0  0  0  0  0  0  0  0  0  0
    2.7335   -3.5040   -0.7062 C   0  0  0  0  0  0  0  0  0  0  0  0
    2.8633   -2.1261   -0.7753 C   0  0  0  0  0  0  0  0  0  0  0  0
    4.0130    0.5912   -0.6449 C   0  0  0  0  0  0  0  0  0  0  0  0
    3.9302    1.6742   -1.5159 C   0  0  0  0  0  0  0  0  0  0  0  0
    5.0413    2.0796   -2.2447 C   0  0  0  0  0  0  0  0  0  0  0  0
    6.2518    1.4147   -2.1119 C   0  0  0  0  0  0  0  0  0  0  0  0
    6.3436    0.3391   -1.2389 C   0  0  0  0  0  0  0  0  0  0  0  0
    5.2332   -0.0678   -0.5136 C   0  0  0  0  0  0  0  0  0  0  0  0
   -6.7244    0.8275    1.5428 H   0  0  0  0  0  0  0  0  0  0  0  0
   -6.9513    0.4848   -2.6417 H   0  0  0  0  0  0  0  0  0  0  0  0
   -4.6119    1.2282   -2.6877 H   0  0  0  0  0  0  0  0  0  0  0  0
   -2.8518    2.1111   -1.7689 H   0  0  0  0  0  0  0  0  0  0  0  0
   -2.8654    2.7059   -0.1188 H   0  0  0  0  0  0  0  0  0  0  0  0
   -2.1602    0.5572    0.7600 H   0  0  0  0  0  0  0  0  0  0  0  0
   -0.4947    1.2153   -1.7095 H   0  0  0  0  0  0  0  0  0  0  0  0
   -0.4654    2.1553   -0.2269 H   0  0  0  0  0  0  0  0  0  0  0  0
   -2.4692   -1.5565    0.6822 H   0  0  0  0  0  0  0  0  0  0  0  0
   -3.3909   -3.5483   -0.1754 H   0  0  0  0  0  0  0  0  0  0  0  0
   -3.2463   -2.9316   -1.8125 H   0  0  0  0  0  0  0  0  0  0  0  0
   -1.5581   -4.6574   -1.4220 H   0  0  0  0  0  0  0  0  0  0  0  0
   -0.7879   -3.0942   -1.7042 H   0  0  0  0  0  0  0  0  0  0  0  0
    0.1489   -3.8222    0.1788 H   0  0  0  0  0  0  0  0  0  0  0  0
    0.3383    0.2325    1.0616 H   0  0  0  0  0  0  0  0  0  0  0  0
    0.2132   -0.8318   -0.3324 H   0  0  0  0  0  0  0  0  0  0  0  0
    1.4778    2.4342    1.0672 H   0  0  0  0  0  0  0  0  0  0  0  0
    4.5449   -0.3035    2.2974 H   0  0  0  0  0  0  0  0  0  0  0  0
    1.7980    3.7044    3.1249 H   0  0  0  0  0  0  0  0  0  0  0  0
    3.4906    2.9962    4.7909 H   0  0  0  0  0  0  0  0  0  0  0  0
    4.8662    0.9806    4.3419 H   0  0  0  0  0  0  0  0  0  0  0  0
    2.2617   -1.3681    2.4646 H   0  0  0  0  0  0  0  0  0  0  0  0
    3.0805   -1.6668   -1.7315 H   0  0  0  0  0  0  0  0  0  0  0  0
    2.0564   -3.8026    2.5952 H   0  0  0  0  0  0  0  0  0  0  0  0
    2.3768   -5.1970    0.5718 H   0  0  0  0  0  0  0  0  0  0  0  0
    2.8500   -4.1011   -1.6013 H   0  0  0  0  0  0  0  0  0  0  0  0
    3.0001    2.2123   -1.6328 H   0  0  0  0  0  0  0  0  0  0  0  0
    5.3264   -0.9136    0.1559 H   0  0  0  0  0  0  0  0  0  0  0  0
    4.9569    2.9209   -2.9207 H   0  0  0  0  0  0  0  0  0  0  0  0
    7.1147    1.7303   -2.6839 H   0  0  0  0  0  0  0  0  0  0  0  0
    7.2802   -0.1910   -1.1237 H   0  0  0  0  0  0  0  0  0  0  0  0
  1  2  2  0
  2  3  1  0
  2  6  1  0
  3  4  1  0
  4  5  2  0
  4  8  1  0
  6  7  2  0
  7  8  1  0
  8  9  1  0
  9 10  1  0
 10 11  1  0
 10 17  1  0
 11 12  1  0
 11 16  2  0
 12 13  1  0
 13 14  1  0
 14 15  1  0
 17 18  1  0
 18 19  1  0
 20 19  1  6
 20 21  1  0
 20 27  1  0
 20 33  1  0
 21 22  2  0
 21 26  1  0
 22 23  1  0
 23 24  2  0
 24 25  1  0
 25 26  2  0
 27 28  2  0
 27 32  1  0
 28 29  1  0
 29 30  2  0
 30 31  1  0
 31 32  2  0
 33 34  2  0
 33 38  1  0
 34 35  1  0
 35 36  2  0
 36 37  1  0
 37 38  2  0
  3 39  1  0
  6 40  1  0
  7 41  1  0
  9 42  1  0
  9 43  1  0
 10 44  1  1
 17 45  1  0
 17 46  1  0
 12 47  1  0
 13 48  1  0
 13 49  1  0
 14 50  1  0
 14 51  1  0
 15 52  1  0
 18 53  1  0
 18 54  1  0
 22 55  1  0
 26 56  1  0
 23 57  1  0
 24 58  1  0
 25 59  1  0
 28 60  1  0
 32 61  1  0
 29 62  1  0
 30 63  1  0
 31 64  1  0
 34 65  1  0
 38 66  1  0
 35 67  1  0
 36 68  1  0
 37 69  1  0
M  END
