
     RDKit          3D

 30 31  0  0  0  0  0  0  0  0999 V2000
    4.8503   -1.1424   -1.3325 C   0  0  0  0  0  0  0  0  0  0  0  0
   -4.7454   -0.6533   -1.1764 O   0  0  0  0  0  0  0  0  0  0  0  0
   -3.7187   -1.0625   -0.6747 C   0  0  0  0  0  0  0  0  0  0  0  0
   -1.6258    1.7494    0.9094 C   0  0  0  0  0  0  0  0  0  0  0  0
   -3.0868    1.4855    0.0766 S   0  0  0  0  0  0  0  0  0  0  0  0
   -2.7563   -0.2047   -0.0192 C   0  0  0  0  0  0  0  0  0  0  0  0
   -1.5586   -0.5404    0.5721 C   0  0  0  0  0  0  0  0  0  0  0  0
   -0.8984    0.6076    1.1047 C   0  0  0  0  0  0  0  0  0  0  0  0
    0.4287    0.5782    1.8126 C   0  0  0  0  0  0  0  0  0  0  0  0
    2.0420    0.8615   -0.1699 C   0  0  0  0  0  0  0  0  0  0  0  0
    3.0771    0.4245   -0.8895 N   0  0  0  0  0  0  0  0  0  0  0  0
    3.6711   -0.7026   -0.5223 C   0  0  0  0  0  0  0  0  0  0  0  0
    3.3248   -1.4526    0.5143 N   0  0  0  0  0  0  0  0  0  0  0  0
    2.2868   -1.0113    1.2272 C   0  0  0  0  0  0  0  0  0  0  0  0
    1.5795    0.1347    0.9519 C   0  0  0  0  0  0  0  0  0  0  0  0
    5.7497   -0.6215   -0.9962 H   0  0  0  0  0  0  0  0  0  0  0  0
    5.0252   -2.2100   -1.2199 H   0  0  0  0  0  0  0  0  0  0  0  0
    4.7147   -0.9079   -2.3867 H   0  0  0  0  0  0  0  0  0  0  0  0
    0.5969    2.3190   -0.1993 H   0  0  0  0  0  0  0  0  0  0  0  0
    1.7839    2.4336   -1.4201 H   0  0  0  0  0  0  0  0  0  0  0  0
   -0.1896   -2.0695   -0.0381 H   0  0  0  0  0  0  0  0  0  0  0  0
   -0.6068   -2.1111    1.6672 H   0  0  0  0  0  0  0  0  0  0  0  0
   -1.7550   -2.6872    0.4712 H   0  0  0  0  0  0  0  0  0  0  0  0
   -3.4615   -2.1325   -0.6962 H   0  0  0  0  0  0  0  0  0  0  0  0
   -1.3643    2.7461    1.2373 H   0  0  0  0  0  0  0  0  0  0  0  0
    0.6305    1.5707    2.2264 H   0  0  0  0  0  0  0  0  0  0  0  0
    0.3665   -0.0968    2.6712 H   0  0  0  0  0  0  0  0  0  0  0  0
    1.9982   -1.6178    2.0816 H   0  0  0  0  0  0  0  0  0  0  0  0
    1.4951    2.0316   -0.5439 N   0  0  0  0  0  0  0  0  0  0  0  0
   -1.0062   -1.9244    0.6699 C   0  0  0  0  0  0  0  0  0  0  0  0
  1 12  1  0
 12 11  1  0
 12 13  2  0
 11 10  2  0
 13 14  1  0
 10 29  1  0
 10 15  1  0
  4  5  1  0
  4  8  2  0
  5  6  1  0
 14 15  2  0
 15  9  1  0
  8  9  1  0
  8  7  1  0
  6  7  2  0
  6  3  1  0
  7 30  1  0
  3  2  2  0
  1 16  1  0
  1 17  1  0
  1 18  1  0
 29 19  1  0
 29 20  1  0
 30 21  1  0
 30 22  1  0
 30 23  1  0
  3 24  1  0
  4 25  1  0
  9 26  1  0
  9 27  1  0
 14 28  1  0
M  END
