
     RDKit          3D

 30 30  0  0  0  0  0  0  0  0999 V2000
    3.4726    0.0826   -0.0570 N   0  0  0  0  0  0  0  0  0  0  0  0
    2.2679   -1.9621    0.0964 C   0  0  0  0  0  0  0  0  0  0  0  0
    1.0835   -2.6704    0.1287 C   0  0  0  0  0  0  0  0  0  0  0  0
   -0.1507   -2.0387    0.0500 C   0  0  0  0  0  0  0  0  0  0  0  0
   -0.1809   -0.6505   -0.0633 C   0  0  0  0  0  0  0  0  0  0  0  0
    1.0108    0.0804   -0.0969 C   0  0  0  0  0  0  0  0  0  0  0  0
   -3.6210    0.8612   -0.2028 C   0  0  0  0  0  0  0  0  0  0  0  0
    3.7514    1.4100   -0.1412 C   0  0  0  0  0  0  0  0  0  0  0  0
    2.8997    2.2809   -0.1806 O   0  0  0  0  0  0  0  0  0  0  0  0
    2.2378   -0.5693   -0.0208 C   0  0  0  0  0  0  0  0  0  0  0  0
   -2.6491   -0.3001   -0.0725 C   0  0  0  0  0  0  0  0  0  0  0  0
   -3.0157   -1.4447    0.0902 O   0  0  0  0  0  0  0  0  0  0  0  0
   -4.9187    0.3658   -0.1671 O   0  0  0  0  0  0  0  0  0  0  0  0
   -5.8816    1.3904   -0.2232 C   0  0  0  0  0  0  0  0  0  0  0  0
    4.2691   -0.5346   -0.0191 H   0  0  0  0  0  0  0  0  0  0  0  0
    3.2153   -2.4832    0.1597 H   0  0  0  0  0  0  0  0  0  0  0  0
    1.1156   -3.7484    0.2165 H   0  0  0  0  0  0  0  0  0  0  0  0
   -1.0535   -2.6246    0.0755 H   0  0  0  0  0  0  0  0  0  0  0  0
    0.9679    1.1553   -0.1815 H   0  0  0  0  0  0  0  0  0  0  0  0
   -3.4301    1.5750    0.6139 H   0  0  0  0  0  0  0  0  0  0  0  0
   -3.4114    1.4010   -1.1389 H   0  0  0  0  0  0  0  0  0  0  0  0
    5.8669    0.9001    0.0714 H   0  0  0  0  0  0  0  0  0  0  0  0
    5.4729    2.0184   -1.2338 H   0  0  0  0  0  0  0  0  0  0  0  0
    5.4433    2.5799    0.4313 H   0  0  0  0  0  0  0  0  0  0  0  0
   -1.2106    1.0932   -0.2818 H   0  0  0  0  0  0  0  0  0  0  0  0
   -5.8097    1.9724   -1.1492 H   0  0  0  0  0  0  0  0  0  0  0  0
   -6.8648    0.9241   -0.1838 H   0  0  0  0  0  0  0  0  0  0  0  0
   -5.7901    2.0838    0.6205 H   0  0  0  0  0  0  0  0  0  0  0  0
   -1.3552    0.1016   -0.1572 N   0  0  0  0  0  0  0  0  0  0  0  0
    5.2225    1.7300   -0.2119 C   0  0  0  0  0  0  0  0  0  0  0  0
 30  8  1  0
  9  8  2  0
  8  1  1  0
  1 10  1  0
 12 11  2  0
 10  6  1  0
 10  2  2  0
  6  5  2  0
 11  7  1  0
 11 29  1  0
  7 13  1  0
  2  3  1  0
  5 29  1  0
  5  4  1  0
 13 14  1  0
  3  4  2  0
  1 15  1  0
  2 16  1  0
  3 17  1  0
  4 18  1  0
  6 19  1  0
  7 20  1  0
  7 21  1  0
 30 22  1  0
 30 23  1  0
 30 24  1  0
 29 25  1  0
 14 26  1  0
 14 27  1  0
 14 28  1  0
M  END
