
     RDKit          3D

 34 35  0  0  0  0  0  0  0  0999 V2000
   -2.2924   -1.1837   -1.3639 C   0  0  0  0  0  0  0  0  0  0  0  0
   -3.2727   -0.3062   -1.7294 C   0  0  0  0  0  0  0  0  0  0  0  0
   -3.8859    0.5262   -0.7683 C   0  0  0  0  0  0  0  0  0  0  0  0
   -5.1018    2.1410    1.0634 C   0  0  0  0  0  0  0  0  0  0  0  0
    5.4510    0.6125    0.7263 F   0  0  0  0  0  0  0  0  0  0  0  0
    4.5527    1.5134    0.2985 C   0  0  1  0  0  0  0  0  0  0  0  0
    4.9123    2.6954    0.8206 F   0  0  0  0  0  0  0  0  0  0  0  0
    4.7172    1.6132   -1.0302 F   0  0  0  0  0  0  0  0  0  0  0  0
    3.1444    1.1453    0.6766 C   0  0  0  0  0  0  0  0  0  0  0  0
    2.7053   -0.1996    0.1047 C   0  0  0  0  0  0  0  0  0  0  0  0
    1.2681   -0.4803    0.5211 C   0  0  0  0  0  0  0  0  0  0  0  0
    0.6895   -2.0319   -0.1593 S   0  0  1  0  0  0  0  0  0  0  0  0
    0.6682   -1.9130   -1.6068 O   0  0  0  0  0  0  0  0  0  0  0  0
    1.4150   -3.1258    0.4620 O   0  0  0  0  0  0  0  0  0  0  0  0
   -1.8701   -1.2472   -0.0139 C   0  0  0  0  0  0  0  0  0  0  0  0
   -4.9135    1.4402   -1.0959 C   0  0  0  0  0  0  0  0  0  0  0  0
   -5.5014    2.2166   -0.2269 N   0  0  0  0  0  0  0  0  0  0  0  0
   -4.1228    1.2975    1.5070 C   0  0  0  0  0  0  0  0  0  0  0  0
   -3.4766    0.4489    0.5816 C   0  0  0  0  0  0  0  0  0  0  0  0
   -2.4471   -0.4464    0.9385 C   0  0  0  0  0  0  0  0  0  0  0  0
   -1.8542   -1.8464   -2.0952 H   0  0  0  0  0  0  0  0  0  0  0  0
   -3.6006   -0.2586   -2.7604 H   0  0  0  0  0  0  0  0  0  0  0  0
   -5.6098    2.8019    1.7554 H   0  0  0  0  0  0  0  0  0  0  0  0
    3.0792    1.1345    1.7669 H   0  0  0  0  0  0  0  0  0  0  0  0
    2.4830    1.9398    0.3236 H   0  0  0  0  0  0  0  0  0  0  0  0
    2.7740   -0.1861   -0.9836 H   0  0  0  0  0  0  0  0  0  0  0  0
    3.3539   -0.9964    0.4708 H   0  0  0  0  0  0  0  0  0  0  0  0
    1.1666   -0.5550    1.6050 H   0  0  0  0  0  0  0  0  0  0  0  0
    0.5893    0.2969    0.1635 H   0  0  0  0  0  0  0  0  0  0  0  0
   -0.9205   -2.4574    1.3424 H   0  0  0  0  0  0  0  0  0  0  0  0
   -5.2439    1.5097   -2.1288 H   0  0  0  0  0  0  0  0  0  0  0  0
   -3.8451    1.2808    2.5529 H   0  0  0  0  0  0  0  0  0  0  0  0
   -2.1197   -0.4984    1.9702 H   0  0  0  0  0  0  0  0  0  0  0  0
   -0.8860   -2.1903    0.3635 N   0  0  0  0  0  0  0  0  0  0  0  0
 16 17  1  0
 16  3  2  0
  2  3  1  0
  2  1  2  0
 17  4  2  0
  3 19  1  0
  1 15  1  0
  4 18  1  0
 19 18  2  0
 19 20  1  0
 15 20  2  0
 15 34  1  0
 12 34  1  1
 13 12  2  0
 12 14  2  0
 12 11  1  0
 11 10  1  0
 10  9  1  0
  6  7  1  1
  9  6  1  0
  6  8  1  0
  6  5  1  0
  1 21  1  0
  2 22  1  0
  4 23  1  0
  9 24  1  0
  9 25  1  0
 10 26  1  0
 10 27  1  0
 11 28  1  0
 11 29  1  0
 34 30  1  0
 16 31  1  0
 18 32  1  0
 20 33  1  0
M  END
