
     RDKit          3D

 72 76  0  0  0  0  0  0  0  0999 V2000
   -4.8949   -0.9969   -0.2599 C   0  0  0  0  0  0  0  0  0  0  0  0
   -3.7794   -0.1060    0.2764 C   0  0  2  0  0  0  0  0  0  0  0  0
   -2.5920   -3.9971    0.5898 C   0  0  0  0  0  0  0  0  0  0  0  0
   -3.6148    1.2073   -0.4825 C   0  0  0  0  0  0  0  0  0  0  0  0
   -2.1350    3.2483   -0.6187 C   0  0  0  0  0  0  0  0  0  0  0  0
   -2.7897    4.4577   -0.7873 C   0  0  0  0  0  0  0  0  0  0  0  0
   -2.3433    5.4710   -1.6106 C   0  0  0  0  0  0  0  0  0  0  0  0
   -1.1768    5.2493   -2.3230 C   0  0  0  0  0  0  0  0  0  0  0  0
   -0.4838    4.0547   -2.2095 C   0  0  0  0  0  0  0  0  0  0  0  0
    0.9895    1.5019   -1.5231 C   0  0  0  0  0  0  0  0  0  0  0  0
    3.2055   -1.6040   -0.8940 C   0  0  0  0  0  0  0  0  0  0  0  0
    2.8868   -3.8914   -0.1605 C   0  0  0  0  0  0  0  0  0  0  0  0
    4.0402   -4.2486   -0.8315 C   0  0  0  0  0  0  0  0  0  0  0  0
    4.7876   -3.3274   -1.5368 C   0  0  0  0  0  0  0  0  0  0  0  0
   -3.9302    4.6577   -0.1025 F   0  0  0  0  0  0  0  0  0  0  0  0
   -0.9539    3.0532   -1.3583 C   0  0  0  0  0  0  0  0  0  0  0  0
   -0.3010    1.8203   -1.2230 N   0  0  0  0  0  0  0  0  0  0  0  0
    1.7998    2.2925   -1.9631 O   0  0  0  0  0  0  0  0  0  0  0  0
    1.3288    0.0414   -1.2972 C   0  0  0  0  0  0  0  0  0  0  0  0
    2.7982   -0.1450   -0.9239 C   0  0  1  0  0  0  0  0  0  0  0  0
    3.1584    0.5493    0.3748 C   0  0  0  0  0  0  0  0  0  0  0  0
    2.3441    0.4886    1.5032 C   0  0  0  0  0  0  0  0  0  0  0  0
    2.7079    1.1155    2.6874 C   0  0  0  0  0  0  0  0  0  0  0  0
    3.9006    1.8092    2.7314 C   0  0  0  0  0  0  0  0  0  0  0  0
    4.2557    2.4238    3.8726 F   0  0  0  0  0  0  0  0  0  0  0  0
    4.7370    1.8920    1.6357 C   0  0  0  0  0  0  0  0  0  0  0  0
    4.3530    1.2586    0.4625 C   0  0  0  0  0  0  0  0  0  0  0  0
    4.3578   -2.0075   -1.5622 C   0  0  0  0  0  0  0  0  0  0  0  0
    4.4448   -5.5295   -0.7987 F   0  0  0  0  0  0  0  0  0  0  0  0
    2.4780   -2.5661   -0.1969 C   0  0  0  0  0  0  0  0  0  0  0  0
   -2.7080    2.1868    0.2767 C   0  0  0  0  0  0  0  0  0  0  0  0
   -4.5225   -1.5752   -1.5334 N   0  0  0  0  0  0  0  0  0  0  0  0
   -2.4876   -0.8220    0.2592 N   0  0  0  0  0  0  0  0  0  0  0  0
   -2.1979   -1.5259   -0.9951 C   0  0  0  0  0  0  0  0  0  0  0  0
   -1.9292   -1.5189    1.6483 S   0  0  2  0  0  0  0  0  0  0  0  0
   -2.3150   -0.6610    2.7590 O   0  0  0  0  0  0  0  0  0  0  0  0
   -0.5092   -1.7891    1.4434 O   0  0  0  0  0  0  0  0  0  0  0  0
   -2.7492   -3.0982    1.8123 C   0  0  0  0  0  0  0  0  0  0  0  0
   -3.5375   -3.7111   -0.5779 C   0  0  0  0  0  0  0  0  0  0  0  0
   -3.3420   -2.4252   -1.4335 C   0  0  1  0  0  0  0  0  0  0  0  0
   -5.1360   -1.7493    0.5062 H   0  0  0  0  0  0  0  0  0  0  0  0
   -5.7961   -0.3951   -0.3880 H   0  0  0  0  0  0  0  0  0  0  0  0
   -4.0193    0.1382    1.3117 H   0  0  0  0  0  0  0  0  0  0  0  0
   -1.5489   -4.0205    0.2662 H   0  0  0  0  0  0  0  0  0  0  0  0
   -2.8071   -5.0097    0.9362 H   0  0  0  0  0  0  0  0  0  0  0  0
   -3.2412    1.0214   -1.4924 H   0  0  0  0  0  0  0  0  0  0  0  0
   -4.5993    1.6609   -0.6158 H   0  0  0  0  0  0  0  0  0  0  0  0
   -2.8937    6.3986   -1.6920 H   0  0  0  0  0  0  0  0  0  0  0  0
   -0.8005    6.0166   -2.9859 H   0  0  0  0  0  0  0  0  0  0  0  0
    0.4126    3.9112   -2.7885 H   0  0  0  0  0  0  0  0  0  0  0  0
    2.3151   -4.6324    0.3828 H   0  0  0  0  0  0  0  0  0  0  0  0
    5.6859   -3.6299   -2.0591 H   0  0  0  0  0  0  0  0  0  0  0  0
   -0.8318    1.0845   -0.7850 H   0  0  0  0  0  0  0  0  0  0  0  0
    0.6664   -0.4069   -0.5541 H   0  0  0  0  0  0  0  0  0  0  0  0
    1.1238   -0.4844   -2.2355 H   0  0  0  0  0  0  0  0  0  0  0  0
    3.3894    0.3277   -1.7107 H   0  0  0  0  0  0  0  0  0  0  0  0
    1.4092   -0.0578    1.4875 H   0  0  0  0  0  0  0  0  0  0  0  0
    2.0697    1.0635    3.5597 H   0  0  0  0  0  0  0  0  0  0  0  0
    5.6655    2.4453    1.6915 H   0  0  0  0  0  0  0  0  0  0  0  0
    5.0009    1.3209   -0.4035 H   0  0  0  0  0  0  0  0  0  0  0  0
    4.9356   -1.2816   -2.1215 H   0  0  0  0  0  0  0  0  0  0  0  0
    1.5731   -2.2977    0.3315 H   0  0  0  0  0  0  0  0  0  0  0  0
   -3.2775    2.6431    1.0860 H   0  0  0  0  0  0  0  0  0  0  0  0
   -1.9040    1.6412    0.7774 H   0  0  0  0  0  0  0  0  0  0  0  0
   -5.2987   -2.0999   -1.9149 H   0  0  0  0  0  0  0  0  0  0  0  0
   -2.0435   -0.7729   -1.7716 H   0  0  0  0  0  0  0  0  0  0  0  0
   -1.2623   -2.0750   -0.9077 H   0  0  0  0  0  0  0  0  0  0  0  0
   -3.7992   -2.8990    2.0344 H   0  0  0  0  0  0  0  0  0  0  0  0
   -2.3023   -3.5539    2.6987 H   0  0  0  0  0  0  0  0  0  0  0  0
   -3.4683   -4.5667   -1.2516 H   0  0  0  0  0  0  0  0  0  0  0  0
   -4.5606   -3.7328   -0.1921 H   0  0  0  0  0  0  0  0  0  0  0  0
   -3.0966   -2.7390   -2.4505 H   0  0  0  0  0  0  0  0  0  0  0  0
 25 24  1  0
 24 26  2  0
 24 23  1  0
 26 27  1  0
 23 22  2  0
 27 21  2  0
 22 21  1  0
 21 20  1  0
 29 13  1  0
 12 13  2  0
 12 30  1  0
 13 14  1  0
 30 11  2  0
 14 28  2  0
 11 20  1  0
 11 28  1  0
 20 19  1  0
 19 10  1  0
 36 35  2  0
 35 38  1  1
 38  3  1  0
 10 17  1  0
 10 18  2  0
 35 37  2  0
 35 33  1  0
  1  2  1  0
  1 32  1  0
  3 39  1  0
 17 16  1  0
  2 33  1  0
  2  4  1  0
 39 40  1  0
 33 34  1  0
 32 40  1  0
 31  4  1  0
 31  5  1  0
 16  5  1  0
 16  9  2  0
 40 34  1  0
  5  6  2  0
  9  8  1  0
  6 15  1  0
  6  7  1  0
  8  7  2  0
  1 41  1  0
  1 42  1  0
  2 43  1  1
  3 44  1  0
  3 45  1  0
  4 46  1  0
  4 47  1  0
  7 48  1  0
  8 49  1  0
  9 50  1  0
 12 51  1  0
 14 52  1  0
 17 53  1  0
 19 54  1  0
 19 55  1  0
 20 56  1  6
 22 57  1  0
 23 58  1  0
 26 59  1  0
 27 60  1  0
 28 61  1  0
 30 62  1  0
 31 63  1  0
 31 64  1  0
 32 65  1  0
 34 66  1  0
 34 67  1  0
 38 68  1  0
 38 69  1  0
 39 70  1  0
 39 71  1  0
 40 72  1  6
M  END
