
     RDKit          3D

 49 51  0  0  0  0  0  0  0  0999 V2000
    2.6082    0.3192   -1.5047 N   0  0  0  0  0  0  0  0  0  0  0  0
    2.5810    0.7337   -0.2125 C   0  0  0  0  0  0  0  0  0  0  0  0
    1.3787    1.3487    0.0415 C   0  0  0  0  0  0  0  0  0  0  0  0
    0.6687    1.3030   -1.1453 N   0  0  0  0  0  0  0  0  0  0  0  0
    1.4614    0.6726   -2.0362 C   0  0  0  0  0  0  0  0  0  0  0  0
   -0.0778    0.8675    2.3342 C   0  0  0  0  0  0  0  0  0  0  0  0
    0.8215    2.1375    1.4780 S   0  0  0  0  0  0  0  0  0  0  0  0
   -0.9405    1.2868    3.3413 C   0  0  0  0  0  0  0  0  0  0  0  0
   -1.6356    0.3306    4.0623 C   0  0  0  0  0  0  0  0  0  0  0  0
   -2.7121    0.8418    5.3131 Cl  0  0  0  0  0  0  0  0  0  0  0  0
   -1.5073   -1.0253    3.8030 C   0  0  0  0  0  0  0  0  0  0  0  0
   -0.6419   -1.4060    2.7909 C   0  0  0  0  0  0  0  0  0  0  0  0
   -0.4578   -3.0860    2.4315 Cl  0  0  0  0  0  0  0  0  0  0  0  0
    0.0841   -0.4830    2.0569 C   0  0  0  0  0  0  0  0  0  0  0  0
    3.7311    0.5225    0.7180 C   0  0  1  0  0  0  0  0  0  0  0  0
    4.0076   -0.9667    0.9244 C   0  0  0  0  0  0  0  0  0  0  0  0
    4.9781    1.2413    0.2020 C   0  0  0  0  0  0  0  0  0  0  0  0
   -0.6169    1.9144   -1.4181 C   0  0  0  0  0  0  0  0  0  0  0  0
   -1.6951    0.9265   -1.7713 C   0  0  0  0  0  0  0  0  0  0  0  0
   -1.9511   -0.1929   -0.9895 C   0  0  0  0  0  0  0  0  0  0  0  0
   -2.9853   -1.0395   -1.3505 C   0  0  0  0  0  0  0  0  0  0  0  0
   -3.7575   -0.8443   -2.4150 N   0  0  0  0  0  0  0  0  0  0  0  0
   -3.5070    0.2218   -3.1620 C   0  0  0  0  0  0  0  0  0  0  0  0
   -2.4956    1.1314   -2.8844 C   0  0  0  0  0  0  0  0  0  0  0  0
    1.0702    0.4079   -3.4455 C   0  0  0  0  0  0  0  0  0  0  0  0
    0.2684   -0.7695   -3.4495 O   0  0  0  0  0  0  0  0  0  0  0  0
   -0.4536   -1.0083   -4.5549 C   0  0  0  0  0  0  0  0  0  0  0  0
   -1.1843   -2.1263   -4.4158 N   0  0  0  0  0  0  0  0  0  0  0  0
   -0.4099   -0.3133   -5.5479 O   0  0  0  0  0  0  0  0  0  0  0  0
   -1.0760    2.3389    3.5565 H   0  0  0  0  0  0  0  0  0  0  0  0
   -2.0670   -1.7578    4.3666 H   0  0  0  0  0  0  0  0  0  0  0  0
    0.7550   -0.8140    1.2754 H   0  0  0  0  0  0  0  0  0  0  0  0
    3.4550    0.9571    1.6832 H   0  0  0  0  0  0  0  0  0  0  0  0
    4.8229   -1.1080    1.6352 H   0  0  0  0  0  0  0  0  0  0  0  0
    3.1343   -1.4899    1.3163 H   0  0  0  0  0  0  0  0  0  0  0  0
    4.2922   -1.4459   -0.0134 H   0  0  0  0  0  0  0  0  0  0  0  0
    5.2942    0.8283   -0.7569 H   0  0  0  0  0  0  0  0  0  0  0  0
    4.7975    2.3083    0.0673 H   0  0  0  0  0  0  0  0  0  0  0  0
    5.8033    1.1274    0.9063 H   0  0  0  0  0  0  0  0  0  0  0  0
   -0.9076    2.4692   -0.5251 H   0  0  0  0  0  0  0  0  0  0  0  0
   -0.5008    2.6492   -2.2160 H   0  0  0  0  0  0  0  0  0  0  0  0
   -1.3646   -0.4114   -0.1068 H   0  0  0  0  0  0  0  0  0  0  0  0
   -3.2021   -1.9149   -0.7479 H   0  0  0  0  0  0  0  0  0  0  0  0
   -4.1391    0.3662   -4.0310 H   0  0  0  0  0  0  0  0  0  0  0  0
   -2.3423    1.9812   -3.5371 H   0  0  0  0  0  0  0  0  0  0  0  0
    0.5270    1.2553   -3.8684 H   0  0  0  0  0  0  0  0  0  0  0  0
    1.9745    0.2602   -4.0377 H   0  0  0  0  0  0  0  0  0  0  0  0
   -1.8671   -2.3427   -5.1213 H   0  0  0  0  0  0  0  0  0  0  0  0
   -1.3053   -2.5591   -3.5157 H   0  0  0  0  0  0  0  0  0  0  0  0
  1  2  1  0
  1  5  2  0
  2  3  2  0
  2 15  1  0
  3  4  1  0
  3  7  1  0
  4  5  1  0
  4 18  1  0
  5 25  1  0
  6  7  1  0
  6  8  2  0
  6 14  1  0
  8  9  1  0
  8 30  1  0
  9 10  1  0
  9 11  2  0
 11 12  1  0
 11 31  1  0
 12 13  1  0
 12 14  2  0
 14 32  1  0
 15 16  1  0
 15 17  1  0
 15 33  1  1
 16 34  1  0
 16 35  1  0
 16 36  1  0
 17 37  1  0
 17 38  1  0
 17 39  1  0
 18 19  1  0
 18 40  1  0
 18 41  1  0
 19 20  2  0
 19 24  1  0
 20 21  1  0
 20 42  1  0
 21 22  2  0
 21 43  1  0
 22 23  1  0
 23 24  2  0
 23 44  1  0
 24 45  1  0
 25 26  1  0
 25 46  1  0
 25 47  1  0
 26 27  1  0
 27 28  1  0
 27 29  2  0
 28 48  1  0
 28 49  1  0
M  END
