
     RDKit          3D

 30 33  0  0  0  0  0  0  0  0999 V2000
   -2.0611    1.5244    0.0875 C   0  0  0  0  0  0  0  0  0  0  0  0
   -4.0912    2.5319   -0.1591 C   0  0  0  0  0  0  0  0  0  0  0  0
   -1.7319   -0.9419   -0.0991 C   0  0  0  0  0  0  0  0  0  0  0  0
   -2.1615   -2.2500   -0.1267 C   0  0  0  0  0  0  0  0  0  0  0  0
    2.2010   -1.9036    0.0774 C   0  0  0  0  0  0  0  0  0  0  0  0
    2.9503    0.4805    0.1196 C   0  0  0  0  0  0  0  0  0  0  0  0
    2.7847    1.8804    0.1949 C   0  0  0  0  0  0  0  0  0  0  0  0
   -4.7159    1.3155   -0.3945 C   0  0  0  0  0  0  0  0  0  0  0  0
   -3.9516    0.1640   -0.3862 C   0  0  0  0  0  0  0  0  0  0  0  0
   -2.5800    0.2446   -0.1342 C   0  0  0  0  0  0  0  0  0  0  0  0
   -2.7892    2.6336    0.0741 N   0  0  0  0  0  0  0  0  0  0  0  0
   -1.1107   -3.1110   -0.0861 N   0  0  0  0  0  0  0  0  0  0  0  0
    0.0409   -2.3939   -0.0266 C   0  0  0  0  0  0  0  0  0  0  0  0
   -0.3020   -1.0229   -0.0320 C   0  0  0  0  0  0  0  0  0  0  0  0
    0.6442   -0.0924    0.0131 N   0  0  0  0  0  0  0  0  0  0  0  0
    1.8986   -0.5258    0.0674 C   0  0  0  0  0  0  0  0  0  0  0  0
    1.2764   -2.8465    0.0284 N   0  0  0  0  0  0  0  0  0  0  0  0
    4.3227    0.3109    0.1046 C   0  0  0  0  0  0  0  0  0  0  0  0
    4.8543    1.5374    0.1682 N   0  0  0  0  0  0  0  0  0  0  0  0
    3.9446    2.5039    0.2245 N   0  0  0  0  0  0  0  0  0  0  0  0
   -1.0022    1.6501    0.2790 H   0  0  0  0  0  0  0  0  0  0  0  0
   -4.6618    3.4539   -0.1631 H   0  0  0  0  0  0  0  0  0  0  0  0
   -3.1665   -2.6387   -0.1681 H   0  0  0  0  0  0  0  0  0  0  0  0
    3.2305   -2.2373    0.1301 H   0  0  0  0  0  0  0  0  0  0  0  0
    1.8606    2.4362    0.2302 H   0  0  0  0  0  0  0  0  0  0  0  0
   -5.7797    1.2745   -0.5846 H   0  0  0  0  0  0  0  0  0  0  0  0
   -4.4244   -0.7899   -0.5833 H   0  0  0  0  0  0  0  0  0  0  0  0
   -1.1830   -4.1161   -0.0829 H   0  0  0  0  0  0  0  0  0  0  0  0
    4.9438   -0.5681    0.0512 H   0  0  0  0  0  0  0  0  0  0  0  0
    5.8352    1.7685    0.1740 H   0  0  0  0  0  0  0  0  0  0  0  0
  2  8  2  0
  2 11  1  0
  8  9  1  0
 11  1  2  0
  9 10  2  0
  1 10  1  0
 10  3  1  0
  3  4  2  0
  3 14  1  0
  4 12  1  0
 14 15  2  0
 14 13  1  0
 15 16  1  0
  7 20  2  0
  7  6  1  0
 20 19  1  0
 12 13  1  0
 16  6  1  0
 16  5  2  0
  6 18  2  0
 13 17  2  0
 19 18  1  0
 17  5  1  0
  1 21  1  0
  2 22  1  0
  4 23  1  0
  5 24  1  0
  7 25  1  0
  8 26  1  0
  9 27  1  0
 12 28  1  0
 18 29  1  0
 19 30  1  0
M  END
