
     RDKit          3D

 61 64  0  0  0  0  0  0  0  0999 V2000
    6.3402    1.9209    0.3072 O   0  0  0  0  0  0  0  0  0  0  0  0
   -5.8709   -0.4941   -0.6208 C   0  0  0  0  0  0  0  0  0  0  0  0
    3.9488   -3.0926    0.5985 O   0  0  0  0  0  0  0  0  0  0  0  0
   -6.3880    0.7345   -0.2020 C   0  0  0  0  0  0  0  0  0  0  0  0
   -1.2180    0.8162   -0.0416 C   0  0  0  0  0  0  0  0  0  0  0  0
    1.7938   -1.2546    0.4602 N   0  0  0  0  0  0  0  0  0  0  0  0
   -5.4864    1.6450    0.3416 C   0  0  0  0  0  0  0  0  0  0  0  0
   -4.1346    1.3474    0.4605 C   0  0  0  0  0  0  0  0  0  0  0  0
   -3.6238    0.1229    0.0381 C   0  0  0  0  0  0  0  0  0  0  0  0
   -2.1871   -0.1970    0.1576 C   0  0  0  0  0  0  0  0  0  0  0  0
    2.5762   -4.6734    1.3772 O   0  0  0  0  0  0  0  0  0  0  0  0
    1.6678   -2.5957    0.7803 C   0  0  0  0  0  0  0  0  0  0  0  0
    0.3416   -2.9306    0.8453 C   0  0  0  0  0  0  0  0  0  0  0  0
    2.9718   -0.4659    0.3964 C   0  0  0  0  0  0  0  0  0  0  0  0
    3.4111    0.0192   -0.8219 C   0  0  0  0  0  0  0  0  0  0  0  0
    4.5383    0.8264   -0.8983 C   0  0  0  0  0  0  0  0  0  0  0  0
    5.2445    1.1461    0.2605 C   0  0  0  0  0  0  0  0  0  0  0  0
    6.8790    2.4967   -0.8882 C   0  0  1  0  0  0  0  0  0  0  0  0
    7.7230    3.6770   -0.4503 C   0  0  0  0  0  0  0  0  0  0  0  0
    7.6946    1.4778   -1.6664 C   0  0  0  0  0  0  0  0  0  0  0  0
    4.7944    0.6504    1.4889 C   0  0  0  0  0  0  0  0  0  0  0  0
    3.6639   -0.1386    1.5562 C   0  0  0  0  0  0  0  0  0  0  0  0
    0.5372   -0.7321    0.3268 C   0  0  0  0  0  0  0  0  0  0  0  0
    0.1340    0.5737    0.0402 C   0  0  0  0  0  0  0  0  0  0  0  0
   -0.4012   -1.7590    0.5488 C   0  0  0  0  0  0  0  0  0  0  0  0
   -1.7703   -1.4815    0.4578 C   0  0  0  0  0  0  0  0  0  0  0  0
   -4.5250   -0.7942   -0.5082 C   0  0  0  0  0  0  0  0  0  0  0  0
   -7.8774    1.0203   -0.3489 C   0  0  1  0  0  0  0  0  0  0  0  0
   -8.6661    0.0232    0.5112 C   0  0  0  0  0  0  0  0  0  0  0  0
   -8.2471    2.4349    0.0974 C   0  0  0  0  0  0  0  0  0  0  0  0
   -8.2837    0.8566   -1.8200 C   0  0  0  0  0  0  0  0  0  0  0  0
   -6.5266   -1.2363   -1.0608 H   0  0  0  0  0  0  0  0  0  0  0  0
    4.6252   -3.7713    0.7460 H   0  0  0  0  0  0  0  0  0  0  0  0
   -1.5483    1.8163   -0.2914 H   0  0  0  0  0  0  0  0  0  0  0  0
   -5.8256    2.6099    0.6930 H   0  0  0  0  0  0  0  0  0  0  0  0
   -3.4775    2.0832    0.9084 H   0  0  0  0  0  0  0  0  0  0  0  0
   -0.0482   -3.9135    1.0565 H   0  0  0  0  0  0  0  0  0  0  0  0
    2.8778   -0.2334   -1.7295 H   0  0  0  0  0  0  0  0  0  0  0  0
    4.8458    1.1863   -1.8696 H   0  0  0  0  0  0  0  0  0  0  0  0
    6.0571    2.8696   -1.5092 H   0  0  0  0  0  0  0  0  0  0  0  0
    8.5526    3.3563    0.1820 H   0  0  0  0  0  0  0  0  0  0  0  0
    8.1425    4.1717   -1.3258 H   0  0  0  0  0  0  0  0  0  0  0  0
    7.1303    4.4099    0.0972 H   0  0  0  0  0  0  0  0  0  0  0  0
    8.5592    1.1509   -1.0868 H   0  0  0  0  0  0  0  0  0  0  0  0
    7.1162    0.5958   -1.9422 H   0  0  0  0  0  0  0  0  0  0  0  0
    8.0602    1.9309   -2.5882 H   0  0  0  0  0  0  0  0  0  0  0  0
    5.3342    0.9023    2.3930 H   0  0  0  0  0  0  0  0  0  0  0  0
    3.3177   -0.5006    2.5160 H   0  0  0  0  0  0  0  0  0  0  0  0
    0.8499    1.3675   -0.1263 H   0  0  0  0  0  0  0  0  0  0  0  0
   -2.4921   -2.2683    0.6402 H   0  0  0  0  0  0  0  0  0  0  0  0
   -4.1690   -1.7497   -0.8736 H   0  0  0  0  0  0  0  0  0  0  0  0
   -8.4228    0.1390    1.5691 H   0  0  0  0  0  0  0  0  0  0  0  0
   -9.7397    0.1873    0.3955 H   0  0  0  0  0  0  0  0  0  0  0  0
   -8.4579   -1.0108    0.2325 H   0  0  0  0  0  0  0  0  0  0  0  0
   -7.7296    3.2000   -0.4844 H   0  0  0  0  0  0  0  0  0  0  0  0
   -9.3188    2.5896   -0.0369 H   0  0  0  0  0  0  0  0  0  0  0  0
   -8.0231    2.6030    1.1520 H   0  0  0  0  0  0  0  0  0  0  0  0
   -8.1057   -0.1559   -2.1852 H   0  0  0  0  0  0  0  0  0  0  0  0
   -9.3478    1.0668   -1.9449 H   0  0  0  0  0  0  0  0  0  0  0  0
   -7.7284    1.5437   -2.4608 H   0  0  0  0  0  0  0  0  0  0  0  0
    2.7638   -3.5549    0.9589 C   0  0  0  0  0  0  0  0  0  0  0  0
 28 31  1  6
 30 28  1  0
 29 28  1  0
 28  4  1  0
  4  2  2  0
  4  7  1  0
  2 27  1  0
  7  8  2  0
 27  9  2  0
  8  9  1  0
  9 10  1  0
 10  5  2  0
 10 26  1  0
  5 24  1  0
 26 25  2  0
 24 23  2  0
 25 23  1  0
 25 13  1  0
 23  6  1  0
 13 12  2  0
  6 12  1  0
  6 14  1  0
 12 61  1  0
 22 14  1  0
 22 21  2  0
 14 15  2  0
 21 17  1  0
 15 16  1  0
 61 11  2  0
 61  3  1  0
 17 16  2  0
 17  1  1  0
 18  1  1  0
 18 20  1  0
 18 19  1  0
  2 32  1  0
  3 33  1  0
  5 34  1  0
  7 35  1  0
  8 36  1  0
 13 37  1  0
 15 38  1  0
 16 39  1  0
 18 40  1  6
 19 41  1  0
 19 42  1  0
 19 43  1  0
 20 44  1  0
 20 45  1  0
 20 46  1  0
 21 47  1  0
 22 48  1  0
 24 49  1  0
 26 50  1  0
 27 51  1  0
 29 52  1  0
 29 53  1  0
 29 54  1  0
 30 55  1  0
 30 56  1  0
 30 57  1  0
 31 58  1  0
 31 59  1  0
 31 60  1  0
M  END
