
     RDKit          3D

 49 52  0  0  0  0  0  0  0  0999 V2000
   -4.5154    1.0214   -0.2873 C   0  0  0  0  0  0  0  0  0  0  0  0
   -5.7054    1.7236   -0.2559 C   0  0  0  0  0  0  0  0  0  0  0  0
   -5.7035    3.3606   -0.8318 Cl  0  0  0  0  0  0  0  0  0  0  0  0
   -6.8972    1.1647    0.2056 C   0  0  0  0  0  0  0  0  0  0  0  0
   -8.1824    1.9302    0.2281 C   0  0  0  0  0  0  0  0  0  0  0  0
   -6.8310   -0.1544    0.6459 C   0  0  0  0  0  0  0  0  0  0  0  0
   -5.6493   -0.8756    0.6345 C   0  0  0  0  0  0  0  0  0  0  0  0
   -4.4695   -0.2972    0.1678 C   0  0  0  0  0  0  0  0  0  0  0  0
   -3.2054   -1.0292    0.1531 C   0  0  0  0  0  0  0  0  0  0  0  0
   -3.2015   -2.7754    0.1621 S   0  0  0  0  0  0  0  0  0  0  0  0
   -1.9448   -0.5189    0.1306 C   0  0  0  0  0  0  0  0  0  0  0  0
   -0.9425   -1.5303    0.1231 C   0  0  0  0  0  0  0  0  0  0  0  0
   -1.4740   -2.8162    0.1453 C   0  0  0  0  0  0  0  0  0  0  0  0
   -0.7682   -3.9448    0.1497 N   0  0  0  0  0  0  0  0  0  0  0  0
    0.5356   -3.7495    0.1314 C   0  0  0  0  0  0  0  0  0  0  0  0
    1.1825   -2.5893    0.1040 N   0  0  0  0  0  0  0  0  0  0  0  0
    0.4731   -1.4663    0.0986 C   0  0  0  0  0  0  0  0  0  0  0  0
    1.1115   -0.2842    0.0893 N   0  0  0  0  0  0  0  0  0  0  0  0
    2.5389   -0.1245   -0.0326 C   0  0  1  0  0  0  0  0  0  0  0  0
    2.9391    0.2742   -1.7799 P   0  0  1  0  0  0  0  0  0  0  0  0
    4.5119    0.0465   -1.9950 O   0  0  0  0  0  0  0  0  0  0  0  0
    2.1901   -0.9247   -2.5382 O   0  0  0  0  0  0  0  0  0  0  0  0
    2.5596    1.6464   -2.1911 O   0  0  0  0  0  0  0  0  0  0  0  0
    3.0134    0.9800    0.9215 C   0  0  0  0  0  0  0  0  0  0  0  0
    4.4978    1.2132    0.8834 C   0  0  0  0  0  0  0  0  0  0  0  0
    5.3644    0.2572    1.4077 C   0  0  0  0  0  0  0  0  0  0  0  0
    6.7250    0.4788    1.3474 C   0  0  0  0  0  0  0  0  0  0  0  0
    7.5532   -0.4501    1.8548 F   0  0  0  0  0  0  0  0  0  0  0  0
    7.2680    1.6213    0.7909 C   0  0  0  0  0  0  0  0  0  0  0  0
    6.3974    2.5712    0.2770 C   0  0  0  0  0  0  0  0  0  0  0  0
    5.0247    2.3703    0.3197 C   0  0  0  0  0  0  0  0  0  0  0  0
   -3.6267    1.4970   -0.6801 H   0  0  0  0  0  0  0  0  0  0  0  0
   -8.4601    2.2740   -0.7693 H   0  0  0  0  0  0  0  0  0  0  0  0
   -8.9930    1.3117    0.6083 H   0  0  0  0  0  0  0  0  0  0  0  0
   -8.1087    2.8145    0.8633 H   0  0  0  0  0  0  0  0  0  0  0  0
   -7.7327   -0.6275    1.0140 H   0  0  0  0  0  0  0  0  0  0  0  0
   -5.6562   -1.8914    1.0104 H   0  0  0  0  0  0  0  0  0  0  0  0
   -1.7468    0.5438    0.1418 H   0  0  0  0  0  0  0  0  0  0  0  0
    1.1578   -4.6377    0.1376 H   0  0  0  0  0  0  0  0  0  0  0  0
    0.5541    0.5543    0.0425 H   0  0  0  0  0  0  0  0  0  0  0  0
    3.0092   -1.0734    0.2324 H   0  0  0  0  0  0  0  0  0  0  0  0
    4.8420   -0.8362   -1.7824 H   0  0  0  0  0  0  0  0  0  0  0  0
    2.0642   -0.7721   -3.4853 H   0  0  0  0  0  0  0  0  0  0  0  0
    2.4907    1.9102    0.6885 H   0  0  0  0  0  0  0  0  0  0  0  0
    2.7071    0.6847    1.9273 H   0  0  0  0  0  0  0  0  0  0  0  0
    4.9847   -0.6509    1.8611 H   0  0  0  0  0  0  0  0  0  0  0  0
    8.3399    1.7664    0.7632 H   0  0  0  0  0  0  0  0  0  0  0  0
    6.7967    3.4760   -0.1612 H   0  0  0  0  0  0  0  0  0  0  0  0
    4.3586    3.1172   -0.0930 H   0  0  0  0  0  0  0  0  0  0  0  0
 23 20  2  0
 20 21  1  1
 20 22  1  0
 20 19  1  0
 19 18  1  0
 19 24  1  0
 18 17  1  0
 17 16  2  0
 17 12  1  0
 24 25  1  0
 16 15  1  0
 11 12  1  0
 11  9  2  0
 12 13  2  0
 15 14  2  0
  7  6  2  0
  7  8  1  0
  9  8  1  0
  9 10  1  0
  6  4  1  0
  8  1  2  0
 13 14  1  0
 13 10  1  0
  4  5  1  0
  4  2  2  0
  1  2  1  0
 25 31  1  0
 25 26  2  0
  2  3  1  0
 31 30  2  0
 26 27  1  0
 30 29  1  0
 27 29  2  0
 27 28  1  0
  1 32  1  0
  5 33  1  0
  5 34  1  0
  5 35  1  0
  6 36  1  0
  7 37  1  0
 11 38  1  0
 15 39  1  0
 18 40  1  0
 19 41  1  1
 21 42  1  0
 22 43  1  0
 24 44  1  0
 24 45  1  0
 26 46  1  0
 29 47  1  0
 30 48  1  0
 31 49  1  0
M  END
