
     RDKit          3D

 30 31  0  0  0  0  0  0  0  0999 V2000
   -4.2408   -0.2554   -0.3625 O   0  0  0  0  0  0  0  0  0  0  0  0
   -3.2533    0.5695   -0.0473 C   0  0  0  0  0  0  0  0  0  0  0  0
   -3.4215    1.6269    0.5094 O   0  0  0  0  0  0  0  0  0  0  0  0
   -1.8864    0.0536   -0.4534 C   0  0  1  0  0  0  0  0  0  0  0  0
   -1.3085    1.0499   -1.3368 N   0  0  0  0  0  0  0  0  0  0  0  0
   -1.0559   -0.2806    0.8121 C   0  0  1  0  0  0  0  0  0  0  0  0
   -1.7617   -1.3177    1.6834 C   0  0  0  0  0  0  0  0  0  0  0  0
    0.3169   -0.7266    0.4110 C   0  0  0  0  0  0  0  0  0  0  0  0
    1.4829    0.0937    0.2512 C   0  0  0  0  0  0  0  0  0  0  0  0
    1.7453    1.4575    0.4353 C   0  0  0  0  0  0  0  0  0  0  0  0
    3.0179    1.9350    0.1927 C   0  0  0  0  0  0  0  0  0  0  0  0
    4.0447    1.0769   -0.2368 C   0  0  0  0  0  0  0  0  0  0  0  0
    3.8180   -0.2724   -0.4269 C   0  0  0  0  0  0  0  0  0  0  0  0
    2.5320   -0.7505   -0.1782 C   0  0  0  0  0  0  0  0  0  0  0  0
    2.0225   -2.0109   -0.2758 N   0  0  0  0  0  0  0  0  0  0  0  0
    0.7035   -1.9963    0.0771 C   0  0  0  0  0  0  0  0  0  0  0  0
   -5.0895    0.1145   -0.0727 H   0  0  0  0  0  0  0  0  0  0  0  0
   -2.0082   -0.8697   -1.0258 H   0  0  0  0  0  0  0  0  0  0  0  0
   -1.1029    1.8958   -0.8178 H   0  0  0  0  0  0  0  0  0  0  0  0
   -0.4208    0.7102   -1.6859 H   0  0  0  0  0  0  0  0  0  0  0  0
   -0.9635    0.6453    1.3921 H   0  0  0  0  0  0  0  0  0  0  0  0
   -1.1515   -1.5735    2.5489 H   0  0  0  0  0  0  0  0  0  0  0  0
   -2.7175   -0.9520    2.0614 H   0  0  0  0  0  0  0  0  0  0  0  0
   -1.9587   -2.2380    1.1305 H   0  0  0  0  0  0  0  0  0  0  0  0
    0.9642    2.1324    0.7652 H   0  0  0  0  0  0  0  0  0  0  0  0
    3.2312    2.9869    0.3330 H   0  0  0  0  0  0  0  0  0  0  0  0
    5.0319    1.4803   -0.4222 H   0  0  0  0  0  0  0  0  0  0  0  0
    4.6104   -0.9328   -0.7565 H   0  0  0  0  0  0  0  0  0  0  0  0
    2.5359   -2.8330   -0.5453 H   0  0  0  0  0  0  0  0  0  0  0  0
    0.1305   -2.9106    0.0674 H   0  0  0  0  0  0  0  0  0  0  0  0
  3  2  2  0
  2  1  1  0
  2  4  1  0
  4  6  1  0
  4  5  1  0
  6  7  1  0
  6  8  1  0
 16  8  2  0
 16 15  1  0
  8  9  1  0
 15 14  1  0
  9 14  2  0
  9 10  1  0
 14 13  1  0
 10 11  2  0
 13 12  2  0
 11 12  1  0
  1 17  1  0
  4 18  1  6
  5 19  1  0
  5 20  1  0
  6 21  1  1
  7 22  1  0
  7 23  1  0
  7 24  1  0
 10 25  1  0
 11 26  1  0
 12 27  1  0
 13 28  1  0
 15 29  1  0
 16 30  1  0
M  END
