
     RDKit          3D

 16 15  0  0  0  0  0  0  0  0999 V2000
    2.7434   -0.2623   -0.0960 C   0  0  0  0  0  0  0  0  0  0  0  0
    0.2434   -0.5039    0.0456 C   0  0  0  0  0  0  0  0  0  0  0  0
   -1.1203    0.1228    0.1730 C   0  0  0  0  0  0  0  0  0  0  0  0
   -1.2738    1.3066    0.3794 O   0  0  0  0  0  0  0  0  0  0  0  0
   -2.2851   -0.8167    0.0129 C   0  0  0  0  0  0  0  0  0  0  0  0
    1.4129    0.4673    0.0322 C   0  0  0  0  0  0  0  0  0  0  0  0
    2.8952   -0.9570    0.7327 H   0  0  0  0  0  0  0  0  0  0  0  0
    2.7902   -0.8404   -1.0209 H   0  0  0  0  0  0  0  0  0  0  0  0
    3.5807    0.4357   -0.0997 H   0  0  0  0  0  0  0  0  0  0  0  0
    0.3472   -1.2139    0.8752 H   0  0  0  0  0  0  0  0  0  0  0  0
    0.2471   -1.1306   -0.8537 H   0  0  0  0  0  0  0  0  0  0  0  0
   -2.1098   -1.7569    0.5364 H   0  0  0  0  0  0  0  0  0  0  0  0
   -3.2129   -0.3695    0.3638 H   0  0  0  0  0  0  0  0  0  0  0  0
   -2.3981   -1.0639   -1.0456 H   0  0  0  0  0  0  0  0  0  0  0  0
    1.4074    1.0645    0.9466 H   0  0  0  0  0  0  0  0  0  0  0  0
    1.2986    1.1707   -0.7959 H   0  0  0  0  0  0  0  0  0  0  0  0
  1  6  1  0
  2  3  1  0
  2  6  1  0
  3  4  2  0
  3  5  1  0
  1  7  1  0
  1  8  1  0
  1  9  1  0
  2 10  1  0
  2 11  1  0
  5 12  1  0
  5 13  1  0
  5 14  1  0
  6 15  1  0
  6 16  1  0
M  END
