
     RDKit          3D

 38 40  0  0  0  0  0  0  0  0999 V2000
   -5.5293   -0.8245    3.3669 N   0  0  0  0  0  0  0  0  0  0  0  0
   -5.0890   -0.5724    2.3335 C   0  0  0  0  0  0  0  0  0  0  0  0
   -4.5445   -0.2590    1.0506 C   0  0  0  0  0  0  0  0  0  0  0  0
   -3.2560    0.2609    0.9680 C   0  0  0  0  0  0  0  0  0  0  0  0
   -2.7523    0.5652   -0.2849 C   0  0  0  0  0  0  0  0  0  0  0  0
   -3.4937    0.3614   -1.4375 C   0  0  0  0  0  0  0  0  0  0  0  0
   -4.7704   -0.1528   -1.3080 C   0  0  0  0  0  0  0  0  0  0  0  0
   -5.4942   -0.3484   -2.4109 F   0  0  0  0  0  0  0  0  0  0  0  0
   -5.3212   -0.4746   -0.0854 C   0  0  0  0  0  0  0  0  0  0  0  0
   -1.5099    1.1271   -0.3949 O   0  0  0  0  0  0  0  0  0  0  0  0
   -0.4132    0.3400   -0.3298 C   0  0  0  0  0  0  0  0  0  0  0  0
   -0.4469   -1.0474   -0.3502 C   0  0  0  0  0  0  0  0  0  0  0  0
    0.7414   -1.7603   -0.3446 C   0  0  0  0  0  0  0  0  0  0  0  0
    0.8157    0.9857   -0.2686 C   0  0  0  0  0  0  0  0  0  0  0  0
    1.0782    2.4619   -0.2759 C   0  0  1  0  0  0  0  0  0  0  0  0
    0.2228    3.1758    0.5357 F   0  0  0  0  0  0  0  0  0  0  0  0
    2.5151    2.5437    0.2230 C   0  0  1  0  0  0  0  0  0  0  0  0
    2.4983    2.4792    1.6043 F   0  0  0  0  0  0  0  0  0  0  0  0
    2.0055    0.2739   -0.2583 C   0  0  0  0  0  0  0  0  0  0  0  0
    3.1553    1.2565   -0.3129 C   0  0  2  0  0  0  0  0  0  0  0  0
    4.2679    0.8393    0.4058 O   0  0  0  0  0  0  0  0  0  0  0  0
    1.9746   -1.1195   -0.3109 C   0  0  0  0  0  0  0  0  0  0  0  0
    3.4117   -2.1800   -0.2920 S   0  0  1  0  0  0  0  0  0  0  0  0
    4.1400   -2.0122    0.9591 O   0  0  0  0  0  0  0  0  0  0  0  0
    2.9396   -3.5272   -0.6170 O   0  0  0  0  0  0  0  0  0  0  0  0
    4.4144   -1.6424   -1.6567 C   0  0  0  0  0  0  0  0  0  0  0  0
   -2.6684    0.4309    1.8602 H   0  0  0  0  0  0  0  0  0  0  0  0
   -3.0888    0.6046   -2.4115 H   0  0  0  0  0  0  0  0  0  0  0  0
   -6.3224   -0.8767   -0.0147 H   0  0  0  0  0  0  0  0  0  0  0  0
   -1.3798   -1.5930   -0.3918 H   0  0  0  0  0  0  0  0  0  0  0  0
    0.6876   -2.8388   -0.3812 H   0  0  0  0  0  0  0  0  0  0  0  0
    1.0052    2.8696   -1.2885 H   0  0  0  0  0  0  0  0  0  0  0  0
    3.0417    3.4514   -0.0744 H   0  0  0  0  0  0  0  0  0  0  0  0
    3.3909    1.4257   -1.3738 H   0  0  0  0  0  0  0  0  0  0  0  0
    5.0298    1.3558    0.1231 H   0  0  0  0  0  0  0  0  0  0  0  0
    4.8142   -0.6516   -1.4712 H   0  0  0  0  0  0  0  0  0  0  0  0
    5.2325   -2.3581   -1.7348 H   0  0  0  0  0  0  0  0  0  0  0  0
    3.8187   -1.6605   -2.5663 H   0  0  0  0  0  0  0  0  0  0  0  0
 18 17  1  0
 16 15  1  0
 17 15  1  0
 17 20  1  0
 15 14  1  0
 21 20  1  0
 20 19  1  0
 10  5  1  0
 10 11  1  0
 14 11  1  0
 14 19  2  0
  6  5  2  0
  6  7  1  0
  5  4  1  0
  8  7  1  0
  7  9  2  0
 11 12  2  0
 19 22  1  0
  4  3  2  0
  9  3  1  0
  3  2  1  0
 24 23  2  0
 12 13  1  0
 22 13  2  0
 22 23  1  0
  2  1  3  0
 23 26  1  6
 23 25  2  0
  4 27  1  0
  6 28  1  0
  9 29  1  0
 12 30  1  0
 13 31  1  0
 15 32  1  6
 17 33  1  1
 20 34  1  6
 21 35  1  0
 26 36  1  0
 26 37  1  0
 26 38  1  0
M  END
