
     RDKit          3D

 52 54  0  0  0  0  0  0  0  0999 V2000
   -7.2097    1.9556    0.6548 C   0  0  0  0  0  0  0  0  0  0  0  0
    3.6234   -3.4677   -0.2187 C   0  0  0  0  0  0  0  0  0  0  0  0
   -5.9778   -0.1526    0.6939 C   0  0  0  0  0  0  0  0  0  0  0  0
   -4.8532    1.8773    0.0173 C   0  0  0  0  0  0  0  0  0  0  0  0
   -4.8072   -0.8589    0.4932 C   0  0  0  0  0  0  0  0  0  0  0  0
   -3.6894    1.1584   -0.1783 C   0  0  0  0  0  0  0  0  0  0  0  0
   -1.5451   -0.6610   -1.2195 C   0  0  0  0  0  0  0  0  0  0  0  0
   -2.0590   -2.0492    0.6625 C   0  0  0  0  0  0  0  0  0  0  0  0
   -0.3861   -1.3883   -1.4359 C   0  0  0  0  0  0  0  0  0  0  0  0
   -0.8942   -2.7665    0.4472 C   0  0  0  0  0  0  0  0  0  0  0  0
   -6.0038    1.2211    0.4542 C   0  0  0  0  0  0  0  0  0  0  0  0
   -3.6453   -0.2191    0.0531 C   0  0  0  0  0  0  0  0  0  0  0  0
   -2.4028   -0.9810   -0.1671 C   0  0  0  0  0  0  0  0  0  0  0  0
   -0.0411   -2.4506   -0.6060 C   0  0  0  0  0  0  0  0  0  0  0  0
    2.4135   -0.1911    0.4215 C   0  0  0  0  0  0  0  0  0  0  0  0
    4.3835    3.6099    0.4156 C   0  0  0  0  0  0  0  0  0  0  0  0
    4.5181    1.1200    0.2725 C   0  0  0  0  0  0  0  0  0  0  0  0
    2.9018    3.5069    0.0642 C   0  0  0  0  0  0  0  0  0  0  0  0
    3.0196    1.1083   -0.0837 C   0  0  2  0  0  0  0  0  0  0  0  0
    5.1717    2.4297   -0.1461 C   0  0  1  0  0  0  0  0  0  0  0  0
    1.2325   -3.2109   -0.8191 C   0  0  0  0  0  0  0  0  0  0  0  0
    2.4035   -2.6124   -0.0136 C   0  0  2  0  0  0  0  0  0  0  0  0
   -8.1860    2.5478    0.8119 N   0  0  0  0  0  0  0  0  0  0  0  0
    4.6768   -3.0133   -0.7419 N   0  0  0  0  0  0  0  0  0  0  0  0
    2.2949    2.2420    0.4525 N   0  0  0  0  0  0  0  0  0  0  0  0
    2.6642   -1.2480   -0.3722 N   0  0  0  0  0  0  0  0  0  0  0  0
    1.8088   -0.2643    1.4792 O   0  0  0  0  0  0  0  0  0  0  0  0
    5.2080    2.4478   -1.5615 O   0  0  0  0  0  0  0  0  0  0  0  0
    3.5008   -4.5053    0.1022 H   0  0  0  0  0  0  0  0  0  0  0  0
    2.1411   -2.6497    1.0470 H   0  0  0  0  0  0  0  0  0  0  0  0
    5.3839   -3.7386   -0.8172 H   0  0  0  0  0  0  0  0  0  0  0  0
   -4.8066   -1.9277    0.6617 H   0  0  0  0  0  0  0  0  0  0  0  0
   -4.8688    2.9440   -0.1597 H   0  0  0  0  0  0  0  0  0  0  0  0
   -2.7981    1.6827   -0.4968 H   0  0  0  0  0  0  0  0  0  0  0  0
   -1.7934    0.1462   -1.8977 H   0  0  0  0  0  0  0  0  0  0  0  0
    0.2524   -1.1315   -2.2722 H   0  0  0  0  0  0  0  0  0  0  0  0
   -2.6948   -2.3164    1.4976 H   0  0  0  0  0  0  0  0  0  0  0  0
   -0.6497   -3.5879    1.1108 H   0  0  0  0  0  0  0  0  0  0  0  0
    1.1033   -4.2545   -0.5220 H   0  0  0  0  0  0  0  0  0  0  0  0
    1.4988   -3.2102   -1.8790 H   0  0  0  0  0  0  0  0  0  0  0  0
    2.9236    1.1356   -1.1748 H   0  0  0  0  0  0  0  0  0  0  0  0
    3.2432   -1.1039   -1.1855 H   0  0  0  0  0  0  0  0  0  0  0  0
    4.7988    4.5533    0.0455 H   0  0  0  0  0  0  0  0  0  0  0  0
    4.5031    3.6270    1.5034 H   0  0  0  0  0  0  0  0  0  0  0  0
    2.3452    4.3152    0.5419 H   0  0  0  0  0  0  0  0  0  0  0  0
    2.7676    3.6360   -1.0136 H   0  0  0  0  0  0  0  0  0  0  0  0
    6.1924    2.4562    0.2596 H   0  0  0  0  0  0  0  0  0  0  0  0
    4.6289    1.0062    1.3553 H   0  0  0  0  0  0  0  0  0  0  0  0
    5.0370    0.2749   -0.1894 H   0  0  0  0  0  0  0  0  0  0  0  0
    2.2846    2.1746    1.4642 H   0  0  0  0  0  0  0  0  0  0  0  0
    5.5106    3.3163   -1.8448 H   0  0  0  0  0  0  0  0  0  0  0  0
   -6.8707   -0.6641    1.0263 H   0  0  0  0  0  0  0  0  0  0  0  0
  1 11  1  0
  1 23  3  0
  2 22  1  0
  2 24  2  0
  2 29  1  0
  3  5  2  0
  3 11  1  0
  4  6  1  0
  4 11  2  0
  5 12  1  0
  6 12  2  0
  7  9  2  0
  7 13  1  0
  8 10  1  0
  8 13  2  0
  9 14  1  0
 10 14  2  0
 12 13  1  0
 14 21  1  0
 15 19  1  0
 15 26  1  0
 15 27  2  0
 16 18  1  0
 16 20  1  0
 17 19  1  0
 17 20  1  0
 18 25  1  0
 19 25  1  0
 20 28  1  0
 21 22  1  0
 22 26  1  0
 22 30  1  1
 24 31  1  0
  3 52  1  0
  5 32  1  0
  4 33  1  0
  6 34  1  0
  7 35  1  0
  9 36  1  0
  8 37  1  0
 10 38  1  0
 21 39  1  0
 21 40  1  0
 19 41  1  6
 26 42  1  0
 16 43  1  0
 16 44  1  0
 18 45  1  0
 18 46  1  0
 20 47  1  1
 17 48  1  0
 17 49  1  0
 25 50  1  0
 28 51  1  0
M  END
