
     RDKit          3D

 94100  0  0  0  0  0  0  0  0999 V2000
   -5.5430    6.4321   -0.5613 C   0  0  0  0  0  0  0  0  0  0  0  0
   -6.0852    7.3796    0.4911 C   0  0  0  0  0  0  0  0  0  0  0  0
   -4.8159    4.1918   -0.9820 C   0  0  0  0  0  0  0  0  0  0  0  0
   -3.6178   -1.3416   -0.3898 C   0  0  0  0  0  0  0  0  0  0  0  0
   -4.9467    6.2378    2.1589 C   0  0  0  0  0  0  0  0  0  0  0  0
   -4.3804    5.2617    1.1449 C   0  0  0  0  0  0  0  0  0  0  0  0
   -5.0041   -1.5763   -0.5389 C   0  0  0  0  0  0  0  0  0  0  0  0
   -7.5580   -1.5669   -1.6233 C   0  0  0  0  0  0  0  0  0  0  0  0
   -4.8015    2.7475   -0.5010 C   0  0  0  0  0  0  0  0  0  0  0  0
   -4.4910    1.8028   -1.6554 C   0  0  0  0  0  0  0  0  0  0  0  0
   -5.4944   -0.4188   -1.0918 C   0  0  0  0  0  0  0  0  0  0  0  0
   -6.9039   -0.1958   -1.5001 C   0  0  0  0  0  0  0  0  0  0  0  0
   -5.8778   -2.7468   -0.2304 C   0  0  0  0  0  0  0  0  0  0  0  0
   -2.5515   -2.2228    0.0937 C   0  0  0  0  0  0  0  0  0  0  0  0
   -1.2210   -1.8171    0.0022 C   0  0  0  0  0  0  0  0  0  0  0  0
   -0.1740   -2.6279    0.4378 C   0  0  0  0  0  0  0  0  0  0  0  0
   -0.4810   -3.8797    0.9862 C   0  0  0  0  0  0  0  0  0  0  0  0
   -1.7933   -4.2997    1.0849 C   0  0  0  0  0  0  0  0  0  0  0  0
   -2.8174   -3.4793    0.6390 C   0  0  0  0  0  0  0  0  0  0  0  0
   -8.4383   -4.7460   -1.0714 C   0  0  0  0  0  0  0  0  0  0  0  0
    1.1723   -2.1980    0.3131 C   0  0  0  0  0  0  0  0  0  0  0  0
    2.3270   -1.8611    0.2102 C   0  0  0  0  0  0  0  0  0  0  0  0
    3.7015   -1.5154    0.1048 C   0  0  0  0  0  0  0  0  0  0  0  0
    4.1073   -0.3620   -0.5658 C   0  0  0  0  0  0  0  0  0  0  0  0
    5.4531   -0.0394   -0.6863 C   0  0  0  0  0  0  0  0  0  0  0  0
    6.4168   -0.8742   -0.1200 C   0  0  0  0  0  0  0  0  0  0  0  0
    6.0083   -2.0238    0.5557 C   0  0  0  0  0  0  0  0  0  0  0  0
    4.6721   -2.3503    0.6709 C   0  0  0  0  0  0  0  0  0  0  0  0
    7.8829   -0.5579   -0.2460 C   0  0  0  0  0  0  0  0  0  0  0  0
    8.1146    0.9015   -0.6599 C   0  0  1  0  0  0  0  0  0  0  0  0
    5.8679    1.2253   -1.4038 C   0  0  0  0  0  0  0  0  0  0  0  0
    9.5784    1.0887   -1.0503 C   0  0  0  0  0  0  0  0  0  0  0  0
   11.8959    1.4203   -0.3819 C   0  0  0  0  0  0  0  0  0  0  0  0
   12.3231    2.8329   -0.0031 C   0  0  0  0  0  0  0  0  0  0  0  0
   12.0176    3.1178    1.4641 C   0  0  0  0  0  0  0  0  0  0  0  0
   10.5598    2.8096    1.7899 C   0  0  0  0  0  0  0  0  0  0  0  0
   10.1955    1.3972    1.3491 C   0  0  0  0  0  0  0  0  0  0  0  0
   -4.4517    0.4205   -1.2314 N   0  0  0  0  0  0  0  0  0  0  0  0
   -3.3188   -0.1178   -0.8056 N   0  0  0  0  0  0  0  0  0  0  0  0
   -5.2889    5.1258    0.0197 N   0  0  0  0  0  0  0  0  0  0  0  0
   -7.2750   -2.3416   -0.4126 N   0  0  0  0  0  0  0  0  0  0  0  0
    7.2667    1.2880   -1.7682 N   0  0  0  0  0  0  0  0  0  0  0  0
   10.4889    1.2125   -0.0648 N   0  0  0  0  0  0  0  0  0  0  0  0
   -9.7111   -2.7322    0.0299 O   0  0  0  0  0  0  0  0  0  0  0  0
   -7.9777   -3.9328    1.3845 O   0  0  0  0  0  0  0  0  0  0  0  0
   -5.2027    7.5000    1.5847 O   0  0  0  0  0  0  0  0  0  0  0  0
    9.8887    1.0534   -2.2348 O   0  0  0  0  0  0  0  0  0  0  0  0
   -8.4261   -3.4098    0.1029 S   0  0  1  0  0  0  0  0  0  0  0  0
    0.7877   -4.9110    1.5354 Cl  0  0  0  0  0  0  0  0  0  0  0  0
   -6.2813    6.3343   -1.3614 H   0  0  0  0  0  0  0  0  0  0  0  0
   -4.6325    6.8653   -1.0112 H   0  0  0  0  0  0  0  0  0  0  0  0
   -6.2179    8.3754    0.0652 H   0  0  0  0  0  0  0  0  0  0  0  0
   -7.0689    7.0232    0.8290 H   0  0  0  0  0  0  0  0  0  0  0  0
   -3.8126    4.4656   -1.3531 H   0  0  0  0  0  0  0  0  0  0  0  0
   -5.4912    4.2625   -1.8404 H   0  0  0  0  0  0  0  0  0  0  0  0
   -5.8672    5.8183    2.5900 H   0  0  0  0  0  0  0  0  0  0  0  0
   -4.2340    6.3857    2.9717 H   0  0  0  0  0  0  0  0  0  0  0  0
   -3.3809    5.6012    0.8203 H   0  0  0  0  0  0  0  0  0  0  0  0
   -4.2464    4.2985    1.6413 H   0  0  0  0  0  0  0  0  0  0  0  0
   -8.6321   -1.4505   -1.7415 H   0  0  0  0  0  0  0  0  0  0  0  0
   -7.1761   -2.0826   -2.5110 H   0  0  0  0  0  0  0  0  0  0  0  0
   -4.0550    2.5968    0.2818 H   0  0  0  0  0  0  0  0  0  0  0  0
   -5.7774    2.5004   -0.0743 H   0  0  0  0  0  0  0  0  0  0  0  0
   -5.2415    1.8959   -2.4417 H   0  0  0  0  0  0  0  0  0  0  0  0
   -3.5237    2.0336   -2.1005 H   0  0  0  0  0  0  0  0  0  0  0  0
   -6.9673    0.3204   -2.4602 H   0  0  0  0  0  0  0  0  0  0  0  0
   -7.4403    0.4125   -0.7675 H   0  0  0  0  0  0  0  0  0  0  0  0
   -5.6147   -3.6024   -0.8684 H   0  0  0  0  0  0  0  0  0  0  0  0
   -5.7486   -3.0561    0.8060 H   0  0  0  0  0  0  0  0  0  0  0  0
   -0.9794   -0.8530   -0.4235 H   0  0  0  0  0  0  0  0  0  0  0  0
   -2.0254   -5.2679    1.5065 H   0  0  0  0  0  0  0  0  0  0  0  0
   -3.8281   -3.8467    0.7343 H   0  0  0  0  0  0  0  0  0  0  0  0
   -7.4561   -5.2127   -1.1075 H   0  0  0  0  0  0  0  0  0  0  0  0
   -9.1773   -5.4754   -0.7436 H   0  0  0  0  0  0  0  0  0  0  0  0
   -8.7096   -4.3626   -2.0528 H   0  0  0  0  0  0  0  0  0  0  0  0
    3.3593    0.2884   -1.0050 H   0  0  0  0  0  0  0  0  0  0  0  0
    6.7543   -2.6730    0.9987 H   0  0  0  0  0  0  0  0  0  0  0  0
    4.3710   -3.2483    1.1941 H   0  0  0  0  0  0  0  0  0  0  0  0
    8.3904   -0.7963    0.6918 H   0  0  0  0  0  0  0  0  0  0  0  0
    8.3259   -1.2141   -1.0038 H   0  0  0  0  0  0  0  0  0  0  0  0
    7.8496    1.5583    0.1735 H   0  0  0  0  0  0  0  0  0  0  0  0
    5.2689    1.3505   -2.3076 H   0  0  0  0  0  0  0  0  0  0  0  0
    5.6316    2.0827   -0.7636 H   0  0  0  0  0  0  0  0  0  0  0  0
   12.4842    0.6894    0.1824 H   0  0  0  0  0  0  0  0  0  0  0  0
   13.3905    2.9505   -0.2019 H   0  0  0  0  0  0  0  0  0  0  0  0
   11.7986    3.5497   -0.6421 H   0  0  0  0  0  0  0  0  0  0  0  0
   12.6634    2.4952    2.0919 H   0  0  0  0  0  0  0  0  0  0  0  0
   12.2514    4.1556    1.7087 H   0  0  0  0  0  0  0  0  0  0  0  0
   10.3763    2.9082    2.8619 H   0  0  0  0  0  0  0  0  0  0  0  0
    9.9014    3.5230    1.2845 H   0  0  0  0  0  0  0  0  0  0  0  0
   10.7857    0.6692    1.9146 H   0  0  0  0  0  0  0  0  0  0  0  0
    9.1540    1.1792    1.5652 H   0  0  0  0  0  0  0  0  0  0  0  0
    7.4459    0.6838   -2.5610 H   0  0  0  0  0  0  0  0  0  0  0  0
   12.0607    1.2254   -1.4375 H   0  0  0  0  0  0  0  0  0  0  0  0
 46  5  1  0
 46  2  1  0
  5  6  1  0
  2  1  1  0
  6 40  1  0
  1 40  1  0
 40  3  1  0
 47 32  2  0
  3  9  1  0
 33 43  1  0
 33 34  1  0
 32 43  1  0
 32 30  1  0
 42 31  1  0
 42 30  1  0
  9 10  1  0
 43 37  1  0
 34 35  1  0
 31 25  1  0
 30 29  1  0
 29 26  1  0
 25 26  1  0
 25 24  2  0
 26 27  2  0
 10 38  1  0
 35 36  1  0
 24 23  1  0
 27 28  1  0
 37 36  1  0
 23 28  2  0
 23 22  1  0
 38 11  1  0
 38 39  1  0
 12 11  1  0
 12  8  1  0
 11  7  2  0
 39  4  2  0
  8 41  1  0
 22 21  3  0
 21 16  1  0
 15 16  2  0
 15 14  1  0
  7  4  1  0
  7 13  1  0
  4 14  1  0
 13 41  1  0
 16 17  1  0
 14 19  2  0
 41 48  1  0
 48 20  1  6
 17 18  2  0
 17 49  1  0
 19 18  1  0
 48 45  2  0
 48 44  2  0
  1 50  1  0
  1 51  1  0
  2 52  1  0
  2 53  1  0
  3 54  1  0
  3 55  1  0
  5 56  1  0
  5 57  1  0
  6 58  1  0
  6 59  1  0
  8 60  1  0
  8 61  1  0
  9 62  1  0
  9 63  1  0
 10 64  1  0
 10 65  1  0
 12 66  1  0
 12 67  1  0
 13 68  1  0
 13 69  1  0
 15 70  1  0
 18 71  1  0
 19 72  1  0
 20 73  1  0
 20 74  1  0
 20 75  1  0
 24 76  1  0
 27 77  1  0
 28 78  1  0
 29 79  1  0
 29 80  1  0
 30 81  1  1
 31 82  1  0
 31 83  1  0
 33 94  1  0
 33 84  1  0
 34 85  1  0
 34 86  1  0
 35 87  1  0
 35 88  1  0
 36 89  1  0
 36 90  1  0
 37 91  1  0
 37 92  1  0
 42 93  1  0
M  END
