
     RDKit          3D

 42 44  0  0  0  0  0  0  0  0999 V2000
   32.0629    9.2666   67.2513 C   0  0  0  0  0  0  0  0  0  0  0  0
   31.1399    8.0634   67.1142 C   0  0  0  0  0  0  0  0  0  0  0  0
   30.5031    8.0422   65.7284 C   0  0  2  0  0  0  0  0  0  0  0  0
   29.6768    6.8596   65.5808 N   0  0  0  0  0  0  0  0  0  0  0  0
   28.6408    6.7758   64.7418 C   0  0  0  0  0  0  0  0  0  0  0  0
   28.2293    7.7136   64.0584 O   0  0  0  0  0  0  0  0  0  0  0  0
   27.9766    5.4607   64.6655 C   0  0  0  0  0  0  0  0  0  0  0  0
   28.3563    4.4208   65.3928 N   0  0  0  0  0  0  0  0  0  0  0  0
   27.5504    3.4461   65.0488 N   0  0  0  0  0  0  0  0  0  0  0  0
   26.6397    3.7899   64.1158 C   0  0  0  0  0  0  0  0  0  0  0  0
   26.8880    5.1171   63.8341 C   0  0  0  0  0  0  0  0  0  0  0  0
   26.2643    5.9834   62.9495 N   0  0  0  0  0  0  0  0  0  0  0  0
   25.2564    5.6534   62.1224 C   0  0  0  0  0  0  0  0  0  0  0  0
   24.7356    4.5545   62.0863 O   0  0  0  0  0  0  0  0  0  0  0  0
   24.8065    6.7686   61.2293 C   0  0  0  0  0  0  0  0  0  0  0  0
   25.6239    7.3074   60.2473 C   0  0  0  0  0  0  0  0  0  0  0  0
   26.8736    6.8403   60.1450 F   0  0  0  0  0  0  0  0  0  0  0  0
   25.1979    8.2868   59.3730 C   0  0  0  0  0  0  0  0  0  0  0  0
   23.8956    8.7497   59.4899 C   0  0  0  0  0  0  0  0  0  0  0  0
   23.0377    8.2422   60.4559 C   0  0  0  0  0  0  0  0  0  0  0  0
   23.5102    7.2579   61.2987 C   0  0  0  0  0  0  0  0  0  0  0  0
   22.7031    6.7621   62.2407 F   0  0  0  0  0  0  0  0  0  0  0  0
   31.5828    8.1228   64.6492 C   0  0  0  0  0  0  0  0  0  0  0  0
   33.0737    9.2411   66.2107 N   0  0  0  0  0  0  0  0  0  0  0  0
   32.4800    9.3282   64.8889 C   0  0  0  0  0  0  0  0  0  0  0  0
   31.4524   10.1849   67.2238 H   0  0  0  0  0  0  0  0  0  0  0  0
   32.5541    9.2444   68.2258 H   0  0  0  0  0  0  0  0  0  0  0  0
   31.7184    7.1462   67.2666 H   0  0  0  0  0  0  0  0  0  0  0  0
   30.3667    8.0978   67.8848 H   0  0  0  0  0  0  0  0  0  0  0  0
   33.7162   10.0107   66.3451 H   0  0  0  0  0  0  0  0  0  0  0  0
   29.8527    8.9168   65.6368 H   0  0  0  0  0  0  0  0  0  0  0  0
   29.9698    6.0166   66.0528 H   0  0  0  0  0  0  0  0  0  0  0  0
   32.1836    7.2087   64.6732 H   0  0  0  0  0  0  0  0  0  0  0  0
   31.1227    8.1889   63.6612 H   0  0  0  0  0  0  0  0  0  0  0  0
   27.6475    2.5399   65.4804 H   0  0  0  0  0  0  0  0  0  0  0  0
   25.9169    3.0882   63.7428 H   0  0  0  0  0  0  0  0  0  0  0  0
   26.6263    6.9291   62.9603 H   0  0  0  0  0  0  0  0  0  0  0  0
   25.8679    8.6773   58.6195 H   0  0  0  0  0  0  0  0  0  0  0  0
   23.5426    9.5197   58.8180 H   0  0  0  0  0  0  0  0  0  0  0  0
   22.0235    8.6043   60.5536 H   0  0  0  0  0  0  0  0  0  0  0  0
   33.2755    9.3532   64.1419 H   0  0  0  0  0  0  0  0  0  0  0  0
   31.8859   10.2478   64.7533 H   0  0  0  0  0  0  0  0  0  0  0  0
  1  2  1  0
  1 24  1  0
  2  3  1  0
  3  4  1  0
  3 23  1  0
  4  5  1  0
  5  6  2  0
  5  7  1  0
  7  8  2  0
  7 11  1  0
  8  9  1  0
  9 10  1  0
 10 11  2  0
 11 12  1  0
 12 13  1  0
 13 14  2  0
 13 15  1  0
 15 16  2  0
 15 21  1  0
 16 17  1  0
 16 18  1  0
 18 19  2  0
 19 20  1  0
 20 21  2  0
 21 22  1  0
 23 25  1  0
 24 25  1  0
  1 26  1  0
  1 27  1  0
  2 28  1  0
  2 29  1  0
 24 30  1  0
  3 31  1  1
  4 32  1  0
 23 33  1  0
 23 34  1  0
  9 35  1  0
 10 36  1  0
 12 37  1  0
 18 38  1  0
 19 39  1  0
 20 40  1  0
 25 41  1  0
 25 42  1  0
M  END
