
     RDKit          3D

 28 29  0  0  0  0  0  0  0  0999 V2000
   -1.7411   -0.4955   -0.6836 N   0  0  0  0  0  0  0  0  0  0  0  0
    3.7651   -1.0059    1.3266 C   0  0  0  0  0  0  0  0  0  0  0  0
    2.5221   -1.4237    0.8706 C   0  0  0  0  0  0  0  0  0  0  0  0
    1.9155   -0.7694   -0.1948 C   0  0  0  0  0  0  0  0  0  0  0  0
    0.5640   -1.1927   -0.6879 C   0  0  0  0  0  0  0  0  0  0  0  0
   -0.5618   -0.4464    0.0008 C   0  0  0  0  0  0  0  0  0  0  0  0
   -3.2704    0.7525    0.9127 C   0  0  0  0  0  0  0  0  0  0  0  0
    3.8185    0.7355   -0.3473 C   0  0  0  0  0  0  0  0  0  0  0  0
    4.4074    0.0658    0.7242 C   0  0  0  0  0  0  0  0  0  0  0  0
   -2.9412    0.0417   -0.2746 C   0  0  0  0  0  0  0  0  0  0  0  0
   -4.5842    1.0131    0.7422 C   0  0  0  0  0  0  0  0  0  0  0  0
   -5.0120    0.5204   -0.4155 O   0  0  0  0  0  0  0  0  0  0  0  0
   -3.9781   -0.0917   -1.0574 N   0  0  0  0  0  0  0  0  0  0  0  0
   -0.4375    0.1166    1.0666 O   0  0  0  0  0  0  0  0  0  0  0  0
    2.5715    0.3040   -0.7903 C   0  0  0  0  0  0  0  0  0  0  0  0
   -1.7536   -0.9689   -1.5757 H   0  0  0  0  0  0  0  0  0  0  0  0
    4.2358   -1.5188    2.1557 H   0  0  0  0  0  0  0  0  0  0  0  0
    2.0250   -2.2621    1.3436 H   0  0  0  0  0  0  0  0  0  0  0  0
    0.4858   -1.0625   -1.7697 H   0  0  0  0  0  0  0  0  0  0  0  0
    0.4036   -2.2589   -0.4983 H   0  0  0  0  0  0  0  0  0  0  0  0
   -2.6441    1.0229    1.7412 H   0  0  0  0  0  0  0  0  0  0  0  0
    5.2744    1.5033   -1.7280 H   0  0  0  0  0  0  0  0  0  0  0  0
    3.8345    2.5012   -1.5835 H   0  0  0  0  0  0  0  0  0  0  0  0
    5.0491    2.5036   -0.3041 H   0  0  0  0  0  0  0  0  0  0  0  0
    5.3781    0.3833    1.0869 H   0  0  0  0  0  0  0  0  0  0  0  0
   -5.3098    1.5268    1.3534 H   0  0  0  0  0  0  0  0  0  0  0  0
    2.0996    0.8180   -1.6216 H   0  0  0  0  0  0  0  0  0  0  0  0
    4.5266    1.8735   -1.0237 C   0  0  0  0  0  0  0  0  0  0  0  0
 14  6  2  0
  7 11  2  0
  7 10  1  0
 11 12  1  0
  6  5  1  0
  6  1  1  0
  5  4  1  0
 10  1  1  0
 10 13  2  0
 12 13  1  0
  3  4  1  0
  3  2  2  0
  4 15  2  0
  2  9  1  0
 15  8  1  0
  9  8  2  0
  8 28  1  0
  1 16  1  0
  2 17  1  0
  3 18  1  0
  5 19  1  0
  5 20  1  0
  7 21  1  0
 28 22  1  0
 28 23  1  0
 28 24  1  0
  9 25  1  0
 11 26  1  0
 15 27  1  0
M  END
