
     RDKit          3D

 39 41  0  0  0  0  0  0  0  0999 V2000
    4.3076   -1.4631   -1.2706 C   0  0  0  0  0  0  0  0  0  0  0  0
    3.3125   -1.4997   -0.2189 N   0  0  0  0  0  0  0  0  0  0  0  0
    3.5361   -2.6233    0.6668 C   0  0  0  0  0  0  0  0  0  0  0  0
    3.2385   -0.2664    0.5331 C   0  0  0  0  0  0  0  0  0  0  0  0
    2.8537    0.9501   -0.3038 C   0  0  1  0  0  0  0  0  0  0  0  0
    1.7133    0.7068   -1.1311 O   0  0  0  0  0  0  0  0  0  0  0  0
    0.5509    1.1800   -0.5299 C   0  0  1  0  0  0  0  0  0  0  0  0
   -0.3827    0.0761   -0.3810 N   0  0  0  0  0  0  0  0  0  0  0  0
   -1.7398    0.1736   -0.2915 C   0  0  0  0  0  0  0  0  0  0  0  0
   -2.4992    1.2656   -0.3658 N   0  0  0  0  0  0  0  0  0  0  0  0
   -3.7826    0.9759   -0.2497 C   0  0  0  0  0  0  0  0  0  0  0  0
   -4.3516   -0.2148   -0.0737 N   0  0  0  0  0  0  0  0  0  0  0  0
   -3.5762   -1.3022   -0.0038 C   0  0  0  0  0  0  0  0  0  0  0  0
   -4.1428   -2.4978    0.1693 N   0  0  0  0  0  0  0  0  0  0  0  0
   -2.1844   -1.1288   -0.1162 C   0  0  0  0  0  0  0  0  0  0  0  0
   -1.1319   -2.0056   -0.1038 N   0  0  0  0  0  0  0  0  0  0  0  0
   -0.0800   -1.2537   -0.2627 C   0  0  0  0  0  0  0  0  0  0  0  0
    0.9626    1.8088    0.8121 C   0  0  2  0  0  0  0  0  0  0  0  0
    0.1759    2.9339    1.0752 O   0  0  0  0  0  0  0  0  0  0  0  0
    2.4463    2.1222    0.5743 C   0  0  2  0  0  0  0  0  0  0  0  0
    2.5938    3.3118   -0.1538 O   0  0  0  0  0  0  0  0  0  0  0  0
    5.3216   -1.2528   -0.8973 H   0  0  0  0  0  0  0  0  0  0  0  0
    4.3337   -2.4263   -1.7807 H   0  0  0  0  0  0  0  0  0  0  0  0
    4.0634   -0.7101   -2.0194 H   0  0  0  0  0  0  0  0  0  0  0  0
    4.4977   -2.5731    1.2006 H   0  0  0  0  0  0  0  0  0  0  0  0
    2.7430   -2.6783    1.4145 H   0  0  0  0  0  0  0  0  0  0  0  0
    3.5221   -3.5531    0.0969 H   0  0  0  0  0  0  0  0  0  0  0  0
    2.5075   -0.4116    1.3349 H   0  0  0  0  0  0  0  0  0  0  0  0
    4.1939   -0.0225    1.0303 H   0  0  0  0  0  0  0  0  0  0  0  0
    3.6785    1.2250   -0.9656 H   0  0  0  0  0  0  0  0  0  0  0  0
    0.0562    1.9246   -1.1621 H   0  0  0  0  0  0  0  0  0  0  0  0
   -4.4688    1.8145   -0.3038 H   0  0  0  0  0  0  0  0  0  0  0  0
   -5.1434   -2.5825    0.2156 H   0  0  0  0  0  0  0  0  0  0  0  0
   -3.5903   -3.3361    0.2043 H   0  0  0  0  0  0  0  0  0  0  0  0
    0.9416   -1.6072   -0.3335 H   0  0  0  0  0  0  0  0  0  0  0  0
    0.8674    1.0654    1.6111 H   0  0  0  0  0  0  0  0  0  0  0  0
    0.2070    3.1195    2.0191 H   0  0  0  0  0  0  0  0  0  0  0  0
    3.0143    2.1455    1.5137 H   0  0  0  0  0  0  0  0  0  0  0  0
    1.9660    3.9537    0.1998 H   0  0  0  0  0  0  0  0  0  0  0  0
  3  2  1  0
  1  2  1  0
  2  4  1  0
  4  5  1  0
  5  6  1  0
  5 20  1  0
  6  7  1  0
 20 21  1  0
 20 18  1  0
  7  8  1  0
  7 18  1  0
 10 11  2  0
 10  9  1  0
 11 12  1  0
  8  9  1  0
  8 17  1  0
  9 15  2  0
 12 13  2  0
 18 19  1  0
 17 16  2  0
 15 13  1  0
 15 16  1  0
 13 14  1  0
  1 22  1  0
  1 23  1  0
  1 24  1  0
  3 25  1  0
  3 26  1  0
  3 27  1  0
  4 28  1  0
  4 29  1  0
  5 30  1  6
  7 31  1  6
 11 32  1  0
 14 33  1  0
 14 34  1  0
 17 35  1  0
 18 36  1  1
 19 37  1  0
 20 38  1  1
 21 39  1  0
M  END
