
     RDKit          3D

 75 78  0  0  0  0  0  0  0  0999 V2000
    1.2384   -0.1436    1.3961 N   0  0  0  0  0  0  0  0  0  0  0  0
    5.8709    1.4412    0.1247 C   0  0  0  0  0  0  0  0  0  0  0  0
   -0.3181   -0.8043    3.0007 N   0  0  0  0  0  0  0  0  0  0  0  0
    4.6804    1.3671   -0.5925 C   0  0  0  0  0  0  0  0  0  0  0  0
   -2.2817   -0.9428    0.8639 C   0  0  0  0  0  0  0  0  0  0  0  0
   -0.0578   -0.5034    1.7949 C   0  0  0  0  0  0  0  0  0  0  0  0
    2.2022    0.4641    2.1476 C   0  0  0  0  0  0  0  0  0  0  0  0
    3.4567    0.7867    1.4025 C   0  0  0  0  0  0  0  0  0  0  0  0
    3.4876    1.0398    0.0326 C   0  0  0  0  0  0  0  0  0  0  0  0
   -2.9593   -1.0989   -0.4687 C   0  0  0  0  0  0  0  0  0  0  0  0
   -4.0364    2.2243   -0.4773 C   0  0  0  0  0  0  0  0  0  0  0  0
   -5.3392    1.9357   -0.1092 C   0  0  0  0  0  0  0  0  0  0  0  0
   -6.2592    2.9757    0.0362 C   0  0  0  0  0  0  0  0  0  0  0  0
   -8.4936    3.6079    0.5209 C   0  0  0  0  0  0  0  0  0  0  0  0
   -5.8615    4.2943   -0.1777 C   0  0  0  0  0  0  0  0  0  0  0  0
   -4.5433    4.5523   -0.5341 C   0  0  0  0  0  0  0  0  0  0  0  0
   -4.4034   -1.2952   -2.8481 C   0  0  0  0  0  0  0  0  0  0  0  0
   -3.1971   -2.3647   -1.0431 C   0  0  0  0  0  0  0  0  0  0  0  0
   -1.2717   -3.6935   -0.4275 C   0  0  0  0  0  0  0  0  0  0  0  0
   -0.8310   -4.6918    0.6300 C   0  0  0  0  0  0  0  0  0  0  0  0
    4.6424    0.8823    2.1282 C   0  0  0  0  0  0  0  0  0  0  0  0
   -3.0610   -5.7965    0.3959 C   0  0  0  0  0  0  0  0  0  0  0  0
   -1.5547   -6.0198    0.4468 C   0  0  0  0  0  0  0  0  0  0  0  0
   -3.6205    3.5331   -0.6941 C   0  0  0  0  0  0  0  0  0  0  0  0
    8.9880    0.9404   -2.0534 C   0  0  0  0  0  0  0  0  0  0  0  0
    8.5859    1.5429   -3.1660 O   0  0  0  0  0  0  0  0  0  0  0  0
    7.8147    0.5152   -1.1782 C   0  0  1  0  0  0  0  0  0  0  0  0
    8.1706   -0.4094   -0.1347 N   0  0  0  0  0  0  0  0  0  0  0  0
    5.8335    1.1909    1.4939 C   0  0  0  0  0  0  0  0  0  0  0  0
    2.0830    0.7327    3.3248 O   0  0  0  0  0  0  0  0  0  0  0  0
   -0.8946   -0.5460    0.7127 N   0  0  0  0  0  0  0  0  0  0  0  0
   -2.7228   -3.5133   -0.3957 N   0  0  0  0  0  0  0  0  0  0  0  0
   -3.4285   -4.7574   -0.6541 C   0  0  0  0  0  0  0  0  0  0  0  0
   -3.9351   -2.4424   -2.2257 C   0  0  0  0  0  0  0  0  0  0  0  0
   -4.1380   -0.0440   -2.3216 C   0  0  0  0  0  0  0  0  0  0  0  0
   -3.4188    0.0327   -1.1359 C   0  0  0  0  0  0  0  0  0  0  0  0
   -3.0906    1.2448   -0.5900 O   0  0  0  0  0  0  0  0  0  0  0  0
   -7.5030    2.6071    0.3909 O   0  0  0  0  0  0  0  0  0  0  0  0
    1.4751   -0.3806    0.4450 H   0  0  0  0  0  0  0  0  0  0  0  0
   -1.3084   -0.9719    3.1350 H   0  0  0  0  0  0  0  0  0  0  0  0
    4.6790    1.5777   -1.6554 H   0  0  0  0  0  0  0  0  0  0  0  0
   -2.8360   -0.2235    1.4777 H   0  0  0  0  0  0  0  0  0  0  0  0
   -2.3166   -1.9004    1.3867 H   0  0  0  0  0  0  0  0  0  0  0  0
    2.5840    1.0249   -0.5645 H   0  0  0  0  0  0  0  0  0  0  0  0
   -5.6578    0.9158    0.0703 H   0  0  0  0  0  0  0  0  0  0  0  0
   -9.4139    3.0972    0.7928 H   0  0  0  0  0  0  0  0  0  0  0  0
   -8.2474    4.3295    1.3044 H   0  0  0  0  0  0  0  0  0  0  0  0
   -8.6535    4.1459   -0.4168 H   0  0  0  0  0  0  0  0  0  0  0  0
   -6.5516    5.1194   -0.0731 H   0  0  0  0  0  0  0  0  0  0  0  0
   -4.2360    5.5765   -0.6995 H   0  0  0  0  0  0  0  0  0  0  0  0
   -4.9627   -1.3788   -3.7708 H   0  0  0  0  0  0  0  0  0  0  0  0
   -0.7817   -2.7344   -0.2678 H   0  0  0  0  0  0  0  0  0  0  0  0
   -0.9584   -4.0507   -1.4221 H   0  0  0  0  0  0  0  0  0  0  0  0
    0.2509   -4.8273    0.5662 H   0  0  0  0  0  0  0  0  0  0  0  0
   -1.0480   -4.2822    1.6217 H   0  0  0  0  0  0  0  0  0  0  0  0
    4.6370    0.7046    3.1955 H   0  0  0  0  0  0  0  0  0  0  0  0
   -3.5829   -6.7287    0.1687 H   0  0  0  0  0  0  0  0  0  0  0  0
   -3.4187   -5.4563    1.3720 H   0  0  0  0  0  0  0  0  0  0  0  0
   -1.2252   -6.4822   -0.4900 H   0  0  0  0  0  0  0  0  0  0  0  0
   -1.2967   -6.7165    1.2472 H   0  0  0  0  0  0  0  0  0  0  0  0
   -2.5982    3.7431   -0.9790 H   0  0  0  0  0  0  0  0  0  0  0  0
    9.3507    1.8235   -3.6909 H   0  0  0  0  0  0  0  0  0  0  0  0
    7.0834    0.0306   -1.8338 H   0  0  0  0  0  0  0  0  0  0  0  0
    8.5454   -1.2624   -0.5291 H   0  0  0  0  0  0  0  0  0  0  0  0
    8.8991   -0.0189    0.4502 H   0  0  0  0  0  0  0  0  0  0  0  0
    6.9576    2.4960   -1.3698 H   0  0  0  0  0  0  0  0  0  0  0  0
    7.8555    2.2432    0.1148 H   0  0  0  0  0  0  0  0  0  0  0  0
    6.7441    1.2483    2.0764 H   0  0  0  0  0  0  0  0  0  0  0  0
   -0.7059    0.1222   -0.0195 H   0  0  0  0  0  0  0  0  0  0  0  0
   -3.1982   -5.1588   -1.6550 H   0  0  0  0  0  0  0  0  0  0  0  0
   -4.5027   -4.5671   -0.6246 H   0  0  0  0  0  0  0  0  0  0  0  0
   -4.1311   -3.4036   -2.6804 H   0  0  0  0  0  0  0  0  0  0  0  0
   -4.4808    0.8521   -2.8223 H   0  0  0  0  0  0  0  0  0  0  0  0
    7.1538    1.7712   -0.5783 C   0  0  0  0  0  0  0  0  0  0  0  0
   10.1471    0.7627   -1.7757 O   0  0  0  0  0  0  0  0  0  0  0  0
 75 25  2  0
 25 26  1  0
 25 27  1  0
 28 27  1  0
 27 74  1  0
  4  9  1  0
  4  2  2  0
 74  2  1  0
  9  8  2  0
  2 29  1  0
 29 21  2  0
  8 21  1  0
  8  7  1  0
  3  6  2  0
  1  6  1  0
  1  7  1  0
  6 31  1  0
  7 30  2  0
 22 23  1  0
 22 33  1  0
 23 20  1  0
 31  5  1  0
 20 19  1  0
 33 32  1  0
  5 10  1  0
 32 19  1  0
 32 18  1  0
 10 18  2  0
 10 36  1  0
 18 34  1  0
 37 36  1  0
 37 11  1  0
 36 35  2  0
 34 17  2  0
 11 24  1  0
 11 12  2  0
 24 16  2  0
 12 13  1  0
 35 17  1  0
 16 15  1  0
 13 15  2  0
 13 38  1  0
 14 38  1  0
  1 39  1  0
  3 40  1  0
  4 41  1  0
  5 42  1  0
  5 43  1  0
  9 44  1  0
 12 45  1  0
 14 46  1  0
 14 47  1  0
 14 48  1  0
 15 49  1  0
 16 50  1  0
 17 51  1  0
 19 52  1  0
 19 53  1  0
 20 54  1  0
 20 55  1  0
 21 56  1  0
 22 57  1  0
 22 58  1  0
 23 59  1  0
 23 60  1  0
 24 61  1  0
 26 62  1  0
 27 63  1  6
 28 64  1  0
 28 65  1  0
 74 66  1  0
 74 67  1  0
 29 68  1  0
 31 69  1  0
 33 70  1  0
 33 71  1  0
 34 72  1  0
 35 73  1  0
M  END
