
     RDKit          3D

 34 34  0  0  0  0  0  0  0  0999 V2000
   -2.7025   -1.2796    0.0393 C   0  0  0  0  0  0  0  0  0  0  0  0
   -4.0545   -0.7951   -0.4737 C   0  0  0  0  0  0  0  0  0  0  0  0
   -4.4560    0.5244    0.1773 C   0  0  0  0  0  0  0  0  0  0  0  0
   -3.3704    1.5798   -0.0043 C   0  0  0  0  0  0  0  0  0  0  0  0
   -2.0189    1.0846    0.5019 C   0  0  0  0  0  0  0  0  0  0  0  0
   -1.6056   -0.2332   -0.1572 C   0  0  1  0  0  0  0  0  0  0  0  0
   -0.2531   -0.7408    0.3421 C   0  0  0  0  0  0  0  0  0  0  0  0
    0.9380    0.0648   -0.1636 C   0  0  0  0  0  0  0  0  0  0  0  0
    2.2767   -0.4704    0.3281 C   0  0  0  0  0  0  0  0  0  0  0  0
    3.4665    0.2645   -0.2764 C   0  0  0  0  0  0  0  0  0  0  0  0
    4.7891   -0.2819    0.2223 C   0  0  0  0  0  0  0  0  0  0  0  0
    5.8467    0.4296   -0.3864 O   0  0  0  0  0  0  0  0  0  0  0  0
    6.6768    0.0663   -0.0655 H   0  0  0  0  0  0  0  0  0  0  0  0
   -2.7810   -1.5201    1.1066 H   0  0  0  0  0  0  0  0  0  0  0  0
   -2.4186   -2.2078   -0.4654 H   0  0  0  0  0  0  0  0  0  0  0  0
   -3.9980   -0.6584   -1.5593 H   0  0  0  0  0  0  0  0  0  0  0  0
   -4.8206   -1.5547   -0.2985 H   0  0  0  0  0  0  0  0  0  0  0  0
   -5.4040    0.8792   -0.2350 H   0  0  0  0  0  0  0  0  0  0  0  0
   -4.6257    0.3615    1.2475 H   0  0  0  0  0  0  0  0  0  0  0  0
   -3.2885    1.8351   -1.0666 H   0  0  0  0  0  0  0  0  0  0  0  0
   -3.6493    2.5020    0.5122 H   0  0  0  0  0  0  0  0  0  0  0  0
   -1.2566    1.8515    0.3391 H   0  0  0  0  0  0  0  0  0  0  0  0
   -2.0747    0.9318    1.5869 H   0  0  0  0  0  0  0  0  0  0  0  0
   -1.5138   -0.0540   -1.2383 H   0  0  0  0  0  0  0  0  0  0  0  0
   -0.2518   -0.7580    1.4385 H   0  0  0  0  0  0  0  0  0  0  0  0
   -0.1246   -1.7822    0.0252 H   0  0  0  0  0  0  0  0  0  0  0  0
    0.9280    0.0568   -1.2594 H   0  0  0  0  0  0  0  0  0  0  0  0
    0.8391    1.1144    0.1302 H   0  0  0  0  0  0  0  0  0  0  0  0
    2.3176   -0.4029    1.4207 H   0  0  0  0  0  0  0  0  0  0  0  0
    2.3500   -1.5371    0.0887 H   0  0  0  0  0  0  0  0  0  0  0  0
    3.4272    0.1806   -1.3673 H   0  0  0  0  0  0  0  0  0  0  0  0
    3.3992    1.3314   -0.0403 H   0  0  0  0  0  0  0  0  0  0  0  0
    4.8269   -0.1950    1.3167 H   0  0  0  0  0  0  0  0  0  0  0  0
    4.8453   -1.3546   -0.0086 H   0  0  0  0  0  0  0  0  0  0  0  0
  1  2  1  0
  1  6  1  0
  1 14  1  0
  1 15  1  0
  2  3  1  0
  2 16  1  0
  2 17  1  0
  3  4  1  0
  3 18  1  0
  3 19  1  0
  4  5  1  0
  4 20  1  0
  4 21  1  0
  5  6  1  0
  5 22  1  0
  5 23  1  0
  6  7  1  0
  6 24  1  6
  7  8  1  0
  7 25  1  0
  7 26  1  0
  8  9  1  0
  8 27  1  0
  8 28  1  0
  9 10  1  0
  9 29  1  0
  9 30  1  0
 10 11  1  0
 10 31  1  0
 10 32  1  0
 11 12  1  0
 11 33  1  0
 11 34  1  0
 13 12  1  0
M  END
