
     RDKit          3D

 29 30  0  0  0  0  0  0  0  0999 V2000
    1.3227    1.4559    0.5844 C   0  0  0  0  0  0  0  0  0  0  0  0
   -0.0869    1.7009    0.0774 C   0  0  0  0  0  0  0  0  0  0  0  0
   -0.8973    0.4355    0.0459 C   0  0  0  0  0  0  0  0  0  0  0  0
   -2.2968    0.4946   -0.0982 C   0  0  0  0  0  0  0  0  0  0  0  0
   -2.9348    1.7200   -0.1861 N   0  0  0  0  0  0  0  0  0  0  0  0
   -3.0362   -0.6892   -0.0892 C   0  0  0  0  0  0  0  0  0  0  0  0
   -2.3986   -1.9131    0.0477 C   0  0  0  0  0  0  0  0  0  0  0  0
   -1.0205   -1.9762    0.1640 C   0  0  0  0  0  0  0  0  0  0  0  0
   -0.2706   -0.8005    0.1595 C   0  0  0  0  0  0  0  0  0  0  0  0
    1.2264   -0.8951    0.3037 C   0  0  0  0  0  0  0  0  0  0  0  0
    1.9102    0.3168   -0.0934 N   0  0  0  0  0  0  0  0  0  0  0  0
    3.3418    0.2356    0.1406 C   0  0  0  0  0  0  0  0  0  0  0  0
    4.0400   -0.8110   -0.7123 C   0  0  0  0  0  0  0  0  0  0  0  0
    1.9356    2.3385    0.3917 H   0  0  0  0  0  0  0  0  0  0  0  0
    1.3069    1.3135    1.6791 H   0  0  0  0  0  0  0  0  0  0  0  0
   -0.5713    2.4451    0.7166 H   0  0  0  0  0  0  0  0  0  0  0  0
   -0.0370    2.1437   -0.9243 H   0  0  0  0  0  0  0  0  0  0  0  0
   -2.4236    2.4480   -0.6596 H   0  0  0  0  0  0  0  0  0  0  0  0
   -3.8834    1.6746   -0.5238 H   0  0  0  0  0  0  0  0  0  0  0  0
   -4.1144   -0.6463   -0.1932 H   0  0  0  0  0  0  0  0  0  0  0  0
   -2.9867   -2.8222    0.0488 H   0  0  0  0  0  0  0  0  0  0  0  0
   -0.5216   -2.9339    0.2555 H   0  0  0  0  0  0  0  0  0  0  0  0
    1.4625   -1.1626    1.3511 H   0  0  0  0  0  0  0  0  0  0  0  0
    1.5785   -1.7310   -0.3052 H   0  0  0  0  0  0  0  0  0  0  0  0
    3.7662    1.2148   -0.0944 H   0  0  0  0  0  0  0  0  0  0  0  0
    3.5658    0.0467    1.2047 H   0  0  0  0  0  0  0  0  0  0  0  0
    3.8044   -0.6731   -1.7683 H   0  0  0  0  0  0  0  0  0  0  0  0
    5.1201   -0.7207   -0.5942 H   0  0  0  0  0  0  0  0  0  0  0  0
    3.7713   -1.8299   -0.4344 H   0  0  0  0  0  0  0  0  0  0  0  0
  6  7  2  0
  6  4  1  0
  7  8  1  0
  5  4  1  0
  4  3  2  0
  8  9  2  0
  3  9  1  0
  3  2  1  0
  9 10  1  0
  2  1  1  0
 10 11  1  0
  1 11  1  0
 11 12  1  0
 12 13  1  0
  1 14  1  0
  1 15  1  0
  2 16  1  0
  2 17  1  0
  5 18  1  0
  5 19  1  0
  6 20  1  0
  7 21  1  0
  8 22  1  0
 10 23  1  0
 10 24  1  0
 12 25  1  0
 12 26  1  0
 13 27  1  0
 13 28  1  0
 13 29  1  0
M  END
