
     RDKit          3D

 51 51  0  0  0  0  0  0  0  0999 V2000
   -7.3705   -1.8456   -1.2989 C   0  0  0  0  0  0  0  0  0  0  0  0
   -8.6577   -2.2806   -1.5547 C   0  0  0  0  0  0  0  0  0  0  0  0
   -9.7086   -1.9391   -0.7080 C   0  0  0  0  0  0  0  0  0  0  0  0
   -9.4384   -1.1435    0.3954 C   0  0  0  0  0  0  0  0  0  0  0  0
   -8.1515   -0.6930    0.6618 C   0  0  0  0  0  0  0  0  0  0  0  0
   -7.0872   -1.0472   -0.1780 C   0  0  0  0  0  0  0  0  0  0  0  0
   -5.7883   -0.6697    0.0703 N   0  0  0  0  0  0  0  0  0  0  0  0
   -5.4596    0.3646    1.0268 C   0  0  0  0  0  0  0  0  0  0  0  0
   -3.9674    0.4744    1.1936 C   0  0  0  0  0  0  0  0  0  0  0  0
   -3.3564    1.6245    0.9026 C   0  0  0  0  0  0  0  0  0  0  0  0
   -1.8998    1.9479    1.0034 C   0  0  0  0  0  0  0  0  0  0  0  0
   -1.3130    2.2672   -0.3805 C   0  0  0  0  0  0  0  0  0  0  0  0
    0.1466    2.6340   -0.3424 C   0  0  0  0  0  0  0  0  0  0  0  0
    1.0399    1.8406   -0.9403 C   0  0  0  0  0  0  0  0  0  0  0  0
    2.5078    2.0576   -1.0365 C   0  0  0  0  0  0  0  0  0  0  0  0
    3.1590    0.9463   -0.3654 O   0  0  0  0  0  0  0  0  0  0  0  0
    4.7182    0.7212   -0.5391 P   0  0  1  0  0  0  0  0  0  0  0  0
    5.4762    1.7763    0.3733 O   0  0  0  0  0  0  0  0  0  0  0  0
    4.7978   -0.6887    0.2541 O   0  0  0  0  0  0  0  0  0  0  0  0
    5.2691    0.7080   -1.9021 O   0  0  0  0  0  0  0  0  0  0  0  0
    5.9941   -1.7753    0.1139 P   0  0  1  0  0  0  0  0  0  0  0  0
    5.6521   -2.6354   -1.1742 O   0  0  0  0  0  0  0  0  0  0  0  0
    7.3442   -1.2010    0.0276 O   0  0  0  0  0  0  0  0  0  0  0  0
    5.6059   -2.6184    1.4020 O   0  0  0  0  0  0  0  0  0  0  0  0
    0.4710    3.9075    0.3782 C   0  0  0  0  0  0  0  0  0  0  0  0
   -3.2897   -0.7648    1.6990 C   0  0  0  0  0  0  0  0  0  0  0  0
   -6.5647   -2.1258   -1.9682 H   0  0  0  0  0  0  0  0  0  0  0  0
   -8.8420   -2.8950   -2.4273 H   0  0  0  0  0  0  0  0  0  0  0  0
  -10.7144   -2.2825   -0.9096 H   0  0  0  0  0  0  0  0  0  0  0  0
  -10.2404   -0.8563    1.0644 H   0  0  0  0  0  0  0  0  0  0  0  0
   -7.9861   -0.0617    1.5246 H   0  0  0  0  0  0  0  0  0  0  0  0
   -5.1881   -0.6858   -0.7401 H   0  0  0  0  0  0  0  0  0  0  0  0
   -5.8832    1.3382    0.7458 H   0  0  0  0  0  0  0  0  0  0  0  0
   -5.8992    0.0965    1.9931 H   0  0  0  0  0  0  0  0  0  0  0  0
   -3.9731    2.4400    0.5299 H   0  0  0  0  0  0  0  0  0  0  0  0
   -1.7822    2.8153    1.6594 H   0  0  0  0  0  0  0  0  0  0  0  0
   -1.3315    1.1342    1.4571 H   0  0  0  0  0  0  0  0  0  0  0  0
   -1.4600    1.4040   -1.0334 H   0  0  0  0  0  0  0  0  0  0  0  0
   -1.8809    3.0946   -0.8203 H   0  0  0  0  0  0  0  0  0  0  0  0
    0.6802    0.9459   -1.4408 H   0  0  0  0  0  0  0  0  0  0  0  0
    2.8200    2.0712   -2.0838 H   0  0  0  0  0  0  0  0  0  0  0  0
    2.8297    2.9910   -0.5755 H   0  0  0  0  0  0  0  0  0  0  0  0
    5.1796    1.8459    1.2916 H   0  0  0  0  0  0  0  0  0  0  0  0
    4.8050   -3.1028   -1.1679 H   0  0  0  0  0  0  0  0  0  0  0  0
    6.2250   -3.3318    1.6116 H   0  0  0  0  0  0  0  0  0  0  0  0
    0.1923    3.8388    1.4313 H   0  0  0  0  0  0  0  0  0  0  0  0
    1.5223    4.1816    0.3376 H   0  0  0  0  0  0  0  0  0  0  0  0
   -0.1034    4.7357   -0.0426 H   0  0  0  0  0  0  0  0  0  0  0  0
   -3.3323   -1.5673    0.9600 H   0  0  0  0  0  0  0  0  0  0  0  0
   -2.2438   -0.6060    1.9515 H   0  0  0  0  0  0  0  0  0  0  0  0
   -3.7962   -1.1370    2.5923 H   0  0  0  0  0  0  0  0  0  0  0  0
 20 17  2  0
 17 18  1  1
 17 16  1  0
 17 19  1  0
 23 21  2  0
 16 15  1  0
 21 22  1  6
 19 21  1  0
 21 24  1  0
 15 14  1  0
 25 13  1  0
  2  1  2  0
  2  3  1  0
 14 13  2  0
  1  6  1  0
  3  4  2  0
 13 12  1  0
  6  7  1  0
  6  5  2  0
  4  5  1  0
 12 11  1  0
  7  8  1  0
 11 10  1  0
 10  9  2  0
  8  9  1  0
  9 26  1  0
  1 27  1  0
  2 28  1  0
  3 29  1  0
  4 30  1  0
  5 31  1  0
  7 32  1  0
  8 33  1  0
  8 34  1  0
 10 35  1  0
 11 36  1  0
 11 37  1  0
 12 38  1  0
 12 39  1  0
 14 40  1  0
 15 41  1  0
 15 42  1  0
 18 43  1  0
 22 44  1  0
 24 45  1  0
 25 46  1  0
 25 47  1  0
 25 48  1  0
 26 49  1  0
 26 50  1  0
 26 51  1  0
M  END
