
     RDKit          3D

 86 89  0  0  0  0  0  0  0  0999 V2000
   -9.2200    1.7271   -0.7881 C   0  0  0  0  0  0  0  0  0  0  0  0
  -10.5078    2.1088   -1.1302 C   0  0  0  0  0  0  0  0  0  0  0  0
   -5.3912    0.2886   -0.5322 C   0  0  0  0  0  0  0  0  0  0  0  0
   -6.4551    0.8728   -1.0088 N   0  0  0  0  0  0  0  0  0  0  0  0
   -7.0802   -1.0416   -0.0016 C   0  0  0  0  0  0  0  0  0  0  0  0
   -5.6944   -0.9279    0.1214 C   0  0  0  0  0  0  0  0  0  0  0  0
   -3.5380   -1.5477    0.9288 N   0  0  0  0  0  0  0  0  0  0  0  0
   -4.8446   -1.8682    0.8401 C   0  0  0  0  0  0  0  0  0  0  0  0
   -2.5840   -2.3368    1.6786 C   0  0  0  0  0  0  0  0  0  0  0  0
   -1.1904   -2.0638    1.1835 C   0  0  0  0  0  0  0  0  0  0  0  0
   -0.8122   -2.4527   -0.1008 C   0  0  0  0  0  0  0  0  0  0  0  0
    3.4218   -0.2208    0.1658 N   0  0  0  0  0  0  0  0  0  0  0  0
    0.4630   -2.1956   -0.5692 C   0  0  0  0  0  0  0  0  0  0  0  0
    1.3874   -1.5213    0.2285 C   0  0  0  0  0  0  0  0  0  0  0  0
    1.0151   -1.1399    1.5136 C   0  0  0  0  0  0  0  0  0  0  0  0
    6.7157   -1.2406   -0.7228 N   0  0  0  0  0  0  0  0  0  0  0  0
   -5.2988   -2.8992    1.3388 O   0  0  0  0  0  0  0  0  0  0  0  0
   -7.9155   -2.0201    0.4178 N   0  0  0  0  0  0  0  0  0  0  0  0
   -7.4866    0.0483   -0.6918 N   0  0  0  0  0  0  0  0  0  0  0  0
   -8.8047    0.4223   -1.0301 C   0  0  0  0  0  0  0  0  0  0  0  0
   -9.6693   -0.4962   -1.6144 C   0  0  0  0  0  0  0  0  0  0  0  0
  -10.9625   -0.1073   -1.9366 C   0  0  0  0  0  0  0  0  0  0  0  0
  -11.3847    1.1929   -1.6985 C   0  0  0  0  0  0  0  0  0  0  0  0
   -0.2626   -1.4107    1.9841 C   0  0  0  0  0  0  0  0  0  0  0  0
    2.7485   -1.2688   -0.3328 C   0  0  0  0  0  0  0  0  0  0  0  0
    3.2102   -1.9720   -1.2221 O   0  0  0  0  0  0  0  0  0  0  0  0
    4.7605    0.0881   -0.2652 C   0  0  2  0  0  0  0  0  0  0  0  0
    5.7245   -1.0260    0.1514 C   0  0  0  0  0  0  0  0  0  0  0  0
    5.6041   -1.6000    1.2221 O   0  0  0  0  0  0  0  0  0  0  0  0
    7.8086   -2.1813   -0.5533 C   0  0  1  0  0  0  0  0  0  0  0  0
    7.6452   -3.3708   -1.5002 C   0  0  0  0  0  0  0  0  0  0  0  0
    6.3751   -4.1726   -1.2596 C   0  0  0  0  0  0  0  0  0  0  0  0
    9.1469   -1.4732   -0.7590 C   0  0  0  0  0  0  0  0  0  0  0  0
    9.3914   -0.3383    0.2247 C   0  0  0  0  0  0  0  0  0  0  0  0
    5.2189    1.4120    0.3495 C   0  0  0  0  0  0  0  0  0  0  0  0
    4.4150    2.6090   -0.1475 C   0  0  0  0  0  0  0  0  0  0  0  0
    4.9306    3.9582    0.3496 C   0  0  2  0  0  0  0  0  0  0  0  0
    4.8517    4.0961    1.8705 C   0  0  0  0  0  0  0  0  0  0  0  0
    5.3185    5.4698    2.3443 C   0  0  0  0  0  0  0  0  0  0  0  0
    4.5466    6.5933    1.6615 C   0  0  0  0  0  0  0  0  0  0  0  0
    4.6335    6.4711    0.1444 C   0  0  0  0  0  0  0  0  0  0  0  0
    4.1653    5.0978   -0.3249 C   0  0  0  0  0  0  0  0  0  0  0  0
   -8.5391    2.4361   -0.3366 H   0  0  0  0  0  0  0  0  0  0  0  0
  -10.8283    3.1252   -0.9432 H   0  0  0  0  0  0  0  0  0  0  0  0
   -4.4245    0.7502   -0.6749 H   0  0  0  0  0  0  0  0  0  0  0  0
   -3.2311   -0.6434    0.6097 H   0  0  0  0  0  0  0  0  0  0  0  0
   -2.6501   -2.1219    2.7494 H   0  0  0  0  0  0  0  0  0  0  0  0
   -2.8231   -3.3930    1.5493 H   0  0  0  0  0  0  0  0  0  0  0  0
   -1.5213   -2.9682   -0.7373 H   0  0  0  0  0  0  0  0  0  0  0  0
    3.0038    0.3560    0.8769 H   0  0  0  0  0  0  0  0  0  0  0  0
    0.7420   -2.5147   -1.5644 H   0  0  0  0  0  0  0  0  0  0  0  0
    1.7141   -0.6470    2.1775 H   0  0  0  0  0  0  0  0  0  0  0  0
    6.6830   -0.7451   -1.6014 H   0  0  0  0  0  0  0  0  0  0  0  0
   -8.8659   -1.7646    0.6381 H   0  0  0  0  0  0  0  0  0  0  0  0
   -7.4961   -2.6627    1.0722 H   0  0  0  0  0  0  0  0  0  0  0  0
   -9.3380   -1.5032   -1.8310 H   0  0  0  0  0  0  0  0  0  0  0  0
  -11.6351   -0.8241   -2.3888 H   0  0  0  0  0  0  0  0  0  0  0  0
  -12.3911    1.4926   -1.9586 H   0  0  0  0  0  0  0  0  0  0  0  0
   -0.5336   -1.1080    2.9878 H   0  0  0  0  0  0  0  0  0  0  0  0
    4.7719    0.1920   -1.3555 H   0  0  0  0  0  0  0  0  0  0  0  0
    7.7594   -2.5417    0.4771 H   0  0  0  0  0  0  0  0  0  0  0  0
    7.6697   -3.0069   -2.5328 H   0  0  0  0  0  0  0  0  0  0  0  0
    8.5179   -4.0193   -1.3858 H   0  0  0  0  0  0  0  0  0  0  0  0
    5.4824   -3.5569   -1.3738 H   0  0  0  0  0  0  0  0  0  0  0  0
    6.2983   -5.0005   -1.9652 H   0  0  0  0  0  0  0  0  0  0  0  0
    6.3602   -4.5941   -0.2530 H   0  0  0  0  0  0  0  0  0  0  0  0
    9.9411   -2.2181   -0.6649 H   0  0  0  0  0  0  0  0  0  0  0  0
    9.2025   -1.0988   -1.7869 H   0  0  0  0  0  0  0  0  0  0  0  0
    8.6435    0.4491    0.1247 H   0  0  0  0  0  0  0  0  0  0  0  0
    9.3580   -0.6986    1.2546 H   0  0  0  0  0  0  0  0  0  0  0  0
   10.3695    0.1154    0.0642 H   0  0  0  0  0  0  0  0  0  0  0  0
    5.1748    1.3296    1.4389 H   0  0  0  0  0  0  0  0  0  0  0  0
    6.2721    1.5565    0.0925 H   0  0  0  0  0  0  0  0  0  0  0  0
    4.4320    2.6068   -1.2429 H   0  0  0  0  0  0  0  0  0  0  0  0
    3.3619    2.5094    0.1379 H   0  0  0  0  0  0  0  0  0  0  0  0
    5.9871    4.0463    0.0582 H   0  0  0  0  0  0  0  0  0  0  0  0
    3.8146    3.9317    2.1894 H   0  0  0  0  0  0  0  0  0  0  0  0
    5.4496    3.3215    2.3574 H   0  0  0  0  0  0  0  0  0  0  0  0
    5.2171    5.5441    3.4300 H   0  0  0  0  0  0  0  0  0  0  0  0
    6.3867    5.5804    2.1262 H   0  0  0  0  0  0  0  0  0  0  0  0
    3.4952    6.5472    1.9670 H   0  0  0  0  0  0  0  0  0  0  0  0
    4.9230    7.5658    1.9883 H   0  0  0  0  0  0  0  0  0  0  0  0
    4.0408    7.2540   -0.3354 H   0  0  0  0  0  0  0  0  0  0  0  0
    5.6700    6.6298   -0.1734 H   0  0  0  0  0  0  0  0  0  0  0  0
    4.2663    5.0148   -1.4112 H   0  0  0  0  0  0  0  0  0  0  0  0
    3.0960    4.9860   -0.1063 H   0  0  0  0  0  0  0  0  0  0  0  0
 38 39  1  0
 38 37  1  0
 39 40  1  0
 36 35  1  0
 36 37  1  0
 40 41  1  0
 35 27  1  0
 37 42  1  0
 29 28  2  0
 42 41  1  0
 28 27  1  0
 28 16  1  0
 34 33  1  0
 27 12  1  0
 12 25  1  0
 16 30  1  0
 30 33  1  0
 30 31  1  0
 25 26  2  0
 25 14  1  0
 13 14  1  0
 13 11  2  0
 31 32  1  0
 14 15  2  0
 11 10  1  0
 15 24  1  0
 10 24  2  0
 10  9  1  0
  9  7  1  0
  7  8  1  0
  8 17  2  0
  8  6  1  0
  3  6  1  0
  3  4  2  0
  6  5  2  0
  4 19  1  0
  5 19  1  0
  5 18  1  0
 19 20  1  0
 20  1  2  0
 20 21  1  0
  1  2  1  0
 21 22  2  0
  2 23  2  0
 22 23  1  0
  1 43  1  0
  2 44  1  0
  3 45  1  0
  7 46  1  0
  9 47  1  0
  9 48  1  0
 11 49  1  0
 12 50  1  0
 13 51  1  0
 15 52  1  0
 16 53  1  0
 18 54  1  0
 18 55  1  0
 21 56  1  0
 22 57  1  0
 23 58  1  0
 24 59  1  0
 27 60  1  6
 30 61  1  1
 31 62  1  0
 31 63  1  0
 32 64  1  0
 32 65  1  0
 32 66  1  0
 33 67  1  0
 33 68  1  0
 34 69  1  0
 34 70  1  0
 34 71  1  0
 35 72  1  0
 35 73  1  0
 36 74  1  0
 36 75  1  0
 37 76  1  6
 38 77  1  0
 38 78  1  0
 39 79  1  0
 39 80  1  0
 40 81  1  0
 40 82  1  0
 41 83  1  0
 41 84  1  0
 42 85  1  0
 42 86  1  0
M  END
