
     RDKit          3D

 24 24  0  0  0  0  0  0  0  0999 V2000
    0.2938    0.6454   -0.0026 C   0  0  0  0  0  0  0  0  0  0  0  0
    1.4087   -0.1746   -0.0402 C   0  0  0  0  0  0  0  0  0  0  0  0
    1.2807   -1.5838   -0.0642 C   0  0  0  0  0  0  0  0  0  0  0  0
   -0.0327   -2.1006   -0.0499 C   0  0  0  0  0  0  0  0  0  0  0  0
   -1.1237   -1.2743   -0.0069 C   0  0  0  0  0  0  0  0  0  0  0  0
   -0.9845    0.1201    0.0178 C   0  0  0  0  0  0  0  0  0  0  0  0
    2.9947    0.5939   -0.0618 S   0  0  1  0  0  0  0  0  0  0  0  0
    3.5747    0.1566    1.4169 N   0  0  0  0  0  0  0  0  0  0  0  0
    3.8525   -0.0759   -1.0330 O   0  0  0  0  0  0  0  0  0  0  0  0
    2.7970    2.0285   -0.2027 O   0  0  0  0  0  0  0  0  0  0  0  0
   -2.3605    1.2311    0.1102 S   0  0  1  0  0  0  0  0  0  0  0  0
   -3.2290    1.0893   -1.2737 N   0  0  0  0  0  0  0  0  0  0  0  0
   -3.2292    0.8066    1.1917 O   0  0  0  0  0  0  0  0  0  0  0  0
   -1.8086    2.5748    0.1141 O   0  0  0  0  0  0  0  0  0  0  0  0
    2.3112   -2.4351   -0.0802 N   0  0  0  0  0  0  0  0  0  0  0  0
   -2.6841   -2.0062   -0.0229 Cl  0  0  0  0  0  0  0  0  0  0  0  0
    0.4258    1.7182    0.0155 H   0  0  0  0  0  0  0  0  0  0  0  0
   -0.1708   -3.1735   -0.0770 H   0  0  0  0  0  0  0  0  0  0  0  0
    3.1357    0.6604    2.1807 H   0  0  0  0  0  0  0  0  0  0  0  0
    4.5859    0.2411    1.4674 H   0  0  0  0  0  0  0  0  0  0  0  0
   -2.7085    1.3240   -2.1113 H   0  0  0  0  0  0  0  0  0  0  0  0
   -3.7198    0.2082   -1.3735 H   0  0  0  0  0  0  0  0  0  0  0  0
    3.2553   -2.1336   -0.2456 H   0  0  0  0  0  0  0  0  0  0  0  0
    2.1366   -3.4213   -0.1726 H   0  0  0  0  0  0  0  0  0  0  0  0
 10  7  2  0
  9  7  2  0
  7  8  1  1
  7  2  1  0
 15  3  1  0
  2  3  1  0
  2  1  2  0
  3  4  2  0
  1  6  1  0
  4  5  1  0
  6  5  2  0
  6 11  1  0
  5 16  1  0
 11 12  1  6
 11 14  2  0
 11 13  2  0
  1 17  1  0
  4 18  1  0
  8 19  1  0
  8 20  1  0
 12 21  1  0
 12 22  1  0
 15 23  1  0
 15 24  1  0
M  END
