
     RDKit          3D

 32 34  0  0  0  0  0  0  0  0999 V2000
   -0.6943   -0.8363    0.9788 C   0  0  0  0  0  0  0  0  0  0  0  0
   -0.9345    0.4997    0.6606 C   0  0  0  0  0  0  0  0  0  0  0  0
   -2.1827    0.9130    0.2304 C   0  0  0  0  0  0  0  0  0  0  0  0
    0.6608   -1.2850    1.4759 C   0  0  0  0  0  0  0  0  0  0  0  0
   -3.2177   -0.0101    0.1038 C   0  0  0  0  0  0  0  0  0  0  0  0
   -2.9906   -1.3443    0.4073 C   0  0  0  0  0  0  0  0  0  0  0  0
    1.8205   -0.7151    0.7008 C   0  0  0  0  0  0  0  0  0  0  0  0
   -1.7362   -1.7480    0.8437 C   0  0  0  0  0  0  0  0  0  0  0  0
    2.0104   -1.0444   -0.6428 C   0  0  0  0  0  0  0  0  0  0  0  0
    3.1018   -0.5515   -1.3730 C   0  0  0  0  0  0  0  0  0  0  0  0
    3.9727    0.2748   -0.7102 C   0  0  0  0  0  0  0  0  0  0  0  0
    3.7912    0.6232    0.6160 C   0  0  0  0  0  0  0  0  0  0  0  0
    2.7299    0.1450    1.3377 C   0  0  0  0  0  0  0  0  0  0  0  0
    4.7781    1.4833    0.9940 O   0  0  0  0  0  0  0  0  0  0  0  0
    5.0768    0.8927   -1.1925 O   0  0  0  0  0  0  0  0  0  0  0  0
    5.7282    1.4572   -0.0591 C   0  0  0  0  0  0  0  0  0  0  0  0
    1.1773   -1.8694   -1.3201 O   0  0  0  0  0  0  0  0  0  0  0  0
   -4.5480    0.4428   -0.4069 C   0  0  1  0  0  0  0  0  0  0  0  0
   -5.5330   -0.4042   -0.0909 F   0  0  0  0  0  0  0  0  0  0  0  0
   -4.8909    1.6431    0.0788 F   0  0  0  0  0  0  0  0  0  0  0  0
   -4.5525    0.5594   -1.7447 F   0  0  0  0  0  0  0  0  0  0  0  0
   -0.1386    1.2286    0.7481 H   0  0  0  0  0  0  0  0  0  0  0  0
   -2.3390    1.9582   -0.0023 H   0  0  0  0  0  0  0  0  0  0  0  0
    0.7608   -0.9891    2.5231 H   0  0  0  0  0  0  0  0  0  0  0  0
    0.6984   -2.3789    1.4773 H   0  0  0  0  0  0  0  0  0  0  0  0
   -3.7745   -2.0829    0.3113 H   0  0  0  0  0  0  0  0  0  0  0  0
   -1.5713   -2.7917    1.0830 H   0  0  0  0  0  0  0  0  0  0  0  0
    3.2383   -0.8171   -2.4132 H   0  0  0  0  0  0  0  0  0  0  0  0
    2.5836    0.4162    2.3754 H   0  0  0  0  0  0  0  0  0  0  0  0
    6.0547    2.4704   -0.2900 H   0  0  0  0  0  0  0  0  0  0  0  0
    0.3540   -2.0127   -0.8414 H   0  0  0  0  0  0  0  0  0  0  0  0
    6.5838    0.8319    0.2214 H   0  0  0  0  0  0  0  0  0  0  0  0
 18 20  1  1
  3  2  2  0
  3  5  1  0
 18  5  1  0
 18 21  1  0
 18 19  1  0
  2  1  1  0
  5  6  2  0
  1  8  2  0
  1  4  1  0
  6  8  1  0
  4  7  1  0
 17  9  1  0
  7  9  2  0
  7 13  1  0
  9 10  1  0
 13 12  2  0
 10 11  2  0
 12 11  1  0
 12 14  1  0
 11 15  1  0
 14 16  1  0
 15 16  1  0
  2 22  1  0
  3 23  1  0
  4 24  1  0
  4 25  1  0
  6 26  1  0
  8 27  1  0
 10 28  1  0
 13 29  1  0
 16 30  1  0
 17 31  1  0
 16 32  1  0
M  END
