
     RDKit          3D

 84 88  0  0  0  0  0  0  0  0999 V2000
    3.9159   -0.7719   -0.2352 C   0  0  0  0  0  0  0  0  0  0  0  0
    5.1062   -1.7067   -0.4332 C   0  0  0  0  0  0  0  0  0  0  0  0
    5.1549   -5.4544   -0.2829 C   0  0  0  0  0  0  0  0  0  0  0  0
    5.6024   -4.0491   -0.6586 C   0  0  0  0  0  0  0  0  0  0  0  0
    4.8767   -3.1804    1.4553 C   0  0  0  0  0  0  0  0  0  0  0  0
    4.3979   -4.5508    1.9106 C   0  0  0  0  0  0  0  0  0  0  0  0
    5.1493   -5.6651    1.2156 C   0  0  2  0  0  0  0  0  0  0  0  0
    3.0072    1.8799   -0.5116 C   0  0  0  0  0  0  0  0  0  0  0  0
    1.8069    1.3459   -0.0633 C   0  0  0  0  0  0  0  0  0  0  0  0
    0.6652    2.1335    0.1026 C   0  0  0  0  0  0  0  0  0  0  0  0
    0.7454    3.4906   -0.1906 C   0  0  0  0  0  0  0  0  0  0  0  0
    1.9370    4.0371   -0.6355 C   0  0  0  0  0  0  0  0  0  0  0  0
    3.0699    3.2560   -0.8004 C   0  0  0  0  0  0  0  0  0  0  0  0
    4.3387    3.8858   -1.2856 C   0  0  1  0  0  0  0  0  0  0  0  0
   -0.5738    1.5114    0.5756 C   0  0  0  0  0  0  0  0  0  0  0  0
   -1.7387    2.0948    1.1253 C   0  0  0  0  0  0  0  0  0  0  0  0
   -2.5404    1.0250    1.4432 C   0  0  0  0  0  0  0  0  0  0  0  0
   -3.8589    1.1114    2.1242 C   0  0  0  0  0  0  0  0  0  0  0  0
   -3.9265    2.4922    2.7744 C   0  0  0  0  0  0  0  0  0  0  0  0
   -2.1469    3.5053    1.4189 C   0  0  0  0  0  0  0  0  0  0  0  0
   -3.2861   -1.7936   -0.0129 C   0  0  2  0  0  0  0  0  0  0  0  0
   -3.8521   -3.1927    0.2170 C   0  0  0  0  0  0  0  0  0  0  0  0
   -5.8614   -2.9148   -1.0903 C   0  0  0  0  0  0  0  0  0  0  0  0
   -6.6554   -3.4317   -2.2814 C   0  0  0  0  0  0  0  0  0  0  0  0
   -6.9972   -4.9055   -2.1120 C   0  0  0  0  0  0  0  0  0  0  0  0
   -5.7269   -5.6971   -1.8317 C   0  0  0  0  0  0  0  0  0  0  0  0
   -4.9722   -5.0994   -0.6550 C   0  0  0  0  0  0  0  0  0  0  0  0
   -5.8723    4.2546    1.6439 C   0  0  0  0  0  0  0  0  0  0  0  0
    6.4774   -5.6686    1.6767 F   0  0  0  0  0  0  0  0  0  0  0  0
    4.2075    5.1974   -1.4982 F   0  0  0  0  0  0  0  0  0  0  0  0
    5.3432    3.7365   -0.4086 F   0  0  0  0  0  0  0  0  0  0  0  0
    4.7583    3.3472   -2.4406 F   0  0  0  0  0  0  0  0  0  0  0  0
   -1.8728   -0.0881    1.0792 N   0  0  0  0  0  0  0  0  0  0  0  0
   -0.6916    0.1898    0.5519 N   0  0  0  0  0  0  0  0  0  0  0  0
    4.7846   -3.0482    0.0091 N   0  0  0  0  0  0  0  0  0  0  0  0
   -3.5430    3.5255    1.8285 N   0  0  0  0  0  0  0  0  0  0  0  0
   -4.6551   -3.6970   -0.8754 N   0  0  0  0  0  0  0  0  0  0  0  0
   -2.6520   -1.6430   -1.2542 O   0  0  0  0  0  0  0  0  0  0  0  0
   -4.0667    5.1968    0.4010 O   0  0  0  0  0  0  0  0  0  0  0  0
   -6.6117    5.1603    0.8806 O   0  0  0  0  0  0  0  0  0  0  0  0
    4.4485    0.8892   -0.7204 S   0  0  0  0  0  0  0  0  0  0  0  0
    3.0845   -1.1010   -0.8586 H   0  0  0  0  0  0  0  0  0  0  0  0
    3.5904   -0.7562    0.8055 H   0  0  0  0  0  0  0  0  0  0  0  0
    5.3474   -1.7376   -1.4977 H   0  0  0  0  0  0  0  0  0  0  0  0
    5.9953   -1.3074    0.0815 H   0  0  0  0  0  0  0  0  0  0  0  0
    4.1381   -5.6216   -0.6475 H   0  0  0  0  0  0  0  0  0  0  0  0
    5.7932   -6.1941   -0.7705 H   0  0  0  0  0  0  0  0  0  0  0  0
    6.6730   -3.9228   -0.4276 H   0  0  0  0  0  0  0  0  0  0  0  0
    5.5003   -3.9203   -1.7379 H   0  0  0  0  0  0  0  0  0  0  0  0
    4.2575   -2.4183    1.9312 H   0  0  0  0  0  0  0  0  0  0  0  0
    5.9073   -3.0036    1.8063 H   0  0  0  0  0  0  0  0  0  0  0  0
    4.4953   -4.6407    2.9946 H   0  0  0  0  0  0  0  0  0  0  0  0
    3.3361   -4.6622    1.6765 H   0  0  0  0  0  0  0  0  0  0  0  0
    4.7266   -6.6395    1.4706 H   0  0  0  0  0  0  0  0  0  0  0  0
    1.7330    0.2951    0.1729 H   0  0  0  0  0  0  0  0  0  0  0  0
   -0.1120    4.1395   -0.0983 H   0  0  0  0  0  0  0  0  0  0  0  0
    1.9653    5.0943   -0.8576 H   0  0  0  0  0  0  0  0  0  0  0  0
   -4.6837    0.9845    1.4165 H   0  0  0  0  0  0  0  0  0  0  0  0
   -3.9708    0.3418    2.8912 H   0  0  0  0  0  0  0  0  0  0  0  0
   -4.9175    2.6787    3.1769 H   0  0  0  0  0  0  0  0  0  0  0  0
   -3.2358    2.5289    3.6204 H   0  0  0  0  0  0  0  0  0  0  0  0
   -1.5207    3.9369    2.2081 H   0  0  0  0  0  0  0  0  0  0  0  0
   -2.0479    4.1483    0.5475 H   0  0  0  0  0  0  0  0  0  0  0  0
   -2.8628   -1.5905    2.1001 H   0  0  0  0  0  0  0  0  0  0  0  0
   -1.4768   -2.1015    1.1474 H   0  0  0  0  0  0  0  0  0  0  0  0
   -4.1038   -1.0657   -0.0112 H   0  0  0  0  0  0  0  0  0  0  0  0
   -3.0167   -3.8878    0.3627 H   0  0  0  0  0  0  0  0  0  0  0  0
   -4.4103   -3.1816    1.1706 H   0  0  0  0  0  0  0  0  0  0  0  0
   -6.5056   -2.9241   -0.1915 H   0  0  0  0  0  0  0  0  0  0  0  0
   -7.5601   -2.8305   -2.3947 H   0  0  0  0  0  0  0  0  0  0  0  0
   -6.0640   -3.2939   -3.1918 H   0  0  0  0  0  0  0  0  0  0  0  0
   -7.6920   -5.0247   -1.2736 H   0  0  0  0  0  0  0  0  0  0  0  0
   -7.5059   -5.2898   -2.9989 H   0  0  0  0  0  0  0  0  0  0  0  0
   -5.9580   -6.7426   -1.6160 H   0  0  0  0  0  0  0  0  0  0  0  0
   -5.0826   -5.6871   -2.7160 H   0  0  0  0  0  0  0  0  0  0  0  0
   -5.5740   -5.2324    0.2632 H   0  0  0  0  0  0  0  0  0  0  0  0
   -4.0381   -5.6442   -0.4956 H   0  0  0  0  0  0  0  0  0  0  0  0
   -6.2098    3.2195    1.4971 H   0  0  0  0  0  0  0  0  0  0  0  0
   -5.9524    4.4593    2.7203 H   0  0  0  0  0  0  0  0  0  0  0  0
   -2.0566   -2.3878   -1.3912 H   0  0  0  0  0  0  0  0  0  0  0  0
   -7.5301    5.0842    1.1548 H   0  0  0  0  0  0  0  0  0  0  0  0
   -2.3503   -1.4484    1.1472 C   0  0  0  0  0  0  0  0  0  0  0  0
   -4.4125    4.3699    1.2276 C   0  0  0  0  0  0  0  0  0  0  0  0
   -5.5911   -1.8734   -1.2716 H   0  0  0  0  0  0  0  0  0  0  0  0
 14 31  1  1
 30 14  1  0
 32 14  1  0
 14 13  1  0
 41  8  1  0
 41  1  1  0
 13 12  2  0
 13  8  1  0
 29  7  1  0
 12 11  1  0
  8  9  2  0
  2  1  1  0
  2 35  1  0
  4 35  1  0
  4  3  1  0
  5 35  1  0
  5  6  1  0
  3  7  1  0
  7  6  1  0
 11 10  2  0
  9 10  1  0
 10 15  1  0
 15 34  2  0
 15 16  1  0
 34 33  1  0
 20 16  1  0
 20 36  1  0
 39 83  2  0
 16 17  2  0
 27 26  1  0
 27 37  1  0
 83 36  1  0
 83 28  1  0
 36 19  1  0
 33 17  1  0
 33 82  1  0
 26 25  1  0
 17 18  1  0
 22 37  1  0
 22 21  1  0
 37 23  1  0
 82 21  1  0
 40 28  1  0
 19 18  1  0
 25 24  1  0
 21 38  1  0
 23 24  1  0
  1 42  1  0
  1 43  1  0
  2 44  1  0
  2 45  1  0
  3 46  1  0
  3 47  1  0
  4 48  1  0
  4 49  1  0
  5 50  1  0
  5 51  1  0
  6 52  1  0
  6 53  1  0
  7 54  1  6
  9 55  1  0
 11 56  1  0
 12 57  1  0
 18 58  1  0
 18 59  1  0
 19 60  1  0
 19 61  1  0
 20 62  1  0
 20 63  1  0
 82 64  1  0
 82 65  1  0
 21 66  1  6
 22 67  1  0
 22 68  1  0
 23 84  1  0
 23 69  1  0
 24 70  1  0
 24 71  1  0
 25 72  1  0
 25 73  1  0
 26 74  1  0
 26 75  1  0
 27 76  1  0
 27 77  1  0
 28 78  1  0
 28 79  1  0
 38 80  1  0
 40 81  1  0
M  END
