
     RDKit          3D

 31 32  0  0  0  0  0  0  0  0999 V2000
   -3.7925   -0.3095    0.9464 C   0  0  0  0  0  0  0  0  0  0  0  0
   -3.0281   -1.4257    1.2502 C   0  0  0  0  0  0  0  0  0  0  0  0
   -3.1951    0.8038    0.3693 C   0  0  0  0  0  0  0  0  0  0  0  0
   -1.6670   -1.4175    0.9791 C   0  0  0  0  0  0  0  0  0  0  0  0
    2.2825   -0.6667   -0.7163 C   0  0  0  0  0  0  0  0  0  0  0  0
   -1.8342    0.8296    0.0824 C   0  0  0  0  0  0  0  0  0  0  0  0
   -1.0817   -0.3017    0.3993 C   0  0  0  0  0  0  0  0  0  0  0  0
    2.3611    0.0642    0.4844 C   0  0  0  0  0  0  0  0  0  0  0  0
    0.9407   -0.8970   -0.9099 C   0  0  0  0  0  0  0  0  0  0  0  0
    0.2121   -1.5771   -2.0097 C   0  0  0  0  0  0  0  0  0  0  0  0
   -1.2242    2.0252   -0.5980 C   0  0  0  0  0  0  0  0  0  0  0  0
    3.5821    0.5861    1.1610 C   0  0  0  0  0  0  0  0  0  0  0  0
    1.1621    0.2609    0.9970 N   0  0  0  0  0  0  0  0  0  0  0  0
    0.3134   -0.3226    0.1425 N   0  0  0  0  0  0  0  0  0  0  0  0
   -0.9812    1.7314   -2.0030 N   0  0  0  0  0  0  0  0  0  0  0  0
    4.4504   -0.4973    1.4192 O   0  0  0  0  0  0  0  0  0  0  0  0
   -4.8539   -0.3027    1.1568 H   0  0  0  0  0  0  0  0  0  0  0  0
   -3.4831   -2.2973    1.7011 H   0  0  0  0  0  0  0  0  0  0  0  0
   -3.7977    1.6722    0.1313 H   0  0  0  0  0  0  0  0  0  0  0  0
   -1.0550   -2.2767    1.2230 H   0  0  0  0  0  0  0  0  0  0  0  0
    3.0907   -0.9757   -1.3595 H   0  0  0  0  0  0  0  0  0  0  0  0
   -1.8842    2.8869   -0.4339 H   0  0  0  0  0  0  0  0  0  0  0  0
   -0.2703    2.2719   -0.1294 H   0  0  0  0  0  0  0  0  0  0  0  0
    4.0631    1.3309    0.5145 H   0  0  0  0  0  0  0  0  0  0  0  0
    3.2826    1.1057    2.0793 H   0  0  0  0  0  0  0  0  0  0  0  0
   -0.4285   -2.3806   -1.6442 H   0  0  0  0  0  0  0  0  0  0  0  0
   -0.4156   -0.8610   -2.5413 H   0  0  0  0  0  0  0  0  0  0  0  0
    0.9196   -2.0076   -2.7152 H   0  0  0  0  0  0  0  0  0  0  0  0
   -1.8664    1.6412   -2.4856 H   0  0  0  0  0  0  0  0  0  0  0  0
   -0.5083    2.5173   -2.4313 H   0  0  0  0  0  0  0  0  0  0  0  0
    5.2737   -0.1403    1.7657 H   0  0  0  0  0  0  0  0  0  0  0  0
  1  2  2  0
  1  3  1  0
  2  4  1  0
  3  6  2  0
  4  7  2  0
  5  8  1  0
  5  9  2  0
  6  7  1  0
  6 11  1  0
  7 14  1  0
  8 12  1  0
  8 13  2  0
  9 10  1  0
  9 14  1  0
 11 15  1  0
 12 16  1  0
 13 14  1  0
  1 17  1  0
  2 18  1  0
  3 19  1  0
  4 20  1  0
  5 21  1  0
 11 22  1  0
 11 23  1  0
 12 24  1  0
 12 25  1  0
 10 26  1  0
 10 27  1  0
 10 28  1  0
 15 29  1  0
 15 30  1  0
 16 31  1  0
M  END
