
     RDKit          3D

 29 28  0  0  0  0  0  0  0  0999 V2000
    3.1774    0.3124    0.0981 C   0  0  0  0  0  0  0  0  0  0  0  0
    2.2982   -0.6779    0.2722 C   0  0  0  0  0  0  0  0  0  0  0  0
    0.8565   -0.5721    0.6625 C   0  0  0  0  0  0  0  0  0  0  0  0
   -0.0690   -0.8083   -0.5420 C   0  0  0  0  0  0  0  0  0  0  0  0
   -1.5319   -0.7848   -0.1862 C   0  0  0  0  0  0  0  0  0  0  0  0
   -2.3185    0.1834   -0.6644 C   0  0  0  0  0  0  0  0  0  0  0  0
   -3.7810    0.3746   -0.4260 C   0  0  0  0  0  0  0  0  0  0  0  0
   -1.9863   -1.8896    0.7225 C   0  0  0  0  0  0  0  0  0  0  0  0
    2.8733    1.7684    0.2902 C   0  0  0  0  0  0  0  0  0  0  0  0
   -3.9639    1.5610    0.3297 O   0  0  0  0  0  0  0  0  0  0  0  0
    4.5904    0.0247   -0.3201 C   0  0  0  0  0  0  0  0  0  0  0  0
    2.6445   -1.6915    0.0813 H   0  0  0  0  0  0  0  0  0  0  0  0
    0.6480   -1.3170    1.4356 H   0  0  0  0  0  0  0  0  0  0  0  0
    0.6246    0.4008    1.0994 H   0  0  0  0  0  0  0  0  0  0  0  0
    0.1426   -0.0495   -1.2994 H   0  0  0  0  0  0  0  0  0  0  0  0
    0.1780   -1.7783   -0.9883 H   0  0  0  0  0  0  0  0  0  0  0  0
   -1.8592    0.9340   -1.3035 H   0  0  0  0  0  0  0  0  0  0  0  0
   -4.2868    0.4539   -1.3968 H   0  0  0  0  0  0  0  0  0  0  0  0
   -4.2188   -0.4911    0.0822 H   0  0  0  0  0  0  0  0  0  0  0  0
   -1.6075   -1.7393    1.7360 H   0  0  0  0  0  0  0  0  0  0  0  0
   -3.0679   -1.9778    0.7915 H   0  0  0  0  0  0  0  0  0  0  0  0
   -1.5941   -2.8501    0.3826 H   0  0  0  0  0  0  0  0  0  0  0  0
    3.5165    2.1972    1.0630 H   0  0  0  0  0  0  0  0  0  0  0  0
    3.0824    2.3255   -0.6266 H   0  0  0  0  0  0  0  0  0  0  0  0
    1.8402    1.9652    0.5681 H   0  0  0  0  0  0  0  0  0  0  0  0
   -4.9022    1.7721    0.3228 H   0  0  0  0  0  0  0  0  0  0  0  0
    4.7691   -1.0414   -0.4578 H   0  0  0  0  0  0  0  0  0  0  0  0
    4.8327    0.5325   -1.2573 H   0  0  0  0  0  0  0  0  0  0  0  0
    5.3019    0.3947    0.4231 H   0  0  0  0  0  0  0  0  0  0  0  0
  9  1  1  0
 11  1  1  0
  1  2  2  0
  2  3  1  0
  3  4  1  0
  4  5  1  0
  8  5  1  0
  5  6  2  0
 10  7  1  0
  6  7  1  0
  2 12  1  0
  3 13  1  0
  3 14  1  0
  4 15  1  0
  4 16  1  0
  6 17  1  0
  7 18  1  0
  7 19  1  0
  8 20  1  0
  8 21  1  0
  8 22  1  0
  9 23  1  0
  9 24  1  0
  9 25  1  0
 10 26  1  0
 11 27  1  0
 11 28  1  0
 11 29  1  0
M  END
