
     RDKit          3D

 29 31  0  0  0  0  0  0  0  0999 V2000
    0.2291   -0.9919   -0.1634 C   0  0  0  0  0  0  0  0  0  0  0  0
    2.2186   -0.3249   -0.0414 C   0  0  0  0  0  0  0  0  0  0  0  0
    3.6110   -0.1325    0.0235 C   0  0  0  0  0  0  0  0  0  0  0  0
    3.1856    2.1221    0.1959 C   0  0  0  0  0  0  0  0  0  0  0  0
   -1.0233    1.2384   -0.0063 C   0  0  2  0  0  0  0  0  0  0  0  0
   -1.7657    1.3286   -1.3330 C   0  0  0  0  0  0  0  0  0  0  0  0
   -2.9597    1.6038    1.2623 C   0  0  0  0  0  0  0  0  0  0  0  0
    1.4339    0.8118    0.0255 C   0  0  0  0  0  0  0  0  0  0  0  0
   -2.9941    2.2170   -1.1525 C   0  0  0  0  0  0  0  0  0  0  0  0
   -3.8273    1.7175    0.0225 C   0  0  0  0  0  0  0  0  0  0  0  0
    0.1387    0.3725   -0.0579 N   0  0  0  0  0  0  0  0  0  0  0  0
    1.8655    2.0633    0.1436 N   0  0  0  0  0  0  0  0  0  0  0  0
    1.4398   -1.4463   -0.1565 N   0  0  0  0  0  0  0  0  0  0  0  0
    4.0599    1.1217    0.1439 N   0  0  0  0  0  0  0  0  0  0  0  0
    4.4839   -1.1378   -0.0442 N   0  0  0  0  0  0  0  0  0  0  0  0
   -1.8260    0.7778    1.0393 O   0  0  0  0  0  0  0  0  0  0  0  0
   -1.2458   -2.1063   -0.2836 Br  0  0  0  0  0  0  0  0  0  0  0  0
    3.6150    3.1129    0.2967 H   0  0  0  0  0  0  0  0  0  0  0  0
   -0.6216    2.2347    0.2278 H   0  0  0  0  0  0  0  0  0  0  0  0
   -1.0908    1.7415   -2.0852 H   0  0  0  0  0  0  0  0  0  0  0  0
   -2.0764    0.3396   -1.6755 H   0  0  0  0  0  0  0  0  0  0  0  0
   -2.6331    2.6038    1.5808 H   0  0  0  0  0  0  0  0  0  0  0  0
   -3.5040    1.1522    2.0915 H   0  0  0  0  0  0  0  0  0  0  0  0
   -2.6765    3.2484   -0.9680 H   0  0  0  0  0  0  0  0  0  0  0  0
   -3.5835    2.2308   -2.0701 H   0  0  0  0  0  0  0  0  0  0  0  0
   -4.2600    0.7414   -0.2162 H   0  0  0  0  0  0  0  0  0  0  0  0
   -4.6570    2.3965    0.2288 H   0  0  0  0  0  0  0  0  0  0  0  0
    5.4667   -0.9602    0.0730 H   0  0  0  0  0  0  0  0  0  0  0  0
    4.1738   -2.0938   -0.0493 H   0  0  0  0  0  0  0  0  0  0  0  0
 15  3  1  0
  3 14  1  0
  3  2  2  0
 14  4  2  0
 13  2  1  0
 13  1  2  0
  2  8  1  0
  4 12  1  0
  6  9  1  0
  6  5  1  0
  1 17  1  0
  1 11  1  0
  8 12  2  0
  8 11  1  0
  9 10  1  0
 11  5  1  0
  5 16  1  0
 10  7  1  0
 16  7  1  0
  4 18  1  0
  5 19  1  1
  6 20  1  0
  6 21  1  0
  7 22  1  0
  7 23  1  0
  9 24  1  0
  9 25  1  0
 10 26  1  0
 10 27  1  0
 15 28  1  0
 15 29  1  0
M  END
