
     RDKit          3D

 41 43  0  0  0  0  0  0  0  0999 V2000
   -4.0590    0.8049    2.5592 C   0  0  0  0  0  0  0  0  0  0  0  0
   -0.3320   -0.7350   -0.3252 C   0  0  2  0  0  0  0  0  0  0  0  0
    0.8499   -1.6555   -0.5419 C   0  0  0  0  0  0  0  0  0  0  0  0
    2.1894    0.4069   -0.2439 C   0  0  0  0  0  0  0  0  0  0  0  0
    4.4563    0.3544    0.6076 C   0  0  0  0  0  0  0  0  0  0  0  0
   -5.3174   -0.1759   -0.9665 C   0  0  0  0  0  0  0  0  0  0  0  0
   -4.0984   -1.0310   -1.2956 C   0  0  0  0  0  0  0  0  0  0  0  0
    1.0648    1.1583   -0.7789 C   0  0  0  0  0  0  0  0  0  0  0  0
    2.1142   -0.9871   -0.0983 C   0  0  0  0  0  0  0  0  0  0  0  0
    3.1793   -1.7007    0.3987 C   0  0  0  0  0  0  0  0  0  0  0  0
   -4.0663    0.6288    1.0549 C   0  0  2  0  0  0  0  0  0  0  0  0
    4.3514   -1.0223    0.7588 C   0  0  0  0  0  0  0  0  0  0  0  0
   -1.6190   -1.2867   -0.9036 C   0  0  0  0  0  0  0  0  0  0  0  0
    3.3843    1.0759    0.0945 C   0  0  0  0  0  0  0  0  0  0  0  0
   -5.3933    0.0930    0.5324 C   0  0  0  0  0  0  0  0  0  0  0  0
   -3.0074   -0.2507    0.7151 O   0  0  0  0  0  0  0  0  0  0  0  0
   -2.8466   -0.4198   -0.6792 C   0  0  2  0  0  0  0  0  0  0  0  0
   -0.0902    0.5407   -0.9583 O   0  0  0  0  0  0  0  0  0  0  0  0
    1.1365    2.3406   -1.0853 O   0  0  0  0  0  0  0  0  0  0  0  0
    5.3533   -1.7603    1.2460 O   0  0  0  0  0  0  0  0  0  0  0  0
    3.5272    2.3886   -0.0573 O   0  0  0  0  0  0  0  0  0  0  0  0
   -4.2678   -0.1379    3.0684 H   0  0  0  0  0  0  0  0  0  0  0  0
   -3.0974    1.1808    2.9106 H   0  0  0  0  0  0  0  0  0  0  0  0
   -4.8259    1.5213    2.8544 H   0  0  0  0  0  0  0  0  0  0  0  0
   -0.4507   -0.5488    0.7466 H   0  0  0  0  0  0  0  0  0  0  0  0
    0.6870   -2.5828    0.0088 H   0  0  0  0  0  0  0  0  0  0  0  0
    0.9306   -1.9242   -1.6008 H   0  0  0  0  0  0  0  0  0  0  0  0
    5.3666    0.8760    0.8805 H   0  0  0  0  0  0  0  0  0  0  0  0
   -5.2465    0.7752   -1.5044 H   0  0  0  0  0  0  0  0  0  0  0  0
   -6.2310   -0.6610   -1.3157 H   0  0  0  0  0  0  0  0  0  0  0  0
   -4.2349   -2.0474   -0.9104 H   0  0  0  0  0  0  0  0  0  0  0  0
   -3.9696   -1.1134   -2.3776 H   0  0  0  0  0  0  0  0  0  0  0  0
    3.1202   -2.7754    0.5156 H   0  0  0  0  0  0  0  0  0  0  0  0
   -3.8790    1.6068    0.5814 H   0  0  0  0  0  0  0  0  0  0  0  0
   -1.4923   -1.4502   -1.9775 H   0  0  0  0  0  0  0  0  0  0  0  0
   -1.7877   -2.2712   -0.4563 H   0  0  0  0  0  0  0  0  0  0  0  0
   -6.1861    0.8116    0.7548 H   0  0  0  0  0  0  0  0  0  0  0  0
   -5.6410   -0.8314    1.0654 H   0  0  0  0  0  0  0  0  0  0  0  0
   -2.6875    0.5656   -1.1469 H   0  0  0  0  0  0  0  0  0  0  0  0
    6.1140   -1.2078    1.4616 H   0  0  0  0  0  0  0  0  0  0  0  0
    2.7075    2.7341   -0.4748 H   0  0  0  0  0  0  0  0  0  0  0  0
 21 14  1  0
 19  8  2  0
 14  5  1  0
 14  4  2  0
  5 12  2  0
  8  4  1  0
  8 18  1  0
  4  9  1  0
 12 20  1  0
 12 10  1  0
 18  2  1  0
  9 10  2  0
  9  3  1  0
  3  2  1  0
  2 13  1  0
 13 17  1  0
 17  7  1  0
 17 16  1  0
  7  6  1  0
 16 11  1  0
  6 15  1  0
 11 15  1  0
 11  1  1  0
  1 22  1  0
  1 23  1  0
  1 24  1  0
  2 25  1  1
  3 26  1  0
  3 27  1  0
  5 28  1  0
  6 29  1  0
  6 30  1  0
  7 31  1  0
  7 32  1  0
 10 33  1  0
 11 34  1  6
 13 35  1  0
 13 36  1  0
 15 37  1  0
 15 38  1  0
 17 39  1  6
 20 40  1  0
 21 41  1  0
M  END
