
     RDKit          3D

 28 27  0  0  0  0  0  0  0  0999 V2000
    5.5818   -0.2931   -0.0146 O   0  0  0  0  0  0  0  0  0  0  0  0
    4.4248    0.5170   -0.0139 C   0  0  0  0  0  0  0  0  0  0  0  0
    3.1940   -0.3680   -0.0131 C   0  0  0  0  0  0  0  0  0  0  0  0
    1.9065    0.4470   -0.0121 C   0  0  0  0  0  0  0  0  0  0  0  0
    0.6524   -0.4182   -0.0095 C   0  0  0  0  0  0  0  0  0  0  0  0
   -0.6346    0.3970   -0.0088 C   0  0  0  0  0  0  0  0  0  0  0  0
   -1.8889   -0.4682   -0.0061 C   0  0  0  0  0  0  0  0  0  0  0  0
   -3.1762    0.3473   -0.0071 C   0  0  0  0  0  0  0  0  0  0  0  0
   -4.4072   -0.5379   -0.0057 C   0  0  0  0  0  0  0  0  0  0  0  0
   -5.5641    0.2725   -0.0068 O   0  0  0  0  0  0  0  0  0  0  0  0
    6.3512    0.2831   -0.0229 H   0  0  0  0  0  0  0  0  0  0  0  0
    4.3967    1.1729    0.8669 H   0  0  0  0  0  0  0  0  0  0  0  0
    4.3958    1.1728   -0.8947 H   0  0  0  0  0  0  0  0  0  0  0  0
    3.2140   -1.0204   -0.8922 H   0  0  0  0  0  0  0  0  0  0  0  0
    3.2152   -1.0211    0.8656 H   0  0  0  0  0  0  0  0  0  0  0  0
    1.8916    1.1070    0.8624 H   0  0  0  0  0  0  0  0  0  0  0  0
    1.8888    1.1043   -0.8885 H   0  0  0  0  0  0  0  0  0  0  0  0
    0.6646   -1.0776   -0.8845 H   0  0  0  0  0  0  0  0  0  0  0  0
    0.6666   -1.0762    0.8664 H   0  0  0  0  0  0  0  0  0  0  0  0
   -0.6467    1.0567    0.8659 H   0  0  0  0  0  0  0  0  0  0  0  0
   -0.6493    1.0546   -0.8851 H   0  0  0  0  0  0  0  0  0  0  0  0
   -1.8735   -1.1284   -0.8803 H   0  0  0  0  0  0  0  0  0  0  0  0
   -1.8725   -1.1251    0.8706 H   0  0  0  0  0  0  0  0  0  0  0  0
   -3.1973    1.0011    0.8709 H   0  0  0  0  0  0  0  0  0  0  0  0
   -3.1970    0.9979   -0.8876 H   0  0  0  0  0  0  0  0  0  0  0  0
   -4.3790   -1.1947   -0.8857 H   0  0  0  0  0  0  0  0  0  0  0  0
   -4.3787   -1.1923    0.8761 H   0  0  0  0  0  0  0  0  0  0  0  0
   -6.3335   -0.3033   -0.0074 H   0  0  0  0  0  0  0  0  0  0  0  0
  1  2  1  0
  1 11  1  0
  2  3  1  0
  2 12  1  0
  2 13  1  0
  3  4  1  0
  3 14  1  0
  3 15  1  0
  4  5  1  0
  4 16  1  0
  4 17  1  0
  5  6  1  0
  5 18  1  0
  5 19  1  0
  6  7  1  0
  6 20  1  0
  6 21  1  0
  7  8  1  0
  7 22  1  0
  7 23  1  0
  8  9  1  0
  8 24  1  0
  8 25  1  0
  9 10  1  0
  9 26  1  0
  9 27  1  0
 10 28  1  0
M  END
