
     RDKit          3D

 25 24  0  0  0  0  0  0  0  0999 V2000
    3.9995    0.4259    0.4890 C   0  0  0  0  0  0  0  0  0  0  0  0
    1.9181   -1.4559    0.0319 O   0  0  0  0  0  0  0  0  0  0  0  0
    2.9205    0.7437   -0.2154 C   0  0  0  0  0  0  0  0  0  0  0  0
    1.7464   -0.1559   -0.4810 C   0  0  2  0  0  0  0  0  0  0  0  0
    0.4551    0.4979    0.0181 C   0  0  0  0  0  0  0  0  0  0  0  0
   -0.8062   -0.2722   -0.3507 C   0  0  0  0  0  0  0  0  0  0  0  0
   -2.0749    0.3847    0.1782 C   0  0  0  0  0  0  0  0  0  0  0  0
   -3.3418   -0.3778   -0.1897 C   0  0  0  0  0  0  0  0  0  0  0  0
   -4.6074    0.2741    0.3495 C   0  0  0  0  0  0  0  0  0  0  0  0
    4.7941    1.1432    0.6467 H   0  0  0  0  0  0  0  0  0  0  0  0
    4.1387   -0.5520    0.9330 H   0  0  0  0  0  0  0  0  0  0  0  0
    2.8389    1.7386   -0.6450 H   0  0  0  0  0  0  0  0  0  0  0  0
    1.6609   -0.2790   -1.5681 H   0  0  0  0  0  0  0  0  0  0  0  0
    0.5183    0.6187    1.1065 H   0  0  0  0  0  0  0  0  0  0  0  0
    0.3948    1.5105   -0.3924 H   0  0  0  0  0  0  0  0  0  0  0  0
   -0.8700   -0.3587   -1.4410 H   0  0  0  0  0  0  0  0  0  0  0  0
   -0.7416   -1.2941    0.0332 H   0  0  0  0  0  0  0  0  0  0  0  0
   -2.0099    0.4725    1.2683 H   0  0  0  0  0  0  0  0  0  0  0  0
   -2.1455    1.4094   -0.2033 H   0  0  0  0  0  0  0  0  0  0  0  0
   -3.4106   -0.4607   -1.2787 H   0  0  0  0  0  0  0  0  0  0  0  0
   -3.2674   -1.4027    0.1865 H   0  0  0  0  0  0  0  0  0  0  0  0
   -5.4972   -0.2959    0.0788 H   0  0  0  0  0  0  0  0  0  0  0  0
   -4.5818    0.3482    1.4383 H   0  0  0  0  0  0  0  0  0  0  0  0
   -4.7316    1.2844   -0.0452 H   0  0  0  0  0  0  0  0  0  0  0  0
    1.8974   -1.4060    0.9942 H   0  0  0  0  0  0  0  0  0  0  0  0
  1  3  2  0
  2  4  1  0
  3  4  1  0
  4  5  1  0
  5  6  1  0
  6  7  1  0
  7  8  1  0
  8  9  1  0
  1 10  1  0
  1 11  1  0
  2 25  1  0
  3 12  1  0
  4 13  1  6
  5 14  1  0
  5 15  1  0
  6 16  1  0
  6 17  1  0
  7 18  1  0
  7 19  1  0
  8 20  1  0
  8 21  1  0
  9 22  1  0
  9 23  1  0
  9 24  1  0
M  END
