
     RDKit          3D

 35 36  0  0  0  0  0  0  0  0999 V2000
   -4.0995    1.8112   -1.5515 O   0  0  0  0  0  0  0  0  0  0  0  0
   -3.8218    1.1794   -0.1154 P   0  0  1  0  0  0  0  0  0  0  0  0
   -3.6860    2.0979    1.0301 O   0  0  0  0  0  0  0  0  0  0  0  0
   -4.9768    0.1167    0.1875 O   0  0  0  0  0  0  0  0  0  0  0  0
   -2.5240    0.3459   -0.5259 O   0  0  0  0  0  0  0  0  0  0  0  0
   -1.8160   -0.3926    0.4755 C   0  0  0  0  0  0  0  0  0  0  0  0
   -0.8303   -1.3048   -0.2054 C   0  0  1  0  0  0  0  0  0  0  0  0
    0.1575   -0.5402   -0.8662 O   0  0  0  0  0  0  0  0  0  0  0  0
   -0.0927   -2.1955    0.7950 C   0  0  1  0  0  0  0  0  0  0  0  0
   -0.7883   -3.4073    0.9493 O   0  0  0  0  0  0  0  0  0  0  0  0
    1.2852   -2.3797    0.1322 C   0  0  1  0  0  0  0  0  0  0  0  0
    1.2831   -3.5252   -0.6818 O   0  0  0  0  0  0  0  0  0  0  0  0
    1.4144   -1.1571   -0.7922 C   0  0  2  0  0  0  0  0  0  0  0  0
    2.4196   -0.1711   -0.4336 N   0  0  0  0  0  0  0  0  0  0  0  0
    2.3989    0.4511    0.8254 C   0  0  0  0  0  0  0  0  0  0  0  0
    3.3178    1.4006    1.0862 N   0  0  0  0  0  0  0  0  0  0  0  0
    4.2131    1.7500    0.1829 C   0  0  0  0  0  0  0  0  0  0  0  0
    4.2576    1.1493   -1.1129 C   0  0  0  0  0  0  0  0  0  0  0  0
    3.3343    0.2023   -1.3634 C   0  0  0  0  0  0  0  0  0  0  0  0
    1.5560    0.1087    1.6434 O   0  0  0  0  0  0  0  0  0  0  0  0
    5.0970    2.6933    0.5001 N   0  0  0  0  0  0  0  0  0  0  0  0
   -4.7776    2.4999   -1.5546 H   0  0  0  0  0  0  0  0  0  0  0  0
   -5.1698   -0.5086   -0.5241 H   0  0  0  0  0  0  0  0  0  0  0  0
   -2.5039   -1.0045    1.0665 H   0  0  0  0  0  0  0  0  0  0  0  0
   -1.2931    0.2925    1.1468 H   0  0  0  0  0  0  0  0  0  0  0  0
   -1.3593   -1.9440   -0.9268 H   0  0  0  0  0  0  0  0  0  0  0  0
    0.0262   -1.6854    1.7508 H   0  0  0  0  0  0  0  0  0  0  0  0
   -0.6219   -3.7504    1.8327 H   0  0  0  0  0  0  0  0  0  0  0  0
    2.0945   -2.4253    0.8684 H   0  0  0  0  0  0  0  0  0  0  0  0
    0.6297   -4.1312   -0.3058 H   0  0  0  0  0  0  0  0  0  0  0  0
    1.7133   -1.5204   -1.7800 H   0  0  0  0  0  0  0  0  0  0  0  0
    4.9828    1.4362   -1.8592 H   0  0  0  0  0  0  0  0  0  0  0  0
    3.2865   -0.3041   -2.3173 H   0  0  0  0  0  0  0  0  0  0  0  0
    5.0715    3.1290    1.4063 H   0  0  0  0  0  0  0  0  0  0  0  0
    5.7912    3.0054   -0.1557 H   0  0  0  0  0  0  0  0  0  0  0  0
  2  1  1  6
  1 22  1  0
  2  3  2  0
  2  4  1  0
  2  5  1  0
  4 23  1  0
  5  6  1  0
  6  7  1  0
  6 24  1  0
  6 25  1  0
  7  8  1  0
  7  9  1  0
  7 26  1  6
  8 13  1  0
  9 10  1  0
  9 11  1  0
  9 27  1  1
 10 28  1  0
 11 12  1  0
 11 13  1  0
 11 29  1  1
 12 30  1  0
 13 14  1  0
 13 31  1  6
 14 15  1  0
 14 19  1  0
 15 16  1  0
 15 20  2  0
 16 17  2  0
 17 18  1  0
 17 21  1  0
 18 19  2  0
 18 32  1  0
 19 33  1  0
 21 34  1  0
 21 35  1  0
M  END
