
     RDKit          3D

 14 15  0  0  0  0  0  0  0  0999 V2000
   -0.1996    0.6378    0.0047 C   0  0  0  0  0  0  0  0  0  0  0  0
    0.9677    1.3906    0.0034 C   0  0  0  0  0  0  0  0  0  0  0  0
    2.1473    0.6699   -0.0028 C   0  0  0  0  0  0  0  0  0  0  0  0
    2.1639   -0.7358   -0.0073 C   0  0  0  0  0  0  0  0  0  0  0  0
    0.9917   -1.4636   -0.0059 C   0  0  0  0  0  0  0  0  0  0  0  0
   -0.2084   -0.7503    0.0002 C   0  0  0  0  0  0  0  0  0  0  0  0
   -1.6026   -1.0558    0.0040 C   0  0  0  0  0  0  0  0  0  0  0  0
   -2.3187    0.0189    0.0095 N   0  0  0  0  0  0  0  0  0  0  0  0
   -1.4621    1.0929    0.0101 O   0  0  0  0  0  0  0  0  0  0  0  0
    0.9581    2.4717    0.0057 H   0  0  0  0  0  0  0  0  0  0  0  0
    3.0876    1.2054   -0.0040 H   0  0  0  0  0  0  0  0  0  0  0  0
    3.1155   -1.2499   -0.0120 H   0  0  0  0  0  0  0  0  0  0  0  0
    1.0023   -2.5451   -0.0096 H   0  0  0  0  0  0  0  0  0  0  0  0
   -2.0855   -2.0218    0.0027 H   0  0  0  0  0  0  0  0  0  0  0  0
  2  3  2  0
  2  1  1  0
  9  1  1  0
  9  8  1  0
  3  4  1  0
  1  6  2  0
  8  7  2  0
  4  5  2  0
  6  7  1  0
  6  5  1  0
  2 10  1  0
  3 11  1  0
  4 12  1  0
  5 13  1  0
  7 14  1  0
M  END
