
     RDKit          3D

 20 20  0  0  0  0  0  0  0  0999 V2000
    0.6574    0.8841    0.3009 C   0  0  0  0  0  0  0  0  0  0  0  0
    2.0636   -0.9525   -0.2212 C   0  0  1  0  0  0  0  0  0  0  0  0
    0.6250   -1.4605   -0.2389 C   0  0  0  0  0  0  0  0  0  0  0  0
   -0.1647   -0.3735    0.5024 C   0  0  2  0  0  0  0  0  0  0  0  0
    1.8342    0.4768   -0.2215 N   0  0  0  0  0  0  0  0  0  0  0  0
    2.8882    1.3321   -0.2840 O   0  0  0  0  0  0  0  0  0  0  0  0
    0.3304    2.0268    0.5390 O   0  0  0  0  0  0  0  0  0  0  0  0
    2.7177   -1.3955    0.9260 O   0  0  0  0  0  0  0  0  0  0  0  0
   -1.8747   -0.2296   -0.0721 P   0  0  1  0  0  0  0  0  0  0  0  0
    2.6109   -1.2271   -1.1267 H   0  0  0  0  0  0  0  0  0  0  0  0
    0.3006   -1.5543   -1.2756 H   0  0  0  0  0  0  0  0  0  0  0  0
    0.5381   -2.4378    0.2286 H   0  0  0  0  0  0  0  0  0  0  0  0
   -0.1944   -0.5849    1.5771 H   0  0  0  0  0  0  0  0  0  0  0  0
    2.9421    1.6287   -1.2027 H   0  0  0  0  0  0  0  0  0  0  0  0
    3.6594   -1.2099    0.8466 H   0  0  0  0  0  0  0  0  0  0  0  0
   -1.5890    1.5038   -1.4129 H   0  0  0  0  0  0  0  0  0  0  0  0
   -3.4488    0.9160    0.9228 H   0  0  0  0  0  0  0  0  0  0  0  0
   -1.8210    0.5671   -1.4670 O   0  0  0  0  0  0  0  0  0  0  0  0
   -2.5551   -1.5295   -0.2644 O   0  0  0  0  0  0  0  0  0  0  0  0
   -2.4974    0.7646    1.0166 O   0  0  0  0  0  0  0  0  0  0  0  0
  7  1  2  0
  1  4  1  0
  1  5  1  0
  4  3  1  0
  4  9  1  0
 19  9  2  0
  3  2  1  0
  5  6  1  0
  5  2  1  0
  9 20  1  1
  9 18  1  0
  8  2  1  0
  2 10  1  6
  3 11  1  0
  3 12  1  0
  4 13  1  1
  6 14  1  0
  8 15  1  0
 18 16  1  0
 20 17  1  0
M  END
