
     RDKit          3D

 63 67  0  0  0  0  0  0  0  0999 V2000
    6.4735    2.8829   -1.0470 O   0  0  0  0  0  0  0  0  0  0  0  0
    6.0921    2.0715   -0.2168 C   0  0  0  0  0  0  0  0  0  0  0  0
    6.8520    1.6584    0.8128 N   0  0  0  0  0  0  0  0  0  0  0  0
    4.7138    1.5287   -0.2867 C   0  0  0  0  0  0  0  0  0  0  0  0
    4.3134    0.2381    0.0633 N   0  0  0  0  0  0  0  0  0  0  0  0
    5.1585   -0.9377    0.2472 C   0  0  1  0  0  0  0  0  0  0  0  0
    4.8996   -1.6983    1.5727 C   0  0  0  0  0  0  0  0  0  0  0  0
    4.6171   -3.1479    1.1665 C   0  0  0  0  0  0  0  0  0  0  0  0
    5.3214   -3.3011   -0.1813 C   0  0  0  0  0  0  0  0  0  0  0  0
    5.0240   -1.9780   -0.8796 C   0  0  0  0  0  0  0  0  0  0  0  0
    3.6275    2.2891   -0.6065 C   0  0  0  0  0  0  0  0  0  0  0  0
    2.4880    1.4581   -0.4315 C   0  0  0  0  0  0  0  0  0  0  0  0
    2.9606    0.1930   -0.0283 C   0  0  0  0  0  0  0  0  0  0  0  0
    2.1957   -0.8583    0.2101 N   0  0  0  0  0  0  0  0  0  0  0  0
    1.1073    1.5587   -0.5434 C   0  0  0  0  0  0  0  0  0  0  0  0
    0.3181    0.5315   -0.2943 N   0  0  0  0  0  0  0  0  0  0  0  0
    0.8925   -0.6293    0.0662 C   0  0  0  0  0  0  0  0  0  0  0  0
    0.0876   -1.6926    0.3154 N   0  0  0  0  0  0  0  0  0  0  0  0
   -1.3016   -1.7542    0.2924 C   0  0  0  0  0  0  0  0  0  0  0  0
   -2.0063   -2.9381    0.1906 C   0  0  0  0  0  0  0  0  0  0  0  0
   -3.3326   -2.6645    0.2729 N   0  0  0  0  0  0  0  0  0  0  0  0
   -4.3625   -3.6811    0.2127 C   0  0  0  0  0  0  0  0  0  0  0  0
   -2.2526   -0.7225    0.4213 C   0  0  0  0  0  0  0  0  0  0  0  0
   -3.5014   -1.3173    0.3991 C   0  0  0  0  0  0  0  0  0  0  0  0
   -4.8126   -0.7082    0.6809 C   0  0  0  0  0  0  0  0  0  0  0  0
   -5.6279   -1.2969    1.3856 O   0  0  0  0  0  0  0  0  0  0  0  0
   -5.0345    0.5378    0.2040 N   0  0  0  0  0  0  0  0  0  0  0  0
   -4.4124    1.1362   -0.9645 C   0  0  0  0  0  0  0  0  0  0  0  0
   -3.9887    2.5620   -0.6647 C   0  0  0  0  0  0  0  0  0  0  0  0
   -5.1209    3.3411   -0.2055 N   0  0  0  0  0  0  0  0  0  0  0  0
   -4.7602    4.7194    0.0334 C   0  0  0  0  0  0  0  0  0  0  0  0
   -5.7245    2.7354    0.9637 C   0  0  0  0  0  0  0  0  0  0  0  0
   -6.1675    1.3099    0.6784 C   0  0  0  0  0  0  0  0  0  0  0  0
    6.4543    1.1896    1.6092 H   0  0  0  0  0  0  0  0  0  0  0  0
    7.7624    2.0700    0.9449 H   0  0  0  0  0  0  0  0  0  0  0  0
    6.1837   -0.5764    0.2449 H   0  0  0  0  0  0  0  0  0  0  0  0
    5.7923   -1.6431    2.1985 H   0  0  0  0  0  0  0  0  0  0  0  0
    4.0836   -1.2603    2.1458 H   0  0  0  0  0  0  0  0  0  0  0  0
    4.9588   -3.8669    1.9120 H   0  0  0  0  0  0  0  0  0  0  0  0
    3.5427   -3.2912    1.0341 H   0  0  0  0  0  0  0  0  0  0  0  0
    6.3988   -3.4208   -0.0343 H   0  0  0  0  0  0  0  0  0  0  0  0
    4.9739   -4.1640   -0.7509 H   0  0  0  0  0  0  0  0  0  0  0  0
    4.0067   -1.9917   -1.2732 H   0  0  0  0  0  0  0  0  0  0  0  0
    5.6982   -1.7602   -1.7085 H   0  0  0  0  0  0  0  0  0  0  0  0
    3.6476    3.3326   -0.8770 H   0  0  0  0  0  0  0  0  0  0  0  0
    0.6265    2.4846   -0.8427 H   0  0  0  0  0  0  0  0  0  0  0  0
    0.5763   -2.5457    0.5360 H   0  0  0  0  0  0  0  0  0  0  0  0
   -1.6491   -3.9471    0.0567 H   0  0  0  0  0  0  0  0  0  0  0  0
   -5.1874   -3.3581   -0.4165 H   0  0  0  0  0  0  0  0  0  0  0  0
   -3.9347   -4.5795   -0.2242 H   0  0  0  0  0  0  0  0  0  0  0  0
   -4.7461   -3.9173    1.2027 H   0  0  0  0  0  0  0  0  0  0  0  0
   -2.0553    0.3285    0.5358 H   0  0  0  0  0  0  0  0  0  0  0  0
   -3.5606    0.5486   -1.2937 H   0  0  0  0  0  0  0  0  0  0  0  0
   -5.1433    1.1426   -1.7815 H   0  0  0  0  0  0  0  0  0  0  0  0
   -3.1662    2.5522    0.0740 H   0  0  0  0  0  0  0  0  0  0  0  0
   -3.5932    3.0109   -1.5788 H   0  0  0  0  0  0  0  0  0  0  0  0
   -4.3708    5.1689   -0.8811 H   0  0  0  0  0  0  0  0  0  0  0  0
   -5.6406    5.2881    0.3364 H   0  0  0  0  0  0  0  0  0  0  0  0
   -3.9975    4.8393    0.8186 H   0  0  0  0  0  0  0  0  0  0  0  0
   -5.0339    2.7289    1.8257 H   0  0  0  0  0  0  0  0  0  0  0  0
   -6.5987    3.3209    1.2583 H   0  0  0  0  0  0  0  0  0  0  0  0
   -6.9633    1.3087   -0.0749 H   0  0  0  0  0  0  0  0  0  0  0  0
   -6.5664    0.8624    1.5848 H   0  0  0  0  0  0  0  0  0  0  0  0
 29 28  1  0
 29 30  1  0
 28 27  1  0
 30 31  1  0
 30 32  1  0
 26 25  2  0
 27 25  1  0
 27 33  1  0
 22 21  1  0
 32 33  1  0
 25 24  1  0
  9  8  1  0
  9 10  1  0
  8  7  1  0
 21 24  1  0
 21 20  1  0
 24 23  2  0
 10  6  1  0
  7  6  1  0
 20 19  2  0
 23 19  1  0
  6  5  1  0
 19 18  1  0
  3  2  1  0
  5 13  1  0
  5  4  1  0
 14 13  2  0
 14 17  1  0
 18 17  1  0
 13 12  1  0
  2  4  1  0
  2  1  2  0
 17 16  2  0
  4 11  2  0
 12 11  1  0
 12 15  2  0
 16 15  1  0
  3 34  1  0
  3 35  1  0
  6 36  1  1
  7 37  1  0
  7 38  1  0
  8 39  1  0
  8 40  1  0
  9 41  1  0
  9 42  1  0
 10 43  1  0
 10 44  1  0
 11 45  1  0
 15 46  1  0
 18 47  1  0
 20 48  1  0
 22 49  1  0
 22 50  1  0
 22 51  1  0
 23 52  1  0
 28 53  1  0
 28 54  1  0
 29 55  1  0
 29 56  1  0
 31 57  1  0
 31 58  1  0
 31 59  1  0
 32 60  1  0
 32 61  1  0
 33 62  1  0
 33 63  1  0
M  END
