
     RDKit          3D

 55 58  0  0  0  0  0  0  0  0999 V2000
   -5.1973   -4.0043    1.3438 Cl  0  0  0  0  0  0  0  0  0  0  0  0
   -4.5212   -2.4212    1.1278 C   0  0  0  0  0  0  0  0  0  0  0  0
   -4.4804   -1.5443    2.1996 C   0  0  0  0  0  0  0  0  0  0  0  0
   -3.9338   -0.2823    2.0145 C   0  0  0  0  0  0  0  0  0  0  0  0
   -4.0275   -2.0551   -0.1151 C   0  0  0  0  0  0  0  0  0  0  0  0
   -3.4879   -0.7885   -0.2800 C   0  0  0  0  0  0  0  0  0  0  0  0
   -3.4342    0.1114    0.7794 C   0  0  0  0  0  0  0  0  0  0  0  0
   -2.8957    1.5120    0.5889 C   0  0  2  0  0  0  0  0  0  0  0  0
   -3.9546    2.4119   -0.0480 C   0  0  0  0  0  0  0  0  0  0  0  0
   -3.5290    3.8688   -0.1156 C   0  0  0  0  0  0  0  0  0  0  0  0
   -4.6079    4.6176   -0.6296 O   0  0  0  0  0  0  0  0  0  0  0  0
   -1.6930    1.5276   -0.2162 N   0  0  0  0  0  0  0  0  0  0  0  0
   -0.5119    1.0815    0.2370 C   0  0  0  0  0  0  0  0  0  0  0  0
   -0.3655    0.6649    1.3777 O   0  0  0  0  0  0  0  0  0  0  0  0
    0.6654    1.1307   -0.7584 C   0  0  2  0  0  0  0  0  0  0  0  0
    1.7681    2.0079   -0.1357 C   0  0  0  0  0  0  0  0  0  0  0  0
    3.0864    1.8930   -0.8942 C   0  0  0  0  0  0  0  0  0  0  0  0
    0.3596    1.6584   -2.0709 N   0  0  0  0  0  0  0  0  0  0  0  0
    1.1876   -0.3085   -0.9330 C   0  0  0  0  0  0  0  0  0  0  0  0
    2.5214   -0.3067   -1.6662 C   0  0  0  0  0  0  0  0  0  0  0  0
    3.4937    0.4983   -0.9583 N   0  0  0  0  0  0  0  0  0  0  0  0
    4.4210   -0.0038   -0.1123 C   0  0  0  0  0  0  0  0  0  0  0  0
    5.2581    0.8764    0.4510 N   0  0  0  0  0  0  0  0  0  0  0  0
    6.2347    0.4543    1.2424 C   0  0  0  0  0  0  0  0  0  0  0  0
    6.5198   -0.7838    1.5853 N   0  0  0  0  0  0  0  0  0  0  0  0
    4.5836   -1.3802    0.2003 C   0  0  0  0  0  0  0  0  0  0  0  0
    3.9369   -2.6376   -0.0500 C   0  0  0  0  0  0  0  0  0  0  0  0
    4.6435   -3.5864    0.6251 C   0  0  0  0  0  0  0  0  0  0  0  0
    5.6885   -2.9956    1.2823 N   0  0  0  0  0  0  0  0  0  0  0  0
    5.6679   -1.6635    1.0532 C   0  0  0  0  0  0  0  0  0  0  0  0
   -4.8611   -1.8390    3.1681 H   0  0  0  0  0  0  0  0  0  0  0  0
   -3.8969    0.4024    2.8535 H   0  0  0  0  0  0  0  0  0  0  0  0
   -4.0620   -2.7463   -0.9463 H   0  0  0  0  0  0  0  0  0  0  0  0
   -3.1016   -0.5087   -1.2526 H   0  0  0  0  0  0  0  0  0  0  0  0
   -2.6503    1.9176    1.5753 H   0  0  0  0  0  0  0  0  0  0  0  0
   -4.2001    2.0411   -1.0489 H   0  0  0  0  0  0  0  0  0  0  0  0
   -4.8646    2.3351    0.5514 H   0  0  0  0  0  0  0  0  0  0  0  0
   -3.2451    4.2051    0.8907 H   0  0  0  0  0  0  0  0  0  0  0  0
   -2.6384    3.9762   -0.7469 H   0  0  0  0  0  0  0  0  0  0  0  0
   -4.3323    5.5366   -0.6904 H   0  0  0  0  0  0  0  0  0  0  0  0
   -1.7631    1.8060   -1.1809 H   0  0  0  0  0  0  0  0  0  0  0  0
    1.4438    3.0531   -0.1260 H   0  0  0  0  0  0  0  0  0  0  0  0
    1.9274    1.7115    0.9025 H   0  0  0  0  0  0  0  0  0  0  0  0
    2.9724    2.2673   -1.9136 H   0  0  0  0  0  0  0  0  0  0  0  0
    3.8578    2.4799   -0.4062 H   0  0  0  0  0  0  0  0  0  0  0  0
   -0.2999    1.0952   -2.5912 H   0  0  0  0  0  0  0  0  0  0  0  0
    0.0463    2.6195   -2.0545 H   0  0  0  0  0  0  0  0  0  0  0  0
    1.3079   -0.7815    0.0434 H   0  0  0  0  0  0  0  0  0  0  0  0
    0.4582   -0.9022   -1.4927 H   0  0  0  0  0  0  0  0  0  0  0  0
    2.8941   -1.3118   -1.8280 H   0  0  0  0  0  0  0  0  0  0  0  0
    2.3945    0.1302   -2.6586 H   0  0  0  0  0  0  0  0  0  0  0  0
    6.8754    1.2298    1.6511 H   0  0  0  0  0  0  0  0  0  0  0  0
    3.0570   -2.8457   -0.6334 H   0  0  0  0  0  0  0  0  0  0  0  0
    4.4779   -4.6487    0.6932 H   0  0  0  0  0  0  0  0  0  0  0  0
    6.3560   -3.4694    1.8693 H   0  0  0  0  0  0  0  0  0  0  0  0
 25 30  2  0
 25 24  1  0
 29 30  1  0
 29 28  1  0
 30 26  1  0
 24 23  2  0
 28 27  2  0
 26 27  1  0
 26 22  2  0
 23 22  1  0
 22 21  1  0
 21 17  1  0
 21 20  1  0
 17 16  1  0
  1  2  1  0
 20 19  1  0
  2  5  2  0
  2  3  1  0
 16 15  1  0
 19 15  1  0
  5  6  1  0
  3  4  2  0
 15 13  1  1
 15 18  1  0
 14 13  2  0
  6  7  2  0
  4  7  1  0
 13 12  1  0
  7  8  1  0
 12  8  1  0
  8  9  1  0
  9 10  1  0
 10 11  1  0
  3 31  1  0
  4 32  1  0
  5 33  1  0
  6 34  1  0
  8 35  1  1
  9 36  1  0
  9 37  1  0
 10 38  1  0
 10 39  1  0
 11 40  1  0
 12 41  1  0
 16 42  1  0
 16 43  1  0
 17 44  1  0
 17 45  1  0
 18 46  1  0
 18 47  1  0
 19 48  1  0
 19 49  1  0
 20 50  1  0
 20 51  1  0
 24 52  1  0
 27 53  1  0
 28 54  1  0
 29 55  1  0
M  END
