
     RDKit          3D

 30 32  0  0  0  0  0  0  0  0999 V2000
    1.2429    2.1782   -0.3056 N   0  0  0  0  0  0  0  0  0  0  0  0
    1.6952    0.9226   -0.1972 C   0  0  0  0  0  0  0  0  0  0  0  0
    3.0290    0.5774   -0.0785 C   0  0  0  0  0  0  0  0  0  0  0  0
    3.3100   -1.1544    0.0120 S   0  0  0  0  0  0  0  0  0  0  0  0
    1.6144   -1.4453   -0.1035 C   0  0  0  0  0  0  0  0  0  0  0  0
    0.8645   -0.2580   -0.2134 C   0  0  0  0  0  0  0  0  0  0  0  0
   -0.5197   -0.4060   -0.3121 C   0  0  0  0  0  0  0  0  0  0  0  0
   -1.4408    0.7442   -0.4507 C   0  0  0  0  0  0  0  0  0  0  0  0
   -1.8036    1.1953   -1.7166 C   0  0  0  0  0  0  0  0  0  0  0  0
   -2.6671    2.2699   -1.8590 C   0  0  0  0  0  0  0  0  0  0  0  0
   -3.1764    2.9006   -0.7324 C   0  0  0  0  0  0  0  0  0  0  0  0
   -2.8296    2.4609    0.5364 C   0  0  0  0  0  0  0  0  0  0  0  0
   -1.9661    1.3849    0.6678 C   0  0  0  0  0  0  0  0  0  0  0  0
   -1.5206    0.8352    2.2451 Cl  0  0  0  0  0  0  0  0  0  0  0  0
   -1.0434   -1.6880   -0.2924 C   0  0  0  0  0  0  0  0  0  0  0  0
   -2.4460   -1.8824   -0.3717 C   0  0  0  0  0  0  0  0  0  0  0  0
   -3.5808   -2.0801   -0.4319 N   0  0  0  0  0  0  0  0  0  0  0  0
   -0.1795   -2.8233   -0.1759 C   0  0  0  0  0  0  0  0  0  0  0  0
   -0.6660   -4.0628   -0.1576 N   0  0  0  0  0  0  0  0  0  0  0  0
    1.1376   -2.6707   -0.0844 N   0  0  0  0  0  0  0  0  0  0  0  0
    4.0903    1.4827   -0.0298 C   0  0  0  0  0  0  0  0  0  0  0  0
    4.9630    2.2424    0.0103 N   0  0  0  0  0  0  0  0  0  0  0  0
    1.8652    2.9603   -0.1928 H   0  0  0  0  0  0  0  0  0  0  0  0
    0.2615    2.3861   -0.2923 H   0  0  0  0  0  0  0  0  0  0  0  0
   -1.3973    0.7021   -2.5900 H   0  0  0  0  0  0  0  0  0  0  0  0
   -2.9375    2.6149   -2.8472 H   0  0  0  0  0  0  0  0  0  0  0  0
   -3.8468    3.7429   -0.8354 H   0  0  0  0  0  0  0  0  0  0  0  0
   -3.2239    2.9513    1.4156 H   0  0  0  0  0  0  0  0  0  0  0  0
   -1.6503   -4.2618   -0.2055 H   0  0  0  0  0  0  0  0  0  0  0  0
   -0.0378   -4.8416   -0.0511 H   0  0  0  0  0  0  0  0  0  0  0  0
  1  2  1  0
  2  3  2  0
  2  6  1  0
  3  4  1  0
  3 21  1  0
  4  5  1  0
  5  6  2  0
  5 20  1  0
  6  7  1  0
  7  8  1  0
  7 15  2  0
  8  9  2  0
  8 13  1  0
  9 10  1  0
 10 11  2  0
 11 12  1  0
 12 13  2  0
 13 14  1  0
 15 16  1  0
 15 18  1  0
 16 17  3  0
 18 19  1  0
 18 20  2  0
 21 22  3  0
  1 23  1  0
  1 24  1  0
  9 25  1  0
 10 26  1  0
 11 27  1  0
 12 28  1  0
 19 29  1  0
 19 30  1  0
M  END
