
     RDKit          3D

 42 44  0  0  0  0  0  0  0  0999 V2000
    0.7031    2.7812    1.0585 C   0  0  0  0  0  0  0  0  0  0  0  0
    1.9421    0.8160    0.4522 N   0  0  0  0  0  0  0  0  0  0  0  0
    6.2676    1.7694    0.6531 O   0  0  0  0  0  0  0  0  0  0  0  0
    6.6830    0.7058    0.2702 C   0  0  0  0  0  0  0  0  0  0  0  0
    7.9615    0.4119    0.1164 O   0  0  0  0  0  0  0  0  0  0  0  0
    5.8113   -0.4676   -0.0977 C   0  0  0  0  0  0  0  0  0  0  0  0
    4.4299   -0.1226    0.0746 N   0  0  0  0  0  0  0  0  0  0  0  0
    3.4425   -0.9895   -0.1302 C   0  0  0  0  0  0  0  0  0  0  0  0
    3.6404   -2.1651   -0.4773 O   0  0  0  0  0  0  0  0  0  0  0  0
    2.0740   -0.4773    0.0768 C   0  0  0  0  0  0  0  0  0  0  0  0
    0.9945   -1.3152   -0.1208 C   0  0  0  0  0  0  0  0  0  0  0  0
    1.1103   -2.5834   -0.4898 O   0  0  0  0  0  0  0  0  0  0  0  0
   -0.3088   -0.7813    0.0826 C   0  0  0  0  0  0  0  0  0  0  0  0
   -1.4739   -1.5544   -0.0923 C   0  0  0  0  0  0  0  0  0  0  0  0
   -2.7109   -1.0056    0.1094 C   0  0  0  0  0  0  0  0  0  0  0  0
   -2.8216    0.3449    0.4930 C   0  0  0  0  0  0  0  0  0  0  0  0
   -1.7028    1.1199    0.6724 C   0  0  0  0  0  0  0  0  0  0  0  0
   -0.4243    0.5691    0.4758 C   0  0  0  0  0  0  0  0  0  0  0  0
    0.7724    1.3429    0.6493 C   0  0  0  0  0  0  0  0  0  0  0  0
   -5.1134    0.5735   -0.0159 C   0  0  0  0  0  0  0  0  0  0  0  0
   -5.0447    0.5780   -1.4037 C   0  0  0  0  0  0  0  0  0  0  0  0
   -6.1826    0.2756   -2.1378 C   0  0  0  0  0  0  0  0  0  0  0  0
   -7.3789   -0.0204   -1.4967 C   0  0  0  0  0  0  0  0  0  0  0  0
   -7.4334   -0.0124   -0.1094 C   0  0  0  0  0  0  0  0  0  0  0  0
   -6.3001    0.2785    0.6381 C   0  0  0  0  0  0  0  0  0  0  0  0
    0.2056    2.9021    2.0227 H   0  0  0  0  0  0  0  0  0  0  0  0
    1.7066    3.1924    1.1403 H   0  0  0  0  0  0  0  0  0  0  0  0
    0.1460    3.3771    0.3331 H   0  0  0  0  0  0  0  0  0  0  0  0
    8.5151    1.1695    0.3591 H   0  0  0  0  0  0  0  0  0  0  0  0
    6.0287   -0.7555   -1.1310 H   0  0  0  0  0  0  0  0  0  0  0  0
    6.0920   -1.3202    0.5280 H   0  0  0  0  0  0  0  0  0  0  0  0
    4.1802    0.8160    0.3556 H   0  0  0  0  0  0  0  0  0  0  0  0
    2.0814   -2.7628   -0.5774 H   0  0  0  0  0  0  0  0  0  0  0  0
   -1.3974   -2.5936   -0.3799 H   0  0  0  0  0  0  0  0  0  0  0  0
   -3.5967   -1.6146   -0.0155 H   0  0  0  0  0  0  0  0  0  0  0  0
   -1.8181    2.1551    0.9655 H   0  0  0  0  0  0  0  0  0  0  0  0
   -4.1191    0.8212   -1.9109 H   0  0  0  0  0  0  0  0  0  0  0  0
   -6.1318    0.2785   -3.2186 H   0  0  0  0  0  0  0  0  0  0  0  0
   -8.2628   -0.2538   -2.0751 H   0  0  0  0  0  0  0  0  0  0  0  0
   -8.3601   -0.2437    0.3991 H   0  0  0  0  0  0  0  0  0  0  0  0
   -6.3359    0.2795    1.7200 H   0  0  0  0  0  0  0  0  0  0  0  0
   -4.0290    0.9122    0.7531 O   0  0  0  0  0  0  0  0  0  0  0  0
  3  4  2  0
  5  4  1  0
  4  6  1  0
  6  7  1  0
  7  8  1  0
  8  9  2  0
  8 10  1  0
  2 10  2  0
  2 19  1  0
 10 11  1  0
  1 19  1  0
 19 18  2  0
 12 11  1  0
 11 13  2  0
 18 13  1  0
 18 17  1  0
 13 14  1  0
 17 16  2  0
 14 15  2  0
 16 15  1  0
 16 42  1  0
 42 20  1  0
 21 20  2  0
 21 22  1  0
 20 25  1  0
 22 23  2  0
 25 24  2  0
 23 24  1  0
  1 26  1  0
  1 27  1  0
  1 28  1  0
  5 29  1  0
  6 30  1  0
  6 31  1  0
  7 32  1  0
 12 33  1  0
 14 34  1  0
 15 35  1  0
 17 36  1  0
 21 37  1  0
 22 38  1  0
 23 39  1  0
 24 40  1  0
 25 41  1  0
M  END
