
     RDKit          3D

 52 54  0  0  0  0  0  0  0  0999 V2000
   -4.1343   -1.3549    0.1367 N   0  0  0  0  0  0  0  0  0  0  0  0
   -5.2155   -2.1094    0.2958 C   0  0  0  0  0  0  0  0  0  0  0  0
   -5.0608   -3.2824    0.9790 N   0  0  0  0  0  0  0  0  0  0  0  0
   -6.4816   -1.7168   -0.1741 C   0  0  0  0  0  0  0  0  0  0  0  0
   -6.6106   -0.5046   -0.8193 C   0  0  0  0  0  0  0  0  0  0  0  0
   -5.4638    0.2833   -0.9777 C   0  0  0  0  0  0  0  0  0  0  0  0
   -4.2572   -0.1811   -0.4877 C   0  0  0  0  0  0  0  0  0  0  0  0
   -7.9359   -0.0275   -1.3291 C   0  0  0  0  0  0  0  0  0  0  0  0
   -3.0006    0.6331   -0.6097 C   0  0  0  0  0  0  0  0  0  0  0  0
   -2.5362    1.1690    0.7509 C   0  0  0  0  0  0  0  0  0  0  0  0
   -0.0088    3.9556    0.2425 C   0  0  0  0  0  0  0  0  0  0  0  0
   -1.2168    3.2830    0.3669 C   0  0  0  0  0  0  0  0  0  0  0  0
   -1.2383    1.9183    0.6442 C   0  0  0  0  0  0  0  0  0  0  0  0
   -0.0252    1.2505    0.7873 C   0  0  0  0  0  0  0  0  0  0  0  0
    1.1953    1.9095    0.6703 C   0  0  0  0  0  0  0  0  0  0  0  0
    1.1913    3.2742    0.3927 C   0  0  0  0  0  0  0  0  0  0  0  0
    2.4845    1.1493    0.8041 C   0  0  0  0  0  0  0  0  0  0  0  0
    2.9724    0.6129   -0.5495 C   0  0  0  0  0  0  0  0  0  0  0  0
    5.4676    0.3572   -0.6217 C   0  0  0  0  0  0  0  0  0  0  0  0
    6.6119   -0.4346   -0.4225 C   0  0  0  0  0  0  0  0  0  0  0  0
    7.8605    0.0936   -0.5864 N   0  0  0  0  0  0  0  0  0  0  0  0
    6.5398   -1.7021   -0.0297 N   0  0  0  0  0  0  0  0  0  0  0  0
    5.3382   -2.2400    0.1919 C   0  0  0  0  0  0  0  0  0  0  0  0
    4.1617   -1.5303    0.0253 C   0  0  0  0  0  0  0  0  0  0  0  0
    4.2254   -0.1984   -0.3964 C   0  0  0  0  0  0  0  0  0  0  0  0
   -4.1192   -3.6333    1.0438 H   0  0  0  0  0  0  0  0  0  0  0  0
   -5.7519   -3.9986    0.8308 H   0  0  0  0  0  0  0  0  0  0  0  0
   -7.3388   -2.3636   -0.0303 H   0  0  0  0  0  0  0  0  0  0  0  0
   -5.5172    1.2399   -1.4827 H   0  0  0  0  0  0  0  0  0  0  0  0
   -8.2776    0.8362   -0.7562 H   0  0  0  0  0  0  0  0  0  0  0  0
   -7.8640    0.2894   -2.3700 H   0  0  0  0  0  0  0  0  0  0  0  0
   -8.7003   -0.7994   -1.2584 H   0  0  0  0  0  0  0  0  0  0  0  0
   -2.2085    0.0124   -1.0376 H   0  0  0  0  0  0  0  0  0  0  0  0
   -3.1598    1.4657   -1.2983 H   0  0  0  0  0  0  0  0  0  0  0  0
   -3.3118    1.8184    1.1646 H   0  0  0  0  0  0  0  0  0  0  0  0
   -2.4255    0.3304    1.4420 H   0  0  0  0  0  0  0  0  0  0  0  0
   -0.0025    5.0184    0.0360 H   0  0  0  0  0  0  0  0  0  0  0  0
   -2.1489    3.8249    0.2551 H   0  0  0  0  0  0  0  0  0  0  0  0
   -0.0317    0.1868    1.0058 H   0  0  0  0  0  0  0  0  0  0  0  0
    2.1296    3.8090    0.3007 H   0  0  0  0  0  0  0  0  0  0  0  0
    3.2584    1.7892    1.2351 H   0  0  0  0  0  0  0  0  0  0  0  0
    2.3500    0.3131    1.4952 H   0  0  0  0  0  0  0  0  0  0  0  0
    2.1856   -0.0011   -0.9950 H   0  0  0  0  0  0  0  0  0  0  0  0
    3.1464    1.4490   -1.2306 H   0  0  0  0  0  0  0  0  0  0  0  0
    5.5658    1.3862   -0.9475 H   0  0  0  0  0  0  0  0  0  0  0  0
    7.9486    0.9110   -1.1665 H   0  0  0  0  0  0  0  0  0  0  0  0
    8.6113   -0.5687   -0.6937 H   0  0  0  0  0  0  0  0  0  0  0  0
    3.2063   -2.0036    0.2160 H   0  0  0  0  0  0  0  0  0  0  0  0
    5.9662   -3.8274    1.4908 H   0  0  0  0  0  0  0  0  0  0  0  0
    4.3207   -4.0126    0.8735 H   0  0  0  0  0  0  0  0  0  0  0  0
    5.7066   -4.3195   -0.1736 H   0  0  0  0  0  0  0  0  0  0  0  0
    5.3249   -3.6762    0.6216 C   0  0  0  0  0  0  0  0  0  0  0  0
  2  1  2  0
  7  1  1  0
  4  2  1  0
  2  3  1  0
  3 26  1  0
  3 27  1  0
  5  4  2  0
  4 28  1  0
  8  5  1  0
  5  6  1  0
  6  7  2  0
  6 29  1  0
  7  9  1  0
  8 30  1  0
  8 31  1  0
  8 32  1  0
  9 10  1  0
  9 33  1  0
  9 34  1  0
 10 13  1  0
 10 35  1  0
 10 36  1  0
 12 11  2  0
 11 16  1  0
 11 37  1  0
 13 12  1  0
 12 38  1  0
 13 14  2  0
 14 15  1  0
 14 39  1  0
 15 17  1  0
 15 16  2  0
 16 40  1  0
 17 18  1  0
 17 41  1  0
 17 42  1  0
 25 18  1  0
 18 43  1  0
 18 44  1  0
 25 19  2  0
 20 19  1  0
 19 45  1  0
 22 20  2  0
 20 21  1  0
 21 46  1  0
 21 47  1  0
 23 22  1  0
 52 23  1  0
 23 24  2  0
 24 25  1  0
 24 48  1  0
 52 49  1  0
 52 50  1  0
 52 51  1  0
M  END
