
     RDKit          3D

 63 67  0  0  0  0  0  0  0  0999 V2000
    0.6261   -3.7868   -0.2010 O   0  0  0  0  0  0  0  0  0  0  0  0
    1.3660   -3.1615    0.8718 S   0  0  1  0  0  0  0  0  0  0  0  0
    1.4447   -3.7950    2.1744 O   0  0  0  0  0  0  0  0  0  0  0  0
    2.9945   -2.7767    0.3142 C   0  0  0  0  0  0  0  0  0  0  0  0
    3.9714   -2.4943    1.2614 C   0  0  0  0  0  0  0  0  0  0  0  0
    5.2531   -2.1966    0.8278 C   0  0  0  0  0  0  0  0  0  0  0  0
    5.5457   -2.1888   -0.5307 C   0  0  0  0  0  0  0  0  0  0  0  0
    4.5590   -2.4785   -1.4629 C   0  0  0  0  0  0  0  0  0  0  0  0
    3.2700   -2.7738   -1.0455 C   0  0  0  0  0  0  0  0  0  0  0  0
    0.6684   -1.6683    1.2086 N   0  0  0  0  0  0  0  0  0  0  0  0
    0.4138   -0.7148    0.2430 C   0  0  0  0  0  0  0  0  0  0  0  0
    0.7139   -0.8766   -0.9145 O   0  0  0  0  0  0  0  0  0  0  0  0
   -0.2050    0.5155    0.7704 C   0  0  0  0  0  0  0  0  0  0  0  0
   -1.2467    0.4950    1.6783 N   0  0  0  0  0  0  0  0  0  0  0  0
   -2.1156   -0.6399    1.9337 C   0  0  0  0  0  0  0  0  0  0  0  0
   -2.6244   -1.2582    0.6573 C   0  0  0  0  0  0  0  0  0  0  0  0
   -2.5078   -2.6247    0.4379 C   0  0  0  0  0  0  0  0  0  0  0  0
   -2.9773   -3.1898   -0.7380 C   0  0  0  0  0  0  0  0  0  0  0  0
   -3.2098   -0.4607   -0.3172 C   0  0  0  0  0  0  0  0  0  0  0  0
   -3.6786   -1.0264   -1.4955 C   0  0  0  0  0  0  0  0  0  0  0  0
   -4.2856   -0.1239   -2.5231 C   0  0  1  0  0  0  0  0  0  0  0  0
   -4.8091   -0.7912   -3.5547 F   0  0  0  0  0  0  0  0  0  0  0  0
   -5.2670    0.6292   -2.0049 F   0  0  0  0  0  0  0  0  0  0  0  0
   -3.3813    0.7294   -3.0271 F   0  0  0  0  0  0  0  0  0  0  0  0
   -3.5647   -2.3945   -1.7104 C   0  0  0  0  0  0  0  0  0  0  0  0
   -1.5155    1.7851    2.0483 C   0  0  0  0  0  0  0  0  0  0  0  0
   -2.5005    2.2917    2.8992 C   0  0  0  0  0  0  0  0  0  0  0  0
   -2.5338    3.6574    3.0905 C   0  0  0  0  0  0  0  0  0  0  0  0
   -1.6204    4.5139    2.4508 C   0  0  0  0  0  0  0  0  0  0  0  0
   -0.6573    4.0125    1.6022 C   0  0  0  0  0  0  0  0  0  0  0  0
    0.2249    1.8036    0.5632 C   0  0  0  0  0  0  0  0  0  0  0  0
   -0.6004    2.6295    1.3909 C   0  0  0  0  0  0  0  0  0  0  0  0
    1.3428    2.2790   -0.2592 C   0  0  0  0  0  0  0  0  0  0  0  0
    2.3556    3.0524    0.3173 C   0  0  0  0  0  0  0  0  0  0  0  0
    3.4115    3.5291   -0.4337 C   0  0  0  0  0  0  0  0  0  0  0  0
    1.4221    2.0204   -1.6232 C   0  0  0  0  0  0  0  0  0  0  0  0
    2.4763    2.4935   -2.3932 C   0  0  0  0  0  0  0  0  0  0  0  0
    3.4843    3.2490   -1.8003 C   0  0  0  0  0  0  0  0  0  0  0  0
    4.5475    3.7489   -2.4569 O   0  0  0  0  0  0  0  0  0  0  0  0
    4.6788    3.4725   -3.8371 C   0  0  0  0  0  0  0  0  0  0  0  0
    3.7491   -2.5089    2.3200 H   0  0  0  0  0  0  0  0  0  0  0  0
    6.0249   -1.9773    1.5529 H   0  0  0  0  0  0  0  0  0  0  0  0
    6.5492   -1.9581   -0.8626 H   0  0  0  0  0  0  0  0  0  0  0  0
    4.7896   -2.4755   -2.5195 H   0  0  0  0  0  0  0  0  0  0  0  0
    2.5013   -2.9995   -1.7704 H   0  0  0  0  0  0  0  0  0  0  0  0
    0.6726   -1.4061    2.1880 H   0  0  0  0  0  0  0  0  0  0  0  0
   -1.6109   -1.3898    2.5429 H   0  0  0  0  0  0  0  0  0  0  0  0
   -2.9534   -0.2810    2.5312 H   0  0  0  0  0  0  0  0  0  0  0  0
   -2.0407   -3.2504    1.1879 H   0  0  0  0  0  0  0  0  0  0  0  0
   -2.8782   -4.2538   -0.9040 H   0  0  0  0  0  0  0  0  0  0  0  0
   -3.2986    0.6069   -0.1492 H   0  0  0  0  0  0  0  0  0  0  0  0
   -3.9234   -2.8492   -2.6232 H   0  0  0  0  0  0  0  0  0  0  0  0
   -3.2110    1.6480    3.4008 H   0  0  0  0  0  0  0  0  0  0  0  0
   -3.2814    4.0795    3.7495 H   0  0  0  0  0  0  0  0  0  0  0  0
   -1.6814    5.5796    2.6279 H   0  0  0  0  0  0  0  0  0  0  0  0
    0.0384    4.6741    1.1019 H   0  0  0  0  0  0  0  0  0  0  0  0
    2.3243    3.2739    1.3772 H   0  0  0  0  0  0  0  0  0  0  0  0
    4.1910    4.1174    0.0341 H   0  0  0  0  0  0  0  0  0  0  0  0
    0.6428    1.4482   -2.1057 H   0  0  0  0  0  0  0  0  0  0  0  0
    2.4891    2.2654   -3.4503 H   0  0  0  0  0  0  0  0  0  0  0  0
    5.5979    3.9531   -4.1628 H   0  0  0  0  0  0  0  0  0  0  0  0
    4.7532    2.3995   -4.0329 H   0  0  0  0  0  0  0  0  0  0  0  0
    3.8462    3.8784   -4.4174 H   0  0  0  0  0  0  0  0  0  0  0  0
  1  2  2  0
  2  3  2  0
  2  4  1  0
  2 10  1  1
  4  5  2  0
  4  9  1  0
  5  6  1  0
  5 41  1  0
  6  7  2  0
  6 42  1  0
  7  8  1  0
  7 43  1  0
  8  9  2  0
  8 44  1  0
  9 45  1  0
 10 11  1  0
 10 46  1  0
 11 12  2  0
 11 13  1  0
 13 14  1  0
 13 31  2  0
 14 15  1  0
 14 26  1  0
 15 16  1  0
 15 47  1  0
 15 48  1  0
 16 17  2  0
 16 19  1  0
 17 18  1  0
 17 49  1  0
 18 25  2  0
 18 50  1  0
 19 20  2  0
 19 51  1  0
 20 21  1  0
 20 25  1  0
 21 22  1  6
 21 23  1  0
 21 24  1  0
 25 52  1  0
 26 27  2  0
 26 32  1  0
 27 28  1  0
 27 53  1  0
 28 29  2  0
 28 54  1  0
 29 30  1  0
 29 55  1  0
 30 32  2  0
 30 56  1  0
 31 32  1  0
 31 33  1  0
 33 34  2  0
 33 36  1  0
 34 35  1  0
 34 57  1  0
 35 38  2  0
 35 58  1  0
 36 37  2  0
 36 59  1  0
 37 38  1  0
 37 60  1  0
 38 39  1  0
 39 40  1  0
 40 61  1  0
 40 62  1  0
 40 63  1  0
M  END
