
     RDKit          3D

103102  0  0  0  0  0  0  0  0999 V2000
   18.9135    3.5004   -1.2963 C   0  0  0  0  0  0  0  0  0  0  0  0
   17.9693    2.5232   -0.6095 C   0  0  0  0  0  0  0  0  0  0  0  0
   16.5145    2.7203   -1.0182 C   0  0  0  0  0  0  0  0  0  0  0  0
   15.5578    1.7426   -0.3473 C   0  0  0  0  0  0  0  0  0  0  0  0
   14.1066    1.9405   -0.7675 C   0  0  0  0  0  0  0  0  0  0  0  0
   13.1432    0.9639   -0.1044 C   0  0  0  0  0  0  0  0  0  0  0  0
   11.6952    1.1714   -0.5308 C   0  0  0  0  0  0  0  0  0  0  0  0
   10.7196    0.2073    0.1328 C   0  0  0  0  0  0  0  0  0  0  0  0
    9.2751    0.4351   -0.2952 C   0  0  0  0  0  0  0  0  0  0  0  0
    8.2810   -0.5024    0.3792 C   0  0  0  0  0  0  0  0  0  0  0  0
    6.8407   -0.2408   -0.0439 C   0  0  0  0  0  0  0  0  0  0  0  0
    5.8240   -1.1380    0.6510 C   0  0  0  0  0  0  0  0  0  0  0  0
    4.3884   -0.8324    0.2404 C   0  0  0  0  0  0  0  0  0  0  0  0
    3.3528   -1.6858    0.9611 C   0  0  0  0  0  0  0  0  0  0  0  0
    1.9217   -1.3377    0.5699 C   0  0  0  0  0  0  0  0  0  0  0  0
    0.8848   -2.1644    1.3192 C   0  0  0  0  0  0  0  0  0  0  0  0
   -0.5354   -1.7643    0.9476 C   0  0  0  0  0  0  0  0  0  0  0  0
   -1.5875   -2.5430    1.6859 C   0  0  0  0  0  0  0  0  0  0  0  0
   -1.3968   -3.5651    2.2940 O   0  0  0  0  0  0  0  0  0  0  0  0
   -2.7864   -1.9654    1.5798 O   0  0  0  0  0  0  0  0  0  0  0  0
   -3.9022   -2.5686    2.2368 C   0  0  2  0  0  0  0  0  0  0  0  0
   -4.5549   -3.6206    1.3627 C   0  0  0  0  0  0  0  0  0  0  0  0
   -5.0103   -3.0872    0.1188 O   0  0  0  0  0  0  0  0  0  0  0  0
   -6.5670   -3.0870   -0.2312 P   0  0  1  0  0  0  0  0  0  0  0  0
   -7.0174   -4.6193   -0.3478 O   0  0  0  0  0  0  0  0  0  0  0  0
   -7.4762   -2.3950    0.7033 O   0  0  0  0  0  0  0  0  0  0  0  0
   -6.4332   -2.5151   -1.7061 O   0  0  0  0  0  0  0  0  0  0  0  0
   -7.5947   -2.3556   -2.5393 C   0  0  0  0  0  0  0  0  0  0  0  0
   -8.1839   -0.9664   -2.4492 C   0  0  0  0  0  0  0  0  0  0  0  0
   -7.2171    0.0447   -2.8336 N   0  0  0  0  0  0  0  0  0  0  0  0
   -4.8124   -1.4587    2.7100 C   0  0  0  0  0  0  0  0  0  0  0  0
   -5.1479   -0.6112    1.6179 O   0  0  0  0  0  0  0  0  0  0  0  0
   -6.1224    0.2713    1.8139 C   0  0  0  0  0  0  0  0  0  0  0  0
   -6.6856    0.4033    2.8722 O   0  0  0  0  0  0  0  0  0  0  0  0
   -6.4193    1.0628    0.5719 C   0  0  0  0  0  0  0  0  0  0  0  0
   -7.3209    2.2614    0.8296 C   0  0  0  0  0  0  0  0  0  0  0  0
   -7.7163    2.9856   -0.4501 C   0  0  0  0  0  0  0  0  0  0  0  0
   -8.5637    4.2245   -0.1884 C   0  0  0  0  0  0  0  0  0  0  0  0
   -9.0202    4.9186   -1.4648 C   0  0  0  0  0  0  0  0  0  0  0  0
   -9.8803    6.1501   -1.2075 C   0  0  0  0  0  0  0  0  0  0  0  0
  -10.3362    6.8314   -2.4903 C   0  0  0  0  0  0  0  0  0  0  0  0
   18.8565    3.4052   -2.3824 H   0  0  0  0  0  0  0  0  0  0  0  0
   18.6646    4.5330   -1.0442 H   0  0  0  0  0  0  0  0  0  0  0  0
   19.9504    3.3311   -1.0040 H   0  0  0  0  0  0  0  0  0  0  0  0
   18.2739    1.4974   -0.8392 H   0  0  0  0  0  0  0  0  0  0  0  0
   18.0584    2.6293    0.4763 H   0  0  0  0  0  0  0  0  0  0  0  0
   16.2087    3.7460   -0.7831 H   0  0  0  0  0  0  0  0  0  0  0  0
   16.4282    2.6214   -2.1062 H   0  0  0  0  0  0  0  0  0  0  0  0
   15.8664    0.7171   -0.5795 H   0  0  0  0  0  0  0  0  0  0  0  0
   15.6389    1.8443    0.7408 H   0  0  0  0  0  0  0  0  0  0  0  0
   13.7988    2.9659   -0.5338 H   0  0  0  0  0  0  0  0  0  0  0  0
   14.0279    1.8422   -1.8561 H   0  0  0  0  0  0  0  0  0  0  0  0
   13.4483   -0.0622   -0.3383 H   0  0  0  0  0  0  0  0  0  0  0  0
   13.2197    1.0621    0.9843 H   0  0  0  0  0  0  0  0  0  0  0  0
   11.3956    2.2003   -0.3020 H   0  0  0  0  0  0  0  0  0  0  0  0
   11.6194    1.0699   -1.6193 H   0  0  0  0  0  0  0  0  0  0  0  0
   11.0112   -0.8232   -0.0989 H   0  0  0  0  0  0  0  0  0  0  0  0
   10.7962    0.3068    1.2214 H   0  0  0  0  0  0  0  0  0  0  0  0
    8.9947    1.4717   -0.0767 H   0  0  0  0  0  0  0  0  0  0  0  0
    9.1968    0.3241   -1.3826 H   0  0  0  0  0  0  0  0  0  0  0  0
    8.5464   -1.5411    0.1535 H   0  0  0  0  0  0  0  0  0  0  0  0
    8.3645   -0.3967    1.4667 H   0  0  0  0  0  0  0  0  0  0  0  0
    6.5923    0.8066    0.1609 H   0  0  0  0  0  0  0  0  0  0  0  0
    6.7524   -0.3654   -1.1290 H   0  0  0  0  0  0  0  0  0  0  0  0
    6.0511   -2.1875    0.4345 H   0  0  0  0  0  0  0  0  0  0  0  0
    5.9218   -1.0227    1.7363 H   0  0  0  0  0  0  0  0  0  0  0  0
    4.1795    0.2257    0.4340 H   0  0  0  0  0  0  0  0  0  0  0  0
    4.2831   -0.9686   -0.8417 H   0  0  0  0  0  0  0  0  0  0  0  0
    3.5398   -2.7450    0.7539 H   0  0  0  0  0  0  0  0  0  0  0  0
    3.4704   -1.5611    2.0432 H   0  0  0  0  0  0  0  0  0  0  0  0
    1.7473   -0.2732    0.7610 H   0  0  0  0  0  0  0  0  0  0  0  0
    1.7941   -1.4785   -0.5089 H   0  0  0  0  0  0  0  0  0  0  0  0
    1.0400   -3.2251    1.1074 H   0  0  0  0  0  0  0  0  0  0  0  0
    1.0303   -2.0367    2.3957 H   0  0  0  0  0  0  0  0  0  0  0  0
   -0.6940   -0.6973    1.1233 H   0  0  0  0  0  0  0  0  0  0  0  0
   -0.7046   -1.9161   -0.1244 H   0  0  0  0  0  0  0  0  0  0  0  0
   -3.5757   -3.0957    3.1387 H   0  0  0  0  0  0  0  0  0  0  0  0
   -3.8386   -4.4103    1.1346 H   0  0  0  0  0  0  0  0  0  0  0  0
   -5.3631   -4.0788    1.9393 H   0  0  0  0  0  0  0  0  0  0  0  0
   -6.4936   -5.1649   -0.9502 H   0  0  0  0  0  0  0  0  0  0  0  0
   -7.2543   -2.5614   -3.5551 H   0  0  0  0  0  0  0  0  0  0  0  0
   -8.3589   -3.0988   -2.2985 H   0  0  0  0  0  0  0  0  0  0  0  0
   -9.0938   -0.9787   -3.0659 H   0  0  0  0  0  0  0  0  0  0  0  0
   -8.5105   -0.7765   -1.4246 H   0  0  0  0  0  0  0  0  0  0  0  0
   -7.0626    0.0068   -3.8339 H   0  0  0  0  0  0  0  0  0  0  0  0
   -7.5949    0.9639   -2.6491 H   0  0  0  0  0  0  0  0  0  0  0  0
   -5.7042   -1.9050    3.1546 H   0  0  0  0  0  0  0  0  0  0  0  0
   -4.3072   -0.8793    3.4869 H   0  0  0  0  0  0  0  0  0  0  0  0
   -5.4782    1.3752    0.1117 H   0  0  0  0  0  0  0  0  0  0  0  0
   -6.8782    0.3767   -0.1470 H   0  0  0  0  0  0  0  0  0  0  0  0
   -8.2251    1.9379    1.3510 H   0  0  0  0  0  0  0  0  0  0  0  0
   -6.8127    2.9619    1.4987 H   0  0  0  0  0  0  0  0  0  0  0  0
   -6.8204    3.2698   -1.0123 H   0  0  0  0  0  0  0  0  0  0  0  0
   -8.2800    2.3013   -1.0941 H   0  0  0  0  0  0  0  0  0  0  0  0
   -9.4405    3.9418    0.4049 H   0  0  0  0  0  0  0  0  0  0  0  0
   -7.9949    4.9298    0.4271 H   0  0  0  0  0  0  0  0  0  0  0  0
   -8.1444    5.2074   -2.0569 H   0  0  0  0  0  0  0  0  0  0  0  0
   -9.5814    4.2078   -2.0819 H   0  0  0  0  0  0  0  0  0  0  0  0
  -10.7541    5.8615   -0.6148 H   0  0  0  0  0  0  0  0  0  0  0  0
   -9.3198    6.8617   -0.5933 H   0  0  0  0  0  0  0  0  0  0  0  0
  -10.9135    6.1476   -3.1154 H   0  0  0  0  0  0  0  0  0  0  0  0
  -10.9625    7.6999   -2.2831 H   0  0  0  0  0  0  0  0  0  0  0  0
   -9.4834    7.1738   -3.0799 H   0  0  0  0  0  0  0  0  0  0  0  0
 30 29  1  0
 28 29  1  0
 28 27  1  0
 26 24  2  0
 24 27  1  6
 24 23  1  0
 24 25  1  0
 19 18  2  0
 22 23  1  0
 22 21  1  0
 18 20  1  0
 18 17  1  0
 20 21  1  0
 21 31  1  0
 16 17  1  0
 16 15  1  0
 15 14  1  0
 31 32  1  0
 32 33  1  0
 14 13  1  0
 33 34  2  0
 33 35  1  0
 13 12  1  0
 35 36  1  0
 12 11  1  0
 36 37  1  0
 11 10  1  0
 37 38  1  0
 10  9  1  0
 38 39  1  0
 39 40  1  0
  9  8  1  0
 40 41  1  0
  8  7  1  0
  7  6  1  0
  6  5  1  0
  5  4  1  0
  4  3  1  0
  3  2  1  0
  2  1  1  0
  1 42  1  0
  1 43  1  0
  1 44  1  0
  2 45  1  0
  2 46  1  0
  3 47  1  0
  3 48  1  0
  4 49  1  0
  4 50  1  0
  5 51  1  0
  5 52  1  0
  6 53  1  0
  6 54  1  0
  7 55  1  0
  7 56  1  0
  8 57  1  0
  8 58  1  0
  9 59  1  0
  9 60  1  0
 10 61  1  0
 10 62  1  0
 11 63  1  0
 11 64  1  0
 12 65  1  0
 12 66  1  0
 13 67  1  0
 13 68  1  0
 14 69  1  0
 14 70  1  0
 15 71  1  0
 15 72  1  0
 16 73  1  0
 16 74  1  0
 17 75  1  0
 17 76  1  0
 21 77  1  1
 22 78  1  0
 22 79  1  0
 25 80  1  0
 28 81  1  0
 28 82  1  0
 29 83  1  0
 29 84  1  0
 30 85  1  0
 30 86  1  0
 31 87  1  0
 31 88  1  0
 35 89  1  0
 35 90  1  0
 36 91  1  0
 36 92  1  0
 37 93  1  0
 37 94  1  0
 38 95  1  0
 38 96  1  0
 39 97  1  0
 39 98  1  0
 40 99  1  0
 40100  1  0
 41101  1  0
 41102  1  0
 41103  1  0
M  END
