
     RDKit          3D

 48 49  0  0  0  0  0  0  0  0999 V2000
   -0.5473    1.5275   -1.0313 F   0  0  0  0  0  0  0  0  0  0  0  0
   -2.2344   -2.8207    0.7712 Cl  0  0  0  0  0  0  0  0  0  0  0  0
    2.7369    3.6234    1.9232 C   0  0  0  0  0  0  0  0  0  0  0  0
    1.8766    2.3670    1.9454 C   0  0  0  0  0  0  0  0  0  0  0  0
    1.7687    1.6676    0.5913 C   0  0  1  0  0  0  0  0  0  0  0  0
    3.1239    1.1851    0.1747 N   0  0  0  0  0  0  0  0  0  0  0  0
    3.2372    0.4627   -1.1354 C   0  0  1  0  0  0  0  0  0  0  0  0
    2.9458    1.3845   -2.3002 C   0  0  0  0  0  0  0  0  0  0  0  0
    4.6363   -0.1399   -1.2249 C   0  0  0  0  0  0  0  0  0  0  0  0
    4.9542   -1.1007   -0.0962 C   0  0  0  0  0  0  0  0  0  0  0  0
    4.4556   -0.9564    1.0242 O   0  0  0  0  0  0  0  0  0  0  0  0
    5.8073   -2.0754   -0.3830 N   0  0  0  0  0  0  0  0  0  0  0  0
    0.7952    0.5195    0.6218 C   0  0  0  0  0  0  0  0  0  0  0  0
    0.9584   -0.5551    1.4940 C   0  0  0  0  0  0  0  0  0  0  0  0
    0.0419   -1.5891    1.5491 C   0  0  0  0  0  0  0  0  0  0  0  0
   -1.0716   -1.5578    0.7240 C   0  0  0  0  0  0  0  0  0  0  0  0
   -1.2642   -0.5069   -0.1623 C   0  0  0  0  0  0  0  0  0  0  0  0
   -2.3090   -0.4834   -1.0213 O   0  0  0  0  0  0  0  0  0  0  0  0
   -3.5189    0.0019   -0.5900 C   0  0  0  0  0  0  0  0  0  0  0  0
   -4.5864   -0.1789   -1.4602 C   0  0  0  0  0  0  0  0  0  0  0  0
   -5.8397    0.2936   -1.1053 C   0  0  0  0  0  0  0  0  0  0  0  0
   -6.0337    0.9403    0.1098 C   0  0  0  0  0  0  0  0  0  0  0  0
   -4.9579    1.1107    0.9675 C   0  0  0  0  0  0  0  0  0  0  0  0
   -3.6933    0.6437    0.6272 C   0  0  0  0  0  0  0  0  0  0  0  0
   -0.3272    0.5175   -0.1877 C   0  0  0  0  0  0  0  0  0  0  0  0
    1.4682    2.4042   -0.1522 H   0  0  0  0  0  0  0  0  0  0  0  0
    3.7625    1.9838    0.1654 H   0  0  0  0  0  0  0  0  0  0  0  0
    3.5204    0.5186    0.8726 H   0  0  0  0  0  0  0  0  0  0  0  0
    2.5026   -0.3433   -1.0998 H   0  0  0  0  0  0  0  0  0  0  0  0
    3.7938    3.4158    1.7465 H   0  0  0  0  0  0  0  0  0  0  0  0
    2.3963    4.3246    1.1604 H   0  0  0  0  0  0  0  0  0  0  0  0
    2.6785    4.1297    2.8855 H   0  0  0  0  0  0  0  0  0  0  0  0
    0.8601    2.6294    2.2410 H   0  0  0  0  0  0  0  0  0  0  0  0
    3.6458    2.2207   -2.3304 H   0  0  0  0  0  0  0  0  0  0  0  0
    3.0485    0.8260   -3.2290 H   0  0  0  0  0  0  0  0  0  0  0  0
    1.9322    1.7800   -2.2763 H   0  0  0  0  0  0  0  0  0  0  0  0
    4.7249   -0.6391   -2.1902 H   0  0  0  0  0  0  0  0  0  0  0  0
    5.3907    0.6547   -1.2212 H   0  0  0  0  0  0  0  0  0  0  0  0
    6.2070   -2.1812   -1.3002 H   0  0  0  0  0  0  0  0  0  0  0  0
    6.1093   -2.7182    0.3324 H   0  0  0  0  0  0  0  0  0  0  0  0
    1.8146   -0.5947    2.1545 H   0  0  0  0  0  0  0  0  0  0  0  0
    0.1879   -2.4114    2.2349 H   0  0  0  0  0  0  0  0  0  0  0  0
   -4.4336   -0.6869   -2.4040 H   0  0  0  0  0  0  0  0  0  0  0  0
   -6.6708    0.1502   -1.7832 H   0  0  0  0  0  0  0  0  0  0  0  0
   -7.0139    1.3059    0.3842 H   0  0  0  0  0  0  0  0  0  0  0  0
   -5.0938    1.6134    1.9162 H   0  0  0  0  0  0  0  0  0  0  0  0
   -2.8710    0.7895    1.3161 H   0  0  0  0  0  0  0  0  0  0  0  0
    2.2470    1.6641    2.6962 H   0  0  0  0  0  0  0  0  0  0  0  0
  1 25  1  0
  2 16  1  0
  3  4  1  0
  3 30  1  0
  3 31  1  0
  3 32  1  0
  4  5  1  0
  4 48  1  0
  4 33  1  0
  5  6  1  0
  5 13  1  0
  5 26  1  6
  6  7  1  0
  6 27  1  0
  6 28  1  0
  7  8  1  0
  7  9  1  0
  7 29  1  1
  8 34  1  0
  8 35  1  0
  8 36  1  0
  9 10  1  0
  9 37  1  0
  9 38  1  0
 10 11  2  0
 10 12  1  0
 12 39  1  0
 12 40  1  0
 13 14  2  0
 13 25  1  0
 14 15  1  0
 14 41  1  0
 15 16  2  0
 15 42  1  0
 16 17  1  0
 17 18  1  0
 17 25  2  0
 18 19  1  0
 19 20  2  0
 19 24  1  0
 20 21  1  0
 20 43  1  0
 21 22  2  0
 21 44  1  0
 22 23  1  0
 22 45  1  0
 23 24  2  0
 23 46  1  0
 24 47  1  0
M  CHG  1   6   1
M  END
