
     RDKit          3D

 39 41  0  0  0  0  0  0  0  0999 V2000
    5.1313    0.4943   -0.2819 N   0  0  0  0  0  0  0  0  0  0  0  0
   -3.3434   -1.7108   -0.3388 C   0  0  0  0  0  0  0  0  0  0  0  0
    0.8148   -1.1330    0.0621 N   0  0  0  0  0  0  0  0  0  0  0  0
   -0.6017   -1.0220    0.3256 C   0  0  2  0  0  0  0  0  0  0  0  0
   -1.1644   -2.3866    0.7084 C   0  0  0  0  0  0  0  0  0  0  0  0
    1.6958   -0.1255    0.1802 C   0  0  0  0  0  0  0  0  0  0  0  0
    3.8657    0.8300    0.0612 C   0  0  0  0  0  0  0  0  0  0  0  0
   -1.3473   -0.4550   -0.8890 C   0  0  0  0  0  0  0  0  0  0  0  0
    1.2733    1.0587    0.6249 N   0  0  0  0  0  0  0  0  0  0  0  0
   -5.4822    2.1124    0.1174 C   0  0  0  0  0  0  0  0  0  0  0  0
   -4.8692    0.7336   -0.0497 C   0  0  0  0  0  0  0  0  0  0  0  0
   -2.8301    1.8479   -0.6063 O   0  0  0  0  0  0  0  0  0  0  0  0
   -2.7720   -0.4062   -0.6250 N   0  0  0  0  0  0  0  0  0  0  0  0
   -2.6772   -2.3241    0.8861 C   0  0  0  0  0  0  0  0  0  0  0  0
    3.0600   -0.2959   -0.1373 C   0  0  0  0  0  0  0  0  0  0  0  0
    3.9018   -1.3421   -0.6206 C   0  0  0  0  0  0  0  0  0  0  0  0
    5.1579   -0.8142   -0.6933 C   0  0  0  0  0  0  0  0  0  0  0  0
    3.4528    2.0200    0.5120 N   0  0  0  0  0  0  0  0  0  0  0  0
    2.1612    2.0433    0.7646 C   0  0  0  0  0  0  0  0  0  0  0  0
    5.9296    1.1064   -0.2310 H   0  0  0  0  0  0  0  0  0  0  0  0
   -4.4183   -1.6421   -0.2014 H   0  0  0  0  0  0  0  0  0  0  0  0
   -3.1785   -2.3553   -1.2085 H   0  0  0  0  0  0  0  0  0  0  0  0
    1.1456   -1.9971   -0.3366 H   0  0  0  0  0  0  0  0  0  0  0  0
   -0.7379   -0.3299    1.1596 H   0  0  0  0  0  0  0  0  0  0  0  0
   -0.9284   -3.1084   -0.0830 H   0  0  0  0  0  0  0  0  0  0  0  0
   -0.6828   -2.7436    1.6209 H   0  0  0  0  0  0  0  0  0  0  0  0
   -0.9813    0.5405   -1.1246 H   0  0  0  0  0  0  0  0  0  0  0  0
   -1.1684   -1.0998   -1.7569 H   0  0  0  0  0  0  0  0  0  0  0  0
   -4.9852    2.6841    0.9003 H   0  0  0  0  0  0  0  0  0  0  0  0
   -5.4352    2.6934   -0.8027 H   0  0  0  0  0  0  0  0  0  0  0  0
   -6.5318    2.0157    0.3944 H   0  0  0  0  0  0  0  0  0  0  0  0
   -4.9721    0.1705    0.8823 H   0  0  0  0  0  0  0  0  0  0  0  0
   -5.4294    0.1666   -0.7985 H   0  0  0  0  0  0  0  0  0  0  0  0
   -2.9323   -1.7324    1.7703 H   0  0  0  0  0  0  0  0  0  0  0  0
   -3.0744   -3.3276    1.0509 H   0  0  0  0  0  0  0  0  0  0  0  0
    3.6277   -2.3514   -0.8831 H   0  0  0  0  0  0  0  0  0  0  0  0
    6.0822   -1.2707   -1.0063 H   0  0  0  0  0  0  0  0  0  0  0  0
    1.7595    2.9822    1.1322 H   0  0  0  0  0  0  0  0  0  0  0  0
   -3.4038    0.7786   -0.4459 C   0  0  0  0  0  0  0  0  0  0  0  0
 10 11  1  0
 11 39  1  0
  2 13  1  0
  2 14  1  0
 13 39  1  0
 13  8  1  0
 39 12  2  0
  8  4  1  0
 14  5  1  0
  5  4  1  0
  4  3  1  0
  3  6  1  0
 16 17  2  0
 16 15  1  0
  6 15  1  0
  6  9  2  0
 17  1  1  0
 15  7  2  0
  9 19  1  0
  1  7  1  0
  7 18  1  0
 19 18  2  0
  1 20  1  0
  2 21  1  0
  2 22  1  0
  3 23  1  0
  4 24  1  1
  5 25  1  0
  5 26  1  0
  8 27  1  0
  8 28  1  0
 10 29  1  0
 10 30  1  0
 10 31  1  0
 11 32  1  0
 11 33  1  0
 14 34  1  0
 14 35  1  0
 16 36  1  0
 17 37  1  0
 19 38  1  0
M  END
