
     RDKit          3D

 66 70  0  0  0  0  0  0  0  0999 V2000
    3.2398    4.3177    0.7839 C   0  0  0  0  0  0  0  0  0  0  0  0
    2.6746    3.0989    1.0914 C   0  0  0  0  0  0  0  0  0  0  0  0
    2.4949    2.1736    0.0667 C   0  0  0  0  0  0  0  0  0  0  0  0
    2.9060    2.4780   -1.2401 C   0  0  0  0  0  0  0  0  0  0  0  0
    3.4641    3.7180   -1.5067 C   0  0  0  0  0  0  0  0  0  0  0  0
    3.6303    4.6560   -0.4977 C   0  0  0  0  0  0  0  0  0  0  0  0
    1.9040    0.9446    0.2688 N   0  0  0  0  0  0  0  0  0  0  0  0
    1.7733    0.3772    1.4521 N   0  0  0  0  0  0  0  0  0  0  0  0
    1.4572   -0.8611    1.3057 C   0  0  0  0  0  0  0  0  0  0  0  0
    1.3908   -1.3135   -0.1441 C   0  0  1  0  0  0  0  0  0  0  0  0
    1.6004    0.0619   -0.8471 C   0  0  2  0  0  0  0  0  0  0  0  0
    2.5221   -2.2873   -0.4536 C   0  0  0  0  0  0  0  0  0  0  0  0
    1.2666   -1.7235    2.4739 C   0  0  0  0  0  0  0  0  0  0  0  0
    1.3916   -1.0951    3.8345 C   0  0  0  0  0  0  0  0  0  0  0  0
    1.0236   -2.9054    2.3195 O   0  0  0  0  0  0  0  0  0  0  0  0
    3.7369   -2.2007    0.2262 C   0  0  0  0  0  0  0  0  0  0  0  0
    4.7923   -3.0473   -0.0807 C   0  0  0  0  0  0  0  0  0  0  0  0
    4.6563   -3.9982   -1.0827 C   0  0  0  0  0  0  0  0  0  0  0  0
    3.4563   -4.0897   -1.7725 C   0  0  0  0  0  0  0  0  0  0  0  0
    2.4008   -3.2423   -1.4608 C   0  0  0  0  0  0  0  0  0  0  0  0
    2.7683    1.5905   -2.2581 O   0  0  0  0  0  0  0  0  0  0  0  0
    3.4091    5.2113    1.7736 F   0  0  0  0  0  0  0  0  0  0  0  0
    2.7042    0.2230   -1.8761 C   0  0  0  0  0  0  0  0  0  0  0  0
    0.0115   -1.8828   -0.5175 C   0  0  0  0  0  0  0  0  0  0  0  0
   -1.1724   -1.1015    0.0418 C   0  0  0  0  0  0  0  0  0  0  0  0
   -2.4748   -1.6231   -0.5516 C   0  0  0  0  0  0  0  0  0  0  0  0
   -3.6639   -1.0328    0.0341 N   0  0  0  0  0  0  0  0  0  0  0  0
   -4.8530   -1.7793   -0.3362 C   0  0  0  0  0  0  0  0  0  0  0  0
   -3.8220    0.3682   -0.3100 C   0  0  0  0  0  0  0  0  0  0  0  0
   -6.0858   -1.2140    0.3476 C   0  0  0  0  0  0  0  0  0  0  0  0
   -5.0449    0.9566    0.3746 C   0  0  0  0  0  0  0  0  0  0  0  0
   -6.2290    0.1947    0.0331 N   0  0  0  0  0  0  0  0  0  0  0  0
   -7.3011    0.6648   -0.6410 C   0  0  0  0  0  0  0  0  0  0  0  0
   -7.3101    2.1356   -0.9894 C   0  0  0  0  0  0  0  0  0  0  0  0
   -8.2382   -0.0587   -0.9586 O   0  0  0  0  0  0  0  0  0  0  0  0
    2.3731    2.8650    2.1035 H   0  0  0  0  0  0  0  0  0  0  0  0
    3.7771    3.9496   -2.5165 H   0  0  0  0  0  0  0  0  0  0  0  0
    4.0690    5.6217   -0.7082 H   0  0  0  0  0  0  0  0  0  0  0  0
    0.6620    0.3854   -1.3106 H   0  0  0  0  0  0  0  0  0  0  0  0
    0.6985   -0.2616    3.9466 H   0  0  0  0  0  0  0  0  0  0  0  0
    1.1905   -1.8332    4.6077 H   0  0  0  0  0  0  0  0  0  0  0  0
    2.3957   -0.6947    3.9808 H   0  0  0  0  0  0  0  0  0  0  0  0
    3.8766   -1.4641    1.0086 H   0  0  0  0  0  0  0  0  0  0  0  0
    5.7226   -2.9611    0.4657 H   0  0  0  0  0  0  0  0  0  0  0  0
    5.4777   -4.6602   -1.3240 H   0  0  0  0  0  0  0  0  0  0  0  0
    3.3366   -4.8242   -2.5582 H   0  0  0  0  0  0  0  0  0  0  0  0
    1.4788   -3.3377   -2.0183 H   0  0  0  0  0  0  0  0  0  0  0  0
    3.6694   -0.1042   -1.4790 H   0  0  0  0  0  0  0  0  0  0  0  0
    2.4862   -0.3456   -2.7784 H   0  0  0  0  0  0  0  0  0  0  0  0
   -0.0648   -1.9058   -1.6092 H   0  0  0  0  0  0  0  0  0  0  0  0
   -0.0542   -2.9186   -0.1816 H   0  0  0  0  0  0  0  0  0  0  0  0
   -1.2182   -1.2005    1.1295 H   0  0  0  0  0  0  0  0  0  0  0  0
   -1.0606   -0.0342   -0.1687 H   0  0  0  0  0  0  0  0  0  0  0  0
   -2.4529   -1.4901   -1.6476 H   0  0  0  0  0  0  0  0  0  0  0  0
   -2.5229   -2.7021   -0.3773 H   0  0  0  0  0  0  0  0  0  0  0  0
   -5.0159   -1.7761   -1.4280 H   0  0  0  0  0  0  0  0  0  0  0  0
   -4.7274   -2.8212   -0.0334 H   0  0  0  0  0  0  0  0  0  0  0  0
   -2.9459    0.9312    0.0145 H   0  0  0  0  0  0  0  0  0  0  0  0
   -3.9172    0.5114   -1.4009 H   0  0  0  0  0  0  0  0  0  0  0  0
   -6.9731   -1.7550    0.0309 H   0  0  0  0  0  0  0  0  0  0  0  0
   -5.9889   -1.3274    1.4319 H   0  0  0  0  0  0  0  0  0  0  0  0
   -4.9050    0.9252    1.4598 H   0  0  0  0  0  0  0  0  0  0  0  0
   -5.1541    1.9999    0.0936 H   0  0  0  0  0  0  0  0  0  0  0  0
   -6.5020    2.3888   -1.6771 H   0  0  0  0  0  0  0  0  0  0  0  0
   -8.2541    2.3779   -1.4703 H   0  0  0  0  0  0  0  0  0  0  0  0
   -7.2015    2.7682   -0.1084 H   0  0  0  0  0  0  0  0  0  0  0  0
  1  2  2  0
  1  6  1  0
  1 22  1  0
  2  3  1  0
  2 36  1  0
  3  7  1  0
  3  4  2  0
  4 21  1  0
  4  5  1  0
  5  6  2  0
  5 37  1  0
  6 38  1  0
  7  8  1  0
  7 11  1  0
  8  9  2  0
  9 13  1  0
  9 10  1  0
 10 12  1  0
 10 24  1  6
 10 11  1  0
 11 23  1  0
 11 39  1  6
 12 16  2  0
 12 20  1  0
 13 15  2  0
 13 14  1  0
 14 40  1  0
 14 41  1  0
 14 42  1  0
 16 17  1  0
 16 43  1  0
 17 18  2  0
 17 44  1  0
 18 19  1  0
 18 45  1  0
 19 20  2  0
 19 46  1  0
 20 47  1  0
 21 23  1  0
 23 48  1  0
 23 49  1  0
 24 25  1  0
 24 50  1  0
 24 51  1  0
 25 26  1  0
 25 52  1  0
 25 53  1  0
 26 27  1  0
 26 54  1  0
 26 55  1  0
 27 28  1  0
 27 29  1  0
 28 30  1  0
 28 56  1  0
 28 57  1  0
 29 31  1  0
 29 58  1  0
 29 59  1  0
 30 32  1  0
 30 60  1  0
 30 61  1  0
 31 32  1  0
 31 62  1  0
 31 63  1  0
 32 33  1  0
 33 35  2  0
 33 34  1  0
 34 64  1  0
 34 65  1  0
 34 66  1  0
M  END
