
     RDKit          3D

 12 11  0  0  0  0  0  0  0  0999 V2000
    2.5277   -0.1062    0.0157 C   0  0  0  0  0  0  0  0  0  0  0  0
    1.1208    0.4765    0.0105 C   0  0  0  0  0  0  0  0  0  0  0  0
    0.0648   -0.6175    0.0102 C   0  0  0  0  0  0  0  0  0  0  0  0
   -1.5957    0.1396   -0.0074 S   0  0  0  0  0  0  0  0  0  0  0  0
    3.2781    0.6842    0.0235 H   0  0  0  0  0  0  0  0  0  0  0  0
    2.6934   -0.7309    0.8951 H   0  0  0  0  0  0  0  0  0  0  0  0
    2.7036   -0.7234   -0.8669 H   0  0  0  0  0  0  0  0  0  0  0  0
    0.9827    1.1179    0.8847 H   0  0  0  0  0  0  0  0  0  0  0  0
    0.9890    1.1138   -0.8679 H   0  0  0  0  0  0  0  0  0  0  0  0
    0.1778   -1.2557   -0.8668 H   0  0  0  0  0  0  0  0  0  0  0  0
    0.1643   -1.2421    0.8985 H   0  0  0  0  0  0  0  0  0  0  0  0
   -2.3116   -0.9894    0.0251 H   0  0  0  0  0  0  0  0  0  0  0  0
  1  2  1  0
  1  5  1  0
  1  6  1  0
  1  7  1  0
  3  2  1  0
  2  8  1  0
  2  9  1  0
  4  3  1  0
  3 10  1  0
  3 11  1  0
  4 12  1  0
M  END
