
     RDKit          3D

 40 41  0  0  0  0  0  0  0  0999 V2000
    2.7892    0.9881    0.4788 C   0  0  0  0  0  0  0  0  0  0  0  0
   -5.4092   -0.8424   -1.1535 C   0  0  0  0  0  0  0  0  0  0  0  0
   -4.0787   -0.6623   -1.5122 C   0  0  0  0  0  0  0  0  0  0  0  0
   -5.7122   -1.0123    0.1817 C   0  0  0  0  0  0  0  0  0  0  0  0
   -4.7360   -1.0072    1.1610 C   0  0  0  0  0  0  0  0  0  0  0  0
   -3.4146   -0.8307    0.7800 C   0  0  0  0  0  0  0  0  0  0  0  0
   -3.0674   -0.6590   -0.5585 C   0  0  0  0  0  0  0  0  0  0  0  0
   -1.6239   -0.5125   -0.9641 C   0  0  0  0  0  0  0  0  0  0  0  0
    0.5428    0.2434   -0.2764 C   0  0  0  0  0  0  0  0  0  0  0  0
    1.2925    1.1124    0.7367 C   0  0  2  0  0  0  0  0  0  0  0  0
   -1.3050    1.7534   -0.2099 C   0  0  0  0  0  0  0  0  0  0  0  0
   -0.5626    2.6115    0.7944 C   0  0  0  0  0  0  0  0  0  0  0  0
    3.4159    1.7982   -0.1840 O   0  0  0  0  0  0  0  0  0  0  0  0
    3.3524   -0.1053    1.0234 N   0  0  0  0  0  0  0  0  0  0  0  0
    4.7283   -0.4780    0.8005 C   0  0  0  0  0  0  0  0  0  0  0  0
    4.9018   -1.2372   -0.5103 C   0  0  0  0  0  0  0  0  0  0  0  0
    6.6615   -1.6793   -0.6942 S   0  0  0  0  0  0  0  0  0  0  0  0
    0.8674    2.4827    0.5835 N   0  0  0  0  0  0  0  0  0  0  0  0
   -0.8873    0.3691   -0.0836 N   0  0  0  0  0  0  0  0  0  0  0  0
   -6.1918   -0.8422   -1.9006 H   0  0  0  0  0  0  0  0  0  0  0  0
   -3.8315   -0.5195   -2.5574 H   0  0  0  0  0  0  0  0  0  0  0  0
   -5.0025   -1.1392    2.2016 H   0  0  0  0  0  0  0  0  0  0  0  0
   -2.6405   -0.8141    1.5362 H   0  0  0  0  0  0  0  0  0  0  0  0
   -1.1470   -1.4971   -0.9285 H   0  0  0  0  0  0  0  0  0  0  0  0
   -1.5716   -0.1877   -2.0165 H   0  0  0  0  0  0  0  0  0  0  0  0
    0.8538    0.5368   -1.2939 H   0  0  0  0  0  0  0  0  0  0  0  0
    0.8240   -0.8031   -0.1369 H   0  0  0  0  0  0  0  0  0  0  0  0
    1.0697    0.7099    1.7401 H   0  0  0  0  0  0  0  0  0  0  0  0
   -2.3773    1.8275   -0.0198 H   0  0  0  0  0  0  0  0  0  0  0  0
   -1.1239    2.1357   -1.2292 H   0  0  0  0  0  0  0  0  0  0  0  0
   -0.8475    3.6563    0.6604 H   0  0  0  0  0  0  0  0  0  0  0  0
   -0.8729    2.3127    1.8075 H   0  0  0  0  0  0  0  0  0  0  0  0
    2.7790   -0.7315    1.5651 H   0  0  0  0  0  0  0  0  0  0  0  0
    5.3512    0.4171    0.8031 H   0  0  0  0  0  0  0  0  0  0  0  0
    5.0467   -1.0983    1.6382 H   0  0  0  0  0  0  0  0  0  0  0  0
    4.2935   -2.1411   -0.5018 H   0  0  0  0  0  0  0  0  0  0  0  0
    4.5926   -0.6155   -1.3494 H   0  0  0  0  0  0  0  0  0  0  0  0
    6.5582   -2.3086   -1.8690 H   0  0  0  0  0  0  0  0  0  0  0  0
    1.3643    3.0785    1.2330 H   0  0  0  0  0  0  0  0  0  0  0  0
   -6.9960   -1.1831    0.5438 F   0  0  0  0  0  0  0  0  0  0  0  0
  1 10  1  0
  1 13  2  0
  1 14  1  0
  2  3  2  0
  2  4  1  0
  3  7  1  0
  4  5  2  0
  4 40  1  0
  5  6  1  0
  6  7  2  0
  7  8  1  0
  8 19  1  0
  9 10  1  0
  9 19  1  0
 10 18  1  0
 11 12  1  0
 11 19  1  0
 12 18  1  0
 14 15  1  0
 15 16  1  0
 16 17  1  0
  2 20  1  0
  3 21  1  0
  5 22  1  0
  6 23  1  0
  8 24  1  0
  8 25  1  0
  9 26  1  0
  9 27  1  0
 10 28  1  1
 11 29  1  0
 11 30  1  0
 12 31  1  0
 12 32  1  0
 14 33  1  0
 15 34  1  0
 15 35  1  0
 16 36  1  0
 16 37  1  0
 17 38  1  0
 18 39  1  0
M  END
