
     RDKit          3D

 48 49  0  0  0  0  0  0  0  0999 V2000
   -5.9342    8.3087   -5.4154 O   0  0  0  0  0  0  0  0  0  0  0  0
   -4.8824    8.7812   -5.0616 C   0  0  0  0  0  0  0  0  0  0  0  0
   -4.6139   10.0821   -5.1354 O   0  0  0  0  0  0  0  0  0  0  0  0
   -3.7259    8.0034   -4.4978 C   0  0  0  0  0  0  0  0  0  0  0  0
   -4.0125    6.5219   -4.3209 C   0  0  0  0  0  0  0  0  0  0  0  0
   -2.8175    5.7851   -3.7288 C   0  0  0  0  0  0  0  0  0  0  0  0
   -3.0967    4.2920   -3.5798 C   0  0  0  0  0  0  0  0  0  0  0  0
   -2.0187    3.5466   -2.9609 N   0  0  0  0  0  0  0  0  0  0  0  0
   -2.0239    3.4345   -1.5193 C   0  0  0  0  0  0  0  0  0  0  0  0
   -0.9026    3.1955   -3.6580 C   0  0  0  0  0  0  0  0  0  0  0  0
   -0.7829    3.4208   -5.0492 C   0  0  0  0  0  0  0  0  0  0  0  0
    0.3502    3.0555   -5.7392 C   0  0  0  0  0  0  0  0  0  0  0  0
    0.1900    2.5713   -3.0213 C   0  0  0  0  0  0  0  0  0  0  0  0
    1.3138    2.2044   -3.7334 C   0  0  0  0  0  0  0  0  0  0  0  0
    1.4399    2.4419   -5.1056 C   0  0  0  0  0  0  0  0  0  0  0  0
    2.6636    2.0682   -5.7848 C   0  0  0  0  0  0  0  0  0  0  0  0
    3.0041    2.3685   -7.0520 C   0  0  0  0  0  0  0  0  0  0  0  0
    4.2454    1.9964   -7.7068 C   0  0  0  0  0  0  0  0  0  0  0  0
    5.2001    1.1397   -7.1362 C   0  0  0  0  0  0  0  0  0  0  0  0
    4.5158    2.5188   -8.9796 C   0  0  0  0  0  0  0  0  0  0  0  0
    5.6822    2.2200   -9.6534 C   0  0  0  0  0  0  0  0  0  0  0  0
    6.6084    1.3760   -9.0538 C   0  0  0  0  0  0  0  0  0  0  0  0
    6.3701    0.8312   -7.7954 C   0  0  0  0  0  0  0  0  0  0  0  0
    7.8346    1.0578   -9.7475 N   0  0  0  0  0  0  0  0  0  0  0  0
    8.0136    1.5367  -10.8455 O   0  0  0  0  0  0  0  0  0  0  0  0
    8.6303    0.3268   -9.1998 O   0  0  0  0  0  0  0  0  0  0  0  0
   -5.3742   10.5559   -5.5043 H   0  0  0  0  0  0  0  0  0  0  0  0
   -3.4404    8.4585   -3.5442 H   0  0  0  0  0  0  0  0  0  0  0  0
   -2.8673    8.1516   -5.1610 H   0  0  0  0  0  0  0  0  0  0  0  0
   -4.2749    6.0772   -5.2845 H   0  0  0  0  0  0  0  0  0  0  0  0
   -4.8803    6.3881   -3.6694 H   0  0  0  0  0  0  0  0  0  0  0  0
   -2.5708    6.2048   -2.7487 H   0  0  0  0  0  0  0  0  0  0  0  0
   -1.9386    5.9364   -4.3628 H   0  0  0  0  0  0  0  0  0  0  0  0
   -3.3403    3.8544   -4.5509 H   0  0  0  0  0  0  0  0  0  0  0  0
   -3.9870    4.1495   -2.9650 H   0  0  0  0  0  0  0  0  0  0  0  0
   -2.9805    3.7819   -1.1383 H   0  0  0  0  0  0  0  0  0  0  0  0
   -1.2381    4.0330   -1.0489 H   0  0  0  0  0  0  0  0  0  0  0  0
   -1.8986    2.3994   -1.1933 H   0  0  0  0  0  0  0  0  0  0  0  0
   -1.5823    3.8905   -5.6036 H   0  0  0  0  0  0  0  0  0  0  0  0
    0.3805    3.2547   -6.8035 H   0  0  0  0  0  0  0  0  0  0  0  0
    0.1670    2.3663   -1.9606 H   0  0  0  0  0  0  0  0  0  0  0  0
    2.1288    1.7256   -3.2025 H   0  0  0  0  0  0  0  0  0  0  0  0
    3.3637    1.5066   -5.1730 H   0  0  0  0  0  0  0  0  0  0  0  0
    2.3277    2.9625   -7.6579 H   0  0  0  0  0  0  0  0  0  0  0  0
    5.0286    0.6971   -6.1644 H   0  0  0  0  0  0  0  0  0  0  0  0
    3.7964    3.1791   -9.4468 H   0  0  0  0  0  0  0  0  0  0  0  0
    5.8608    2.6439  -10.6306 H   0  0  0  0  0  0  0  0  0  0  0  0
    7.0844    0.1682   -7.3296 H   0  0  0  0  0  0  0  0  0  0  0  0
  1  2  2  0
  2  3  1  0
  2  4  1  0
  3 27  1  0
  4  5  1  0
  4 28  1  0
  4 29  1  0
  5  6  1  0
  5 30  1  0
  5 31  1  0
  6  7  1  0
  6 32  1  0
  6 33  1  0
  7  8  1  0
  7 34  1  0
  7 35  1  0
  8  9  1  0
  8 10  1  0
  9 36  1  0
  9 37  1  0
  9 38  1  0
 10 11  2  0
 10 13  1  0
 11 12  1  0
 11 39  1  0
 12 15  2  0
 12 40  1  0
 13 14  2  0
 13 41  1  0
 14 15  1  0
 14 42  1  0
 15 16  1  0
 16 17  2  0
 16 43  1  0
 17 18  1  0
 17 44  1  0
 18 19  2  0
 18 20  1  0
 19 23  1  0
 19 45  1  0
 20 21  2  0
 20 46  1  0
 21 22  1  0
 21 47  1  0
 22 23  2  0
 22 24  1  0
 23 48  1  0
 24 25  2  0
 24 26  1  0
M  CHG  2  24   1  26  -1
M  END
