
     RDKit          3D

 29 29  0  0  0  0  0  0  0  0999 V2000
   -1.1459    1.2812   -0.0284 N   0  0  0  0  0  0  0  0  0  0  0  0
   -0.6378    2.6354    0.1621 C   0  0  0  0  0  0  0  0  0  0  0  0
   -3.2973    1.9637    0.3195 O   0  0  0  0  0  0  0  0  0  0  0  0
   -2.6015   -2.4276   -0.4366 O   0  0  0  0  0  0  0  0  0  0  0  0
   -2.8954   -0.2245   -0.0592 N   0  0  0  0  0  0  0  0  0  0  0  0
   -2.4987    1.0757    0.0907 C   0  0  0  0  0  0  0  0  0  0  0  0
   -2.1045   -1.3185   -0.3376 C   0  0  0  0  0  0  0  0  0  0  0  0
   -0.6953   -1.0267   -0.5049 C   0  0  0  0  0  0  0  0  0  0  0  0
    0.1853   -2.1775   -0.8770 C   0  0  0  0  0  0  0  0  0  0  0  0
   -0.2739    0.2512   -0.3330 C   0  0  0  0  0  0  0  0  0  0  0  0
    1.1307    0.6540   -0.5259 C   0  0  0  0  0  0  0  0  0  0  0  0
    2.1516    0.2919    0.2492 C   0  0  0  0  0  0  0  0  0  0  0  0
    1.9824   -0.5159    1.4976 C   0  0  0  0  0  0  0  0  0  0  0  0
    3.5620    0.7104   -0.0374 C   0  0  0  0  0  0  0  0  0  0  0  0
    2.7214   -1.6962    1.4014 F   0  0  0  0  0  0  0  0  0  0  0  0
    3.6275    1.4944   -1.1948 O   0  0  0  0  0  0  0  0  0  0  0  0
   -1.4157    3.2491    0.5998 H   0  0  0  0  0  0  0  0  0  0  0  0
    0.2151    2.6230    0.8353 H   0  0  0  0  0  0  0  0  0  0  0  0
   -0.3364    3.0774   -0.7866 H   0  0  0  0  0  0  0  0  0  0  0  0
   -3.8891   -0.3902    0.0417 H   0  0  0  0  0  0  0  0  0  0  0  0
   -0.2506   -2.7383   -1.7041 H   0  0  0  0  0  0  0  0  0  0  0  0
    1.1765   -1.8520   -1.1780 H   0  0  0  0  0  0  0  0  0  0  0  0
    0.3025   -2.8763   -0.0467 H   0  0  0  0  0  0  0  0  0  0  0  0
    1.3081    1.3129   -1.3699 H   0  0  0  0  0  0  0  0  0  0  0  0
    2.3619    0.0394    2.3583 H   0  0  0  0  0  0  0  0  0  0  0  0
    0.9425   -0.7773    1.6838 H   0  0  0  0  0  0  0  0  0  0  0  0
    3.9422    1.2469    0.8447 H   0  0  0  0  0  0  0  0  0  0  0  0
    4.1737   -0.1969   -0.1250 H   0  0  0  0  0  0  0  0  0  0  0  0
    4.5534    1.6297   -1.4149 H   0  0  0  0  0  0  0  0  0  0  0  0
  9  8  1  0
  4  7  2  0
 13 12  1  0
 13 15  1  0
 14 16  1  0
 14 12  1  0
  8  7  1  0
  8 10  2  0
 12 11  2  0
  7  5  1  0
 11 10  1  0
 10  1  1  0
  5  6  1  0
  1  6  1  0
  1  2  1  0
  6  3  2  0
  2 17  1  0
  2 18  1  0
  2 19  1  0
  5 20  1  0
  9 21  1  0
  9 22  1  0
  9 23  1  0
 11 24  1  0
 13 25  1  0
 13 26  1  0
 14 27  1  0
 14 28  1  0
 16 29  1  0
M  END
