
     RDKit          3D

 80 83  0  0  0  0  0  0  0  0999 V2000
    3.8888    1.1547    0.7456 C   0  0  2  0  0  0  0  0  0  0  0  0
    3.6822    1.9315   -0.5846 C   0  0  1  0  0  0  0  0  0  0  0  0
    2.1998    2.1616   -0.9915 C   0  0  2  0  0  0  0  0  0  0  0  0
    1.4403    0.8423   -1.2757 C   0  0  0  0  0  0  0  0  0  0  0  0
    1.2604   -0.2084   -0.1660 C   0  0  2  0  0  0  0  0  0  0  0  0
    0.7874   -2.8796    1.4718 C   0  0  0  0  0  0  0  0  0  0  0  0
    4.8361    1.8906    1.6994 C   0  0  0  0  0  0  0  0  0  0  0  0
    2.1869    2.9161   -2.3274 C   0  0  0  0  0  0  0  0  0  0  0  0
    1.4789    2.9337    0.0829 C   0  0  0  0  0  0  0  0  0  0  0  0
    0.8960    4.1206   -0.0392 C   0  0  0  0  0  0  0  0  0  0  0  0
   -2.3976   -0.5787    0.2387 C   0  0  0  0  0  0  0  0  0  0  0  0
   -5.1753   -0.2855    0.4436 C   0  0  2  0  0  0  0  0  0  0  0  0
   -5.2666   -0.1972   -1.0757 C   0  0  0  0  0  0  0  0  0  0  0  0
   -6.6148   -0.7069   -1.5769 C   0  0  0  0  0  0  0  0  0  0  0  0
   -7.7837    0.0418   -0.9392 C   0  0  2  0  0  0  0  0  0  0  0  0
   -7.6668   -0.0250    0.5790 C   0  0  0  0  0  0  0  0  0  0  0  0
   -6.3222    0.4984    1.0738 C   0  0  1  0  0  0  0  0  0  0  0  0
    5.8075   -0.3357    0.0086 C   0  0  0  0  0  0  0  0  0  0  0  0
    5.9888   -1.7039   -0.6307 C   0  0  0  0  0  0  0  0  0  0  0  0
    4.5926   -2.1946   -0.9462 C   0  0  0  0  0  0  0  0  0  0  0  0
    3.5932   -1.0881   -0.6008 C   0  0  1  0  0  0  0  0  0  0  0  0
    2.1231   -1.4946   -0.3171 C   0  0  1  0  0  0  0  0  0  0  0  0
    2.1310   -2.3330    0.9898 C   0  0  1  0  0  0  0  0  0  0  0  0
    2.8268   -1.5920    2.1328 C   0  0  0  0  0  0  0  0  0  0  0  0
    4.2427   -1.1535    1.7902 C   0  0  0  0  0  0  0  0  0  0  0  0
    4.3495   -0.3074    0.5082 C   0  0  2  0  0  0  0  0  0  0  0  0
   -9.0992   -0.4250   -1.3523 N   0  0  0  0  0  0  0  0  0  0  0  0
    4.3696   -3.2833   -1.4177 O   0  0  0  0  0  0  0  0  0  0  0  0
    4.3576    3.1680   -0.5059 O   0  0  0  0  0  0  0  0  0  0  0  0
   -0.1214   -0.6246   -0.2147 O   0  0  0  0  0  0  0  0  0  0  0  0
   -0.7858    0.7256    1.4516 O   0  0  0  0  0  0  0  0  0  0  0  0
   -6.2033    0.4060    2.4752 O   0  0  0  0  0  0  0  0  0  0  0  0
   -3.6274    0.4132    1.1166 S   0  0  0  0  0  0  0  0  0  0  0  0
    2.9425    1.1196    1.2849 H   0  0  0  0  0  0  0  0  0  0  0  0
    4.1299    1.3507   -1.4028 H   0  0  0  0  0  0  0  0  0  0  0  0
    0.4435    1.1490   -1.5981 H   0  0  0  0  0  0  0  0  0  0  0  0
    1.8850    0.3775   -2.1610 H   0  0  0  0  0  0  0  0  0  0  0  0
    1.4286    0.2268    0.8146 H   0  0  0  0  0  0  0  0  0  0  0  0
    1.6800   -1.7817   -2.4397 H   0  0  0  0  0  0  0  0  0  0  0  0
    2.1107   -3.2564   -1.5946 H   0  0  0  0  0  0  0  0  0  0  0  0
    0.5236   -2.5557   -1.3694 H   0  0  0  0  0  0  0  0  0  0  0  0
    0.2044   -3.3433    0.6774 H   0  0  0  0  0  0  0  0  0  0  0  0
    0.9698   -3.6461    2.2271 H   0  0  0  0  0  0  0  0  0  0  0  0
    0.1690   -2.1196    1.9501 H   0  0  0  0  0  0  0  0  0  0  0  0
    4.4237    2.8592    1.9778 H   0  0  0  0  0  0  0  0  0  0  0  0
    4.9643    1.3281    2.6228 H   0  0  0  0  0  0  0  0  0  0  0  0
    5.8239    2.0610    1.2747 H   0  0  0  0  0  0  0  0  0  0  0  0
    2.7851    2.3850   -3.0715 H   0  0  0  0  0  0  0  0  0  0  0  0
    1.1734    2.9961   -2.7233 H   0  0  0  0  0  0  0  0  0  0  0  0
    2.5759    3.9310   -2.2454 H   0  0  0  0  0  0  0  0  0  0  0  0
    1.4140    2.4527    1.0537 H   0  0  0  0  0  0  0  0  0  0  0  0
    0.3880    4.5743    0.8022 H   0  0  0  0  0  0  0  0  0  0  0  0
    0.8877    4.6862   -0.9621 H   0  0  0  0  0  0  0  0  0  0  0  0
   -2.5314   -0.5280   -0.8422 H   0  0  0  0  0  0  0  0  0  0  0  0
   -2.4710   -1.6331    0.5217 H   0  0  0  0  0  0  0  0  0  0  0  0
   -5.2471   -1.3344    0.7544 H   0  0  0  0  0  0  0  0  0  0  0  0
   -4.4702   -0.7785   -1.5415 H   0  0  0  0  0  0  0  0  0  0  0  0
   -6.6610   -0.6108   -2.6652 H   0  0  0  0  0  0  0  0  0  0  0  0
   -6.7117   -1.7757   -1.3516 H   0  0  0  0  0  0  0  0  0  0  0  0
   -7.7105    1.0951   -1.2372 H   0  0  0  0  0  0  0  0  0  0  0  0
   -8.4714    0.5611    1.0332 H   0  0  0  0  0  0  0  0  0  0  0  0
   -7.7959   -1.0621    0.9123 H   0  0  0  0  0  0  0  0  0  0  0  0
   -6.2231    1.5466    0.7492 H   0  0  0  0  0  0  0  0  0  0  0  0
    6.5160   -0.1613    0.8192 H   0  0  0  0  0  0  0  0  0  0  0  0
    5.9674    0.4514   -0.7324 H   0  0  0  0  0  0  0  0  0  0  0  0
    6.5916   -1.6883   -1.5410 H   0  0  0  0  0  0  0  0  0  0  0  0
    6.4648   -2.4232    0.0402 H   0  0  0  0  0  0  0  0  0  0  0  0
    3.6156   -0.4907   -1.5257 H   0  0  0  0  0  0  0  0  0  0  0  0
    2.7433   -3.2117    0.7542 H   0  0  0  0  0  0  0  0  0  0  0  0
    2.2258   -0.7335    2.4517 H   0  0  0  0  0  0  0  0  0  0  0  0
    2.8647   -2.2515    3.0043 H   0  0  0  0  0  0  0  0  0  0  0  0
    4.6823   -0.6202    2.6350 H   0  0  0  0  0  0  0  0  0  0  0  0
    4.8583   -2.0538    1.6812 H   0  0  0  0  0  0  0  0  0  0  0  0
   -9.1817   -0.3409   -2.3587 H   0  0  0  0  0  0  0  0  0  0  0  0
   -9.1742   -1.4184   -1.1603 H   0  0  0  0  0  0  0  0  0  0  0  0
    4.4853    3.5000   -1.3986 H   0  0  0  0  0  0  0  0  0  0  0  0
   -6.9045    0.9338    2.8705 H   0  0  0  0  0  0  0  0  0  0  0  0
    1.5768   -2.3180   -1.4936 C   0  0  0  0  0  0  0  0  0  0  0  0
   -1.0202   -0.0691    0.5782 C   0  0  0  0  0  0  0  0  0  0  0  0
   -5.1172    0.8422   -1.3851 H   0  0  0  0  0  0  0  0  0  0  0  0
  1  2  1  0
  1  7  1  0
  1 26  1  0
  2  3  1  0
  2 29  1  0
  3  4  1  0
  3  8  1  0
  3  9  1  1
  4  5  1  0
  5 22  1  0
  5 30  1  0
 22 78  1  6
  6 23  1  0
  9 10  2  0
 79 11  1  0
 79 30  1  0
 79 31  2  0
 11 33  1  0
 12 13  1  0
 12 17  1  0
 12 33  1  0
 13 14  1  0
 14 15  1  0
 15 16  1  0
 15 27  1  0
 16 17  1  0
 17 32  1  0
 18 19  1  0
 26 18  1  6
 19 20  1  0
 20 21  1  0
 20 28  2  0
 21 22  1  0
 21 26  1  0
 22 23  1  0
 23 24  1  0
 24 25  1  0
 25 26  1  0
  1 34  1  1
  2 35  1  6
  4 36  1  0
  4 37  1  0
  5 38  1  1
 78 39  1  0
 78 40  1  0
 78 41  1  0
  6 42  1  0
  6 43  1  0
  6 44  1  0
  7 45  1  0
  7 46  1  0
  7 47  1  0
  8 48  1  0
  8 49  1  0
  8 50  1  0
  9 51  1  0
 10 52  1  0
 10 53  1  0
 11 54  1  0
 11 55  1  0
 12 56  1  6
 13 80  1  0
 13 57  1  0
 14 58  1  0
 14 59  1  0
 15 60  1  6
 16 61  1  0
 16 62  1  0
 17 63  1  1
 18 64  1  0
 18 65  1  0
 19 66  1  0
 19 67  1  0
 21 68  1  6
 23 69  1  6
 24 70  1  0
 24 71  1  0
 25 72  1  0
 25 73  1  0
 27 74  1  0
 27 75  1  0
 29 76  1  0
 32 77  1  0
M  END
