
     RDKit          3D

 14 14  0  0  0  0  0  0  0  0999 V2000
   -3.5905    0.0294   -0.1201 N   0  0  0  0  0  0  0  0  0  0  0  0
   -2.4381    0.0066   -0.0791 C   0  0  0  0  0  0  0  0  0  0  0  0
   -1.0165   -0.0221   -0.0196 C   0  0  0  0  0  0  0  0  0  0  0  0
   -0.2944    1.1697    0.0559 C   0  0  0  0  0  0  0  0  0  0  0  0
    1.0846    1.1424    0.1166 C   0  0  0  0  0  0  0  0  0  0  0  0
    1.7606   -0.0793    0.1012 C   0  0  0  0  0  0  0  0  0  0  0  0
    3.0935   -0.1649    0.1575 O   0  0  0  0  0  0  0  0  0  0  0  0
    1.0393   -1.2733    0.0248 C   0  0  0  0  0  0  0  0  0  0  0  0
   -0.3377   -1.2437   -0.0355 C   0  0  0  0  0  0  0  0  0  0  0  0
   -0.8122    2.1192    0.0680 H   0  0  0  0  0  0  0  0  0  0  0  0
    1.6375    2.0723    0.1768 H   0  0  0  0  0  0  0  0  0  0  0  0
    3.4928    0.7108    0.2205 H   0  0  0  0  0  0  0  0  0  0  0  0
    1.5649   -2.2192    0.0135 H   0  0  0  0  0  0  0  0  0  0  0  0
   -0.8921   -2.1706   -0.0949 H   0  0  0  0  0  0  0  0  0  0  0  0
  7  6  1  0
  6  5  2  0
  6  8  1  0
  5  4  1  0
  8  9  2  0
  4  3  2  0
  9  3  1  0
  3  2  1  0
  2  1  3  0
  4 10  1  0
  5 11  1  0
  7 12  1  0
  8 13  1  0
  9 14  1  0
M  END
