
     RDKit          3D

 51 55  0  0  0  0  0  0  0  0999 V2000
   -1.3771    1.5842    0.0601 C   0  0  0  0  0  0  0  0  0  0  0  0
   -0.8576    2.7669   -0.4668 C   0  0  0  0  0  0  0  0  0  0  0  0
    0.4943    2.7359   -0.7301 C   0  0  0  0  0  0  0  0  0  0  0  0
    1.2685    1.6785   -0.5094 N   0  0  0  0  0  0  0  0  0  0  0  0
   -0.6379    0.5238    0.2943 N   0  0  0  0  0  0  0  0  0  0  0  0
   -6.4940   -0.8885   -0.8530 C   0  0  0  0  0  0  0  0  0  0  0  0
   -7.4198   -2.1094   -0.8307 C   0  0  1  0  0  0  0  0  0  0  0  0
   -6.8407   -3.1931   -1.5075 O   0  0  0  0  0  0  0  0  0  0  0  0
   -7.1997   -2.0966    0.6928 C   0  0  0  0  0  0  0  0  0  0  0  0
   -6.0265   -1.2414    0.4906 N   0  0  0  0  0  0  0  0  0  0  0  0
   -4.6812    0.7070    0.9823 C   0  0  0  0  0  0  0  0  0  0  0  0
   -3.3680    0.3629    0.8388 C   0  0  0  0  0  0  0  0  0  0  0  0
   -4.7442    2.0634    0.5560 C   0  0  0  0  0  0  0  0  0  0  0  0
   -5.9459    2.9399    0.5033 C   0  0  0  0  0  0  0  0  0  0  0  0
   -3.5613    2.4997    0.1921 N   0  0  0  0  0  0  0  0  0  0  0  0
   -2.7266    1.4638    0.3656 N   0  0  0  0  0  0  0  0  0  0  0  0
    0.6631    0.6118   -0.0009 C   0  0  0  0  0  0  0  0  0  0  0  0
    1.3695   -0.5158    0.2676 N   0  0  0  0  0  0  0  0  0  0  0  0
    2.7167   -0.8222    0.0869 C   0  0  0  0  0  0  0  0  0  0  0  0
    3.6521    0.0072   -0.5006 C   0  0  0  0  0  0  0  0  0  0  0  0
    4.9630   -0.4727   -0.6109 C   0  0  0  0  0  0  0  0  0  0  0  0
    6.1765    0.0345   -1.1274 C   0  0  0  0  0  0  0  0  0  0  0  0
    6.4033    1.5658   -1.8523 Cl  0  0  0  0  0  0  0  0  0  0  0  0
    7.1588   -0.8155   -1.0065 N   0  0  0  0  0  0  0  0  0  0  0  0
    6.6477   -1.9026   -0.4257 N   0  0  0  0  0  0  0  0  0  0  0  0
    7.4997   -3.0047   -0.0569 C   0  0  0  0  0  0  0  0  0  0  0  0
    5.3279   -1.7453   -0.1533 C   0  0  0  0  0  0  0  0  0  0  0  0
    4.3838   -2.5863    0.4481 C   0  0  0  0  0  0  0  0  0  0  0  0
    3.1042   -2.1097    0.5554 C   0  0  0  0  0  0  0  0  0  0  0  0
   -1.4612    3.6382   -0.6606 H   0  0  0  0  0  0  0  0  0  0  0  0
    0.9845    3.6097   -1.1432 H   0  0  0  0  0  0  0  0  0  0  0  0
   -5.7261   -0.8514   -1.6298 H   0  0  0  0  0  0  0  0  0  0  0  0
   -7.0718    0.0458   -0.8829 H   0  0  0  0  0  0  0  0  0  0  0  0
   -8.4492   -1.9299   -1.1542 H   0  0  0  0  0  0  0  0  0  0  0  0
   -7.3715   -3.9754   -1.3284 H   0  0  0  0  0  0  0  0  0  0  0  0
   -8.0234   -1.5876    1.2109 H   0  0  0  0  0  0  0  0  0  0  0  0
   -7.0061   -3.0519    1.1888 H   0  0  0  0  0  0  0  0  0  0  0  0
   -6.7126    0.4523    1.5574 H   0  0  0  0  0  0  0  0  0  0  0  0
   -5.5888   -0.5992    2.4065 H   0  0  0  0  0  0  0  0  0  0  0  0
   -2.8469   -0.5594    1.0325 H   0  0  0  0  0  0  0  0  0  0  0  0
   -6.3780    3.0783    1.4953 H   0  0  0  0  0  0  0  0  0  0  0  0
   -5.6931    3.9197    0.1026 H   0  0  0  0  0  0  0  0  0  0  0  0
   -6.7230    2.5056   -0.1271 H   0  0  0  0  0  0  0  0  0  0  0  0
    0.8085   -1.2507    0.6704 H   0  0  0  0  0  0  0  0  0  0  0  0
    3.3894    0.9870   -0.8642 H   0  0  0  0  0  0  0  0  0  0  0  0
    7.9450   -2.8518    0.9262 H   0  0  0  0  0  0  0  0  0  0  0  0
    6.9153   -3.9214   -0.0404 H   0  0  0  0  0  0  0  0  0  0  0  0
    8.2881   -3.1095   -0.7968 H   0  0  0  0  0  0  0  0  0  0  0  0
    4.6393   -3.5694    0.8199 H   0  0  0  0  0  0  0  0  0  0  0  0
    2.3532   -2.7390    1.0187 H   0  0  0  0  0  0  0  0  0  0  0  0
   -5.8081   -0.1655    1.4269 C   0  0  0  0  0  0  0  0  0  0  0  0
 23 22  1  0
 20 19  2  0
 20 21  1  0
 18 19  1  0
 18 17  1  0
 22 21  1  0
 22 24  2  0
 19 29  1  0
 21 27  2  0
  4 17  2  0
  4  3  1  0
 17  5  1  0
 24 25  1  0
 29 28  2  0
 27 25  1  0
 27 28  1  0
  3  2  2  0
  5  1  2  0
 25 26  1  0
  2  1  1  0
  1 16  1  0
 16 12  1  0
 16 15  1  0
 12 11  2  0
 15 13  2  0
 11 13  1  0
 11 51  1  0
 13 14  1  0
 51 10  1  0
 10  9  1  0
 10  6  1  0
  9  7  1  0
  6  7  1  0
  8  7  1  0
  2 30  1  0
  3 31  1  0
  6 32  1  0
  6 33  1  0
  7 34  1  1
  8 35  1  0
  9 36  1  0
  9 37  1  0
 51 38  1  0
 51 39  1  0
 12 40  1  0
 14 41  1  0
 14 42  1  0
 14 43  1  0
 18 44  1  0
 20 45  1  0
 26 46  1  0
 26 47  1  0
 26 48  1  0
 28 49  1  0
 29 50  1  0
M  END
