
     RDKit          3D

 34 33  0  0  0  0  0  0  0  0999 V2000
   -0.4550    0.0383    6.9343 C   0  0  0  0  0  0  0  0  0  0  0  0
    0.4137    0.0667    5.6840 C   0  0  0  0  0  0  0  0  0  0  0  0
   -0.4016   -0.0116    4.3989 C   0  0  0  0  0  0  0  0  0  0  0  0
    0.4521    0.0203    3.1372 C   0  0  0  0  0  0  0  0  0  0  0  0
   -0.3671   -0.0736    1.8560 C   0  0  0  0  0  0  0  0  0  0  0  0
    0.4830   -0.0289    0.5923 C   0  0  0  0  0  0  0  0  0  0  0  0
   -0.3377   -0.1352   -0.6869 C   0  0  0  0  0  0  0  0  0  0  0  0
    0.5125   -0.0729   -1.9493 C   0  0  0  0  0  0  0  0  0  0  0  0
   -0.3118   -0.1876   -3.2251 C   0  0  0  0  0  0  0  0  0  0  0  0
    0.5549   -0.1057   -4.4839 C   0  0  0  0  0  0  0  0  0  0  0  0
   -0.2588   -0.3103   -5.7210 C   0  0  0  0  0  0  0  0  0  0  0  0
   -0.3025    0.4423   -6.6634 O   0  0  0  0  0  0  0  0  0  0  0  0
   -1.0473   -0.8778    6.9794 H   0  0  0  0  0  0  0  0  0  0  0  0
    0.1439    0.0884    7.8444 H   0  0  0  0  0  0  0  0  0  0  0  0
   -1.1500    0.8801    6.9490 H   0  0  0  0  0  0  0  0  0  0  0  0
    1.0168    0.9802    5.6756 H   0  0  0  0  0  0  0  0  0  0  0  0
    1.1247   -0.7650    5.7123 H   0  0  0  0  0  0  0  0  0  0  0  0
   -1.0024   -0.9284    4.4075 H   0  0  0  0  0  0  0  0  0  0  0  0
   -1.1175    0.8179    4.3732 H   0  0  0  0  0  0  0  0  0  0  0  0
    1.0448    0.9421    3.1234 H   0  0  0  0  0  0  0  0  0  0  0  0
    1.1745   -0.8031    3.1671 H   0  0  0  0  0  0  0  0  0  0  0  0
   -0.9521   -1.0004    1.8671 H   0  0  0  0  0  0  0  0  0  0  0  0
   -1.0967    0.7436    1.8304 H   0  0  0  0  0  0  0  0  0  0  0  0
    1.0612    0.9020    0.5772 H   0  0  0  0  0  0  0  0  0  0  0  0
    1.2179   -0.8411    0.6207 H   0  0  0  0  0  0  0  0  0  0  0  0
   -0.9057   -1.0723   -0.6773 H   0  0  0  0  0  0  0  0  0  0  0  0
   -1.0808    0.6695   -0.7100 H   0  0  0  0  0  0  0  0  0  0  0  0
    1.0748    0.8671   -1.9633 H   0  0  0  0  0  0  0  0  0  0  0  0
    1.2589   -0.8743   -1.9277 H   0  0  0  0  0  0  0  0  0  0  0  0
   -0.8618   -1.1344   -3.2199 H   0  0  0  0  0  0  0  0  0  0  0  0
   -1.0639    0.6065   -3.2480 H   0  0  0  0  0  0  0  0  0  0  0  0
    1.0898    0.8443   -4.5362 H   0  0  0  0  0  0  0  0  0  0  0  0
    1.2999   -0.9097   -4.4528 H   0  0  0  0  0  0  0  0  0  0  0  0
   -0.8531   -1.2432   -5.7211 H   0  0  0  0  0  0  0  0  0  0  0  0
  1  2  1  0
  1 13  1  0
  1 14  1  0
  1 15  1  0
  2  3  1  0
  2 16  1  0
  2 17  1  0
  3  4  1  0
  3 18  1  0
  3 19  1  0
  4  5  1  0
  4 20  1  0
  4 21  1  0
  5  6  1  0
  5 22  1  0
  5 23  1  0
  6  7  1  0
  6 24  1  0
  6 25  1  0
  7  8  1  0
  7 26  1  0
  7 27  1  0
  8  9  1  0
  8 28  1  0
  8 29  1  0
  9 10  1  0
  9 30  1  0
  9 31  1  0
 10 11  1  0
 10 32  1  0
 10 33  1  0
 11 12  2  0
 11 34  1  0
M  END
