
     RDKit          3D

 46 48  0  0  0  0  0  0  0  0999 V2000
   -5.8450    3.7436    0.0042 C   0  0  0  0  0  0  0  0  0  0  0  0
   -4.7561    2.6995   -0.0065 C   0  0  0  0  0  0  0  0  0  0  0  0
   -5.3730    1.4164    0.0730 O   0  0  0  0  0  0  0  0  0  0  0  0
   -4.6095    0.3123    0.0880 C   0  0  0  0  0  0  0  0  0  0  0  0
   -3.2272    0.3205    0.0083 C   0  0  0  0  0  0  0  0  0  0  0  0
   -2.5251   -0.8878    0.0260 C   0  0  0  0  0  0  0  0  0  0  0  0
   -1.1851   -0.7697   -0.0468 O   0  0  0  0  0  0  0  0  0  0  0  0
   -0.4069   -1.9496    0.0393 C   0  0  0  0  0  0  0  0  0  0  0  0
    0.9943   -1.5631    0.0211 C   0  0  0  0  0  0  0  0  0  0  0  0
    2.1608   -1.2676    0.0112 C   0  0  0  0  0  0  0  0  0  0  0  0
    3.5410   -0.9145    0.0095 C   0  0  0  0  0  0  0  0  0  0  0  0
    4.5281   -1.9352    0.0792 C   0  0  0  0  0  0  0  0  0  0  0  0
    5.8569   -1.6246    0.0850 C   0  0  0  0  0  0  0  0  0  0  0  0
    6.2756   -0.2755    0.0202 C   0  0  0  0  0  0  0  0  0  0  0  0
    7.6283    0.1240    0.0225 C   0  0  0  0  0  0  0  0  0  0  0  0
    7.9296    1.4557   -0.0435 C   0  0  0  0  0  0  0  0  0  0  0  0
    6.9967    2.4328   -0.1133 N   0  0  0  0  0  0  0  0  0  0  0  0
    5.7400    2.0829   -0.1167 C   0  0  0  0  0  0  0  0  0  0  0  0
    5.2955    0.7402   -0.0514 C   0  0  0  0  0  0  0  0  0  0  0  0
    3.9279    0.4042   -0.0555 C   0  0  0  0  0  0  0  0  0  0  0  0
   -3.2006   -2.0986    0.1108 C   0  0  0  0  0  0  0  0  0  0  0  0
   -4.5883   -2.0811    0.1872 C   0  0  0  0  0  0  0  0  0  0  0  0
   -5.3111   -0.9023    0.1834 C   0  0  0  0  0  0  0  0  0  0  0  0
   -6.7994   -0.9107    0.3152 C   0  0  0  0  0  0  0  0  0  0  0  0
   -7.4679   -0.4382   -0.9339 N   0  0  0  0  0  0  0  0  0  0  0  0
   -8.4834   -0.4775   -0.8500 H   0  0  0  0  0  0  0  0  0  0  0  0
   -7.2209    0.5288   -1.1443 H   0  0  0  0  0  0  0  0  0  0  0  0
   -7.2096   -1.0056   -1.7405 H   0  0  0  0  0  0  0  0  0  0  0  0
   -5.3920    4.7334   -0.0431 H   0  0  0  0  0  0  0  0  0  0  0  0
   -6.5078    3.6379   -0.8545 H   0  0  0  0  0  0  0  0  0  0  0  0
   -6.4390    3.6888    0.9162 H   0  0  0  0  0  0  0  0  0  0  0  0
   -4.1612    2.7688   -0.9222 H   0  0  0  0  0  0  0  0  0  0  0  0
   -4.0798    2.8356    0.8425 H   0  0  0  0  0  0  0  0  0  0  0  0
   -2.6664    1.2429   -0.0639 H   0  0  0  0  0  0  0  0  0  0  0  0
   -0.6257   -2.4985    0.9623 H   0  0  0  0  0  0  0  0  0  0  0  0
   -0.6163   -2.6243   -0.7988 H   0  0  0  0  0  0  0  0  0  0  0  0
    4.2121   -2.9686    0.1298 H   0  0  0  0  0  0  0  0  0  0  0  0
    6.5998   -2.4099    0.1391 H   0  0  0  0  0  0  0  0  0  0  0  0
    8.4170   -0.6151    0.0758 H   0  0  0  0  0  0  0  0  0  0  0  0
    8.9619    1.7841   -0.0429 H   0  0  0  0  0  0  0  0  0  0  0  0
    5.0013    2.8775   -0.1735 H   0  0  0  0  0  0  0  0  0  0  0  0
    3.1849    1.1901   -0.1079 H   0  0  0  0  0  0  0  0  0  0  0  0
   -2.6840   -3.0479    0.1212 H   0  0  0  0  0  0  0  0  0  0  0  0
   -5.1186   -3.0226    0.2621 H   0  0  0  0  0  0  0  0  0  0  0  0
   -7.1669   -1.9161    0.5029 H   0  0  0  0  0  0  0  0  0  0  0  0
   -7.1566   -0.2635    1.1143 H   0  0  0  0  0  0  0  0  0  0  0  0
  1  2  1  0
  1 29  1  0
  1 30  1  0
  1 31  1  0
  2  3  1  0
  2 32  1  0
  2 33  1  0
  3  4  1  0
  4  5  2  0
  4 23  1  0
  5  6  1  0
  5 34  1  0
  6  7  1  0
  6 21  2  0
  7  8  1  0
  8  9  1  0
  8 35  1  0
  8 36  1  0
  9 10  3  0
 10 11  1  0
 11 12  2  0
 11 20  1  0
 12 13  1  0
 12 37  1  0
 13 14  2  0
 13 38  1  0
 14 15  1  0
 14 19  1  0
 15 16  2  0
 15 39  1  0
 16 17  1  0
 16 40  1  0
 17 18  2  0
 18 19  1  0
 18 41  1  0
 19 20  2  0
 20 42  1  0
 21 22  1  0
 21 43  1  0
 22 23  2  0
 22 44  1  0
 23 24  1  0
 24 25  1  0
 24 45  1  0
 24 46  1  0
 25 26  1  0
 25 27  1  0
 25 28  1  0
M  CHG  1  25   1
M  END
