
     RDKit          3D

 34 36  0  0  0  0  0  0  0  0999 V2000
   -0.2250    2.2557   -1.9398 F   0  0  0  0  0  0  0  0  0  0  0  0
    0.3670    3.0705   -1.0503 C   0  0  0  0  0  0  0  0  0  0  0  0
    0.3774    4.4217   -1.3292 C   0  0  0  0  0  0  0  0  0  0  0  0
    0.9905    5.2840   -0.4343 C   0  0  0  0  0  0  0  0  0  0  0  0
    1.5894    4.7871    0.7168 C   0  0  0  0  0  0  0  0  0  0  0  0
    1.5762    3.4273    0.9671 C   0  0  0  0  0  0  0  0  0  0  0  0
    0.9522    2.5345    0.0919 C   0  0  0  0  0  0  0  0  0  0  0  0
    1.0059    1.0902    0.4425 C   0  0  0  0  0  0  0  0  0  0  0  0
    1.8621    0.6455    1.1844 O   0  0  0  0  0  0  0  0  0  0  0  0
    0.0376    0.2787   -0.0651 N   0  0  0  0  0  0  0  0  0  0  0  0
   -0.0530   -1.0646    0.1987 C   0  0  0  0  0  0  0  0  0  0  0  0
   -1.0252   -1.9034   -0.3005 C   0  0  0  0  0  0  0  0  0  0  0  0
   -2.0490   -1.4525   -1.1623 C   0  0  0  0  0  0  0  0  0  0  0  0
   -2.8836   -1.0688   -1.8621 N   0  0  0  0  0  0  0  0  0  0  0  0
    1.0394   -1.9194    1.2126 S   0  0  0  0  0  0  0  0  0  0  0  0
    0.1838   -3.4070    0.9652 C   0  0  0  0  0  0  0  0  0  0  0  0
    0.6052   -4.6864    1.6132 C   0  0  0  0  0  0  0  0  0  0  0  0
   -0.1034   -5.8623    0.9403 C   0  0  0  0  0  0  0  0  0  0  0  0
   -1.5860   -5.5709    0.7294 C   0  0  0  0  0  0  0  0  0  0  0  0
   -1.7941   -4.3901   -0.2165 C   0  0  0  0  0  0  0  0  0  0  0  0
   -0.8875   -3.2570    0.1493 C   0  0  0  0  0  0  0  0  0  0  0  0
   -0.0838    4.7873   -2.2367 H   0  0  0  0  0  0  0  0  0  0  0  0
    1.0007    6.3454   -0.6416 H   0  0  0  0  0  0  0  0  0  0  0  0
    2.0678    5.4580    1.4166 H   0  0  0  0  0  0  0  0  0  0  0  0
    2.0466    3.0423    1.8614 H   0  0  0  0  0  0  0  0  0  0  0  0
   -0.6958    0.6782   -0.6317 H   0  0  0  0  0  0  0  0  0  0  0  0
    1.6887   -4.8131    1.5542 H   0  0  0  0  0  0  0  0  0  0  0  0
    0.3564   -4.6611    2.6788 H   0  0  0  0  0  0  0  0  0  0  0  0
    0.3680   -6.0693   -0.0248 H   0  0  0  0  0  0  0  0  0  0  0  0
    0.0240   -6.7565    1.5525 H   0  0  0  0  0  0  0  0  0  0  0  0
   -2.0520   -5.3483    1.6938 H   0  0  0  0  0  0  0  0  0  0  0  0
   -2.0926   -6.4512    0.3311 H   0  0  0  0  0  0  0  0  0  0  0  0
   -2.8366   -4.0625   -0.1913 H   0  0  0  0  0  0  0  0  0  0  0  0
   -1.5956   -4.6956   -1.2491 H   0  0  0  0  0  0  0  0  0  0  0  0
 18 17  1  0
 18 19  1  0
 17 16  1  0
 19 20  1  0
 20 21  1  0
 16 21  2  0
 16 15  1  0
 21 12  1  0
 15 11  1  0
 12 11  2  0
 12 13  1  0
 11 10  1  0
 13 14  3  0
  9  8  2  0
 10  8  1  0
  8  7  1  0
  6  7  1  0
  6  5  2  0
  7  2  2  0
  5  4  1  0
  2  1  1  0
  2  3  1  0
  4  3  2  0
  3 22  1  0
  4 23  1  0
  5 24  1  0
  6 25  1  0
 10 26  1  0
 17 27  1  0
 17 28  1  0
 18 29  1  0
 18 30  1  0
 19 31  1  0
 19 32  1  0
 20 33  1  0
 20 34  1  0
M  END
