
     RDKit          3D

 42 43  0  0  0  0  0  0  0  0999 V2000
   -4.3662    2.7444   -0.6187 C   0  0  0  0  0  0  0  0  0  0  0  0
   -5.6868    2.6355   -0.2120 C   0  0  0  0  0  0  0  0  0  0  0  0
   -6.1405    1.4457    0.3375 C   0  0  0  0  0  0  0  0  0  0  0  0
   -0.7781   -1.3127   -0.1215 C   0  0  0  0  0  0  0  0  0  0  0  0
    1.5799   -1.6704   -0.6979 C   0  0  0  0  0  0  0  0  0  0  0  0
    2.7928   -0.7471   -0.6838 C   0  0  2  0  0  0  0  0  0  0  0  0
    4.0758   -1.5736   -0.7175 C   0  0  0  0  0  0  0  0  0  0  0  0
    5.3209   -0.6945   -0.7035 C   0  0  0  0  0  0  0  0  0  0  0  0
    4.0350    1.0816    0.5329 C   0  0  0  0  0  0  0  0  0  0  0  0
    2.8007    0.1867    0.5239 C   0  0  0  0  0  0  0  0  0  0  0  0
    6.5491    1.1088    0.5224 C   0  0  0  0  0  0  0  0  0  0  0  0
   -5.2624    0.3828    0.4689 C   0  0  0  0  0  0  0  0  0  0  0  0
   -3.9313    0.4626    0.0649 C   0  0  0  0  0  0  0  0  0  0  0  0
   -3.5002    1.6682   -0.4813 C   0  0  0  0  0  0  0  0  0  0  0  0
   -1.7693   -0.4306   -0.3338 O   0  0  0  0  0  0  0  0  0  0  0  0
   -0.9070   -2.3142    0.5528 O   0  0  0  0  0  0  0  0  0  0  0  0
    0.3424   -0.9238   -0.7450 N   0  0  0  0  0  0  0  0  0  0  0  0
    5.3110    0.2480    0.5112 C   0  0  2  0  0  0  0  0  0  0  0  0
    7.6512    0.3951    0.7351 O   0  0  0  0  0  0  0  0  0  0  0  0
    6.5706    2.3029    0.3490 O   0  0  0  0  0  0  0  0  0  0  0  0
   -5.8539   -1.0941    1.1685 Cl  0  0  0  0  0  0  0  0  0  0  0  0
   -4.0026    3.6695   -1.0454 H   0  0  0  0  0  0  0  0  0  0  0  0
   -6.3680    3.4690   -0.3175 H   0  0  0  0  0  0  0  0  0  0  0  0
   -7.1676    1.3447    0.6609 H   0  0  0  0  0  0  0  0  0  0  0  0
   -2.9206   -0.9491    1.3103 H   0  0  0  0  0  0  0  0  0  0  0  0
   -3.4642   -1.6074   -0.2291 H   0  0  0  0  0  0  0  0  0  0  0  0
    1.6492   -2.3508   -1.5534 H   0  0  0  0  0  0  0  0  0  0  0  0
    1.5806   -2.2869    0.2021 H   0  0  0  0  0  0  0  0  0  0  0  0
    2.7674   -0.1308   -1.5938 H   0  0  0  0  0  0  0  0  0  0  0  0
    4.0963   -2.2419    0.1510 H   0  0  0  0  0  0  0  0  0  0  0  0
    4.0915   -2.2121   -1.6048 H   0  0  0  0  0  0  0  0  0  0  0  0
    6.2137   -1.3214   -0.6947 H   0  0  0  0  0  0  0  0  0  0  0  0
    5.3562   -0.0989   -1.6220 H   0  0  0  0  0  0  0  0  0  0  0  0
    4.0111    1.7380   -0.3417 H   0  0  0  0  0  0  0  0  0  0  0  0
    4.0176    1.7282    1.4127 H   0  0  0  0  0  0  0  0  0  0  0  0
    1.9022    0.8073    0.5326 H   0  0  0  0  0  0  0  0  0  0  0  0
    2.7743   -0.4142    1.4413 H   0  0  0  0  0  0  0  0  0  0  0  0
   -2.4745    1.7757   -0.8044 H   0  0  0  0  0  0  0  0  0  0  0  0
    0.3052   -0.1062   -1.3343 H   0  0  0  0  0  0  0  0  0  0  0  0
    5.3415   -0.3764    1.4135 H   0  0  0  0  0  0  0  0  0  0  0  0
    8.4294    0.9714    0.7070 H   0  0  0  0  0  0  0  0  0  0  0  0
   -3.0264   -0.7241    0.2453 C   0  0  0  0  0  0  0  0  0  0  0  0
 20 11  2  0
 19 11  1  0
 11 18  1  0
 18  9  1  0
 18  8  1  0
  9 10  1  0
  8  7  1  0
 10  6  1  0
  7  6  1  0
  6  5  1  0
  5 17  1  0
 17  4  1  0
 16  4  2  0
  4 15  1  0
 15 42  1  0
 42 13  1  0
 13 14  1  0
 13 12  2  0
 14  1  2  0
 21 12  1  0
 12  3  1  0
  1  2  1  0
  3  2  2  0
  1 22  1  0
  2 23  1  0
  3 24  1  0
 42 25  1  0
 42 26  1  0
  5 27  1  0
  5 28  1  0
  6 29  1  6
  7 30  1  0
  7 31  1  0
  8 32  1  0
  8 33  1  0
  9 34  1  0
  9 35  1  0
 10 36  1  0
 10 37  1  0
 14 38  1  0
 17 39  1  0
 18 40  1  1
 19 41  1  0
M  END
