
     RDKit          3D

 43 44  0  0  0  0  0  0  0  0999 V2000
    7.2436    0.2527   -1.0851 O   0  0  0  0  0  0  0  0  0  0  0  0
   -1.6681    0.7864   -0.8232 O   0  0  0  0  0  0  0  0  0  0  0  0
   -2.7528    1.7475    1.2314 O   0  0  0  0  0  0  0  0  0  0  0  0
    6.5171    1.1666    0.8140 O   0  0  0  0  0  0  0  0  0  0  0  0
    0.4777   -1.8369    2.8678 O   0  0  0  0  0  0  0  0  0  0  0  0
    2.4949   -1.6216    1.7923 O   0  0  0  0  0  0  0  0  0  0  0  0
   -6.6593   -0.1969   -1.6076 C   0  0  0  0  0  0  0  0  0  0  0  0
   -5.5376   -0.7615   -2.2013 C   0  0  0  0  0  0  0  0  0  0  0  0
   -6.6268    0.1552   -0.2645 C   0  0  0  0  0  0  0  0  0  0  0  0
    3.3953   -0.3802   -2.4558 C   0  0  0  0  0  0  0  0  0  0  0  0
   -4.3864   -0.9688   -1.4554 C   0  0  0  0  0  0  0  0  0  0  0  0
   -5.4750   -0.0519    0.4809 C   0  0  0  0  0  0  0  0  0  0  0  0
    2.3255   -0.0014   -1.6621 C   0  0  0  0  0  0  0  0  0  0  0  0
    4.6980   -0.1808   -2.0200 C   0  0  0  0  0  0  0  0  0  0  0  0
    3.8408    0.7860    0.0143 C   0  0  0  0  0  0  0  0  0  0  0  0
    1.3622    0.9896    0.4400 C   0  0  0  0  0  0  0  0  0  0  0  0
   -3.1001   -0.8212    0.6911 C   0  0  0  0  0  0  0  0  0  0  0  0
   -0.7589    0.2462    1.5080 N   0  0  0  0  0  0  0  0  0  0  0  0
    6.2920    0.6537   -0.2557 C   0  0  0  0  0  0  0  0  0  0  0  0
   -4.3492   -0.6211   -0.1078 C   0  0  0  0  0  0  0  0  0  0  0  0
    2.5336    0.5848   -0.4119 C   0  0  0  0  0  0  0  0  0  0  0  0
    4.9239    0.4071   -0.7793 C   0  0  0  0  0  0  0  0  0  0  0  0
    0.4929   -0.1992    0.8892 C   0  0  2  0  0  0  0  0  0  0  0  0
   -2.0687    0.6455    0.5710 S   0  0  1  0  0  0  0  0  0  0  0  0
    1.1949   -1.2431    1.8822 B   0  0  0  0  0  0  0  0  0  0  0  0
   -5.5594   -1.0398   -3.2468 H   0  0  0  0  0  0  0  0  0  0  0  0
   -7.4993    0.5921    0.2031 H   0  0  0  0  0  0  0  0  0  0  0  0
    3.2150   -0.8327   -3.4215 H   0  0  0  0  0  0  0  0  0  0  0  0
   -3.5154   -1.4131   -1.9207 H   0  0  0  0  0  0  0  0  0  0  0  0
   -5.4555    0.2199    1.5290 H   0  0  0  0  0  0  0  0  0  0  0  0
    1.3144   -0.1555   -2.0212 H   0  0  0  0  0  0  0  0  0  0  0  0
    5.5211   -0.4834   -2.6519 H   0  0  0  0  0  0  0  0  0  0  0  0
    4.0220    1.2494    0.9767 H   0  0  0  0  0  0  0  0  0  0  0  0
    1.7143    1.5387    1.3171 H   0  0  0  0  0  0  0  0  0  0  0  0
    0.7380    1.6804   -0.1310 H   0  0  0  0  0  0  0  0  0  0  0  0
   -3.3008   -0.9725    1.7520 H   0  0  0  0  0  0  0  0  0  0  0  0
   -2.5038   -1.6585    0.3253 H   0  0  0  0  0  0  0  0  0  0  0  0
   -0.6478    0.9073    2.2702 H   0  0  0  0  0  0  0  0  0  0  0  0
    0.2189   -0.7811    0.0012 H   0  0  0  0  0  0  0  0  0  0  0  0
    8.1148    0.4338   -0.7021 H   0  0  0  0  0  0  0  0  0  0  0  0
   -0.4316   -1.5157    2.8831 H   0  0  0  0  0  0  0  0  0  0  0  0
    2.9886   -1.2019    1.0819 H   0  0  0  0  0  0  0  0  0  0  0  0
   -7.5576   -0.0358   -2.1894 H   0  0  0  0  0  0  0  0  0  0  0  0
  1 19  1  0
  2 24  2  0
  3 24  2  0
  4 19  2  0
  5 25  1  0
  6 25  1  0
  7  8  2  0
  7  9  1  0
  7 43  1  0
  8 11  1  0
  8 26  1  0
  9 12  2  0
  9 27  1  0
 10 13  2  0
 10 14  1  0
 10 28  1  0
 11 20  2  0
 11 29  1  0
 12 20  1  0
 12 30  1  0
 13 21  1  0
 13 31  1  0
 14 22  2  0
 14 32  1  0
 15 21  2  0
 15 22  1  0
 15 33  1  0
 16 21  1  0
 16 23  1  0
 16 34  1  0
 16 35  1  0
 17 20  1  0
 17 24  1  0
 17 36  1  0
 17 37  1  0
 18 23  1  0
 24 18  1  1
 18 38  1  0
 19 22  1  0
 23 25  1  0
 23 39  1  6
  1 40  1  0
  5 41  1  0
  6 42  1  0
M  END
