
     RDKit          3D

141141  0  0  0  0  0  0  0  0999 V2000
    1.0932    0.2281   -0.3518 C   0  0  1  0  0  0  0  0  0  0  0  0
   -0.2939    0.0560   -0.2564 O   0  0  0  0  0  0  0  0  0  0  0  0
    1.5701    0.4677    1.1036 C   0  0  2  0  0  0  0  0  0  0  0  0
    1.1447    1.7634    1.4097 O   0  0  0  0  0  0  0  0  0  0  0  0
    3.1173    0.4699    1.0751 C   0  0  1  0  0  0  0  0  0  0  0  0
    3.5092    0.5620    2.4147 O   0  0  0  0  0  0  0  0  0  0  0  0
    3.6119   -0.8661    0.4780 C   0  0  1  0  0  0  0  0  0  0  0  0
    3.1792   -1.9090    1.2911 O   0  0  0  0  0  0  0  0  0  0  0  0
    2.9478   -1.0291   -0.9155 C   0  0  1  0  0  0  0  0  0  0  0  0
    3.3845   -2.3757   -1.5208 C   0  0  0  0  0  0  0  0  0  0  0  0
    1.5513   -1.0311   -0.8019 O   0  0  0  0  0  0  0  0  0  0  0  0
   -0.9922    0.3693   -1.4392 C   0  0  0  0  0  0  0  0  0  0  0  0
   -2.1543    1.2913   -0.9959 C   0  0  1  0  0  0  0  0  0  0  0  0
   -1.5829    2.6786   -0.6630 C   0  0  0  0  0  0  0  0  0  0  0  0
   -3.0058    1.4818   -2.1076 O   0  0  0  0  0  0  0  0  0  0  0  0
   -4.1003    0.6867   -2.2230 C   0  0  0  0  0  0  0  0  0  0  0  0
   -4.2126   -0.2955   -1.5006 O   0  0  0  0  0  0  0  0  0  0  0  0
   -5.0386    1.1422   -3.2933 C   0  0  0  0  0  0  0  0  0  0  0  0
   -6.2511    0.2308   -3.3575 C   0  0  0  0  0  0  0  0  0  0  0  0
   -7.1354    0.3489   -2.1283 C   0  0  0  0  0  0  0  0  0  0  0  0
   -8.3634   -0.5113   -2.3794 C   0  0  0  0  0  0  0  0  0  0  0  0
   -9.2214   -0.5153   -1.1348 C   0  0  0  0  0  0  0  0  0  0  0  0
  -10.5354   -1.2100   -1.4415 C   0  0  0  0  0  0  0  0  0  0  0  0
  -11.5462   -0.7140   -0.4338 C   0  0  0  0  0  0  0  0  0  0  0  0
  -12.0855    0.6045   -0.9585 C   0  0  0  0  0  0  0  0  0  0  0  0
  -13.5537    0.6682   -0.6049 C   0  0  0  0  0  0  0  0  0  0  0  0
  -13.7651    1.9910    0.0878 C   0  0  0  0  0  0  0  0  0  0  0  0
  -14.9648    2.6411   -0.5491 C   0  0  0  0  0  0  0  0  0  0  0  0
  -15.5830    3.4746    0.5351 C   0  0  0  0  0  0  0  0  0  0  0  0
  -16.5983    4.3643   -0.1262 C   0  0  0  0  0  0  0  0  0  0  0  0
  -17.1435    5.2162    0.9885 C   0  0  0  0  0  0  0  0  0  0  0  0
  -18.1406    6.1726    0.3912 C   0  0  0  0  0  0  0  0  0  0  0  0
  -18.3521    7.2751    1.4082 C   0  0  0  0  0  0  0  0  0  0  0  0
  -19.4762    8.1590    0.9217 C   0  0  0  0  0  0  0  0  0  0  0  0
   -2.5463    3.3153    0.1499 O   0  0  0  0  0  0  0  0  0  0  0  0
   -2.1328    4.4094    0.8342 C   0  0  0  0  0  0  0  0  0  0  0  0
   -1.0072    4.8555    0.6517 O   0  0  0  0  0  0  0  0  0  0  0  0
   -3.1539    4.9684    1.7690 C   0  0  0  0  0  0  0  0  0  0  0  0
   -4.5254    4.9816    1.1197 C   0  0  0  0  0  0  0  0  0  0  0  0
   -4.6197    6.2254    0.2622 C   0  0  0  0  0  0  0  0  0  0  0  0
   -6.0316    6.2847   -0.3017 C   0  0  0  0  0  0  0  0  0  0  0  0
   -6.4607    7.7356   -0.2581 C   0  0  0  0  0  0  0  0  0  0  0  0
   -6.3546    8.3049   -1.6552 C   0  0  0  0  0  0  0  0  0  0  0  0
   -5.4355    9.5156   -1.5555 C   0  0  0  0  0  0  0  0  0  0  0  0
   -5.9234   10.5024   -2.5724 C   0  0  0  0  0  0  0  0  0  0  0  0
   -5.1173   10.2991   -3.8346 C   0  0  0  0  0  0  0  0  0  0  0  0
   -5.9699   10.9667   -4.8708 C   0  0  0  0  0  0  0  0  0  0  0  0
   -5.5467   10.5033   -6.2361 C   0  0  0  0  0  0  0  0  0  0  0  0
   -5.8505   11.7056   -7.0850 C   0  0  0  0  0  0  0  0  0  0  0  0
   -6.3661   11.2397   -8.4150 C   0  0  0  0  0  0  0  0  0  0  0  0
   -6.1690   12.4444   -9.2979 C   0  0  0  0  0  0  0  0  0  0  0  0
   -7.0708   12.3115  -10.4943 C   0  0  0  0  0  0  0  0  0  0  0  0
   -7.5647   13.7096  -10.8345 C   0  0  0  0  0  0  0  0  0  0  0  0
   -7.5972   13.8229  -12.3370 C   0  0  0  0  0  0  0  0  0  0  0  0
    1.4014    1.0588   -1.0449 H   0  0  0  0  0  0  0  0  0  0  0  0
    1.1724   -0.3202    1.7877 H   0  0  0  0  0  0  0  0  0  0  0  0
    1.0553    1.8089    2.3578 H   0  0  0  0  0  0  0  0  0  0  0  0
    3.4946    1.3174    0.4504 H   0  0  0  0  0  0  0  0  0  0  0  0
    4.3374    1.0349    2.4210 H   0  0  0  0  0  0  0  0  0  0  0  0
    4.7265   -0.8387    0.3563 H   0  0  0  0  0  0  0  0  0  0  0  0
    3.9561   -2.2717    1.7119 H   0  0  0  0  0  0  0  0  0  0  0  0
    3.2861   -0.1924   -1.5864 H   0  0  0  0  0  0  0  0  0  0  0  0
    3.1169   -3.2093   -3.2080 H   0  0  0  0  0  0  0  0  0  0  0  0
    4.4920   -2.3504   -1.6421 H   0  0  0  0  0  0  0  0  0  0  0  0
    3.1621   -3.2307   -0.8451 H   0  0  0  0  0  0  0  0  0  0  0  0
   -1.3519   -0.5844   -1.8699 H   0  0  0  0  0  0  0  0  0  0  0  0
   -0.3773    0.8673   -2.2199 H   0  0  0  0  0  0  0  0  0  0  0  0
   -2.6880    0.8589   -0.1072 H   0  0  0  0  0  0  0  0  0  0  0  0
   -0.6240    2.5644   -0.1109 H   0  0  0  0  0  0  0  0  0  0  0  0
   -1.3726    3.2942   -1.5631 H   0  0  0  0  0  0  0  0  0  0  0  0
   -5.3397    2.1985   -3.1312 H   0  0  0  0  0  0  0  0  0  0  0  0
   -4.5159    1.1424   -4.2718 H   0  0  0  0  0  0  0  0  0  0  0  0
   -5.9349   -0.8249   -3.4904 H   0  0  0  0  0  0  0  0  0  0  0  0
   -6.8446    0.4712   -4.2634 H   0  0  0  0  0  0  0  0  0  0  0  0
   -7.4283    1.4011   -1.9279 H   0  0  0  0  0  0  0  0  0  0  0  0
   -6.6323    0.0312   -1.1929 H   0  0  0  0  0  0  0  0  0  0  0  0
   -8.0951   -1.5507   -2.6573 H   0  0  0  0  0  0  0  0  0  0  0  0
   -8.9308   -0.1302   -3.2558 H   0  0  0  0  0  0  0  0  0  0  0  0
   -8.7139   -1.0166   -0.2863 H   0  0  0  0  0  0  0  0  0  0  0  0
   -9.3712    0.5267   -0.7762 H   0  0  0  0  0  0  0  0  0  0  0  0
  -10.4380   -2.3084   -1.4390 H   0  0  0  0  0  0  0  0  0  0  0  0
  -10.8901   -0.9808   -2.4729 H   0  0  0  0  0  0  0  0  0  0  0  0
  -12.3518   -1.4561   -0.2709 H   0  0  0  0  0  0  0  0  0  0  0  0
  -11.1159   -0.5723    0.5796 H   0  0  0  0  0  0  0  0  0  0  0  0
  -11.5251    1.4741   -0.5423 H   0  0  0  0  0  0  0  0  0  0  0  0
  -11.9530    0.7536   -2.0506 H   0  0  0  0  0  0  0  0  0  0  0  0
  -13.8981   -0.1598    0.0485 H   0  0  0  0  0  0  0  0  0  0  0  0
  -14.1824    0.5360   -1.5102 H   0  0  0  0  0  0  0  0  0  0  0  0
  -12.8876    2.6737    0.0140 H   0  0  0  0  0  0  0  0  0  0  0  0
  -13.8633    1.8452    1.1840 H   0  0  0  0  0  0  0  0  0  0  0  0
  -15.7081    1.9182   -0.9472 H   0  0  0  0  0  0  0  0  0  0  0  0
  -14.6718    3.2318   -1.4425 H   0  0  0  0  0  0  0  0  0  0  0  0
  -14.8166    4.0693    1.0806 H   0  0  0  0  0  0  0  0  0  0  0  0
  -16.0404    2.8337    1.3192 H   0  0  0  0  0  0  0  0  0  0  0  0
  -16.1320    4.9728   -0.9313 H   0  0  0  0  0  0  0  0  0  0  0  0
  -17.3854    3.7808   -0.6446 H   0  0  0  0  0  0  0  0  0  0  0  0
  -16.3114    5.7480    1.5015 H   0  0  0  0  0  0  0  0  0  0  0  0
  -17.5973    4.5909    1.7852 H   0  0  0  0  0  0  0  0  0  0  0  0
  -19.0737    5.6368    0.1241 H   0  0  0  0  0  0  0  0  0  0  0  0
  -17.7771    6.5807   -0.5770 H   0  0  0  0  0  0  0  0  0  0  0  0
  -17.4038    7.8336    1.5586 H   0  0  0  0  0  0  0  0  0  0  0  0
  -18.5602    6.8381    2.4078 H   0  0  0  0  0  0  0  0  0  0  0  0
  -19.5640    8.1442   -0.1744 H   0  0  0  0  0  0  0  0  0  0  0  0
  -20.4401    7.8163    1.3134 H   0  0  0  0  0  0  0  0  0  0  0  0
  -19.3287    9.2020    1.2113 H   0  0  0  0  0  0  0  0  0  0  0  0
   -3.1590    4.4129    2.7242 H   0  0  0  0  0  0  0  0  0  0  0  0
   -2.8462    6.0010    2.0492 H   0  0  0  0  0  0  0  0  0  0  0  0
   -4.7502    4.0860    0.5052 H   0  0  0  0  0  0  0  0  0  0  0  0
   -5.3269    4.9763    1.8868 H   0  0  0  0  0  0  0  0  0  0  0  0
   -3.8442    6.2637   -0.5300 H   0  0  0  0  0  0  0  0  0  0  0  0
   -4.3943    7.1382    0.8653 H   0  0  0  0  0  0  0  0  0  0  0  0
   -6.0519    5.8552   -1.3250 H   0  0  0  0  0  0  0  0  0  0  0  0
   -6.7534    5.6601    0.2558 H   0  0  0  0  0  0  0  0  0  0  0  0
   -5.7933    8.3080    0.4371 H   0  0  0  0  0  0  0  0  0  0  0  0
   -7.4549    7.8954    0.1903 H   0  0  0  0  0  0  0  0  0  0  0  0
   -5.9760    7.5786   -2.4081 H   0  0  0  0  0  0  0  0  0  0  0  0
   -7.3619    8.5497   -2.0556 H   0  0  0  0  0  0  0  0  0  0  0  0
   -4.3763    9.2226   -1.7141 H   0  0  0  0  0  0  0  0  0  0  0  0
   -5.4380    9.9705   -0.5475 H   0  0  0  0  0  0  0  0  0  0  0  0
   -5.9037   11.5537   -2.2395 H   0  0  0  0  0  0  0  0  0  0  0  0
   -7.0075   10.3209   -2.7943 H   0  0  0  0  0  0  0  0  0  0  0  0
   -4.9337    9.2321   -4.0853 H   0  0  0  0  0  0  0  0  0  0  0  0
   -4.1025   10.7397   -3.7785 H   0  0  0  0  0  0  0  0  0  0  0  0
   -7.0569   10.7633   -4.7318 H   0  0  0  0  0  0  0  0  0  0  0  0
   -5.9000   12.0710   -4.7378 H   0  0  0  0  0  0  0  0  0  0  0  0
   -4.4805   10.2145   -6.3175 H   0  0  0  0  0  0  0  0  0  0  0  0
   -6.0894    9.5819   -6.5326 H   0  0  0  0  0  0  0  0  0  0  0  0
   -6.6167   12.3778   -6.6237 H   0  0  0  0  0  0  0  0  0  0  0  0
   -4.9536   12.3575   -7.1415 H   0  0  0  0  0  0  0  0  0  0  0  0
   -7.4290   10.9233   -8.3215 H   0  0  0  0  0  0  0  0  0  0  0  0
   -5.8550   10.3387   -8.8037 H   0  0  0  0  0  0  0  0  0  0  0  0
   -5.1005   12.5642   -9.5672 H   0  0  0  0  0  0  0  0  0  0  0  0
   -6.3951   13.3801   -8.7309 H   0  0  0  0  0  0  0  0  0  0  0  0
   -7.9281   11.6313  -10.3038 H   0  0  0  0  0  0  0  0  0  0  0  0
   -6.5165   11.8008  -11.3057 H   0  0  0  0  0  0  0  0  0  0  0  0
   -6.9114   14.4944  -10.3896 H   0  0  0  0  0  0  0  0  0  0  0  0
   -8.5412   13.8999  -10.3457 H   0  0  0  0  0  0  0  0  0  0  0  0
   -6.5738   13.8751  -12.7338 H   0  0  0  0  0  0  0  0  0  0  0  0
   -8.0684   12.9380  -12.7853 H   0  0  0  0  0  0  0  0  0  0  0  0
   -8.1428   14.7051  -12.6747 H   0  0  0  0  0  0  0  0  0  0  0  0
    2.7166   -2.4752   -2.7435 O   0  0  0  0  0  0  0  0  0  0  0  0
  1  2  1  0
  1  3  1  0
  1 11  1  0
  1 55  1  6
  2 12  1  0
  3  4  1  0
  3  5  1  0
  3 56  1  1
  4 57  1  0
  5  6  1  0
  5  7  1  0
  5 58  1  6
  6 59  1  0
  7  8  1  0
  7  9  1  0
  7 60  1  6
  8 61  1  0
  9 10  1  0
  9 11  1  0
  9 62  1  6
141 10  1  0
141 63  1  0
 10 64  1  0
 10 65  1  0
 12 13  1  0
 12 66  1  0
 12 67  1  0
 13 14  1  0
 13 15  1  0
 13 68  1  1
 14 35  1  0
 14 69  1  0
 14 70  1  0
 15 16  1  0
 16 17  2  0
 16 18  1  0
 18 19  1  0
 18 71  1  0
 18 72  1  0
 19 20  1  0
 19 73  1  0
 19 74  1  0
 20 21  1  0
 20 75  1  0
 20 76  1  0
 21 22  1  0
 21 77  1  0
 21 78  1  0
 22 23  1  0
 22 79  1  0
 22 80  1  0
 23 24  1  0
 23 81  1  0
 23 82  1  0
 24 25  1  0
 24 83  1  0
 24 84  1  0
 25 26  1  0
 25 85  1  0
 25 86  1  0
 26 27  1  0
 26 87  1  0
 26 88  1  0
 27 28  1  0
 27 89  1  0
 27 90  1  0
 28 29  1  0
 28 91  1  0
 28 92  1  0
 29 30  1  0
 29 93  1  0
 29 94  1  0
 30 31  1  0
 30 95  1  0
 30 96  1  0
 31 32  1  0
 31 97  1  0
 31 98  1  0
 32 33  1  0
 32 99  1  0
 32100  1  0
 33 34  1  0
 33101  1  0
 33102  1  0
 34103  1  0
 34104  1  0
 34105  1  0
 35 36  1  0
 36 37  2  0
 36 38  1  0
 38 39  1  0
 38106  1  0
 38107  1  0
 39 40  1  0
 39108  1  0
 39109  1  0
 40 41  1  0
 40110  1  0
 40111  1  0
 41 42  1  0
 41112  1  0
 41113  1  0
 42 43  1  0
 42114  1  0
 42115  1  0
 43 44  1  0
 43116  1  0
 43117  1  0
 44 45  1  0
 44118  1  0
 44119  1  0
 45 46  1  0
 45120  1  0
 45121  1  0
 46 47  1  0
 46122  1  0
 46123  1  0
 47 48  1  0
 47124  1  0
 47125  1  0
 48 49  1  0
 48126  1  0
 48127  1  0
 49 50  1  0
 49128  1  0
 49129  1  0
 50 51  1  0
 50130  1  0
 50131  1  0
 51 52  1  0
 51132  1  0
 51133  1  0
 52 53  1  0
 52134  1  0
 52135  1  0
 53 54  1  0
 53136  1  0
 53137  1  0
 54138  1  0
 54139  1  0
 54140  1  0
M  END
