
     RDKit          3D

 11 11  0  0  0  0  0  0  0  0999 V2000
    2.0901    0.0444    0.2348 N   0  0  0  0  0  0  0  0  0  0  0  0
    0.7292   -0.0574    0.0687 C   0  0  0  0  0  0  0  0  0  0  0  0
   -0.0753    1.0195   -0.0017 N   0  0  0  0  0  0  0  0  0  0  0  0
   -1.3787    0.7038   -0.0956 N   0  0  0  0  0  0  0  0  0  0  0  0
   -1.3960   -0.6120   -0.0786 C   0  0  0  0  0  0  0  0  0  0  0  0
   -0.1058   -1.1614    0.0217 C   0  0  0  0  0  0  0  0  0  0  0  0
    2.5860   -0.7939   -0.0241 H   0  0  0  0  0  0  0  0  0  0  0  0
    2.5137    0.8494   -0.2023 H   0  0  0  0  0  0  0  0  0  0  0  0
    0.2040    1.9872    0.0119 H   0  0  0  0  0  0  0  0  0  0  0  0
   -2.3345   -1.1431   -0.1428 H   0  0  0  0  0  0  0  0  0  0  0  0
    0.1804   -2.1996    0.0510 H   0  0  0  0  0  0  0  0  0  0  0  0
  4  5  2  0
  4  3  1  0
  5  6  1  0
  3  2  1  0
  2  6  2  0
  2  1  1  0
  1  7  1  0
  1  8  1  0
  3  9  1  0
  5 10  1  0
  6 11  1  0
M  END
