
     RDKit          3D

 35 36  0  0  0  0  0  0  0  0999 V2000
    3.8048    0.5973   -0.7200 C   0  0  0  0  0  0  0  0  0  0  0  0
    3.6479    0.4342   -2.0819 C   0  0  0  0  0  0  0  0  0  0  0  0
    2.3723    0.4564   -2.6235 C   0  0  0  0  0  0  0  0  0  0  0  0
    1.2395    0.6318   -1.8383 C   0  0  0  0  0  0  0  0  0  0  0  0
    1.3984    0.7542   -0.4457 C   0  0  0  0  0  0  0  0  0  0  0  0
    2.6953    0.7532    0.1099 C   0  0  0  0  0  0  0  0  0  0  0  0
    2.8975    0.9077    1.5667 C   0  0  0  0  0  0  0  0  0  0  0  0
    0.2810    0.9128    0.3632 N   0  0  0  0  0  0  0  0  0  0  0  0
   -0.8625    0.1376    0.3290 C   0  0  0  0  0  0  0  0  0  0  0  0
   -0.8875   -1.1986   -0.0974 C   0  0  0  0  0  0  0  0  0  0  0  0
   -2.0610    0.7350    0.7240 C   0  0  0  0  0  0  0  0  0  0  0  0
   -3.2377    0.0184    0.6596 C   0  0  0  0  0  0  0  0  0  0  0  0
   -3.2916   -1.2792    0.1722 C   0  0  0  0  0  0  0  0  0  0  0  0
   -2.1029   -1.8707   -0.2082 C   0  0  0  0  0  0  0  0  0  0  0  0
    0.3678   -1.9800   -0.2849 C   0  0  0  0  0  0  0  0  0  0  0  0
    0.3447   -2.7088   -1.3888 O   0  0  0  0  0  0  0  0  0  0  0  0
    1.2686   -1.9821    0.5140 O   0  0  0  0  0  0  0  0  0  0  0  0
    2.0822    1.3691    2.3375 O   0  0  0  0  0  0  0  0  0  0  0  0
   -4.4740    0.6671    1.0875 N   0  0  0  0  0  0  0  0  0  0  0  0
   -0.0969    0.7512   -2.5118 C   0  0  0  0  0  0  0  0  0  0  0  0
   -5.5072    0.0596    0.9432 O   0  0  0  0  0  0  0  0  0  0  0  0
   -4.3998    1.7741    1.5636 O   0  0  0  0  0  0  0  0  0  0  0  0
    4.0902    0.4943    1.9699 O   0  0  0  0  0  0  0  0  0  0  0  0
    4.8008    0.6058   -0.3002 H   0  0  0  0  0  0  0  0  0  0  0  0
    4.5113    0.3137   -2.7215 H   0  0  0  0  0  0  0  0  0  0  0  0
    2.2494    0.3688   -3.6964 H   0  0  0  0  0  0  0  0  0  0  0  0
    0.4249    1.4474    1.2083 H   0  0  0  0  0  0  0  0  0  0  0  0
   -2.0497    1.7644    1.0539 H   0  0  0  0  0  0  0  0  0  0  0  0
   -4.2186   -1.8270    0.0986 H   0  0  0  0  0  0  0  0  0  0  0  0
   -2.1211   -2.8941   -0.5574 H   0  0  0  0  0  0  0  0  0  0  0  0
    1.1424   -3.2576   -1.4459 H   0  0  0  0  0  0  0  0  0  0  0  0
   -0.6349   -0.1976   -2.5544 H   0  0  0  0  0  0  0  0  0  0  0  0
   -0.7457    1.4695   -2.0110 H   0  0  0  0  0  0  0  0  0  0  0  0
    0.0356    1.0853   -3.5399 H   0  0  0  0  0  0  0  0  0  0  0  0
    4.1896    0.6581    2.9198 H   0  0  0  0  0  0  0  0  0  0  0  0
 18  7  2  0
 23  7  1  0
  7  6  1  0
 17 15  2  0
  1  6  2  0
  1  2  1  0
  6  5  1  0
 15 16  1  0
 15 10  1  0
  2  3  2  0
  8  5  1  0
  8  9  1  0
  5  4  2  0
 10  9  2  0
 10 14  1  0
  9 11  1  0
  3  4  1  0
  4 20  1  0
 14 13  2  0
 11 12  2  0
 13 12  1  0
 12 19  1  0
 19 22  1  0
 19 21  2  0
  1 24  1  0
  2 25  1  0
  3 26  1  0
  8 27  1  0
 11 28  1  0
 13 29  1  0
 14 30  1  0
 16 31  1  0
 20 32  1  0
 20 33  1  0
 20 34  1  0
 23 35  1  0
M  CHG  2  19   1  22  -1
M  END
