
     RDKit          3D

 38 41  0  0  0  0  0  0  0  0999 V2000
   -3.1579   -0.1924   -0.1115 C   0  0  0  0  0  0  0  0  0  0  0  0
   -5.2423    0.7228   -0.7275 C   0  0  0  0  0  0  0  0  0  0  0  0
   -0.6117   -2.4459    0.9280 N   0  0  0  0  0  0  0  0  0  0  0  0
    0.4918   -1.7153    0.9363 C   0  0  0  0  0  0  0  0  0  0  0  0
   -2.9549   -2.3652    0.4805 N   0  0  0  0  0  0  0  0  0  0  0  0
   -3.8834    0.9133   -0.5277 C   0  0  0  0  0  0  0  0  0  0  0  0
   -1.7827   -0.4480    0.2064 C   0  0  0  0  0  0  0  0  0  0  0  0
   -5.8902   -0.4373   -0.5485 N   0  0  0  0  0  0  0  0  0  0  0  0
   -6.7028    2.7117   -1.5002 N   0  0  0  0  0  0  0  0  0  0  0  0
   -3.8392   -1.4122    0.0758 C   0  0  0  0  0  0  0  0  0  0  0  0
   -6.0546    1.8233   -1.1576 C   0  0  0  0  0  0  0  0  0  0  0  0
   -5.2128   -1.4926   -0.1541 C   0  0  0  0  0  0  0  0  0  0  0  0
   -1.7091   -1.8087    0.5657 C   0  0  0  0  0  0  0  0  0  0  0  0
   -0.6117    0.2917    0.2218 C   0  0  0  0  0  0  0  0  0  0  0  0
    0.5627   -0.3540    0.5929 C   0  0  0  0  0  0  0  0  0  0  0  0
    1.8512    0.3618    0.6353 C   0  0  0  0  0  0  0  0  0  0  0  0
    3.0167   -0.2614    0.2033 C   0  0  0  0  0  0  0  0  0  0  0  0
    4.2485    0.3952    0.2334 C   0  0  0  0  0  0  0  0  0  0  0  0
    5.3558   -0.3320   -0.2120 N   0  0  0  0  0  0  0  0  0  0  0  0
    6.6032    0.1085   -0.5274 C   0  0  0  0  0  0  0  0  0  0  0  0
    6.9643    1.2654   -0.4082 O   0  0  0  0  0  0  0  0  0  0  0  0
    7.5101   -0.9611   -1.0814 C   0  0  0  0  0  0  0  0  0  0  0  0
    4.3082    1.7074    0.7037 C   0  0  0  0  0  0  0  0  0  0  0  0
    3.1413    2.3279    1.1286 C   0  0  0  0  0  0  0  0  0  0  0  0
    1.9211    1.6750    1.1016 C   0  0  0  0  0  0  0  0  0  0  0  0
    1.3934   -2.2286    1.2526 H   0  0  0  0  0  0  0  0  0  0  0  0
   -3.1741   -3.3287    0.6812 H   0  0  0  0  0  0  0  0  0  0  0  0
   -3.4258    1.8794   -0.6922 H   0  0  0  0  0  0  0  0  0  0  0  0
   -5.7577   -2.4191   -0.0153 H   0  0  0  0  0  0  0  0  0  0  0  0
   -0.6066    1.3365   -0.0632 H   0  0  0  0  0  0  0  0  0  0  0  0
    2.9707   -1.2715   -0.1888 H   0  0  0  0  0  0  0  0  0  0  0  0
    5.1792   -1.3102   -0.3817 H   0  0  0  0  0  0  0  0  0  0  0  0
    7.5155   -0.8918   -2.1707 H   0  0  0  0  0  0  0  0  0  0  0  0
    8.5282   -0.7947   -0.7357 H   0  0  0  0  0  0  0  0  0  0  0  0
    7.2074   -1.9713   -0.8118 H   0  0  0  0  0  0  0  0  0  0  0  0
    5.2412    2.2435    0.7492 H   0  0  0  0  0  0  0  0  0  0  0  0
    3.1963    3.3426    1.5011 H   0  0  0  0  0  0  0  0  0  0  0  0
    1.0319    2.1754    1.4632 H   0  0  0  0  0  0  0  0  0  0  0  0
  9 11  3  0
 11  2  1  0
  2  6  2  0
  2  8  1  0
  6  1  1  0
  8 12  2  0
  1 10  2  0
  1  7  1  0
 12 10  1  0
 25 24  2  0
 25 16  1  0
 24 23  1  0
 10  5  1  0
 14  7  2  0
 14 15  1  0
  7 13  1  0
 23 18  2  0
 16 15  1  0
 16 17  2  0
 15  4  2  0
  5 13  1  0
 13  3  2  0
  4  3  1  0
 17 18  1  0
 18 19  1  0
 19 20  1  0
 20 21  2  0
 20 22  1  0
  4 26  1  0
  5 27  1  0
  6 28  1  0
 12 29  1  0
 14 30  1  0
 17 31  1  0
 19 32  1  0
 22 33  1  0
 22 34  1  0
 22 35  1  0
 23 36  1  0
 24 37  1  0
 25 38  1  0
M  END
