
     RDKit          3D

 73 77  0  0  0  0  0  0  0  0999 V2000
   -8.2600    2.5201    0.3188 C   0  0  0  0  0  0  0  0  0  0  0  0
   -7.1680    2.7741   -0.5316 C   0  0  0  0  0  0  0  0  0  0  0  0
   -6.2404    1.7909   -0.7390 C   0  0  0  0  0  0  0  0  0  0  0  0
   -6.3599    0.5257   -0.1200 C   0  0  0  0  0  0  0  0  0  0  0  0
   -7.4539    0.2979    0.7476 C   0  0  0  0  0  0  0  0  0  0  0  0
   -6.7557   -1.8302    1.2303 C   0  0  0  0  0  0  0  0  0  0  0  0
   -7.0089   -3.0849    2.0242 C   0  0  0  0  0  0  0  0  0  0  0  0
   -6.3610   -4.3257    1.4312 C   0  0  0  0  0  0  0  0  0  0  0  0
   -4.9005   -4.0413    1.1259 C   0  0  0  0  0  0  0  0  0  0  0  0
   -4.7715   -2.9387    0.0846 C   0  0  0  0  0  0  0  0  0  0  0  0
   -5.6367   -1.7328    0.3621 C   0  0  0  0  0  0  0  0  0  0  0  0
   -5.4339   -0.5404   -0.3106 C   0  0  0  0  0  0  0  0  0  0  0  0
   -3.0387   -0.1689   -0.5785 C   0  0  0  0  0  0  0  0  0  0  0  0
   -1.9441   -0.2402   -1.6280 C   0  0  0  0  0  0  0  0  0  0  0  0
   -0.5560   -0.0406   -1.0331 C   0  0  0  0  0  0  0  0  0  0  0  0
    0.5416   -0.0555   -2.0887 C   0  0  0  0  0  0  0  0  0  0  0  0
    1.9420    0.0659   -1.5013 C   0  0  0  0  0  0  0  0  0  0  0  0
    3.0030    0.0880   -2.5924 C   0  0  0  0  0  0  0  0  0  0  0  0
    5.3449   -0.6568   -2.3304 C   0  0  0  0  0  0  0  0  0  0  0  0
    6.6685   -0.3527   -1.6287 C   0  0  1  0  0  0  0  0  0  0  0  0
    6.8254   -1.3349   -0.4547 C   0  0  0  0  0  0  0  0  0  0  0  0
    7.9821   -1.0021    0.4214 C   0  0  0  0  0  0  0  0  0  0  0  0
    9.2275   -1.5612    0.4077 C   0  0  0  0  0  0  0  0  0  0  0  0
    9.3175    0.0107    1.9837 C   0  0  0  0  0  0  0  0  0  0  0  0
    8.0179    0.0163    1.4285 C   0  0  0  0  0  0  0  0  0  0  0  0
    7.0740    0.9278    1.9161 C   0  0  0  0  0  0  0  0  0  0  0  0
    7.4401    1.7946    2.9276 C   0  0  0  0  0  0  0  0  0  0  0  0
    8.7379    1.7716    3.4659 C   0  0  0  0  0  0  0  0  0  0  0  0
    9.6915    0.8836    3.0049 C   0  0  0  0  0  0  0  0  0  0  0  0
   -8.4106    1.3198    0.9505 C   0  0  0  0  0  0  0  0  0  0  0  0
   -7.6246   -0.8629    1.4085 N   0  0  0  0  0  0  0  0  0  0  0  0
   -4.3513   -0.4041   -1.1829 N   0  0  0  0  0  0  0  0  0  0  0  0
    4.3453    0.1967   -2.0651 N   0  0  0  0  0  0  0  0  0  0  0  0
    7.8098   -0.4418   -2.5119 N   0  0  0  0  0  0  0  0  0  0  0  0
   10.0272   -0.9595    1.3405 N   0  0  0  0  0  0  0  0  0  0  0  0
    5.2315   -1.6341   -3.0612 O   0  0  0  0  0  0  0  0  0  0  0  0
   -9.4272    3.7766    0.5644 Cl  0  0  0  0  0  0  0  0  0  0  0  0
   -7.0633    3.7378   -1.0104 H   0  0  0  0  0  0  0  0  0  0  0  0
   -5.4057    2.0127   -1.3912 H   0  0  0  0  0  0  0  0  0  0  0  0
   -6.6155   -2.9236    3.0345 H   0  0  0  0  0  0  0  0  0  0  0  0
   -8.0866   -3.2124    2.1371 H   0  0  0  0  0  0  0  0  0  0  0  0
   -6.4593   -5.1594    2.1288 H   0  0  0  0  0  0  0  0  0  0  0  0
   -6.8807   -4.6194    0.5138 H   0  0  0  0  0  0  0  0  0  0  0  0
   -4.3887   -3.7435    2.0465 H   0  0  0  0  0  0  0  0  0  0  0  0
   -4.3943   -4.9378    0.7632 H   0  0  0  0  0  0  0  0  0  0  0  0
   -3.7234   -2.6609   -0.0125 H   0  0  0  0  0  0  0  0  0  0  0  0
   -5.0577   -3.3313   -0.8978 H   0  0  0  0  0  0  0  0  0  0  0  0
   -2.8592   -0.9211    0.1903 H   0  0  0  0  0  0  0  0  0  0  0  0
   -3.0062    0.8036   -0.0694 H   0  0  0  0  0  0  0  0  0  0  0  0
   -1.9947   -1.2100   -2.1320 H   0  0  0  0  0  0  0  0  0  0  0  0
   -2.1255    0.5207   -2.3950 H   0  0  0  0  0  0  0  0  0  0  0  0
   -0.5211    0.9071   -0.4851 H   0  0  0  0  0  0  0  0  0  0  0  0
   -0.3639   -0.8268   -0.2955 H   0  0  0  0  0  0  0  0  0  0  0  0
    0.4741   -0.9812   -2.6705 H   0  0  0  0  0  0  0  0  0  0  0  0
    0.3726    0.7611   -2.7987 H   0  0  0  0  0  0  0  0  0  0  0  0
    2.0117    0.9782   -0.8993 H   0  0  0  0  0  0  0  0  0  0  0  0
    2.1336   -0.7712   -0.8234 H   0  0  0  0  0  0  0  0  0  0  0  0
    2.9486   -0.8236   -3.1858 H   0  0  0  0  0  0  0  0  0  0  0  0
    2.8136    0.9224   -3.2747 H   0  0  0  0  0  0  0  0  0  0  0  0
    6.6396    0.6643   -1.2231 H   0  0  0  0  0  0  0  0  0  0  0  0
    5.9024   -1.3326    0.1338 H   0  0  0  0  0  0  0  0  0  0  0  0
    6.9313   -2.3458   -0.8580 H   0  0  0  0  0  0  0  0  0  0  0  0
    9.6134   -2.3591   -0.2074 H   0  0  0  0  0  0  0  0  0  0  0  0
    6.0693    0.9534    1.5107 H   0  0  0  0  0  0  0  0  0  0  0  0
    6.7200    2.5037    3.3152 H   0  0  0  0  0  0  0  0  0  0  0  0
    8.9952    2.4634    4.2577 H   0  0  0  0  0  0  0  0  0  0  0  0
   10.6908    0.8676    3.4213 H   0  0  0  0  0  0  0  0  0  0  0  0
   -9.2449    1.1256    1.6114 H   0  0  0  0  0  0  0  0  0  0  0  0
   -4.5243    0.2999   -1.8869 H   0  0  0  0  0  0  0  0  0  0  0  0
    4.5456    0.9927   -1.4801 H   0  0  0  0  0  0  0  0  0  0  0  0
    7.8041   -1.3395   -2.9824 H   0  0  0  0  0  0  0  0  0  0  0  0
    7.7402    0.2593   -3.2389 H   0  0  0  0  0  0  0  0  0  0  0  0
   10.9847   -1.2062    1.5250 H   0  0  0  0  0  0  0  0  0  0  0  0
 36 19  2  0
 19 20  1  0
 19 33  1  0
 21 20  1  0
 21 22  1  0
 20 34  1  0
 26 27  1  0
 26 25  2  0
  9 10  1  0
  9  8  1  0
 10 11  1  0
 33 18  1  0
 27 28  2  0
 13 32  1  0
 13 14  1  0
 22 25  1  0
 22 23  2  0
 25 24  1  0
 32 12  1  0
  8  7  1  0
 14 15  1  0
 28 29  1  0
 11 12  2  0
 11  6  1  0
 23 35  1  0
 18 17  1  0
 12  4  1  0
 24 29  2  0
 24 35  1  0
 15 16  1  0
  7  6  1  0
 16 17  1  0
  6 31  2  0
  4  3  2  0
  4  5  1  0
  3  2  1  0
 31  5  1  0
  5 30  2  0
  2  1  2  0
 30  1  1  0
  1 37  1  0
  2 38  1  0
  3 39  1  0
  7 40  1  0
  7 41  1  0
  8 42  1  0
  8 43  1  0
  9 44  1  0
  9 45  1  0
 10 46  1  0
 10 47  1  0
 13 48  1  0
 13 49  1  0
 14 50  1  0
 14 51  1  0
 15 52  1  0
 15 53  1  0
 16 54  1  0
 16 55  1  0
 17 56  1  0
 17 57  1  0
 18 58  1  0
 18 59  1  0
 20 60  1  1
 21 61  1  0
 21 62  1  0
 23 63  1  0
 26 64  1  0
 27 65  1  0
 28 66  1  0
 29 67  1  0
 30 68  1  0
 32 69  1  0
 33 70  1  0
 34 71  1  0
 34 72  1  0
 35 73  1  0
M  END
