
     RDKit          3D

 37 39  0  0  0  0  0  0  0  0999 V2000
   -4.8592    1.6863    1.3269 N   0  0  0  0  0  0  0  0  0  0  0  0
   -4.6535    0.8637    0.5879 N   0  0  0  0  0  0  0  0  0  0  0  0
   -4.5350   -0.0693   -0.1848 N   0  0  0  0  0  0  0  0  0  0  0  0
   -3.2826   -0.1283   -0.9449 C   0  0  0  0  0  0  0  0  0  0  0  0
   -2.1347   -0.6721   -0.1011 C   0  0  0  0  0  0  0  0  0  0  0  0
   -0.9311   -0.7991   -0.9102 N   0  0  0  0  0  0  0  0  0  0  0  0
    0.3080   -0.4248   -0.4046 C   0  0  0  0  0  0  0  0  0  0  0  0
    0.5981    0.9049   -0.1398 C   0  0  0  0  0  0  0  0  0  0  0  0
   -0.4006    1.9922   -0.4603 C   0  0  0  0  0  0  0  0  0  0  0  0
   -0.0024    3.3836    0.0178 C   0  0  0  0  0  0  0  0  0  0  0  0
    1.4709    3.6530   -0.2271 C   0  0  0  0  0  0  0  0  0  0  0  0
    2.2964    2.6561    0.5697 C   0  0  0  0  0  0  0  0  0  0  0  0
    1.9092    1.2259    0.2997 C   0  0  0  0  0  0  0  0  0  0  0  0
    2.8595    0.3387    0.4728 N   0  0  0  0  0  0  0  0  0  0  0  0
    2.5923   -0.9611    0.2332 C   0  0  0  0  0  0  0  0  0  0  0  0
    1.3222   -1.4089   -0.2003 C   0  0  0  0  0  0  0  0  0  0  0  0
    3.6281   -1.9040    0.4312 C   0  0  0  0  0  0  0  0  0  0  0  0
    3.4075   -3.2379    0.2246 C   0  0  0  0  0  0  0  0  0  0  0  0
    2.1366   -3.6891   -0.1825 C   0  0  0  0  0  0  0  0  0  0  0  0
    1.1192   -2.7959   -0.3887 C   0  0  0  0  0  0  0  0  0  0  0  0
   -3.4737   -0.7985   -1.7808 H   0  0  0  0  0  0  0  0  0  0  0  0
   -3.0232    0.8478   -1.3637 H   0  0  0  0  0  0  0  0  0  0  0  0
   -1.9381   -0.0239    0.7527 H   0  0  0  0  0  0  0  0  0  0  0  0
   -2.4223   -1.6420    0.3155 H   0  0  0  0  0  0  0  0  0  0  0  0
   -0.9085   -1.6870   -1.3873 H   0  0  0  0  0  0  0  0  0  0  0  0
   -0.5418    1.9997   -1.5471 H   0  0  0  0  0  0  0  0  0  0  0  0
   -1.3806    1.7640   -0.0439 H   0  0  0  0  0  0  0  0  0  0  0  0
   -0.6282    4.1247   -0.4829 H   0  0  0  0  0  0  0  0  0  0  0  0
   -0.2063    3.4770    1.0889 H   0  0  0  0  0  0  0  0  0  0  0  0
    1.6975    3.5625   -1.2942 H   0  0  0  0  0  0  0  0  0  0  0  0
    1.7333    4.6708    0.0663 H   0  0  0  0  0  0  0  0  0  0  0  0
    3.3632    2.7671    0.3704 H   0  0  0  0  0  0  0  0  0  0  0  0
    2.1634    2.8549    1.6396 H   0  0  0  0  0  0  0  0  0  0  0  0
    4.5948   -1.5389    0.7543 H   0  0  0  0  0  0  0  0  0  0  0  0
    4.2054   -3.9519    0.3815 H   0  0  0  0  0  0  0  0  0  0  0  0
    1.9611   -4.7471   -0.3252 H   0  0  0  0  0  0  0  0  0  0  0  0
    0.1510   -3.1784   -0.6850 H   0  0  0  0  0  0  0  0  0  0  0  0
 10  9  1  0
 10 11  1  0
  9  8  1  0
 11 12  1  0
  4  3  1  0
  4  5  1  0
  6  5  1  0
  6  7  1  0
  8  7  2  0
  8 13  1  0
  3  2  2  0
  2  1  2  0
 12 13  1  0
  7 16  1  0
 13 14  2  0
 16 20  2  0
 16 15  1  0
 14 15  1  0
 20 19  1  0
 15 17  2  0
 19 18  2  0
 17 18  1  0
  4 21  1  0
  4 22  1  0
  5 23  1  0
  5 24  1  0
  6 25  1  0
  9 26  1  0
  9 27  1  0
 10 28  1  0
 10 29  1  0
 11 30  1  0
 11 31  1  0
 12 32  1  0
 12 33  1  0
 17 34  1  0
 18 35  1  0
 19 36  1  0
 20 37  1  0
M  CHG  2   1  -1   2   1
M  END
