
     RDKit          3D

 28 28  0  0  0  0  0  0  0  0999 V2000
    2.7957   -1.1091   -1.1985 O   0  0  0  0  0  0  0  0  0  0  0  0
    3.3236   -0.3217   -0.4360 C   0  0  0  0  0  0  0  0  0  0  0  0
    4.4050   -0.6119    0.3067 N   0  0  0  0  0  0  0  0  0  0  0  0
    4.9045   -1.8774    0.3277 O   0  0  0  0  0  0  0  0  0  0  0  0
    2.8469    1.1108   -0.2696 C   0  0  0  0  0  0  0  0  0  0  0  0
    1.3551    1.1704   -0.1073 C   0  0  0  0  0  0  0  0  0  0  0  0
    0.5151    1.1700   -1.2161 C   0  0  0  0  0  0  0  0  0  0  0  0
   -0.8628    1.1979   -1.0592 C   0  0  0  0  0  0  0  0  0  0  0  0
   -1.4370    1.2255    0.2083 C   0  0  0  0  0  0  0  0  0  0  0  0
   -2.9312    1.2156    0.3674 C   0  0  0  0  0  0  0  0  0  0  0  0
   -3.4422   -0.2017    0.5495 C   0  0  0  0  0  0  0  0  0  0  0  0
   -4.3865   -0.5484   -0.3424 N   0  0  0  0  0  0  0  0  0  0  0  0
   -5.0595   -1.7234   -0.1996 O   0  0  0  0  0  0  0  0  0  0  0  0
   -3.0144   -0.9510    1.4074 O   0  0  0  0  0  0  0  0  0  0  0  0
   -0.5974    1.2285    1.3174 C   0  0  0  0  0  0  0  0  0  0  0  0
    0.7809    1.2014    1.1600 C   0  0  0  0  0  0  0  0  0  0  0  0
    4.7625    0.0021    1.0239 H   0  0  0  0  0  0  0  0  0  0  0  0
    5.6162   -1.8991   -0.3254 H   0  0  0  0  0  0  0  0  0  0  0  0
    3.3444    1.6029    0.5680 H   0  0  0  0  0  0  0  0  0  0  0  0
    3.1514    1.6489   -1.1713 H   0  0  0  0  0  0  0  0  0  0  0  0
    0.9376    1.1597   -2.2133 H   0  0  0  0  0  0  0  0  0  0  0  0
   -1.4997    1.2019   -1.9361 H   0  0  0  0  0  0  0  0  0  0  0  0
   -3.2245    1.7746    1.2595 H   0  0  0  0  0  0  0  0  0  0  0  0
   -3.4080    1.7074   -0.4823 H   0  0  0  0  0  0  0  0  0  0  0  0
   -4.8260    0.1199   -0.9585 H   0  0  0  0  0  0  0  0  0  0  0  0
   -4.6261   -2.3546   -0.7885 H   0  0  0  0  0  0  0  0  0  0  0  0
   -1.0199    1.2655    2.3141 H   0  0  0  0  0  0  0  0  0  0  0  0
    1.4179    1.2102    2.0368 H   0  0  0  0  0  0  0  0  0  0  0  0
 13 12  1  0
 12 11  1  0
 14 11  2  0
 11 10  1  0
 10  9  1  0
  8  9  2  0
  8  7  1  0
  9 15  1  0
  7  6  2  0
 15 16  2  0
  6 16  1  0
  6  5  1  0
  5  2  1  0
  1  2  2  0
  2  3  1  0
  3  4  1  0
  3 17  1  0
  4 18  1  0
  5 19  1  0
  5 20  1  0
  7 21  1  0
  8 22  1  0
 10 23  1  0
 10 24  1  0
 12 25  1  0
 13 26  1  0
 15 27  1  0
 16 28  1  0
M  END
