
     RDKit          3D

 43 47  0  0  0  0  0  0  0  0999 V2000
    1.5456   -0.1058   -1.8136 C   0  0  0  0  0  0  0  0  0  0  0  0
   -0.4216   -2.6523   -1.5165 C   0  0  0  0  0  0  0  0  0  0  0  0
    1.6081    0.6153    0.5969 C   0  0  0  0  0  0  0  0  0  0  0  0
   -1.1640    1.7662   -0.4637 C   0  0  0  0  0  0  0  0  0  0  0  0
    2.9810    1.1588    0.3942 C   0  0  0  0  0  0  0  0  0  0  0  0
   -0.6767   -4.1204    1.9623 C   0  0  0  0  0  0  0  0  0  0  0  0
   -2.1878    2.6987   -0.3807 C   0  0  0  0  0  0  0  0  0  0  0  0
   -3.4515    2.2832    0.0024 C   0  0  0  0  0  0  0  0  0  0  0  0
    3.2266    2.4862    0.7354 C   0  0  0  0  0  0  0  0  0  0  0  0
    5.4355    2.3045    0.2304 C   0  0  0  0  0  0  0  0  0  0  0  0
   -4.7347    3.4398    0.1145 Cl  0  0  0  0  0  0  0  0  0  0  0  0
   -0.3500   -3.4344   -2.4363 O   0  0  0  0  0  0  0  0  0  0  0  0
    1.0251    0.7850    1.6552 O   0  0  0  0  0  0  0  0  0  0  0  0
   -0.4282   -1.2875   -1.6096 N   0  0  0  0  0  0  0  0  0  0  0  0
    1.0448   -0.0451   -0.4353 N   0  0  0  0  0  0  0  0  0  0  0  0
   -0.6147   -2.9917    2.6632 N   0  0  0  0  0  0  0  0  0  0  0  0
    4.4195    3.0539    0.6443 N   0  0  0  0  0  0  0  0  0  0  0  0
   -0.2979   -0.6202   -0.3207 C   0  0  2  0  0  0  0  0  0  0  0  0
    0.3101   -0.5399   -2.6016 C   0  0  0  0  0  0  0  0  0  0  0  0
   -0.4125   -1.7775    0.6470 C   0  0  0  0  0  0  0  0  0  0  0  0
   -1.3880    0.4293   -0.1612 C   0  0  0  0  0  0  0  0  0  0  0  0
   -0.5080   -2.9556   -0.0676 C   0  0  0  0  0  0  0  0  0  0  0  0
   -0.4926   -1.8309    2.0284 C   0  0  0  0  0  0  0  0  0  0  0  0
   -2.6692    0.0350    0.2122 C   0  0  0  0  0  0  0  0  0  0  0  0
   -0.6354   -4.1697    0.5750 C   0  0  0  0  0  0  0  0  0  0  0  0
   -3.7034    0.9525    0.2976 C   0  0  0  0  0  0  0  0  0  0  0  0
    4.0513    0.3836   -0.0346 C   0  0  0  0  0  0  0  0  0  0  0  0
    5.3046    0.9672   -0.1122 C   0  0  0  0  0  0  0  0  0  0  0  0
    1.9302    0.8592   -2.1398 H   0  0  0  0  0  0  0  0  0  0  0  0
    2.3344   -0.8520   -1.9139 H   0  0  0  0  0  0  0  0  0  0  0  0
   -0.1873    2.1128   -0.7740 H   0  0  0  0  0  0  0  0  0  0  0  0
   -0.7759   -5.0354    2.5343 H   0  0  0  0  0  0  0  0  0  0  0  0
   -1.9894    3.7383   -0.6039 H   0  0  0  0  0  0  0  0  0  0  0  0
    2.4164    3.1164    1.0873 H   0  0  0  0  0  0  0  0  0  0  0  0
    6.4034    2.7893    0.1736 H   0  0  0  0  0  0  0  0  0  0  0  0
   -0.2746    0.3132   -2.9470 H   0  0  0  0  0  0  0  0  0  0  0  0
    0.5529   -1.1611   -3.4598 H   0  0  0  0  0  0  0  0  0  0  0  0
   -0.4638   -0.9394    2.6393 H   0  0  0  0  0  0  0  0  0  0  0  0
   -2.8830   -1.0003    0.4436 H   0  0  0  0  0  0  0  0  0  0  0  0
   -0.7102   -5.1072    0.0414 H   0  0  0  0  0  0  0  0  0  0  0  0
   -4.6919    0.6292    0.5931 H   0  0  0  0  0  0  0  0  0  0  0  0
    3.9230   -0.6623   -0.2820 H   0  0  0  0  0  0  0  0  0  0  0  0
    6.1669    0.3977   -0.4287 H   0  0  0  0  0  0  0  0  0  0  0  0
 11  8  1  0
  7  8  1  0
  7  4  2  0
  8 26  2  0
  4 21  1  0
 26 24  1  0
 16 23  2  0
 16  6  1  0
 23 20  1  0
 21 24  2  0
 18 21  1  1
  6 25  2  0
 20 18  1  0
 20 22  2  0
 13  3  2  0
 18 15  1  0
 18 14  1  0
 25 22  1  0
  3 15  1  0
  3  5  1  0
 22  2  1  0
 15  1  1  0
  9  5  2  0
  9 17  1  0
  5 27  1  0
 14  2  1  0
 14 19  1  0
  1 19  1  0
  2 12  2  0
 17 10  2  0
 27 28  2  0
 10 28  1  0
  1 29  1  0
  1 30  1  0
  4 31  1  0
  6 32  1  0
  7 33  1  0
  9 34  1  0
 10 35  1  0
 19 36  1  0
 19 37  1  0
 23 38  1  0
 24 39  1  0
 25 40  1  0
 26 41  1  0
 27 42  1  0
 28 43  1  0
M  END
