
     RDKit          3D

 16 17  0  0  0  0  0  0  0  0999 V2000
    0.1491   -0.0271   -2.5568 I   0  0  0  0  0  0  0  0  0  0  0  0
   -2.6245    0.0197    2.8439 O   0  0  0  0  0  0  0  0  0  0  0  0
    0.0316   -0.0131   -0.4897 C   0  0  0  0  0  0  0  0  0  0  0  0
    1.1538   -0.0110    0.2906 N   0  0  0  0  0  0  0  0  0  0  0  0
   -0.5642    0.0172    3.8163 N   0  0  0  0  0  0  0  0  0  0  0  0
    0.8018    0.0108    3.7887 C   0  0  0  0  0  0  0  0  0  0  0  0
    1.4957    0.0042    2.6752 N   0  0  0  0  0  0  0  0  0  0  0  0
    0.7274   -0.0014    1.5801 C   0  0  0  0  0  0  0  0  0  0  0  0
   -0.6540    0.0025    1.4980 C   0  0  0  0  0  0  0  0  0  0  0  0
   -1.4140    0.0136    2.7038 C   0  0  0  0  0  0  0  0  0  0  0  0
   -1.0666   -0.0051    0.1888 N   0  0  0  0  0  0  0  0  0  0  0  0
    2.1141   -0.0178   -0.0208 H   0  0  0  0  0  0  0  0  0  0  0  0
    2.4334    0.0808    4.9767 H   0  0  0  0  0  0  0  0  0  0  0  0
    0.9455    0.1264    5.8345 H   0  0  0  0  0  0  0  0  0  0  0  0
   -1.0247    0.0197    4.7180 H   0  0  0  0  0  0  0  0  0  0  0  0
    1.4324   -0.0128    4.9662 N   0  0  0  0  0  0  0  0  0  0  0  0
  1  3  1  0
  2 10  2  0
  3  4  1  0
  3 11  2  0
  4  8  1  0
  4 12  1  0
 16  6  1  0
 16 13  1  0
 16 14  1  0
  5  6  1  0
  5 10  1  0
  5 15  1  0
  6  7  2  0
  7  8  1  0
  8  9  2  0
  9 10  1  0
  9 11  1  0
M  END
