
     RDKit          3D

 56 59  0  0  0  0  0  0  0  0999 V2000
   -5.1419   -2.9521    1.4336 Cl  0  0  0  0  0  0  0  0  0  0  0  0
   -3.5023   -2.5537    1.0277 C   0  0  0  0  0  0  0  0  0  0  0  0
   -2.5113   -3.4938    1.2414 C   0  0  0  0  0  0  0  0  0  0  0  0
   -1.1932   -3.2077    0.9253 C   0  0  0  0  0  0  0  0  0  0  0  0
   -3.2076   -1.2992    0.5004 C   0  0  0  0  0  0  0  0  0  0  0  0
   -4.3114   -0.3038    0.2820 C   0  0  0  0  0  0  0  0  0  0  0  0
   -3.7639    0.8830   -0.2407 O   0  0  0  0  0  0  0  0  0  0  0  0
   -4.5889    1.9136   -0.5018 C   0  0  0  0  0  0  0  0  0  0  0  0
   -5.9709    1.8898   -0.3251 C   0  0  0  0  0  0  0  0  0  0  0  0
   -6.7461    2.9335   -0.6014 N   0  0  0  0  0  0  0  0  0  0  0  0
   -6.1891    4.0422   -1.0614 C   0  0  0  0  0  0  0  0  0  0  0  0
   -4.8196    4.1611   -1.2681 C   0  0  0  0  0  0  0  0  0  0  0  0
   -4.0054    3.0827   -0.9846 C   0  0  0  0  0  0  0  0  0  0  0  0
   -1.8867   -1.0245    0.1825 C   0  0  0  0  0  0  0  0  0  0  0  0
   -0.8754   -1.9642    0.3852 C   0  0  0  0  0  0  0  0  0  0  0  0
    0.4268   -1.5729    0.0576 N   0  0  0  0  0  0  0  0  0  0  0  0
    1.4628   -2.3737   -0.3063 C   0  0  0  0  0  0  0  0  0  0  0  0
    1.3834   -3.5881   -0.3551 O   0  0  0  0  0  0  0  0  0  0  0  0
    2.7191   -1.6400   -0.6684 C   0  0  0  0  0  0  0  0  0  0  0  0
    3.6003   -2.2819   -1.4339 C   0  0  0  0  0  0  0  0  0  0  0  0
    4.8557   -1.6419   -1.9191 C   0  0  2  0  0  0  0  0  0  0  0  0
    5.9361   -2.2849   -1.2894 F   0  0  0  0  0  0  0  0  0  0  0  0
    2.9446   -0.2446   -0.1522 C   0  0  0  0  0  0  0  0  0  0  0  0
    4.4118    0.1785   -0.2404 C   0  0  1  0  0  0  0  0  0  0  0  0
    4.9102   -0.1586   -1.6433 C   0  0  0  0  0  0  0  0  0  0  0  0
    4.5823    1.6005    0.0485 N   0  0  0  0  0  0  0  0  0  0  0  0
    5.9918    1.9601    0.1468 C   0  0  0  0  0  0  0  0  0  0  0  0
    6.1555    3.4443    0.4089 C   0  0  0  0  0  0  0  0  0  0  0  0
    5.4927    3.8468    1.5849 O   0  0  0  0  0  0  0  0  0  0  0  0
    4.1276    3.5092    1.5085 C   0  0  0  0  0  0  0  0  0  0  0  0
    3.9175    2.0248    1.2739 C   0  0  0  0  0  0  0  0  0  0  0  0
   -2.7621   -4.4578    1.6625 H   0  0  0  0  0  0  0  0  0  0  0  0
   -0.4367   -3.9508    1.1164 H   0  0  0  0  0  0  0  0  0  0  0  0
   -5.0533   -0.7272   -0.4060 H   0  0  0  0  0  0  0  0  0  0  0  0
   -4.8240   -0.1068    1.2314 H   0  0  0  0  0  0  0  0  0  0  0  0
   -6.4792    1.0080    0.0476 H   0  0  0  0  0  0  0  0  0  0  0  0
   -6.8530    4.8711   -1.2775 H   0  0  0  0  0  0  0  0  0  0  0  0
   -4.4005    5.0843   -1.6435 H   0  0  0  0  0  0  0  0  0  0  0  0
   -2.9339    3.1345   -1.1321 H   0  0  0  0  0  0  0  0  0  0  0  0
   -1.6267   -0.0605   -0.2350 H   0  0  0  0  0  0  0  0  0  0  0  0
    0.5507   -0.5787   -0.0586 H   0  0  0  0  0  0  0  0  0  0  0  0
    3.4097   -3.3008   -1.7492 H   0  0  0  0  0  0  0  0  0  0  0  0
    4.9719   -1.8244   -2.9899 H   0  0  0  0  0  0  0  0  0  0  0  0
    2.6052   -0.2057    0.8851 H   0  0  0  0  0  0  0  0  0  0  0  0
    2.3350    0.4762   -0.7126 H   0  0  0  0  0  0  0  0  0  0  0  0
    4.9746   -0.4269    0.4930 H   0  0  0  0  0  0  0  0  0  0  0  0
    5.9304    0.1813   -1.8207 H   0  0  0  0  0  0  0  0  0  0  0  0
    4.2794    0.3519   -2.3772 H   0  0  0  0  0  0  0  0  0  0  0  0
    6.4949    1.3847    0.9432 H   0  0  0  0  0  0  0  0  0  0  0  0
    6.5111    1.7357   -0.7845 H   0  0  0  0  0  0  0  0  0  0  0  0
    7.2136    3.6811    0.5299 H   0  0  0  0  0  0  0  0  0  0  0  0
    5.7792    4.0080   -0.4570 H   0  0  0  0  0  0  0  0  0  0  0  0
    3.6619    3.8007    2.4511 H   0  0  0  0  0  0  0  0  0  0  0  0
    3.6387    4.0733    0.7012 H   0  0  0  0  0  0  0  0  0  0  0  0
    2.8418    1.8631    1.2011 H   0  0  0  0  0  0  0  0  0  0  0  0
    4.2759    1.4577    2.1506 H   0  0  0  0  0  0  0  0  0  0  0  0
  1  2  1  0
  2  3  2  0
  2  5  1  0
  3  4  1  0
  3 32  1  0
  4 15  2  0
  4 33  1  0
  5  6  1  0
  5 14  2  0
  6  7  1  0
  6 34  1  0
  6 35  1  0
  7  8  1  0
  8  9  2  0
  8 13  1  0
  9 10  1  0
  9 36  1  0
 10 11  2  0
 11 12  1  0
 11 37  1  0
 12 13  2  0
 12 38  1  0
 13 39  1  0
 14 15  1  0
 14 40  1  0
 15 16  1  0
 16 17  1  0
 16 41  1  0
 17 18  2  0
 17 19  1  0
 19 20  2  0
 19 23  1  0
 20 21  1  0
 20 42  1  0
 21 22  1  0
 21 25  1  0
 21 43  1  6
 23 24  1  0
 23 44  1  0
 23 45  1  0
 24 25  1  0
 24 26  1  0
 24 46  1  1
 25 47  1  0
 25 48  1  0
 26 27  1  0
 26 31  1  0
 27 28  1  0
 27 49  1  0
 27 50  1  0
 28 29  1  0
 28 51  1  0
 28 52  1  0
 29 30  1  0
 30 31  1  0
 30 53  1  0
 30 54  1  0
 31 55  1  0
 31 56  1  0
M  END
