
     RDKit          3D

 17 16  0  0  0  0  0  0  0  0999 V2000
   -2.2936   -0.2148    0.2649 C   0  0  0  0  0  0  0  0  0  0  0  0
    0.0010    1.2010   -0.0284 O   0  0  0  0  0  0  0  0  0  0  0  0
   -2.8423    0.3394    1.1842 O   0  0  0  0  0  0  0  0  0  0  0  0
   -2.7674   -0.2396   -0.9714 O   0  0  0  0  0  0  0  0  0  0  0  0
   -0.9740   -0.9276    0.3838 C   0  0  0  0  0  0  0  0  0  0  0  0
    0.1785    0.0122    0.0943 C   0  0  0  0  0  0  0  0  0  0  0  0
    1.5308   -0.6336   -0.0204 C   0  0  0  0  0  0  0  0  0  0  0  0
    2.6756    0.3583   -0.0801 C   0  0  0  0  0  0  0  0  0  0  0  0
    3.8651   -0.3869   -0.2257 O   0  0  0  0  0  0  0  0  0  0  0  0
   -0.8617   -1.3119    1.3994 H   0  0  0  0  0  0  0  0  0  0  0  0
   -0.9254   -1.7900   -0.2816 H   0  0  0  0  0  0  0  0  0  0  0  0
    1.6490   -1.3273    0.8159 H   0  0  0  0  0  0  0  0  0  0  0  0
    1.5132   -1.2569   -0.9220 H   0  0  0  0  0  0  0  0  0  0  0  0
   -3.6017    0.2480   -1.0199 H   0  0  0  0  0  0  0  0  0  0  0  0
    2.5253    1.0503   -0.9165 H   0  0  0  0  0  0  0  0  0  0  0  0
    2.6860    0.9603    0.8349 H   0  0  0  0  0  0  0  0  0  0  0  0
    4.5992    0.2288   -0.3162 H   0  0  0  0  0  0  0  0  0  0  0  0
  2  6  2  0
  6  5  1  0
  6  7  1  0
  5  1  1  0
  1  4  1  0
  1  3  2  0
  7  8  1  0
  8  9  1  0
  5 10  1  0
  5 11  1  0
  7 12  1  0
  7 13  1  0
  4 14  1  0
  8 15  1  0
  8 16  1  0
  9 17  1  0
M  END
