
     RDKit          3D

  4  3  0  0  0  0  0  0  0  0999 V2000
   -1.2937   -0.0562    0.0491 N   0  0  0  0  0  0  0  0  0  0  0  0
   -0.1423    0.0055    0.0004 C   0  0  0  0  0  0  0  0  0  0  0  0
    1.1302   -0.0030   -0.0535 O   0  0  0  0  0  0  0  0  0  0  0  0
    1.5019    0.8943   -0.0654 H   0  0  0  0  0  0  0  0  0  0  0  0
  1  2  3  0
  2  3  1  0
  3  4  1  0
M  END
