
     RDKit          3D

 42 44  0  0  0  0  0  0  0  0999 V2000
   -4.1536    2.6000    0.8101 O   0  0  0  0  0  0  0  0  0  0  0  0
   -3.0039    2.5157    0.4395 C   0  0  0  0  0  0  0  0  0  0  0  0
   -2.2049    3.5971    0.2233 N   0  0  0  0  0  0  0  0  0  0  0  0
   -0.8742    3.5809   -0.2028 C   0  0  0  0  0  0  0  0  0  0  0  0
   -0.2946    4.6396   -0.3443 O   0  0  0  0  0  0  0  0  0  0  0  0
   -0.2786    2.3838   -0.4413 N   0  0  0  0  0  0  0  0  0  0  0  0
   -2.3232    1.2267    0.1782 C   0  0  0  0  0  0  0  0  0  0  0  0
   -0.9532    1.2825   -0.2695 C   0  0  0  0  0  0  0  0  0  0  0  0
   -2.9828    0.1354    0.3596 N   0  0  0  0  0  0  0  0  0  0  0  0
   -2.3571   -1.0421    0.1421 C   0  0  0  0  0  0  0  0  0  0  0  0
   -3.0648   -2.2360    0.3613 C   0  0  0  0  0  0  0  0  0  0  0  0
   -2.4796   -3.4630    0.1814 C   0  0  0  0  0  0  0  0  0  0  0  0
   -3.2486   -4.7272    0.4141 C   0  0  0  0  0  0  0  0  0  0  0  0
   -1.1196   -3.5098   -0.2221 C   0  0  0  0  0  0  0  0  0  0  0  0
   -0.4407   -4.8298   -0.4030 C   0  0  0  0  0  0  0  0  0  0  0  0
   -0.4133   -2.3451   -0.4521 C   0  0  0  0  0  0  0  0  0  0  0  0
   -1.0162   -1.0942   -0.2909 C   0  0  0  0  0  0  0  0  0  0  0  0
   -0.3607    0.0907   -0.5330 N   0  0  0  0  0  0  0  0  0  0  0  0
    1.0034    0.0912   -1.0624 C   0  0  0  0  0  0  0  0  0  0  0  0
    2.0483    0.0324    0.0412 C   0  0  0  0  0  0  0  0  0  0  0  0
    3.4459    0.0072   -0.5589 C   0  0  0  0  0  0  0  0  0  0  0  0
    5.7163    0.2629    0.3090 C   0  0  0  0  0  0  0  0  0  0  0  0
    4.4332   -0.0901    0.4911 N   0  0  0  0  0  0  0  0  0  0  0  0
    6.4555   -0.0152    1.3896 O   0  0  0  0  0  0  0  0  0  0  0  0
    6.1653    0.7835   -0.6938 O   0  0  0  0  0  0  0  0  0  0  0  0
   -2.6102    4.5104    0.3885 H   0  0  0  0  0  0  0  0  0  0  0  0
   -4.0964   -2.1537    0.6804 H   0  0  0  0  0  0  0  0  0  0  0  0
   -3.2512   -5.3613   -0.4741 H   0  0  0  0  0  0  0  0  0  0  0  0
   -2.8127   -5.3165    1.2230 H   0  0  0  0  0  0  0  0  0  0  0  0
   -4.2836   -4.5152    0.6763 H   0  0  0  0  0  0  0  0  0  0  0  0
   -0.9150   -5.4074   -1.1992 H   0  0  0  0  0  0  0  0  0  0  0  0
    0.6102   -4.7078   -0.6568 H   0  0  0  0  0  0  0  0  0  0  0  0
   -0.5028   -5.4348    0.5032 H   0  0  0  0  0  0  0  0  0  0  0  0
    0.6242   -2.4278   -0.7441 H   0  0  0  0  0  0  0  0  0  0  0  0
    1.0988   -0.7465   -1.7509 H   0  0  0  0  0  0  0  0  0  0  0  0
    1.1217    0.9987   -1.6488 H   0  0  0  0  0  0  0  0  0  0  0  0
    1.9429    0.8999    0.6956 H   0  0  0  0  0  0  0  0  0  0  0  0
    1.8954   -0.8582    0.6581 H   0  0  0  0  0  0  0  0  0  0  0  0
    3.5347   -0.8291   -1.2609 H   0  0  0  0  0  0  0  0  0  0  0  0
    3.6184    0.9216   -1.1274 H   0  0  0  0  0  0  0  0  0  0  0  0
    4.1969   -0.6291    1.3097 H   0  0  0  0  0  0  0  0  0  0  0  0
    7.3690    0.2509    1.2237 H   0  0  0  0  0  0  0  0  0  0  0  0
  1  2  2  0
  2  3  1  0
  2  7  1  0
  3  4  1  0
  4  5  2  0
  4  6  1  0
  6  8  2  0
  7  8  1  0
  7  9  2  0
  8 18  1  0
  9 10  1  0
 10 11  2  0
 10 17  1  0
 11 12  1  0
 12 13  1  0
 12 14  2  0
 14 15  1  0
 14 16  1  0
 16 17  2  0
 17 18  1  0
 18 19  1  0
 19 20  1  0
 20 21  1  0
 21 23  1  0
 22 25  2  0
 22 24  1  0
 22 23  1  0
  3 26  1  0
 11 27  1  0
 13 28  1  0
 13 29  1  0
 13 30  1  0
 15 31  1  0
 15 32  1  0
 15 33  1  0
 16 34  1  0
 19 35  1  0
 19 36  1  0
 20 37  1  0
 20 38  1  0
 21 39  1  0
 21 40  1  0
 23 41  1  0
 42 24  1  0
M  END
