
     RDKit          3D

 22 21  0  0  0  0  0  0  0  0999 V2000
    1.1661   -0.4457   -0.5915 N   0  0  0  0  0  0  0  0  0  0  0  0
   -0.0762   -0.4768   -1.3250 C   0  0  1  0  0  0  0  0  0  0  0  0
   -1.2223    0.4025   -0.8028 C   0  0  0  0  0  0  0  0  0  0  0  0
    0.1686   -0.0418   -2.7649 C   0  0  0  0  0  0  0  0  0  0  0  0
   -1.8560   -0.1561    0.7447 S   0  0  0  0  0  0  0  0  0  0  0  0
   -1.3043    1.0417    1.9164 C   0  0  0  0  0  0  0  0  0  0  0  0
    0.0197    0.6718    2.5190 C   0  0  0  0  0  0  0  0  0  0  0  0
    1.0857    0.9597    1.9635 O   0  0  0  0  0  0  0  0  0  0  0  0
   -0.0384   -0.0589    3.8196 C   0  0  0  0  0  0  0  0  0  0  0  0
    0.6759    0.9998   -3.1838 O   0  0  0  0  0  0  0  0  0  0  0  0
   -0.2430   -0.9558   -3.6841 O   0  0  0  0  0  0  0  0  0  0  0  0
    1.4729    0.4944   -0.4236 H   0  0  0  0  0  0  0  0  0  0  0  0
    1.0645   -0.9223    0.2840 H   0  0  0  0  0  0  0  0  0  0  0  0
   -0.4330   -1.5531   -1.3389 H   0  0  0  0  0  0  0  0  0  0  0  0
   -2.0781    0.3353   -1.5223 H   0  0  0  0  0  0  0  0  0  0  0  0
   -0.8969    1.4698   -0.7528 H   0  0  0  0  0  0  0  0  0  0  0  0
   -2.0951    1.0674    2.7091 H   0  0  0  0  0  0  0  0  0  0  0  0
   -1.2377    2.0596    1.4565 H   0  0  0  0  0  0  0  0  0  0  0  0
    0.9843   -0.3672    4.1466 H   0  0  0  0  0  0  0  0  0  0  0  0
   -0.4827    0.6058    4.6010 H   0  0  0  0  0  0  0  0  0  0  0  0
   -0.6793   -0.9692    3.7170 H   0  0  0  0  0  0  0  0  0  0  0  0
   -0.0616   -0.6240   -4.5795 H   0  0  0  0  0  0  0  0  0  0  0  0
  1  2  1  0
  1 12  1  0
  1 13  1  0
  2  3  1  0
  2  4  1  0
  2 14  1  6
  3  5  1  0
  3 15  1  0
  3 16  1  0
  4 10  2  0
  4 11  1  0
  5  6  1  0
  6  7  1  0
  6 17  1  0
  6 18  1  0
  7  8  2  0
  7  9  1  0
  9 19  1  0
  9 20  1  0
  9 21  1  0
 11 22  1  0
M  END
