
     RDKit          3D

 28 28  0  0  0  0  0  0  0  0999 V2000
   -1.8325    2.3117    0.6992 C   0  0  0  0  0  0  0  0  0  0  0  0
   -1.1745    1.1336   -0.0225 C   0  0  1  0  0  0  0  0  0  0  0  0
   -1.3894    1.2416   -1.4150 O   0  0  0  0  0  0  0  0  0  0  0  0
    0.3314    1.1848    0.2434 C   0  0  0  0  0  0  0  0  0  0  0  0
    1.1312   -0.0380   -0.2229 C   0  0  2  0  0  0  0  0  0  0  0  0
    2.5270    0.0539    0.4113 C   0  0  0  0  0  0  0  0  0  0  0  0
    3.5059    0.0568   -0.4774 O   0  0  0  0  0  0  0  0  0  0  0  0
    2.7108    0.1051    1.6026 O   0  0  0  0  0  0  0  0  0  0  0  0
    1.1967   -0.0115   -1.6210 O   0  0  0  0  0  0  0  0  0  0  0  0
    0.4710   -1.3259    0.2898 C   0  0  0  0  0  0  0  0  0  0  0  0
   -1.0027   -1.3874   -0.0891 C   0  0  1  0  0  0  0  0  0  0  0  0
   -1.6171   -2.5484    0.4394 O   0  0  0  0  0  0  0  0  0  0  0  0
   -1.7420   -0.1945    0.5005 C   0  0  2  0  0  0  0  0  0  0  0  0
   -3.1137   -0.2319    0.1850 O   0  0  0  0  0  0  0  0  0  0  0  0
   -1.3988    3.2528    0.3572 H   0  0  0  0  0  0  0  0  0  0  0  0
   -2.9060    2.3485    0.5094 H   0  0  0  0  0  0  0  0  0  0  0  0
   -2.3341    1.1260   -1.5686 H   0  0  0  0  0  0  0  0  0  0  0  0
    0.7434    2.0889   -0.2154 H   0  0  0  0  0  0  0  0  0  0  0  0
    0.4709    1.2955    1.3200 H   0  0  0  0  0  0  0  0  0  0  0  0
    4.3605    0.0930   -0.0207 H   0  0  0  0  0  0  0  0  0  0  0  0
    1.5639   -0.8440   -1.9382 H   0  0  0  0  0  0  0  0  0  0  0  0
    0.9970   -2.1977   -0.1150 H   0  0  0  0  0  0  0  0  0  0  0  0
    0.5629   -1.3834    1.3772 H   0  0  0  0  0  0  0  0  0  0  0  0
   -1.1069   -1.3670   -1.1800 H   0  0  0  0  0  0  0  0  0  0  0  0
   -1.4137   -3.2921   -0.1356 H   0  0  0  0  0  0  0  0  0  0  0  0
   -1.5939   -0.2164    1.5934 H   0  0  0  0  0  0  0  0  0  0  0  0
   -3.4176   -1.1396    0.2970 H   0  0  0  0  0  0  0  0  0  0  0  0
   -1.6899    2.2487    1.7788 H   0  0  0  0  0  0  0  0  0  0  0  0
 14 13  1  0
 12 11  1  0
 13  2  1  0
 13 11  1  0
  1  2  1  0
  2  3  1  6
  2  4  1  0
 11 10  1  0
  4  5  1  0
 10  5  1  0
  5  9  1  6
  5  6  1  0
  6  8  2  0
  6  7  1  0
  1 15  1  0
  1 16  1  0
  3 17  1  0
  4 18  1  0
  4 19  1  0
  7 20  1  0
  9 21  1  0
 10 22  1  0
 10 23  1  0
 11 24  1  6
 12 25  1  0
 13 26  1  1
 14 27  1  0
  1 28  1  0
M  END
