
     RDKit          3D

 43 44  0  0  0  0  0  0  0  0999 V2000
   -2.7952   -0.0670   -0.4567 N   0  0  0  0  0  0  0  0  0  0  0  0
   -3.8939   -0.7609   -0.7355 C   0  0  0  0  0  0  0  0  0  0  0  0
   -5.1684   -0.2193   -0.6762 C   0  0  0  0  0  0  0  0  0  0  0  0
   -5.2141    1.1202   -0.3006 C   0  0  0  0  0  0  0  0  0  0  0  0
   -4.1331    1.8291   -0.0191 N   0  0  0  0  0  0  0  0  0  0  0  0
   -2.9711    1.1940   -0.1103 C   0  0  0  0  0  0  0  0  0  0  0  0
   -6.4022   -1.0224   -0.9445 C   0  0  0  0  0  0  0  0  0  0  0  0
   -7.0268   -1.5632    0.3427 C   0  0  0  0  0  0  0  0  0  0  0  0
   -8.2844   -2.3830    0.0857 C   0  0  0  0  0  0  0  0  0  0  0  0
   -8.9105   -2.9108    1.3688 C   0  0  0  0  0  0  0  0  0  0  0  0
   -1.5936    2.2111    0.2807 S   0  0  0  0  0  0  0  0  0  0  0  0
   -0.2344    1.0426    0.0577 C   0  0  0  0  0  0  0  0  0  0  0  0
    1.0585    1.7605    0.3415 C   0  0  0  0  0  0  0  0  0  0  0  0
    1.0655    2.9236    0.6741 O   0  0  0  0  0  0  0  0  0  0  0  0
    2.3273    0.9905    0.2041 C   0  0  0  0  0  0  0  0  0  0  0  0
    3.5319    1.6294    0.5047 C   0  0  0  0  0  0  0  0  0  0  0  0
    4.7303    0.9536    0.3863 C   0  0  0  0  0  0  0  0  0  0  0  0
    4.7197   -0.3694   -0.0397 C   0  0  0  0  0  0  0  0  0  0  0  0
    3.5382   -1.0220   -0.3463 C   0  0  0  0  0  0  0  0  0  0  0  0
    2.3399   -0.3355   -0.2175 C   0  0  0  0  0  0  0  0  0  0  0  0
    6.2676   -1.2240   -0.2092 S   0  0  1  0  0  0  0  0  0  0  0  0
    6.0255   -2.4223   -0.9987 O   0  0  0  0  0  0  0  0  0  0  0  0
    7.2802   -0.2822   -0.6601 O   0  0  0  0  0  0  0  0  0  0  0  0
    6.6142   -1.5518    1.3681 N   0  0  0  0  0  0  0  0  0  0  0  0
   -3.7483   -1.7977   -1.0227 H   0  0  0  0  0  0  0  0  0  0  0  0
   -6.1647    1.6402   -0.2273 H   0  0  0  0  0  0  0  0  0  0  0  0
   -7.1349   -0.4069   -1.4731 H   0  0  0  0  0  0  0  0  0  0  0  0
   -6.1567   -1.8543   -1.6100 H   0  0  0  0  0  0  0  0  0  0  0  0
   -6.2894   -2.1744    0.8732 H   0  0  0  0  0  0  0  0  0  0  0  0
   -7.2644   -0.7266    1.0079 H   0  0  0  0  0  0  0  0  0  0  0  0
   -9.0118   -1.7696   -0.4547 H   0  0  0  0  0  0  0  0  0  0  0  0
   -8.0406   -3.2187   -0.5772 H   0  0  0  0  0  0  0  0  0  0  0  0
   -8.2128   -3.5490    1.9139 H   0  0  0  0  0  0  0  0  0  0  0  0
   -9.1961   -2.0928    2.0330 H   0  0  0  0  0  0  0  0  0  0  0  0
   -9.8064   -3.4976    1.1642 H   0  0  0  0  0  0  0  0  0  0  0  0
   -0.3438    0.1923    0.7343 H   0  0  0  0  0  0  0  0  0  0  0  0
   -0.2353    0.6459   -0.9594 H   0  0  0  0  0  0  0  0  0  0  0  0
    3.5336    2.6600    0.8318 H   0  0  0  0  0  0  0  0  0  0  0  0
    5.6583    1.4568    0.6214 H   0  0  0  0  0  0  0  0  0  0  0  0
    3.5360   -2.0490   -0.6828 H   0  0  0  0  0  0  0  0  0  0  0  0
    1.4223   -0.8549   -0.4576 H   0  0  0  0  0  0  0  0  0  0  0  0
    6.0765   -2.3284    1.7391 H   0  0  0  0  0  0  0  0  0  0  0  0
    7.6081   -1.7032    1.5124 H   0  0  0  0  0  0  0  0  0  0  0  0
  6  1  2  0
  1  2  1  0
  3  2  2  0
  2 25  1  0
  4  3  1  0
  3  7  1  0
  5  4  2  0
  4 26  1  0
  5  6  1  0
 11  6  1  0
  8  7  1  0
  7 27  1  0
  7 28  1  0
  8  9  1  0
  8 29  1  0
  8 30  1  0
  9 10  1  0
  9 31  1  0
  9 32  1  0
 10 33  1  0
 10 34  1  0
 10 35  1  0
 11 12  1  0
 13 12  1  0
 12 36  1  0
 12 37  1  0
 14 13  2  0
 13 15  1  0
 15 16  2  0
 15 20  1  0
 16 17  1  0
 16 38  1  0
 17 18  2  0
 17 39  1  0
 19 18  1  0
 18 21  1  0
 20 19  2  0
 19 40  1  0
 20 41  1  0
 21 24  1  1
 23 21  2  0
 21 22  2  0
 24 42  1  0
 24 43  1  0
M  END
