
     RDKit          3D

 36 38  0  0  0  0  0  0  0  0999 V2000
    1.2102    0.7109    1.3162 N   0  0  0  0  0  0  0  0  0  0  0  0
    0.1662    0.8115    0.3802 C   0  0  0  0  0  0  0  0  0  0  0  0
    2.5754   -1.2285   -0.0416 C   0  0  0  0  0  0  0  0  0  0  0  0
    1.7481   -1.8673   -0.9570 C   0  0  0  0  0  0  0  0  0  0  0  0
    2.2373   -2.1320   -2.2271 C   0  0  0  0  0  0  0  0  0  0  0  0
    3.5338   -1.7680   -2.5651 C   0  0  0  0  0  0  0  0  0  0  0  0
    3.8746   -0.8584   -0.3651 C   0  0  0  0  0  0  0  0  0  0  0  0
   -4.8943   -1.8041    0.9976 C   0  0  0  0  0  0  0  0  0  0  0  0
   -5.8771    0.0902   -0.1041 C   0  0  0  0  0  0  0  0  0  0  0  0
    3.0109   -0.5582    2.4687 O   0  0  0  0  0  0  0  0  0  0  0  0
    1.9226   -0.7898    1.5396 S   0  0  1  0  0  0  0  0  0  0  0  0
    0.8521   -1.7120    1.8651 O   0  0  0  0  0  0  0  0  0  0  0  0
    4.3516   -1.1384   -1.6353 C   0  0  0  0  0  0  0  0  0  0  0  0
    0.3332    1.3924   -0.8787 C   0  0  0  0  0  0  0  0  0  0  0  0
    1.8830    2.0224   -1.3247 Cl  0  0  0  0  0  0  0  0  0  0  0  0
   -1.0983    0.3348    0.6876 C   0  0  0  0  0  0  0  0  0  0  0  0
   -2.1268    0.4226   -0.2455 C   0  0  0  0  0  0  0  0  0  0  0  0
   -1.8253    1.0282   -1.4626 C   0  0  0  0  0  0  0  0  0  0  0  0
   -0.6260    1.5096   -1.7585 N   0  0  0  0  0  0  0  0  0  0  0  0
   -3.4736   -0.1001    0.0402 C   0  0  0  0  0  0  0  0  0  0  0  0
   -4.6123    0.5919   -0.3733 C   0  0  0  0  0  0  0  0  0  0  0  0
   -6.0221   -1.1093    0.5804 C   0  0  0  0  0  0  0  0  0  0  0  0
   -3.6293   -1.3031    0.7300 C   0  0  0  0  0  0  0  0  0  0  0  0
    1.9050    1.4501    1.2679 H   0  0  0  0  0  0  0  0  0  0  0  0
    0.7426   -2.1643   -0.6925 H   0  0  0  0  0  0  0  0  0  0  0  0
    1.6050   -2.6292   -2.9499 H   0  0  0  0  0  0  0  0  0  0  0  0
    3.9101   -1.9801   -3.5571 H   0  0  0  0  0  0  0  0  0  0  0  0
    4.5090   -0.3606    0.3556 H   0  0  0  0  0  0  0  0  0  0  0  0
   -4.9986   -2.7417    1.5278 H   0  0  0  0  0  0  0  0  0  0  0  0
   -6.7515    0.6427   -0.4225 H   0  0  0  0  0  0  0  0  0  0  0  0
    5.3635   -0.8615   -1.8978 H   0  0  0  0  0  0  0  0  0  0  0  0
   -1.2803   -0.0786    1.6703 H   0  0  0  0  0  0  0  0  0  0  0  0
   -2.5773    1.1158   -2.2378 H   0  0  0  0  0  0  0  0  0  0  0  0
   -4.5144    1.5385   -0.8904 H   0  0  0  0  0  0  0  0  0  0  0  0
   -7.0092   -1.5007    0.7880 H   0  0  0  0  0  0  0  0  0  0  0  0
   -2.7565   -1.8640    1.0422 H   0  0  0  0  0  0  0  0  0  0  0  0
 12 11  2  0
 10 11  2  0
 11  1  1  6
 11  3  1  0
  1  2  1  0
  3  7  1  0
  3  4  2  0
  7 13  2  0
  4  5  1  0
  2 16  1  0
  2 14  2  0
 15 14  1  0
  5  6  2  0
 13  6  1  0
 16 17  2  0
 14 19  1  0
 17 18  1  0
 17 20  1  0
 19 18  2  0
 23 20  1  0
 23  8  2  0
 20 21  2  0
  8 22  1  0
 21  9  1  0
 22  9  2  0
  1 24  1  0
  4 25  1  0
  5 26  1  0
  6 27  1  0
  7 28  1  0
  8 29  1  0
  9 30  1  0
 13 31  1  0
 16 32  1  0
 18 33  1  0
 21 34  1  0
 22 35  1  0
 23 36  1  0
M  END
