
     RDKit          3D

 28 29  0  0  0  0  0  0  0  0999 V2000
    2.3530    0.3670   -0.2739 S   0  0  1  0  0  0  0  0  0  0  0  0
    3.5788   -0.3767   -0.4835 O   0  0  0  0  0  0  0  0  0  0  0  0
    2.1084    1.5168   -1.1340 O   0  0  0  0  0  0  0  0  0  0  0  0
   -1.9999    1.5998   -0.2691 C   0  0  0  0  0  0  0  0  0  0  0  0
   -2.9557    0.6739    0.4627 C   0  0  2  0  0  0  0  0  0  0  0  0
   -2.8155   -0.7216   -0.1320 C   0  0  0  0  0  0  0  0  0  0  0  0
   -1.3840   -1.1841   -0.1602 C   0  0  0  0  0  0  0  0  0  0  0  0
   -1.0755   -2.5284   -0.1316 C   0  0  0  0  0  0  0  0  0  0  0  0
    0.2359   -2.9983   -0.1805 C   0  0  0  0  0  0  0  0  0  0  0  0
    1.2628   -2.0845   -0.2389 C   0  0  0  0  0  0  0  0  0  0  0  0
    0.9819   -0.7171   -0.2558 C   0  0  0  0  0  0  0  0  0  0  0  0
   -0.3443   -0.2241   -0.2245 C   0  0  0  0  0  0  0  0  0  0  0  0
   -4.3849    1.1829    0.3628 C   0  0  0  0  0  0  0  0  0  0  0  0
   -0.6441    1.0960   -0.2193 N   0  0  0  0  0  0  0  0  0  0  0  0
   -2.0001    2.5905    0.1874 H   0  0  0  0  0  0  0  0  0  0  0  0
   -2.6615    0.6390    1.5174 H   0  0  0  0  0  0  0  0  0  0  0  0
   -3.4199   -1.4382    0.4283 H   0  0  0  0  0  0  0  0  0  0  0  0
   -3.2174   -0.7102   -1.1518 H   0  0  0  0  0  0  0  0  0  0  0  0
   -1.8911   -3.2403   -0.0769 H   0  0  0  0  0  0  0  0  0  0  0  0
    0.4438   -4.0587   -0.1656 H   0  0  0  0  0  0  0  0  0  0  0  0
    2.2883   -2.4253   -0.2683 H   0  0  0  0  0  0  0  0  0  0  0  0
   -5.0723    0.5277    0.8990 H   0  0  0  0  0  0  0  0  0  0  0  0
   -4.4834    2.1835    0.7861 H   0  0  0  0  0  0  0  0  0  0  0  0
   -4.7118    1.2265   -0.6787 H   0  0  0  0  0  0  0  0  0  0  0  0
    0.0722    1.7517   -0.4819 H   0  0  0  0  0  0  0  0  0  0  0  0
    2.2943    0.8662    1.2498 O   0  0  0  0  0  0  0  0  0  0  0  0
    2.8448    1.6578    1.3837 H   0  0  0  0  0  0  0  0  0  0  0  0
   -2.3378    1.7241   -1.3065 H   0  0  0  0  0  0  0  0  0  0  0  0
 13  5  1  0
  5  6  1  0
  5  4  1  0
  6  7  1  0
  4 14  1  0
  7  8  1  0
  7 12  2  0
  8  9  2  0
 14 12  1  0
 12 11  1  0
  9 10  1  0
 11 10  2  0
 11  1  1  0
  1  2  2  0
  1  3  2  0
  4 28  1  0
  4 15  1  0
  5 16  1  1
  6 17  1  0
  6 18  1  0
  8 19  1  0
  9 20  1  0
 10 21  1  0
 13 22  1  0
 13 23  1  0
 13 24  1  0
 14 25  1  0
  1 26  1  1
 26 27  1  0
M  END
