
     RDKit          3D

 43 46  0  0  0  0  0  0  0  0999 V2000
   -1.6073    0.2466    1.9801 C   0  0  0  0  0  0  0  0  0  0  0  0
   -1.3664   -0.3902    0.6151 C   0  0  1  0  0  0  0  0  0  0  0  0
    0.0744   -0.7643    0.3904 C   0  0  0  0  0  0  0  0  0  0  0  0
    1.2114    0.0110    0.3735 C   0  0  0  0  0  0  0  0  0  0  0  0
    2.4553   -0.5805    0.1073 C   0  0  0  0  0  0  0  0  0  0  0  0
    2.5021   -1.9537   -0.1426 C   0  0  0  0  0  0  0  0  0  0  0  0
    1.3585   -2.7451   -0.1395 C   0  0  0  0  0  0  0  0  0  0  0  0
    0.1519   -2.1297    0.1318 C   0  0  0  0  0  0  0  0  0  0  0  0
   -1.1195   -2.6821    0.2069 N   0  0  0  0  0  0  0  0  0  0  0  0
   -2.0603   -1.7565    0.5442 C   0  0  0  0  0  0  0  0  0  0  0  0
   -3.2312   -1.9856    0.7573 O   0  0  0  0  0  0  0  0  0  0  0  0
    3.6721    0.2290    0.0953 C   0  0  0  0  0  0  0  0  0  0  0  0
    3.9000    1.4768    0.7103 C   0  0  0  0  0  0  0  0  0  0  0  0
    5.1249    1.9142    0.4873 N   0  0  0  0  0  0  0  0  0  0  0  0
    5.7005    0.9823   -0.2637 N   0  0  0  0  0  0  0  0  0  0  0  0
    4.8774   -0.0458   -0.5242 C   0  0  0  0  0  0  0  0  0  0  0  0
    7.0722    1.1345   -0.6854 C   0  0  0  0  0  0  0  0  0  0  0  0
   -1.8330    0.5170   -0.5551 C   0  0  0  0  0  0  0  0  0  0  0  0
   -3.2826    0.9131   -0.5585 C   0  0  0  0  0  0  0  0  0  0  0  0
   -3.7171    2.0357    0.1439 C   0  0  0  0  0  0  0  0  0  0  0  0
   -5.0529    2.4146    0.1299 C   0  0  0  0  0  0  0  0  0  0  0  0
   -5.9777    1.6770   -0.5973 C   0  0  0  0  0  0  0  0  0  0  0  0
   -5.5550    0.5630   -1.3115 C   0  0  0  0  0  0  0  0  0  0  0  0
   -4.2196    0.1863   -1.2896 C   0  0  0  0  0  0  0  0  0  0  0  0
   -1.0941    1.2064    2.0497 H   0  0  0  0  0  0  0  0  0  0  0  0
   -2.6691    0.4163    2.1534 H   0  0  0  0  0  0  0  0  0  0  0  0
   -1.2298   -0.3909    2.7801 H   0  0  0  0  0  0  0  0  0  0  0  0
   -1.2135    1.4168   -0.5150 H   0  0  0  0  0  0  0  0  0  0  0  0
   -1.5853    0.0209   -1.4969 H   0  0  0  0  0  0  0  0  0  0  0  0
    1.1434    1.0780    0.5530 H   0  0  0  0  0  0  0  0  0  0  0  0
    3.4559   -2.4290   -0.3353 H   0  0  0  0  0  0  0  0  0  0  0  0
    1.4238   -3.8076   -0.3332 H   0  0  0  0  0  0  0  0  0  0  0  0
   -1.3215   -3.6659    0.1095 H   0  0  0  0  0  0  0  0  0  0  0  0
    3.2196    2.0589    1.3142 H   0  0  0  0  0  0  0  0  0  0  0  0
    5.1912   -0.8800   -1.1314 H   0  0  0  0  0  0  0  0  0  0  0  0
    7.7427    1.0944    0.1710 H   0  0  0  0  0  0  0  0  0  0  0  0
    7.3231    0.3282   -1.3683 H   0  0  0  0  0  0  0  0  0  0  0  0
    7.2025    2.0848   -1.1985 H   0  0  0  0  0  0  0  0  0  0  0  0
   -3.0008    2.6263    0.7032 H   0  0  0  0  0  0  0  0  0  0  0  0
   -3.9004   -0.6811   -1.8546 H   0  0  0  0  0  0  0  0  0  0  0  0
   -5.3692    3.2918    0.6797 H   0  0  0  0  0  0  0  0  0  0  0  0
   -7.0186    1.9733   -0.6152 H   0  0  0  0  0  0  0  0  0  0  0  0
   -6.2659   -0.0116   -1.8914 H   0  0  0  0  0  0  0  0  0  0  0  0
  2  1  1  1
  2  3  1  0
  2 10  1  0
  2 18  1  0
  3  4  2  0
  3  8  1  0
  4  5  1  0
  5  6  2  0
  5 12  1  0
  6  7  1  0
  7  8  2  0
  8  9  1  0
  9 10  1  0
 10 11  2  0
 12 13  1  0
 12 16  2  0
 13 14  2  0
 14 15  1  0
 15 16  1  0
 15 17  1  0
 18 19  1  0
 19 20  2  0
 19 24  1  0
 20 21  1  0
 21 22  2  0
 22 23  1  0
 23 24  2  0
  1 25  1  0
  1 26  1  0
  1 27  1  0
 18 28  1  0
 18 29  1  0
  4 30  1  0
  6 31  1  0
  7 32  1  0
  9 33  1  0
 13 34  1  0
 16 35  1  0
 17 36  1  0
 17 37  1  0
 17 38  1  0
 20 39  1  0
 24 40  1  0
 21 41  1  0
 22 42  1  0
 23 43  1  0
M  END
