
     RDKit          3D

 11 10  0  0  0  0  0  0  0  0999 V2000
    2.1319    0.3113   -0.1315 C   0  0  0  0  0  0  0  0  0  0  0  0
    1.1790   -0.7177    0.4302 C   0  0  0  0  0  0  0  0  0  0  0  0
   -0.0861   -0.1244    0.7675 O   0  0  0  0  0  0  0  0  0  0  0  0
   -1.0239   -0.1182   -0.1612 C   0  0  0  0  0  0  0  0  0  0  0  0
   -2.0892    0.4034    0.0184 O   0  0  0  0  0  0  0  0  0  0  0  0
    2.2759    1.1407    0.5606 H   0  0  0  0  0  0  0  0  0  0  0  0
    3.1022   -0.1537   -0.3052 H   0  0  0  0  0  0  0  0  0  0  0  0
    1.7784    0.7108   -1.0831 H   0  0  0  0  0  0  0  0  0  0  0  0
    1.0279   -1.5386   -0.2755 H   0  0  0  0  0  0  0  0  0  0  0  0
    1.5606   -1.1430    1.3563 H   0  0  0  0  0  0  0  0  0  0  0  0
   -0.7472   -0.6358   -1.0929 H   0  0  0  0  0  0  0  0  0  0  0  0
  1  2  1  0
  1  6  1  0
  1  7  1  0
  1  8  1  0
  2  3  1  0
  2  9  1  0
  2 10  1  0
  3  4  1  0
  4  5  2  0
  4 11  1  0
M  END
