
     RDKit          3D

 43 46  0  0  0  0  0  0  0  0999 V2000
    1.6275   -2.1633    0.4026 C   0  0  0  0  0  0  0  0  0  0  0  0
    2.8988   -0.0471    0.0416 C   0  0  0  0  0  0  0  0  0  0  0  0
    0.3133    1.3678   -0.0993 C   0  0  0  0  0  0  0  0  0  0  0  0
    3.4389    0.1763   -1.2237 C   0  0  0  0  0  0  0  0  0  0  0  0
   -0.7884   -0.8672    0.3503 C   0  0  0  0  0  0  0  0  0  0  0  0
    0.0151    1.6421   -1.5738 C   0  0  0  0  0  0  0  0  0  0  0  0
    0.3863   -0.1077    0.1830 C   0  0  0  0  0  0  0  0  0  0  0  0
   -0.6444   -2.2339    0.5149 C   0  0  0  0  0  0  0  0  0  0  0  0
    0.5154   -2.8767    0.5400 N   0  0  0  0  0  0  0  0  0  0  0  0
    1.6104   -0.7637    0.2116 C   0  0  0  0  0  0  0  0  0  0  0  0
    4.6509    0.8281   -1.3869 C   0  0  0  0  0  0  0  0  0  0  0  0
    5.3563    1.2708   -0.2705 C   0  0  0  0  0  0  0  0  0  0  0  0
    4.8328    1.0509    1.0014 C   0  0  0  0  0  0  0  0  0  0  0  0
    3.6198    0.3958    1.1474 C   0  0  0  0  0  0  0  0  0  0  0  0
    6.5312    1.8985   -0.4742 O   0  0  0  0  0  0  0  0  0  0  0  0
    2.8085   -2.8423    0.4954 N   0  0  0  0  0  0  0  0  0  0  0  0
   -2.1480   -0.2782    0.3543 C   0  0  0  0  0  0  0  0  0  0  0  0
   -2.5427    0.5822    1.4104 C   0  0  0  0  0  0  0  0  0  0  0  0
   -3.8006    1.1296    1.4905 C   0  0  0  0  0  0  0  0  0  0  0  0
   -4.7009    0.7957    0.4720 C   0  0  0  0  0  0  0  0  0  0  0  0
   -4.3438   -0.0621   -0.5815 C   0  0  0  0  0  0  0  0  0  0  0  0
   -3.0514   -0.6014   -0.6375 C   0  0  0  0  0  0  0  0  0  0  0  0
   -5.5187   -0.1404   -1.3770 C   0  0  0  0  0  0  0  0  0  0  0  0
   -6.4783    0.5875   -0.8627 N   0  0  0  0  0  0  0  0  0  0  0  0
   -5.9878    1.1462    0.2455 N   0  0  0  0  0  0  0  0  0  0  0  0
    1.2513    1.8492    0.1776 H   0  0  0  0  0  0  0  0  0  0  0  0
   -0.4635    1.8298    0.5109 H   0  0  0  0  0  0  0  0  0  0  0  0
    2.9067   -0.1693   -2.1014 H   0  0  0  0  0  0  0  0  0  0  0  0
    0.8027    1.2477   -2.2164 H   0  0  0  0  0  0  0  0  0  0  0  0
   -0.9260    1.1834   -1.8779 H   0  0  0  0  0  0  0  0  0  0  0  0
   -0.0598    2.7143   -1.7557 H   0  0  0  0  0  0  0  0  0  0  0  0
   -1.5301   -2.8496    0.6414 H   0  0  0  0  0  0  0  0  0  0  0  0
    5.0532    0.9922   -2.3787 H   0  0  0  0  0  0  0  0  0  0  0  0
    5.3712    1.3870    1.8802 H   0  0  0  0  0  0  0  0  0  0  0  0
    3.2280    0.2300    2.1435 H   0  0  0  0  0  0  0  0  0  0  0  0
    6.9347    2.1374    0.3677 H   0  0  0  0  0  0  0  0  0  0  0  0
    2.7495   -3.8398    0.3717 H   0  0  0  0  0  0  0  0  0  0  0  0
    3.6275   -2.4235    0.0879 H   0  0  0  0  0  0  0  0  0  0  0  0
   -1.8247    0.8036    2.1904 H   0  0  0  0  0  0  0  0  0  0  0  0
   -4.0790    1.7790    2.3099 H   0  0  0  0  0  0  0  0  0  0  0  0
   -2.7616   -1.2550   -1.4514 H   0  0  0  0  0  0  0  0  0  0  0  0
   -5.6777   -0.6970   -2.2881 H   0  0  0  0  0  0  0  0  0  0  0  0
   -6.5665    1.7620    0.7924 H   0  0  0  0  0  0  0  0  0  0  0  0
 13 14  2  0
 13 12  1  0
 14  2  1  0
 15 12  1  0
 16  1  1  0
 12 11  2  0
  1  9  2  0
  1 10  1  0
  2 10  1  0
  2  4  2  0
  9  8  1  0
 10  7  2  0
 11  4  1  0
  8  5  2  0
  7  5  1  0
  7  3  1  0
  5 17  1  0
 18 17  2  0
 18 19  1  0
  3  6  1  0
 17 22  1  0
 19 20  2  0
 22 21  2  0
 20 21  1  0
 20 25  1  0
 21 23  1  0
 25 24  1  0
 23 24  2  0
  3 26  1  0
  3 27  1  0
  4 28  1  0
  6 29  1  0
  6 30  1  0
  6 31  1  0
  8 32  1  0
 11 33  1  0
 13 34  1  0
 14 35  1  0
 15 36  1  0
 16 37  1  0
 16 38  1  0
 18 39  1  0
 19 40  1  0
 22 41  1  0
 23 42  1  0
 25 43  1  0
M  END
