
     RDKit          3D

 35 37  0  0  0  0  0  0  0  0999 V2000
   -2.3655   -1.9648   -0.1839 C   0  0  0  0  0  0  0  0  0  0  0  0
   -3.6487   -1.4273   -0.3107 C   0  0  0  0  0  0  0  0  0  0  0  0
   -1.2649   -1.1173   -0.0788 C   0  0  0  0  0  0  0  0  0  0  0  0
    0.7057    1.6569   -0.0194 C   0  0  0  0  0  0  0  0  0  0  0  0
    2.7790    1.0138   -0.6964 C   0  0  0  0  0  0  0  0  0  0  0  0
    3.4215    1.9633   -0.0081 N   0  0  0  0  0  0  0  0  0  0  0  0
    2.6528    2.7870    0.6896 C   0  0  0  0  0  0  0  0  0  0  0  0
    1.2762    2.6861    0.7351 C   0  0  0  0  0  0  0  0  0  0  0  0
    1.4579    0.8360   -0.7398 N   0  0  0  0  0  0  0  0  0  0  0  0
   -0.7415    1.4713   -0.0603 C   0  0  0  0  0  0  0  0  0  0  0  0
   -1.6464    2.5028   -0.0905 C   0  0  0  0  0  0  0  0  0  0  0  0
   -2.9068    2.0129   -0.2049 N   0  0  0  0  0  0  0  0  0  0  0  0
   -2.8658    0.6513   -0.2414 C   0  0  0  0  0  0  0  0  0  0  0  0
   -3.9306   -0.1364   -0.3281 N   0  0  0  0  0  0  0  0  0  0  0  0
   -1.5151    0.2637   -0.1505 C   0  0  0  0  0  0  0  0  0  0  0  0
   -0.0129   -1.5179    0.1040 O   0  0  0  0  0  0  0  0  0  0  0  0
    0.2709   -2.9086    0.1929 C   0  0  0  0  0  0  0  0  0  0  0  0
    1.7619   -3.0755    0.3940 C   0  0  0  0  0  0  0  0  0  0  0  0
    2.1347   -4.5464    0.5197 C   0  0  0  0  0  0  0  0  0  0  0  0
   -2.2622   -3.0399   -0.1535 H   0  0  0  0  0  0  0  0  0  0  0  0
   -4.4898   -2.1070   -0.3885 H   0  0  0  0  0  0  0  0  0  0  0  0
    4.5212    0.1408   -1.2764 H   0  0  0  0  0  0  0  0  0  0  0  0
    3.1015   -0.6604   -1.7947 H   0  0  0  0  0  0  0  0  0  0  0  0
    3.1635    3.5611    1.2526 H   0  0  0  0  0  0  0  0  0  0  0  0
    0.6804    3.3526    1.3408 H   0  0  0  0  0  0  0  0  0  0  0  0
   -1.4685    3.5663   -0.0729 H   0  0  0  0  0  0  0  0  0  0  0  0
   -3.7436    2.5694   -0.2738 H   0  0  0  0  0  0  0  0  0  0  0  0
   -0.2796   -3.3512    1.0309 H   0  0  0  0  0  0  0  0  0  0  0  0
   -0.0501   -3.4182   -0.7222 H   0  0  0  0  0  0  0  0  0  0  0  0
    2.2962   -2.6275   -0.4474 H   0  0  0  0  0  0  0  0  0  0  0  0
    2.0710   -2.5348    1.2918 H   0  0  0  0  0  0  0  0  0  0  0  0
    1.6358   -5.0114    1.3715 H   0  0  0  0  0  0  0  0  0  0  0  0
    1.8560   -5.1067   -0.3742 H   0  0  0  0  0  0  0  0  0  0  0  0
    3.2084   -4.6643    0.6618 H   0  0  0  0  0  0  0  0  0  0  0  0
    3.5316    0.1794   -1.4489 N   0  0  0  0  0  0  0  0  0  0  0  0
  1  2  2  0
  1  3  1  0
  2 14  1  0
  3 15  2  0
  3 16  1  0
  4  8  1  0
  4  9  2  0
  4 10  1  0
 35  5  1  0
  5  6  2  0
  5  9  1  0
  6  7  1  0
  7  8  2  0
 10 11  2  0
 10 15  1  0
 11 12  1  0
 12 13  1  0
 13 14  2  0
 13 15  1  0
 16 17  1  0
 17 18  1  0
 18 19  1  0
  1 20  1  0
  2 21  1  0
 35 22  1  0
 35 23  1  0
  7 24  1  0
  8 25  1  0
 11 26  1  0
 12 27  1  0
 17 28  1  0
 17 29  1  0
 18 30  1  0
 18 31  1  0
 19 32  1  0
 19 33  1  0
 19 34  1  0
M  END
