
     RDKit          3D

 22 22  0  0  0  0  0  0  0  0999 V2000
    2.2778    1.4477   -1.3106 O   0  0  0  0  0  0  0  0  0  0  0  0
    1.5096    1.4078    0.0854 P   0  0  1  0  0  0  0  0  0  0  0  0
    2.6725    0.7216    0.9389 O   0  0  0  0  0  0  0  0  0  0  0  0
    0.9694    2.6951    0.5781 O   0  0  0  0  0  0  0  0  0  0  0  0
    0.1945    0.1637   -0.0379 C   0  0  0  0  0  0  0  0  0  0  0  0
   -1.1107    0.6371   -0.0008 C   0  0  0  0  0  0  0  0  0  0  0  0
   -2.1643   -0.2597   -0.0466 C   0  0  0  0  0  0  0  0  0  0  0  0
   -3.5306    0.2517   -0.0288 N   0  0  0  0  0  0  0  0  0  0  0  0
   -3.6857    1.4476    0.0169 O   0  0  0  0  0  0  0  0  0  0  0  0
   -4.4310   -0.5509   -0.0625 O   0  0  0  0  0  0  0  0  0  0  0  0
   -1.9562   -1.6264   -0.0925 C   0  0  0  0  0  0  0  0  0  0  0  0
   -0.6552   -2.0975   -0.0997 C   0  0  0  0  0  0  0  0  0  0  0  0
    0.4189   -1.2161   -0.0904 C   0  0  0  0  0  0  0  0  0  0  0  0
    1.7933   -1.7999   -0.2034 C   0  0  0  0  0  0  0  0  0  0  0  0
    2.5386   -1.5541   -1.1122 O   0  0  0  0  0  0  0  0  0  0  0  0
    2.0415   -2.6443    0.7800 O   0  0  0  0  0  0  0  0  0  0  0  0
    1.8152    1.9568   -1.9900 H   0  0  0  0  0  0  0  0  0  0  0  0
    2.5071    0.7205    1.8915 H   0  0  0  0  0  0  0  0  0  0  0  0
   -1.2937    1.6996    0.0687 H   0  0  0  0  0  0  0  0  0  0  0  0
   -2.7794   -2.3249   -0.1160 H   0  0  0  0  0  0  0  0  0  0  0  0
   -0.4869   -3.1653   -0.1285 H   0  0  0  0  0  0  0  0  0  0  0  0
    2.9146   -3.0519    0.6651 H   0  0  0  0  0  0  0  0  0  0  0  0
  4  2  2  0
 15 14  2  0
  2  3  1  1
  2  1  1  0
  2  5  1  0
 14 16  1  0
 14 13  1  0
  5 13  2  0
  5  6  1  0
 13 12  1  0
  6  7  2  0
 12 11  2  0
  7 11  1  0
  7  8  1  0
 10  8  1  0
  8  9  2  0
  1 17  1  0
  3 18  1  0
  6 19  1  0
 11 20  1  0
 12 21  1  0
 16 22  1  0
M  CHG  2   8   1  10  -1
M  END
