
     RDKit          3D

 85 88  0  0  0  0  0  0  0  0999 V2000
   -3.1178   -1.9288   -3.3116 C   0  0  0  0  0  0  0  0  0  0  0  0
   -4.4287   -2.4372   -2.8118 C   0  0  0  0  0  0  0  0  0  0  0  0
   -5.0533   -3.4426   -3.5000 N   0  0  0  0  0  0  0  0  0  0  0  0
   -6.1882   -3.7542   -2.9668 C   0  0  0  0  0  0  0  0  0  0  0  0
   -6.5985   -2.8513   -1.5705 S   0  0  0  0  0  0  0  0  0  0  0  0
   -5.1165   -1.9772   -1.7200 C   0  0  0  0  0  0  0  0  0  0  0  0
   -4.7644   -0.9243   -0.7659 C   0  0  0  0  0  0  0  0  0  0  0  0
   -5.7071    0.0234   -0.3609 C   0  0  0  0  0  0  0  0  0  0  0  0
   -5.3618    1.0265    0.5283 C   0  0  0  0  0  0  0  0  0  0  0  0
   -3.4766   -0.8381   -0.2385 C   0  0  0  0  0  0  0  0  0  0  0  0
   -3.1332    0.1729    0.6468 C   0  0  0  0  0  0  0  0  0  0  0  0
   -4.0702    1.1198    1.0405 C   0  0  0  0  0  0  0  0  0  0  0  0
   -3.7507    2.2205    2.0244 C   0  0  0  0  0  0  0  0  0  0  0  0
   -2.3478    2.5021    2.1902 N   0  0  0  0  0  0  0  0  0  0  0  0
   -1.6162    3.0822    1.2290 C   0  0  0  0  0  0  0  0  0  0  0  0
   -2.0727    3.3994    0.1432 O   0  0  0  0  0  0  0  0  0  0  0  0
   -0.1773    3.4082    1.6097 C   0  0  2  0  0  0  0  0  0  0  0  0
    0.0067    4.9207    1.8002 C   0  0  0  0  0  0  0  0  0  0  0  0
    1.4176    5.1759    1.2992 C   0  0  1  0  0  0  0  0  0  0  0  0
    2.3139    4.7705    2.3062 O   0  0  0  0  0  0  0  0  0  0  0  0
    1.4753    4.2668    0.0770 C   0  0  0  0  0  0  0  0  0  0  0  0
    0.7294    3.0945    0.5150 N   0  0  0  0  0  0  0  0  0  0  0  0
    0.8791    1.8163    0.1433 C   0  0  0  0  0  0  0  0  0  0  0  0
    0.3016    0.9127    0.7396 O   0  0  0  0  0  0  0  0  0  0  0  0
    1.7671    1.4805   -1.0519 C   0  0  2  0  0  0  0  0  0  0  0  0
    0.9541    1.3500   -2.3753 C   0  0  1  0  0  0  0  0  0  0  0  0
   -0.1365    0.2837   -2.2821 C   0  0  0  0  0  0  0  0  0  0  0  0
    0.3167    2.6966   -2.7194 C   0  0  0  0  0  0  0  0  0  0  0  0
    1.9282    0.9709   -3.4937 C   0  0  0  0  0  0  0  0  0  0  0  0
    2.4727    0.2655   -0.7178 N   0  0  0  0  0  0  0  0  0  0  0  0
    3.8058    0.1279   -0.7999 C   0  0  0  0  0  0  0  0  0  0  0  0
    4.5493    0.9904   -1.2341 O   0  0  0  0  0  0  0  0  0  0  0  0
    4.3640   -1.2492   -0.4058 C   0  0  1  0  0  0  0  0  0  0  0  0
    5.6675   -1.0858    0.1792 N   0  0  0  0  0  0  0  0  0  0  0  0
    5.8722   -0.3345    1.2730 C   0  0  0  0  0  0  0  0  0  0  0  0
    4.9604    0.2638    1.8289 O   0  0  0  0  0  0  0  0  0  0  0  0
    7.2947   -0.2680    1.7641 C   0  0  0  0  0  0  0  0  0  0  0  0
    3.4358   -2.1337    0.4476 C   0  0  0  0  0  0  0  0  0  0  0  0
    4.1048   -3.4233    0.8290 C   0  0  0  0  0  0  0  0  0  0  0  0
    4.1490   -4.4888   -0.0673 C   0  0  0  0  0  0  0  0  0  0  0  0
    4.7957   -5.6716    0.2645 C   0  0  0  0  0  0  0  0  0  0  0  0
    5.4087   -5.8063    1.5038 C   0  0  0  0  0  0  0  0  0  0  0  0
    5.3674   -4.7518    2.4065 C   0  0  0  0  0  0  0  0  0  0  0  0
    4.7212   -3.5699    2.0686 C   0  0  0  0  0  0  0  0  0  0  0  0
   -2.3074   -2.6221   -3.0773 H   0  0  0  0  0  0  0  0  0  0  0  0
   -3.1439   -1.8169   -4.3954 H   0  0  0  0  0  0  0  0  0  0  0  0
   -2.8646   -0.9655   -2.8746 H   0  0  0  0  0  0  0  0  0  0  0  0
   -6.8479   -4.5203   -3.3504 H   0  0  0  0  0  0  0  0  0  0  0  0
   -6.7136   -0.0073   -0.7608 H   0  0  0  0  0  0  0  0  0  0  0  0
   -6.1092    1.7569    0.8161 H   0  0  0  0  0  0  0  0  0  0  0  0
   -2.7324   -1.5756   -0.5109 H   0  0  0  0  0  0  0  0  0  0  0  0
   -2.1188    0.2215    1.0189 H   0  0  0  0  0  0  0  0  0  0  0  0
   -4.2769    3.1306    1.7271 H   0  0  0  0  0  0  0  0  0  0  0  0
   -4.1385    1.9488    3.0070 H   0  0  0  0  0  0  0  0  0  0  0  0
   -1.8951    2.1926    3.0337 H   0  0  0  0  0  0  0  0  0  0  0  0
    0.1209    2.8671    2.5121 H   0  0  0  0  0  0  0  0  0  0  0  0
   -0.6953    5.4730    1.1734 H   0  0  0  0  0  0  0  0  0  0  0  0
   -0.1448    5.2304    2.8334 H   0  0  0  0  0  0  0  0  0  0  0  0
    1.5723    6.2221    1.0133 H   0  0  0  0  0  0  0  0  0  0  0  0
    3.2123    4.8491    1.9703 H   0  0  0  0  0  0  0  0  0  0  0  0
    0.9916    4.7540   -0.7733 H   0  0  0  0  0  0  0  0  0  0  0  0
    2.4968    4.0212   -0.2110 H   0  0  0  0  0  0  0  0  0  0  0  0
    2.5174    2.2541   -1.2135 H   0  0  0  0  0  0  0  0  0  0  0  0
   -0.9240    0.5502   -1.5772 H   0  0  0  0  0  0  0  0  0  0  0  0
   -0.6025    0.1575   -3.2614 H   0  0  0  0  0  0  0  0  0  0  0  0
    0.2613   -0.6904   -1.9908 H   0  0  0  0  0  0  0  0  0  0  0  0
    1.0705    3.4807   -2.8219 H   0  0  0  0  0  0  0  0  0  0  0  0
   -0.2051    2.6257   -3.6756 H   0  0  0  0  0  0  0  0  0  0  0  0
   -0.4122    3.0151   -1.9730 H   0  0  0  0  0  0  0  0  0  0  0  0
    2.3689   -0.0137   -3.3341 H   0  0  0  0  0  0  0  0  0  0  0  0
    1.3994    0.9391   -4.4482 H   0  0  0  0  0  0  0  0  0  0  0  0
    2.7391    1.6959   -3.5833 H   0  0  0  0  0  0  0  0  0  0  0  0
    1.9298   -0.4445   -0.2542 H   0  0  0  0  0  0  0  0  0  0  0  0
    4.5239   -1.7689   -1.3558 H   0  0  0  0  0  0  0  0  0  0  0  0
    6.4419   -1.5688   -0.2419 H   0  0  0  0  0  0  0  0  0  0  0  0
    7.9696   -0.9371    1.2339 H   0  0  0  0  0  0  0  0  0  0  0  0
    7.6649    0.7518    1.6543 H   0  0  0  0  0  0  0  0  0  0  0  0
    7.3263   -0.5122    2.8253 H   0  0  0  0  0  0  0  0  0  0  0  0
    3.1189   -1.5974    1.3432 H   0  0  0  0  0  0  0  0  0  0  0  0
    2.5395   -2.3672   -0.1325 H   0  0  0  0  0  0  0  0  0  0  0  0
    3.6678   -4.3963   -1.0350 H   0  0  0  0  0  0  0  0  0  0  0  0
    4.8168   -6.4898   -0.4438 H   0  0  0  0  0  0  0  0  0  0  0  0
    5.9117   -6.7282    1.7660 H   0  0  0  0  0  0  0  0  0  0  0  0
    5.8385   -4.8488    3.3764 H   0  0  0  0  0  0  0  0  0  0  0  0
    4.6890   -2.7535    2.7803 H   0  0  0  0  0  0  0  0  0  0  0  0
  3  4  2  0
  3  2  1  0
  4  5  1  0
  1  2  1  0
  2  6  2  0
  5  6  1  0
  6  7  1  0
  7 10  1  0
  7  8  2  0
 10 11  2  0
  8  9  1  0
 11 12  1  0
  9 12  2  0
 12 13  1  0
 13 14  1  0
 14 15  1  0
 18 17  1  0
 18 19  1  0
 15 16  2  0
 15 17  1  0
 17 22  1  0
 19 20  1  0
 19 21  1  0
 22 21  1  0
 22 23  1  0
 24 23  2  0
 23 25  1  0
 26 29  1  6
 25 26  1  0
 25 30  1  0
 27 26  1  0
 26 28  1  0
 30 31  1  0
 31 32  2  0
 31 33  1  0
 33 38  1  0
 33 34  1  0
 36 35  2  0
 40 41  2  0
 40 39  1  0
 38 39  1  0
 41 42  1  0
 39 44  2  0
 35 34  1  0
 35 37  1  0
 42 43  2  0
 44 43  1  0
  1 45  1  0
  1 46  1  0
  1 47  1  0
  4 48  1  0
  8 49  1  0
  9 50  1  0
 10 51  1  0
 11 52  1  0
 13 53  1  0
 13 54  1  0
 14 55  1  0
 17 56  1  1
 18 57  1  0
 18 58  1  0
 19 59  1  6
 20 60  1  0
 21 61  1  0
 21 62  1  0
 25 63  1  6
 27 64  1  0
 27 65  1  0
 27 66  1  0
 28 67  1  0
 28 68  1  0
 28 69  1  0
 29 70  1  0
 29 71  1  0
 29 72  1  0
 30 73  1  0
 33 74  1  6
 34 75  1  0
 37 76  1  0
 37 77  1  0
 37 78  1  0
 38 79  1  0
 38 80  1  0
 40 81  1  0
 41 82  1  0
 42 83  1  0
 43 84  1  0
 44 85  1  0
M  END
