
     RDKit          3D

 45 44  0  0  0  0  0  0  0  0999 V2000
   -2.7289   -2.1096    1.6965 O   0  0  0  0  0  0  0  0  0  0  0  0
    2.0645    0.0620   -1.7293 N   0  0  0  0  0  0  0  0  0  0  0  0
    2.1439   -0.2480   -0.3010 C   0  0  1  0  0  0  0  0  0  0  0  0
    3.3537    0.4136    0.3545 C   0  0  0  0  0  0  0  0  0  0  0  0
    4.6897   -0.1187   -0.1533 C   0  0  0  0  0  0  0  0  0  0  0  0
    5.8785    0.5354    0.5404 C   0  0  0  0  0  0  0  0  0  0  0  0
    7.2172    0.0100    0.0419 C   0  0  0  0  0  0  0  0  0  0  0  0
    0.8478    0.2946    1.7218 O   0  0  0  0  0  0  0  0  0  0  0  0
    0.5412    1.5195   -0.0781 O   0  0  0  0  0  0  0  0  0  0  0  0
   -0.3138   -0.7682   -0.1065 C   0  0  0  0  0  0  0  0  0  0  0  0
   -1.7314   -0.4093    0.3809 C   0  0  1  0  0  0  0  0  0  0  0  0
   -2.4542    0.5928   -0.5215 C   0  0  0  0  0  0  0  0  0  0  0  0
   -3.8270    1.0033    0.0004 C   0  0  0  0  0  0  0  0  0  0  0  0
   -4.4604    2.1117   -0.8321 C   0  0  0  0  0  0  0  0  0  0  0  0
   -5.8279    2.5356   -0.3149 C   0  0  0  0  0  0  0  0  0  0  0  0
   -2.5219   -1.6947    0.4510 C   0  0  0  0  0  0  0  0  0  0  0  0
   -2.9071   -2.3092   -0.5146 O   0  0  0  0  0  0  0  0  0  0  0  0
    2.0292   -0.7720   -2.2967 H   0  0  0  0  0  0  0  0  0  0  0  0
    2.2293   -1.3326   -0.1538 H   0  0  0  0  0  0  0  0  0  0  0  0
    3.3047    1.4974    0.1996 H   0  0  0  0  0  0  0  0  0  0  0  0
    3.3100    0.2593    1.4342 H   0  0  0  0  0  0  0  0  0  0  0  0
    4.7305   -1.2029    0.0001 H   0  0  0  0  0  0  0  0  0  0  0  0
    4.7838    0.0354   -1.2332 H   0  0  0  0  0  0  0  0  0  0  0  0
    5.8308    1.6185    0.3912 H   0  0  0  0  0  0  0  0  0  0  0  0
    5.7995    0.3759    1.6202 H   0  0  0  0  0  0  0  0  0  0  0  0
    7.3352    0.1860   -1.0290 H   0  0  0  0  0  0  0  0  0  0  0  0
    8.0523    0.4933    0.5501 H   0  0  0  0  0  0  0  0  0  0  0  0
    7.3064   -1.0652    0.2085 H   0  0  0  0  0  0  0  0  0  0  0  0
    0.9918   -0.5869    2.0820 H   0  0  0  0  0  0  0  0  0  0  0  0
    0.7717    1.5260   -1.0221 H   0  0  0  0  0  0  0  0  0  0  0  0
   -0.3151   -0.8663   -1.1954 H   0  0  0  0  0  0  0  0  0  0  0  0
   -0.0258   -1.7537    0.2790 H   0  0  0  0  0  0  0  0  0  0  0  0
   -1.6617    0.0059    1.3894 H   0  0  0  0  0  0  0  0  0  0  0  0
   -1.8301    1.4810   -0.6113 H   0  0  0  0  0  0  0  0  0  0  0  0
   -2.5470    0.1752   -1.5286 H   0  0  0  0  0  0  0  0  0  0  0  0
   -4.5043    0.1424    0.0188 H   0  0  0  0  0  0  0  0  0  0  0  0
   -3.7348    1.3405    1.0389 H   0  0  0  0  0  0  0  0  0  0  0  0
   -3.7896    2.9760   -0.8481 H   0  0  0  0  0  0  0  0  0  0  0  0
   -4.5486    1.7784   -1.8707 H   0  0  0  0  0  0  0  0  0  0  0  0
   -6.5330    1.7029   -0.3351 H   0  0  0  0  0  0  0  0  0  0  0  0
   -5.7681    2.8905    0.7158 H   0  0  0  0  0  0  0  0  0  0  0  0
   -6.2506    3.3406   -0.9169 H   0  0  0  0  0  0  0  0  0  0  0  0
   -3.2093   -2.9518    1.6883 H   0  0  0  0  0  0  0  0  0  0  0  0
    0.7940    0.2117    0.3259 C   0  0  1  0  0  0  0  0  0  0  0  0
    2.8681    0.5897   -2.0403 H   0  0  0  0  0  0  0  0  0  0  0  0
 16  1  1  0
  2  3  1  0
  2 45  1  0
  2 18  1  0
  4  3  1  0
  3 44  1  0
  3 19  1  6
  5  4  1  0
  4 20  1  0
  4 21  1  0
  5  6  1  0
  5 22  1  0
  5 23  1  0
  6  7  1  0
  6 24  1  0
  6 25  1  0
  7 26  1  0
  7 27  1  0
  7 28  1  0
 44  8  1  1
 44  9  1  0
 44 10  1  0
  8 29  1  0
  9 30  1  0
 10 11  1  0
 10 31  1  0
 10 32  1  0
 11 12  1  0
 11 16  1  0
 11 33  1  1
 12 13  1  0
 12 34  1  0
 12 35  1  0
 13 14  1  0
 13 36  1  0
 13 37  1  0
 14 15  1  0
 14 38  1  0
 14 39  1  0
 15 40  1  0
 15 41  1  0
 15 42  1  0
 16 17  2  0
  1 43  1  0
M  END
