
     RDKit          3D

 34 35  0  0  0  0  0  0  0  0999 V2000
    2.0686    2.0142    0.5436 C   0  0  0  0  0  0  0  0  0  0  0  0
    2.6888   -0.2789    0.1621 C   0  0  0  0  0  0  0  0  0  0  0  0
    1.3419   -0.6327    0.1741 C   0  0  0  0  0  0  0  0  0  0  0  0
    0.3551    0.3166    0.3572 C   0  0  0  0  0  0  0  0  0  0  0  0
   -1.0668   -0.0876    0.4044 C   0  0  0  0  0  0  0  0  0  0  0  0
    4.9554   -0.9220    0.1605 F   0  0  0  0  0  0  0  0  0  0  0  0
    3.7119   -1.3273   -0.1194 C   0  0  1  0  0  0  0  0  0  0  0  0
    3.4959   -2.4461    0.5891 F   0  0  0  0  0  0  0  0  0  0  0  0
    3.7082   -1.6964   -1.4114 F   0  0  0  0  0  0  0  0  0  0  0  0
    3.0437    1.0461    0.3507 C   0  0  0  0  0  0  0  0  0  0  0  0
    0.7227    1.6587    0.5557 C   0  0  0  0  0  0  0  0  0  0  0  0
   -0.2801    2.5167    0.7568 O   0  0  0  0  0  0  0  0  0  0  0  0
    0.0123    3.8966    0.8843 C   0  0  0  0  0  0  0  0  0  0  0  0
   -1.9873    0.2885   -0.5746 C   0  0  0  0  0  0  0  0  0  0  0  0
   -1.4626    1.2587   -1.9125 Cl  0  0  0  0  0  0  0  0  0  0  0  0
   -3.3072   -0.1204   -0.5330 C   0  0  0  0  0  0  0  0  0  0  0  0
   -3.7583   -0.9247    0.5106 C   0  0  0  0  0  0  0  0  0  0  0  0
   -5.2053   -1.3439    0.5719 C   0  0  0  0  0  0  0  0  0  0  0  0
   -5.6752   -1.8294   -0.7142 N   0  0  0  0  0  0  0  0  0  0  0  0
   -2.8530   -1.3134    1.4897 C   0  0  0  0  0  0  0  0  0  0  0  0
   -1.5308   -0.8976    1.4351 C   0  0  0  0  0  0  0  0  0  0  0  0
    2.3827    3.0365    0.7006 H   0  0  0  0  0  0  0  0  0  0  0  0
    1.0408   -1.6634    0.0288 H   0  0  0  0  0  0  0  0  0  0  0  0
    4.0804    1.3534    0.3522 H   0  0  0  0  0  0  0  0  0  0  0  0
   -0.9406    4.4031    1.0112 H   0  0  0  0  0  0  0  0  0  0  0  0
    0.6387    4.1007    1.7554 H   0  0  0  0  0  0  0  0  0  0  0  0
    0.5053    4.2860   -0.0096 H   0  0  0  0  0  0  0  0  0  0  0  0
   -3.9923    0.1754   -1.3168 H   0  0  0  0  0  0  0  0  0  0  0  0
   -5.3267   -2.0595    1.3945 H   0  0  0  0  0  0  0  0  0  0  0  0
   -5.8062   -0.4700    0.8395 H   0  0  0  0  0  0  0  0  0  0  0  0
   -5.2672   -2.7360   -0.9041 H   0  0  0  0  0  0  0  0  0  0  0  0
   -6.6752   -1.9753   -0.6719 H   0  0  0  0  0  0  0  0  0  0  0  0
   -3.1788   -1.9453    2.3074 H   0  0  0  0  0  0  0  0  0  0  0  0
   -0.8378   -1.2128    2.2053 H   0  0  0  0  0  0  0  0  0  0  0  0
 13 12  1  0
 12 11  1  0
 19 18  1  0
 15 14  1  0
 18 17  1  0
 11  1  2  0
 11  4  1  0
 16 14  2  0
 16 17  1  0
  1 10  1  0
 14  5  1  0
 17 20  2  0
  5  4  1  0
  5 21  2  0
 20 21  1  0
  4  3  2  0
 10  2  2  0
  3  2  1  0
  2  7  1  0
  7  9  1  6
  7  8  1  0
  7  6  1  0
  1 22  1  0
  3 23  1  0
 10 24  1  0
 13 25  1  0
 13 26  1  0
 13 27  1  0
 16 28  1  0
 18 29  1  0
 18 30  1  0
 19 31  1  0
 19 32  1  0
 20 33  1  0
 21 34  1  0
M  END
