
     RDKit          3D

 46 47  0  0  0  0  0  0  0  0999 V2000
    0.4012   -1.8797   -0.2358 C   0  0  0  0  0  0  0  0  0  0  0  0
   -0.8197   -1.2532   -0.2294 C   0  0  0  0  0  0  0  0  0  0  0  0
   -0.9323    0.1409   -0.0260 C   0  0  0  0  0  0  0  0  0  0  0  0
    0.2741    0.8798    0.1536 C   0  0  0  0  0  0  0  0  0  0  0  0
    1.4837    0.2078    0.1643 C   0  0  0  0  0  0  0  0  0  0  0  0
    0.2414    2.3562    0.3580 C   0  0  0  0  0  0  0  0  0  0  0  0
    1.5833   -1.1626   -0.0259 C   0  0  0  0  0  0  0  0  0  0  0  0
    3.1000   -2.9275    1.2496 N   0  0  0  0  0  0  0  0  0  0  0  0
    1.4973    4.4579    0.1341 C   0  0  0  0  0  0  0  0  0  0  0  0
    2.9472    4.7872    0.4139 C   0  0  0  0  0  0  0  0  0  0  0  0
   -0.7267    2.9139    0.8744 O   0  0  0  0  0  0  0  0  0  0  0  0
    1.3249    3.0330   -0.0473 N   0  0  0  0  0  0  0  0  0  0  0  0
    3.7223    4.3620   -0.6860 O   0  0  0  0  0  0  0  0  0  0  0  0
    3.1803   -1.9012   -0.0359 S   0  0  1  0  0  0  0  0  0  0  0  0
    3.3459   -2.7351   -1.2158 O   0  0  0  0  0  0  0  0  0  0  0  0
    4.1409   -0.8253    0.1762 O   0  0  0  0  0  0  0  0  0  0  0  0
    0.4209   -3.5841   -0.4868 Cl  0  0  0  0  0  0  0  0  0  0  0  0
   -2.1278    0.7449   -0.0415 N   0  0  0  0  0  0  0  0  0  0  0  0
   -3.4129    0.1026   -0.2318 C   0  0  1  0  0  0  0  0  0  0  0  0
   -3.9668   -0.4806    1.0701 C   0  0  0  0  0  0  0  0  0  0  0  0
   -5.3406   -1.1079    0.8546 C   0  0  0  0  0  0  0  0  0  0  0  0
   -6.3172   -0.1045    0.2501 C   0  0  0  0  0  0  0  0  0  0  0  0
   -5.7638    0.4835   -1.0433 C   0  0  0  0  0  0  0  0  0  0  0  0
   -4.3907    1.1119   -0.8289 C   0  0  0  0  0  0  0  0  0  0  0  0
   -1.7055   -1.8544   -0.3720 H   0  0  0  0  0  0  0  0  0  0  0  0
    2.3930    0.7631    0.3510 H   0  0  0  0  0  0  0  0  0  0  0  0
    3.2214   -2.4576    2.1402 H   0  0  0  0  0  0  0  0  0  0  0  0
    3.7472   -3.7036    1.1566 H   0  0  0  0  0  0  0  0  0  0  0  0
    0.8927    4.7878    0.9768 H   0  0  0  0  0  0  0  0  0  0  0  0
    1.1486    5.0032   -0.7488 H   0  0  0  0  0  0  0  0  0  0  0  0
    3.0298    5.8683    0.5788 H   0  0  0  0  0  0  0  0  0  0  0  0
    3.2549    4.2901    1.3409 H   0  0  0  0  0  0  0  0  0  0  0  0
    2.0090    2.5713   -0.6246 H   0  0  0  0  0  0  0  0  0  0  0  0
    4.6494    4.3871   -0.4337 H   0  0  0  0  0  0  0  0  0  0  0  0
   -2.1332    1.7099    0.2588 H   0  0  0  0  0  0  0  0  0  0  0  0
   -3.2901   -0.7044   -0.9625 H   0  0  0  0  0  0  0  0  0  0  0  0
   -3.2733   -1.2173    1.4835 H   0  0  0  0  0  0  0  0  0  0  0  0
   -4.0442    0.3258    1.8074 H   0  0  0  0  0  0  0  0  0  0  0  0
   -5.2470   -1.9719    0.1875 H   0  0  0  0  0  0  0  0  0  0  0  0
   -5.7244   -1.4902    1.8030 H   0  0  0  0  0  0  0  0  0  0  0  0
   -7.2833   -0.5801    0.0665 H   0  0  0  0  0  0  0  0  0  0  0  0
   -6.4961    0.7035    0.9680 H   0  0  0  0  0  0  0  0  0  0  0  0
   -5.6814   -0.3077   -1.7957 H   0  0  0  0  0  0  0  0  0  0  0  0
   -6.4490    1.2300   -1.4506 H   0  0  0  0  0  0  0  0  0  0  0  0
   -4.4814    1.9683   -0.1503 H   0  0  0  0  0  0  0  0  0  0  0  0
   -3.9937    1.4926   -1.7728 H   0  0  0  0  0  0  0  0  0  0  0  0
 17  1  1  0
 15 14  2  0
 23 22  1  0
 23 24  1  0
  1  2  2  0
  1  7  1  0
  2  3  1  0
 22 21  1  0
 21 20  1  0
 14 16  2  0
 14  7  1  0
 14  8  1  1
 19 24  1  0
 19 20  1  0
 19 18  1  0
  7  5  2  0
  3 18  1  0
  3  4  2  0
  5  4  1  0
  4  6  1  0
  6 12  1  0
  6 11  2  0
 12  9  1  0
  9 10  1  0
 10 13  1  0
  2 25  1  0
  5 26  1  0
  8 27  1  0
  8 28  1  0
  9 29  1  0
  9 30  1  0
 10 31  1  0
 10 32  1  0
 12 33  1  0
 13 34  1  0
 18 35  1  0
 19 36  1  6
 20 37  1  0
 20 38  1  0
 21 39  1  0
 21 40  1  0
 22 41  1  0
 22 42  1  0
 23 43  1  0
 23 44  1  0
 24 45  1  0
 24 46  1  0
M  END
