
     RDKit          3D

 66 69  0  0  0  0  0  0  0  0999 V2000
   -5.6098    4.6120   -0.1582 O   0  0  0  0  0  0  0  0  0  0  0  0
   -5.2209    3.5163    0.2019 C   0  0  0  0  0  0  0  0  0  0  0  0
   -5.4762    3.0650    1.4887 N   0  0  0  0  0  0  0  0  0  0  0  0
   -5.1158    1.8681    2.0448 C   0  0  0  0  0  0  0  0  0  0  0  0
   -5.3877    1.5713    3.1904 O   0  0  0  0  0  0  0  0  0  0  0  0
   -4.4772    2.5738   -0.5943 C   0  0  0  0  0  0  0  0  0  0  0  0
   -4.1137    1.3925   -0.0659 C   0  0  0  0  0  0  0  0  0  0  0  0
   -4.4225    1.0194    1.2072 N   0  0  0  0  0  0  0  0  0  0  0  0
   -4.0188   -0.2824    1.7861 C   0  0  2  0  0  0  0  0  0  0  0  0
   -3.0578   -0.8800    0.9742 O   0  0  0  0  0  0  0  0  0  0  0  0
   -5.1990   -1.2525    1.8667 C   0  0  2  0  0  0  0  0  0  0  0  0
   -4.9674   -2.1100    2.9498 O   0  0  0  0  0  0  0  0  0  0  0  0
   -5.0629   -1.9981    0.5344 C   0  0  2  0  0  0  0  0  0  0  0  0
   -5.6165   -3.2827    0.5413 O   0  0  0  0  0  0  0  0  0  0  0  0
   -3.5496   -2.0806    0.3765 C   0  0  1  0  0  0  0  0  0  0  0  0
   -3.0910   -2.1736   -1.0656 C   0  0  0  0  0  0  0  0  0  0  0  0
   -1.6590   -2.2040   -1.2010 N   0  0  0  0  0  0  0  0  0  0  0  0
   -0.9491   -3.3244   -1.3816 C   0  0  0  0  0  0  0  0  0  0  0  0
   -1.4307   -4.4446   -1.4701 O   0  0  0  0  0  0  0  0  0  0  0  0
    0.5343   -3.1034   -1.4878 C   0  0  0  0  0  0  0  0  0  0  0  0
    1.3737   -4.1710   -1.7648 C   0  0  0  0  0  0  0  0  0  0  0  0
    2.7332   -3.9146   -1.8597 C   0  0  0  0  0  0  0  0  0  0  0  0
    3.1992   -2.6247   -1.6687 C   0  0  0  0  0  0  0  0  0  0  0  0
    2.2767   -1.6210   -1.3844 C   0  0  0  0  0  0  0  0  0  0  0  0
    0.9774   -1.8665   -1.3015 N   0  0  0  0  0  0  0  0  0  0  0  0
    2.6837   -0.1895   -1.1698 C   0  0  0  0  0  0  0  0  0  0  0  0
    4.0682   -0.1389   -0.9575 O   0  0  0  0  0  0  0  0  0  0  0  0
    4.6670    1.0996   -1.1556 C   0  0  1  0  0  0  0  0  0  0  0  0
    4.2697    2.0439   -0.2058 O   0  0  0  0  0  0  0  0  0  0  0  0
    4.6169    1.7212    1.1333 C   0  0  2  0  0  0  0  0  0  0  0  0
    4.0558    2.8036    2.0303 C   0  0  0  0  0  0  0  0  0  0  0  0
    2.6499    2.7347    1.9871 O   0  0  0  0  0  0  0  0  0  0  0  0
    6.1217    1.5552    1.2930 C   0  0  2  0  0  0  0  0  0  0  0  0
    6.7453    2.8010    1.0949 O   0  0  0  0  0  0  0  0  0  0  0  0
    6.6205    0.5127    0.2944 C   0  0  2  0  0  0  0  0  0  0  0  0
    8.0228    0.4481    0.4088 O   0  0  0  0  0  0  0  0  0  0  0  0
    6.1844    0.8979   -1.1139 C   0  0  1  0  0  0  0  0  0  0  0  0
    6.6153   -0.1094   -1.9950 O   0  0  0  0  0  0  0  0  0  0  0  0
   -5.9954    3.6855    2.0982 H   0  0  0  0  0  0  0  0  0  0  0  0
   -4.2066    2.8239   -1.6082 H   0  0  0  0  0  0  0  0  0  0  0  0
   -3.5371    0.6883   -0.6438 H   0  0  0  0  0  0  0  0  0  0  0  0
   -3.5991   -0.0753    2.7723 H   0  0  0  0  0  0  0  0  0  0  0  0
   -6.1605   -0.7343    1.9540 H   0  0  0  0  0  0  0  0  0  0  0  0
   -5.3711   -2.9620    2.7428 H   0  0  0  0  0  0  0  0  0  0  0  0
   -5.4893   -1.3820   -0.2694 H   0  0  0  0  0  0  0  0  0  0  0  0
   -6.5586   -3.2175    0.3542 H   0  0  0  0  0  0  0  0  0  0  0  0
   -3.1634   -2.9420    0.9341 H   0  0  0  0  0  0  0  0  0  0  0  0
   -3.5113   -3.0800   -1.5017 H   0  0  0  0  0  0  0  0  0  0  0  0
   -3.4820   -1.3322   -1.6423 H   0  0  0  0  0  0  0  0  0  0  0  0
   -1.1379   -1.3427   -1.1226 H   0  0  0  0  0  0  0  0  0  0  0  0
    0.9784   -5.1665   -1.9052 H   0  0  0  0  0  0  0  0  0  0  0  0
    3.4255   -4.7163   -2.0799 H   0  0  0  0  0  0  0  0  0  0  0  0
    4.2537   -2.3999   -1.7404 H   0  0  0  0  0  0  0  0  0  0  0  0
    2.3967    0.3976   -2.0539 H   0  0  0  0  0  0  0  0  0  0  0  0
    2.1205    0.2181   -0.3225 H   0  0  0  0  0  0  0  0  0  0  0  0
    4.3640    1.5201   -2.1252 H   0  0  0  0  0  0  0  0  0  0  0  0
    4.1560    0.7686    1.4283 H   0  0  0  0  0  0  0  0  0  0  0  0
    4.4386    2.6315    3.0451 H   0  0  0  0  0  0  0  0  0  0  0  0
    4.4243    3.7839    1.7085 H   0  0  0  0  0  0  0  0  0  0  0  0
    2.3009    3.4788    2.4857 H   0  0  0  0  0  0  0  0  0  0  0  0
    6.3083    1.1790    2.3104 H   0  0  0  0  0  0  0  0  0  0  0  0
    7.6966    2.6517    1.0602 H   0  0  0  0  0  0  0  0  0  0  0  0
    6.1660   -0.4531    0.5568 H   0  0  0  0  0  0  0  0  0  0  0  0
    8.3669   -0.0427   -0.3455 H   0  0  0  0  0  0  0  0  0  0  0  0
    6.6409    1.8629   -1.3673 H   0  0  0  0  0  0  0  0  0  0  0  0
    6.6570    0.2520   -2.8854 H   0  0  0  0  0  0  0  0  0  0  0  0
 12 11  1  0
 14 13  1  0
 11 13  1  0
 11  9  1  0
 13 15  1  0
 15 16  1  0
 15 10  1  0
 32 31  1  0
 19 18  2  0
 16 17  1  0
 31 30  1  0
 10  9  1  0
  9  8  1  0
 18 17  1  0
 18 20  1  0
  5  4  2  0
 30 29  1  0
 30 33  1  0
  8  4  1  0
  8  7  1  0
  4  3  1  0
 29 28  1  0
 25 20  1  0
 25 24  2  0
 20 21  2  0
 34 33  1  0
 33 35  1  0
  7  6  2  0
 26 24  1  0
 26 27  1  0
 24 23  1  0
  3  2  1  0
 28 27  1  0
 28 37  1  0
 21 22  1  0
 35 37  1  0
 35 36  1  0
  6  2  1  0
  2  1  2  0
 37 38  1  0
 23 22  2  0
  3 39  1  0
  6 40  1  0
  7 41  1  0
  9 42  1  1
 11 43  1  1
 12 44  1  0
 13 45  1  6
 14 46  1  0
 15 47  1  1
 16 48  1  0
 16 49  1  0
 17 50  1  0
 21 51  1  0
 22 52  1  0
 23 53  1  0
 26 54  1  0
 26 55  1  0
 28 56  1  6
 30 57  1  1
 31 58  1  0
 31 59  1  0
 32 60  1  0
 33 61  1  1
 34 62  1  0
 35 63  1  1
 36 64  1  0
 37 65  1  6
 38 66  1  0
M  END
