
     RDKit          3D

 15 14  0  0  0  0  0  0  0  0999 V2000
   -0.1472   -0.0096   -1.7749 C   0  0  0  0  0  0  0  0  0  0  0  0
    0.6212    0.0207   -0.4789 C   0  0  0  0  0  0  0  0  0  0  0  0
    0.1566    0.0112    1.9082 C   0  0  0  0  0  0  0  0  0  0  0  0
   -0.9338   -0.0017    2.9508 C   0  0  0  0  0  0  0  0  0  0  0  0
   -0.2813   -0.0018    0.6367 N   0  0  0  0  0  0  0  0  0  0  0  0
    0.6718    0.0120   -2.8122 O   0  0  0  0  0  0  0  0  0  0  0  0
   -1.3483   -0.0476   -1.8578 O   0  0  0  0  0  0  0  0  0  0  0  0
    1.3477    0.0403    2.1842 O   0  0  0  0  0  0  0  0  0  0  0  0
    1.2503    0.9165   -0.4705 H   0  0  0  0  0  0  0  0  0  0  0  0
    1.3037   -0.8349   -0.4611 H   0  0  0  0  0  0  0  0  0  0  0  0
   -0.5050   -0.0802    3.9462 H   0  0  0  0  0  0  0  0  0  0  0  0
   -1.5234    0.9146    2.8971 H   0  0  0  0  0  0  0  0  0  0  0  0
   -1.6166   -0.8375    2.7955 H   0  0  0  0  0  0  0  0  0  0  0  0
   -1.2713   -0.0266    0.4479 H   0  0  0  0  0  0  0  0  0  0  0  0
    0.1684   -0.0064   -3.6404 H   0  0  0  0  0  0  0  0  0  0  0  0
  1  2  1  0
  1  6  1  0
  1  7  2  0
  2  5  1  0
  2  9  1  0
  2 10  1  0
  3  4  1  0
  3  5  1  0
  3  8  2  0
  4 11  1  0
  4 12  1  0
  4 13  1  0
  5 14  1  0
  6 15  1  0
M  END
