
     RDKit          3D

 50 54  0  0  0  0  0  0  0  0999 V2000
    5.7649   -0.9827   -1.5723 O   0  0  0  0  0  0  0  0  0  0  0  0
    5.3756   -2.2506   -1.1023 C   0  0  0  0  0  0  0  0  0  0  0  0
    4.8933   -2.1191    0.3298 C   0  0  0  0  0  0  0  0  0  0  0  0
    3.6916   -1.3085    0.4663 N   0  0  0  0  0  0  0  0  0  0  0  0
    2.4573   -1.8241    0.2373 C   0  0  0  0  0  0  0  0  0  0  0  0
    2.2533   -3.1607   -0.1715 C   0  0  0  0  0  0  0  0  0  0  0  0
    0.9491   -3.5386   -0.3633 C   0  0  0  0  0  0  0  0  0  0  0  0
   -0.0992   -2.7320   -0.1919 N   0  0  0  0  0  0  0  0  0  0  0  0
    0.2021   -1.5028    0.2008 C   0  0  0  0  0  0  0  0  0  0  0  0
   -0.7954   -0.5902    0.4166 N   0  0  0  0  0  0  0  0  0  0  0  0
   -2.1689   -0.6774    0.2752 C   0  0  0  0  0  0  0  0  0  0  0  0
   -2.8549   -1.7994   -0.2203 C   0  0  0  0  0  0  0  0  0  0  0  0
   -4.2357   -1.8016   -0.3383 C   0  0  0  0  0  0  0  0  0  0  0  0
   -4.9706   -0.6867    0.0297 C   0  0  0  0  0  0  0  0  0  0  0  0
   -6.4554   -0.4896   -0.0290 C   0  0  0  0  0  0  0  0  0  0  0  0
   -6.7115    0.7214    0.7491 N   0  0  0  0  0  0  0  0  0  0  0  0
   -5.3897    1.7171    0.8690 S   0  0  2  0  0  0  0  0  0  0  0  0
   -5.2581    2.2093    2.2318 O   0  0  0  0  0  0  0  0  0  0  0  0
   -5.3407    2.7271   -0.1822 O   0  0  0  0  0  0  0  0  0  0  0  0
   -4.2790    0.4021    0.5165 C   0  0  0  0  0  0  0  0  0  0  0  0
   -2.9082    0.4486    0.6524 C   0  0  0  0  0  0  0  0  0  0  0  0
    1.4186   -1.0190    0.4292 N   0  0  0  0  0  0  0  0  0  0  0  0
    3.8453    0.0774    0.7208 C   0  0  0  0  0  0  0  0  0  0  0  0
    4.3388    0.5214    1.9264 C   0  0  0  0  0  0  0  0  0  0  0  0
    4.5324    1.8960    2.1742 C   0  0  0  0  0  0  0  0  0  0  0  0
    4.2267    2.8554    1.2375 C   0  0  0  0  0  0  0  0  0  0  0  0
    3.7220    2.3965    0.0147 C   0  0  0  0  0  0  0  0  0  0  0  0
    3.3455    3.0513   -1.1093 N   0  0  0  0  0  0  0  0  0  0  0  0
    2.9410    2.2173   -2.0700 N   0  0  0  0  0  0  0  0  0  0  0  0
    3.0446    1.0044   -1.5887 C   0  0  0  0  0  0  0  0  0  0  0  0
    3.5350    1.0323   -0.2586 C   0  0  0  0  0  0  0  0  0  0  0  0
    5.6809   -0.9708   -2.5287 H   0  0  0  0  0  0  0  0  0  0  0  0
    4.5818   -2.6834   -1.7209 H   0  0  0  0  0  0  0  0  0  0  0  0
    6.2102   -2.9644   -1.1115 H   0  0  0  0  0  0  0  0  0  0  0  0
    4.7246   -3.1113    0.7507 H   0  0  0  0  0  0  0  0  0  0  0  0
    5.6735   -1.6636    0.9403 H   0  0  0  0  0  0  0  0  0  0  0  0
    3.0523   -3.8637   -0.3429 H   0  0  0  0  0  0  0  0  0  0  0  0
    0.7242   -4.5504   -0.6815 H   0  0  0  0  0  0  0  0  0  0  0  0
   -0.4465    0.3014    0.7353 H   0  0  0  0  0  0  0  0  0  0  0  0
   -2.2984   -2.6753   -0.5098 H   0  0  0  0  0  0  0  0  0  0  0  0
   -4.7308   -2.6850   -0.7209 H   0  0  0  0  0  0  0  0  0  0  0  0
   -6.7940   -0.3874   -1.0636 H   0  0  0  0  0  0  0  0  0  0  0  0
   -6.9896   -1.3268    0.4209 H   0  0  0  0  0  0  0  0  0  0  0  0
   -7.5709    1.2129    0.5311 H   0  0  0  0  0  0  0  0  0  0  0  0
   -2.4136    1.3289    1.0447 H   0  0  0  0  0  0  0  0  0  0  0  0
    4.5836   -0.1946    2.7008 H   0  0  0  0  0  0  0  0  0  0  0  0
    4.9263    2.2000    3.1350 H   0  0  0  0  0  0  0  0  0  0  0  0
    4.3732    3.9084    1.4365 H   0  0  0  0  0  0  0  0  0  0  0  0
    3.3525    4.0436   -1.2789 H   0  0  0  0  0  0  0  0  0  0  0  0
    2.7721    0.1501   -2.1886 H   0  0  0  0  0  0  0  0  0  0  0  0
 26 25  1  0
 26 27  2  0
 25 24  2  0
 27 28  1  0
 27 31  1  0
 28 29  1  0
 24 23  1  0
 31 23  2  0
 31 30  1  0
 29 30  2  0
 23  4  1  0
  6  7  2  0
  6  5  1  0
  7  8  1  0
  4  5  1  0
  4  3  1  0
  5 22  2  0
  3  2  1  0
  8  9  2  0
  1  2  1  0
 22  9  1  0
  9 10  1  0
 10 11  1  0
 11 21  1  0
 11 12  2  0
 21 20  2  0
 19 17  2  0
 12 13  1  0
 20 17  1  0
 20 14  1  0
 17 18  2  0
 17 16  1  1
 13 14  2  0
 14 15  1  0
 16 15  1  0
  1 32  1  0
  2 33  1  0
  2 34  1  0
  3 35  1  0
  3 36  1  0
  6 37  1  0
  7 38  1  0
 10 39  1  0
 12 40  1  0
 13 41  1  0
 15 42  1  0
 15 43  1  0
 16 44  1  0
 21 45  1  0
 24 46  1  0
 25 47  1  0
 26 48  1  0
 28 49  1  0
 30 50  1  0
M  END
