
     RDKit          3D

 58 58  0  0  0  0  0  0  0  0999 V2000
   -8.8290   -2.6422   -1.3546 N   0  0  0  0  0  0  0  0  0  0  0  0
   -9.4727   -1.4855    0.5957 N   0  0  0  0  0  0  0  0  0  0  0  0
   -8.6871   -1.6843   -0.3918 C   0  0  0  0  0  0  0  0  0  0  0  0
   -7.4605   -0.8466   -0.5042 C   0  0  0  0  0  0  0  0  0  0  0  0
   -7.4411    0.4198    0.0737 C   0  0  0  0  0  0  0  0  0  0  0  0
   -6.3131    1.2193   -0.0179 C   0  0  0  0  0  0  0  0  0  0  0  0
   -5.1756    0.7720   -0.6819 C   0  0  0  0  0  0  0  0  0  0  0  0
   -5.1894   -0.4995   -1.2475 C   0  0  0  0  0  0  0  0  0  0  0  0
   -6.3180   -1.2993   -1.1633 C   0  0  0  0  0  0  0  0  0  0  0  0
   -3.9467    1.6323   -0.7665 C   0  0  0  0  0  0  0  0  0  0  0  0
   -2.9261    1.1333    0.1377 N   0  0  0  0  0  0  0  0  0  0  0  0
   -1.6538    1.5414    0.0839 C   0  0  0  0  0  0  0  0  0  0  0  0
   -1.2301    2.3113   -0.7665 O   0  0  0  0  0  0  0  0  0  0  0  0
   -0.7639    1.0103    1.2033 C   0  0  1  0  0  0  0  0  0  0  0  0
    0.6060    1.0727    0.7570 N   0  0  0  0  0  0  0  0  0  0  0  0
    1.5761    0.2996    1.2650 C   0  0  0  0  0  0  0  0  0  0  0  0
    1.3810   -0.5803    2.0836 O   0  0  0  0  0  0  0  0  0  0  0  0
    2.9777    0.6278    0.7328 C   0  0  1  0  0  0  0  0  0  0  0  0
    3.4376    1.9817    1.2624 C   0  0  0  0  0  0  0  0  0  0  0  0
    3.4183    1.9147    2.6644 O   0  0  0  0  0  0  0  0  0  0  0  0
    3.8821   -0.4399    1.1016 N   0  0  0  0  0  0  0  0  0  0  0  0
    4.9073   -1.1305    0.0280 S   0  0  1  0  0  0  0  0  0  0  0  0
    5.4939   -2.2781    0.7049 O   0  0  0  0  0  0  0  0  0  0  0  0
    4.1640   -1.3340   -1.2087 O   0  0  0  0  0  0  0  0  0  0  0  0
    6.2173    0.0432   -0.3006 C   0  0  0  0  0  0  0  0  0  0  0  0
    7.2336   -0.5058   -1.2916 C   0  0  0  0  0  0  0  0  0  0  0  0
    8.3833    0.4747   -1.5011 C   0  0  0  0  0  0  0  0  0  0  0  0
    9.4086   -0.0534   -2.4935 C   0  0  0  0  0  0  0  0  0  0  0  0
   -0.9905    1.8294    2.4764 C   0  0  0  0  0  0  0  0  0  0  0  0
   -9.7129   -3.1246   -1.3986 H   0  0  0  0  0  0  0  0  0  0  0  0
   -8.4174   -2.4765   -2.2584 H   0  0  0  0  0  0  0  0  0  0  0  0
  -10.2852   -2.0946    0.5479 H   0  0  0  0  0  0  0  0  0  0  0  0
   -8.3193    0.7813    0.5912 H   0  0  0  0  0  0  0  0  0  0  0  0
   -6.3195    2.2059    0.4298 H   0  0  0  0  0  0  0  0  0  0  0  0
   -4.3116   -0.8721   -1.7619 H   0  0  0  0  0  0  0  0  0  0  0  0
   -6.2916   -2.2878   -1.6034 H   0  0  0  0  0  0  0  0  0  0  0  0
   -4.1978    2.6686   -0.5250 H   0  0  0  0  0  0  0  0  0  0  0  0
   -3.5514    1.6263   -1.7837 H   0  0  0  0  0  0  0  0  0  0  0  0
   -3.2141    0.5210    0.8850 H   0  0  0  0  0  0  0  0  0  0  0  0
   -1.0194   -0.0330    1.4020 H   0  0  0  0  0  0  0  0  0  0  0  0
    0.8280    1.7839    0.0754 H   0  0  0  0  0  0  0  0  0  0  0  0
    2.9302    0.6932   -0.3569 H   0  0  0  0  0  0  0  0  0  0  0  0
    4.4403    2.1920    0.8714 H   0  0  0  0  0  0  0  0  0  0  0  0
    2.7788    2.7676    0.8744 H   0  0  0  0  0  0  0  0  0  0  0  0
    3.7900    2.7282    3.0176 H   0  0  0  0  0  0  0  0  0  0  0  0
    4.2110   -0.4415    2.0601 H   0  0  0  0  0  0  0  0  0  0  0  0
    6.6775    0.2711    0.6632 H   0  0  0  0  0  0  0  0  0  0  0  0
    5.7462    0.9533   -0.6785 H   0  0  0  0  0  0  0  0  0  0  0  0
    6.7455   -0.7072   -2.2479 H   0  0  0  0  0  0  0  0  0  0  0  0
    7.6314   -1.4561   -0.9270 H   0  0  0  0  0  0  0  0  0  0  0  0
    8.8663    0.6762   -0.5408 H   0  0  0  0  0  0  0  0  0  0  0  0
    7.9881    1.4315   -1.8537 H   0  0  0  0  0  0  0  0  0  0  0  0
   10.2262    0.6541   -2.6321 H   0  0  0  0  0  0  0  0  0  0  0  0
    9.8407   -0.9958   -2.1520 H   0  0  0  0  0  0  0  0  0  0  0  0
    8.9552   -0.2324   -3.4698 H   0  0  0  0  0  0  0  0  0  0  0  0
   -2.0242    1.7551    2.8138 H   0  0  0  0  0  0  0  0  0  0  0  0
   -0.3519    1.4583    3.2765 H   0  0  0  0  0  0  0  0  0  0  0  0
   -0.7562    2.8807    2.3079 H   0  0  0  0  0  0  0  0  0  0  0  0
  1  3  1  0
  1 30  1  0
  1 31  1  0
  2  3  2  0
  2 32  1  0
  3  4  1  0
  4  5  2  0
  4  9  1  0
  5  6  1  0
  5 33  1  0
  6  7  2  0
  6 34  1  0
  7  8  1  0
  7 10  1  0
  8  9  2  0
  8 35  1  0
  9 36  1  0
 10 11  1  0
 10 37  1  0
 10 38  1  0
 11 12  1  0
 11 39  1  0
 12 13  2  0
 12 14  1  0
 14 15  1  0
 14 29  1  0
 14 40  1  1
 15 16  1  0
 15 41  1  0
 16 17  2  0
 16 18  1  0
 18 19  1  0
 18 21  1  0
 18 42  1  6
 19 20  1  0
 19 43  1  0
 19 44  1  0
 20 45  1  0
 22 21  1  1
 21 46  1  0
 22 23  2  0
 22 24  2  0
 22 25  1  0
 25 26  1  0
 25 47  1  0
 25 48  1  0
 26 27  1  0
 26 49  1  0
 26 50  1  0
 27 28  1  0
 27 51  1  0
 27 52  1  0
 28 53  1  0
 28 54  1  0
 28 55  1  0
 29 56  1  0
 29 57  1  0
 29 58  1  0
M  END
