
     RDKit          3D

 15 16  0  0  0  0  0  0  0  0999 V2000
    0.0761   -0.4595    0.0129 C   0  0  0  0  0  0  0  0  0  0  0  0
    0.6449    0.8218   -0.0352 C   0  0  0  0  0  0  0  0  0  0  0  0
   -1.5638    1.0405   -0.0989 N   0  0  0  0  0  0  0  0  0  0  0  0
   -0.3891    1.6958   -0.0996 N   0  0  0  0  0  0  0  0  0  0  0  0
   -1.3353   -0.2490   -0.0318 C   0  0  0  0  0  0  0  0  0  0  0  0
    2.1338   -0.7258    0.0812 N   0  0  0  0  0  0  0  0  0  0  0  0
    1.0036   -1.4146    0.0851 N   0  0  0  0  0  0  0  0  0  0  0  0
    2.0107    0.6204    0.0122 C   0  0  0  0  0  0  0  0  0  0  0  0
   -2.4300   -1.2550   -0.0110 C   0  0  0  0  0  0  0  0  0  0  0  0
   -0.3772    2.6985   -0.1569 H   0  0  0  0  0  0  0  0  0  0  0  0
    3.0104   -1.2227    0.1333 H   0  0  0  0  0  0  0  0  0  0  0  0
    2.8662    1.2731    0.0026 H   0  0  0  0  0  0  0  0  0  0  0  0
   -2.3852   -1.8659    0.8919 H   0  0  0  0  0  0  0  0  0  0  0  0
   -3.4043   -0.7709   -0.0453 H   0  0  0  0  0  0  0  0  0  0  0  0
   -2.3562   -1.9330   -0.8625 H   0  0  0  0  0  0  0  0  0  0  0  0
  8  6  1  0
  8  2  2  0
  6  7  1  0
  2  4  1  0
  2  1  1  0
  7  1  2  0
  4  3  1  0
  1  5  1  0
  3  5  2  0
  5  9  1  0
  4 10  1  0
  6 11  1  0
  8 12  1  0
  9 13  1  0
  9 14  1  0
  9 15  1  0
M  END
