
     RDKit          3D

 16 16  0  0  0  0  0  0  0  0999 V2000
    3.4211    0.4585   -0.0102 C   0  0  0  0  0  0  0  0  0  0  0  0
    2.0255   -0.0902   -0.0917 C   0  0  0  0  0  0  0  0  0  0  0  0
    1.7848   -1.2760   -0.2523 O   0  0  0  0  0  0  0  0  0  0  0  0
    1.0295    0.8195    0.0317 N   0  0  0  0  0  0  0  0  0  0  0  0
   -0.3223    0.5255    0.0041 C   0  0  0  0  0  0  0  0  0  0  0  0
   -0.9281   -1.0774   -0.2218 S   0  0  0  0  0  0  0  0  0  0  0  0
   -2.5524   -0.5142   -0.1236 C   0  0  0  0  0  0  0  0  0  0  0  0
   -2.6147    0.8284    0.0736 C   0  0  0  0  0  0  0  0  0  0  0  0
   -1.3319    1.4340    0.1470 C   0  0  0  0  0  0  0  0  0  0  0  0
    3.9265    0.0252    0.8532 H   0  0  0  0  0  0  0  0  0  0  0  0
    3.9795    0.1598   -0.8968 H   0  0  0  0  0  0  0  0  0  0  0  0
    3.4598    1.5423    0.0763 H   0  0  0  0  0  0  0  0  0  0  0  0
    1.2691    1.7904    0.1660 H   0  0  0  0  0  0  0  0  0  0  0  0
   -3.3687   -1.2134   -0.2175 H   0  0  0  0  0  0  0  0  0  0  0  0
   -3.5397    1.3792    0.1668 H   0  0  0  0  0  0  0  0  0  0  0  0
   -1.1628    2.4914    0.2968 H   0  0  0  0  0  0  0  0  0  0  0  0
  9  8  1  0
  9  5  2  0
  8  7  2  0
  5  4  1  0
  5  6  1  0
  4  2  1  0
  7  6  1  0
  2  1  1  0
  2  3  2  0
  1 10  1  0
  1 11  1  0
  1 12  1  0
  4 13  1  0
  7 14  1  0
  8 15  1  0
  9 16  1  0
M  END
