
     RDKit          3D

 51 53  0  0  0  0  0  0  0  0999 V2000
    2.5238   -2.0414   -2.3012 F   0  0  0  0  0  0  0  0  0  0  0  0
   -0.7786   -2.0230   -4.0234 N   0  0  0  0  0  0  0  0  0  0  0  0
   -1.0968    0.5376    2.5696 O   0  0  0  0  0  0  0  0  0  0  0  0
   -1.9348   -2.9759   -0.8768 C   0  0  0  0  0  0  0  0  0  0  0  0
    1.0104    3.7563   -0.3394 N   0  0  0  0  0  0  0  0  0  0  0  0
   -0.9083    4.6492   -1.0937 O   0  0  0  0  0  0  0  0  0  0  0  0
   -1.3459   -1.8864   -1.5108 C   0  0  0  0  0  0  0  0  0  0  0  0
    1.1154    1.7790    0.8506 N   0  0  0  0  0  0  0  0  0  0  0  0
   -1.0294   -0.7318   -0.8026 C   0  0  0  0  0  0  0  0  0  0  0  0
   -1.3043   -0.6860    0.5563 C   0  0  0  0  0  0  0  0  0  0  0  0
    1.7700   -2.9828   -0.4325 N   0  0  0  0  0  0  0  0  0  0  0  0
   -1.9083   -1.7761    1.1842 C   0  0  0  0  0  0  0  0  0  0  0  0
   -2.2287   -2.9290    0.4832 C   0  0  0  0  0  0  0  0  0  0  0  0
   -0.9105    0.4811    1.3776 C   0  0  0  0  0  0  0  0  0  0  0  0
   -0.2500    1.6617    0.6939 C   0  0  0  0  0  0  0  0  0  0  0  0
   -2.8735   -4.0990    1.1619 C   0  0  0  0  0  0  0  0  0  0  0  0
   -1.0202    2.5623    0.0467 C   0  0  0  0  0  0  0  0  0  0  0  0
   -0.3590    3.7340   -0.5116 C   0  0  0  0  0  0  0  0  0  0  0  0
    1.7985    2.8453    0.3034 C   0  0  0  0  0  0  0  0  0  0  0  0
   -2.5224    2.4287   -0.0626 C   0  0  1  0  0  0  0  0  0  0  0  0
   -3.2379    3.4808    0.7874 C   0  0  0  0  0  0  0  0  0  0  0  0
   -3.0212    2.4241   -1.5079 C   0  0  0  0  0  0  0  0  0  0  0  0
    1.8887    0.7767    1.5880 C   0  0  0  0  0  0  0  0  0  0  0  0
    1.8974   -0.5544    0.8882 C   0  0  0  0  0  0  0  0  0  0  0  0
    1.4833   -1.6835    1.5562 C   0  0  0  0  0  0  0  0  0  0  0  0
    1.4165   -2.9021    0.8522 C   0  0  0  0  0  0  0  0  0  0  0  0
    2.1820   -1.8915   -1.0166 C   0  0  0  0  0  0  0  0  0  0  0  0
    2.2773   -0.6395   -0.4533 C   0  0  0  0  0  0  0  0  0  0  0  0
   -2.1595   -3.8679   -1.4479 H   0  0  0  0  0  0  0  0  0  0  0  0
    1.5017    4.5472   -0.7391 H   0  0  0  0  0  0  0  0  0  0  0  0
   -0.5565    0.0983   -1.3093 H   0  0  0  0  0  0  0  0  0  0  0  0
    0.7993   -4.8421    0.8922 H   0  0  0  0  0  0  0  0  0  0  0  0
    0.5807   -3.9947    2.3651 H   0  0  0  0  0  0  0  0  0  0  0  0
   -2.1112   -1.7292    2.2468 H   0  0  0  0  0  0  0  0  0  0  0  0
   -3.9476   -4.1121    0.9704 H   0  0  0  0  0  0  0  0  0  0  0  0
   -2.4660   -5.0414    0.7978 H   0  0  0  0  0  0  0  0  0  0  0  0
   -2.7308   -4.0614    2.2405 H   0  0  0  0  0  0  0  0  0  0  0  0
   -2.8061    1.4597    0.3552 H   0  0  0  0  0  0  0  0  0  0  0  0
   -3.0196    4.4928    0.4501 H   0  0  0  0  0  0  0  0  0  0  0  0
   -4.3170    3.3341    0.7278 H   0  0  0  0  0  0  0  0  0  0  0  0
   -2.9480    3.4007    1.8357 H   0  0  0  0  0  0  0  0  0  0  0  0
   -2.8907    3.3904   -1.9894 H   0  0  0  0  0  0  0  0  0  0  0  0
   -2.5037    1.6737   -2.1070 H   0  0  0  0  0  0  0  0  0  0  0  0
   -4.0840    2.1802   -1.5254 H   0  0  0  0  0  0  0  0  0  0  0  0
    2.9035    1.1561    1.6783 H   0  0  0  0  0  0  0  0  0  0  0  0
    1.4973    0.6841    2.5995 H   0  0  0  0  0  0  0  0  0  0  0  0
    1.1691   -1.6345    2.5910 H   0  0  0  0  0  0  0  0  0  0  0  0
    2.6234    0.2133   -1.0207 H   0  0  0  0  0  0  0  0  0  0  0  0
    0.9994   -4.0319    1.4526 N   0  0  0  0  0  0  0  0  0  0  0  0
    3.0025    2.9762    0.3782 O   0  0  0  0  0  0  0  0  0  0  0  0
   -1.0333   -1.9623   -2.9019 C   0  0  0  0  0  0  0  0  0  0  0  0
  7 51  1  0
 51  2  3  0
 27  1  1  0
  3 14  2  0
 13  4  2  0
  7  4  1  0
  4 29  1  0
  5 18  1  0
  5 19  1  0
  5 30  1  0
  6 18  2  0
  9  7  2  0
 19  8  1  0
  8 15  1  0
  8 23  1  0
 50 19  2  0
 10  9  1  0
  9 31  1  0
 49 26  1  0
 49 32  1  0
 49 33  1  0
 14 10  1  0
 10 12  2  0
 26 11  2  0
 11 27  1  0
 12 13  1  0
 12 34  1  0
 13 16  1  0
 15 14  1  0
 17 15  2  0
 16 35  1  0
 16 36  1  0
 16 37  1  0
 18 17  1  0
 17 20  1  0
 21 20  1  0
 20 22  1  0
 20 38  1  1
 21 39  1  0
 21 40  1  0
 21 41  1  0
 22 42  1  0
 22 43  1  0
 22 44  1  0
 24 23  1  0
 23 45  1  0
 23 46  1  0
 25 24  2  0
 24 28  1  0
 26 25  1  0
 25 47  1  0
 27 28  2  0
 28 48  1  0
M  END
