
     RDKit          3D

 55 59  0  0  0  0  0  0  0  0999 V2000
    1.6399   -2.4076    2.1561 Cl  0  0  0  0  0  0  0  0  0  0  0  0
    1.0040   -1.3031    3.3162 C   0  0  0  0  0  0  0  0  0  0  0  0
    0.5894   -1.7654    4.5541 C   0  0  0  0  0  0  0  0  0  0  0  0
    0.0852   -0.8606    5.4755 C   0  0  0  0  0  0  0  0  0  0  0  0
   -0.0108    0.4886    5.1709 C   0  0  0  0  0  0  0  0  0  0  0  0
    0.4043    0.9279    3.9250 C   0  0  0  0  0  0  0  0  0  0  0  0
    0.2689    2.5958    3.5142 Cl  0  0  0  0  0  0  0  0  0  0  0  0
    0.9153    0.0441    2.9801 C   0  0  0  0  0  0  0  0  0  0  0  0
    1.3284    0.4879    1.7068 N   0  0  0  0  0  0  0  0  0  0  0  0
    2.5873    1.0319    1.6022 C   0  0  0  0  0  0  0  0  0  0  0  0
    3.3007    1.1423    2.5772 O   0  0  0  0  0  0  0  0  0  0  0  0
    2.9692    1.4685    0.2182 C   0  0  0  0  0  0  0  0  0  0  0  0
    2.4610    0.4863   -0.8265 C   0  0  0  0  0  0  0  0  0  0  0  0
    0.9792    0.3174   -0.6807 C   0  0  0  0  0  0  0  0  0  0  0  0
    0.4493    0.3443    0.6086 C   0  0  0  0  0  0  0  0  0  0  0  0
   -0.9174    0.2211    0.8254 C   0  0  0  0  0  0  0  0  0  0  0  0
   -1.7935    0.0711   -0.2413 C   0  0  0  0  0  0  0  0  0  0  0  0
   -1.2683    0.0451   -1.5282 C   0  0  0  0  0  0  0  0  0  0  0  0
    0.1003    0.1591   -1.7529 C   0  0  0  0  0  0  0  0  0  0  0  0
    0.5921    0.1164   -3.1490 C   0  0  0  0  0  0  0  0  0  0  0  0
    0.2254    1.0888   -4.0770 C   0  0  0  0  0  0  0  0  0  0  0  0
    0.6562    1.0449   -5.3942 C   0  0  0  0  0  0  0  0  0  0  0  0
    1.4681   -0.0030   -5.7820 C   0  0  0  0  0  0  0  0  0  0  0  0
    1.8991   -0.0617   -7.0480 F   0  0  0  0  0  0  0  0  0  0  0  0
    1.8554   -1.0008   -4.9086 C   0  0  0  0  0  0  0  0  0  0  0  0
    1.4005   -0.9142   -3.6076 C   0  0  0  0  0  0  0  0  0  0  0  0
    1.7547   -1.8818   -2.7526 F   0  0  0  0  0  0  0  0  0  0  0  0
   -3.2741   -0.0571    0.0046 C   0  0  1  0  0  0  0  0  0  0  0  0
   -4.0705    1.0883   -0.6280 C   0  0  0  0  0  0  0  0  0  0  0  0
   -5.5585    0.9108   -0.3635 C   0  0  0  0  0  0  0  0  0  0  0  0
   -6.0049   -0.3729   -0.8733 N   0  0  0  0  0  0  0  0  0  0  0  0
   -5.3302   -1.4782   -0.2173 C   0  0  0  0  0  0  0  0  0  0  0  0
   -3.8323   -1.4011   -0.4749 C   0  0  0  0  0  0  0  0  0  0  0  0
    0.6618   -2.8165    4.7963 H   0  0  0  0  0  0  0  0  0  0  0  0
   -0.2407   -1.2118    6.4447 H   0  0  0  0  0  0  0  0  0  0  0  0
   -0.4066    1.1895    5.8925 H   0  0  0  0  0  0  0  0  0  0  0  0
    2.5384    2.4599    0.0416 H   0  0  0  0  0  0  0  0  0  0  0  0
    4.0520    1.5726    0.1755 H   0  0  0  0  0  0  0  0  0  0  0  0
    2.7222    0.8467   -1.8209 H   0  0  0  0  0  0  0  0  0  0  0  0
    2.9639   -0.4771   -0.6974 H   0  0  0  0  0  0  0  0  0  0  0  0
   -1.3160    0.2476    1.8318 H   0  0  0  0  0  0  0  0  0  0  0  0
   -1.9274   -0.0711   -2.3804 H   0  0  0  0  0  0  0  0  0  0  0  0
   -0.4071    1.9066   -3.7567 H   0  0  0  0  0  0  0  0  0  0  0  0
    0.3678    1.8113   -6.1006 H   0  0  0  0  0  0  0  0  0  0  0  0
    2.4814   -1.8234   -5.2291 H   0  0  0  0  0  0  0  0  0  0  0  0
   -3.4326   -0.0057    1.0889 H   0  0  0  0  0  0  0  0  0  0  0  0
   -3.7349    2.0463   -0.2243 H   0  0  0  0  0  0  0  0  0  0  0  0
   -3.8956    1.1145   -1.7078 H   0  0  0  0  0  0  0  0  0  0  0  0
   -5.7382    1.0219    0.7193 H   0  0  0  0  0  0  0  0  0  0  0  0
   -6.1215    1.7040   -0.8598 H   0  0  0  0  0  0  0  0  0  0  0  0
   -7.0037   -0.4602   -0.7386 H   0  0  0  0  0  0  0  0  0  0  0  0
   -5.5000   -1.4913    0.8726 H   0  0  0  0  0  0  0  0  0  0  0  0
   -5.7266   -2.4172   -0.6092 H   0  0  0  0  0  0  0  0  0  0  0  0
   -3.6442   -1.5239   -1.5456 H   0  0  0  0  0  0  0  0  0  0  0  0
   -3.3258   -2.2230    0.0365 H   0  0  0  0  0  0  0  0  0  0  0  0
  1  2  1  0
  2  3  2  0
  2  8  1  0
  3  4  1  0
  3 34  1  0
  4  5  2  0
  4 35  1  0
  5  6  1  0
  5 36  1  0
  6  7  1  0
  6  8  2  0
  8  9  1  0
  9 10  1  0
  9 15  1  0
 10 11  2  0
 10 12  1  0
 12 13  1  0
 12 37  1  0
 12 38  1  0
 13 14  1  0
 13 39  1  0
 13 40  1  0
 14 15  2  0
 14 19  1  0
 15 16  1  0
 16 17  2  0
 16 41  1  0
 17 18  1  0
 17 28  1  0
 18 19  2  0
 18 42  1  0
 19 20  1  0
 20 21  2  0
 20 26  1  0
 21 22  1  0
 21 43  1  0
 22 23  2  0
 22 44  1  0
 23 24  1  0
 23 25  1  0
 25 26  2  0
 25 45  1  0
 26 27  1  0
 28 29  1  0
 28 33  1  0
 28 46  1  1
 29 30  1  0
 29 47  1  0
 29 48  1  0
 30 31  1  0
 30 49  1  0
 30 50  1  0
 31 32  1  0
 31 51  1  0
 32 33  1  0
 32 52  1  0
 32 53  1  0
 33 54  1  0
 33 55  1  0
M  END
