
     RDKit          3D

 86 89  0  0  0  0  0  0  0  0999 V2000
   -0.2296   -4.8633   -9.7941 C   0  0  2  0  0  0  0  0  0  0  0  0
   -0.9476   -3.6974   -9.4697 O   0  0  0  0  0  0  0  0  0  0  0  0
   -0.4300   -2.8115   -8.5859 C   0  0  0  0  0  0  0  0  0  0  0  0
   -0.7859   -1.4800   -8.7821 C   0  0  0  0  0  0  0  0  0  0  0  0
   -0.2953   -0.5030   -7.9196 C   0  0  0  0  0  0  0  0  0  0  0  0
    0.5630   -0.8664   -6.8785 C   0  0  0  0  0  0  0  0  0  0  0  0
    0.8833   -2.1963   -6.6831 C   0  0  0  0  0  0  0  0  0  0  0  0
    0.3903   -3.1834   -7.5309 C   0  0  0  0  0  0  0  0  0  0  0  0
    1.8165   -2.5796   -5.5785 C   0  0  0  0  0  0  0  0  0  0  0  0
    2.8437   -1.9541   -5.3628 O   0  0  0  0  0  0  0  0  0  0  0  0
    1.4368   -3.6607   -4.8774 N   0  0  0  0  0  0  0  0  0  0  0  0
    2.3014   -4.3614   -3.9504 C   0  0  0  0  0  0  0  0  0  0  0  0
    3.2455   -5.3343   -4.6525 C   0  0  0  0  0  0  0  0  0  0  0  0
    2.4852   -6.3810   -5.4562 C   0  0  0  0  0  0  0  0  0  0  0  0
    3.3253   -7.2628   -6.2381 N   0  0  0  0  0  0  0  0  0  0  0  0
    4.1490   -8.1296   -5.4158 C   0  0  0  0  0  0  0  0  0  0  0  0
    5.0307   -9.0133   -6.2768 C   0  0  0  0  0  0  0  0  0  0  0  0
    4.2346   -9.8098   -7.1870 N   0  0  0  0  0  0  0  0  0  0  0  0
    3.4099   -8.9471   -8.0078 C   0  0  0  0  0  0  0  0  0  0  0  0
    2.5279   -8.0629   -7.1483 C   0  0  0  0  0  0  0  0  0  0  0  0
    5.0361  -10.7005   -8.0070 C   0  0  0  0  0  0  0  0  0  0  0  0
    5.7897  -11.7593   -7.2127 C   0  0  0  0  0  0  0  0  0  0  0  0
    4.8858  -12.6159   -6.3290 C   0  0  0  0  0  0  0  0  0  0  0  0
    5.5597  -13.6668   -5.5805 N   0  0  0  0  0  0  0  0  0  0  0  0
   -0.5978    0.8546   -8.0267 N   0  0  0  0  0  0  0  0  0  0  0  0
   -1.3235    1.5088   -8.9695 C   0  0  0  0  0  0  0  0  0  0  0  0
   -1.8347    0.9792   -9.9351 O   0  0  0  0  0  0  0  0  0  0  0  0
   -0.7832   -5.3703  -11.1307 C   0  0  2  0  0  0  0  0  0  0  0  0
   -0.8057   -4.3679  -12.1101 O   0  0  0  0  0  0  0  0  0  0  0  0
   -2.2056   -5.8970  -10.9469 C   0  0  1  0  0  0  0  0  0  0  0  0
   -2.7004   -6.4716  -12.1266 O   0  0  0  0  0  0  0  0  0  0  0  0
   -2.2384   -6.9488   -9.8365 C   0  0  1  0  0  0  0  0  0  0  0  0
   -1.6102   -8.1532  -10.2069 O   0  0  0  0  0  0  0  0  0  0  0  0
   -1.6490   -6.3373   -8.5684 C   0  0  1  0  0  0  0  0  0  0  0  0
   -1.5573   -7.3281   -7.4202 C   0  0  0  0  0  0  0  0  0  0  0  0
   -1.0869   -6.7368   -6.2298 O   0  0  0  0  0  0  0  0  0  0  0  0
   -0.3286   -5.8562   -8.8184 O   0  0  0  0  0  0  0  0  0  0  0  0
   -0.5493    4.0441  -11.1108 S   0  0  0  0  0  0  0  0  0  0  0  0
   -1.4686    2.9962   -8.6832 C   0  0  0  0  0  0  0  0  0  0  0  0
   -1.7546    3.7974   -9.9044 C   0  0  0  0  0  0  0  0  0  0  0  0
   -2.9157    4.4193  -10.2497 C   0  0  0  0  0  0  0  0  0  0  0  0
   -2.8347    5.1037  -11.4947 C   0  0  0  0  0  0  0  0  0  0  0  0
   -1.6103    4.9851  -12.0752 C   0  0  0  0  0  0  0  0  0  0  0  0
    0.8387   -4.6327   -9.8776 H   0  0  0  0  0  0  0  0  0  0  0  0
   -1.4273   -1.2287   -9.6115 H   0  0  0  0  0  0  0  0  0  0  0  0
    0.9622   -0.1094   -6.2143 H   0  0  0  0  0  0  0  0  0  0  0  0
    0.6625   -4.2174   -7.3815 H   0  0  0  0  0  0  0  0  0  0  0  0
    0.5189   -4.0386   -5.0448 H   0  0  0  0  0  0  0  0  0  0  0  0
    2.8738   -3.6384   -3.3705 H   0  0  0  0  0  0  0  0  0  0  0  0
    1.6593   -4.8958   -3.2493 H   0  0  0  0  0  0  0  0  0  0  0  0
    3.9185   -4.7851   -5.3158 H   0  0  0  0  0  0  0  0  0  0  0  0
    3.8654   -5.8051   -3.8864 H   0  0  0  0  0  0  0  0  0  0  0  0
    1.8192   -6.9473   -4.7779 H   0  0  0  0  0  0  0  0  0  0  0  0
    1.8420   -5.8522   -6.1693 H   0  0  0  0  0  0  0  0  0  0  0  0
    3.5324   -8.7645   -4.7554 H   0  0  0  0  0  0  0  0  0  0  0  0
    4.7938   -7.5271   -4.7747 H   0  0  0  0  0  0  0  0  0  0  0  0
    5.7601   -8.3832   -6.8170 H   0  0  0  0  0  0  0  0  0  0  0  0
    5.5989   -9.6683   -5.6147 H   0  0  0  0  0  0  0  0  0  0  0  0
    2.7748   -9.5633   -8.6489 H   0  0  0  0  0  0  0  0  0  0  0  0
    4.0189   -8.3085   -8.6718 H   0  0  0  0  0  0  0  0  0  0  0  0
    1.9549   -7.4002   -7.8030 H   0  0  0  0  0  0  0  0  0  0  0  0
    1.8022   -8.6956   -6.6055 H   0  0  0  0  0  0  0  0  0  0  0  0
    5.7519  -10.1364   -8.6310 H   0  0  0  0  0  0  0  0  0  0  0  0
    4.3567  -11.2059   -8.7009 H   0  0  0  0  0  0  0  0  0  0  0  0
    6.5739  -11.3037   -6.5998 H   0  0  0  0  0  0  0  0  0  0  0  0
    6.3094  -12.4036   -7.9286 H   0  0  0  0  0  0  0  0  0  0  0  0
    4.1137  -13.0779   -6.9520 H   0  0  0  0  0  0  0  0  0  0  0  0
    4.3564  -11.9765   -5.6197 H   0  0  0  0  0  0  0  0  0  0  0  0
    6.2487  -13.2505   -4.9654 H   0  0  0  0  0  0  0  0  0  0  0  0
    6.0868  -14.2503   -6.2195 H   0  0  0  0  0  0  0  0  0  0  0  0
   -0.2048    1.4288   -7.2961 H   0  0  0  0  0  0  0  0  0  0  0  0
   -0.1358   -6.2018  -11.4446 H   0  0  0  0  0  0  0  0  0  0  0  0
    0.0726   -4.2826  -12.4932 H   0  0  0  0  0  0  0  0  0  0  0  0
   -2.8450   -5.0633  -10.6197 H   0  0  0  0  0  0  0  0  0  0  0  0
   -2.6861   -5.7962  -12.8126 H   0  0  0  0  0  0  0  0  0  0  0  0
   -3.2830   -7.2053   -9.6354 H   0  0  0  0  0  0  0  0  0  0  0  0
   -0.6590   -8.0177  -10.2700 H   0  0  0  0  0  0  0  0  0  0  0  0
   -2.2961   -5.5095   -8.2523 H   0  0  0  0  0  0  0  0  0  0  0  0
   -0.9466   -8.1909   -7.7073 H   0  0  0  0  0  0  0  0  0  0  0  0
   -2.5633   -7.7018   -7.2186 H   0  0  0  0  0  0  0  0  0  0  0  0
   -0.1311   -6.6679   -6.2854 H   0  0  0  0  0  0  0  0  0  0  0  0
   -0.5850    3.3740   -8.1623 H   0  0  0  0  0  0  0  0  0  0  0  0
   -2.3033    3.1112   -7.9855 H   0  0  0  0  0  0  0  0  0  0  0  0
   -3.8023    4.3903   -9.6309 H   0  0  0  0  0  0  0  0  0  0  0  0
   -3.6507    5.6596  -11.9332 H   0  0  0  0  0  0  0  0  0  0  0  0
   -1.2733    5.3999  -13.0124 H   0  0  0  0  0  0  0  0  0  0  0  0
  1  2  1  0
  1 28  1  0
  1 37  1  0
  1 44  1  6
  2  3  1  0
  3  4  2  0
  3  8  1  0
  4  5  1  0
  4 45  1  0
  5  6  2  0
  5 25  1  0
  6  7  1  0
  6 46  1  0
  7  8  2  0
  7  9  1  0
  8 47  1  0
  9 10  2  0
  9 11  1  0
 11 12  1  0
 11 48  1  0
 12 13  1  0
 12 49  1  0
 12 50  1  0
 13 14  1  0
 13 51  1  0
 13 52  1  0
 14 15  1  0
 14 53  1  0
 14 54  1  0
 15 16  1  0
 15 20  1  0
 16 17  1  0
 16 55  1  0
 16 56  1  0
 17 18  1  0
 17 57  1  0
 17 58  1  0
 18 19  1  0
 18 21  1  0
 19 20  1  0
 19 59  1  0
 19 60  1  0
 20 61  1  0
 20 62  1  0
 21 22  1  0
 21 63  1  0
 21 64  1  0
 22 23  1  0
 22 65  1  0
 22 66  1  0
 23 24  1  0
 23 67  1  0
 23 68  1  0
 24 69  1  0
 24 70  1  0
 25 26  1  0
 25 71  1  0
 26 27  2  0
 26 39  1  0
 28 29  1  0
 28 30  1  0
 28 72  1  6
 29 73  1  0
 30 31  1  0
 30 32  1  0
 30 74  1  1
 31 75  1  0
 32 33  1  0
 32 34  1  0
 32 76  1  1
 33 77  1  0
 34 35  1  0
 34 37  1  0
 34 78  1  1
 35 36  1  0
 35 79  1  0
 35 80  1  0
 36 81  1  0
 38 40  1  0
 38 43  1  0
 39 40  1  0
 39 82  1  0
 39 83  1  0
 40 41  2  0
 41 42  1  0
 41 84  1  0
 42 43  2  0
 42 85  1  0
 43 86  1  0
M  END
