
     RDKit          3D

 34 35  0  0  0  0  0  0  0  0999 V2000
   -0.6590    0.5329   -0.2537 N   0  0  0  0  0  0  0  0  0  0  0  0
    1.6528    0.1576    0.1110 N   0  0  0  0  0  0  0  0  0  0  0  0
   -1.8131   -0.2089   -0.1571 C   0  0  0  0  0  0  0  0  0  0  0  0
   -3.1477    0.1177   -0.3502 C   0  0  0  0  0  0  0  0  0  0  0  0
   -4.0701   -0.9030   -0.1743 C   0  0  0  0  0  0  0  0  0  0  0  0
   -3.6683   -2.1969    0.1816 C   0  0  0  0  0  0  0  0  0  0  0  0
   -2.3323   -2.5113    0.3723 C   0  0  0  0  0  0  0  0  0  0  0  0
    0.3603   -0.3144    0.0761 C   0  0  0  0  0  0  0  0  0  0  0  0
    5.3266   -0.5717   -0.1315 C   0  0  0  0  0  0  0  0  0  0  0  0
   -0.6797    4.3181    0.2240 C   0  0  0  0  0  0  0  0  0  0  0  0
   -0.7462    2.8508    0.6189 C   0  0  0  0  0  0  0  0  0  0  0  0
   -0.5825    1.9399   -0.5915 C   0  0  0  0  0  0  0  0  0  0  0  0
   -1.3919   -1.4982    0.2022 C   0  0  0  0  0  0  0  0  0  0  0  0
   -0.0255   -1.5278    0.3473 N   0  0  0  0  0  0  0  0  0  0  0  0
    2.7972   -0.5931   -0.0338 C   0  0  0  0  0  0  0  0  0  0  0  0
    2.7841   -1.7815   -0.2543 O   0  0  0  0  0  0  0  0  0  0  0  0
    4.0590    0.2273    0.1049 C   0  0  0  0  0  0  0  0  0  0  0  0
    1.7803    1.1456    0.2711 H   0  0  0  0  0  0  0  0  0  0  0  0
   -3.4638    1.1161   -0.6239 H   0  0  0  0  0  0  0  0  0  0  0  0
   -5.1225   -0.6936   -0.3132 H   0  0  0  0  0  0  0  0  0  0  0  0
   -4.4199   -2.9645    0.3113 H   0  0  0  0  0  0  0  0  0  0  0  0
   -2.0244   -3.5116    0.6485 H   0  0  0  0  0  0  0  0  0  0  0  0
    5.4351   -1.3804    0.5897 H   0  0  0  0  0  0  0  0  0  0  0  0
    5.3468   -1.0063   -1.1302 H   0  0  0  0  0  0  0  0  0  0  0  0
    6.1955    0.0780   -0.0351 H   0  0  0  0  0  0  0  0  0  0  0  0
    0.2891    4.5694   -0.2100 H   0  0  0  0  0  0  0  0  0  0  0  0
   -1.4476    4.5671   -0.5102 H   0  0  0  0  0  0  0  0  0  0  0  0
   -0.8306    4.9605    1.0908 H   0  0  0  0  0  0  0  0  0  0  0  0
    0.0312    2.6285    1.3548 H   0  0  0  0  0  0  0  0  0  0  0  0
   -1.7025    2.6353    1.1012 H   0  0  0  0  0  0  0  0  0  0  0  0
    0.3657    2.1276   -1.0985 H   0  0  0  0  0  0  0  0  0  0  0  0
   -1.3602    2.1442   -1.3290 H   0  0  0  0  0  0  0  0  0  0  0  0
    4.0651    0.6736    1.1042 H   0  0  0  0  0  0  0  0  0  0  0  0
    4.0037    1.0697   -0.5913 H   0  0  0  0  0  0  0  0  0  0  0  0
  9 17  1  0
 16 15  2  0
 17 15  1  0
 15  2  1  0
  2  8  1  0
 14  8  2  0
 14 13  1  0
  8  1  1  0
  7 13  1  0
  7  6  2  0
 13  3  2  0
  1  3  1  0
  1 12  1  0
  6  5  1  0
  3  4  1  0
 12 11  1  0
  5  4  2  0
 11 10  1  0
  2 18  1  0
  4 19  1  0
  5 20  1  0
  6 21  1  0
  7 22  1  0
  9 23  1  0
  9 24  1  0
  9 25  1  0
 10 26  1  0
 10 27  1  0
 10 28  1  0
 11 29  1  0
 11 30  1  0
 12 31  1  0
 12 32  1  0
 17 33  1  0
 17 34  1  0
M  END
