
     RDKit          3D

 39 39  0  0  0  0  0  0  0  0999 V2000
    5.3475   -0.3053    0.6774 C   0  0  0  0  0  0  0  0  0  0  0  0
    3.8711   -0.5104    0.6484 C   0  0  0  0  0  0  0  0  0  0  0  0
    2.9411    0.1803   -0.0333 C   0  0  0  0  0  0  0  0  0  0  0  0
    3.2433    1.3429   -0.9314 C   0  0  0  0  0  0  0  0  0  0  0  0
    1.5437   -0.2213    0.1153 C   0  0  0  0  0  0  0  0  0  0  0  0
    0.4911    0.3439   -0.4919 C   0  0  0  0  0  0  0  0  0  0  0  0
   -0.9083   -0.0670   -0.2959 C   0  0  0  0  0  0  0  0  0  0  0  0
   -1.2962   -1.3535   -0.3743 C   0  0  0  0  0  0  0  0  0  0  0  0
   -0.4088   -2.4868   -0.8042 C   0  0  0  0  0  0  0  0  0  0  0  0
   -2.6960   -1.8013   -0.0489 C   0  0  0  0  0  0  0  0  0  0  0  0
   -3.5075   -0.7534    0.6893 C   0  0  0  0  0  0  0  0  0  0  0  0
   -3.3310    0.5830   -0.0051 C   0  0  0  0  0  0  0  0  0  0  0  0
   -1.8776    1.0718    0.0279 C   0  0  1  0  0  0  0  0  0  0  0  0
   -1.5425    1.6354    1.4147 C   0  0  0  0  0  0  0  0  0  0  0  0
   -1.7557    2.2053   -1.0004 C   0  0  0  0  0  0  0  0  0  0  0  0
    3.5167   -1.3315    1.2667 H   0  0  0  0  0  0  0  0  0  0  0  0
    2.9252    1.1411   -1.9565 H   0  0  0  0  0  0  0  0  0  0  0  0
    2.7053    2.2358   -0.6055 H   0  0  0  0  0  0  0  0  0  0  0  0
    4.3015    1.5902   -0.9581 H   0  0  0  0  0  0  0  0  0  0  0  0
    1.3676   -1.0479    0.7990 H   0  0  0  0  0  0  0  0  0  0  0  0
    0.6623    1.1992   -1.1382 H   0  0  0  0  0  0  0  0  0  0  0  0
   -0.0857   -3.0866    0.0512 H   0  0  0  0  0  0  0  0  0  0  0  0
   -0.9655   -3.1635   -1.4584 H   0  0  0  0  0  0  0  0  0  0  0  0
    0.4836   -2.1605   -1.3337 H   0  0  0  0  0  0  0  0  0  0  0  0
   -3.2044   -2.0841   -0.9796 H   0  0  0  0  0  0  0  0  0  0  0  0
   -2.6372   -2.7254    0.5366 H   0  0  0  0  0  0  0  0  0  0  0  0
   -4.5611   -1.0395    0.7167 H   0  0  0  0  0  0  0  0  0  0  0  0
   -3.1750   -0.6883    1.7294 H   0  0  0  0  0  0  0  0  0  0  0  0
   -3.6514    0.4793   -1.0484 H   0  0  0  0  0  0  0  0  0  0  0  0
   -3.9719    1.3507    0.4388 H   0  0  0  0  0  0  0  0  0  0  0  0
   -0.5112    1.9899    1.4559 H   0  0  0  0  0  0  0  0  0  0  0  0
   -2.1943    2.4779    1.6582 H   0  0  0  0  0  0  0  0  0  0  0  0
   -1.6602    0.8831    2.1959 H   0  0  0  0  0  0  0  0  0  0  0  0
   -1.8484    1.8291   -2.0212 H   0  0  0  0  0  0  0  0  0  0  0  0
   -2.5579    2.9292   -0.8411 H   0  0  0  0  0  0  0  0  0  0  0  0
   -0.8151    2.7522   -0.9231 H   0  0  0  0  0  0  0  0  0  0  0  0
    5.8683   -1.2150    0.3689 H   0  0  0  0  0  0  0  0  0  0  0  0
    5.6906    0.5057    0.0385 H   0  0  0  0  0  0  0  0  0  0  0  0
    5.6843   -0.0919    1.6950 H   0  0  0  0  0  0  0  0  0  0  0  0
  1  2  1  0
  2  3  2  0
  2 16  1  0
  3  4  1  0
  3  5  1  0
  4 17  1  0
  4 18  1  0
  4 19  1  0
  5  6  2  0
  5 20  1  0
  6  7  1  0
  6 21  1  0
  7  8  2  0
  7 13  1  0
  8  9  1  0
  8 10  1  0
  9 22  1  0
  9 23  1  0
  9 24  1  0
 10 11  1  0
 10 25  1  0
 10 26  1  0
 11 12  1  0
 11 27  1  0
 11 28  1  0
 12 13  1  0
 12 29  1  0
 12 30  1  0
 13 14  1  1
 13 15  1  0
 14 31  1  0
 14 32  1  0
 14 33  1  0
 15 34  1  0
 15 35  1  0
 15 36  1  0
  1 37  1  0
  1 38  1  0
  1 39  1  0
M  END
