
     RDKit          3D

 72 75  0  0  0  0  0  0  0  0999 V2000
   -5.9153    0.7748   -1.5221 N   0  0  0  0  0  0  0  0  0  0  0  0
    1.5770    2.8105   -0.6115 C   0  0  0  0  0  0  0  0  0  0  0  0
    2.2941   -1.6940   -1.9218 O   0  0  0  0  0  0  0  0  0  0  0  0
    3.9090   -0.7456   -0.6763 N   0  0  0  0  0  0  0  0  0  0  0  0
    1.8518    0.4587   -1.0177 C   0  0  0  0  0  0  0  0  0  0  0  0
    4.5766   -4.2673   -0.6008 N   0  0  0  0  0  0  0  0  0  0  0  0
    0.4702    0.3252   -1.0937 C   0  0  0  0  0  0  0  0  0  0  0  0
   -0.3537    1.4234   -0.8893 C   0  0  0  0  0  0  0  0  0  0  0  0
    4.7986   -1.8712   -0.7935 C   0  0  2  0  0  0  0  0  0  0  0  0
    4.2272   -3.0908   -0.0667 C   0  0  0  0  0  0  0  0  0  0  0  0
    3.5595   -2.9747    0.9479 O   0  0  0  0  0  0  0  0  0  0  0  0
    6.1631   -1.5160   -0.1988 C   0  0  0  0  0  0  0  0  0  0  0  0
    6.8663   -0.3958   -0.9588 C   0  0  0  0  0  0  0  0  0  0  0  0
    8.2563   -0.0567   -0.4239 C   0  0  2  0  0  0  0  0  0  0  0  0
    8.2169    0.5097    0.9966 C   0  0  0  0  0  0  0  0  0  0  0  0
    9.6052    0.8960    1.4985 C   0  0  0  0  0  0  0  0  0  0  0  0
   10.2953    1.8715    0.5514 C   0  0  0  0  0  0  0  0  0  0  0  0
   10.3526    1.3052   -0.8633 C   0  0  0  0  0  0  0  0  0  0  0  0
    8.9624    0.9246   -1.3612 C   0  0  0  0  0  0  0  0  0  0  0  0
    2.4049    1.7133   -0.7806 C   0  0  0  0  0  0  0  0  0  0  0  0
    0.1924    2.6909   -0.6469 C   0  0  0  0  0  0  0  0  0  0  0  0
   -0.6870    3.8858   -0.4358 C   0  0  0  0  0  0  0  0  0  0  0  0
   -1.7528    1.2964   -0.9415 N   0  0  0  0  0  0  0  0  0  0  0  0
   -2.4712    0.3205   -0.3284 C   0  0  0  0  0  0  0  0  0  0  0  0
   -1.9791   -0.5882    0.3117 O   0  0  0  0  0  0  0  0  0  0  0  0
   -3.9304    0.4439   -0.5258 C   0  0  0  0  0  0  0  0  0  0  0  0
   -4.9360    0.0656    0.3412 C   0  0  0  0  0  0  0  0  0  0  0  0
   -4.8309   -0.3977    1.7584 C   0  0  1  0  0  0  0  0  0  0  0  0
   -4.6755   -1.7219    1.8407 F   0  0  0  0  0  0  0  0  0  0  0  0
   -3.7925    0.1720    2.3646 F   0  0  0  0  0  0  0  0  0  0  0  0
   -5.9183   -0.0818    2.4649 F   0  0  0  0  0  0  0  0  0  0  0  0
   -6.1031    0.2803   -0.3027 N   0  0  0  0  0  0  0  0  0  0  0  0
   -4.6146    0.8856   -1.6710 C   0  0  0  0  0  0  0  0  0  0  0  0
   -7.4339    0.0191    0.1292 C   0  0  0  0  0  0  0  0  0  0  0  0
   -7.8229   -1.2820    0.4070 C   0  0  0  0  0  0  0  0  0  0  0  0
   -9.1277   -1.5226    0.8116 C   0  0  0  0  0  0  0  0  0  0  0  0
  -10.0292   -0.4725    0.9229 C   0  0  0  0  0  0  0  0  0  0  0  0
   -9.6283    0.8242    0.6273 C   0  0  0  0  0  0  0  0  0  0  0  0
   -8.3242    1.0771    0.2296 C   0  0  0  0  0  0  0  0  0  0  0  0
    2.0154    3.7849   -0.4365 H   0  0  0  0  0  0  0  0  0  0  0  0
    4.0999   -0.0738    0.0503 H   0  0  0  0  0  0  0  0  0  0  0  0
    5.0963   -4.3282   -1.4594 H   0  0  0  0  0  0  0  0  0  0  0  0
    4.3224   -5.1323   -0.1523 H   0  0  0  0  0  0  0  0  0  0  0  0
    0.0423   -0.6407   -1.3200 H   0  0  0  0  0  0  0  0  0  0  0  0
    4.9286   -2.1086   -1.8537 H   0  0  0  0  0  0  0  0  0  0  0  0
    6.0257   -1.2540    0.8543 H   0  0  0  0  0  0  0  0  0  0  0  0
    6.7903   -2.4109   -0.2147 H   0  0  0  0  0  0  0  0  0  0  0  0
    6.9554   -0.6928   -2.0093 H   0  0  0  0  0  0  0  0  0  0  0  0
    6.2541    0.5125   -0.9506 H   0  0  0  0  0  0  0  0  0  0  0  0
    8.8480   -0.9830   -0.4019 H   0  0  0  0  0  0  0  0  0  0  0  0
    7.5643    1.3916    1.0069 H   0  0  0  0  0  0  0  0  0  0  0  0
    7.7698   -0.2119    1.6852 H   0  0  0  0  0  0  0  0  0  0  0  0
    9.5340    1.3238    2.5017 H   0  0  0  0  0  0  0  0  0  0  0  0
   10.2170   -0.0082    1.5893 H   0  0  0  0  0  0  0  0  0  0  0  0
    9.7445    2.8186    0.5380 H   0  0  0  0  0  0  0  0  0  0  0  0
   11.3013    2.1022    0.9112 H   0  0  0  0  0  0  0  0  0  0  0  0
   10.8108    2.0270   -1.5442 H   0  0  0  0  0  0  0  0  0  0  0  0
   10.9965    0.4190   -0.8715 H   0  0  0  0  0  0  0  0  0  0  0  0
    9.0249    0.4944   -2.3652 H   0  0  0  0  0  0  0  0  0  0  0  0
    8.3511    1.8312   -1.4506 H   0  0  0  0  0  0  0  0  0  0  0  0
    3.4773    1.8573   -0.7559 H   0  0  0  0  0  0  0  0  0  0  0  0
   -1.2153    4.1657   -1.3511 H   0  0  0  0  0  0  0  0  0  0  0  0
   -1.4427    3.6994    0.3290 H   0  0  0  0  0  0  0  0  0  0  0  0
   -0.1016    4.7489   -0.1250 H   0  0  0  0  0  0  0  0  0  0  0  0
   -2.2641    2.0809   -1.3165 H   0  0  0  0  0  0  0  0  0  0  0  0
   -4.2006    1.2507   -2.5987 H   0  0  0  0  0  0  0  0  0  0  0  0
   -7.1232   -2.1004    0.2973 H   0  0  0  0  0  0  0  0  0  0  0  0
   -9.4404   -2.5342    1.0319 H   0  0  0  0  0  0  0  0  0  0  0  0
  -11.0466   -0.6659    1.2358 H   0  0  0  0  0  0  0  0  0  0  0  0
  -10.3292    1.6434    0.7126 H   0  0  0  0  0  0  0  0  0  0  0  0
   -7.9988    2.0845    0.0070 H   0  0  0  0  0  0  0  0  0  0  0  0
    2.6894   -0.7553   -1.2450 C   0  0  0  0  0  0  0  0  0  0  0  0
 15 16  1  0
 15 14  1  0
 13 14  1  0
 13 12  1  0
 16 17  1  0
 17 18  1  0
 14 19  1  0
 12  9  1  0
 19 18  1  0
 11 10  2  0
 10  9  1  0
 10  6  1  0
  9  4  1  0
  4 72  1  0
 72  3  2  0
 72  5  1  0
 20  5  1  0
 20  2  2  0
  5  7  2  0
  2 21  1  0
  7  8  1  0
 21  8  2  0
 21 22  1  0
  8 23  1  0
 23 24  1  0
 24 25  2  0
 24 26  1  0
 33 26  1  0
 33  1  2  0
 26 27  2  0
  1 32  1  0
 27 32  1  0
 27 28  1  0
 28 30  1  1
 31 28  1  0
 32 34  1  0
 28 29  1  0
 34 39  1  0
 34 35  2  0
 39 38  2  0
 35 36  1  0
 38 37  1  0
 36 37  2  0
  2 40  1  0
  4 41  1  0
  6 42  1  0
  6 43  1  0
  7 44  1  0
  9 45  1  6
 12 46  1  0
 12 47  1  0
 13 48  1  0
 13 49  1  0
 14 50  1  1
 15 51  1  0
 15 52  1  0
 16 53  1  0
 16 54  1  0
 17 55  1  0
 17 56  1  0
 18 57  1  0
 18 58  1  0
 19 59  1  0
 19 60  1  0
 20 61  1  0
 22 62  1  0
 22 63  1  0
 22 64  1  0
 23 65  1  0
 33 66  1  0
 35 67  1  0
 36 68  1  0
 37 69  1  0
 38 70  1  0
 39 71  1  0
M  END
