
     RDKit          3D

 52 56  0  0  0  0  0  0  0  0999 V2000
    4.1809    0.0525   -0.3472 C   0  0  0  0  0  0  0  0  0  0  0  0
    5.0811   -0.9610   -0.1185 C   0  0  0  0  0  0  0  0  0  0  0  0
    6.3941   -0.6763    0.3119 C   0  0  0  0  0  0  0  0  0  0  0  0
    6.7802    0.6685    0.5089 C   0  0  0  0  0  0  0  0  0  0  0  0
    5.8463    1.7001    0.2720 C   0  0  0  0  0  0  0  0  0  0  0  0
    4.5812    1.3989   -0.1438 C   0  0  0  0  0  0  0  0  0  0  0  0
    7.3606   -1.6737    0.5690 C   0  0  0  0  0  0  0  0  0  0  0  0
    8.6074   -1.3012    0.9852 C   0  0  0  0  0  0  0  0  0  0  0  0
    8.9841   -0.0150    1.1711 N   0  0  0  0  0  0  0  0  0  0  0  0
    8.1029    0.9200    0.9408 C   0  0  0  0  0  0  0  0  0  0  0  0
   -8.9555   -0.9289    0.2484 C   0  0  0  0  0  0  0  0  0  0  0  0
   -8.1694   -0.8926    1.3963 C   0  0  0  0  0  0  0  0  0  0  0  0
   -6.8159   -0.6469    1.2424 C   0  0  0  0  0  0  0  0  0  0  0  0
   -6.2486   -0.4451   -0.0169 C   0  0  0  0  0  0  0  0  0  0  0  0
   -7.0308   -0.4792   -1.1540 C   0  0  0  0  0  0  0  0  0  0  0  0
   -8.3958   -0.7253   -1.0097 C   0  0  0  0  0  0  0  0  0  0  0  0
   -5.8495   -0.5655    2.2639 N   0  0  0  0  0  0  0  0  0  0  0  0
   -4.7310   -0.3201    1.6952 C   0  0  0  0  0  0  0  0  0  0  0  0
   -4.7861   -0.2008    0.1954 C   0  0  2  0  0  0  0  0  0  0  0  0
    0.3113   -0.9037   -1.6930 C   0  0  0  0  0  0  0  0  0  0  0  0
    1.3571   -1.5909   -2.1389 N   0  0  0  0  0  0  0  0  0  0  0  0
    2.5665   -1.2799   -1.7119 C   0  0  0  0  0  0  0  0  0  0  0  0
    2.8110   -0.2490   -0.7997 C   0  0  0  0  0  0  0  0  0  0  0  0
    1.7209    0.4746   -0.3414 C   0  0  0  0  0  0  0  0  0  0  0  0
    0.4425    0.1495   -0.7882 C   0  0  0  0  0  0  0  0  0  0  0  0
   -0.5731    0.8766   -0.3035 O   0  0  0  0  0  0  0  0  0  0  0  0
   -1.8932    0.5616   -0.7111 C   0  0  0  0  0  0  0  0  0  0  0  0
   -2.8494    1.5322   -0.0401 C   0  0  2  0  0  0  0  0  0  0  0  0
   -4.3056    1.1546   -0.3453 C   0  0  0  0  0  0  0  0  0  0  0  0
   -2.5278    2.8883   -0.4526 N   0  0  0  0  0  0  0  0  0  0  0  0
    4.7877   -1.9961   -0.2444 H   0  0  0  0  0  0  0  0  0  0  0  0
    6.1440    2.7314    0.4160 H   0  0  0  0  0  0  0  0  0  0  0  0
    3.8780    2.1983   -0.3391 H   0  0  0  0  0  0  0  0  0  0  0  0
    7.1161   -2.7198    0.4380 H   0  0  0  0  0  0  0  0  0  0  0  0
    9.3632   -2.0503    1.1883 H   0  0  0  0  0  0  0  0  0  0  0  0
    8.4176    1.9485    1.0947 H   0  0  0  0  0  0  0  0  0  0  0  0
   -8.6013   -1.0501    2.3763 H   0  0  0  0  0  0  0  0  0  0  0  0
   -6.6040   -0.3203   -2.1367 H   0  0  0  0  0  0  0  0  0  0  0  0
   -9.0297   -0.7595   -1.8861 H   0  0  0  0  0  0  0  0  0  0  0  0
   -3.8216   -0.2177    2.2769 H   0  0  0  0  0  0  0  0  0  0  0  0
   -4.1960   -1.0136   -0.2467 H   0  0  0  0  0  0  0  0  0  0  0  0
   -0.6558   -1.2058   -2.0761 H   0  0  0  0  0  0  0  0  0  0  0  0
    3.3895   -1.8566   -2.1197 H   0  0  0  0  0  0  0  0  0  0  0  0
    1.8445    1.2775    0.3758 H   0  0  0  0  0  0  0  0  0  0  0  0
   -2.1315   -0.4707   -0.4349 H   0  0  0  0  0  0  0  0  0  0  0  0
   -1.9910    0.6426   -1.8016 H   0  0  0  0  0  0  0  0  0  0  0  0
   -2.6894    1.4778    1.0418 H   0  0  0  0  0  0  0  0  0  0  0  0
   -4.9467    1.9386    0.0669 H   0  0  0  0  0  0  0  0  0  0  0  0
   -4.4571    1.1684   -1.4296 H   0  0  0  0  0  0  0  0  0  0  0  0
   -2.7720    3.0137   -1.4293 H   0  0  0  0  0  0  0  0  0  0  0  0
   -3.1058    3.5416    0.0615 H   0  0  0  0  0  0  0  0  0  0  0  0
  -10.0180   -1.1160    0.3352 H   0  0  0  0  0  0  0  0  0  0  0  0
  1  2  2  0
  1  6  1  0
  1 23  1  0
  2  3  1  0
  2 31  1  0
  3  4  2  0
  3  7  1  0
  4  5  1  0
  4 10  1  0
  5  6  2  0
  5 32  1  0
  6 33  1  0
  7  8  2  0
  7 34  1  0
  8  9  1  0
  8 35  1  0
  9 10  2  0
 10 36  1  0
 11 12  2  0
 11 16  1  0
 11 52  1  0
 12 13  1  0
 12 37  1  0
 13 14  2  0
 13 17  1  0
 14 15  1  0
 14 19  1  0
 15 16  2  0
 15 38  1  0
 16 39  1  0
 17 18  2  0
 18 19  1  0
 18 40  1  0
 19 29  1  0
 19 41  1  6
 20 21  2  0
 20 25  1  0
 20 42  1  0
 21 22  1  0
 22 23  2  0
 22 43  1  0
 23 24  1  0
 24 25  2  0
 24 44  1  0
 25 26  1  0
 26 27  1  0
 27 28  1  0
 27 45  1  0
 27 46  1  0
 28 29  1  0
 28 30  1  0
 28 47  1  1
 29 48  1  0
 29 49  1  0
 30 50  1  0
 30 51  1  0
M  END
