
     RDKit          3D

 65 66  0  0  0  0  0  0  0  0999 V2000
    6.4042    3.7509    0.0291 Cl  0  0  0  0  0  0  0  0  0  0  0  0
    5.2530    2.4547    0.0825 C   0  0  0  0  0  0  0  0  0  0  0  0
    5.5133    1.2785   -0.6000 C   0  0  0  0  0  0  0  0  0  0  0  0
    4.0863    2.6044    0.8124 C   0  0  0  0  0  0  0  0  0  0  0  0
    3.1737    1.5601    0.8514 C   0  0  0  0  0  0  0  0  0  0  0  0
    3.4012    0.3630    0.1736 C   0  0  0  0  0  0  0  0  0  0  0  0
    4.5895    0.2451   -0.5468 C   0  0  0  0  0  0  0  0  0  0  0  0
    2.4059   -0.7935    0.1942 C   0  0  2  0  0  0  0  0  0  0  0  0
    1.6985   -0.9044    1.5554 C   0  0  0  0  0  0  0  0  0  0  0  0
    3.0841   -2.0074   -0.0601 O   0  0  0  0  0  0  0  0  0  0  0  0
    1.3434   -0.6644   -0.9438 C   0  0  2  0  0  0  0  0  0  0  0  0
    1.9768   -0.7648   -2.3316 C   0  0  0  0  0  0  0  0  0  0  0  0
    0.5806    0.6585   -0.8564 C   0  0  0  0  0  0  0  0  0  0  0  0
    0.3458   -1.8297   -0.8111 C   0  0  0  0  0  0  0  0  0  0  0  0
   -0.2872   -1.8583    0.4932 N   0  0  0  0  0  0  0  0  0  0  0  0
    0.6713   -2.0262    1.5741 C   0  0  0  0  0  0  0  0  0  0  0  0
   -1.5874   -1.6226    0.7561 C   0  0  0  0  0  0  0  0  0  0  0  0
   -2.0268   -1.5522    1.8976 O   0  0  0  0  0  0  0  0  0  0  0  0
   -2.5491   -1.5204   -0.4304 C   0  0  1  0  0  0  0  0  0  0  0  0
   -2.8478   -2.9264   -1.0048 C   0  0  1  0  0  0  0  0  0  0  0  0
   -3.5491   -3.8307    0.0026 C   0  0  0  0  0  0  0  0  0  0  0  0
   -3.6594   -2.8190   -2.2903 C   0  0  0  0  0  0  0  0  0  0  0  0
   -3.7425   -0.8434    0.0009 N   0  0  0  0  0  0  0  0  0  0  0  0
   -4.3110    0.1754   -0.6708 C   0  0  0  0  0  0  0  0  0  0  0  0
   -3.9037    0.5708   -1.7548 O   0  0  0  0  0  0  0  0  0  0  0  0
   -5.5220    0.7780    0.0087 C   0  0  0  0  0  0  0  0  0  0  0  0
   -5.2518    2.1532    0.6374 C   0  0  1  0  0  0  0  0  0  0  0  0
   -4.0935    1.9850    1.4393 O   0  0  0  0  0  0  0  0  0  0  0  0
   -5.0224    3.2317   -0.4189 C   0  0  0  0  0  0  0  0  0  0  0  0
   -6.4515    2.5348    1.5045 C   0  0  0  0  0  0  0  0  0  0  0  0
    6.4269    1.1612   -1.1671 H   0  0  0  0  0  0  0  0  0  0  0  0
    3.8846    3.5208    1.3503 H   0  0  0  0  0  0  0  0  0  0  0  0
    2.2727    1.7062    1.4310 H   0  0  0  0  0  0  0  0  0  0  0  0
    4.8139   -0.6683   -1.0800 H   0  0  0  0  0  0  0  0  0  0  0  0
    2.4461   -1.0856    2.3341 H   0  0  0  0  0  0  0  0  0  0  0  0
    1.2040    0.0284    1.8256 H   0  0  0  0  0  0  0  0  0  0  0  0
    3.6850   -2.1836    0.6727 H   0  0  0  0  0  0  0  0  0  0  0  0
    2.4593   -1.7269   -2.5005 H   0  0  0  0  0  0  0  0  0  0  0  0
    1.2057   -0.6441   -3.0955 H   0  0  0  0  0  0  0  0  0  0  0  0
    2.7170    0.0193   -2.4936 H   0  0  0  0  0  0  0  0  0  0  0  0
    1.2377    1.5092   -1.0373 H   0  0  0  0  0  0  0  0  0  0  0  0
   -0.2054    0.6873   -1.6141 H   0  0  0  0  0  0  0  0  0  0  0  0
    0.1022    0.8169    0.1103 H   0  0  0  0  0  0  0  0  0  0  0  0
   -0.3907   -1.7353   -1.6044 H   0  0  0  0  0  0  0  0  0  0  0  0
    0.8514   -2.7848   -0.9736 H   0  0  0  0  0  0  0  0  0  0  0  0
    1.1600   -2.9968    1.4572 H   0  0  0  0  0  0  0  0  0  0  0  0
    0.1477   -2.0392    2.5255 H   0  0  0  0  0  0  0  0  0  0  0  0
   -2.1160   -0.9115   -1.2250 H   0  0  0  0  0  0  0  0  0  0  0  0
   -1.8854   -3.3827   -1.2573 H   0  0  0  0  0  0  0  0  0  0  0  0
   -4.5175   -3.4184    0.2925 H   0  0  0  0  0  0  0  0  0  0  0  0
   -3.7335   -4.8097   -0.4408 H   0  0  0  0  0  0  0  0  0  0  0  0
   -2.9632   -3.9878    0.9083 H   0  0  0  0  0  0  0  0  0  0  0  0
   -4.6563   -2.4185   -2.1002 H   0  0  0  0  0  0  0  0  0  0  0  0
   -3.1719   -2.1748   -3.0232 H   0  0  0  0  0  0  0  0  0  0  0  0
   -3.7845   -3.8047   -2.7409 H   0  0  0  0  0  0  0  0  0  0  0  0
   -4.0601   -1.0354    0.9375 H   0  0  0  0  0  0  0  0  0  0  0  0
   -6.3163    0.8791   -0.7328 H   0  0  0  0  0  0  0  0  0  0  0  0
   -5.8953    0.1039    0.7841 H   0  0  0  0  0  0  0  0  0  0  0  0
   -3.8924    2.8301    1.8552 H   0  0  0  0  0  0  0  0  0  0  0  0
   -5.8862    3.3210   -1.0791 H   0  0  0  0  0  0  0  0  0  0  0  0
   -4.8760    4.2035    0.0587 H   0  0  0  0  0  0  0  0  0  0  0  0
   -4.1493    3.0211   -1.0335 H   0  0  0  0  0  0  0  0  0  0  0  0
   -6.6064    1.8062    2.3018 H   0  0  0  0  0  0  0  0  0  0  0  0
   -6.3025    3.5150    1.9637 H   0  0  0  0  0  0  0  0  0  0  0  0
   -7.3660    2.5883    0.9120 H   0  0  0  0  0  0  0  0  0  0  0  0
  8 10  1  6
 16  9  1  0
 16 15  1  0
  9  8  1  0
  8  6  1  0
  8 11  1  0
 15 14  1  0
 15 17  1  0
  7  6  2  0
  7  3  1  0
 22 20  1  0
  6  5  1  0
 14 11  1  0
  3  2  2  0
 11 12  1  6
 11 13  1  0
 20 21  1  0
 20 19  1  0
 17 18  2  0
 17 19  1  0
  5  4  2  0
  2  4  1  0
  2  1  1  0
 19 23  1  0
 23 24  1  0
 27 28  1  1
 24 25  2  0
 24 26  1  0
 27 26  1  0
 27 30  1  0
 27 29  1  0
  3 31  1  0
  4 32  1  0
  5 33  1  0
  7 34  1  0
  9 35  1  0
  9 36  1  0
 10 37  1  0
 12 38  1  0
 12 39  1  0
 12 40  1  0
 13 41  1  0
 13 42  1  0
 13 43  1  0
 14 44  1  0
 14 45  1  0
 16 46  1  0
 16 47  1  0
 19 48  1  6
 20 49  1  6
 21 50  1  0
 21 51  1  0
 21 52  1  0
 22 53  1  0
 22 54  1  0
 22 55  1  0
 23 56  1  0
 26 57  1  0
 26 58  1  0
 28 59  1  0
 29 60  1  0
 29 61  1  0
 29 62  1  0
 30 63  1  0
 30 64  1  0
 30 65  1  0
M  END
