
     RDKit          3D

 33 32  0  0  0  0  0  0  0  0999 V2000
    0.4530   -0.0572   -1.7335 N   0  0  0  0  0  0  0  0  0  0  0  0
    0.4391   -0.0335   -0.2774 C   0  0  1  0  0  0  0  0  0  0  0  0
    1.7876    0.4685    0.2373 C   0  0  0  0  0  0  0  0  0  0  0  0
    2.9760   -0.4435   -0.0734 C   0  0  1  0  0  0  0  0  0  0  0  0
    4.2868    0.2820    0.2165 C   0  0  0  0  0  0  0  0  0  0  0  0
    2.9137   -1.7481    0.7154 C   0  0  0  0  0  0  0  0  0  0  0  0
   -0.7164    0.7698    0.3519 C   0  0  2  0  0  0  0  0  0  0  0  0
   -2.1222    0.3012   -0.0618 C   0  0  2  0  0  0  0  0  0  0  0  0
   -3.1921    1.1071    0.6720 C   0  0  0  0  0  0  0  0  0  0  0  0
   -2.2948   -1.1936    0.1914 C   0  0  0  0  0  0  0  0  0  0  0  0
   -3.6137   -1.5753   -0.1297 O   0  0  0  0  0  0  0  0  0  0  0  0
   -0.5614    2.1576    0.1165 O   0  0  0  0  0  0  0  0  0  0  0  0
   -0.4251   -0.4007   -2.1028 H   0  0  0  0  0  0  0  0  0  0  0  0
    0.3201   -1.0681    0.0597 H   0  0  0  0  0  0  0  0  0  0  0  0
    1.9769    1.4621   -0.1818 H   0  0  0  0  0  0  0  0  0  0  0  0
    1.7249    0.6074    1.3229 H   0  0  0  0  0  0  0  0  0  0  0  0
    2.9452   -0.6837   -1.1408 H   0  0  0  0  0  0  0  0  0  0  0  0
    4.3438    0.5819    1.2662 H   0  0  0  0  0  0  0  0  0  0  0  0
    5.1485   -0.3559    0.0102 H   0  0  0  0  0  0  0  0  0  0  0  0
    4.3887    1.1832   -0.3911 H   0  0  0  0  0  0  0  0  0  0  0  0
    2.9338   -1.5510    1.7908 H   0  0  0  0  0  0  0  0  0  0  0  0
    2.0112   -2.3228    0.5026 H   0  0  0  0  0  0  0  0  0  0  0  0
    3.7659   -2.3891    0.4835 H   0  0  0  0  0  0  0  0  0  0  0  0
   -0.6325    0.6522    1.4398 H   0  0  0  0  0  0  0  0  0  0  0  0
   -2.2373    0.4759   -1.1413 H   0  0  0  0  0  0  0  0  0  0  0  0
   -3.1237    0.9496    1.7519 H   0  0  0  0  0  0  0  0  0  0  0  0
   -3.0815    2.1740    0.4861 H   0  0  0  0  0  0  0  0  0  0  0  0
   -4.1943    0.8229    0.3570 H   0  0  0  0  0  0  0  0  0  0  0  0
   -1.5781   -1.7653   -0.4102 H   0  0  0  0  0  0  0  0  0  0  0  0
   -2.0604   -1.4037    1.2457 H   0  0  0  0  0  0  0  0  0  0  0  0
   -3.6888   -2.5240    0.0055 H   0  0  0  0  0  0  0  0  0  0  0  0
   -0.7304    2.3279   -0.8162 H   0  0  0  0  0  0  0  0  0  0  0  0
    0.5799    0.8765   -2.1056 H   0  0  0  0  0  0  0  0  0  0  0  0
  8  7  1  0
  8 10  1  0
  8  9  1  0
  7 12  1  0
  7  2  1  0
 10 11  1  0
  3  4  1  0
  3  2  1  0
  6  4  1  0
  4  5  1  0
  2  1  1  0
  1 13  1  0
  2 14  1  1
  3 15  1  0
  3 16  1  0
  4 17  1  6
  5 18  1  0
  5 19  1  0
  5 20  1  0
  6 21  1  0
  6 22  1  0
  6 23  1  0
  7 24  1  1
  8 25  1  6
  9 26  1  0
  9 27  1  0
  9 28  1  0
 10 29  1  0
 10 30  1  0
 11 31  1  0
 12 32  1  0
  1 33  1  0
M  END
