
     RDKit          3D

 36 37  0  0  0  0  0  0  0  0999 V2000
   -0.8606    0.1395    2.3031 C   0  0  0  0  0  0  0  0  0  0  0  0
   -1.6306    0.2429    3.4618 C   0  0  0  0  0  0  0  0  0  0  0  0
   -1.0331    0.1384    4.7031 C   0  0  0  0  0  0  0  0  0  0  0  0
    0.3408   -0.0608    4.8259 C   0  0  0  0  0  0  0  0  0  0  0  0
    1.0995   -0.1513    3.6595 C   0  0  0  0  0  0  0  0  0  0  0  0
    0.5159   -0.0603    2.4085 C   0  0  0  0  0  0  0  0  0  0  0  0
    0.9612   -0.1901    6.1714 C   0  0  0  0  0  0  0  0  0  0  0  0
    0.3931   -0.7198    7.1872 N   0  0  0  0  0  0  0  0  0  0  0  0
    2.2438    0.2666    6.2612 N   0  0  0  0  0  0  0  0  0  0  0  0
   -1.5030    0.2382    1.0811 N   0  0  0  0  0  0  0  0  0  0  0  0
   -0.8461    0.1355   -0.0451 N   0  0  0  0  0  0  0  0  0  0  0  0
   -1.5642    0.2202   -1.0588 N   0  0  0  0  0  0  0  0  0  0  0  0
   -0.8693    0.1084   -2.2707 C   0  0  0  0  0  0  0  0  0  0  0  0
   -1.6475    0.1859   -3.4246 C   0  0  0  0  0  0  0  0  0  0  0  0
   -1.0691    0.0869   -4.6773 C   0  0  0  0  0  0  0  0  0  0  0  0
    0.3065   -0.0805   -4.8118 C   0  0  0  0  0  0  0  0  0  0  0  0
    1.0832   -0.1634   -3.6544 C   0  0  0  0  0  0  0  0  0  0  0  0
    0.5096   -0.0739   -2.3994 C   0  0  0  0  0  0  0  0  0  0  0  0
    0.9083   -0.1752   -6.1688 C   0  0  0  0  0  0  0  0  0  0  0  0
    0.1845   -0.6003   -7.1323 N   0  0  0  0  0  0  0  0  0  0  0  0
    2.2293    0.1674   -6.2457 N   0  0  0  0  0  0  0  0  0  0  0  0
   -2.6988    0.4064    3.3905 H   0  0  0  0  0  0  0  0  0  0  0  0
   -1.6523    0.2328    5.5863 H   0  0  0  0  0  0  0  0  0  0  0  0
    2.1674   -0.3176    3.7175 H   0  0  0  0  0  0  0  0  0  0  0  0
    1.1295   -0.1492    1.5237 H   0  0  0  0  0  0  0  0  0  0  0  0
   -0.5066   -1.1102    6.9326 H   0  0  0  0  0  0  0  0  0  0  0  0
    2.6296    0.3105    7.1913 H   0  0  0  0  0  0  0  0  0  0  0  0
    2.5179    1.0336    5.6699 H   0  0  0  0  0  0  0  0  0  0  0  0
   -2.5110    0.3618    1.0442 H   0  0  0  0  0  0  0  0  0  0  0  0
   -2.7163    0.3263   -3.3276 H   0  0  0  0  0  0  0  0  0  0  0  0
   -1.6878    0.1505   -5.5619 H   0  0  0  0  0  0  0  0  0  0  0  0
    2.1520   -0.3193   -3.7228 H   0  0  0  0  0  0  0  0  0  0  0  0
    1.1379   -0.1493   -1.5228 H   0  0  0  0  0  0  0  0  0  0  0  0
    0.6980   -0.5854   -8.0095 H   0  0  0  0  0  0  0  0  0  0  0  0
    2.6216    0.2690   -7.1686 H   0  0  0  0  0  0  0  0  0  0  0  0
    2.5822    0.8447   -5.5892 H   0  0  0  0  0  0  0  0  0  0  0  0
  1  2  2  0
  1  6  1  0
  1 10  1  0
  2  3  1  0
  2 22  1  0
  3  4  2  0
  3 23  1  0
  4  5  1  0
  4  7  1  0
  5  6  2  0
  5 24  1  0
  6 25  1  0
  7  8  2  0
  7  9  1  0
  8 26  1  0
  9 27  1  0
  9 28  1  0
 10 11  1  0
 10 29  1  0
 11 12  2  0
 12 13  1  0
 13 14  2  0
 13 18  1  0
 14 15  1  0
 14 30  1  0
 15 16  2  0
 15 31  1  0
 16 17  1  0
 16 19  1  0
 17 18  2  0
 17 32  1  0
 18 33  1  0
 19 20  2  0
 19 21  1  0
 20 34  1  0
 21 35  1  0
 21 36  1  0
M  END
