
     RDKit          3D

 25 26  0  0  0  0  0  0  0  0999 V2000
    3.3631    1.7472   -0.0449 C   0  0  0  0  0  0  0  0  0  0  0  0
    1.8675   -3.1920   -0.0582 C   0  0  0  0  0  0  0  0  0  0  0  0
    1.1593   -1.8694   -0.0348 C   0  0  0  0  0  0  0  0  0  0  0  0
   -0.2124   -1.7832   -0.0086 C   0  0  0  0  0  0  0  0  0  0  0  0
   -2.8652    0.8756    0.0419 C   0  0  0  0  0  0  0  0  0  0  0  0
    1.9200   -0.6832   -0.0407 C   0  0  0  0  0  0  0  0  0  0  0  0
   -2.3329   -0.4628    0.0401 C   0  0  0  0  0  0  0  0  0  0  0  0
    1.3140    0.5514   -0.0249 C   0  0  0  0  0  0  0  0  0  0  0  0
   -2.0506    1.9619    0.0271 C   0  0  0  0  0  0  0  0  0  0  0  0
   -0.8606   -0.5376    0.0073 C   0  0  0  0  0  0  0  0  0  0  0  0
   -0.0984    0.6303   -0.0036 C   0  0  0  0  0  0  0  0  0  0  0  0
   -0.7118    1.8543    0.0069 N   0  0  0  0  0  0  0  0  0  0  0  0
    1.9478    1.7372   -0.0276 O   0  0  0  0  0  0  0  0  0  0  0  0
    3.6637    2.7913   -0.0440 H   0  0  0  0  0  0  0  0  0  0  0  0
    3.7804    1.2560    0.8374 H   0  0  0  0  0  0  0  0  0  0  0  0
    3.7585    1.2638   -0.9415 H   0  0  0  0  0  0  0  0  0  0  0  0
    2.4871   -3.2918   -0.9513 H   0  0  0  0  0  0  0  0  0  0  0  0
    2.5295   -3.3020    0.8025 H   0  0  0  0  0  0  0  0  0  0  0  0
    1.1619   -4.0213   -0.0461 H   0  0  0  0  0  0  0  0  0  0  0  0
   -0.8194   -2.6795   -0.0012 H   0  0  0  0  0  0  0  0  0  0  0  0
   -3.9365    1.0201    0.0600 H   0  0  0  0  0  0  0  0  0  0  0  0
    2.9998   -0.7613   -0.0586 H   0  0  0  0  0  0  0  0  0  0  0  0
   -2.4354    2.9718    0.0319 H   0  0  0  0  0  0  0  0  0  0  0  0
   -0.1486    2.6904   -0.0041 H   0  0  0  0  0  0  0  0  0  0  0  0
   -3.0340   -1.4720    0.0624 O   0  0  0  0  0  0  0  0  0  0  0  0
  1 13  1  0
  9 12  1  0
  9  5  2  0
 12 11  1  0
 13  8  1  0
  5  7  1  0
 11  8  2  0
 11 10  1  0
  8  6  1  0
  7 10  1  0
  7 25  2  0
 10  4  2  0
  6  3  2  0
  4  3  1  0
  3  2  1  0
  1 14  1  0
  1 15  1  0
  1 16  1  0
  2 17  1  0
  2 18  1  0
  2 19  1  0
  4 20  1  0
  5 21  1  0
  6 22  1  0
  9 23  1  0
 12 24  1  0
M  END
