
     RDKit          3D

 22 23  0  0  0  0  0  0  0  0999 V2000
    3.3017    0.7329   -0.3386 C   0  0  0  0  0  0  0  0  0  0  0  0
   -1.4530   -1.4844    0.3505 C   0  0  0  0  0  0  0  0  0  0  0  0
   -0.3354   -0.6807    0.1406 C   0  0  0  0  0  0  0  0  0  0  0  0
   -0.4665    0.6905   -0.1296 C   0  0  0  0  0  0  0  0  0  0  0  0
   -1.7473    1.2526   -0.1961 C   0  0  0  0  0  0  0  0  0  0  0  0
   -2.8683    0.4666   -0.0003 C   0  0  0  0  0  0  0  0  0  0  0  0
   -2.7027   -0.9029    0.2753 C   0  0  0  0  0  0  0  0  0  0  0  0
   -4.2496    1.0480   -0.0915 C   0  0  0  0  0  0  0  0  0  0  0  0
    0.8100    1.3240   -0.2929 C   0  0  0  0  0  0  0  0  0  0  0  0
    1.8463    0.4656   -0.1632 C   0  0  0  0  0  0  0  0  0  0  0  0
    4.0165   -0.0538    0.5837 O   0  0  0  0  0  0  0  0  0  0  0  0
    1.3321   -1.1591    0.1849 S   0  0  0  0  0  0  0  0  0  0  0  0
    3.5862    0.4904   -1.3699 H   0  0  0  0  0  0  0  0  0  0  0  0
    3.4790    1.8069   -0.2044 H   0  0  0  0  0  0  0  0  0  0  0  0
   -1.3494   -2.5406    0.5635 H   0  0  0  0  0  0  0  0  0  0  0  0
   -1.8561    2.3116   -0.4011 H   0  0  0  0  0  0  0  0  0  0  0  0
   -3.5801   -1.5188    0.4325 H   0  0  0  0  0  0  0  0  0  0  0  0
   -4.7678    0.6912   -0.9838 H   0  0  0  0  0  0  0  0  0  0  0  0
   -4.8597    0.7628    0.7663 H   0  0  0  0  0  0  0  0  0  0  0  0
   -4.2242    2.1360   -0.1381 H   0  0  0  0  0  0  0  0  0  0  0  0
    0.9356    2.3786   -0.4996 H   0  0  0  0  0  0  0  0  0  0  0  0
    4.9319   -0.0998    0.2928 H   0  0  0  0  0  0  0  0  0  0  0  0
  8  6  1  0
  5  6  2  0
  5  4  1  0
  6  7  1  0
  9  4  1  0
  9 10  2  0
  4  3  2  0
 10  1  1  0
 10 12  1  0
  1 11  1  0
  7  2  2  0
  3  2  1  0
  3 12  1  0
  1 13  1  0
  1 14  1  0
  2 15  1  0
  5 16  1  0
  7 17  1  0
  8 18  1  0
  8 19  1  0
  8 20  1  0
  9 21  1  0
 11 22  1  0
M  END
