
     RDKit          3D

 39 39  0  0  0  0  0  0  0  0999 V2000
    1.6242    0.1193   -0.0928 N   0  0  0  0  0  0  0  0  0  0  0  0
   -3.1142    0.7101   -0.1179 C   0  0  0  0  0  0  0  0  0  0  0  0
   -1.9890   -0.0885   -0.0051 C   0  0  0  0  0  0  0  0  0  0  0  0
   -0.7395    0.5066    0.1551 C   0  0  0  0  0  0  0  0  0  0  0  0
    0.4478   -0.3978    0.2882 C   0  0  0  0  0  0  0  0  0  0  0  0
    2.8665   -0.6221   -0.0243 C   0  0  0  0  0  0  0  0  0  0  0  0
    5.3698   -0.4549   -0.0037 C   0  0  0  0  0  0  0  0  0  0  0  0
    8.0504   -0.9797   -1.2772 C   0  0  0  0  0  0  0  0  0  0  0  0
   -0.6413    1.8931    0.2282 C   0  0  0  0  0  0  0  0  0  0  0  0
    7.8387   -0.1373   -0.0193 C   0  0  1  0  0  0  0  0  0  0  0  0
    8.0955   -0.9994    1.2240 C   0  0  0  0  0  0  0  0  0  0  0  0
    8.8293    1.0256   -0.0314 C   0  0  0  0  0  0  0  0  0  0  0  0
   -1.7803    2.6776    0.1264 C   0  0  0  0  0  0  0  0  0  0  0  0
   -3.0263    2.0940   -0.0532 C   0  0  0  0  0  0  0  0  0  0  0  0
    4.0601    0.3187   -0.0579 C   0  0  0  0  0  0  0  0  0  0  0  0
    6.4972    0.4566   -0.0413 N   0  0  0  0  0  0  0  0  0  0  0  0
    0.3258   -1.5348    0.7244 O   0  0  0  0  0  0  0  0  0  0  0  0
    1.6336    0.9871   -0.6055 H   0  0  0  0  0  0  0  0  0  0  0  0
   -2.0651   -1.1665   -0.0449 H   0  0  0  0  0  0  0  0  0  0  0  0
    2.8761   -1.2035    0.8986 H   0  0  0  0  0  0  0  0  0  0  0  0
    2.9312   -1.3366   -0.8518 H   0  0  0  0  0  0  0  0  0  0  0  0
    5.3582   -1.1067    0.8830 H   0  0  0  0  0  0  0  0  0  0  0  0
    5.4186   -1.1180   -0.8709 H   0  0  0  0  0  0  0  0  0  0  0  0
    7.4250   -1.8740   -1.2874 H   0  0  0  0  0  0  0  0  0  0  0  0
    7.8288   -0.4008   -2.1758 H   0  0  0  0  0  0  0  0  0  0  0  0
    9.0874   -1.3127   -1.3384 H   0  0  0  0  0  0  0  0  0  0  0  0
    0.3137    2.3756    0.3914 H   0  0  0  0  0  0  0  0  0  0  0  0
    9.1135   -1.3938    1.2234 H   0  0  0  0  0  0  0  0  0  0  0  0
    7.9707   -0.4142    2.1384 H   0  0  0  0  0  0  0  0  0  0  0  0
    7.4173   -1.8527    1.2758 H   0  0  0  0  0  0  0  0  0  0  0  0
    8.6963    1.6452   -0.9198 H   0  0  0  0  0  0  0  0  0  0  0  0
    8.6980    1.6643    0.8457 H   0  0  0  0  0  0  0  0  0  0  0  0
    9.8570    0.6600   -0.0225 H   0  0  0  0  0  0  0  0  0  0  0  0
   -1.7021    3.7543    0.1923 H   0  0  0  0  0  0  0  0  0  0  0  0
   -3.9060    2.7176   -0.1348 H   0  0  0  0  0  0  0  0  0  0  0  0
    4.0375    0.9247   -0.9687 H   0  0  0  0  0  0  0  0  0  0  0  0
    3.9987    1.0093    0.7889 H   0  0  0  0  0  0  0  0  0  0  0  0
    6.4205    1.0904    0.7473 H   0  0  0  0  0  0  0  0  0  0  0  0
   -4.9956   -0.1927   -0.3855 I   0  0  0  0  0  0  0  0  0  0  0  0
  8 10  1  0
 12 10  1  0
 10 11  1  0
 10 16  1  1
 16  7  1  0
  7 15  1  0
 15  6  1  0
 39  2  1  0
  6  1  1  0
  2  3  2  0
  2 14  1  0
  3  4  1  0
  1  5  1  0
 14 13  2  0
  4  5  1  0
  4  9  2  0
  5 17  2  0
 13  9  1  0
  1 18  1  0
  3 19  1  0
  6 20  1  0
  6 21  1  0
  7 22  1  0
  7 23  1  0
  8 24  1  0
  8 25  1  0
  8 26  1  0
  9 27  1  0
 11 28  1  0
 11 29  1  0
 11 30  1  0
 12 31  1  0
 12 32  1  0
 12 33  1  0
 13 34  1  0
 14 35  1  0
 15 36  1  0
 15 37  1  0
 16 38  1  0
M  END
