
     RDKit          3D

 64 67  0  0  0  0  0  0  0  0999 V2000
    4.3435    0.2676    3.5134 C   0  0  0  0  0  0  0  0  0  0  0  0
    4.7178    1.4715    2.6555 C   0  0  1  0  0  0  0  0  0  0  0  0
    6.1392    1.9347    2.9591 C   0  0  0  0  0  0  0  0  0  0  0  0
    4.6120    1.1773    1.1688 C   0  0  0  0  0  0  0  0  0  0  0  0
    3.2915    0.7607    0.8669 O   0  0  0  0  0  0  0  0  0  0  0  0
    2.9619    0.4950   -0.4094 C   0  0  0  0  0  0  0  0  0  0  0  0
    1.6401    0.1003   -0.6186 C   0  0  0  0  0  0  0  0  0  0  0  0
    3.8371    0.6138   -1.4870 C   0  0  0  0  0  0  0  0  0  0  0  0
    3.3665    0.3481   -2.7672 C   0  0  0  0  0  0  0  0  0  0  0  0
    2.0596   -0.0454   -2.9939 C   0  0  0  0  0  0  0  0  0  0  0  0
    1.2051   -0.1663   -1.9037 C   0  0  0  0  0  0  0  0  0  0  0  0
   -0.0859   -0.5189   -2.1787 O   0  0  0  0  0  0  0  0  0  0  0  0
   -0.8142   -1.2441   -1.2813 C   0  0  0  0  0  0  0  0  0  0  0  0
   -0.2873   -2.3823   -0.6724 C   0  0  0  0  0  0  0  0  0  0  0  0
   -1.1187   -3.0826    0.1743 C   0  0  0  0  0  0  0  0  0  0  0  0
   -0.9086   -4.2184    0.9162 N   0  0  0  0  0  0  0  0  0  0  0  0
    0.3361   -4.9388    1.0002 C   0  0  0  0  0  0  0  0  0  0  0  0
   -2.0606   -4.5536    1.5962 C   0  0  0  0  0  0  0  0  0  0  0  0
   -2.2147   -5.5020    2.3432 O   0  0  0  0  0  0  0  0  0  0  0  0
   -2.9963   -3.6045    1.2598 N   0  0  0  0  0  0  0  0  0  0  0  0
   -4.3530   -3.5750    1.7420 C   0  0  0  0  0  0  0  0  0  0  0  0
   -2.4453   -2.6940    0.3865 C   0  0  0  0  0  0  0  0  0  0  0  0
   -2.9799   -1.5976   -0.2481 C   0  0  0  0  0  0  0  0  0  0  0  0
   -2.1402   -0.8531   -1.0812 C   0  0  0  0  0  0  0  0  0  0  0  0
   -2.6653    0.2728   -1.7578 N   0  0  0  0  0  0  0  0  0  0  0  0
   -2.9111    1.6862   -0.9154 S   0  0  1  0  0  0  0  0  0  0  0  0
   -3.4107    2.6241   -1.9045 O   0  0  0  0  0  0  0  0  0  0  0  0
   -3.7010    1.3568    0.2576 O   0  0  0  0  0  0  0  0  0  0  0  0
   -1.3695    2.2461   -0.3381 C   0  0  0  0  0  0  0  0  0  0  0  0
   -0.9436    2.2533    0.9584 C   0  0  0  0  0  0  0  0  0  0  0  0
   -0.4461    2.7937   -1.1688 N   0  0  0  0  0  0  0  0  0  0  0  0
    0.5479    3.1404   -0.3913 C   0  0  0  0  0  0  0  0  0  0  0  0
    1.7910    3.8136   -0.8420 C   0  0  0  0  0  0  0  0  0  0  0  0
    0.2818    2.8352    0.9101 N   0  0  0  0  0  0  0  0  0  0  0  0
    1.1268    3.0789    2.0615 C   0  0  0  0  0  0  0  0  0  0  0  0
    4.5011    0.4886    4.5703 H   0  0  0  0  0  0  0  0  0  0  0  0
    3.2993   -0.0197    3.3914 H   0  0  0  0  0  0  0  0  0  0  0  0
    4.9638   -0.5965    3.2618 H   0  0  0  0  0  0  0  0  0  0  0  0
    4.0356    2.2966    2.8888 H   0  0  0  0  0  0  0  0  0  0  0  0
    6.8612    1.1375    2.7679 H   0  0  0  0  0  0  0  0  0  0  0  0
    6.4248    2.7958    2.3523 H   0  0  0  0  0  0  0  0  0  0  0  0
    6.2347    2.2213    4.0065 H   0  0  0  0  0  0  0  0  0  0  0  0
    4.8678    2.0767    0.5955 H   0  0  0  0  0  0  0  0  0  0  0  0
    5.3295    0.3933    0.8928 H   0  0  0  0  0  0  0  0  0  0  0  0
    0.9703    0.0234    0.2293 H   0  0  0  0  0  0  0  0  0  0  0  0
    4.8674    0.9120   -1.3528 H   0  0  0  0  0  0  0  0  0  0  0  0
    4.0443    0.4432   -3.6053 H   0  0  0  0  0  0  0  0  0  0  0  0
    1.7036   -0.2557   -3.9935 H   0  0  0  0  0  0  0  0  0  0  0  0
    0.7315   -2.6964   -0.8583 H   0  0  0  0  0  0  0  0  0  0  0  0
    0.1809   -5.8556    1.5612 H   0  0  0  0  0  0  0  0  0  0  0  0
    0.6925   -5.1973    0.0038 H   0  0  0  0  0  0  0  0  0  0  0  0
    1.0973   -4.3440    1.5049 H   0  0  0  0  0  0  0  0  0  0  0  0
   -4.4873   -4.3618    2.4783 H   0  0  0  0  0  0  0  0  0  0  0  0
   -4.5675   -2.6168    2.2145 H   0  0  0  0  0  0  0  0  0  0  0  0
   -5.0596   -3.7326    0.9272 H   0  0  0  0  0  0  0  0  0  0  0  0
   -4.0150   -1.3130   -0.1240 H   0  0  0  0  0  0  0  0  0  0  0  0
   -2.2691    0.4542   -2.6739 H   0  0  0  0  0  0  0  0  0  0  0  0
   -1.3944    1.9157    1.8762 H   0  0  0  0  0  0  0  0  0  0  0  0
    1.8182    4.8571   -0.5235 H   0  0  0  0  0  0  0  0  0  0  0  0
    2.6859    3.3278   -0.4562 H   0  0  0  0  0  0  0  0  0  0  0  0
    1.8367    3.7883   -1.9275 H   0  0  0  0  0  0  0  0  0  0  0  0
    1.4726    2.1393    2.4853 H   0  0  0  0  0  0  0  0  0  0  0  0
    1.9900    3.6654    1.7631 H   0  0  0  0  0  0  0  0  0  0  0  0
    0.5752    3.6356    2.8148 H   0  0  0  0  0  0  0  0  0  0  0  0
 17 16  1  0
 19 18  2  0
 16 18  1  0
 16 15  1  0
 18 20  1  0
  1  2  1  0
  3  2  1  0
 20 21  1  0
 20 22  1  0
 15 14  2  0
 15 22  1  0
  2  4  1  0
 14 13  1  0
 22 23  2  0
  4  5  1  0
  5  6  1  0
  6  7  2  0
  6  8  1  0
  7 11  1  0
 13 12  1  0
 13 24  2  0
 23 24  1  0
  8  9  2  0
 11 12  1  0
 11 10  2  0
  9 10  1  0
 24 25  1  0
 35 34  1  0
 34 30  1  0
 34 32  1  0
 30 29  2  0
 26 25  1  6
 32 33  1  0
 32 31  2  0
 29 31  1  0
 29 26  1  0
 28 26  2  0
 26 27  2  0
  1 36  1  0
  1 37  1  0
  1 38  1  0
  2 39  1  1
  3 40  1  0
  3 41  1  0
  3 42  1  0
  4 43  1  0
  4 44  1  0
  7 45  1  0
  8 46  1  0
  9 47  1  0
 10 48  1  0
 14 49  1  0
 17 50  1  0
 17 51  1  0
 17 52  1  0
 21 53  1  0
 21 54  1  0
 21 55  1  0
 23 56  1  0
 25 57  1  0
 30 58  1  0
 33 59  1  0
 33 60  1  0
 33 61  1  0
 35 62  1  0
 35 63  1  0
 35 64  1  0
M  END
