
     RDKit          3D

 50 52  0  0  0  0  0  0  0  0999 V2000
    2.4840    0.7432    0.1106 N   0  0  0  0  0  0  0  0  0  0  0  0
   -4.7766    0.3783    0.1718 N   0  0  0  0  0  0  0  0  0  0  0  0
    3.6489    0.2043   -0.2932 C   0  0  0  0  0  0  0  0  0  0  0  0
    1.2427    0.4839   -0.5884 C   0  0  0  0  0  0  0  0  0  0  0  0
    0.1078    1.2716    0.0458 C   0  0  0  0  0  0  0  0  0  0  0  0
   -1.2100    1.0034   -0.6696 C   0  0  0  0  0  0  0  0  0  0  0  0
   -2.7968    1.4513    1.1399 C   0  0  0  0  0  0  0  0  0  0  0  0
   -4.3045    0.7609   -1.1547 C   0  0  0  0  0  0  0  0  0  0  0  0
   -6.9548   -0.3768   -0.5963 C   0  0  0  0  0  0  0  0  0  0  0  0
   -8.0383   -2.2926    0.3970 C   0  0  0  0  0  0  0  0  0  0  0  0
   -5.8506   -1.5929    1.1487 C   0  0  0  0  0  0  0  0  0  0  0  0
    4.7298    0.5563    0.4902 N   0  0  0  0  0  0  0  0  0  0  0  0
    3.7491   -0.5303   -1.2636 O   0  0  0  0  0  0  0  0  0  0  0  0
    7.9105   -0.6584   -0.4384 C   0  0  0  0  0  0  0  0  0  0  0  0
   -3.4042    1.9864   -1.0720 C   0  0  0  0  0  0  0  0  0  0  0  0
   -5.8344   -0.5271    0.2383 C   0  0  0  0  0  0  0  0  0  0  0  0
   -8.0300   -1.2444   -0.5167 C   0  0  0  0  0  0  0  0  0  0  0  0
   -6.9402   -2.4517    1.2267 C   0  0  0  0  0  0  0  0  0  0  0  0
    6.5978   -0.6095   -0.7678 C   0  0  0  0  0  0  0  0  0  0  0  0
    6.0266    0.1601    0.2826 C   0  0  0  0  0  0  0  0  0  0  0  0
   -3.6927    0.2165    1.1236 C   0  0  0  0  0  0  0  0  0  0  0  0
   -2.2861    1.8384   -0.1613 N   0  0  0  0  0  0  0  0  0  0  0  0
    6.9316    0.5281    1.1508 N   0  0  0  0  0  0  0  0  0  0  0  0
    8.1148    0.0131    0.6951 O   0  0  0  0  0  0  0  0  0  0  0  0
    2.4600    1.3602    0.9062 H   0  0  0  0  0  0  0  0  0  0  0  0
    1.3402    0.7642   -1.6409 H   0  0  0  0  0  0  0  0  0  0  0  0
    1.0131   -0.5855   -0.5640 H   0  0  0  0  0  0  0  0  0  0  0  0
    0.0306    1.0048    1.1039 H   0  0  0  0  0  0  0  0  0  0  0  0
    0.3239    2.3421   -0.0008 H   0  0  0  0  0  0  0  0  0  0  0  0
   -1.0823    1.2435   -1.7288 H   0  0  0  0  0  0  0  0  0  0  0  0
   -1.4277   -0.0749   -0.6286 H   0  0  0  0  0  0  0  0  0  0  0  0
   -3.3734    2.2904    1.5420 H   0  0  0  0  0  0  0  0  0  0  0  0
   -1.9738    1.2797    1.8351 H   0  0  0  0  0  0  0  0  0  0  0  0
   -3.7691   -0.0744   -1.6300 H   0  0  0  0  0  0  0  0  0  0  0  0
   -5.1443    1.0070   -1.8012 H   0  0  0  0  0  0  0  0  0  0  0  0
   -7.0044    0.4401   -1.3034 H   0  0  0  0  0  0  0  0  0  0  0  0
   -8.8835   -2.9647    0.4602 H   0  0  0  0  0  0  0  0  0  0  0  0
   -5.0117   -1.7763    1.8050 H   0  0  0  0  0  0  0  0  0  0  0  0
    4.5778    1.1329    1.3050 H   0  0  0  0  0  0  0  0  0  0  0  0
    9.8720   -0.5792   -1.2742 H   0  0  0  0  0  0  0  0  0  0  0  0
    9.4885   -2.0910   -0.4544 H   0  0  0  0  0  0  0  0  0  0  0  0
    8.7794   -1.7422   -2.0319 H   0  0  0  0  0  0  0  0  0  0  0  0
   -3.0334    2.2265   -2.0705 H   0  0  0  0  0  0  0  0  0  0  0  0
   -4.0059    2.8396   -0.7410 H   0  0  0  0  0  0  0  0  0  0  0  0
   -8.8776   -1.0894   -1.1726 H   0  0  0  0  0  0  0  0  0  0  0  0
   -6.9148   -3.2628    1.9436 H   0  0  0  0  0  0  0  0  0  0  0  0
    6.1208   -1.0499   -1.6222 H   0  0  0  0  0  0  0  0  0  0  0  0
   -4.1062    0.0994    2.1267 H   0  0  0  0  0  0  0  0  0  0  0  0
   -3.1001   -0.6877    0.9168 H   0  0  0  0  0  0  0  0  0  0  0  0
    9.0771   -1.3010   -1.0841 C   0  0  0  0  0  0  0  0  0  0  0  0
 50 14  1  0
 24 14  1  0
 24 23  1  0
 14 19  2  0
 23 20  2  0
 19 20  1  0
 20 12  1  0
 12  3  1  0
 13  3  2  0
  3  1  1  0
  1  4  1  0
  5  4  1  0
  5  6  1  0
 15  8  1  0
 15 22  1  0
  6 22  1  0
  8  2  1  0
  9 17  2  0
  9 16  1  0
 22  7  1  0
 17 10  1  0
  2 21  1  0
  2 16  1  0
 21  7  1  0
 16 11  2  0
 10 18  2  0
 11 18  1  0
  1 25  1  0
  4 26  1  0
  4 27  1  0
  5 28  1  0
  5 29  1  0
  6 30  1  0
  6 31  1  0
  7 32  1  0
  7 33  1  0
  8 34  1  0
  8 35  1  0
  9 36  1  0
 10 37  1  0
 11 38  1  0
 12 39  1  0
 50 40  1  0
 50 41  1  0
 50 42  1  0
 15 43  1  0
 15 44  1  0
 17 45  1  0
 18 46  1  0
 19 47  1  0
 21 48  1  0
 21 49  1  0
M  END
