
     RDKit          3D

 23 24  0  0  0  0  0  0  0  0999 V2000
   -1.1653    0.7200    0.2550 C   0  0  0  0  0  0  0  0  0  0  0  0
   -2.4123    0.6780   -0.3749 C   0  0  0  0  0  0  0  0  0  0  0  0
   -2.9919    1.8226   -0.8767 N   0  0  0  0  0  0  0  0  0  0  0  0
   -3.0372   -0.5682   -0.5274 C   0  0  0  0  0  0  0  0  0  0  0  0
   -2.4237   -1.7199   -0.0691 C   0  0  0  0  0  0  0  0  0  0  0  0
   -1.1779   -1.6704    0.5468 C   0  0  0  0  0  0  0  0  0  0  0  0
   -0.5522   -0.4414    0.7089 C   0  0  0  0  0  0  0  0  0  0  0  0
    0.7948   -0.3596    1.3767 C   0  0  0  0  0  0  0  0  0  0  0  0
    1.8349    0.0422    0.4518 N   0  0  0  0  0  0  0  0  0  0  0  0
    2.1930   -0.7364   -0.5714 N   0  0  0  0  0  0  0  0  0  0  0  0
    3.1155   -0.0235   -1.1729 C   0  0  0  0  0  0  0  0  0  0  0  0
    3.3671    1.1695   -0.5951 N   0  0  0  0  0  0  0  0  0  0  0  0
    2.5386    1.1758    0.4259 C   0  0  0  0  0  0  0  0  0  0  0  0
   -0.6745    1.6786    0.3914 H   0  0  0  0  0  0  0  0  0  0  0  0
   -2.6715    2.6886   -0.4740 H   0  0  0  0  0  0  0  0  0  0  0  0
   -3.9949    1.8023   -0.9681 H   0  0  0  0  0  0  0  0  0  0  0  0
   -4.0059   -0.6255   -1.0098 H   0  0  0  0  0  0  0  0  0  0  0  0
   -2.9231   -2.6718   -0.1975 H   0  0  0  0  0  0  0  0  0  0  0  0
   -0.7027   -2.5779    0.8967 H   0  0  0  0  0  0  0  0  0  0  0  0
    0.7886    0.3739    2.1834 H   0  0  0  0  0  0  0  0  0  0  0  0
    1.0723   -1.3209    1.8084 H   0  0  0  0  0  0  0  0  0  0  0  0
    3.6264   -0.3774   -2.0556 H   0  0  0  0  0  0  0  0  0  0  0  0
    2.4185    1.9590    1.1585 H   0  0  0  0  0  0  0  0  0  0  0  0
 12 13  2  0
 12 11  1  0
 13  9  1  0
 11 10  2  0
  9  8  1  0
  9 10  1  0
  8  7  1  0
  7  6  1  0
  7  1  2  0
  6  5  2  0
  1  2  1  0
  5  4  1  0
  2  4  2  0
  2  3  1  0
  1 14  1  0
  3 15  1  0
  3 16  1  0
  4 17  1  0
  5 18  1  0
  6 19  1  0
  8 20  1  0
  8 21  1  0
 11 22  1  0
 13 23  1  0
M  END
