
     RDKit          3D

 30 31  0  0  0  0  0  0  0  0999 V2000
   -0.3727   -0.9322    0.0037 C   0  0  0  0  0  0  0  0  0  0  0  0
   -0.5266   -1.8146    1.0414 C   0  0  0  0  0  0  0  0  0  0  0  0
   -1.6228   -1.7160    1.9181 C   0  0  0  0  0  0  0  0  0  0  0  0
   -2.5397   -0.7196    1.7481 C   0  0  0  0  0  0  0  0  0  0  0  0
   -2.3980    0.2055    0.6917 C   0  0  0  0  0  0  0  0  0  0  0  0
   -3.3368    1.2481    0.5137 C   0  0  0  0  0  0  0  0  0  0  0  0
   -3.2679    2.1398   -0.4347 N   0  0  0  0  0  0  0  0  0  0  0  0
   -2.2373    2.0454   -1.3002 C   0  0  0  0  0  0  0  0  0  0  0  0
   -1.2666    1.0835   -1.2412 C   0  0  0  0  0  0  0  0  0  0  0  0
   -1.3126    0.1136   -0.2141 C   0  0  0  0  0  0  0  0  0  0  0  0
    1.0715   -1.1065   -1.0212 S   0  0  1  0  0  0  0  0  0  0  0  0
    1.8014   -2.2652   -0.5375 O   0  0  0  0  0  0  0  0  0  0  0  0
    0.6744   -1.0463   -2.4182 O   0  0  0  0  0  0  0  0  0  0  0  0
    2.0058    0.2120   -0.7375 N   0  0  0  0  0  0  0  0  0  0  0  0
    2.4314    0.5003    0.6298 C   0  0  0  0  0  0  0  0  0  0  0  0
    3.5655    1.5133    0.6059 C   0  0  0  0  0  0  0  0  0  0  0  0
    3.9592    1.8250    1.9680 N   0  0  0  0  0  0  0  0  0  0  0  0
    0.1989   -2.6000    1.1996 H   0  0  0  0  0  0  0  0  0  0  0  0
   -1.7216   -2.4293    2.7239 H   0  0  0  0  0  0  0  0  0  0  0  0
   -3.3828   -0.6241    2.4207 H   0  0  0  0  0  0  0  0  0  0  0  0
   -4.1694    1.3203    1.2077 H   0  0  0  0  0  0  0  0  0  0  0  0
   -2.2046    2.7912   -2.0847 H   0  0  0  0  0  0  0  0  0  0  0  0
   -0.5046    1.0824   -2.0047 H   0  0  0  0  0  0  0  0  0  0  0  0
    1.7041    1.0278   -1.2601 H   0  0  0  0  0  0  0  0  0  0  0  0
    2.7825   -0.4204    1.0940 H   0  0  0  0  0  0  0  0  0  0  0  0
    1.6005    0.8838    1.2333 H   0  0  0  0  0  0  0  0  0  0  0  0
    3.2532    2.3899    0.0207 H   0  0  0  0  0  0  0  0  0  0  0  0
    4.4175    1.0749    0.0836 H   0  0  0  0  0  0  0  0  0  0  0  0
    4.8000    2.3868    1.9554 H   0  0  0  0  0  0  0  0  0  0  0  0
    3.2506    2.4013    2.4048 H   0  0  0  0  0  0  0  0  0  0  0  0
  1  2  2  0
  1 10  1  0
  1 11  1  0
  2  3  1  0
  2 18  1  0
  3  4  2  0
  3 19  1  0
  4  5  1  0
  4 20  1  0
  5  6  1  0
  5 10  2  0
  6  7  2  0
  6 21  1  0
  7  8  1  0
  8  9  2  0
  8 22  1  0
  9 10  1  0
  9 23  1  0
 11 12  2  0
 11 13  2  0
 11 14  1  1
 14 15  1  0
 14 24  1  0
 15 16  1  0
 15 25  1  0
 15 26  1  0
 16 17  1  0
 16 27  1  0
 16 28  1  0
 17 29  1  0
 17 30  1  0
M  END
