
     RDKit          3D

 33 33  0  0  0  0  0  0  0  0999 V2000
   -5.7856   -1.0424    0.0054 O   0  0  0  0  0  0  0  0  0  0  0  0
   -5.5179    0.1328   -0.0364 C   0  0  0  0  0  0  0  0  0  0  0  0
   -6.4481    1.0833   -0.0860 O   0  0  0  0  0  0  0  0  0  0  0  0
   -4.1298    0.7089   -0.0399 C   0  0  0  0  0  0  0  0  0  0  0  0
   -3.0258   -0.3340    0.0165 C   0  0  0  0  0  0  0  0  0  0  0  0
   -1.6441    0.3085    0.0030 C   0  0  0  0  0  0  0  0  0  0  0  0
   -0.5153   -0.7111    0.0782 C   0  0  0  0  0  0  0  0  0  0  0  0
    0.8665   -0.0726    0.0221 C   0  0  0  0  0  0  0  0  0  0  0  0
    1.9945   -1.0982    0.1473 C   0  0  0  0  0  0  0  0  0  0  0  0
    3.3576   -0.4719    0.0474 C   0  0  0  0  0  0  0  0  0  0  0  0
    3.8687    0.2870    1.1004 C   0  0  0  0  0  0  0  0  0  0  0  0
    5.1111    0.8974    1.0033 C   0  0  0  0  0  0  0  0  0  0  0  0
    5.8691    0.7571   -0.1534 C   0  0  0  0  0  0  0  0  0  0  0  0
    5.3732    0.0026   -1.2076 C   0  0  0  0  0  0  0  0  0  0  0  0
    4.1271   -0.6044   -1.1056 C   0  0  0  0  0  0  0  0  0  0  0  0
   -7.3304    0.6831   -0.0835 H   0  0  0  0  0  0  0  0  0  0  0  0
   -4.0242    1.3314   -0.9346 H   0  0  0  0  0  0  0  0  0  0  0  0
   -4.0466    1.4008    0.8043 H   0  0  0  0  0  0  0  0  0  0  0  0
   -3.1350   -0.9438    0.9176 H   0  0  0  0  0  0  0  0  0  0  0  0
   -3.1167   -1.0177   -0.8319 H   0  0  0  0  0  0  0  0  0  0  0  0
   -1.5321    0.9107   -0.9054 H   0  0  0  0  0  0  0  0  0  0  0  0
   -1.5562    1.0077    0.8417 H   0  0  0  0  0  0  0  0  0  0  0  0
   -0.6111   -1.2927    1.0018 H   0  0  0  0  0  0  0  0  0  0  0  0
   -0.6170   -1.4282   -0.7435 H   0  0  0  0  0  0  0  0  0  0  0  0
    0.9774    0.4767   -0.9186 H   0  0  0  0  0  0  0  0  0  0  0  0
    0.9620    0.6688    0.8222 H   0  0  0  0  0  0  0  0  0  0  0  0
    1.8962   -1.6189    1.1047 H   0  0  0  0  0  0  0  0  0  0  0  0
    1.8813   -1.8564   -0.6319 H   0  0  0  0  0  0  0  0  0  0  0  0
    3.2862    0.3988    2.0085 H   0  0  0  0  0  0  0  0  0  0  0  0
    5.4903    1.4820    1.8320 H   0  0  0  0  0  0  0  0  0  0  0  0
    6.8391    1.2311   -0.2309 H   0  0  0  0  0  0  0  0  0  0  0  0
    5.9575   -0.1155   -2.1116 H   0  0  0  0  0  0  0  0  0  0  0  0
    3.7480   -1.1930   -1.9334 H   0  0  0  0  0  0  0  0  0  0  0  0
  1  2  2  0
 14 15  1  0
 14 13  2  0
 15 10  2  0
  5  4  1  0
  5  6  1  0
  2  4  1  0
  2  3  1  0
 13 12  1  0
  6  7  1  0
 10  9  1  0
 10 11  1  0
  7  8  1  0
 12 11  2  0
  9  8  1  0
  3 16  1  0
  4 17  1  0
  4 18  1  0
  5 19  1  0
  5 20  1  0
  6 21  1  0
  6 22  1  0
  7 23  1  0
  7 24  1  0
  8 25  1  0
  8 26  1  0
  9 27  1  0
  9 28  1  0
 11 29  1  0
 12 30  1  0
 13 31  1  0
 14 32  1  0
 15 33  1  0
M  END
