
     RDKit          3D

 24 25  0  0  0  0  0  0  0  0999 V2000
    0.6739    0.0186    1.7359 C   0  0  0  0  0  0  0  0  0  0  0  0
    1.4429    0.0289    3.0176 C   0  0  0  0  0  0  0  0  0  0  0  0
    1.4460    0.0017    0.4680 C   0  0  0  0  0  0  0  0  0  0  0  0
    2.6604   -0.0117    0.4798 O   0  0  0  0  0  0  0  0  0  0  0  0
    0.7044    0.0014   -0.8144 C   0  0  0  0  0  0  0  0  0  0  0  0
   -0.6898    0.0053   -0.8186 C   0  0  0  0  0  0  0  0  0  0  0  0
   -1.4389    0.0124    0.4592 C   0  0  0  0  0  0  0  0  0  0  0  0
   -2.6536    0.0131    0.4637 O   0  0  0  0  0  0  0  0  0  0  0  0
   -0.6745    0.0183    1.7318 C   0  0  0  0  0  0  0  0  0  0  0  0
    1.4013   -0.0029   -2.0176 C   0  0  0  0  0  0  0  0  0  0  0  0
    0.7094   -0.0041   -3.2187 C   0  0  0  0  0  0  0  0  0  0  0  0
   -0.6799   -0.0018   -3.2230 C   0  0  0  0  0  0  0  0  0  0  0  0
   -1.3792    0.0030   -2.0261 C   0  0  0  0  0  0  0  0  0  0  0  0
   -1.4511    0.0285    3.0090 C   0  0  0  0  0  0  0  0  0  0  0  0
    2.5146    0.0867    2.8524 H   0  0  0  0  0  0  0  0  0  0  0  0
    1.1501    0.8760    3.6399 H   0  0  0  0  0  0  0  0  0  0  0  0
    1.2399   -0.8731    3.5988 H   0  0  0  0  0  0  0  0  0  0  0  0
    2.4825   -0.0056   -2.0178 H   0  0  0  0  0  0  0  0  0  0  0  0
    1.2547   -0.0069   -4.1530 H   0  0  0  0  0  0  0  0  0  0  0  0
   -1.2200   -0.0037   -4.1603 H   0  0  0  0  0  0  0  0  0  0  0  0
   -2.4605    0.0051   -2.0328 H   0  0  0  0  0  0  0  0  0  0  0  0
   -2.5224   -0.0147    2.8374 H   0  0  0  0  0  0  0  0  0  0  0  0
   -1.1747   -0.8181    3.6396 H   0  0  0  0  0  0  0  0  0  0  0  0
   -1.2395    0.9326    3.5837 H   0  0  0  0  0  0  0  0  0  0  0  0
  1  2  1  0
  1  3  1  0
  1  9  2  0
  2 15  1  0
  2 16  1  0
  2 17  1  0
  3  4  2  0
  3  5  1  0
  5  6  2  0
  5 10  1  0
  6  7  1  0
  6 13  1  0
  7  8  2  0
  7  9  1  0
  9 14  1  0
 10 11  2  0
 10 18  1  0
 11 12  1  0
 11 19  1  0
 12 13  2  0
 12 20  1  0
 13 21  1  0
 14 22  1  0
 14 23  1  0
 14 24  1  0
M  END
