
     RDKit          3D

 18 18  0  0  0  0  0  0  0  0999 V2000
    3.0568   -0.5963   -0.0261 C   0  0  0  0  0  0  0  0  0  0  0  0
    1.9235    0.3891    0.0494 C   0  0  0  0  0  0  0  0  0  0  0  0
    0.5266   -0.1360    0.0579 C   0  0  0  0  0  0  0  0  0  0  0  0
    0.2551   -1.5006    0.0030 C   0  0  0  0  0  0  0  0  0  0  0  0
   -1.0624   -1.9392    0.0152 C   0  0  0  0  0  0  0  0  0  0  0  0
   -2.1093   -1.0368    0.0804 C   0  0  0  0  0  0  0  0  0  0  0  0
   -1.8413    0.3317    0.1356 C   0  0  0  0  0  0  0  0  0  0  0  0
   -0.5266    0.7765    0.1248 C   0  0  0  0  0  0  0  0  0  0  0  0
   -2.8919    1.1720    0.1992 O   0  0  0  0  0  0  0  0  0  0  0  0
    2.1309    1.5836    0.1032 O   0  0  0  0  0  0  0  0  0  0  0  0
    4.0100   -0.0729   -0.0217 H   0  0  0  0  0  0  0  0  0  0  0  0
    3.0316   -1.2853    0.8193 H   0  0  0  0  0  0  0  0  0  0  0  0
    2.9919   -1.1982   -0.9337 H   0  0  0  0  0  0  0  0  0  0  0  0
    1.0519   -2.2288   -0.0480 H   0  0  0  0  0  0  0  0  0  0  0  0
   -1.2754   -2.9991   -0.0267 H   0  0  0  0  0  0  0  0  0  0  0  0
   -3.1353   -1.3836    0.0888 H   0  0  0  0  0  0  0  0  0  0  0  0
   -0.3170    1.8393    0.1683 H   0  0  0  0  0  0  0  0  0  0  0  0
   -2.5910    2.0871    0.2303 H   0  0  0  0  0  0  0  0  0  0  0  0
  5  4  1  0
  5  6  2  0
  4  3  2  0
  1  2  1  0
  6  7  1  0
  3  2  1  0
  3  8  1  0
  2 10  2  0
  7  8  2  0
  7  9  1  0
  1 11  1  0
  1 12  1  0
  1 13  1  0
  4 14  1  0
  5 15  1  0
  6 16  1  0
  8 17  1  0
  9 18  1  0
M  END
