
     RDKit          3D

 93 96  0  0  0  0  0  0  0  0999 V2000
    3.1801    1.2462   -6.2331 C   0  0  0  0  0  0  0  0  0  0  0  0
    4.5198    0.9539   -6.0351 C   0  0  0  0  0  0  0  0  0  0  0  0
    4.8722   -0.2337   -5.4024 C   0  0  0  0  0  0  0  0  0  0  0  0
    6.1558   -0.5879   -5.1717 O   0  0  0  0  0  0  0  0  0  0  0  0
    3.8701   -1.0960   -4.9785 C   0  0  0  0  0  0  0  0  0  0  0  0
    2.5248   -0.7994   -5.1806 C   0  0  0  0  0  0  0  0  0  0  0  0
    1.4976   -1.7965   -4.7038 C   0  0  0  0  0  0  0  0  0  0  0  0
    0.1082   -1.1913   -4.5331 C   0  0  2  0  0  0  0  0  0  0  0  0
   -0.2226   -0.4423   -5.8278 C   0  0  2  0  0  0  0  0  0  0  0  0
    0.7016    0.7691   -6.0119 C   0  0  1  0  0  0  0  0  0  0  0  0
    2.1581    0.3895   -5.8259 C   0  0  0  0  0  0  0  0  0  0  0  0
    0.4140    1.4910   -7.3370 C   0  0  0  0  0  0  0  0  0  0  0  0
   -1.0610    1.8767   -7.4867 C   0  0  0  0  0  0  0  0  0  0  0  0
   -1.9771    0.6724   -7.2925 C   0  0  1  0  0  0  0  0  0  0  0  0
   -1.6600    0.0291   -5.9352 C   0  0  1  0  0  0  0  0  0  0  0  0
   -2.7997   -0.9677   -5.7195 C   0  0  0  0  0  0  0  0  0  0  0  0
   -4.0114   -0.2921   -6.4034 C   0  0  0  0  0  0  0  0  0  0  0  0
   -3.4570    0.9898   -7.0656 C   0  0  2  0  0  0  0  0  0  0  0  0
   -1.8256   -0.2999   -8.4672 C   0  0  0  0  0  0  0  0  0  0  0  0
   -4.1082    1.3704   -8.2527 O   0  0  0  0  0  0  0  0  0  0  0  0
    0.0037   -0.3325   -3.2699 C   0  0  0  0  0  0  0  0  0  0  0  0
   -0.0797   -1.1484   -1.9843 C   0  0  0  0  0  0  0  0  0  0  0  0
   -0.1589   -0.2733   -0.7395 C   0  0  0  0  0  0  0  0  0  0  0  0
   -0.2558   -1.0673    0.5568 C   0  0  0  0  0  0  0  0  0  0  0  0
   -0.3466   -0.1835    1.7947 C   0  0  0  0  0  0  0  0  0  0  0  0
   -0.4011   -0.9722    3.0970 C   0  0  0  0  0  0  0  0  0  0  0  0
   -0.5331   -0.0878    4.3306 C   0  0  0  0  0  0  0  0  0  0  0  0
   -0.5032   -0.8702    5.6376 C   0  0  0  0  0  0  0  0  0  0  0  0
   -0.7013    0.0140    6.8625 C   0  0  0  0  0  0  0  0  0  0  0  0
   -0.5895   -0.7770    8.1568 C   0  0  0  0  0  0  0  0  0  0  0  0
   -0.8413    0.0607    9.3979 C   0  0  0  0  0  0  0  0  0  0  0  0
   -1.0415    1.2674    9.3148 O   0  0  0  0  0  0  0  0  0  0  0  0
   -0.8531   -0.5718   10.5915 N   0  0  0  0  0  0  0  0  0  0  0  0
   -0.5419   -1.9698   10.7956 C   0  0  0  0  0  0  0  0  0  0  0  0
   -1.1019    0.1890   11.8043 C   0  0  0  0  0  0  0  0  0  0  0  0
    0.1649    0.7633   12.4273 C   0  0  0  0  0  0  0  0  0  0  0  0
   -0.1150    1.4614   13.7526 C   0  0  0  0  0  0  0  0  0  0  0  0
    1.1398    2.0533   14.3786 C   0  0  0  0  0  0  0  0  0  0  0  0
    2.9330    2.1819   -6.7179 H   0  0  0  0  0  0  0  0  0  0  0  0
    5.2812    1.6509   -6.3678 H   0  0  0  0  0  0  0  0  0  0  0  0
    6.7514    0.0983   -5.4912 H   0  0  0  0  0  0  0  0  0  0  0  0
    4.1441   -2.0182   -4.4769 H   0  0  0  0  0  0  0  0  0  0  0  0
    1.8454   -2.2555   -3.7747 H   0  0  0  0  0  0  0  0  0  0  0  0
    1.4404   -2.6126   -5.4327 H   0  0  0  0  0  0  0  0  0  0  0  0
   -0.6087   -2.0150   -4.4358 H   0  0  0  0  0  0  0  0  0  0  0  0
   -0.0285   -1.1508   -6.6453 H   0  0  0  0  0  0  0  0  0  0  0  0
    0.4520    1.4840   -5.2133 H   0  0  0  0  0  0  0  0  0  0  0  0
    1.0147    2.4002   -7.4039 H   0  0  0  0  0  0  0  0  0  0  0  0
    0.7345    0.8614   -8.1727 H   0  0  0  0  0  0  0  0  0  0  0  0
   -1.3074    2.6377   -6.7368 H   0  0  0  0  0  0  0  0  0  0  0  0
   -1.2227    2.3379   -8.4649 H   0  0  0  0  0  0  0  0  0  0  0  0
   -1.7952    0.8249   -5.1881 H   0  0  0  0  0  0  0  0  0  0  0  0
   -2.9732   -1.1643   -4.6603 H   0  0  0  0  0  0  0  0  0  0  0  0
   -2.5717   -1.9308   -6.1831 H   0  0  0  0  0  0  0  0  0  0  0  0
   -4.8085   -0.0626   -5.6940 H   0  0  0  0  0  0  0  0  0  0  0  0
   -4.4478   -0.9411   -7.1657 H   0  0  0  0  0  0  0  0  0  0  0  0
   -3.5058    1.8100   -6.3328 H   0  0  0  0  0  0  0  0  0  0  0  0
   -0.8028   -0.6571   -8.5788 H   0  0  0  0  0  0  0  0  0  0  0  0
   -2.4636   -1.1797   -8.3748 H   0  0  0  0  0  0  0  0  0  0  0  0
   -2.0935    0.1929   -9.4025 H   0  0  0  0  0  0  0  0  0  0  0  0
   -5.0103    1.6214   -8.0336 H   0  0  0  0  0  0  0  0  0  0  0  0
   -0.8832    0.3075   -3.3252 H   0  0  0  0  0  0  0  0  0  0  0  0
    0.8578    0.3506   -3.2041 H   0  0  0  0  0  0  0  0  0  0  0  0
    0.7856   -1.8150   -1.8992 H   0  0  0  0  0  0  0  0  0  0  0  0
   -0.9592   -1.8010   -2.0283 H   0  0  0  0  0  0  0  0  0  0  0  0
   -1.0238    0.3949   -0.8222 H   0  0  0  0  0  0  0  0  0  0  0  0
    0.7217    0.3779   -0.6994 H   0  0  0  0  0  0  0  0  0  0  0  0
    0.6151   -1.7269    0.6446 H   0  0  0  0  0  0  0  0  0  0  0  0
   -1.1304   -1.7264    0.5162 H   0  0  0  0  0  0  0  0  0  0  0  0
   -1.2328    0.4568    1.7181 H   0  0  0  0  0  0  0  0  0  0  0  0
    0.5139    0.4947    1.8198 H   0  0  0  0  0  0  0  0  0  0  0  0
    0.5022   -1.5868    3.1841 H   0  0  0  0  0  0  0  0  0  0  0  0
   -1.2416   -1.6745    3.0629 H   0  0  0  0  0  0  0  0  0  0  0  0
   -1.4659    0.4840    4.2683 H   0  0  0  0  0  0  0  0  0  0  0  0
    0.2750    0.6523    4.3360 H   0  0  0  0  0  0  0  0  0  0  0  0
    0.4520   -1.4018    5.7152 H   0  0  0  0  0  0  0  0  0  0  0  0
   -1.2785   -1.6444    5.6168 H   0  0  0  0  0  0  0  0  0  0  0  0
   -1.6792    0.4987    6.8038 H   0  0  0  0  0  0  0  0  0  0  0  0
    0.0400    0.8176    6.8553 H   0  0  0  0  0  0  0  0  0  0  0  0
    0.4067   -1.2270    8.2195 H   0  0  0  0  0  0  0  0  0  0  0  0
   -1.2897   -1.6185    8.1394 H   0  0  0  0  0  0  0  0  0  0  0  0
   -0.2210   -2.4536    9.8798 H   0  0  0  0  0  0  0  0  0  0  0  0
    0.2668   -2.0753   11.5214 H   0  0  0  0  0  0  0  0  0  0  0  0
   -1.4105   -2.5095   11.1784 H   0  0  0  0  0  0  0  0  0  0  0  0
   -1.5927   -0.4806   12.5158 H   0  0  0  0  0  0  0  0  0  0  0  0
   -1.8097    0.9902   11.5914 H   0  0  0  0  0  0  0  0  0  0  0  0
    0.6240    1.4681   11.7282 H   0  0  0  0  0  0  0  0  0  0  0  0
    0.8946   -0.0374   12.5874 H   0  0  0  0  0  0  0  0  0  0  0  0
   -0.5729    0.7498   14.4468 H   0  0  0  0  0  0  0  0  0  0  0  0
   -0.8559    2.2516   13.5974 H   0  0  0  0  0  0  0  0  0  0  0  0
    0.9213    2.5447   15.3273 H   0  0  0  0  0  0  0  0  0  0  0  0
    1.8867    1.2804   14.5703 H   0  0  0  0  0  0  0  0  0  0  0  0
    1.5951    2.7942   13.7191 H   0  0  0  0  0  0  0  0  0  0  0  0
  1  2  2  0
  1 11  1  0
  1 39  1  0
  2  3  1  0
  2 40  1  0
  3  4  1  0
  3  5  2  0
  4 41  1  0
  5  6  1  0
  5 42  1  0
  6  7  1  0
  6 11  2  0
  7  8  1  0
  7 43  1  0
  7 44  1  0
  8  9  1  0
  8 21  1  0
  8 45  1  1
  9 10  1  0
  9 15  1  0
  9 46  1  6
 10 11  1  0
 10 12  1  0
 10 47  1  1
 12 13  1  0
 12 48  1  0
 12 49  1  0
 13 14  1  0
 13 50  1  0
 13 51  1  0
 14 15  1  0
 14 18  1  0
 14 19  1  6
 15 16  1  0
 15 52  1  1
 16 17  1  0
 16 53  1  0
 16 54  1  0
 17 18  1  0
 17 55  1  0
 17 56  1  0
 18 20  1  0
 18 57  1  1
 19 58  1  0
 19 59  1  0
 19 60  1  0
 20 61  1  0
 21 22  1  0
 21 62  1  0
 21 63  1  0
 22 23  1  0
 22 64  1  0
 22 65  1  0
 23 24  1  0
 23 66  1  0
 23 67  1  0
 24 25  1  0
 24 68  1  0
 24 69  1  0
 25 26  1  0
 25 70  1  0
 25 71  1  0
 26 27  1  0
 26 72  1  0
 26 73  1  0
 27 28  1  0
 27 74  1  0
 27 75  1  0
 28 29  1  0
 28 76  1  0
 28 77  1  0
 29 30  1  0
 29 78  1  0
 29 79  1  0
 30 31  1  0
 30 80  1  0
 30 81  1  0
 31 32  2  0
 31 33  1  0
 33 34  1  0
 33 35  1  0
 34 82  1  0
 34 83  1  0
 34 84  1  0
 35 36  1  0
 35 85  1  0
 35 86  1  0
 36 37  1  0
 36 87  1  0
 36 88  1  0
 37 38  1  0
 37 89  1  0
 37 90  1  0
 38 91  1  0
 38 92  1  0
 38 93  1  0
M  END
