
     RDKit          3D

 56 60  0  0  0  0  0  0  0  0999 V2000
   -4.9630    0.4340    0.5468 C   0  0  0  0  0  0  0  0  0  0  0  0
   -5.9506   -0.4739    0.1304 C   0  0  0  0  0  0  0  0  0  0  0  0
   -7.1520   -0.7026    0.8409 C   0  0  0  0  0  0  0  0  0  0  0  0
   -8.0577   -1.5463    0.4502 N   0  0  0  0  0  0  0  0  0  0  0  0
   -7.8065   -2.2285   -0.7060 C   0  0  0  0  0  0  0  0  0  0  0  0
   -8.7521   -3.1138   -1.0641 N   0  0  0  0  0  0  0  0  0  0  0  0
   -6.7332   -2.1064   -1.4575 N   0  0  0  0  0  0  0  0  0  0  0  0
   -5.7928   -1.2332   -1.0487 C   0  0  0  0  0  0  0  0  0  0  0  0
   -4.6099   -1.0489   -1.7984 C   0  0  0  0  0  0  0  0  0  0  0  0
   -3.6602   -0.1597   -1.3755 C   0  0  0  0  0  0  0  0  0  0  0  0
   -3.8145    0.6046   -0.1913 C   0  0  0  0  0  0  0  0  0  0  0  0
   -2.7667    1.5546    0.2255 C   0  0  0  0  0  0  0  0  0  0  0  0
   -1.4190    1.2620    0.0262 C   0  0  0  0  0  0  0  0  0  0  0  0
   -3.0929    2.7712    0.8258 C   0  0  0  0  0  0  0  0  0  0  0  0
   -2.1102    3.6663    1.2144 C   0  0  0  0  0  0  0  0  0  0  0  0
   -0.7868    3.3499    0.9856 C   0  0  0  0  0  0  0  0  0  0  0  0
    0.1580    4.2129    1.3722 F   0  0  0  0  0  0  0  0  0  0  0  0
   -0.4148    2.1505    0.3962 C   0  0  0  0  0  0  0  0  0  0  0  0
    1.0222    1.8477    0.1129 C   0  0  0  0  0  0  0  0  0  0  0  0
    1.7472    2.6522   -0.4406 O   0  0  0  0  0  0  0  0  0  0  0  0
    1.4006    0.6107    0.5154 N   0  0  0  0  0  0  0  0  0  0  0  0
    2.6405   -0.0210    0.3714 C   0  0  0  0  0  0  0  0  0  0  0  0
    3.6643    0.4577   -0.4403 C   0  0  0  0  0  0  0  0  0  0  0  0
    2.8275   -1.2118    1.0726 C   0  0  0  0  0  0  0  0  0  0  0  0
    4.0248   -1.8985    0.9685 C   0  0  0  0  0  0  0  0  0  0  0  0
    5.0674   -1.4378    0.1767 C   0  0  0  0  0  0  0  0  0  0  0  0
    4.8568   -0.2527   -0.5308 C   0  0  0  0  0  0  0  0  0  0  0  0
    5.8708    0.2548   -1.3423 N   0  0  0  0  0  0  0  0  0  0  0  0
    6.9401   -0.4586   -1.7799 C   0  0  0  0  0  0  0  0  0  0  0  0
    7.7816    0.0337   -2.5107 O   0  0  0  0  0  0  0  0  0  0  0  0
    6.9599   -1.8942   -1.3297 C   0  0  0  0  0  0  0  0  0  0  0  0
    6.4254   -2.1026    0.0909 C   0  0  2  0  0  0  0  0  0  0  0  0
    6.3640   -3.6022    0.3698 C   0  0  0  0  0  0  0  0  0  0  0  0
    7.3648   -1.4380    1.1080 C   0  0  0  0  0  0  0  0  0  0  0  0
   -5.1151    0.9814    1.4703 H   0  0  0  0  0  0  0  0  0  0  0  0
   -7.3458   -0.1556    1.7600 H   0  0  0  0  0  0  0  0  0  0  0  0
   -9.6444   -3.0931   -0.6027 H   0  0  0  0  0  0  0  0  0  0  0  0
   -8.7085   -3.5401   -1.9733 H   0  0  0  0  0  0  0  0  0  0  0  0
   -4.4718   -1.6118   -2.7123 H   0  0  0  0  0  0  0  0  0  0  0  0
   -2.7716   -0.0254   -1.9802 H   0  0  0  0  0  0  0  0  0  0  0  0
   -1.1389    0.3221   -0.4338 H   0  0  0  0  0  0  0  0  0  0  0  0
   -4.1302    3.0393    0.9788 H   0  0  0  0  0  0  0  0  0  0  0  0
   -2.3710    4.6068    1.6810 H   0  0  0  0  0  0  0  0  0  0  0  0
    0.7255    0.0940    1.0592 H   0  0  0  0  0  0  0  0  0  0  0  0
    3.5490    1.3668   -1.0093 H   0  0  0  0  0  0  0  0  0  0  0  0
    2.0382   -1.6020    1.7032 H   0  0  0  0  0  0  0  0  0  0  0  0
    4.1421   -2.8135    1.5341 H   0  0  0  0  0  0  0  0  0  0  0  0
    5.7662    1.1946   -1.6992 H   0  0  0  0  0  0  0  0  0  0  0  0
    6.3428   -2.4588   -2.0394 H   0  0  0  0  0  0  0  0  0  0  0  0
    7.9783   -2.2736   -1.4213 H   0  0  0  0  0  0  0  0  0  0  0  0
    5.6516   -4.1032   -0.2874 H   0  0  0  0  0  0  0  0  0  0  0  0
    7.3449   -4.0509    0.2053 H   0  0  0  0  0  0  0  0  0  0  0  0
    6.0810   -3.8113    1.4016 H   0  0  0  0  0  0  0  0  0  0  0  0
    7.0100   -1.6106    2.1249 H   0  0  0  0  0  0  0  0  0  0  0  0
    8.3726   -1.8514    1.0298 H   0  0  0  0  0  0  0  0  0  0  0  0
    7.4355   -0.3584    0.9626 H   0  0  0  0  0  0  0  0  0  0  0  0
 10  9  2  0
 10 11  1  0
  9  8  1  0
 20 19  2  0
 15 14  2  0
 15 16  1  0
 17 16  1  0
 14 12  1  0
 16 18  2  0
 12 13  2  0
 12 11  1  0
 18 13  1  0
 18 19  1  0
 11  1  2  0
 19 21  1  0
  8  7  1  0
  8  2  2  0
  7  5  2  0
 24 25  2  0
 24 22  1  0
 32 34  1  1
 25 26  1  0
 21 22  1  0
  1  2  1  0
 22 23  2  0
  2  3  1  0
  5  6  1  0
  5  4  1  0
 26 32  1  0
 26 27  2  0
 23 27  1  0
  3  4  2  0
 32 31  1  0
 32 33  1  0
 27 28  1  0
 31 29  1  0
 28 29  1  0
 29 30  2  0
  1 35  1  0
  3 36  1  0
  6 37  1  0
  6 38  1  0
  9 39  1  0
 10 40  1  0
 13 41  1  0
 14 42  1  0
 15 43  1  0
 21 44  1  0
 23 45  1  0
 24 46  1  0
 25 47  1  0
 28 48  1  0
 31 49  1  0
 31 50  1  0
 33 51  1  0
 33 52  1  0
 33 53  1  0
 34 54  1  0
 34 55  1  0
 34 56  1  0
M  END
