
     RDKit          3D

 24 25  0  0  0  0  0  0  0  0999 V2000
    3.8251    0.5010   -0.1991 C   0  0  0  0  0  0  0  0  0  0  0  0
    2.3536    0.6597   -0.2178 C   0  0  0  0  0  0  0  0  0  0  0  0
    1.2948   -0.1890   -0.0374 C   0  0  0  0  0  0  0  0  0  0  0  0
    1.3217   -1.6059    0.3185 C   0  0  0  0  0  0  0  0  0  0  0  0
    2.5497   -2.1076    0.2821 O   0  0  0  0  0  0  0  0  0  0  0  0
    0.3473   -2.2494    0.6227 O   0  0  0  0  0  0  0  0  0  0  0  0
    0.1524    0.6544   -0.1800 C   0  0  0  0  0  0  0  0  0  0  0  0
    0.5181    1.8786   -0.4220 N   0  0  0  0  0  0  0  0  0  0  0  0
    1.8827    1.8769   -0.4401 O   0  0  0  0  0  0  0  0  0  0  0  0
   -1.2823    0.3438   -0.0996 C   0  0  0  0  0  0  0  0  0  0  0  0
   -1.8329   -0.6904   -0.8532 C   0  0  0  0  0  0  0  0  0  0  0  0
   -3.1960   -0.9361   -0.8043 C   0  0  0  0  0  0  0  0  0  0  0  0
   -4.0185   -0.1580    0.0017 C   0  0  0  0  0  0  0  0  0  0  0  0
   -3.4741    0.8745    0.7524 C   0  0  0  0  0  0  0  0  0  0  0  0
   -2.1108    1.1290    0.6987 C   0  0  0  0  0  0  0  0  0  0  0  0
    4.3152    1.4501   -0.4043 H   0  0  0  0  0  0  0  0  0  0  0  0
    4.1602    0.1396    0.7721 H   0  0  0  0  0  0  0  0  0  0  0  0
    4.1434   -0.2232   -0.9469 H   0  0  0  0  0  0  0  0  0  0  0  0
    2.5320   -3.0415    0.5404 H   0  0  0  0  0  0  0  0  0  0  0  0
   -1.2009   -1.2924   -1.4919 H   0  0  0  0  0  0  0  0  0  0  0  0
   -3.6181   -1.7376   -1.3963 H   0  0  0  0  0  0  0  0  0  0  0  0
   -5.0814   -0.3574    0.0429 H   0  0  0  0  0  0  0  0  0  0  0  0
   -4.1090    1.4824    1.3832 H   0  0  0  0  0  0  0  0  0  0  0  0
   -1.6877    1.9324    1.2877 H   0  0  0  0  0  0  0  0  0  0  0  0
  6  4  2  0
  4  5  1  0
  4  3  1  0
 12 11  2  0
 12 13  1  0
 11 10  1  0
  1  2  1  0
  3  2  2  0
  3  7  1  0
 13 14  2  0
  2  9  1  0
 10  7  1  0
 10 15  2  0
  7  8  2  0
  9  8  1  0
 14 15  1  0
  1 16  1  0
  1 17  1  0
  1 18  1  0
  5 19  1  0
 11 20  1  0
 12 21  1  0
 13 22  1  0
 14 23  1  0
 15 24  1  0
M  END
