
     RDKit          3D

 37 37  0  0  0  0  0  0  0  0999 V2000
   -4.3050    1.4404    0.6403 C   0  0  0  0  0  0  0  0  0  0  0  0
   -2.3556    0.3157   -0.2158 N   0  0  0  0  0  0  0  0  0  0  0  0
   -4.7338    0.4004    1.0622 O   0  0  0  0  0  0  0  0  0  0  0  0
    3.9413    1.4077   -0.3906 P   0  0  1  0  0  0  0  0  0  0  0  0
    1.0739   -3.3926    0.1418 N   0  0  0  0  0  0  0  0  0  0  0  0
   -0.2381   -3.4848    0.2520 C   0  0  0  0  0  0  0  0  0  0  0  0
   -1.0493   -2.3382    0.3137 C   0  0  0  0  0  0  0  0  0  0  0  0
   -2.3787   -2.4240    0.4451 O   0  0  0  0  0  0  0  0  0  0  0  0
   -0.4514   -1.0800    0.2613 C   0  0  0  0  0  0  0  0  0  0  0  0
    0.9456   -1.0128    0.1579 C   0  0  0  0  0  0  0  0  0  0  0  0
    1.6557   -2.1981    0.0952 C   0  0  0  0  0  0  0  0  0  0  0  0
   -2.9803    1.6061   -0.0843 C   0  0  1  0  0  0  0  0  0  0  0  0
   -3.2034    2.2221   -1.4621 C   0  0  0  0  0  0  0  0  0  0  0  0
   -4.1735    1.4600   -2.1337 O   0  0  0  0  0  0  0  0  0  0  0  0
    3.7411    1.6544   -1.9550 O   0  0  0  0  0  0  0  0  0  0  0  0
    5.3418    0.6820   -0.1794 O   0  0  0  0  0  0  0  0  0  0  0  0
    3.6825    2.6568    0.3473 O   0  0  0  0  0  0  0  0  0  0  0  0
   -1.2321    0.1678    0.3379 C   0  0  0  0  0  0  0  0  0  0  0  0
    3.0250    0.1549   -0.0013 O   0  0  0  0  0  0  0  0  0  0  0  0
    1.6180    0.3303    0.0965 C   0  0  0  0  0  0  0  0  0  0  0  0
   -4.9227    2.6063    0.7796 O   0  0  0  0  0  0  0  0  0  0  0  0
   -2.6507   -3.3363    0.5957 H   0  0  0  0  0  0  0  0  0  0  0  0
    2.7334   -2.2006    0.0021 H   0  0  0  0  0  0  0  0  0  0  0  0
   -2.3707    2.3148    0.4992 H   0  0  0  0  0  0  0  0  0  0  0  0
   -3.5091    3.2659   -1.3364 H   0  0  0  0  0  0  0  0  0  0  0  0
   -2.2421    2.2321   -1.9906 H   0  0  0  0  0  0  0  0  0  0  0  0
   -4.3843    1.8997   -2.9623 H   0  0  0  0  0  0  0  0  0  0  0  0
    3.9505    0.9072   -2.5317 H   0  0  0  0  0  0  0  0  0  0  0  0
   -1.3516   -5.0319    1.2697 H   0  0  0  0  0  0  0  0  0  0  0  0
   -1.5856   -5.0125   -0.4783 H   0  0  0  0  0  0  0  0  0  0  0  0
   -0.0758   -5.6063    0.2051 H   0  0  0  0  0  0  0  0  0  0  0  0
    6.1058    1.2676   -0.2725 H   0  0  0  0  0  0  0  0  0  0  0  0
   -0.7653    0.9803    0.9074 H   0  0  0  0  0  0  0  0  0  0  0  0
    1.2364    0.8894   -0.7646 H   0  0  0  0  0  0  0  0  0  0  0  0
    1.3855    0.9139    0.9919 H   0  0  0  0  0  0  0  0  0  0  0  0
   -5.7599    2.4848    1.2522 H   0  0  0  0  0  0  0  0  0  0  0  0
   -0.8509   -4.8519    0.3144 C   0  0  0  0  0  0  0  0  0  0  0  0
  1 12  1  0
  1 21  1  0
  2 18  2  0
  2 12  1  0
  3  1  2  0
  4 16  1  6
  4 15  1  0
  5 11  2  0
  6  5  1  0
  6  7  2  0
  7  9  1  0
  8  7  1  0
  8 22  1  0
  9 10  2  0
  9 18  1  0
 10 20  1  0
 11 10  1  0
 11 23  1  0
 12 13  1  0
 12 24  1  1
 13 14  1  0
 13 25  1  0
 13 26  1  0
 14 27  1  0
 15 28  1  0
 37  6  1  0
 37 29  1  0
 37 30  1  0
 37 31  1  0
 16 32  1  0
 17  4  2  0
 18 33  1  0
 19  4  1  0
 20 19  1  0
 20 34  1  0
 20 35  1  0
 21 36  1  0
M  END
