
     RDKit          3D

 29 31  0  0  0  0  0  0  0  0999 V2000
   -2.2277   -0.4448   -0.9934 C   0  0  0  0  0  0  0  0  0  0  0  0
   -0.9496    0.0844   -0.9003 C   0  0  0  0  0  0  0  0  0  0  0  0
    0.0865   -0.6752   -0.3726 C   0  0  0  0  0  0  0  0  0  0  0  0
    1.6987    3.0144    1.2696 C   0  0  0  0  0  0  0  0  0  0  0  0
    1.4407   -0.0879   -0.3125 C   0  0  0  0  0  0  0  0  0  0  0  0
    1.6778    1.1484    0.2791 C   0  0  0  0  0  0  0  0  0  0  0  0
    3.0070    1.5903    0.2467 C   0  0  0  0  0  0  0  0  0  0  0  0
    3.6818   -0.2182   -0.8290 C   0  0  0  0  0  0  0  0  0  0  0  0
    4.6547   -0.9285   -1.4460 N   0  0  0  0  0  0  0  0  0  0  0  0
    2.4482   -0.7515   -0.8583 N   0  0  0  0  0  0  0  0  0  0  0  0
   -2.4882   -1.7284   -0.5483 C   0  0  0  0  0  0  0  0  0  0  0  0
    2.9911    2.7877    0.8857 N   0  0  0  0  0  0  0  0  0  0  0  0
   -3.6181    0.5972   -1.7332 Br  0  0  0  0  0  0  0  0  0  0  0  0
   -1.4638   -2.4877   -0.0013 C   0  0  0  0  0  0  0  0  0  0  0  0
   -0.1726   -1.9736    0.0967 C   0  0  0  0  0  0  0  0  0  0  0  0
    0.8530   -2.6321    0.6480 O   0  0  0  0  0  0  0  0  0  0  0  0
    0.6319   -3.9272    1.1753 C   0  0  0  0  0  0  0  0  0  0  0  0
    4.0289    0.9518   -0.2877 N   0  0  0  0  0  0  0  0  0  0  0  0
    0.8827    2.0638    0.9304 N   0  0  0  0  0  0  0  0  0  0  0  0
   -0.7403    1.0853   -1.2536 H   0  0  0  0  0  0  0  0  0  0  0  0
    4.4738   -1.8972   -1.6444 H   0  0  0  0  0  0  0  0  0  0  0  0
    5.6116   -0.6834   -1.2587 H   0  0  0  0  0  0  0  0  0  0  0  0
   -3.4807   -2.1536   -0.6133 H   0  0  0  0  0  0  0  0  0  0  0  0
    3.7793    3.3931    1.0569 H   0  0  0  0  0  0  0  0  0  0  0  0
   -1.6981   -3.4821    0.3512 H   0  0  0  0  0  0  0  0  0  0  0  0
    1.5849   -4.2573    1.5802 H   0  0  0  0  0  0  0  0  0  0  0  0
   -0.1091   -3.9206    1.9785 H   0  0  0  0  0  0  0  0  0  0  0  0
    0.3145   -4.6325    0.4035 H   0  0  0  0  0  0  0  0  0  0  0  0
    1.4255    3.9113    1.8044 H   0  0  0  0  0  0  0  0  0  0  0  0
 13  1  1  0
  9  8  1  0
  8 10  2  0
  8 18  1  0
  2  1  2  0
  2  3  1  0
 10  5  1  0
  1 11  1  0
 18  7  2  0
  5  3  1  0
  5  6  2  0
  3 15  2  0
 11 14  2  0
  7  6  1  0
  7 12  1  0
  6 19  1  0
 12  4  1  0
 15 14  1  0
 15 16  1  0
 19  4  2  0
 16 17  1  0
  2 20  1  0
  4 29  1  0
  9 21  1  0
  9 22  1  0
 11 23  1  0
 12 24  1  0
 14 25  1  0
 17 26  1  0
 17 27  1  0
 17 28  1  0
M  END
