
     RDKit          3D

 64 68  0  0  0  0  0  0  0  0999 V2000
   -3.6948   -1.2516    0.8147 O   0  0  0  0  0  0  0  0  0  0  0  0
   -2.7692   -0.8929    0.1122 C   0  0  0  0  0  0  0  0  0  0  0  0
   -1.6886   -1.8459   -0.3645 C   0  0  2  0  0  0  0  0  0  0  0  0
   -2.1895   -2.7761   -1.4757 C   0  0  2  0  0  0  0  0  0  0  0  0
   -2.8125   -2.0394   -2.6491 C   0  0  0  0  0  0  0  0  0  0  0  0
   -3.1406   -3.7058   -0.9163 N   0  0  0  0  0  0  0  0  0  0  0  0
   -3.0728   -4.2194    0.3324 C   0  0  0  0  0  0  0  0  0  0  0  0
   -2.0390   -3.7808    1.1004 N   0  0  0  0  0  0  0  0  0  0  0  0
   -1.1467   -2.6919    0.8031 C   0  0  1  0  0  0  0  0  0  0  0  0
    0.2628   -3.1589    0.4945 C   0  0  0  0  0  0  0  0  0  0  0  0
    1.3178   -2.2717    0.6687 C   0  0  0  0  0  0  0  0  0  0  0  0
    2.6240   -2.6101    0.3328 C   0  0  0  0  0  0  0  0  0  0  0  0
    3.7145   -1.5988    0.4511 C   0  0  0  0  0  0  0  0  0  0  0  0
    3.7409   -0.9433    1.6228 N   0  0  0  0  0  0  0  0  0  0  0  0
    4.5491    0.2272    1.8198 C   0  0  0  0  0  0  0  0  0  0  0  0
    4.0792    1.3870    1.0034 C   0  0  0  0  0  0  0  0  0  0  0  0
    4.6965    2.4883    0.7476 N   0  0  0  0  0  0  0  0  0  0  0  0
    3.7749    3.1814    0.0170 C   0  0  0  0  0  0  0  0  0  0  0  0
    4.0152    4.5563   -0.5115 C   0  0  0  0  0  0  0  0  0  0  0  0
    5.2094    4.5343   -1.2414 O   0  0  0  0  0  0  0  0  0  0  0  0
    5.5582    5.8084   -1.7267 C   0  0  0  0  0  0  0  0  0  0  0  0
    2.6658    2.5363   -0.1691 N   0  0  0  0  0  0  0  0  0  0  0  0
    2.8583    1.3526    0.4911 O   0  0  0  0  0  0  0  0  0  0  0  0
    4.4939   -1.3621   -0.4582 O   0  0  0  0  0  0  0  0  0  0  0  0
    2.8505   -3.8784   -0.1812 C   0  0  0  0  0  0  0  0  0  0  0  0
    4.1010   -4.2491   -0.4982 F   0  0  0  0  0  0  0  0  0  0  0  0
    1.8321   -4.7925   -0.3394 C   0  0  0  0  0  0  0  0  0  0  0  0
    0.5364   -4.4263    0.0005 C   0  0  0  0  0  0  0  0  0  0  0  0
   -3.8789   -5.0449    0.7492 O   0  0  0  0  0  0  0  0  0  0  0  0
   -2.6070    0.3847   -0.3124 N   0  0  0  0  0  0  0  0  0  0  0  0
   -3.4432    1.4693    0.0240 C   0  0  0  0  0  0  0  0  0  0  0  0
   -2.8704    2.6584    0.3862 C   0  0  0  0  0  0  0  0  0  0  0  0
   -3.7207    3.7485    0.6656 C   0  0  0  0  0  0  0  0  0  0  0  0
   -3.5345    5.0739    1.0453 C   0  0  0  0  0  0  0  0  0  0  0  0
   -4.7637    5.5860    1.1549 N   0  0  0  0  0  0  0  0  0  0  0  0
   -5.7543    4.7493    0.8939 N   0  0  0  0  0  0  0  0  0  0  0  0
   -5.1340    3.6069    0.5900 C   0  0  0  0  0  0  0  0  0  0  0  0
   -5.7006    2.3697    0.2074 C   0  0  0  0  0  0  0  0  0  0  0  0
   -4.8615    1.3330   -0.0757 C   0  0  0  0  0  0  0  0  0  0  0  0
   -0.8553   -1.2790   -0.7842 H   0  0  0  0  0  0  0  0  0  0  0  0
   -1.3086   -3.3120   -1.8523 H   0  0  0  0  0  0  0  0  0  0  0  0
   -2.1006   -1.3409   -3.0868 H   0  0  0  0  0  0  0  0  0  0  0  0
   -3.0970   -2.7482   -3.4279 H   0  0  0  0  0  0  0  0  0  0  0  0
   -3.7066   -1.4881   -2.3576 H   0  0  0  0  0  0  0  0  0  0  0  0
   -3.8686   -4.0696   -1.5096 H   0  0  0  0  0  0  0  0  0  0  0  0
   -2.0334   -4.1266    2.0462 H   0  0  0  0  0  0  0  0  0  0  0  0
   -1.0921   -2.0541    1.6904 H   0  0  0  0  0  0  0  0  0  0  0  0
    1.1121   -1.2766    1.0478 H   0  0  0  0  0  0  0  0  0  0  0  0
    3.0797   -1.1835    2.3434 H   0  0  0  0  0  0  0  0  0  0  0  0
    4.4976    0.5004    2.8744 H   0  0  0  0  0  0  0  0  0  0  0  0
    5.5993    0.0444    1.5906 H   0  0  0  0  0  0  0  0  0  0  0  0
    3.1587    4.8684   -1.1214 H   0  0  0  0  0  0  0  0  0  0  0  0
    4.0759    5.2482    0.3402 H   0  0  0  0  0  0  0  0  0  0  0  0
    5.6862    6.5343   -0.9159 H   0  0  0  0  0  0  0  0  0  0  0  0
    6.5043    5.7136   -2.2572 H   0  0  0  0  0  0  0  0  0  0  0  0
    4.8072    6.2040   -2.4197 H   0  0  0  0  0  0  0  0  0  0  0  0
    2.0461   -5.7843   -0.7161 H   0  0  0  0  0  0  0  0  0  0  0  0
   -0.2610   -5.1473   -0.1217 H   0  0  0  0  0  0  0  0  0  0  0  0
   -1.7439    0.6170   -0.7783 H   0  0  0  0  0  0  0  0  0  0  0  0
   -1.7937    2.7592    0.4532 H   0  0  0  0  0  0  0  0  0  0  0  0
   -2.6504    5.6603    1.2317 H   0  0  0  0  0  0  0  0  0  0  0  0
   -4.9834    6.5374    1.4104 H   0  0  0  0  0  0  0  0  0  0  0  0
   -6.7732    2.2528    0.1231 H   0  0  0  0  0  0  0  0  0  0  0  0
   -5.2779    0.3914   -0.4018 H   0  0  0  0  0  0  0  0  0  0  0  0
 27 28  2  0
 27 25  1  0
 26 25  1  0
 28 10  1  0
 25 12  2  0
 34 35  1  0
 34 33  2  0
 35 36  1  0
  1  2  2  0
 10  9  1  0
 10 11  2  0
 12 11  1  0
 12 13  1  0
 33 32  1  0
 33 37  1  0
 24 13  2  0
  9  8  1  0
  9  3  1  0
 36 37  2  0
 32 31  2  0
  2  3  1  0
  2 30  1  0
 37 38  1  0
 13 14  1  0
  8  7  1  0
  3  4  1  0
 31 30  1  0
 31 39  1  0
 38 39  2  0
 14 15  1  0
  7 29  2  0
  7  6  1  0
 21 20  1  0
  4  6  1  0
  4  5  1  0
 15 16  1  0
 17 16  2  0
 17 18  1  0
 20 19  1  0
 16 23  1  0
 19 18  1  0
 18 22  2  0
 23 22  1  0
  3 40  1  6
  4 41  1  6
  5 42  1  0
  5 43  1  0
  5 44  1  0
  6 45  1  0
  8 46  1  0
  9 47  1  1
 11 48  1  0
 14 49  1  0
 15 50  1  0
 15 51  1  0
 19 52  1  0
 19 53  1  0
 21 54  1  0
 21 55  1  0
 21 56  1  0
 27 57  1  0
 28 58  1  0
 30 59  1  0
 32 60  1  0
 34 61  1  0
 35 62  1  0
 38 63  1  0
 39 64  1  0
M  END
