
     RDKit          3D

 43 46  0  0  0  0  0  0  0  0999 V2000
    0.0632    0.4617    1.4961 C   0  0  0  0  0  0  0  0  0  0  0  0
   -4.6574   -2.5881   -0.9938 O   0  0  0  0  0  0  0  0  0  0  0  0
   -3.5050   -2.0422   -0.6513 C   0  0  0  0  0  0  0  0  0  0  0  0
   -2.4319   -2.3572   -1.0868 O   0  0  0  0  0  0  0  0  0  0  0  0
   -3.7205   -0.9347    0.3725 C   0  0  2  0  0  0  0  0  0  0  0  0
   -4.4067    0.2918   -0.2227 C   0  0  0  0  0  0  0  0  0  0  0  0
   -3.0616    1.2806   -0.9484 S   0  0  0  0  0  0  0  0  0  0  0  0
   -1.9380    0.6175    0.2085 C   0  0  0  0  0  0  0  0  0  0  0  0
   -0.7022    1.1125    0.4889 C   0  0  0  0  0  0  0  0  0  0  0  0
   -0.2594    2.2410   -0.1236 O   0  0  0  0  0  0  0  0  0  0  0  0
    0.2313    2.0663   -1.4495 C   0  0  0  0  0  0  0  0  0  0  0  0
    1.3891    1.0292    1.9389 C   0  0  0  0  0  0  0  0  0  0  0  0
    2.4223    1.2311    0.8587 C   0  0  0  0  0  0  0  0  0  0  0  0
    2.8363    2.5021    0.5521 C   0  0  0  0  0  0  0  0  0  0  0  0
    3.7889    2.7488   -0.4544 C   0  0  0  0  0  0  0  0  0  0  0  0
    4.3250    1.7097   -1.1604 C   0  0  0  0  0  0  0  0  0  0  0  0
    3.9446    0.3795   -0.8686 C   0  0  0  0  0  0  0  0  0  0  0  0
    4.5029   -0.7093   -1.5791 C   0  0  0  0  0  0  0  0  0  0  0  0
    4.1475   -1.9967   -1.2859 C   0  0  0  0  0  0  0  0  0  0  0  0
    3.2179   -2.2510   -0.2580 C   0  0  0  0  0  0  0  0  0  0  0  0
    2.6567   -1.2176    0.4426 C   0  0  0  0  0  0  0  0  0  0  0  0
    2.9926    0.1291    0.1581 C   0  0  0  0  0  0  0  0  0  0  0  0
   -0.4501   -0.6400    2.1200 C   0  0  0  0  0  0  0  0  0  0  0  0
   -1.7275   -1.2015    1.7950 C   0  0  0  0  0  0  0  0  0  0  0  0
   -2.2163   -2.2201    2.2758 O   0  0  0  0  0  0  0  0  0  0  0  0
   -2.4363   -0.4725    0.8523 N   0  0  0  0  0  0  0  0  0  0  0  0
   -4.5246   -3.2792   -1.6609 H   0  0  0  0  0  0  0  0  0  0  0  0
   -4.3148   -1.3231    1.2011 H   0  0  0  0  0  0  0  0  0  0  0  0
   -5.1357    0.0486   -0.9914 H   0  0  0  0  0  0  0  0  0  0  0  0
   -4.8976    0.8688    0.5587 H   0  0  0  0  0  0  0  0  0  0  0  0
   -0.5717    1.8186   -2.1494 H   0  0  0  0  0  0  0  0  0  0  0  0
    0.6757    3.0120   -1.7505 H   0  0  0  0  0  0  0  0  0  0  0  0
    0.9933    1.2869   -1.5020 H   0  0  0  0  0  0  0  0  0  0  0  0
    1.1939    1.9964    2.4093 H   0  0  0  0  0  0  0  0  0  0  0  0
    1.7871    0.3885    2.7294 H   0  0  0  0  0  0  0  0  0  0  0  0
    2.4081    3.3415    1.0860 H   0  0  0  0  0  0  0  0  0  0  0  0
    4.0842    3.7675   -0.6694 H   0  0  0  0  0  0  0  0  0  0  0  0
    5.0504    1.8883   -1.9452 H   0  0  0  0  0  0  0  0  0  0  0  0
    5.2227   -0.5063   -2.3630 H   0  0  0  0  0  0  0  0  0  0  0  0
    4.5796   -2.8209   -1.8381 H   0  0  0  0  0  0  0  0  0  0  0  0
    2.9462   -3.2714   -0.0213 H   0  0  0  0  0  0  0  0  0  0  0  0
    1.9472   -1.4405    1.2270 H   0  0  0  0  0  0  0  0  0  0  0  0
    0.1185   -1.1451    2.8902 H   0  0  0  0  0  0  0  0  0  0  0  0
 19 20  2  0
 19 18  1  0
 20 21  1  0
 18 17  2  0
 21 22  2  0
 17 22  1  0
 17 16  1  0
 22 13  1  0
 16 15  2  0
 25 24  2  0
 23 24  1  0
 23  1  2  0
 13 12  1  0
 13 14  2  0
 24 26  1  0
 15 14  1  0
 12  1  1  0
  1  9  1  0
 26  5  1  0
 26  8  1  0
  5  3  1  0
  5  6  1  0
  9  8  2  0
  9 10  1  0
  8  7  1  0
  3  4  2  0
  3  2  1  0
  6  7  1  0
 10 11  1  0
  2 27  1  0
  5 28  1  1
  6 29  1  0
  6 30  1  0
 11 31  1  0
 11 32  1  0
 11 33  1  0
 12 34  1  0
 12 35  1  0
 14 36  1  0
 15 37  1  0
 16 38  1  0
 18 39  1  0
 19 40  1  0
 20 41  1  0
 21 42  1  0
 23 43  1  0
M  END
