
     RDKit          3D

 53 55  0  0  0  0  0  0  0  0999 V2000
    0.3822    0.2990    5.8142 C   0  0  0  0  0  0  0  0  0  0  0  0
   -1.5219   -0.4012   -1.5753 N   0  0  0  0  0  0  0  0  0  0  0  0
   -2.1853   -0.4729   -2.7244 C   0  0  0  0  0  0  0  0  0  0  0  0
   -0.2057   -0.2628   -1.6810 C   0  0  0  0  0  0  0  0  0  0  0  0
   -0.1664   -0.2688   -3.9687 C   0  0  0  0  0  0  0  0  0  0  0  0
   -1.5780   -0.4134   -3.9547 C   0  0  0  0  0  0  0  0  0  0  0  0
    0.4841   -0.1977   -2.8222 N   0  0  0  0  0  0  0  0  0  0  0  0
    4.5840    0.2172   -6.0831 C   0  0  0  0  0  0  0  0  0  0  0  0
    3.6634   -0.2739   -7.0002 C   0  0  0  0  0  0  0  0  0  0  0  0
    2.3323   -0.4148   -6.6490 C   0  0  0  0  0  0  0  0  0  0  0  0
    1.8884   -0.0628   -5.3705 C   0  0  0  0  0  0  0  0  0  0  0  0
    4.1441    0.5708   -4.8163 C   0  0  0  0  0  0  0  0  0  0  0  0
   -1.2318   -0.5671    2.6725 C   0  0  0  0  0  0  0  0  0  0  0  0
   -1.0073   -0.5912    1.3071 C   0  0  0  0  0  0  0  0  0  0  0  0
    2.8104    0.4400   -4.4508 C   0  0  0  0  0  0  0  0  0  0  0  0
    0.2169   -0.1628    0.7871 C   0  0  0  0  0  0  0  0  0  0  0  0
   -0.2546   -0.1253    3.5620 C   0  0  0  0  0  0  0  0  0  0  0  0
    0.9688    0.2971    3.0509 C   0  0  0  0  0  0  0  0  0  0  0  0
    1.1904    0.2776    1.6818 C   0  0  0  0  0  0  0  0  0  0  0  0
   -0.5764   -0.1425    4.8728 O   0  0  0  0  0  0  0  0  0  0  0  0
    0.5169   -0.2078   -5.1333 N   0  0  0  0  0  0  0  0  0  0  0  0
   -2.6095   -0.5140   -5.5233 Br  0  0  0  0  0  0  0  0  0  0  0  0
   -0.2148    0.1553    7.1953 C   0  0  2  0  0  0  0  0  0  0  0  0
    0.7183    0.7832    8.2350 C   0  0  0  0  0  0  0  0  0  0  0  0
    0.3264    0.3564    9.5660 N   0  0  0  0  0  0  0  0  0  0  0  0
    1.4159    0.4235   10.5183 C   0  0  0  0  0  0  0  0  0  0  0  0
   -0.8439    1.0571   10.0589 C   0  0  0  0  0  0  0  0  0  0  0  0
   -0.4059   -1.2052    7.4926 O   0  0  0  0  0  0  0  0  0  0  0  0
    1.3006   -0.2970    5.7441 H   0  0  0  0  0  0  0  0  0  0  0  0
    0.6459    1.3487    5.6359 H   0  0  0  0  0  0  0  0  0  0  0  0
   -3.2621   -0.5810   -2.6508 H   0  0  0  0  0  0  0  0  0  0  0  0
    3.9796   -0.5554   -7.9961 H   0  0  0  0  0  0  0  0  0  0  0  0
    1.6251   -0.8003   -7.3748 H   0  0  0  0  0  0  0  0  0  0  0  0
    4.8455    0.9611   -4.0898 H   0  0  0  0  0  0  0  0  0  0  0  0
   -2.1864   -0.9042    3.0573 H   0  0  0  0  0  0  0  0  0  0  0  0
   -1.7897   -0.9392    0.6525 H   0  0  0  0  0  0  0  0  0  0  0  0
    2.4997    0.7277   -3.4607 H   0  0  0  0  0  0  0  0  0  0  0  0
    1.7642    0.6504    3.6929 H   0  0  0  0  0  0  0  0  0  0  0  0
    2.1489    0.6177    1.3078 H   0  0  0  0  0  0  0  0  0  0  0  0
   -0.0226   -0.3699   -5.9703 H   0  0  0  0  0  0  0  0  0  0  0  0
   -1.1747    0.6952    7.2047 H   0  0  0  0  0  0  0  0  0  0  0  0
    0.7296    1.8773    8.1212 H   0  0  0  0  0  0  0  0  0  0  0  0
    1.7384    0.4309    8.0562 H   0  0  0  0  0  0  0  0  0  0  0  0
    1.0983   -0.0015   11.4711 H   0  0  0  0  0  0  0  0  0  0  0  0
    2.2656   -0.1576   10.1593 H   0  0  0  0  0  0  0  0  0  0  0  0
    1.7623    1.4494   10.7079 H   0  0  0  0  0  0  0  0  0  0  0  0
   -1.6791    0.9557    9.3659 H   0  0  0  0  0  0  0  0  0  0  0  0
   -1.1551    0.6275   11.0113 H   0  0  0  0  0  0  0  0  0  0  0  0
   -0.6624    2.1305   10.2129 H   0  0  0  0  0  0  0  0  0  0  0  0
   -0.2952   -1.2589    8.4572 H   0  0  0  0  0  0  0  0  0  0  0  0
    0.5609   -0.1718   -0.5669 N   0  0  0  0  0  0  0  0  0  0  0  0
    5.6262    0.3239   -6.3529 H   0  0  0  0  0  0  0  0  0  0  0  0
    1.5384   -0.0187   -0.7636 H   0  0  0  0  0  0  0  0  0  0  0  0
  1 20  1  0
  1 23  1  0
  1 29  1  0
  1 30  1  0
  2  3  2  0
  2  4  1  0
  3  6  1  0
  3 31  1  0
  4  7  2  0
  4 51  1  0
  5  6  2  0
  5  7  1  0
  5 21  1  0
  6 22  1  0
  8  9  2  0
  8 12  1  0
  8 52  1  0
  9 10  1  0
  9 32  1  0
 10 11  2  0
 10 33  1  0
 11 15  1  0
 11 21  1  0
 12 15  2  0
 12 34  1  0
 13 14  2  0
 13 17  1  0
 13 35  1  0
 14 16  1  0
 14 36  1  0
 15 37  1  0
 16 19  2  0
 16 51  1  0
 17 18  2  0
 17 20  1  0
 18 19  1  0
 18 38  1  0
 19 39  1  0
 21 40  1  0
 51 53  1  0
 23 24  1  0
 23 28  1  0
 23 41  1  6
 24 25  1  0
 24 42  1  0
 24 43  1  0
 25 26  1  0
 25 27  1  0
 26 44  1  0
 26 45  1  0
 26 46  1  0
 27 47  1  0
 27 48  1  0
 27 49  1  0
 28 50  1  0
M  END
