
     RDKit          3D

  4  3  0  0  0  0  0  0  0  0999 V2000
   -0.0827    0.1270    0.6708 O   0  0  0  0  0  0  0  0  0  0  0  0
    0.0831    0.2065   -0.7362 O   0  0  0  0  0  0  0  0  0  0  0  0
    0.7854   -0.1979    0.9391 H   0  0  0  0  0  0  0  0  0  0  0  0
   -0.7604   -0.1507   -1.0398 H   0  0  0  0  0  0  0  0  0  0  0  0
  1  2  1  0
  1  3  1  0
  2  4  1  0
M  END
