
     RDKit          3D

 43 43  0  0  0  0  0  0  0  0999 V2000
   79.6911   43.9584  -14.3343 N   0  0  0  0  0  0  0  0  0  0  0  0
   79.6918   44.0488  -12.8981 C   0  0  2  0  0  0  0  0  0  0  0  0
   78.7642   43.0133  -12.2798 C   0  0  0  0  0  0  0  0  0  0  0  0
   78.3684   43.0842  -11.1444 O   0  0  0  0  0  0  0  0  0  0  0  0
   79.3233   45.4678  -12.4559 C   0  0  0  0  0  0  0  0  0  0  0  0
   77.9533   45.9247  -12.9347 C   0  0  0  0  0  0  0  0  0  0  0  0
   77.6879   47.6415  -12.4095 S   0  0  0  0  0  0  0  0  0  0  0  0
   76.0230   47.9100  -13.0544 C   0  0  0  0  0  0  0  0  0  0  0  0
   78.4881   42.0160  -13.0995 O   0  0  0  0  0  0  0  0  0  0  0  0
   79.7333   43.9509  -18.5574 C   0  0  0  0  0  0  0  0  0  0  0  0
   78.5074   44.2371  -19.3652 C   0  0  0  0  0  0  0  0  0  0  0  0
   79.6621   43.9485  -17.1478 C   0  0  0  0  0  0  0  0  0  0  0  0
   80.8212   43.6894  -16.4058 C   0  0  0  0  0  0  0  0  0  0  0  0
   80.7801   43.7268  -14.9461 C   0  0  0  0  0  0  0  0  0  0  0  0
   82.0079   43.4174  -17.1074 C   0  0  0  0  0  0  0  0  0  0  0  0
   83.2930   43.0916  -16.4142 C   0  0  0  0  0  0  0  0  0  0  0  0
   81.9664   43.4330  -18.4849 C   0  0  0  0  0  0  0  0  0  0  0  0
   80.8643   43.7008  -19.1849 N   0  0  0  0  0  0  0  0  0  0  0  0
   83.8374   39.8560  -14.3325 O   0  0  0  0  0  0  0  0  0  0  0  0
   85.6115   41.2045  -15.5332 O   0  0  0  0  0  0  0  0  0  0  0  0
   84.3077   42.3505  -13.6442 O   0  0  0  0  0  0  0  0  0  0  0  0
   83.1210   41.8355  -15.7416 O   0  0  0  0  0  0  0  0  0  0  0  0
   84.2138   41.2121  -14.7606 P   0  0  2  0  0  0  0  0  0  0  0  0
   80.6891   43.8247  -12.4893 H   0  0  0  0  0  0  0  0  0  0  0  0
   79.3778   45.5157  -11.3676 H   0  0  0  0  0  0  0  0  0  0  0  0
   80.0930   46.1405  -12.8396 H   0  0  0  0  0  0  0  0  0  0  0  0
   77.8806   45.8747  -14.0221 H   0  0  0  0  0  0  0  0  0  0  0  0
   77.1607   45.3030  -12.5130 H   0  0  0  0  0  0  0  0  0  0  0  0
   75.7410   48.9341  -12.8169 H   0  0  0  0  0  0  0  0  0  0  0  0
   75.9935   47.7832  -14.1358 H   0  0  0  0  0  0  0  0  0  0  0  0
   75.3057   47.2341  -12.5914 H   0  0  0  0  0  0  0  0  0  0  0  0
   77.9309   41.3621  -12.6497 H   0  0  0  0  0  0  0  0  0  0  0  0
   78.7500   44.2214  -20.4254 H   0  0  0  0  0  0  0  0  0  0  0  0
   77.7264   43.4975  -19.1793 H   0  0  0  0  0  0  0  0  0  0  0  0
   78.0853   45.2134  -19.1210 H   0  0  0  0  0  0  0  0  0  0  0  0
   81.7057   43.5626  -14.3921 H   0  0  0  0  0  0  0  0  0  0  0  0
   84.0948   43.0136  -17.1511 H   0  0  0  0  0  0  0  0  0  0  0  0
   83.5687   43.8737  -15.7022 H   0  0  0  0  0  0  0  0  0  0  0  0
   82.8630   43.2217  -19.0576 H   0  0  0  0  0  0  0  0  0  0  0  0
   86.0603   42.0525  -15.6475 H   0  0  0  0  0  0  0  0  0  0  0  0
   78.6099   44.1428  -15.5980 H   0  0  0  0  0  0  0  0  0  0  0  0
   84.9066   42.1580  -12.9091 H   0  0  0  0  0  0  0  0  0  0  0  0
   78.4853   44.1937  -16.5855 O   0  0  0  0  0  0  0  0  0  0  0  0
  1  2  1  0
  1 14  2  0
  2  3  1  0
  2  5  1  0
  2 24  1  1
  3  4  2  0
  3  9  1  0
  5  6  1  0
  5 25  1  0
  5 26  1  0
  6  7  1  0
  6 27  1  0
  6 28  1  0
  7  8  1  0
  8 29  1  0
  8 30  1  0
  8 31  1  0
  9 32  1  0
 10 11  1  0
 10 12  2  0
 10 18  1  0
 11 33  1  0
 11 34  1  0
 11 35  1  0
 12 13  1  0
 12 43  1  0
 13 14  1  0
 13 15  2  0
 14 36  1  0
 15 16  1  0
 15 17  1  0
 16 22  1  0
 16 37  1  0
 16 38  1  0
 17 18  2  0
 17 39  1  0
 19 23  2  0
 23 20  1  6
 20 40  1  0
 43 41  1  0
 21 23  1  0
 21 42  1  0
 22 23  1  0
M  END
