
     RDKit          3D

 70 73  0  0  0  0  0  0  0  0999 V2000
   -5.4267    1.2809    0.4380 C   0  0  0  0  0  0  0  0  0  0  0  0
   -6.6541    1.5410   -0.1914 C   0  0  0  0  0  0  0  0  0  0  0  0
   -7.3951    2.6451    0.2267 C   0  0  0  0  0  0  0  0  0  0  0  0
   -4.5804    0.1256    0.0617 C   0  0  0  0  0  0  0  0  0  0  0  0
   -5.0961   -1.1910    0.0845 C   0  0  0  0  0  0  0  0  0  0  0  0
   -3.2582    0.3033   -0.2787 C   0  0  0  0  0  0  0  0  0  0  0  0
   -0.3002   -1.7419   -1.2431 C   0  0  0  0  0  0  0  0  0  0  0  0
   -7.1791    0.6924   -1.3159 C   0  0  0  0  0  0  0  0  0  0  0  0
    2.0130   -1.4030   -0.2757 C   0  0  2  0  0  0  0  0  0  0  0  0
    3.4634   -1.1725   -0.6635 C   0  0  0  0  0  0  0  0  0  0  0  0
    5.8074    1.6019    0.1925 C   0  0  2  0  0  0  0  0  0  0  0  0
    5.5108    4.0919   -0.1393 C   0  0  0  0  0  0  0  0  0  0  0  0
    7.7400    3.1886    0.5892 C   0  0  0  0  0  0  0  0  0  0  0  0
    5.0938    2.6983   -0.5996 C   0  0  0  0  0  0  0  0  0  0  0  0
    7.0231    4.2738   -0.2064 C   0  0  0  0  0  0  0  0  0  0  0  0
    7.3226    1.7957    0.1302 C   0  0  0  0  0  0  0  0  0  0  0  0
    5.4544    0.2049   -0.2989 C   0  0  0  0  0  0  0  0  0  0  0  0
    4.0460   -0.0886   -0.1335 N   0  0  0  0  0  0  0  0  0  0  0  0
    4.0593   -1.9482   -1.4018 O   0  0  0  0  0  0  0  0  0  0  0  0
    1.9304   -2.6069    0.6673 C   0  0  0  0  0  0  0  0  0  0  0  0
    2.6762   -2.4139    1.9826 C   0  0  0  0  0  0  0  0  0  0  0  0
    2.4974   -3.5964    2.9242 C   0  0  0  0  0  0  0  0  0  0  0  0
    1.1631   -1.5725   -1.5474 C   0  0  0  0  0  0  0  0  0  0  0  0
   -0.9498   -3.0273   -1.2143 C   0  0  0  0  0  0  0  0  0  0  0  0
   -2.2145   -3.1831   -0.8983 N   0  0  0  0  0  0  0  0  0  0  0  0
   -0.2630   -4.1462   -1.5682 N   0  0  0  0  0  0  0  0  0  0  0  0
   -1.0683   -0.6575   -0.9465 C   0  0  0  0  0  0  0  0  0  0  0  0
   -2.4357   -0.7911   -0.6044 C   0  0  0  0  0  0  0  0  0  0  0  0
   -2.9616   -2.1014   -0.5896 C   0  0  0  0  0  0  0  0  0  0  0  0
   -4.3166   -2.2721   -0.2317 C   0  0  0  0  0  0  0  0  0  0  0  0
   -4.9795    2.1394    1.4443 C   0  0  0  0  0  0  0  0  0  0  0  0
   -5.7287    3.2337    1.8468 C   0  0  0  0  0  0  0  0  0  0  0  0
   -6.9494    3.4841    1.2373 C   0  0  0  0  0  0  0  0  0  0  0  0
   -8.3404    2.8571   -0.2593 H   0  0  0  0  0  0  0  0  0  0  0  0
   -6.1265   -1.3515    0.3760 H   0  0  0  0  0  0  0  0  0  0  0  0
   -2.8350    1.3014   -0.3095 H   0  0  0  0  0  0  0  0  0  0  0  0
   -7.7374   -0.1707   -0.9479 H   0  0  0  0  0  0  0  0  0  0  0  0
   -7.8579    1.2669   -1.9457 H   0  0  0  0  0  0  0  0  0  0  0  0
   -6.3788    0.3096   -1.9485 H   0  0  0  0  0  0  0  0  0  0  0  0
    1.6327   -0.5264    0.2597 H   0  0  0  0  0  0  0  0  0  0  0  0
    5.5044    1.6847    1.2461 H   0  0  0  0  0  0  0  0  0  0  0  0
    5.0097    4.8495   -0.7464 H   0  0  0  0  0  0  0  0  0  0  0  0
    5.1723    4.2484    0.8909 H   0  0  0  0  0  0  0  0  0  0  0  0
    8.8231    3.3009    0.4977 H   0  0  0  0  0  0  0  0  0  0  0  0
    7.5057    3.3032    1.6532 H   0  0  0  0  0  0  0  0  0  0  0  0
    5.3303    2.5777   -1.6638 H   0  0  0  0  0  0  0  0  0  0  0  0
    4.0093    2.5929   -0.5125 H   0  0  0  0  0  0  0  0  0  0  0  0
    7.3461    4.2285   -1.2523 H   0  0  0  0  0  0  0  0  0  0  0  0
    7.3034    5.2630    0.1633 H   0  0  0  0  0  0  0  0  0  0  0  0
    7.8183    1.0353    0.7401 H   0  0  0  0  0  0  0  0  0  0  0  0
    7.6617    1.6361   -0.9006 H   0  0  0  0  0  0  0  0  0  0  0  0
    5.7178    0.1131   -1.3557 H   0  0  0  0  0  0  0  0  0  0  0  0
    6.0542   -0.5348    0.2424 H   0  0  0  0  0  0  0  0  0  0  0  0
    3.5173    0.4713    0.5159 H   0  0  0  0  0  0  0  0  0  0  0  0
    0.8786   -2.8059    0.8921 H   0  0  0  0  0  0  0  0  0  0  0  0
    2.3133   -3.4966    0.1575 H   0  0  0  0  0  0  0  0  0  0  0  0
    3.7430   -2.2613    1.7969 H   0  0  0  0  0  0  0  0  0  0  0  0
    2.3193   -1.5007    2.4684 H   0  0  0  0  0  0  0  0  0  0  0  0
    1.4442   -3.7579    3.1610 H   0  0  0  0  0  0  0  0  0  0  0  0
    2.8801   -4.5168    2.4800 H   0  0  0  0  0  0  0  0  0  0  0  0
    3.0271   -3.4381    3.8641 H   0  0  0  0  0  0  0  0  0  0  0  0
    1.5562   -2.3966   -2.1440 H   0  0  0  0  0  0  0  0  0  0  0  0
    1.2834   -0.6803   -2.1668 H   0  0  0  0  0  0  0  0  0  0  0  0
    0.7401   -4.1535   -1.5233 H   0  0  0  0  0  0  0  0  0  0  0  0
   -0.6970   -5.0272   -1.3469 H   0  0  0  0  0  0  0  0  0  0  0  0
   -0.6276    0.3340   -0.9695 H   0  0  0  0  0  0  0  0  0  0  0  0
   -4.7253   -3.2742   -0.1997 H   0  0  0  0  0  0  0  0  0  0  0  0
   -4.0317    1.9335    1.9266 H   0  0  0  0  0  0  0  0  0  0  0  0
   -5.3617    3.8812    2.6327 H   0  0  0  0  0  0  0  0  0  0  0  0
   -7.5500    4.3317    1.5414 H   0  0  0  0  0  0  0  0  0  0  0  0
  4  1  1  0
  1  2  2  0
  1 31  1  0
  8  2  1  0
  2  3  1  0
  3 33  2  0
  3 34  1  0
  5  4  2  0
  6  4  1  0
 30  5  1  0
  5 35  1  0
 28  6  2  0
  6 36  1  0
 24  7  1  0
 23  7  1  0
  7 27  2  0
  8 37  1  0
  8 38  1  0
  8 39  1  0
 23  9  1  0
 20  9  1  0
  9 10  1  0
  9 40  1  1
 10 18  1  0
 10 19  2  0
 14 11  1  0
 17 11  1  0
 11 16  1  0
 11 41  1  1
 14 12  1  0
 12 15  1  0
 12 42  1  0
 12 43  1  0
 15 13  1  0
 16 13  1  0
 13 44  1  0
 13 45  1  0
 14 46  1  0
 14 47  1  0
 15 48  1  0
 15 49  1  0
 16 50  1  0
 16 51  1  0
 18 17  1  0
 17 52  1  0
 17 53  1  0
 18 54  1  0
 20 21  1  0
 20 55  1  0
 20 56  1  0
 21 22  1  0
 21 57  1  0
 21 58  1  0
 22 59  1  0
 22 60  1  0
 22 61  1  0
 23 62  1  0
 23 63  1  0
 26 24  1  0
 24 25  2  0
 25 29  1  0
 26 64  1  0
 26 65  1  0
 27 28  1  0
 27 66  1  0
 29 28  1  0
 29 30  2  0
 30 67  1  0
 31 32  2  0
 31 68  1  0
 32 33  1  0
 32 69  1  0
 33 70  1  0
M  END
