
     RDKit          3D

 38 41  0  0  0  0  0  0  0  0999 V2000
   -1.3647    1.6557    0.3882 O   0  0  0  0  0  0  0  0  0  0  0  0
   -2.4851    0.9941    0.2125 C   0  0  0  0  0  0  0  0  0  0  0  0
   -2.3912   -0.4095    0.0195 C   0  0  0  0  0  0  0  0  0  0  0  0
   -3.7381    1.5875    0.2203 C   0  0  0  0  0  0  0  0  0  0  0  0
   -3.8599    2.9826    0.4030 C   0  0  0  0  0  0  0  0  0  0  0  0
   -3.9253    4.1251    0.5550 N   0  0  0  0  0  0  0  0  0  0  0  0
   -4.9690    0.8434    0.0636 C   0  0  0  0  0  0  0  0  0  0  0  0
   -6.0806    1.3446    0.0635 O   0  0  0  0  0  0  0  0  0  0  0  0
   -4.7961   -0.5178   -0.0806 N   0  0  0  0  0  0  0  0  0  0  0  0
   -3.5810   -1.1060   -0.0947 C   0  0  0  0  0  0  0  0  0  0  0  0
   -3.3398   -2.7957   -0.2214 S   0  0  0  0  0  0  0  0  0  0  0  0
   -1.6253   -2.5818   -0.1321 C   0  0  0  0  0  0  0  0  0  0  0  0
   -1.2470   -1.2866   -0.0145 C   0  0  0  0  0  0  0  0  0  0  0  0
    0.1727   -0.8931    0.0390 C   0  0  0  0  0  0  0  0  0  0  0  0
    1.0040   -1.4143    1.0250 C   0  0  0  0  0  0  0  0  0  0  0  0
    2.3542   -1.0965    1.0516 C   0  0  0  0  0  0  0  0  0  0  0  0
    0.7258   -0.0491   -0.9232 C   0  0  0  0  0  0  0  0  0  0  0  0
    2.0732    0.2634   -0.8983 C   0  0  0  0  0  0  0  0  0  0  0  0
    2.9115   -0.2526    0.0931 C   0  0  0  0  0  0  0  0  0  0  0  0
    4.3438    0.1068    0.1704 C   0  0  0  0  0  0  0  0  0  0  0  0
    4.8797    0.5659    1.3727 C   0  0  0  0  0  0  0  0  0  0  0  0
    6.2199    0.8999    1.4969 C   0  0  0  0  0  0  0  0  0  0  0  0
    7.0534    0.7715    0.3950 C   0  0  0  0  0  0  0  0  0  0  0  0
    6.5486    0.3109   -0.8111 C   0  0  0  0  0  0  0  0  0  0  0  0
    5.2021   -0.0240   -0.9304 C   0  0  0  0  0  0  0  0  0  0  0  0
    4.6892   -0.5000   -2.0816 O   0  0  0  0  0  0  0  0  0  0  0  0
   -1.4974    2.6063    0.5132 H   0  0  0  0  0  0  0  0  0  0  0  0
   -5.6337   -1.0766   -0.1823 H   0  0  0  0  0  0  0  0  0  0  0  0
   -0.9843   -3.4470   -0.2053 H   0  0  0  0  0  0  0  0  0  0  0  0
    0.5933   -2.0695    1.7830 H   0  0  0  0  0  0  0  0  0  0  0  0
    0.1016    0.3626   -1.7061 H   0  0  0  0  0  0  0  0  0  0  0  0
    2.9817   -1.5201    1.8260 H   0  0  0  0  0  0  0  0  0  0  0  0
    2.4714    0.9291   -1.6522 H   0  0  0  0  0  0  0  0  0  0  0  0
    4.2201    0.6745    2.2252 H   0  0  0  0  0  0  0  0  0  0  0  0
    6.6056    1.2602    2.4409 H   0  0  0  0  0  0  0  0  0  0  0  0
    8.1024    1.0272    0.4683 H   0  0  0  0  0  0  0  0  0  0  0  0
    7.2068    0.2022   -1.6662 H   0  0  0  0  0  0  0  0  0  0  0  0
    5.3781   -0.5597   -2.7532 H   0  0  0  0  0  0  0  0  0  0  0  0
  1  2  1  0
  2  3  1  0
  2  4  2  0
  3 10  2  0
  3 13  1  0
  4  5  1  0
  4  7  1  0
  5  6  3  0
  7  8  2  0
  7  9  1  0
  9 10  1  0
 10 11  1  0
 11 12  1  0
 12 13  2  0
 13 14  1  0
 14 15  2  0
 14 17  1  0
 15 16  1  0
 16 19  2  0
 17 18  2  0
 18 19  1  0
 19 20  1  0
 20 21  2  0
 20 25  1  0
 21 22  1  0
 22 23  2  0
 23 24  1  0
 24 25  2  0
 25 26  1  0
  1 27  1  0
  9 28  1  0
 12 29  1  0
 15 30  1  0
 17 31  1  0
 16 32  1  0
 18 33  1  0
 21 34  1  0
 22 35  1  0
 23 36  1  0
 24 37  1  0
 26 38  1  0
M  END
