
     RDKit          3D

 29 30  0  0  0  0  0  0  0  0999 V2000
   -3.2659    0.0220    0.3933 N   0  0  0  0  0  0  0  0  0  0  0  0
   -1.1202   -0.9714    1.0026 C   0  0  0  0  0  0  0  0  0  0  0  0
    0.2551   -1.3112    0.5357 C   0  0  0  0  0  0  0  0  0  0  0  0
    0.7500   -2.5570    0.2640 C   0  0  0  0  0  0  0  0  0  0  0  0
    2.4184   -1.1600   -0.1962 C   0  0  0  0  0  0  0  0  0  0  0  0
    1.3158   -0.3952    0.2462 C   0  0  0  0  0  0  0  0  0  0  0  0
    2.6332    1.5538   -0.0361 C   0  0  0  0  0  0  0  0  0  0  0  0
   -5.4780    0.9884    0.3618 C   0  0  0  0  0  0  0  0  0  0  0  0
    3.7258    0.8046   -0.4808 C   0  0  0  0  0  0  0  0  0  0  0  0
    3.6258   -0.5708   -0.5631 C   0  0  0  0  0  0  0  0  0  0  0  0
   -4.1391    0.7687   -0.2982 C   0  0  0  0  0  0  0  0  0  0  0  0
   -1.9471   -0.3132   -0.0995 C   0  0  0  0  0  0  0  0  0  0  0  0
    1.4321    0.9988    0.3288 C   0  0  0  0  0  0  0  0  0  0  0  0
    2.7792    2.8941    0.0339 F   0  0  0  0  0  0  0  0  0  0  0  0
    2.0392   -2.4709   -0.1723 N   0  0  0  0  0  0  0  0  0  0  0  0
   -3.8739    1.2419   -1.3968 O   0  0  0  0  0  0  0  0  0  0  0  0
   -3.5553   -0.3725    1.2732 H   0  0  0  0  0  0  0  0  0  0  0  0
   -1.6255   -1.8794    1.3423 H   0  0  0  0  0  0  0  0  0  0  0  0
   -1.0726   -0.2978    1.8644 H   0  0  0  0  0  0  0  0  0  0  0  0
    0.2657   -3.5167    0.3580 H   0  0  0  0  0  0  0  0  0  0  0  0
   -5.6857    2.0567    0.4156 H   0  0  0  0  0  0  0  0  0  0  0  0
   -6.2598    0.5369   -0.2498 H   0  0  0  0  0  0  0  0  0  0  0  0
   -5.5462    0.5727    1.3655 H   0  0  0  0  0  0  0  0  0  0  0  0
    4.6430    1.3059   -0.7601 H   0  0  0  0  0  0  0  0  0  0  0  0
    4.4645   -1.1629   -0.9052 H   0  0  0  0  0  0  0  0  0  0  0  0
   -2.0142   -0.9904   -0.9558 H   0  0  0  0  0  0  0  0  0  0  0  0
   -1.4488    0.5935   -0.4494 H   0  0  0  0  0  0  0  0  0  0  0  0
    0.6129    1.6211    0.6682 H   0  0  0  0  0  0  0  0  0  0  0  0
    2.6168   -3.2553   -0.4239 H   0  0  0  0  0  0  0  0  0  0  0  0
 14  7  1  0
 13  7  1  0
 13  6  2  0
  7  9  2  0
  2 12  1  0
  2  3  1  0
 12  1  1  0
  6  3  1  0
  6  5  1  0
  9 10  1  0
  3  4  2  0
  1 11  1  0
  5 10  2  0
  5 15  1  0
 11  8  1  0
 11 16  2  0
  4 15  1  0
  1 17  1  0
  2 18  1  0
  2 19  1  0
  4 20  1  0
  8 21  1  0
  8 22  1  0
  8 23  1  0
  9 24  1  0
 10 25  1  0
 12 26  1  0
 12 27  1  0
 13 28  1  0
 15 29  1  0
M  END
