
     RDKit          3D

 29 30  0  0  0  0  0  0  0  0999 V2000
   -0.5372   -0.1850    0.0195 N   0  0  0  0  0  0  0  0  0  0  0  0
   -1.7579    0.2263    0.0130 C   0  0  0  0  0  0  0  0  0  0  0  0
   -2.1041    1.6527    0.0068 C   0  0  0  0  0  0  0  0  0  0  0  0
   -3.6616   -3.1506    0.0036 C   0  0  0  0  0  0  0  0  0  0  0  0
   -2.4653   -2.2104   -0.0140 C   0  0  0  0  0  0  0  0  0  0  0  0
   -2.8902   -0.7506    0.0127 C   0  0  0  0  0  0  0  0  0  0  0  0
    0.5147    0.6836    0.0201 C   0  0  0  0  0  0  0  0  0  0  0  0
    0.2744    2.0214    0.0042 C   0  0  0  0  0  0  0  0  0  0  0  0
    1.8611    0.0908    0.0312 C   0  0  0  0  0  0  0  0  0  0  0  0
    2.0307   -1.2909   -0.0515 C   0  0  0  0  0  0  0  0  0  0  0  0
    3.0230    0.8609    0.1274 C   0  0  0  0  0  0  0  0  0  0  0  0
    4.2481    0.3588    0.1387 N   0  0  0  0  0  0  0  0  0  0  0  0
    4.3889   -0.9599    0.0565 C   0  0  0  0  0  0  0  0  0  0  0  0
    3.3087   -1.8226   -0.0385 C   0  0  0  0  0  0  0  0  0  0  0  0
   -3.2442    2.0940    0.0074 O   0  0  0  0  0  0  0  0  0  0  0  0
   -1.0032    2.4654   -0.0023 N   0  0  0  0  0  0  0  0  0  0  0  0
   -3.5169   -0.5584    0.8914 H   0  0  0  0  0  0  0  0  0  0  0  0
   -3.5397   -0.5342   -0.8430 H   0  0  0  0  0  0  0  0  0  0  0  0
   -1.1645    3.4647   -0.0089 H   0  0  0  0  0  0  0  0  0  0  0  0
   -4.3101   -2.9909   -0.8597 H   0  0  0  0  0  0  0  0  0  0  0  0
   -3.3407   -4.1925   -0.0155 H   0  0  0  0  0  0  0  0  0  0  0  0
   -4.2679   -3.0102    0.9004 H   0  0  0  0  0  0  0  0  0  0  0  0
   -1.8166   -2.4210    0.8389 H   0  0  0  0  0  0  0  0  0  0  0  0
   -1.8607   -2.3990   -0.9040 H   0  0  0  0  0  0  0  0  0  0  0  0
    1.0353    2.7863   -0.0065 H   0  0  0  0  0  0  0  0  0  0  0  0
    1.1683   -1.9389   -0.1253 H   0  0  0  0  0  0  0  0  0  0  0  0
    2.9646    1.9413    0.2039 H   0  0  0  0  0  0  0  0  0  0  0  0
    3.4654   -2.8907   -0.1017 H   0  0  0  0  0  0  0  0  0  0  0  0
    5.4027   -1.3435    0.0687 H   0  0  0  0  0  0  0  0  0  0  0  0
  1  2  2  0
  1  7  1  0
  2  3  1  0
  2  6  1  0
  3 15  2  0
  3 16  1  0
  4  5  1  0
  5  6  1  0
  7  8  2  0
  7  9  1  0
  8 16  1  0
  9 10  2  0
  9 11  1  0
 10 14  1  0
 11 12  2  0
 12 13  1  0
 13 14  2  0
  6 17  1  0
  6 18  1  0
 16 19  1  0
  4 20  1  0
  4 21  1  0
  4 22  1  0
  5 23  1  0
  5 24  1  0
  8 25  1  0
 10 26  1  0
 11 27  1  0
 14 28  1  0
 13 29  1  0
M  END
