
     RDKit          3D

 57 60  0  0  0  0  0  0  0  0999 V2000
    1.7194   -2.9620    1.0780 O   0  0  0  0  0  0  0  0  0  0  0  0
    1.7208   -1.7388    1.0731 C   0  0  0  0  0  0  0  0  0  0  0  0
    3.0199   -0.9366    1.0817 C   0  0  2  0  0  0  0  0  0  0  0  0
    3.5871   -0.9450   -0.3485 C   0  0  0  0  0  0  0  0  0  0  0  0
    4.7375    0.0044   -0.5107 C   0  0  0  0  0  0  0  0  0  0  0  0
    6.0497   -0.3930   -0.2938 C   0  0  0  0  0  0  0  0  0  0  0  0
    7.1143    0.4944   -0.4124 C   0  0  0  0  0  0  0  0  0  0  0  0
    6.8719    1.8227   -0.7519 C   0  0  0  0  0  0  0  0  0  0  0  0
    7.8289    2.7635   -0.8887 O   0  0  0  0  0  0  0  0  0  0  0  0
    9.1736    2.3940   -0.6646 C   0  0  0  0  0  0  0  0  0  0  0  0
    5.5580    2.2383   -0.9749 C   0  0  0  0  0  0  0  0  0  0  0  0
    4.5152    1.3377   -0.8545 C   0  0  0  0  0  0  0  0  0  0  0  0
    4.0000   -1.4441    2.0132 N   0  0  0  0  0  0  0  0  0  0  0  0
    0.5913   -1.0131    1.0114 N   0  0  0  0  0  0  0  0  0  0  0  0
   -0.7125   -1.6312    1.0005 C   0  0  2  0  0  0  0  0  0  0  0  0
   -1.0468   -2.2505   -0.3592 C   0  0  1  0  0  0  0  0  0  0  0  0
   -2.1003   -3.3386   -0.2699 C   0  0  0  0  0  0  0  0  0  0  0  0
   -2.4215   -3.7412   -1.5772 O   0  0  0  0  0  0  0  0  0  0  0  0
   -1.8063   -0.5686    1.1167 C   0  0  1  0  0  0  0  0  0  0  0  0
   -1.4551    0.4840    1.9566 O   0  0  0  0  0  0  0  0  0  0  0  0
   -2.0112   -0.1494   -0.3581 C   0  0  1  0  0  0  0  0  0  0  0  0
   -1.4920   -1.1529   -1.1584 O   0  0  0  0  0  0  0  0  0  0  0  0
   -3.4270    0.0419   -0.6526 N   0  0  0  0  0  0  0  0  0  0  0  0
   -4.2004   -0.5204   -1.6291 C   0  0  0  0  0  0  0  0  0  0  0  0
   -5.4225   -0.0680   -1.6362 N   0  0  0  0  0  0  0  0  0  0  0  0
   -5.4577    0.8438   -0.6140 C   0  0  0  0  0  0  0  0  0  0  0  0
   -4.2243    0.9208    0.0095 C   0  0  0  0  0  0  0  0  0  0  0  0
   -6.4644    1.6794   -0.0933 C   0  0  0  0  0  0  0  0  0  0  0  0
   -7.6991    1.7200   -0.5889 N   0  0  0  0  0  0  0  0  0  0  0  0
   -6.1537    2.4620    0.9493 N   0  0  0  0  0  0  0  0  0  0  0  0
   -4.9275    2.4237    1.4557 C   0  0  0  0  0  0  0  0  0  0  0  0
   -3.9023    1.6890    1.0538 N   0  0  0  0  0  0  0  0  0  0  0  0
    2.8006    0.1009    1.3533 H   0  0  0  0  0  0  0  0  0  0  0  0
    3.8949   -1.9653   -0.5940 H   0  0  0  0  0  0  0  0  0  0  0  0
    2.7900   -0.6817   -1.0490 H   0  0  0  0  0  0  0  0  0  0  0  0
    6.2603   -1.4218   -0.0297 H   0  0  0  0  0  0  0  0  0  0  0  0
    8.1174    0.1307   -0.2345 H   0  0  0  0  0  0  0  0  0  0  0  0
    9.3386    2.0492    0.3598 H   0  0  0  0  0  0  0  0  0  0  0  0
    9.5051    1.6134   -1.3544 H   0  0  0  0  0  0  0  0  0  0  0  0
    9.7727    3.2856   -0.8340 H   0  0  0  0  0  0  0  0  0  0  0  0
    5.3618    3.2687   -1.2449 H   0  0  0  0  0  0  0  0  0  0  0  0
    3.5033    1.6819   -1.0367 H   0  0  0  0  0  0  0  0  0  0  0  0
    3.6524   -1.3712    2.9613 H   0  0  0  0  0  0  0  0  0  0  0  0
    4.1557   -2.4302    1.8406 H   0  0  0  0  0  0  0  0  0  0  0  0
    0.6482   -0.0147    1.1422 H   0  0  0  0  0  0  0  0  0  0  0  0
   -0.7888   -2.3673    1.8051 H   0  0  0  0  0  0  0  0  0  0  0  0
   -0.1593   -2.6584   -0.8458 H   0  0  0  0  0  0  0  0  0  0  0  0
   -1.6795   -4.1600    0.3246 H   0  0  0  0  0  0  0  0  0  0  0  0
   -2.9868   -2.9792    0.2706 H   0  0  0  0  0  0  0  0  0  0  0  0
   -3.1175   -4.4023   -1.5261 H   0  0  0  0  0  0  0  0  0  0  0  0
   -2.7172   -1.0723    1.4667 H   0  0  0  0  0  0  0  0  0  0  0  0
   -2.1879    1.1270    1.9076 H   0  0  0  0  0  0  0  0  0  0  0  0
   -1.5033    0.7988   -0.5682 H   0  0  0  0  0  0  0  0  0  0  0  0
   -3.8097   -1.2725   -2.2965 H   0  0  0  0  0  0  0  0  0  0  0  0
   -7.9622    1.1605   -1.3812 H   0  0  0  0  0  0  0  0  0  0  0  0
   -8.3804    2.3512   -0.2032 H   0  0  0  0  0  0  0  0  0  0  0  0
   -4.7468    3.0745    2.3038 H   0  0  0  0  0  0  0  0  0  0  0  0
 29 28  1  0
 25 26  1  0
 25 24  2  0
 28 26  2  0
 28 30  1  0
 26 27  1  0
 24 23  1  0
 30 31  2  0
 27 23  1  0
 27 32  2  0
 23 21  1  0
 31 32  1  0
 22 21  1  0
 22 16  1  0
 21 19  1  0
 16 17  1  0
 16 15  1  0
 17 18  1  0
 19 20  1  0
 19 15  1  0
 15 14  1  0
  1  2  2  0
 10  9  1  0
 14  2  1  0
  2  3  1  0
  9  8  1  0
  8 11  2  0
  8  7  1  0
 11 12  1  0
  7  6  2  0
 12  5  2  0
  6  5  1  0
  5  4  1  0
  3  4  1  0
  3 13  1  0
  3 33  1  1
  4 34  1  0
  4 35  1  0
  6 36  1  0
  7 37  1  0
 10 38  1  0
 10 39  1  0
 10 40  1  0
 11 41  1  0
 12 42  1  0
 13 43  1  0
 13 44  1  0
 14 45  1  0
 15 46  1  1
 16 47  1  6
 17 48  1  0
 17 49  1  0
 18 50  1  0
 19 51  1  1
 20 52  1  0
 21 53  1  1
 24 54  1  0
 29 55  1  0
 29 56  1  0
 31 57  1  0
M  END
