
     RDKit          3D

 27 28  0  0  0  0  0  0  0  0999 V2000
    1.1513    0.2618    2.3734 C   0  0  0  0  0  0  0  0  0  0  0  0
   -0.1488   -0.0061    3.1339 C   0  0  2  0  0  0  0  0  0  0  0  0
   -1.3359    0.0480    2.1786 C   0  0  0  0  0  0  0  0  0  0  0  0
   -1.1567   -0.9002    0.9876 C   0  0  0  0  0  0  0  0  0  0  0  0
    0.1387   -0.6319    0.2943 C   0  0  0  0  0  0  0  0  0  0  0  0
    1.3353   -0.6938    1.1881 C   0  0  0  0  0  0  0  0  0  0  0  0
   -0.3752    0.8958    4.2543 N   0  0  0  0  0  0  0  0  0  0  0  0
    0.1955   -0.3022   -1.0146 C   0  0  0  0  0  0  0  0  0  0  0  0
   -0.8859   -0.1895   -1.8810 N   0  0  0  0  0  0  0  0  0  0  0  0
   -0.3445    0.1520   -3.0125 C   0  0  0  0  0  0  0  0  0  0  0  0
    1.0528    0.2897   -3.0123 N   0  0  0  0  0  0  0  0  0  0  0  0
    1.3803    0.0132   -1.7954 C   0  0  0  0  0  0  0  0  0  0  0  0
   -1.0015    0.3427   -4.1693 N   0  0  0  0  0  0  0  0  0  0  0  0
    1.1443    1.2943    2.0068 H   0  0  0  0  0  0  0  0  0  0  0  0
    2.0051    0.1692    3.0498 H   0  0  0  0  0  0  0  0  0  0  0  0
   -0.0954   -1.0224    3.5448 H   0  0  0  0  0  0  0  0  0  0  0  0
   -2.2548   -0.2061    2.7105 H   0  0  0  0  0  0  0  0  0  0  0  0
   -1.4557    1.0722    1.8076 H   0  0  0  0  0  0  0  0  0  0  0  0
   -1.1414   -1.9315    1.3600 H   0  0  0  0  0  0  0  0  0  0  0  0
   -1.9951   -0.8173    0.2982 H   0  0  0  0  0  0  0  0  0  0  0  0
    1.4248   -1.7167    1.5723 H   0  0  0  0  0  0  0  0  0  0  0  0
    2.2645   -0.4731    0.6645 H   0  0  0  0  0  0  0  0  0  0  0  0
    0.4064    0.8327    4.8959 H   0  0  0  0  0  0  0  0  0  0  0  0
   -0.3695    1.8524    3.9161 H   0  0  0  0  0  0  0  0  0  0  0  0
    2.4084    0.0304   -1.4600 H   0  0  0  0  0  0  0  0  0  0  0  0
   -0.5291    0.8305   -4.9104 H   0  0  0  0  0  0  0  0  0  0  0  0
   -2.0027    0.4338   -4.1450 H   0  0  0  0  0  0  0  0  0  0  0  0
  1  2  1  0
  1  6  1  0
  1 14  1  0
  1 15  1  0
  2  3  1  0
  2  7  1  0
  2 16  1  1
  3  4  1  0
  3 17  1  0
  3 18  1  0
  4  5  1  0
  4 19  1  0
  4 20  1  0
  5  6  1  0
  5  8  2  0
  6 21  1  0
  6 22  1  0
  7 23  1  0
  7 24  1  0
  8  9  1  0
  8 12  1  0
  9 10  2  0
 10 11  1  0
 10 13  1  0
 11 12  2  0
 12 25  1  0
 13 26  1  0
 13 27  1  0
M  END
