
     RDKit          3D

 39 39  0  0  0  0  0  0  0  0999 V2000
   -0.4183    2.2095    0.4488 O   0  0  0  0  0  0  0  0  0  0  0  0
    0.4113    1.8823   -0.3810 C   0  0  0  0  0  0  0  0  0  0  0  0
    1.3230    2.7264   -0.8958 N   0  0  0  0  0  0  0  0  0  0  0  0
    1.4415    3.9904   -0.4072 O   0  0  0  0  0  0  0  0  0  0  0  0
    0.4783    0.4918   -0.9690 C   0  0  0  0  0  0  0  0  0  0  0  0
    0.3092   -0.6001    0.0911 C   0  0  2  0  0  0  0  0  0  0  0  0
   -1.0541   -0.5620    0.7789 C   0  0  0  0  0  0  0  0  0  0  0  0
   -1.1767   -0.5571    1.9938 O   0  0  0  0  0  0  0  0  0  0  0  0
   -2.1141   -0.6193   -0.0488 N   0  0  0  0  0  0  0  0  0  0  0  0
   -3.4695   -0.5311    0.4296 C   0  0  1  0  0  0  0  0  0  0  0  0
   -3.9130    0.9175    0.6579 C   0  0  0  0  0  0  0  0  0  0  0  0
   -4.3845   -1.2247   -0.5587 C   0  0  0  0  0  0  0  0  0  0  0  0
   -4.0491   -1.6148   -1.6483 O   0  0  0  0  0  0  0  0  0  0  0  0
   -5.6146   -1.3303   -0.0833 O   0  0  0  0  0  0  0  0  0  0  0  0
    1.4422   -0.5882    1.1243 C   0  0  0  0  0  0  0  0  0  0  0  0
    2.7968   -0.7371    0.4878 C   0  0  0  0  0  0  0  0  0  0  0  0
    3.6697    0.3431    0.3849 C   0  0  0  0  0  0  0  0  0  0  0  0
    4.9089    0.2047   -0.2290 C   0  0  0  0  0  0  0  0  0  0  0  0
    5.2944   -1.0219   -0.7509 C   0  0  0  0  0  0  0  0  0  0  0  0
    4.4341   -2.1091   -0.6506 C   0  0  0  0  0  0  0  0  0  0  0  0
    3.1981   -1.9652   -0.0370 C   0  0  0  0  0  0  0  0  0  0  0  0
    2.0917    2.4161   -1.4727 H   0  0  0  0  0  0  0  0  0  0  0  0
    0.9300    4.5583   -0.9985 H   0  0  0  0  0  0  0  0  0  0  0  0
   -0.2989    0.4220   -1.7334 H   0  0  0  0  0  0  0  0  0  0  0  0
    1.4151    0.3291   -1.5046 H   0  0  0  0  0  0  0  0  0  0  0  0
    0.3486   -1.5543   -0.4481 H   0  0  0  0  0  0  0  0  0  0  0  0
   -1.9742   -0.5935   -1.0464 H   0  0  0  0  0  0  0  0  0  0  0  0
   -3.5370   -1.0724    1.3768 H   0  0  0  0  0  0  0  0  0  0  0  0
   -4.9182    0.9660    1.0730 H   0  0  0  0  0  0  0  0  0  0  0  0
   -3.2328    1.3947    1.3603 H   0  0  0  0  0  0  0  0  0  0  0  0
   -3.8908    1.4837   -0.2732 H   0  0  0  0  0  0  0  0  0  0  0  0
   -6.1931   -1.7471   -0.7398 H   0  0  0  0  0  0  0  0  0  0  0  0
    1.4062    0.3332    1.7100 H   0  0  0  0  0  0  0  0  0  0  0  0
    1.2816   -1.4057    1.8293 H   0  0  0  0  0  0  0  0  0  0  0  0
    3.3816    1.3044    0.7949 H   0  0  0  0  0  0  0  0  0  0  0  0
    5.5724    1.0571   -0.2982 H   0  0  0  0  0  0  0  0  0  0  0  0
    6.2591   -1.1327   -1.2293 H   0  0  0  0  0  0  0  0  0  0  0  0
    4.7291   -3.0721   -1.0476 H   0  0  0  0  0  0  0  0  0  0  0  0
    2.5367   -2.8211    0.0387 H   0  0  0  0  0  0  0  0  0  0  0  0
 13 12  2  0
 12 10  1  0
 12 14  1  0
  8  7  2  0
 10 11  1  0
 10  9  1  0
  7  9  1  0
  7  6  1  0
  5  6  1  0
  5  2  1  0
  6 15  1  0
 21 20  1  0
 21 16  2  0
 15 16  1  0
  3  2  1  0
  3  4  1  0
  2  1  2  0
 20 19  2  0
 16 17  1  0
 19 18  1  0
 17 18  2  0
  3 22  1  0
  4 23  1  0
  5 24  1  0
  5 25  1  0
  6 26  1  6
  9 27  1  0
 10 28  1  1
 11 29  1  0
 11 30  1  0
 11 31  1  0
 14 32  1  0
 15 33  1  0
 15 34  1  0
 17 35  1  0
 18 36  1  0
 19 37  1  0
 20 38  1  0
 21 39  1  0
M  END
