
     RDKit          3D

 30 33  0  0  0  0  0  0  0  0999 V2000
   -4.1843    2.9943    0.6272 O   0  0  0  0  0  0  0  0  0  0  0  0
   -3.1665    3.2234    0.0238 C   0  0  0  0  0  0  0  0  0  0  0  0
   -2.9209    4.3454   -0.6221 O   0  0  0  0  0  0  0  0  0  0  0  0
   -2.0209    2.2624   -0.0396 C   0  0  0  0  0  0  0  0  0  0  0  0
   -0.8392    2.8139   -0.0819 N   0  0  0  0  0  0  0  0  0  0  0  0
    0.2715    2.0403   -0.0509 C   0  0  0  0  0  0  0  0  0  0  0  0
    1.5307    2.6748   -0.0834 C   0  0  0  0  0  0  0  0  0  0  0  0
    2.6881    1.9438   -0.0563 C   0  0  0  0  0  0  0  0  0  0  0  0
    2.6218    0.5390    0.0065 C   0  0  0  0  0  0  0  0  0  0  0  0
    4.4113   -0.5579    0.0460 I   0  0  0  0  0  0  0  0  0  0  0  0
    1.4210   -0.1194    0.0413 C   0  0  0  0  0  0  0  0  0  0  0  0
    0.2284    0.6285    0.0137 C   0  0  0  0  0  0  0  0  0  0  0  0
   -1.0673    0.0670    0.0335 C   0  0  0  0  0  0  0  0  0  0  0  0
   -2.2197    0.8624    0.0166 C   0  0  0  0  0  0  0  0  0  0  0  0
   -3.3434   -0.0486    0.0082 C   0  0  0  0  0  0  0  0  0  0  0  0
   -4.7355    0.0713   -0.0428 C   0  0  0  0  0  0  0  0  0  0  0  0
   -5.5079   -1.0739   -0.0579 C   0  0  0  0  0  0  0  0  0  0  0  0
   -4.9356   -2.3500   -0.0189 C   0  0  0  0  0  0  0  0  0  0  0  0
   -3.5652   -2.4852    0.0278 C   0  0  0  0  0  0  0  0  0  0  0  0
   -2.8060   -4.0370    0.0678 Cl  0  0  0  0  0  0  0  0  0  0  0  0
   -2.7782   -1.3406    0.0363 C   0  0  0  0  0  0  0  0  0  0  0  0
   -1.4146   -1.2399    0.0575 N   0  0  0  0  0  0  0  0  0  0  0  0
   -3.6674    4.9559   -0.5187 H   0  0  0  0  0  0  0  0  0  0  0  0
    1.5680    3.7551   -0.1302 H   0  0  0  0  0  0  0  0  0  0  0  0
    3.6430    2.4498   -0.0831 H   0  0  0  0  0  0  0  0  0  0  0  0
    1.3816   -1.1995    0.0891 H   0  0  0  0  0  0  0  0  0  0  0  0
   -5.2126    1.0375   -0.0702 H   0  0  0  0  0  0  0  0  0  0  0  0
   -6.5853   -0.9892   -0.0971 H   0  0  0  0  0  0  0  0  0  0  0  0
   -5.5663   -3.2283   -0.0285 H   0  0  0  0  0  0  0  0  0  0  0  0
   -0.7780   -2.0211    0.0672 H   0  0  0  0  0  0  0  0  0  0  0  0
  8  7  1  0
  8  9  2  0
  7  6  2  0
 10  9  1  0
  9 11  1  0
  6  5  1  0
  6 12  1  0
  5  4  2  0
  1  2  2  0
 11 12  2  0
 12 13  1  0
  4  2  1  0
  4 14  1  0
  2  3  1  0
 13 14  2  0
 13 22  1  0
 14 15  1  0
 22 21  1  0
 15 21  2  0
 15 16  1  0
 21 19  1  0
 16 17  2  0
 19 20  1  0
 19 18  2  0
 17 18  1  0
  3 23  1  0
  7 24  1  0
  8 25  1  0
 11 26  1  0
 16 27  1  0
 17 28  1  0
 18 29  1  0
 22 30  1  0
M  END
