
     RDKit          3D

 43 45  0  0  0  0  0  0  0  0999 V2000
    7.5406   -0.9086   -0.6056 C   0  0  0  0  0  0  0  0  0  0  0  0
   -4.9366   -1.7587   -0.1505 C   0  0  0  0  0  0  0  0  0  0  0  0
    4.0523   -0.0096   -0.4333 O   0  0  0  0  0  0  0  0  0  0  0  0
    6.3247   -0.2992   -0.8612 C   0  0  0  0  0  0  0  0  0  0  0  0
    7.6556   -1.8708    0.3931 C   0  0  0  0  0  0  0  0  0  0  0  0
    5.2002   -0.6509   -0.1144 C   0  0  0  0  0  0  0  0  0  0  0  0
    5.3033   -1.6125    0.8858 C   0  0  0  0  0  0  0  0  0  0  0  0
    6.5342   -2.2139    1.1304 C   0  0  0  0  0  0  0  0  0  0  0  0
    2.8887   -0.2942    0.3035 C   0  0  0  0  0  0  0  0  0  0  0  0
    1.8260    0.6287   -0.1897 C   0  0  0  0  0  0  0  0  0  0  0  0
    0.5508    2.4337   -1.1392 C   0  0  0  0  0  0  0  0  0  0  0  0
   -0.1819    1.4956   -0.4690 C   0  0  0  0  0  0  0  0  0  0  0  0
   -1.6366    1.4853   -0.2932 C   0  0  0  0  0  0  0  0  0  0  0  0
   -2.4304    2.5709   -0.6639 C   0  0  0  0  0  0  0  0  0  0  0  0
   -3.8003    2.5389   -0.4977 C   0  0  0  0  0  0  0  0  0  0  0  0
   -4.4412    1.4173    0.0433 C   0  0  0  0  0  0  0  0  0  0  0  0
   -3.6561    0.3135    0.4232 C   0  0  0  0  0  0  0  0  0  0  0  0
   -2.2811    0.3745    0.2515 C   0  0  0  0  0  0  0  0  0  0  0  0
   -4.2885   -0.9399    0.9637 C   0  0  0  0  0  0  0  0  0  0  0  0
   -5.5762   -3.0289    0.3350 C   0  0  0  0  0  0  0  0  0  0  0  0
    0.5704    0.4769    0.0590 N   0  0  0  0  0  0  0  0  0  0  0  0
   -5.8154    1.3876    0.1434 N   0  0  0  0  0  0  0  0  0  0  0  0
   -6.1185   -3.7196   -0.6632 O   0  0  0  0  0  0  0  0  0  0  0  0
   -5.6065   -3.3983    1.4828 O   0  0  0  0  0  0  0  0  0  0  0  0
    2.2153    2.0357   -1.1021 S   0  0  0  0  0  0  0  0  0  0  0  0
    8.4058   -0.6291   -1.1931 H   0  0  0  0  0  0  0  0  0  0  0  0
   -5.6960   -1.1710   -0.6742 H   0  0  0  0  0  0  0  0  0  0  0  0
   -4.1915   -2.0161   -0.9086 H   0  0  0  0  0  0  0  0  0  0  0  0
    6.2365    0.4502   -1.6377 H   0  0  0  0  0  0  0  0  0  0  0  0
    8.6073   -2.3463    0.5887 H   0  0  0  0  0  0  0  0  0  0  0  0
    4.4492   -1.9085    1.4804 H   0  0  0  0  0  0  0  0  0  0  0  0
    6.6037   -2.9610    1.9102 H   0  0  0  0  0  0  0  0  0  0  0  0
    2.5606   -1.3308    0.1706 H   0  0  0  0  0  0  0  0  0  0  0  0
    3.0461   -0.1280    1.3761 H   0  0  0  0  0  0  0  0  0  0  0  0
    0.2062    3.3128   -1.6599 H   0  0  0  0  0  0  0  0  0  0  0  0
   -1.9820    3.4657   -1.0779 H   0  0  0  0  0  0  0  0  0  0  0  0
   -4.3923    3.3990   -0.7886 H   0  0  0  0  0  0  0  0  0  0  0  0
   -1.6906   -0.4834    0.5503 H   0  0  0  0  0  0  0  0  0  0  0  0
   -5.0321   -0.7059    1.7319 H   0  0  0  0  0  0  0  0  0  0  0  0
   -3.5259   -1.5400    1.4620 H   0  0  0  0  0  0  0  0  0  0  0  0
   -6.2685    2.2871    0.1107 H   0  0  0  0  0  0  0  0  0  0  0  0
   -6.2018    0.8101    0.8731 H   0  0  0  0  0  0  0  0  0  0  0  0
   -6.5198   -4.5333   -0.3236 H   0  0  0  0  0  0  0  0  0  0  0  0
  1  4  2  0
  1  5  1  0
  4  6  1  0
  5  8  2  0
  9 10  1  0
  9  3  1  0
 25 10  1  0
 25 11  1  0
  6  3  1  0
  6  7  2  0
 10 21  2  0
  8  7  1  0
 11 12  2  0
 21 12  1  0
 12 13  1  0
 13 18  1  0
 13 14  2  0
 18 17  2  0
 14 15  1  0
 17 19  1  0
 17 16  1  0
 15 16  2  0
 24 20  2  0
 19  2  1  0
 16 22  1  0
 20  2  1  0
 20 23  1  0
  1 26  1  0
  2 27  1  0
  2 28  1  0
  4 29  1  0
  5 30  1  0
  7 31  1  0
  8 32  1  0
  9 33  1  0
  9 34  1  0
 11 35  1  0
 14 36  1  0
 15 37  1  0
 18 38  1  0
 19 39  1  0
 19 40  1  0
 22 41  1  0
 22 42  1  0
 23 43  1  0
M  END
