
     RDKit          3D

 49 49  0  0  0  0  0  0  0  0999 V2000
   -3.3949    1.2922   -1.4848 C   0  0  0  0  0  0  0  0  0  0  0  0
   -2.6856    0.5168   -0.6729 C   0  0  0  0  0  0  0  0  0  0  0  0
   -0.2790   -0.1476   -0.2740 C   0  0  1  0  0  0  0  0  0  0  0  0
    0.2153   -0.2152   -1.7126 C   0  0  0  0  0  0  0  0  0  0  0  0
   -0.4706   -0.1480   -2.7094 O   0  0  0  0  0  0  0  0  0  0  0  0
    1.6705   -0.4052   -1.6706 C   0  0  0  0  0  0  0  0  0  0  0  0
    2.0978   -0.3228   -0.4093 C   0  0  0  0  0  0  0  0  0  0  0  0
    1.0084   -0.0181    0.5755 C   0  0  1  0  0  0  0  0  0  0  0  0
    1.2289    1.3452    1.2448 C   0  0  0  0  0  0  0  0  0  0  0  0
    2.5229    1.4267    2.0472 C   0  0  0  0  0  0  0  0  0  0  0  0
    2.6318    2.7173    2.8501 C   0  0  0  0  0  0  0  0  0  0  0  0
    3.9110    2.8026    3.6735 C   0  0  0  0  0  0  0  0  0  0  0  0
    4.0006    4.0711    4.5127 C   0  0  0  0  0  0  0  0  0  0  0  0
    5.2676    4.1335    5.3572 C   0  0  0  0  0  0  0  0  0  0  0  0
    5.3272    5.3995    6.1963 C   0  0  0  0  0  0  0  0  0  0  0  0
    6.5591    5.5060    7.0510 C   0  0  0  0  0  0  0  0  0  0  0  0
    6.5858    6.6424    7.7431 O   0  0  0  0  0  0  0  0  0  0  0  0
    7.4332    4.6777    7.1203 O   0  0  0  0  0  0  0  0  0  0  0  0
   -1.3828    0.8862   -0.0374 C   0  0  0  0  0  0  0  0  0  0  0  0
   -4.6972    0.9094   -2.1139 C   0  0  0  0  0  0  0  0  0  0  0  0
   -4.5857    0.8109   -3.6342 C   0  0  0  0  0  0  0  0  0  0  0  0
   -3.0012    2.2699   -1.7576 H   0  0  0  0  0  0  0  0  0  0  0  0
   -3.0747   -0.4670   -0.4136 H   0  0  0  0  0  0  0  0  0  0  0  0
   -0.6994   -1.1403   -0.0664 H   0  0  0  0  0  0  0  0  0  0  0  0
    2.2803   -0.5763   -2.5473 H   0  0  0  0  0  0  0  0  0  0  0  0
    3.1308   -0.4355   -0.1049 H   0  0  0  0  0  0  0  0  0  0  0  0
    1.0143   -0.7721    1.3703 H   0  0  0  0  0  0  0  0  0  0  0  0
    1.2092    2.1373    0.4898 H   0  0  0  0  0  0  0  0  0  0  0  0
    0.3922    1.5373    1.9218 H   0  0  0  0  0  0  0  0  0  0  0  0
    3.3886    1.3442    1.3832 H   0  0  0  0  0  0  0  0  0  0  0  0
    2.5787    0.5715    2.7301 H   0  0  0  0  0  0  0  0  0  0  0  0
    1.7670    2.7998    3.5177 H   0  0  0  0  0  0  0  0  0  0  0  0
    2.5758    3.5756    2.1719 H   0  0  0  0  0  0  0  0  0  0  0  0
    3.9741    1.9295    4.3323 H   0  0  0  0  0  0  0  0  0  0  0  0
    4.7789    2.7447    3.0077 H   0  0  0  0  0  0  0  0  0  0  0  0
    3.9543    4.9474    3.8571 H   0  0  0  0  0  0  0  0  0  0  0  0
    3.1240    4.1337    5.1666 H   0  0  0  0  0  0  0  0  0  0  0  0
    6.1436    4.0798    4.7051 H   0  0  0  0  0  0  0  0  0  0  0  0
    5.3117    3.2559    6.0077 H   0  0  0  0  0  0  0  0  0  0  0  0
    4.4536    5.4657    6.8533 H   0  0  0  0  0  0  0  0  0  0  0  0
    5.2785    6.2879    5.5583 H   0  0  0  0  0  0  0  0  0  0  0  0
    7.3896    6.6807    8.2826 H   0  0  0  0  0  0  0  0  0  0  0  0
   -1.0633    1.8762   -0.3728 H   0  0  0  0  0  0  0  0  0  0  0  0
   -1.5391    0.9624    1.0435 H   0  0  0  0  0  0  0  0  0  0  0  0
   -5.0412   -0.0440   -1.7047 H   0  0  0  0  0  0  0  0  0  0  0  0
   -5.4629    1.6499   -1.8617 H   0  0  0  0  0  0  0  0  0  0  0  0
   -3.8515    0.0573   -3.9212 H   0  0  0  0  0  0  0  0  0  0  0  0
   -5.5417    0.5416   -4.0851 H   0  0  0  0  0  0  0  0  0  0  0  0
   -4.2712    1.7609   -4.0698 H   0  0  0  0  0  0  0  0  0  0  0  0
  1  2  2  0
  1 20  1  0
  1 22  1  0
  2 19  1  0
  2 23  1  0
  3  4  1  0
  3  8  1  0
  3 19  1  0
  3 24  1  1
  4  5  2  0
  4  6  1  0
  6  7  2  0
  6 25  1  0
  7  8  1  0
  7 26  1  0
  8  9  1  0
  8 27  1  1
  9 10  1  0
  9 28  1  0
  9 29  1  0
 10 11  1  0
 10 30  1  0
 10 31  1  0
 11 12  1  0
 11 32  1  0
 11 33  1  0
 12 13  1  0
 12 34  1  0
 12 35  1  0
 13 14  1  0
 13 36  1  0
 13 37  1  0
 14 15  1  0
 14 38  1  0
 14 39  1  0
 15 16  1  0
 15 40  1  0
 15 41  1  0
 16 17  1  0
 16 18  2  0
 17 42  1  0
 19 43  1  0
 19 44  1  0
 20 21  1  0
 20 45  1  0
 20 46  1  0
 21 47  1  0
 21 48  1  0
 21 49  1  0
M  END
