
     RDKit          3D

 72 76  0  0  0  0  0  0  0  0999 V2000
   -6.8094    2.3930   -2.4033 C   0  0  0  0  0  0  0  0  0  0  0  0
   -7.6377    3.2064   -1.6459 C   0  0  0  0  0  0  0  0  0  0  0  0
   -0.5535   -5.4198   -1.2524 C   0  0  0  0  0  0  0  0  0  0  0  0
    0.5789   -5.3602   -0.4566 C   0  0  0  0  0  0  0  0  0  0  0  0
   -0.9176   -4.3185   -2.0091 C   0  0  0  0  0  0  0  0  0  0  0  0
   -5.6388    1.8867   -1.8576 C   0  0  0  0  0  0  0  0  0  0  0  0
   -7.2984    3.4906   -0.3308 C   0  0  0  0  0  0  0  0  0  0  0  0
    1.3368   -4.1951   -0.4079 C   0  0  0  0  0  0  0  0  0  0  0  0
   -0.1731   -3.1410   -1.9935 C   0  0  0  0  0  0  0  0  0  0  0  0
   -5.2694    2.1588   -0.5389 C   0  0  0  0  0  0  0  0  0  0  0  0
    0.9570   -3.0819   -1.1711 C   0  0  0  0  0  0  0  0  0  0  0  0
   -6.1384    2.9622    0.2110 C   0  0  0  0  0  0  0  0  0  0  0  0
   -0.2298    0.5729    0.3395 C   0  0  0  0  0  0  0  0  0  0  0  0
    1.8855    1.2980    0.1507 C   0  0  0  0  0  0  0  0  0  0  0  0
    1.3440   -0.7487   -0.5568 C   0  0  0  0  0  0  0  0  0  0  0  0
    4.7043    0.8111    0.9795 C   0  0  0  0  0  0  0  0  0  0  0  0
   -3.5951    0.3988   -0.4951 C   0  0  0  0  0  0  0  0  0  0  0  0
   -3.0277    2.6144    0.2415 C   0  0  0  0  0  0  0  0  0  0  0  0
   -2.5635   -0.1842    0.4586 C   0  0  0  0  0  0  0  0  0  0  0  0
   -1.9928    2.0495    1.1975 C   0  0  0  0  0  0  0  0  0  0  0  0
    4.9768    3.2481    0.3338 C   0  0  0  0  0  0  0  0  0  0  0  0
    2.5342    3.4507    1.1030 C   0  0  0  0  0  0  0  0  0  0  0  0
    4.2118    1.9499    0.0806 C   0  0  2  0  0  0  0  0  0  0  0  0
   -0.5744   -1.9966   -2.8721 C   0  0  0  0  0  0  0  0  0  0  0  0
    3.5970   -4.7037    2.5632 C   0  0  0  0  0  0  0  0  0  0  0  0
    6.2131   -1.0995    1.1128 C   0  0  0  0  0  0  0  0  0  0  0  0
    0.6414    1.5663    0.5340 N   0  0  0  0  0  0  0  0  0  0  0  0
    0.0832   -0.6207   -0.1768 N   0  0  0  0  0  0  0  0  0  0  0  0
    2.2949    0.1738   -0.4333 N   0  0  0  0  0  0  0  0  0  0  0  0
   -4.1025    1.6474    0.0430 N   0  0  0  0  0  0  0  0  0  0  0  0
   -1.5082    0.7755    0.7088 N   0  0  0  0  0  0  0  0  0  0  0  0
    2.8253    2.2434    0.3565 N   0  0  0  0  0  0  0  0  0  0  0  0
    1.7417   -1.9158   -1.1241 N   0  0  0  0  0  0  0  0  0  0  0  0
    2.4765   -4.6442    1.6539 N   0  0  0  0  0  0  0  0  0  0  0  0
    5.6724    0.0591    0.4417 N   0  0  0  0  0  0  0  0  0  0  0  0
    3.6466   -3.7306   -0.0374 O   0  0  0  0  0  0  0  0  0  0  0  0
    4.2713    0.6490    2.1072 O   0  0  0  0  0  0  0  0  0  0  0  0
    4.1320    4.0331    1.7289 S   0  0  0  0  0  0  0  0  0  0  0  0
   -5.7977    3.2686    1.8839 Cl  0  0  0  0  0  0  0  0  0  0  0  0
   -7.0630    2.1589   -3.4287 H   0  0  0  0  0  0  0  0  0  0  0  0
   -8.5486    3.6123   -2.0644 H   0  0  0  0  0  0  0  0  0  0  0  0
   -1.1397   -6.3280   -1.2966 H   0  0  0  0  0  0  0  0  0  0  0  0
    0.8803   -6.2290    0.1151 H   0  0  0  0  0  0  0  0  0  0  0  0
   -1.7906   -4.3749   -2.6481 H   0  0  0  0  0  0  0  0  0  0  0  0
   -4.9977    1.2687   -2.4719 H   0  0  0  0  0  0  0  0  0  0  0  0
   -7.9440    4.1075    0.2797 H   0  0  0  0  0  0  0  0  0  0  0  0
   -3.1343    0.5212   -1.4880 H   0  0  0  0  0  0  0  0  0  0  0  0
   -4.4171   -0.3114   -0.5982 H   0  0  0  0  0  0  0  0  0  0  0  0
   -3.4224    3.5397    0.6579 H   0  0  0  0  0  0  0  0  0  0  0  0
   -2.5459    2.8655   -0.7156 H   0  0  0  0  0  0  0  0  0  0  0  0
   -3.0484   -0.4348    1.4070 H   0  0  0  0  0  0  0  0  0  0  0  0
   -2.1438   -1.0951    0.0419 H   0  0  0  0  0  0  0  0  0  0  0  0
   -1.1639    2.7423    1.3046 H   0  0  0  0  0  0  0  0  0  0  0  0
   -2.4503    1.9060    2.1816 H   0  0  0  0  0  0  0  0  0  0  0  0
    6.0224    3.0749    0.5833 H   0  0  0  0  0  0  0  0  0  0  0  0
    4.9345    3.8885   -0.5475 H   0  0  0  0  0  0  0  0  0  0  0  0
    2.0710    4.2071    0.4667 H   0  0  0  0  0  0  0  0  0  0  0  0
    1.8705    3.2545    1.9434 H   0  0  0  0  0  0  0  0  0  0  0  0
    4.3366    1.6690   -0.9684 H   0  0  0  0  0  0  0  0  0  0  0  0
   -1.1707   -1.2682   -2.3224 H   0  0  0  0  0  0  0  0  0  0  0  0
    0.2936   -1.4668   -3.2638 H   0  0  0  0  0  0  0  0  0  0  0  0
   -1.1679   -2.3493   -3.7148 H   0  0  0  0  0  0  0  0  0  0  0  0
    3.9636   -3.7086    2.8200 H   0  0  0  0  0  0  0  0  0  0  0  0
    3.2730   -5.1981    3.4741 H   0  0  0  0  0  0  0  0  0  0  0  0
    4.4230   -5.2727    2.1380 H   0  0  0  0  0  0  0  0  0  0  0  0
    6.5357   -0.8517    2.1225 H   0  0  0  0  0  0  0  0  0  0  0  0
    5.4844   -1.9109    1.1678 H   0  0  0  0  0  0  0  0  0  0  0  0
    7.0773   -1.4499    0.5552 H   0  0  0  0  0  0  0  0  0  0  0  0
    2.7424   -2.0497   -1.1395 H   0  0  0  0  0  0  0  0  0  0  0  0
    1.5666   -4.8977    2.0006 H   0  0  0  0  0  0  0  0  0  0  0  0
    5.8927    0.1796   -0.5326 H   0  0  0  0  0  0  0  0  0  0  0  0
    2.5889   -4.1600    0.4124 C   0  0  0  0  0  0  0  0  0  0  0  0
  1  2  2  0
  1  6  1  0
  2  7  1  0
  3  4  2  0
  3  5  1  0
  4  8  1  0
  5  9  2  0
  6 10  2  0
  7 12  2  0
  8 11  2  0
  8 72  1  0
  9 11  1  0
  9 24  1  0
 10 12  1  0
 10 30  1  0
 11 33  1  0
 12 39  1  0
 13 27  2  0
 13 28  1  0
 13 31  1  0
 14 27  1  0
 14 29  2  0
 14 32  1  0
 15 28  2  0
 15 29  1  0
 15 33  1  0
 72 34  1  0
 72 36  2  0
 16 23  1  0
 16 35  1  0
 16 37  2  0
 17 19  1  0
 17 30  1  0
 18 20  1  0
 18 30  1  0
 19 31  1  0
 20 31  1  0
 21 23  1  0
 21 38  1  0
 22 32  1  0
 22 38  1  0
 23 32  1  0
 25 34  1  0
 26 35  1  0
  1 40  1  0
  2 41  1  0
  3 42  1  0
  4 43  1  0
  5 44  1  0
  6 45  1  0
  7 46  1  0
 17 47  1  0
 17 48  1  0
 18 49  1  0
 18 50  1  0
 19 51  1  0
 19 52  1  0
 20 53  1  0
 20 54  1  0
 21 55  1  0
 21 56  1  0
 22 57  1  0
 22 58  1  0
 23 59  1  6
 24 60  1  0
 24 61  1  0
 24 62  1  0
 25 63  1  0
 25 64  1  0
 25 65  1  0
 26 66  1  0
 26 67  1  0
 26 68  1  0
 33 69  1  0
 34 70  1  0
 35 71  1  0
M  END
