
     RDKit          3D

 38 39  0  0  0  0  0  0  0  0999 V2000
    1.1683   -1.2145    1.0135 O   0  0  0  0  0  0  0  0  0  0  0  0
    0.9790   -0.4083    0.1228 C   0  0  0  0  0  0  0  0  0  0  0  0
    1.9384    0.2763   -0.4969 O   0  0  0  0  0  0  0  0  0  0  0  0
    3.2979    0.0359   -0.1064 C   0  0  1  0  0  0  0  0  0  0  0  0
    4.2368    0.6227   -1.1798 C   0  0  0  0  0  0  0  0  0  0  0  0
    5.1678    1.5949   -0.4417 C   0  0  0  0  0  0  0  0  0  0  0  0
    5.1384    1.1077    1.0063 C   0  0  0  0  0  0  0  0  0  0  0  0
    3.6747    0.7272    1.2065 C   0  0  0  0  0  0  0  0  0  0  0  0
   -0.2352   -0.0993   -0.3724 N   0  0  0  0  0  0  0  0  0  0  0  0
   -1.4513   -0.6763    0.1627 C   0  0  2  0  0  0  0  0  0  0  0  0
   -1.8356   -2.0060   -0.5181 C   0  0  0  0  0  0  0  0  0  0  0  0
   -0.7586   -3.0485   -0.4406 C   0  0  0  0  0  0  0  0  0  0  0  0
   -0.8414   -4.0630    0.2070 O   0  0  0  0  0  0  0  0  0  0  0  0
   -2.5918    0.3084    0.0538 C   0  0  0  0  0  0  0  0  0  0  0  0
   -3.2977    0.6824    1.1917 C   0  0  0  0  0  0  0  0  0  0  0  0
   -4.3653    1.5670    1.1043 C   0  0  0  0  0  0  0  0  0  0  0  0
   -4.7337    2.0930   -0.1257 C   0  0  0  0  0  0  0  0  0  0  0  0
   -4.0310    1.7276   -1.2674 C   0  0  0  0  0  0  0  0  0  0  0  0
   -2.9707    0.8372   -1.1784 C   0  0  0  0  0  0  0  0  0  0  0  0
   -0.2989    0.5651   -1.1279 H   0  0  0  0  0  0  0  0  0  0  0  0
    3.4515   -1.0416   -0.0225 H   0  0  0  0  0  0  0  0  0  0  0  0
    4.8104   -0.1821   -1.6409 H   0  0  0  0  0  0  0  0  0  0  0  0
    3.6765    1.1086   -1.9792 H   0  0  0  0  0  0  0  0  0  0  0  0
    3.0749    1.6350    1.3203 H   0  0  0  0  0  0  0  0  0  0  0  0
    3.4987    0.0978    2.0783 H   0  0  0  0  0  0  0  0  0  0  0  0
    6.1717    1.6178   -0.8663 H   0  0  0  0  0  0  0  0  0  0  0  0
    4.7725    2.6123   -0.4936 H   0  0  0  0  0  0  0  0  0  0  0  0
    5.7779    0.2278    1.1215 H   0  0  0  0  0  0  0  0  0  0  0  0
    5.4826    1.8560    1.7210 H   0  0  0  0  0  0  0  0  0  0  0  0
   -1.2824   -0.8779    1.2216 H   0  0  0  0  0  0  0  0  0  0  0  0
   -2.7467   -2.3868   -0.0550 H   0  0  0  0  0  0  0  0  0  0  0  0
   -2.0389   -1.8177   -1.5769 H   0  0  0  0  0  0  0  0  0  0  0  0
    0.1315   -2.8495   -1.0604 H   0  0  0  0  0  0  0  0  0  0  0  0
   -3.0123    0.2790    2.1560 H   0  0  0  0  0  0  0  0  0  0  0  0
   -2.4448    0.5550   -2.0841 H   0  0  0  0  0  0  0  0  0  0  0  0
   -4.9075    1.8441    1.9991 H   0  0  0  0  0  0  0  0  0  0  0  0
   -5.5640    2.7834   -0.1958 H   0  0  0  0  0  0  0  0  0  0  0  0
   -4.3113    2.1329   -2.2309 H   0  0  0  0  0  0  0  0  0  0  0  0
  1  2  2  0
  2  3  1  0
  2  9  1  0
  3  4  1  0
  4  5  1  0
  4  8  1  0
  5  6  1  0
  6  7  1  0
  7  8  1  0
  9 10  1  0
 10 11  1  0
 10 14  1  0
 11 12  1  0
 12 13  2  0
 12 33  1  0
 14 15  2  0
 14 19  1  0
 15 16  1  0
 16 17  2  0
 17 18  1  0
 18 19  2  0
  9 20  1  0
  4 21  1  1
  5 22  1  0
  5 23  1  0
  8 24  1  0
  8 25  1  0
  6 26  1  0
  6 27  1  0
  7 28  1  0
  7 29  1  0
 10 30  1  1
 11 31  1  0
 11 32  1  0
 15 34  1  0
 19 35  1  0
 16 36  1  0
 17 37  1  0
 18 38  1  0
M  END
