
     RDKit          3D

 26 26  0  0  0  0  0  0  0  0999 V2000
    2.8835   -1.2028    0.2276 N   0  0  0  0  0  0  0  0  0  0  0  0
   -3.9481    0.2732    0.3589 P   0  0  1  0  0  0  0  0  0  0  0  0
    2.0380    0.9697   -0.7980 S   0  0  0  0  0  0  0  0  0  0  0  0
    0.9979   -2.7812    0.0922 C   0  0  0  0  0  0  0  0  0  0  0  0
    4.8124    1.7540   -0.0563 O   0  0  0  0  0  0  0  0  0  0  0  0
    1.6003   -1.4398   -0.1543 C   0  0  0  0  0  0  0  0  0  0  0  0
    5.3933   -0.2376    0.7994 O   0  0  0  0  0  0  0  0  0  0  0  0
    3.2422    0.0110   -0.0450 C   0  0  0  0  0  0  0  0  0  0  0  0
   -2.6958    0.1651   -0.6264 O   0  0  0  0  0  0  0  0  0  0  0  0
    4.5611    0.6087    0.2281 C   0  0  0  0  0  0  0  0  0  0  0  0
   -3.8714    1.2924    1.4212 O   0  0  0  0  0  0  0  0  0  0  0  0
    0.9721   -0.3697   -0.7434 C   0  0  0  0  0  0  0  0  0  0  0  0
   -5.0593    0.4523   -0.7688 O   0  0  0  0  0  0  0  0  0  0  0  0
   -0.4346   -0.2751   -1.2335 C   0  0  0  0  0  0  0  0  0  0  0  0
   -4.1411   -1.1717    1.0133 O   0  0  0  0  0  0  0  0  0  0  0  0
   -1.3737    0.0700   -0.0879 C   0  0  0  0  0  0  0  0  0  0  0  0
    0.9320   -2.9829    1.1620 H   0  0  0  0  0  0  0  0  0  0  0  0
   -0.0050   -2.8616   -0.3219 H   0  0  0  0  0  0  0  0  0  0  0  0
    1.6091   -3.5668   -0.3527 H   0  0  0  0  0  0  0  0  0  0  0  0
    6.2468    0.1931    0.9603 H   0  0  0  0  0  0  0  0  0  0  0  0
   -5.9166    0.7482   -0.4346 H   0  0  0  0  0  0  0  0  0  0  0  0
   -0.5182    0.4800   -2.0171 H   0  0  0  0  0  0  0  0  0  0  0  0
   -0.7281   -1.2282   -1.6778 H   0  0  0  0  0  0  0  0  0  0  0  0
   -4.2623   -1.9022    0.3919 H   0  0  0  0  0  0  0  0  0  0  0  0
   -1.0862    1.0210    0.3657 H   0  0  0  0  0  0  0  0  0  0  0  0
   -1.3225   -0.7032    0.6846 H   0  0  0  0  0  0  0  0  0  0  0  0
  8  1  2  0
  1  6  1  0
 11  2  2  0
  2 15  1  1
  2  9  1  0
  2 13  1  0
  8  3  1  0
  3 12  1  0
  6  4  1  0
  4 17  1  0
  4 18  1  0
  4 19  1  0
  5 10  2  0
 12  6  2  0
  7 10  1  0
  7 20  1  0
 10  8  1  0
 16  9  1  0
 12 14  1  0
 13 21  1  0
 16 14  1  0
 14 22  1  0
 14 23  1  0
 15 24  1  0
 16 25  1  0
 16 26  1  0
M  END
