
     RDKit          3D

 48 51  0  0  0  0  0  0  0  0999 V2000
   -5.0420    2.4003   -0.7712 O   0  0  0  0  0  0  0  0  0  0  0  0
   -3.9196    1.7201   -0.8940 C   0  0  0  0  0  0  0  0  0  0  0  0
   -3.3497    1.4895   -1.9242 O   0  0  0  0  0  0  0  0  0  0  0  0
   -3.4385    1.2393    0.4708 C   0  0  1  0  0  0  0  0  0  0  0  0
   -4.3382    0.1596    1.0626 C   0  0  0  0  0  0  0  0  0  0  0  0
   -3.7554   -1.3796    0.2863 S   0  0  0  0  0  0  0  0  0  0  0  0
   -2.1398   -0.7229    0.1966 C   0  0  0  0  0  0  0  0  0  0  0  0
   -0.9877   -1.4244    0.0081 C   0  0  0  0  0  0  0  0  0  0  0  0
   -1.1198   -2.8813   -0.0618 N   0  0  1  0  0  0  0  0  0  0  0  0
   -1.1471   -3.4041   -1.4624 C   0  0  0  0  0  0  0  0  0  0  0  0
   -0.1953   -3.6772    0.8070 C   0  0  0  0  0  0  0  0  0  0  0  0
    0.2420   -0.7081   -0.1494 C   0  0  0  0  0  0  0  0  0  0  0  0
    1.5512   -1.4204   -0.4048 C   0  0  0  0  0  0  0  0  0  0  0  0
    2.7215   -0.5345   -0.7316 C   0  0  0  0  0  0  0  0  0  0  0  0
    3.0763   -0.3452   -2.0424 C   0  0  0  0  0  0  0  0  0  0  0  0
    4.1829    0.4503   -2.3979 C   0  0  0  0  0  0  0  0  0  0  0  0
    4.9353    1.0489   -1.4276 C   0  0  0  0  0  0  0  0  0  0  0  0
    4.6070    0.8827   -0.0622 C   0  0  0  0  0  0  0  0  0  0  0  0
    5.3784    1.4941    0.9540 C   0  0  0  0  0  0  0  0  0  0  0  0
    5.0528    1.3373    2.2727 C   0  0  0  0  0  0  0  0  0  0  0  0
    3.9333    0.5607    2.6328 C   0  0  0  0  0  0  0  0  0  0  0  0
    3.1707   -0.0462    1.6720 C   0  0  0  0  0  0  0  0  0  0  0  0
    3.4853    0.0876    0.2976 C   0  0  0  0  0  0  0  0  0  0  0  0
    0.2031    0.6490   -0.0696 C   0  0  0  0  0  0  0  0  0  0  0  0
   -0.9958    1.4041    0.1646 C   0  0  0  0  0  0  0  0  0  0  0  0
   -1.0768    2.6198    0.2277 O   0  0  0  0  0  0  0  0  0  0  0  0
   -2.1345    0.6228    0.3245 N   0  0  0  0  0  0  0  0  0  0  0  0
   -5.3730    2.6803   -1.6388 H   0  0  0  0  0  0  0  0  0  0  0  0
   -3.3790    2.0855    1.1571 H   0  0  0  0  0  0  0  0  0  0  0  0
   -4.2092    0.0917    2.1409 H   0  0  0  0  0  0  0  0  0  0  0  0
   -5.3911    0.2961    0.8315 H   0  0  0  0  0  0  0  0  0  0  0  0
   -0.1812   -3.2383   -1.9254 H   0  0  0  0  0  0  0  0  0  0  0  0
   -1.3659   -4.4672   -1.4263 H   0  0  0  0  0  0  0  0  0  0  0  0
   -1.9201   -2.8826   -2.0186 H   0  0  0  0  0  0  0  0  0  0  0  0
   -0.0527   -3.1554    1.7474 H   0  0  0  0  0  0  0  0  0  0  0  0
   -0.6734   -4.6346    0.9883 H   0  0  0  0  0  0  0  0  0  0  0  0
    0.7478   -3.8432    0.3020 H   0  0  0  0  0  0  0  0  0  0  0  0
    1.7948   -2.0353    0.4636 H   0  0  0  0  0  0  0  0  0  0  0  0
    1.4207   -2.1198   -1.2330 H   0  0  0  0  0  0  0  0  0  0  0  0
    2.4995   -0.8229   -2.8253 H   0  0  0  0  0  0  0  0  0  0  0  0
    4.4356    0.5755   -3.4423 H   0  0  0  0  0  0  0  0  0  0  0  0
    5.7945    1.6538   -1.6911 H   0  0  0  0  0  0  0  0  0  0  0  0
    6.2370    2.0903    0.6690 H   0  0  0  0  0  0  0  0  0  0  0  0
    5.6507    1.8081    3.0418 H   0  0  0  0  0  0  0  0  0  0  0  0
    3.6741    0.4453    3.6770 H   0  0  0  0  0  0  0  0  0  0  0  0
    2.3114   -0.6291    1.9777 H   0  0  0  0  0  0  0  0  0  0  0  0
    1.1027    1.2317   -0.2019 H   0  0  0  0  0  0  0  0  0  0  0  0
   -2.0408   -3.0959    0.3308 H   0  0  0  0  0  0  0  0  0  0  0  0
  3  2  2  0
  1  2  1  0
  2  4  1  0
 26 25  2  0
  4  5  1  0
  4 27  1  0
  5  6  1  0
 25 27  1  0
 25 24  1  0
 27  7  1  0
 24 12  2  0
  6  7  1  0
  7  8  2  0
 12  8  1  0
 12 13  1  0
  8  9  1  0
 13 14  1  0
 11  9  1  0
  9 10  1  0
 15 14  2  0
 15 16  1  0
 14 23  1  0
 16 17  2  0
 23 22  2  0
 23 18  1  0
 17 18  1  0
 22 21  1  0
 18 19  2  0
 21 20  2  0
 19 20  1  0
  1 28  1  0
  4 29  1  1
  5 30  1  0
  5 31  1  0
 10 32  1  0
 10 33  1  0
 10 34  1  0
 11 35  1  0
 11 36  1  0
 11 37  1  0
 13 38  1  0
 13 39  1  0
 15 40  1  0
 16 41  1  0
 17 42  1  0
 19 43  1  0
 20 44  1  0
 21 45  1  0
 22 46  1  0
 24 47  1  0
  9 48  1  1
M  CHG  1   9   1
M  END
