
     RDKit          3D

 30 31  0  0  0  0  0  0  0  0999 V2000
    1.5016    2.5988    0.2585 O   0  0  0  0  0  0  0  0  0  0  0  0
    1.5498    1.3881    0.1511 C   0  0  0  0  0  0  0  0  0  0  0  0
    2.7283    0.7168   -0.0401 N   0  0  0  0  0  0  0  0  0  0  0  0
    2.9120   -0.6458   -0.1937 C   0  0  0  0  0  0  0  0  0  0  0  0
    4.0271   -1.1053   -0.3669 O   0  0  0  0  0  0  0  0  0  0  0  0
    1.6924   -1.4209   -0.1216 C   0  0  0  0  0  0  0  0  0  0  0  0
    1.7709   -2.9063   -0.2585 C   0  0  0  0  0  0  0  0  0  0  0  0
    0.5332   -0.7653    0.0788 C   0  0  0  0  0  0  0  0  0  0  0  0
    0.4351    0.5900    0.2088 N   0  0  0  0  0  0  0  0  0  0  0  0
   -0.8660    1.2865    0.3942 C   0  0  2  0  0  0  0  0  0  0  0  0
   -1.8269    0.3700    0.8043 O   0  0  0  0  0  0  0  0  0  0  0  0
   -1.3739    1.8992   -0.9103 C   0  0  0  0  0  0  0  0  0  0  0  0
   -2.2557    0.7894   -1.4630 C   0  0  0  0  0  0  0  0  0  0  0  0
   -2.8544    0.2164   -0.1900 C   0  0  1  0  0  0  0  0  0  0  0  0
   -3.2755   -1.2276   -0.3008 C   0  0  0  0  0  0  0  0  0  0  0  0
   -3.7890   -1.6584    0.9354 O   0  0  0  0  0  0  0  0  0  0  0  0
    3.5559    1.2988   -0.0815 H   0  0  0  0  0  0  0  0  0  0  0  0
    2.4170   -3.3437    0.5037 H   0  0  0  0  0  0  0  0  0  0  0  0
    0.7848   -3.3573   -0.1589 H   0  0  0  0  0  0  0  0  0  0  0  0
    2.1749   -3.1962   -1.2294 H   0  0  0  0  0  0  0  0  0  0  0  0
   -0.3925   -1.3130    0.1657 H   0  0  0  0  0  0  0  0  0  0  0  0
   -0.7049    2.0304    1.1747 H   0  0  0  0  0  0  0  0  0  0  0  0
   -1.9704    2.7831   -0.6767 H   0  0  0  0  0  0  0  0  0  0  0  0
   -0.5729    2.2056   -1.5795 H   0  0  0  0  0  0  0  0  0  0  0  0
   -3.0184    1.1515   -2.1501 H   0  0  0  0  0  0  0  0  0  0  0  0
   -1.6582    0.0377   -1.9878 H   0  0  0  0  0  0  0  0  0  0  0  0
   -3.7187    0.8166    0.1207 H   0  0  0  0  0  0  0  0  0  0  0  0
   -4.0253   -1.2861   -1.1001 H   0  0  0  0  0  0  0  0  0  0  0  0
   -2.4224   -1.8388   -0.6285 H   0  0  0  0  0  0  0  0  0  0  0  0
   -4.1249   -2.5523    0.8256 H   0  0  0  0  0  0  0  0  0  0  0  0
  1  2  2  0
  3  2  1  0
  3  4  1  0
  5  4  2  0
  2  9  1  0
  4  6  1  0
 12 10  1  0
 12 13  1  0
  9 10  1  0
  9  8  1  0
  6  8  2  0
  6  7  1  0
 10 11  1  0
 13 14  1  0
 11 14  1  0
 14 15  1  0
 16 15  1  0
  3 17  1  0
  7 18  1  0
  7 19  1  0
  7 20  1  0
  8 21  1  0
 10 22  1  1
 12 23  1  0
 12 24  1  0
 13 25  1  0
 13 26  1  0
 14 27  1  1
 15 28  1  0
 15 29  1  0
 16 30  1  0
M  END
