
     RDKit          3D

 59 59  0  0  0  0  0  0  0  0999 V2000
  -12.7514    1.5846   -0.7559 C   0  0  0  0  0  0  0  0  0  0  0  0
  -11.4297    1.0489   -1.2887 C   0  0  0  0  0  0  0  0  0  0  0  0
  -10.3171    1.0691   -0.2475 C   0  0  0  0  0  0  0  0  0  0  0  0
   -8.9900    0.5369   -0.7727 C   0  0  0  0  0  0  0  0  0  0  0  0
   -7.8750    0.5585    0.2658 C   0  0  0  0  0  0  0  0  0  0  0  0
   -6.5494    0.0325   -0.2693 C   0  0  0  0  0  0  0  0  0  0  0  0
   -5.4279    0.0535    0.7618 C   0  0  0  0  0  0  0  0  0  0  0  0
   -4.1047   -0.4501    0.1991 C   0  0  0  0  0  0  0  0  0  0  0  0
   -2.9900   -0.4276    1.2327 C   0  0  0  0  0  0  0  0  0  0  0  0
   -1.6473   -0.8607    0.7121 C   0  0  0  0  0  0  0  0  0  0  0  0
   -1.4760   -1.3066   -0.3957 O   0  0  0  0  0  0  0  0  0  0  0  0
   -0.4883   -0.6773    1.6785 C   0  0  0  0  0  0  0  0  0  0  0  0
    0.7014   -1.3081    1.1899 N   0  0  0  0  0  0  0  0  0  0  0  0
    1.6624   -0.5875    0.7762 C   0  0  0  0  0  0  0  0  0  0  0  0
    2.8709   -1.1929    0.2225 C   0  0  0  0  0  0  0  0  0  0  0  0
    2.9598   -2.5850    0.0971 C   0  0  0  0  0  0  0  0  0  0  0  0
    1.9879   -3.4053    0.4736 O   0  0  0  0  0  0  0  0  0  0  0  0
    4.1270   -3.1502   -0.4560 C   0  0  0  0  0  0  0  0  0  0  0  0
    4.2422   -4.6340   -0.6105 C   0  0  0  0  0  0  0  0  0  0  0  0
    5.1258   -2.3896   -0.8505 N   0  0  0  0  0  0  0  0  0  0  0  0
    5.0504   -1.0616   -0.7364 C   0  0  0  0  0  0  0  0  0  0  0  0
    3.9559   -0.4084   -0.2085 C   0  0  0  0  0  0  0  0  0  0  0  0
    3.8911    1.0928   -0.1002 C   0  0  0  0  0  0  0  0  0  0  0  0
    5.0496    1.7177   -0.6350 O   0  0  0  0  0  0  0  0  0  0  0  0
    6.2336    2.2772    0.2846 P   0  0  1  0  0  0  0  0  0  0  0  0
    7.5625    1.5858   -0.2621 O   0  0  0  0  0  0  0  0  0  0  0  0
    6.2467    3.7843   -0.2395 O   0  0  0  0  0  0  0  0  0  0  0  0
    6.0868    2.0549    1.7341 O   0  0  0  0  0  0  0  0  0  0  0  0
  -13.5343    1.5500   -1.5143 H   0  0  0  0  0  0  0  0  0  0  0  0
  -13.0956    1.0010    0.1001 H   0  0  0  0  0  0  0  0  0  0  0  0
  -12.6555    2.6215   -0.4279 H   0  0  0  0  0  0  0  0  0  0  0  0
  -11.5698    0.0249   -1.6486 H   0  0  0  0  0  0  0  0  0  0  0  0
  -11.1193    1.6349   -2.1596 H   0  0  0  0  0  0  0  0  0  0  0  0
  -10.1803    2.0946    0.1137 H   0  0  0  0  0  0  0  0  0  0  0  0
  -10.6262    0.4813    0.6243 H   0  0  0  0  0  0  0  0  0  0  0  0
   -9.1278   -0.4885   -1.1333 H   0  0  0  0  0  0  0  0  0  0  0  0
   -8.6827    1.1247   -1.6451 H   0  0  0  0  0  0  0  0  0  0  0  0
   -7.7389    1.5831    0.6292 H   0  0  0  0  0  0  0  0  0  0  0  0
   -8.1783   -0.0335    1.1366 H   0  0  0  0  0  0  0  0  0  0  0  0
   -6.6856   -0.9917   -0.6334 H   0  0  0  0  0  0  0  0  0  0  0  0
   -6.2493    0.6254   -1.1406 H   0  0  0  0  0  0  0  0  0  0  0  0
   -5.2998    1.0745    1.1373 H   0  0  0  0  0  0  0  0  0  0  0  0
   -5.7173   -0.5538    1.6265 H   0  0  0  0  0  0  0  0  0  0  0  0
   -4.2335   -1.4676   -0.1794 H   0  0  0  0  0  0  0  0  0  0  0  0
   -3.8208    0.1642   -0.6601 H   0  0  0  0  0  0  0  0  0  0  0  0
   -2.8805    0.5730    1.6664 H   0  0  0  0  0  0  0  0  0  0  0  0
   -3.2382   -1.0742    2.0828 H   0  0  0  0  0  0  0  0  0  0  0  0
   -0.3625    0.4013    1.8444 H   0  0  0  0  0  0  0  0  0  0  0  0
   -0.7653   -1.1116    2.6431 H   0  0  0  0  0  0  0  0  0  0  0  0
    1.6021    0.5016    0.8243 H   0  0  0  0  0  0  0  0  0  0  0  0
    1.2475   -2.8461    0.8436 H   0  0  0  0  0  0  0  0  0  0  0  0
    3.4897   -5.0225   -1.2994 H   0  0  0  0  0  0  0  0  0  0  0  0
    5.2249   -4.8905   -0.9999 H   0  0  0  0  0  0  0  0  0  0  0  0
    4.1004   -5.1527    0.3388 H   0  0  0  0  0  0  0  0  0  0  0  0
    5.9137   -0.5157   -1.0915 H   0  0  0  0  0  0  0  0  0  0  0  0
    3.0464    1.4761   -0.6754 H   0  0  0  0  0  0  0  0  0  0  0  0
    3.7375    1.3932    0.9393 H   0  0  0  0  0  0  0  0  0  0  0  0
    7.7759    1.7431   -1.1919 H   0  0  0  0  0  0  0  0  0  0  0  0
    6.9422    4.3329    0.1483 H   0  0  0  0  0  0  0  0  0  0  0  0
 19 18  1  0
 17 16  1  0
 18 16  1  0
 18 20  2  0
 16 15  2  0
 20 21  1  0
 15 14  1  0
 15 22  1  0
 13 14  2  0
 13 12  1  0
 11 10  2  0
 21 22  2  0
  4  5  1  0
  4  3  1  0
  5  6  1  0
 10 12  1  0
 10  9  1  0
  6  7  1  0
  8  7  1  0
  8  9  1  0
 22 23  1  0
  3  2  1  0
 23 24  1  0
 25 24  1  6
  2  1  1  0
 28 25  2  0
 25 27  1  0
 25 26  1  0
  1 29  1  0
  1 30  1  0
  1 31  1  0
  2 32  1  0
  2 33  1  0
  3 34  1  0
  3 35  1  0
  4 36  1  0
  4 37  1  0
  5 38  1  0
  5 39  1  0
  6 40  1  0
  6 41  1  0
  7 42  1  0
  7 43  1  0
  8 44  1  0
  8 45  1  0
  9 46  1  0
  9 47  1  0
 12 48  1  0
 12 49  1  0
 14 50  1  0
 17 51  1  0
 19 52  1  0
 19 53  1  0
 19 54  1  0
 21 55  1  0
 23 56  1  0
 23 57  1  0
 26 58  1  0
 27 59  1  0
M  END
