
     RDKit          3D

 17 16  0  0  0  0  0  0  0  0999 V2000
    3.0203   -0.8326   -0.1954 C   0  0  0  0  0  0  0  0  0  0  0  0
    1.7491   -0.1766    0.3206 C   0  0  2  0  0  0  0  0  0  0  0  0
    0.5265   -0.7075   -0.4144 C   0  0  0  0  0  0  0  0  0  0  0  0
   -1.0150    0.0442    0.1512 P   0  0  1  0  0  0  0  0  0  0  0  0
    1.7681    1.2247    0.1412 O   0  0  0  0  0  0  0  0  0  0  0  0
   -1.2018    1.4731   -0.5623 O   0  0  0  0  0  0  0  0  0  0  0  0
   -2.0813   -0.9431   -0.5462 O   0  0  0  0  0  0  0  0  0  0  0  0
   -1.1601    0.2080    1.6184 O   0  0  0  0  0  0  0  0  0  0  0  0
    3.8956   -0.4453    0.3296 H   0  0  0  0  0  0  0  0  0  0  0  0
    2.9935   -1.9112   -0.0375 H   0  0  0  0  0  0  0  0  0  0  0  0
    3.1506   -0.6483   -1.2632 H   0  0  0  0  0  0  0  0  0  0  0  0
    1.6384   -0.4230    1.3845 H   0  0  0  0  0  0  0  0  0  0  0  0
    0.6305   -0.5676   -1.4947 H   0  0  0  0  0  0  0  0  0  0  0  0
    0.4482   -1.7834   -0.2431 H   0  0  0  0  0  0  0  0  0  0  0  0
    2.5073    1.5825    0.6435 H   0  0  0  0  0  0  0  0  0  0  0  0
   -1.0854    1.4733   -1.5211 H   0  0  0  0  0  0  0  0  0  0  0  0
   -3.0041   -0.7231   -0.3601 H   0  0  0  0  0  0  0  0  0  0  0  0
  1  2  1  0
  1  9  1  0
  1 10  1  0
  1 11  1  0
  3  2  1  0
  2  5  1  0
  2 12  1  1
  3  4  1  0
  3 13  1  0
  3 14  1  0
  8  4  2  0
  4  6  1  6
  4  7  1  0
  5 15  1  0
  6 16  1  0
  7 17  1  0
M  END
