
     RDKit          3D

 56 60  0  0  0  0  0  0  0  0999 V2000
   -3.0948   -3.2185    1.9218 C   0  0  0  0  0  0  0  0  0  0  0  0
   -3.7626   -3.4182    0.7221 C   0  0  0  0  0  0  0  0  0  0  0  0
   -3.9591   -2.3549   -0.1528 C   0  0  0  0  0  0  0  0  0  0  0  0
   -3.4370   -1.0779    0.1507 C   0  0  0  0  0  0  0  0  0  0  0  0
   -2.7997   -0.9061    1.3839 C   0  0  0  0  0  0  0  0  0  0  0  0
   -2.6265   -1.9442    2.2680 C   0  0  0  0  0  0  0  0  0  0  0  0
   -2.9373   -4.2765    2.7266 O   0  0  0  0  0  0  0  0  0  0  0  0
   -4.6429   -2.5948   -1.2722 O   0  0  0  0  0  0  0  0  0  0  0  0
   -3.6330    0.0275   -0.7999 C   0  0  0  0  0  0  0  0  0  0  0  0
   -4.5144   -0.0436   -1.6570 O   0  0  0  0  0  0  0  0  0  0  0  0
   -2.8250    1.1363   -0.6921 N   0  0  0  0  0  0  0  0  0  0  0  0
   -3.3155    2.5222   -0.8488 C   0  0  2  0  0  0  0  0  0  0  0  0
   -2.8623    3.2761    0.4014 C   0  0  0  0  0  0  0  0  0  0  0  0
   -1.3481    3.3133    0.5166 C   0  0  0  0  0  0  0  0  0  0  0  0
   -4.8180    2.6731   -1.0163 C   0  0  0  0  0  0  0  0  0  0  0  0
   -1.4367    0.9967   -0.4991 C   0  0  0  0  0  0  0  0  0  0  0  0
   -0.7020    2.0224    0.0978 C   0  0  0  0  0  0  0  0  0  0  0  0
    0.6693    1.8562    0.2649 C   0  0  0  0  0  0  0  0  0  0  0  0
    1.3366    0.7134   -0.1529 C   0  0  0  0  0  0  0  0  0  0  0  0
    0.5943   -0.2776   -0.7972 C   0  0  0  0  0  0  0  0  0  0  0  0
   -0.7653   -0.1358   -0.9727 C   0  0  0  0  0  0  0  0  0  0  0  0
    2.8033    0.5649   -0.0139 C   0  0  0  0  0  0  0  0  0  0  0  0
    3.4257    0.1373   -1.0851 N   0  0  0  0  0  0  0  0  0  0  0  0
    4.8383    0.6930    1.2281 C   0  0  0  0  0  0  0  0  0  0  0  0
    3.4774    0.8435    1.2171 C   0  0  0  0  0  0  0  0  0  0  0  0
    5.5364    0.2713    0.0785 C   0  0  0  0  0  0  0  0  0  0  0  0
    4.7666   -0.0172   -1.0712 C   0  0  0  0  0  0  0  0  0  0  0  0
    5.4186   -0.4712   -2.2407 C   0  0  0  0  0  0  0  0  0  0  0  0
    6.7794   -0.6179   -2.2568 C   0  0  0  0  0  0  0  0  0  0  0  0
    7.5480   -0.3220   -1.1104 C   0  0  0  0  0  0  0  0  0  0  0  0
    6.9392    0.1115    0.0364 C   0  0  0  0  0  0  0  0  0  0  0  0
    2.7550    1.2334    2.4734 C   0  0  0  0  0  0  0  0  0  0  0  0
   -4.1512   -4.3974    0.4702 H   0  0  0  0  0  0  0  0  0  0  0  0
   -2.4372    0.0730    1.6653 H   0  0  0  0  0  0  0  0  0  0  0  0
   -2.1348   -1.7757    3.2182 H   0  0  0  0  0  0  0  0  0  0  0  0
   -2.4710   -4.0233    3.5317 H   0  0  0  0  0  0  0  0  0  0  0  0
   -4.8092   -1.7284   -1.7028 H   0  0  0  0  0  0  0  0  0  0  0  0
   -2.8220    2.9547   -1.7264 H   0  0  0  0  0  0  0  0  0  0  0  0
   -3.2509    4.2950    0.3718 H   0  0  0  0  0  0  0  0  0  0  0  0
   -3.3078    2.7891    1.2738 H   0  0  0  0  0  0  0  0  0  0  0  0
   -0.9546    4.1150   -0.1152 H   0  0  0  0  0  0  0  0  0  0  0  0
   -1.0521    3.5638    1.5377 H   0  0  0  0  0  0  0  0  0  0  0  0
   -5.3684    2.2313   -0.1844 H   0  0  0  0  0  0  0  0  0  0  0  0
   -5.0367    3.7411   -1.0198 H   0  0  0  0  0  0  0  0  0  0  0  0
   -5.1924    2.2564   -1.9458 H   0  0  0  0  0  0  0  0  0  0  0  0
    1.2232    2.6693    0.7199 H   0  0  0  0  0  0  0  0  0  0  0  0
    1.0891   -1.1632   -1.1732 H   0  0  0  0  0  0  0  0  0  0  0  0
   -1.3065   -0.9140   -1.4938 H   0  0  0  0  0  0  0  0  0  0  0  0
    5.3944    0.8853    2.1391 H   0  0  0  0  0  0  0  0  0  0  0  0
    4.8205   -0.6964   -3.1147 H   0  0  0  0  0  0  0  0  0  0  0  0
    7.2745   -0.9638   -3.1546 H   0  0  0  0  0  0  0  0  0  0  0  0
    8.6229   -0.4410   -1.1430 H   0  0  0  0  0  0  0  0  0  0  0  0
    7.5240    0.3375    0.9199 H   0  0  0  0  0  0  0  0  0  0  0  0
    2.4510    2.2805    2.4683 H   0  0  0  0  0  0  0  0  0  0  0  0
    1.8543    0.6390    2.6260 H   0  0  0  0  0  0  0  0  0  0  0  0
    3.4030    1.0906    3.3374 H   0  0  0  0  0  0  0  0  0  0  0  0
 31 30  2  0
 31 26  1  0
 24 26  2  0
 24 25  1  0
 32 25  1  0
 30 29  1  0
 26 27  1  0
 25 22  2  0
 29 28  2  0
 27 28  1  0
 27 23  2  0
 22 23  1  0
 22 19  1  0
 14 17  1  0
 14 13  1  0
 18 19  2  0
 18 17  1  0
 19 20  1  0
 17 16  2  0
 13 12  1  0
  6  5  1  0
  6  1  2  0
  5  4  2  0
 20 21  2  0
 16 11  1  0
 16 21  1  0
  7  1  1  0
 11 12  1  0
 11  9  1  0
  1  2  1  0
 12 15  1  0
  4  9  1  0
  4  3  1  0
  9 10  2  0
  2  3  2  0
  3  8  1  0
  2 33  1  0
  5 34  1  0
  6 35  1  0
  7 36  1  0
  8 37  1  0
 12 38  1  6
 13 39  1  0
 13 40  1  0
 14 41  1  0
 14 42  1  0
 15 43  1  0
 15 44  1  0
 15 45  1  0
 18 46  1  0
 20 47  1  0
 21 48  1  0
 24 49  1  0
 28 50  1  0
 29 51  1  0
 30 52  1  0
 31 53  1  0
 32 54  1  0
 32 55  1  0
 32 56  1  0
M  END
