
     RDKit          3D

 50 53  0  0  0  0  0  0  0  0999 V2000
    2.8545   -4.5128   -1.0681 C   0  0  0  0  0  0  0  0  0  0  0  0
    5.0712   -5.6288   -1.5497 C   0  0  0  0  0  0  0  0  0  0  0  0
    4.3304   -4.5477   -1.1693 C   0  0  0  0  0  0  0  0  0  0  0  0
    1.7221   -5.9712    2.5041 C   0  0  0  0  0  0  0  0  0  0  0  0
    0.4203   -1.7412   -1.4033 C   0  0  0  0  0  0  0  0  0  0  0  0
    0.8605   -0.6728   -0.3820 C   0  0  0  0  0  0  0  0  0  0  0  0
    1.0954   -1.4262    0.9422 C   0  0  0  0  0  0  0  0  0  0  0  0
    0.6158   -2.8577    0.6867 C   0  0  1  0  0  0  0  0  0  0  0  0
    3.9089   -6.7477    3.1672 C   0  0  0  0  0  0  0  0  0  0  0  0
    4.1961   -9.9639    4.1852 C   0  0  0  0  0  0  0  0  0  0  0  0
    3.3168   -7.7477    3.9228 C   0  0  0  0  0  0  0  0  0  0  0  0
    0.8772   -3.0715   -0.8176 C   0  0  2  0  0  0  0  0  0  0  0  0
    4.7918   -8.2300    5.7819 C   0  0  0  0  0  0  0  0  0  0  0  0
    1.1445   -6.9938    3.2494 C   0  0  0  0  0  0  0  0  0  0  0  0
    5.5709   -9.2384    6.4494 C   0  0  0  0  0  0  0  0  0  0  0  0
    3.1109   -5.8631    2.4616 C   0  0  0  0  0  0  0  0  0  0  0  0
    4.1296   -8.6796    4.6355 N   0  0  0  0  0  0  0  0  0  0  0  0
    1.9370   -7.8723    3.9704 C   0  0  0  0  0  0  0  0  0  0  0  0
    4.9295  -10.9030    4.8276 C   0  0  0  0  0  0  0  0  0  0  0  0
    5.6345  -10.5153    5.9923 C   0  0  0  0  0  0  0  0  0  0  0  0
    1.2721   -3.8101    1.5439 N   0  0  0  0  0  0  0  0  0  0  0  0
    2.2901   -3.2897   -1.0614 N   0  0  0  0  0  0  0  0  0  0  0  0
    2.2239   -5.5554   -0.9866 O   0  0  0  0  0  0  0  0  0  0  0  0
    6.4657   -5.3917   -1.5207 C   0  0  0  0  0  0  0  0  0  0  0  0
    5.3432   -3.2175   -0.7361 S   0  0  0  0  0  0  0  0  0  0  0  0
    6.7500   -4.1293   -1.0988 C   0  0  0  0  0  0  0  0  0  0  0  0
    8.2945   -3.4373   -0.9029 Cl  0  0  0  0  0  0  0  0  0  0  0  0
    4.6305   -6.5675   -1.8523 H   0  0  0  0  0  0  0  0  0  0  0  0
   -0.6675   -1.7610   -1.4836 H   0  0  0  0  0  0  0  0  0  0  0  0
    0.8093   -1.5681   -2.4073 H   0  0  0  0  0  0  0  0  0  0  0  0
    0.1004    0.1000   -0.2767 H   0  0  0  0  0  0  0  0  0  0  0  0
    1.7718   -0.1682   -0.7054 H   0  0  0  0  0  0  0  0  0  0  0  0
    2.1588   -1.4300    1.1972 H   0  0  0  0  0  0  0  0  0  0  0  0
    0.5731   -0.9743    1.7846 H   0  0  0  0  0  0  0  0  0  0  0  0
   -0.4641   -2.9193    0.8455 H   0  0  0  0  0  0  0  0  0  0  0  0
    4.9864   -6.6697    3.1126 H   0  0  0  0  0  0  0  0  0  0  0  0
    3.6390  -10.1766    3.2839 H   0  0  0  0  0  0  0  0  0  0  0  0
    0.3172   -3.9181   -1.2125 H   0  0  0  0  0  0  0  0  0  0  0  0
    0.0686   -7.1007    3.2799 H   0  0  0  0  0  0  0  0  0  0  0  0
    6.1020   -8.9353    7.3415 H   0  0  0  0  0  0  0  0  0  0  0  0
    3.5952   -5.1056    1.8587 H   0  0  0  0  0  0  0  0  0  0  0  0
    1.4818   -8.6539    4.5650 H   0  0  0  0  0  0  0  0  0  0  0  0
    4.9694  -11.9119    4.4473 H   0  0  0  0  0  0  0  0  0  0  0  0
    6.2322  -11.2454    6.5225 H   0  0  0  0  0  0  0  0  0  0  0  0
    2.1230   -3.5209    1.9979 H   0  0  0  0  0  0  0  0  0  0  0  0
    2.8480   -2.4894   -1.3174 H   0  0  0  0  0  0  0  0  0  0  0  0
    7.2171   -6.1176   -1.7936 H   0  0  0  0  0  0  0  0  0  0  0  0
    0.8227   -5.0631    1.7265 C   0  0  0  0  0  0  0  0  0  0  0  0
    4.6774   -7.0656    6.1442 O   0  0  0  0  0  0  0  0  0  0  0  0
   -0.2565   -5.4534    1.3074 O   0  0  0  0  0  0  0  0  0  0  0  0
  1 23  2  0
  1 22  1  0
  1  3  1  0
  2  3  2  0
  2 24  1  0
  2 28  1  0
  3 25  1  0
  4 16  2  0
  4 14  1  0
  4 48  1  0
  5 12  1  0
  5  6  1  0
  5 29  1  0
  5 30  1  0
  6  7  1  0
  6 31  1  0
  6 32  1  0
  7  8  1  0
  7 33  1  0
  7 34  1  0
  8 21  1  0
  8 12  1  0
  8 35  1  6
  9 11  2  0
  9 16  1  0
  9 36  1  0
 10 19  2  0
 10 17  1  0
 10 37  1  0
 11 17  1  0
 11 18  1  0
 12 22  1  0
 12 38  1  6
 13 15  1  0
 13 49  2  0
 13 17  1  0
 14 18  2  0
 14 39  1  0
 15 20  2  0
 15 40  1  0
 48 50  2  0
 48 21  1  0
 16 41  1  0
 18 42  1  0
 19 20  1  0
 19 43  1  0
 20 44  1  0
 21 45  1  0
 22 46  1  0
 24 26  2  0
 24 47  1  0
 25 26  1  0
 26 27  1  0
M  END
