
     RDKit          3D

 34 34  0  0  0  0  0  0  0  0999 V2000
   -1.9003   -0.1020    1.0541 C   0  0  0  0  0  0  0  0  0  0  0  0
   -0.5516   -0.4116    1.1243 C   0  0  0  0  0  0  0  0  0  0  0  0
   -0.5287   -0.8957   -1.2402 C   0  0  0  0  0  0  0  0  0  0  0  0
   -1.8706   -0.5906   -1.3138 C   0  0  0  0  0  0  0  0  0  0  0  0
   -2.5668   -0.1904   -0.1682 C   0  0  0  0  0  0  0  0  0  0  0  0
   -3.8669    0.0829   -0.3406 O   0  0  0  0  0  0  0  0  0  0  0  0
   -4.6286    0.5030    0.7848 C   0  0  0  0  0  0  0  0  0  0  0  0
   -8.4982    1.1901   -0.4140 C   0  0  0  0  0  0  0  0  0  0  0  0
   -7.1281    0.9395    0.0014 C   0  0  0  0  0  0  0  0  0  0  0  0
   -5.9936    0.7357    0.3426 C   0  0  0  0  0  0  0  0  0  0  0  0
    0.1302   -0.8042   -0.0170 C   0  0  0  0  0  0  0  0  0  0  0  0
    2.1592   -1.6133    1.4421 O   0  0  0  0  0  0  0  0  0  0  0  0
    2.2067   -2.0494   -1.0330 O   0  0  0  0  0  0  0  0  0  0  0  0
    1.8521   -1.1712    0.0816 S   0  0  1  0  0  0  0  0  0  0  0  0
    2.6505    0.4132   -0.1752 C   0  0  0  0  0  0  0  0  0  0  0  0
    4.1632    0.2824   -0.0573 C   0  0  0  0  0  0  0  0  0  0  0  0
    4.8165    1.6371   -0.2887 C   0  0  0  0  0  0  0  0  0  0  0  0
    6.6217    1.4517   -0.1111 S   0  0  0  0  0  0  0  0  0  0  0  0
   -2.4063    0.1985    1.9602 H   0  0  0  0  0  0  0  0  0  0  0  0
   -0.0465   -0.3443    2.0787 H   0  0  0  0  0  0  0  0  0  0  0  0
   -0.0048   -1.2075   -2.1336 H   0  0  0  0  0  0  0  0  0  0  0  0
   -2.3937   -0.6625   -2.2585 H   0  0  0  0  0  0  0  0  0  0  0  0
   -4.6129   -0.2612    1.5689 H   0  0  0  0  0  0  0  0  0  0  0  0
   -4.2116    1.4216    1.2111 H   0  0  0  0  0  0  0  0  0  0  0  0
   -9.0850    1.5856    0.4155 H   0  0  0  0  0  0  0  0  0  0  0  0
   -8.5347    1.9163   -1.2258 H   0  0  0  0  0  0  0  0  0  0  0  0
   -8.9798    0.2743   -0.7562 H   0  0  0  0  0  0  0  0  0  0  0  0
    2.3488    0.7660   -1.1630 H   0  0  0  0  0  0  0  0  0  0  0  0
    2.2461    1.0967    0.5738 H   0  0  0  0  0  0  0  0  0  0  0  0
    4.4263   -0.0888    0.9345 H   0  0  0  0  0  0  0  0  0  0  0  0
    4.5353   -0.4360   -0.7901 H   0  0  0  0  0  0  0  0  0  0  0  0
    4.5863    2.0068   -1.2879 H   0  0  0  0  0  0  0  0  0  0  0  0
    4.4542    2.3645    0.4377 H   0  0  0  0  0  0  0  0  0  0  0  0
    6.9515    2.7277   -0.3364 H   0  0  0  0  0  0  0  0  0  0  0  0
 13 14  2  0
  8  9  1  0
 12 14  2  0
 14 11  1  0
 14 15  1  6
  3  4  2  0
  3 11  1  0
  4  5  1  0
 11  2  2  0
  9 10  3  0
 17 18  1  0
 17 16  1  0
 15 16  1  0
 10  7  1  0
  5  6  1  0
  5  1  2  0
  2  1  1  0
  6  7  1  0
  1 19  1  0
  2 20  1  0
  3 21  1  0
  4 22  1  0
  7 23  1  0
  7 24  1  0
  8 25  1  0
  8 26  1  0
  8 27  1  0
 15 28  1  0
 15 29  1  0
 16 30  1  0
 16 31  1  0
 17 32  1  0
 17 33  1  0
 18 34  1  0
M  END
