
     RDKit          3D

 21 22  0  0  0  0  0  0  0  0999 V2000
   -1.3173    1.7611    0.1646 C   0  0  0  0  0  0  0  0  0  0  0  0
   -2.1803    0.6893   -0.0149 C   0  0  0  0  0  0  0  0  0  0  0  0
   -1.6599   -0.5917   -0.1580 C   0  0  0  0  0  0  0  0  0  0  0  0
    3.0561    0.9631   -0.1217 C   0  0  0  0  0  0  0  0  0  0  0  0
    4.2288    0.1993    0.0533 C   0  0  0  0  0  0  0  0  0  0  0  0
   -3.8781    0.9597   -0.0592 Cl  0  0  0  0  0  0  0  0  0  0  0  0
   -2.7044   -1.9397   -0.3943 Cl  0  0  0  0  0  0  0  0  0  0  0  0
   -0.2905   -0.7977   -0.1238 C   0  0  0  0  0  0  0  0  0  0  0  0
    0.5808    0.2725    0.0663 C   0  0  0  0  0  0  0  0  0  0  0  0
    0.0482    1.5540    0.2083 C   0  0  0  0  0  0  0  0  0  0  0  0
    2.0249    0.0738    0.1095 C   0  0  0  0  0  0  0  0  0  0  0  0
    2.6048   -1.1052    0.3919 N   0  0  0  0  0  0  0  0  0  0  0  0
    3.9417   -1.0517    0.3689 N   0  0  0  0  0  0  0  0  0  0  0  0
   -1.7184    2.7588    0.2789 H   0  0  0  0  0  0  0  0  0  0  0  0
    2.9810    2.0012   -0.4018 H   0  0  0  0  0  0  0  0  0  0  0  0
    0.0837   -1.8031   -0.2649 H   0  0  0  0  0  0  0  0  0  0  0  0
    0.7026    2.4007    0.3662 H   0  0  0  0  0  0  0  0  0  0  0  0
    2.1549   -1.9591    0.6780 H   0  0  0  0  0  0  0  0  0  0  0  0
    5.6624    1.4168   -0.6559 H   0  0  0  0  0  0  0  0  0  0  0  0
    6.1990   -0.0865   -0.2165 H   0  0  0  0  0  0  0  0  0  0  0  0
    5.5333    0.6456   -0.0200 N   0  0  0  0  0  0  0  0  0  0  0  0
  6  2  1  0
  1  2  2  0
  1 10  1  0
  2  3  1  0
 10  9  2  0
  3  7  1  0
  3  8  2  0
  9  8  1  0
  9 11  1  0
 12 11  1  0
 12 13  1  0
 11  4  2  0
 13  5  2  0
  4  5  1  0
  5 21  1  0
  1 14  1  0
  4 15  1  0
  8 16  1  0
 10 17  1  0
 12 18  1  0
 21 19  1  0
 21 20  1  0
M  END
