
     RDKit          3D

 48 50  0  0  0  0  0  0  0  0999 V2000
    7.0341    1.3296   -1.0744 C   0  0  0  0  0  0  0  0  0  0  0  0
    3.8117   -0.5618   -0.7528 N   0  0  0  0  0  0  0  0  0  0  0  0
    5.7435   -0.6844    0.4170 O   0  0  0  0  0  0  0  0  0  0  0  0
    1.3643    3.1141    0.4936 Cl  0  0  0  0  0  0  0  0  0  0  0  0
    5.6423    0.8479   -1.4391 C   0  0  0  0  0  0  0  0  0  0  0  0
    1.4939    0.1055    0.5277 N   0  0  0  0  0  0  0  0  0  0  0  0
   -6.9926   -0.7343   -1.1543 O   0  0  0  0  0  0  0  0  0  0  0  0
    5.0998   -0.2025   -0.4948 C   0  0  0  0  0  0  0  0  0  0  0  0
   -2.3033    1.6318    0.2882 N   0  0  0  0  0  0  0  0  0  0  0  0
    3.1086   -1.5627   -0.0506 C   0  0  0  0  0  0  0  0  0  0  0  0
   -0.7958   -0.2059    0.3866 N   0  0  0  0  0  0  0  0  0  0  0  0
    3.5944   -2.8619    0.0227 C   0  0  0  0  0  0  0  0  0  0  0  0
   -3.0412   -0.5486    0.2718 N   0  0  0  0  0  0  0  0  0  0  0  0
    2.8825   -3.8406    0.6965 C   0  0  0  0  0  0  0  0  0  0  0  0
    1.6756   -3.5158    1.3013 C   0  0  0  0  0  0  0  0  0  0  0  0
    1.1822   -2.2227    1.2430 C   0  0  0  0  0  0  0  0  0  0  0  0
    1.8957   -1.2318    0.5701 C   0  0  0  0  0  0  0  0  0  0  0  0
    0.2394    0.6082    0.4524 C   0  0  0  0  0  0  0  0  0  0  0  0
    0.0371    2.0065    0.4318 C   0  0  0  0  0  0  0  0  0  0  0  0
   -1.2597    2.4487    0.3486 C   0  0  0  0  0  0  0  0  0  0  0  0
   -2.0207    0.3271    0.3111 C   0  0  0  0  0  0  0  0  0  0  0  0
   -4.4221   -0.1911    0.0372 C   0  0  2  0  0  0  0  0  0  0  0  0
   -5.3372   -1.3028    0.5377 C   0  0  0  0  0  0  0  0  0  0  0  0
   -6.7872   -0.9670    0.2214 C   0  0  0  0  0  0  0  0  0  0  0  0
   -6.2095    0.3393   -1.6301 C   0  0  0  0  0  0  0  0  0  0  0  0
   -4.7228    0.0861   -1.4358 C   0  0  0  0  0  0  0  0  0  0  0  0
    7.3635    2.0857   -1.7861 H   0  0  0  0  0  0  0  0  0  0  0  0
    7.0573    1.7772   -0.0813 H   0  0  0  0  0  0  0  0  0  0  0  0
    7.7595    0.5175   -1.0948 H   0  0  0  0  0  0  0  0  0  0  0  0
    3.3444   -0.1247   -1.5343 H   0  0  0  0  0  0  0  0  0  0  0  0
    4.9428    1.6881   -1.4675 H   0  0  0  0  0  0  0  0  0  0  0  0
    5.6356    0.4290   -2.4499 H   0  0  0  0  0  0  0  0  0  0  0  0
    2.2443    0.7771    0.4689 H   0  0  0  0  0  0  0  0  0  0  0  0
    4.5250   -3.1100   -0.4696 H   0  0  0  0  0  0  0  0  0  0  0  0
   -2.7828   -1.5190    0.1824 H   0  0  0  0  0  0  0  0  0  0  0  0
    3.2646   -4.8515    0.7421 H   0  0  0  0  0  0  0  0  0  0  0  0
    1.1135   -4.2717    1.8335 H   0  0  0  0  0  0  0  0  0  0  0  0
    0.2508   -1.9805    1.7297 H   0  0  0  0  0  0  0  0  0  0  0  0
   -1.4663    3.5138    0.3289 H   0  0  0  0  0  0  0  0  0  0  0  0
   -4.6353    0.7152    0.6104 H   0  0  0  0  0  0  0  0  0  0  0  0
   -5.0658   -2.2501    0.0599 H   0  0  0  0  0  0  0  0  0  0  0  0
   -5.2240   -1.4371    1.6160 H   0  0  0  0  0  0  0  0  0  0  0  0
   -7.0930   -0.0873    0.8072 H   0  0  0  0  0  0  0  0  0  0  0  0
   -7.4407   -1.7925    0.5081 H   0  0  0  0  0  0  0  0  0  0  0  0
   -6.4441    0.4621   -2.6885 H   0  0  0  0  0  0  0  0  0  0  0  0
   -6.4930    1.2719   -1.1198 H   0  0  0  0  0  0  0  0  0  0  0  0
   -4.1577    0.9539   -1.7825 H   0  0  0  0  0  0  0  0  0  0  0  0
   -4.4086   -0.7722   -2.0374 H   0  0  0  0  0  0  0  0  0  0  0  0
  1  5  1  0
  2  8  1  0
  2 10  1  0
  3  8  2  0
  4 19  1  0
  5  8  1  0
  6 17  1  0
  6 18  1  0
  7 24  1  0
  7 25  1  0
  9 20  2  0
  9 21  1  0
 10 12  2  0
 10 17  1  0
 11 18  1  0
 11 21  2  0
 12 14  1  0
 13 21  1  0
 13 22  1  0
 14 15  2  0
 15 16  1  0
 16 17  2  0
 18 19  2  0
 19 20  1  0
 22 23  1  0
 22 26  1  0
 23 24  1  0
 25 26  1  0
  1 27  1  0
  1 28  1  0
  1 29  1  0
  2 30  1  0
  5 31  1  0
  5 32  1  0
  6 33  1  0
 12 34  1  0
 13 35  1  0
 14 36  1  0
 15 37  1  0
 16 38  1  0
 20 39  1  0
 22 40  1  1
 23 41  1  0
 23 42  1  0
 24 43  1  0
 24 44  1  0
 25 45  1  0
 25 46  1  0
 26 47  1  0
 26 48  1  0
M  END
