
     RDKit          3D

 60 63  0  0  0  0  0  0  0  0999 V2000
   -0.6625    0.9765    3.1207 C   0  0  0  0  0  0  0  0  0  0  0  0
   -0.8002   -0.3151    3.6145 C   0  0  0  0  0  0  0  0  0  0  0  0
    0.0252    1.9149    3.8833 C   0  0  0  0  0  0  0  0  0  0  0  0
    0.5653    1.5636    5.1118 C   0  0  0  0  0  0  0  0  0  0  0  0
    0.4340    0.2686    5.5898 C   0  0  0  0  0  0  0  0  0  0  0  0
   -0.2562   -0.6834    4.8417 C   0  0  0  0  0  0  0  0  0  0  0  0
   -0.4377   -2.0750    5.3443 C   0  0  0  0  0  0  0  0  0  0  0  0
    0.5952   -2.5498    6.0957 N   0  0  0  0  0  0  0  0  0  0  0  0
   -1.4791   -2.7900    5.1491 N   0  0  0  0  0  0  0  0  0  0  0  0
   -1.2129    1.3283    1.7703 C   0  0  0  0  0  0  0  0  0  0  0  0
   -0.2652    0.9016    0.6384 C   0  0  1  0  0  0  0  0  0  0  0  0
   -0.9396    1.1773   -0.7144 C   0  0  0  0  0  0  0  0  0  0  0  0
   -0.8285    2.3016   -1.1865 O   0  0  0  0  0  0  0  0  0  0  0  0
   -1.6398    0.1972   -1.3051 N   0  0  0  0  0  0  0  0  0  0  0  0
   -1.9005   -1.1280   -0.7698 C   0  0  0  0  0  0  0  0  0  0  0  0
   -3.3998   -1.3701   -0.6910 C   0  0  0  0  0  0  0  0  0  0  0  0
   -3.7670    0.1497   -2.5004 C   0  0  0  0  0  0  0  0  0  0  0  0
   -2.2744    0.4119   -2.5977 C   0  0  0  0  0  0  0  0  0  0  0  0
   -3.9902   -1.1939   -2.0017 N   0  0  0  0  0  0  0  0  0  0  0  0
    0.9737    1.6531    0.7383 N   0  0  0  0  0  0  0  0  0  0  0  0
    2.3526    0.9608    0.1459 S   0  0  1  0  0  0  0  0  0  0  0  0
    3.3602    2.0073    0.1585 O   0  0  0  0  0  0  0  0  0  0  0  0
    2.5686   -0.2689    0.8881 O   0  0  0  0  0  0  0  0  0  0  0  0
    1.9806    0.5300   -1.5300 C   0  0  0  0  0  0  0  0  0  0  0  0
    2.0269    1.5391   -2.5159 C   0  0  0  0  0  0  0  0  0  0  0  0
    1.6010    1.2532   -3.7795 C   0  0  0  0  0  0  0  0  0  0  0  0
    1.0837   -1.0406   -3.1140 C   0  0  0  0  0  0  0  0  0  0  0  0
    1.1037   -0.0308   -4.1095 C   0  0  0  0  0  0  0  0  0  0  0  0
    1.5380   -0.7327   -1.8128 C   0  0  0  0  0  0  0  0  0  0  0  0
    0.6140   -0.3334   -5.3996 C   0  0  0  0  0  0  0  0  0  0  0  0
    0.1260   -1.5809   -5.6819 C   0  0  0  0  0  0  0  0  0  0  0  0
    0.1127   -2.5862   -4.6930 C   0  0  0  0  0  0  0  0  0  0  0  0
    0.5847   -2.3234   -3.4362 C   0  0  0  0  0  0  0  0  0  0  0  0
   -1.3288   -1.0536    3.0207 H   0  0  0  0  0  0  0  0  0  0  0  0
    0.1360    2.9280    3.5170 H   0  0  0  0  0  0  0  0  0  0  0  0
    1.0907    2.3034    5.7013 H   0  0  0  0  0  0  0  0  0  0  0  0
    0.8493    0.0092    6.5549 H   0  0  0  0  0  0  0  0  0  0  0  0
    0.5536   -3.5252    6.3453 H   0  0  0  0  0  0  0  0  0  0  0  0
    1.5228   -2.2102    5.9041 H   0  0  0  0  0  0  0  0  0  0  0  0
   -2.1950   -2.2607    4.6657 H   0  0  0  0  0  0  0  0  0  0  0  0
   -2.1835    0.8480    1.6187 H   0  0  0  0  0  0  0  0  0  0  0  0
   -1.3878    2.4037    1.6949 H   0  0  0  0  0  0  0  0  0  0  0  0
   -0.0176   -0.1505    0.7782 H   0  0  0  0  0  0  0  0  0  0  0  0
   -1.4417   -1.8721   -1.4284 H   0  0  0  0  0  0  0  0  0  0  0  0
   -1.4674   -1.2613    0.2172 H   0  0  0  0  0  0  0  0  0  0  0  0
   -3.5715   -2.3918   -0.3484 H   0  0  0  0  0  0  0  0  0  0  0  0
   -3.8240   -0.6937    0.0695 H   0  0  0  0  0  0  0  0  0  0  0  0
   -4.2075    0.2458   -3.4941 H   0  0  0  0  0  0  0  0  0  0  0  0
   -4.2202    0.9256   -1.8635 H   0  0  0  0  0  0  0  0  0  0  0  0
   -2.0802    1.4258   -2.9342 H   0  0  0  0  0  0  0  0  0  0  0  0
   -1.8208   -0.2737   -3.3215 H   0  0  0  0  0  0  0  0  0  0  0  0
   -4.9822   -1.3849   -1.9585 H   0  0  0  0  0  0  0  0  0  0  0  0
    0.8742    2.6178    0.4328 H   0  0  0  0  0  0  0  0  0  0  0  0
    2.3878    2.5291   -2.2731 H   0  0  0  0  0  0  0  0  0  0  0  0
    1.6271    2.0195   -4.5438 H   0  0  0  0  0  0  0  0  0  0  0  0
    1.5102   -1.5025   -1.0523 H   0  0  0  0  0  0  0  0  0  0  0  0
    0.6256    0.4362   -6.1612 H   0  0  0  0  0  0  0  0  0  0  0  0
   -0.2512   -1.8033   -6.6714 H   0  0  0  0  0  0  0  0  0  0  0  0
   -0.2722   -3.5679   -4.9349 H   0  0  0  0  0  0  0  0  0  0  0  0
    0.5800   -3.0944   -2.6756 H   0  0  0  0  0  0  0  0  0  0  0  0
  1  2  2  0
  1  3  1  0
  1 10  1  0
  2  6  1  0
  2 34  1  0
  3  4  2  0
  3 35  1  0
  4  5  1  0
  4 36  1  0
  5  6  2  0
  5 37  1  0
  6  7  1  0
  7  8  1  0
  7  9  2  0
  8 38  1  0
  8 39  1  0
  9 40  1  0
 10 11  1  0
 10 41  1  0
 10 42  1  0
 11 12  1  0
 11 20  1  0
 11 43  1  1
 12 13  2  0
 12 14  1  0
 14 15  1  0
 14 18  1  0
 15 16  1  0
 15 44  1  0
 15 45  1  0
 16 19  1  0
 16 46  1  0
 16 47  1  0
 17 18  1  0
 17 19  1  0
 17 48  1  0
 17 49  1  0
 18 50  1  0
 18 51  1  0
 19 52  1  0
 21 20  1  1
 20 53  1  0
 21 22  2  0
 21 23  2  0
 21 24  1  0
 24 25  2  0
 24 29  1  0
 25 26  1  0
 25 54  1  0
 26 28  2  0
 26 55  1  0
 27 28  1  0
 27 29  2  0
 27 33  1  0
 28 30  1  0
 29 56  1  0
 30 31  2  0
 30 57  1  0
 31 32  1  0
 31 58  1  0
 32 33  2  0
 32 59  1  0
 33 60  1  0
M  END
