
     RDKit          3D

 44 46  0  0  0  0  0  0  0  0999 V2000
   -1.3073    2.0734   -0.0282 S   0  0  0  0  0  0  0  0  0  0  0  0
    0.4151    1.9980    0.0184 C   0  0  0  0  0  0  0  0  0  0  0  0
    0.8760    0.6931    0.0394 C   0  0  0  0  0  0  0  0  0  0  0  0
   -0.2015   -0.2394    0.0177 C   0  0  0  0  0  0  0  0  0  0  0  0
   -1.4305    0.3371   -0.0195 C   0  0  0  0  0  0  0  0  0  0  0  0
    1.1968    3.1133    0.0296 N   0  0  0  0  0  0  0  0  0  0  0  0
    0.7074    4.3992    0.0292 C   0  0  0  0  0  0  0  0  0  0  0  0
    1.6491    5.3543    0.0514 N   0  0  0  0  0  0  0  0  0  0  0  0
   -0.4969    4.6157    0.0047 O   0  0  0  0  0  0  0  0  0  0  0  0
    2.3152    0.3769    0.0845 C   0  0  0  0  0  0  0  0  0  0  0  0
    3.1658    1.2721    0.0501 O   0  0  0  0  0  0  0  0  0  0  0  0
    2.6509   -0.9190    0.1769 N   0  0  0  0  0  0  0  0  0  0  0  0
    4.0162   -1.4028    0.1875 C   0  0  2  0  0  0  0  0  0  0  0  0
    4.4688   -1.8030   -1.2166 C   0  0  0  0  0  0  0  0  0  0  0  0
    5.8365   -2.2796   -1.1654 N   0  0  0  0  0  0  0  0  0  0  0  0
    5.9645   -3.4734   -0.3473 C   0  0  0  0  0  0  0  0  0  0  0  0
    5.5666   -3.1534    1.0852 C   0  0  0  0  0  0  0  0  0  0  0  0
    4.1530   -2.5832    1.1440 C   0  0  0  0  0  0  0  0  0  0  0  0
   -2.7354   -0.3148   -0.0578 C   0  0  0  0  0  0  0  0  0  0  0  0
   -2.8607   -1.6179   -0.5481 C   0  0  0  0  0  0  0  0  0  0  0  0
   -4.0872   -2.2581   -0.5802 C   0  0  0  0  0  0  0  0  0  0  0  0
   -5.2157   -1.5883   -0.1310 C   0  0  0  0  0  0  0  0  0  0  0  0
   -5.1256   -0.2930    0.3518 C   0  0  0  0  0  0  0  0  0  0  0  0
   -3.8898    0.3321    0.3903 C   0  0  0  0  0  0  0  0  0  0  0  0
   -6.7561   -2.3794   -0.1794 Cl  0  0  0  0  0  0  0  0  0  0  0  0
   -0.0773   -1.3132    0.0436 H   0  0  0  0  0  0  0  0  0  0  0  0
    2.1945    2.9128    0.0392 H   0  0  0  0  0  0  0  0  0  0  0  0
    2.6327    5.1535    0.1053 H   0  0  0  0  0  0  0  0  0  0  0  0
    1.3687    6.3192    0.0764 H   0  0  0  0  0  0  0  0  0  0  0  0
    1.9266   -1.6181    0.1702 H   0  0  0  0  0  0  0  0  0  0  0  0
    4.6583   -0.5919    0.5356 H   0  0  0  0  0  0  0  0  0  0  0  0
    3.7659   -2.5581   -1.6085 H   0  0  0  0  0  0  0  0  0  0  0  0
    4.4143   -0.9362   -1.8785 H   0  0  0  0  0  0  0  0  0  0  0  0
    6.1632   -2.4693   -2.1034 H   0  0  0  0  0  0  0  0  0  0  0  0
    5.3405   -4.3047   -0.7152 H   0  0  0  0  0  0  0  0  0  0  0  0
    7.0010   -3.8145   -0.3830 H   0  0  0  0  0  0  0  0  0  0  0  0
    5.6342   -4.0516    1.7019 H   0  0  0  0  0  0  0  0  0  0  0  0
    6.2708   -2.4261    1.4996 H   0  0  0  0  0  0  0  0  0  0  0  0
    3.9046   -2.2704    2.1607 H   0  0  0  0  0  0  0  0  0  0  0  0
    3.4328   -3.3622    0.8663 H   0  0  0  0  0  0  0  0  0  0  0  0
   -1.9926   -2.1414   -0.9273 H   0  0  0  0  0  0  0  0  0  0  0  0
   -4.1617   -3.2659   -0.9657 H   0  0  0  0  0  0  0  0  0  0  0  0
   -6.0062    0.2268    0.7039 H   0  0  0  0  0  0  0  0  0  0  0  0
   -3.8371    1.3358    0.7943 H   0  0  0  0  0  0  0  0  0  0  0  0
  1  5  1  0
  1  2  1  0
  2  6  1  0
  2  3  2  0
  4  3  1  0
  3 10  1  0
  5  4  2  0
  4 26  1  0
 19  5  1  0
  7  6  1  0
  6 27  1  0
  9  7  2  0
  7  8  1  0
  8 28  1  0
  8 29  1  0
 10 11  2  0
 10 12  1  0
 12 13  1  0
 12 30  1  0
 13 18  1  0
 13 14  1  0
 13 31  1  1
 14 15  1  0
 14 32  1  0
 14 33  1  0
 15 16  1  0
 15 34  1  0
 17 16  1  0
 16 35  1  0
 16 36  1  0
 18 17  1  0
 17 37  1  0
 17 38  1  0
 18 39  1  0
 18 40  1  0
 20 19  2  0
 19 24  1  0
 21 20  1  0
 20 41  1  0
 21 22  2  0
 21 42  1  0
 25 22  1  0
 22 23  1  0
 23 24  2  0
 23 43  1  0
 24 44  1  0
M  END
