
     RDKit          3D

 30 31  0  0  0  0  0  0  0  0999 V2000
   -6.5507   -0.7359   -0.4195 C   0  0  0  0  0  0  0  0  0  0  0  0
   -7.8498   -0.2637   -0.4056 C   0  0  0  0  0  0  0  0  0  0  0  0
   -8.0841    1.0150    0.0815 C   0  0  0  0  0  0  0  0  0  0  0  0
   -7.1233    1.8064    0.5422 N   0  0  0  0  0  0  0  0  0  0  0  0
   -5.8786    1.3522    0.5187 C   0  0  0  0  0  0  0  0  0  0  0  0
   -5.5298    0.0923    0.0380 C   0  0  0  0  0  0  0  0  0  0  0  0
   -4.1354   -0.4258    0.0424 C   0  0  0  0  0  0  0  0  0  0  0  0
   -3.8868   -1.6134    0.1082 O   0  0  0  0  0  0  0  0  0  0  0  0
   -3.1681    0.5259   -0.0393 N   0  0  0  0  0  0  0  0  0  0  0  0
   -1.8792    0.1577    0.0129 N   0  0  0  0  0  0  0  0  0  0  0  0
   -0.9655    1.0387   -0.1127 C   0  0  0  0  0  0  0  0  0  0  0  0
    0.4300    0.6514   -0.0540 C   0  0  0  0  0  0  0  0  0  0  0  0
    1.4118    1.6314   -0.1822 C   0  0  0  0  0  0  0  0  0  0  0  0
    2.7499    1.3137   -0.1315 C   0  0  0  0  0  0  0  0  0  0  0  0
    4.0508    2.6600   -0.3043 Br  0  0  0  0  0  0  0  0  0  0  0  0
    3.1642   -0.0127    0.0508 C   0  0  0  0  0  0  0  0  0  0  0  0
    4.4691   -0.2513    0.0936 O   0  0  0  0  0  0  0  0  0  0  0  0
    2.1801   -0.9959    0.1763 C   0  0  0  0  0  0  0  0  0  0  0  0
    2.6792   -2.7924    0.4203 Br  0  0  0  0  0  0  0  0  0  0  0  0
    0.8192   -0.6909    0.1275 C   0  0  0  0  0  0  0  0  0  0  0  0
   -0.0535   -1.6779    0.2518 O   0  0  0  0  0  0  0  0  0  0  0  0
   -6.3280   -1.7286   -0.7872 H   0  0  0  0  0  0  0  0  0  0  0  0
   -8.6704   -0.8711   -0.7605 H   0  0  0  0  0  0  0  0  0  0  0  0
   -9.0920    1.4128    0.1054 H   0  0  0  0  0  0  0  0  0  0  0  0
   -5.1285    2.0212    0.9282 H   0  0  0  0  0  0  0  0  0  0  0  0
   -3.3987    1.4968   -0.2137 H   0  0  0  0  0  0  0  0  0  0  0  0
   -1.1893    2.0950   -0.2669 H   0  0  0  0  0  0  0  0  0  0  0  0
    1.1049    2.6598   -0.3243 H   0  0  0  0  0  0  0  0  0  0  0  0
    4.6705   -1.1881    0.2222 H   0  0  0  0  0  0  0  0  0  0  0  0
   -0.9679   -1.3051    0.2027 H   0  0  0  0  0  0  0  0  0  0  0  0
  1  2  2  0
  1  6  1  0
  1 22  1  0
  2  3  1  0
  2 23  1  0
  3  4  2  0
  3 24  1  0
  4  5  1  0
  5  6  2  0
  5 25  1  0
  6  7  1  0
  7  8  2  0
  7  9  1  0
  9 10  1  0
  9 26  1  0
 10 11  2  0
 11 12  1  0
 11 27  1  0
 12 13  2  0
 12 20  1  0
 13 14  1  0
 13 28  1  0
 14 15  1  0
 14 16  2  0
 16 17  1  0
 16 18  1  0
 17 29  1  0
 18 19  1  0
 18 20  2  0
 20 21  1  0
 21 30  1  0
M  END
