
     RDKit          3D

 70 72  0  0  0  0  0  0  0  0999 V2000
   -6.2228    2.9748   -0.2185 F   0  0  0  0  0  0  0  0  0  0  0  0
   -5.0023    2.6165   -0.6121 C   0  0  1  0  0  0  0  0  0  0  0  0
   -4.6943    3.3291   -1.6943 F   0  0  0  0  0  0  0  0  0  0  0  0
   -4.1517    2.9597    0.3561 F   0  0  0  0  0  0  0  0  0  0  0  0
   -4.8956    1.1133   -0.8719 C   0  0  1  0  0  0  0  0  0  0  0  0
   -5.2821    0.4786    0.3116 O   0  0  0  0  0  0  0  0  0  0  0  0
   -4.4964   -0.5465    0.7862 C   0  0  0  0  0  0  0  0  0  0  0  0
   -5.1481   -1.7640    1.0125 C   0  0  0  0  0  0  0  0  0  0  0  0
   -4.3460   -2.7739    1.5383 C   0  0  0  0  0  0  0  0  0  0  0  0
   -3.0052   -2.6215    1.8120 C   0  0  0  0  0  0  0  0  0  0  0  0
   -2.3847   -1.3985    1.5821 C   0  0  0  0  0  0  0  0  0  0  0  0
   -3.1557   -0.3582    1.0734 C   0  0  0  0  0  0  0  0  0  0  0  0
   -0.9254   -1.2006    1.8792 C   0  0  0  0  0  0  0  0  0  0  0  0
   -0.0722   -0.9557    0.6242 C   0  0  1  0  0  0  0  0  0  0  0  0
    1.3910   -0.7313    1.0009 C   0  0  1  0  0  0  0  0  0  0  0  0
    2.2759   -0.4407   -0.2189 C   0  0  2  0  0  0  0  0  0  0  0  0
    2.2717   -1.5963   -1.2165 C   0  0  0  0  0  0  0  0  0  0  0  0
    0.6176   -1.8217   -1.9203 S   0  0  0  0  0  0  0  0  0  0  0  0
   -0.2080   -2.1316   -0.3377 C   0  0  0  0  0  0  0  0  0  0  0  0
    0.6238   -3.1268   -2.6822 O   0  0  0  0  0  0  0  0  0  0  0  0
    3.5954   -0.0986    0.2767 N   0  0  0  0  0  0  0  0  0  0  0  0
    4.4486    0.6356   -0.6428 C   0  0  0  0  0  0  0  0  0  0  0  0
    5.7073    1.0728    0.0568 C   0  0  0  0  0  0  0  0  0  0  0  0
    6.9461    0.5983   -0.3472 C   0  0  0  0  0  0  0  0  0  0  0  0
    8.1335    0.9675    0.2952 C   0  0  0  0  0  0  0  0  0  0  0  0
    8.0339    1.8428    1.3710 C   0  0  0  0  0  0  0  0  0  0  0  0
    6.7971    2.3284    1.7891 C   0  0  0  0  0  0  0  0  0  0  0  0
    5.6372    1.9452    1.1426 C   0  0  0  0  0  0  0  0  0  0  0  0
    9.4636    0.4010   -0.1913 C   0  0  1  0  0  0  0  0  0  0  0  0
   10.6459    0.9052    0.6365 C   0  0  0  0  0  0  0  0  0  0  0  0
    9.4257   -1.1302   -0.0958 C   0  0  0  0  0  0  0  0  0  0  0  0
    9.6903    0.8153   -1.6516 C   0  0  0  0  0  0  0  0  0  0  0  0
    1.4849    0.3440    1.8959 O   0  0  0  0  0  0  0  0  0  0  0  0
   -4.9325   -3.9636    1.7758 F   0  0  0  0  0  0  0  0  0  0  0  0
   -6.4709   -1.9721    0.6922 N   0  0  0  0  0  0  0  0  0  0  0  0
   -5.7911    0.5991   -2.0032 C   0  0  1  0  0  0  0  0  0  0  0  0
   -7.0855    0.7900   -1.7521 F   0  0  0  0  0  0  0  0  0  0  0  0
   -5.5081    1.1837   -3.1667 F   0  0  0  0  0  0  0  0  0  0  0  0
   -5.6003   -0.7125   -2.1502 F   0  0  0  0  0  0  0  0  0  0  0  0
   -3.8568    0.8977   -1.1526 H   0  0  0  0  0  0  0  0  0  0  0  0
   -2.4495   -3.4590    2.2154 H   0  0  0  0  0  0  0  0  0  0  0  0
   -2.7080    0.6166    0.9148 H   0  0  0  0  0  0  0  0  0  0  0  0
   -0.8042   -0.3517    2.5539 H   0  0  0  0  0  0  0  0  0  0  0  0
   -0.5376   -2.0775    2.4052 H   0  0  0  0  0  0  0  0  0  0  0  0
   -0.4380   -0.0483    0.1273 H   0  0  0  0  0  0  0  0  0  0  0  0
    1.7618   -1.6625    1.4669 H   0  0  0  0  0  0  0  0  0  0  0  0
    1.8812    0.4559   -0.7135 H   0  0  0  0  0  0  0  0  0  0  0  0
    2.9385   -1.3996   -2.0584 H   0  0  0  0  0  0  0  0  0  0  0  0
    2.5651   -2.5421   -0.7517 H   0  0  0  0  0  0  0  0  0  0  0  0
    0.2116   -3.0539    0.0761 H   0  0  0  0  0  0  0  0  0  0  0  0
   -1.2545   -2.3178   -0.5868 H   0  0  0  0  0  0  0  0  0  0  0  0
    4.0757   -0.9293    0.6072 H   0  0  0  0  0  0  0  0  0  0  0  0
    4.7124    0.0639   -1.5425 H   0  0  0  0  0  0  0  0  0  0  0  0
    3.8909    1.5125   -0.9832 H   0  0  0  0  0  0  0  0  0  0  0  0
    6.9785   -0.0857   -1.1884 H   0  0  0  0  0  0  0  0  0  0  0  0
    8.9189    2.1614    1.9048 H   0  0  0  0  0  0  0  0  0  0  0  0
    6.7491    3.0105    2.6285 H   0  0  0  0  0  0  0  0  0  0  0  0
    4.6762    2.3206    1.4735 H   0  0  0  0  0  0  0  0  0  0  0  0
   10.5608    0.6259    1.6880 H   0  0  0  0  0  0  0  0  0  0  0  0
   11.5708    0.4682    0.2568 H   0  0  0  0  0  0  0  0  0  0  0  0
   10.7509    1.9905    0.5816 H   0  0  0  0  0  0  0  0  0  0  0  0
    8.6468   -1.5592   -0.7272 H   0  0  0  0  0  0  0  0  0  0  0  0
   10.3798   -1.5549   -0.4161 H   0  0  0  0  0  0  0  0  0  0  0  0
    9.2420   -1.4571    0.9295 H   0  0  0  0  0  0  0  0  0  0  0  0
    9.7325    1.9016   -1.7498 H   0  0  0  0  0  0  0  0  0  0  0  0
   10.6351    0.4091   -2.0190 H   0  0  0  0  0  0  0  0  0  0  0  0
    8.9000    0.4505   -2.3091 H   0  0  0  0  0  0  0  0  0  0  0  0
    2.4115    0.6285    1.8400 H   0  0  0  0  0  0  0  0  0  0  0  0
   -7.0393   -1.1423    0.6489 H   0  0  0  0  0  0  0  0  0  0  0  0
   -6.9323   -2.7013    1.2119 H   0  0  0  0  0  0  0  0  0  0  0  0
 29 31  1  6
 30 29  1  0
 29 25  1  0
 29 32  1  0
 26 25  1  0
 26 27  2  0
 25 24  2  0
 27 28  1  0
 24 23  1  0
 28 23  2  0
 23 22  1  0
 22 21  1  0
 21 16  1  0
 33 15  1  0
 16 17  1  0
 16 15  1  0
 18 17  1  1
 15 14  1  0
 34  9  1  0
 18 20  2  0
 18 19  1  0
 14 13  1  0
 14 19  1  0
 10  9  2  0
 10 11  1  0
  9  8  1  0
 13 11  1  0
 11 12  2  0
  8 35  1  0
  8  7  2  0
 12  7  1  0
  7  6  1  0
  2  3  1  6
  6  5  1  0
  5  2  1  0
  5 36  1  0
  2  1  1  0
  2  4  1  0
 36 39  1  6
 36 38  1  0
 36 37  1  0
  5 40  1  6
 10 41  1  0
 12 42  1  0
 13 43  1  0
 13 44  1  0
 14 45  1  6
 15 46  1  1
 16 47  1  6
 17 48  1  0
 17 49  1  0
 19 50  1  0
 19 51  1  0
 21 52  1  0
 22 53  1  0
 22 54  1  0
 24 55  1  0
 26 56  1  0
 27 57  1  0
 28 58  1  0
 30 59  1  0
 30 60  1  0
 30 61  1  0
 31 62  1  0
 31 63  1  0
 31 64  1  0
 32 65  1  0
 32 66  1  0
 32 67  1  0
 33 68  1  0
 35 69  1  0
 35 70  1  0
M  END
