
     RDKit          3D

 13 12  0  0  0  0  0  0  0  0999 V2000
    1.0996   -0.0534   -0.8578 O   0  0  0  0  0  0  0  0  0  0  0  0
    0.0137   -0.0201    0.0329 C   0  0  1  0  0  0  0  0  0  0  0  0
   -1.0819   -0.0081   -0.8463 O   0  0  0  0  0  0  0  0  0  0  0  0
   -0.0072   -1.2680    0.9143 C   0  0  0  0  0  0  0  0  0  0  0  0
    0.0457    1.2484    0.8839 C   0  0  0  0  0  0  0  0  0  0  0  0
    1.9153   -0.0654   -0.3473 H   0  0  0  0  0  0  0  0  0  0  0  0
   -1.8925    0.0154   -0.3279 H   0  0  0  0  0  0  0  0  0  0  0  0
    0.8745   -1.3073    1.5568 H   0  0  0  0  0  0  0  0  0  0  0  0
   -0.8833   -1.2720    1.5652 H   0  0  0  0  0  0  0  0  0  0  0  0
   -0.0280   -2.1729    0.3054 H   0  0  0  0  0  0  0  0  0  0  0  0
    0.0558    2.1386    0.2534 H   0  0  0  0  0  0  0  0  0  0  0  0
   -0.8250    1.3022    1.5400 H   0  0  0  0  0  0  0  0  0  0  0  0
    0.9326    1.2690    1.5201 H   0  0  0  0  0  0  0  0  0  0  0  0
  5  2  1  0
  2  1  1  6
  2  4  1  0
  2  3  1  0
  1  6  1  0
  3  7  1  0
  4  8  1  0
  4  9  1  0
  4 10  1  0
  5 11  1  0
  5 12  1  0
  5 13  1  0
M  END
