
     RDKit          3D

 56 58  0  0  0  0  0  0  0  0999 V2000
    2.2059    0.5762   -1.0670 B   0  0  0  0  0  0  0  0  0  0  0  0
    4.3963    0.1927   -0.1876 C   0  0  0  0  0  0  0  0  0  0  0  0
    5.6200    0.7753    0.1552 C   0  0  0  0  0  0  0  0  0  0  0  0
    5.9455    2.1691   -0.2408 C   0  0  0  0  0  0  0  0  0  0  0  0
    6.5253    0.0384    0.9219 C   0  0  0  0  0  0  0  0  0  0  0  0
    6.2088   -1.2348    1.3565 C   0  0  0  0  0  0  0  0  0  0  0  0
    4.9869   -1.7941    1.0097 C   0  0  0  0  0  0  0  0  0  0  0  0
    4.0737   -1.1009    0.2293 C   0  0  0  0  0  0  0  0  0  0  0  0
    2.7628   -1.7032   -0.1870 C   0  0  0  0  0  0  0  0  0  0  0  0
    1.6643   -0.6311   -0.2107 C   0  0  2  0  0  0  0  0  0  0  0  0
   -1.7066   -2.3309   -0.5498 C   0  0  0  0  0  0  0  0  0  0  0  0
   -2.9814   -1.7689    0.0799 C   0  0  2  0  0  0  0  0  0  0  0  0
   -4.2120   -2.4415   -0.5234 C   0  0  0  0  0  0  0  0  0  0  0  0
   -5.5068   -1.8847    0.0536 C   0  0  0  0  0  0  0  0  0  0  0  0
   -5.6018   -0.3738   -0.1287 C   0  0  2  0  0  0  0  0  0  0  0  0
   -8.5318    1.8565    0.7038 C   0  0  0  0  0  0  0  0  0  0  0  0
   -4.3796    0.2966    0.4942 C   0  0  0  0  0  0  0  0  0  0  0  0
   -3.0786   -0.2530   -0.0809 C   0  0  0  0  0  0  0  0  0  0  0  0
    0.3960   -1.1406   -0.6699 N   0  0  0  0  0  0  0  0  0  0  0  0
   -6.8356    0.1132    0.4699 N   0  0  0  0  0  0  0  0  0  0  0  0
   -8.9445    3.1710    0.2368 N   0  0  0  0  0  0  0  0  0  0  0  0
    1.4132    1.2983   -1.8798 O   0  0  0  0  0  0  0  0  0  0  0  0
    3.5429    0.8830   -0.9801 O   0  0  0  0  0  0  0  0  0  0  0  0
    5.1395    3.0475   -0.4195 O   0  0  0  0  0  0  0  0  0  0  0  0
    7.2563    2.3554   -0.3593 O   0  0  0  0  0  0  0  0  0  0  0  0
    7.4749    0.4736    1.2001 H   0  0  0  0  0  0  0  0  0  0  0  0
    6.9084   -1.7891    1.9664 H   0  0  0  0  0  0  0  0  0  0  0  0
    4.7361   -2.7923    1.3476 H   0  0  0  0  0  0  0  0  0  0  0  0
    2.8611   -2.1456   -1.1850 H   0  0  0  0  0  0  0  0  0  0  0  0
    2.4954   -2.5157    0.4899 H   0  0  0  0  0  0  0  0  0  0  0  0
    1.5339   -0.2644    0.8160 H   0  0  0  0  0  0  0  0  0  0  0  0
   -1.7002   -2.1144   -1.6221 H   0  0  0  0  0  0  0  0  0  0  0  0
   -1.7045   -3.4207   -0.4507 H   0  0  0  0  0  0  0  0  0  0  0  0
   -2.9604   -1.9984    1.1521 H   0  0  0  0  0  0  0  0  0  0  0  0
   -4.2055   -2.2956   -1.6101 H   0  0  0  0  0  0  0  0  0  0  0  0
   -4.1637   -3.5214   -0.3585 H   0  0  0  0  0  0  0  0  0  0  0  0
   -6.3640   -2.3691   -0.4246 H   0  0  0  0  0  0  0  0  0  0  0  0
   -5.5704   -2.1176    1.1226 H   0  0  0  0  0  0  0  0  0  0  0  0
   -5.5805   -0.1672   -1.2154 H   0  0  0  0  0  0  0  0  0  0  0  0
   -7.3427    1.5082   -1.0579 H   0  0  0  0  0  0  0  0  0  0  0  0
   -6.4535    2.1591    0.3105 H   0  0  0  0  0  0  0  0  0  0  0  0
   -9.2863    1.0732    0.5341 H   0  0  0  0  0  0  0  0  0  0  0  0
   -8.3750    1.9036    1.7839 H   0  0  0  0  0  0  0  0  0  0  0  0
   -4.4147    1.3787    0.3437 H   0  0  0  0  0  0  0  0  0  0  0  0
   -4.4061    0.1303    1.5768 H   0  0  0  0  0  0  0  0  0  0  0  0
   -2.2316    0.2395    0.4047 H   0  0  0  0  0  0  0  0  0  0  0  0
   -3.0109    0.0006   -1.1459 H   0  0  0  0  0  0  0  0  0  0  0  0
    0.1629   -1.0495   -1.6451 H   0  0  0  0  0  0  0  0  0  0  0  0
   -7.5807   -0.5292    0.2233 H   0  0  0  0  0  0  0  0  0  0  0  0
   -9.2406    3.1058   -0.7294 H   0  0  0  0  0  0  0  0  0  0  0  0
   -9.7633    3.4686    0.7509 H   0  0  0  0  0  0  0  0  0  0  0  0
    1.8585    2.0038   -2.3633 H   0  0  0  0  0  0  0  0  0  0  0  0
    7.4373    3.2862   -0.5589 H   0  0  0  0  0  0  0  0  0  0  0  0
   -0.4550   -1.8150    0.1234 C   0  0  0  0  0  0  0  0  0  0  0  0
   -7.2300    1.4402    0.0380 C   0  0  0  0  0  0  0  0  0  0  0  0
   -0.2449   -1.9956    1.3166 O   0  0  0  0  0  0  0  0  0  0  0  0
 18 17  1  0
 18 12  1  0
 17 15  1  0
 11 12  1  0
 11 54  1  0
 15 20  1  0
 15 14  1  0
 12 13  1  0
 20 55  1  0
 13 14  1  0
 55 16  1  0
 22  1  1  0
 54 19  1  0
 54 56  2  0
 24  4  2  0
 19 10  1  0
 16 21  1  0
  1 10  1  0
  1 23  1  0
 10  9  1  0
  4  3  1  0
  4 25  1  0
 23  2  1  0
  3  2  2  0
  3  5  1  0
  2  8  1  0
  5  6  2  0
  8  9  1  0
  8  7  2  0
  6  7  1  0
  5 26  1  0
  6 27  1  0
  7 28  1  0
  9 29  1  0
  9 30  1  0
 10 31  1  1
 11 32  1  0
 11 33  1  0
 12 34  1  1
 13 35  1  0
 13 36  1  0
 14 37  1  0
 14 38  1  0
 15 39  1  6
 55 40  1  0
 55 41  1  0
 16 42  1  0
 16 43  1  0
 17 44  1  0
 17 45  1  0
 18 46  1  0
 18 47  1  0
 19 48  1  0
 20 49  1  0
 21 50  1  0
 21 51  1  0
 22 52  1  0
 25 53  1  0
M  END
