
     RDKit          3D

 34 34  0  0  0  0  0  0  0  0999 V2000
   -7.8089    8.3760   -2.5612 O   0  0  0  0  0  0  0  0  0  0  0  0
   -6.6433    7.7131   -2.5599 C   0  0  0  0  0  0  0  0  0  0  0  0
   -5.4144    8.3476   -2.3968 C   0  0  0  0  0  0  0  0  0  0  0  0
   -4.2489    7.6005   -2.4052 C   0  0  0  0  0  0  0  0  0  0  0  0
   -4.2793    6.2178   -2.5759 C   0  0  0  0  0  0  0  0  0  0  0  0
   -5.5210    5.5931   -2.7390 C   0  0  0  0  0  0  0  0  0  0  0  0
   -6.6879    6.3258   -2.7319 C   0  0  0  0  0  0  0  0  0  0  0  0
   -3.0229    5.4838   -2.5842 C   0  0  0  0  0  0  0  0  0  0  0  0
   -3.0047    4.2219   -2.7324 N   0  0  0  0  0  0  0  0  0  0  0  0
   -1.7000    3.7578   -2.7286 O   0  0  0  0  0  0  0  0  0  0  0  0
   -1.5877    2.4166   -2.8139 C   0  0  0  0  0  0  0  0  0  0  0  0
   -0.1425    2.0082   -2.8107 C   0  0  0  0  0  0  0  0  0  0  0  0
    0.2621    2.6389   -0.3899 C   0  0  0  0  0  0  0  0  0  0  0  0
   -0.3579    0.2830   -0.9593 C   0  0  0  0  0  0  0  0  0  0  0  0
    0.3844    1.5311   -1.4367 C   0  0  1  0  0  0  0  0  0  0  0  0
    1.8630    1.1875   -1.6302 C   0  0  0  0  0  0  0  0  0  0  0  0
   -2.5280    1.6743   -2.8779 O   0  0  0  0  0  0  0  0  0  0  0  0
   -7.6636    9.3218   -2.4416 H   0  0  0  0  0  0  0  0  0  0  0  0
   -5.3651    9.4222   -2.2658 H   0  0  0  0  0  0  0  0  0  0  0  0
   -3.2998    8.1063   -2.2747 H   0  0  0  0  0  0  0  0  0  0  0  0
   -2.1083    6.0639   -2.4617 H   0  0  0  0  0  0  0  0  0  0  0  0
    0.4786    2.8364   -3.1580 H   0  0  0  0  0  0  0  0  0  0  0  0
   -0.0354    1.1925   -3.5294 H   0  0  0  0  0  0  0  0  0  0  0  0
    0.7255    2.3218    0.5463 H   0  0  0  0  0  0  0  0  0  0  0  0
    0.7625    3.5534   -0.7145 H   0  0  0  0  0  0  0  0  0  0  0  0
   -0.7767    2.8874   -0.1652 H   0  0  0  0  0  0  0  0  0  0  0  0
   -1.4067    0.4822   -0.7389 H   0  0  0  0  0  0  0  0  0  0  0  0
    0.1018   -0.0955   -0.0442 H   0  0  0  0  0  0  0  0  0  0  0  0
   -0.3191   -0.5130   -1.7057 H   0  0  0  0  0  0  0  0  0  0  0  0
    2.3056    0.8476   -0.6921 H   0  0  0  0  0  0  0  0  0  0  0  0
    2.4320    2.0551   -1.9710 H   0  0  0  0  0  0  0  0  0  0  0  0
    1.9940    0.3925   -2.3675 H   0  0  0  0  0  0  0  0  0  0  0  0
   -5.5733    4.5206   -2.8731 H   0  0  0  0  0  0  0  0  0  0  0  0
   -7.6429    5.8329   -2.8623 H   0  0  0  0  0  0  0  0  0  0  0  0
  1 18  1  0
  1  2  1  0
  2  3  2  0
  2  7  1  0
  3 19  1  0
  3  4  1  0
  4 20  1  0
  4  5  2  0
  5  8  1  0
  5  6  1  0
  6 33  1  0
  6  7  2  0
  7 34  1  0
  8 21  1  0
  8  9  2  0
  9 10  1  0
 10 11  1  0
 11 17  2  0
 11 12  1  0
 12 22  1  0
 12 23  1  0
 15 12  1  6
 13 15  1  0
 13 24  1  0
 13 25  1  0
 13 26  1  0
 14 15  1  0
 14 27  1  0
 14 28  1  0
 14 29  1  0
 15 16  1  0
 16 30  1  0
 16 31  1  0
 16 32  1  0
M  END
