
     RDKit          3D

 54 58  0  0  0  0  0  0  0  0999 V2000
   -4.3436   -1.9314   -1.0317 C   0  0  0  0  0  0  0  0  0  0  0  0
   -3.8235   -3.3511   -0.9329 C   0  0  0  0  0  0  0  0  0  0  0  0
   -5.1487   -3.7391    0.9443 C   0  0  0  0  0  0  0  0  0  0  0  0
    1.7374   -0.6781   -0.9792 C   0  0  0  0  0  0  0  0  0  0  0  0
    4.7138    0.6755    0.6467 N   0  0  0  0  0  0  0  0  0  0  0  0
    6.0174    0.2695    0.5138 C   0  0  0  0  0  0  0  0  0  0  0  0
    6.2223   -0.8675   -0.2869 C   0  0  0  0  0  0  0  0  0  0  0  0
    8.3868    0.3644    0.8721 C   0  0  0  0  0  0  0  0  0  0  0  0
    7.4831   -1.3952   -0.5159 C   0  0  0  0  0  0  0  0  0  0  0  0
   -0.6227    4.7080   -0.2890 C   0  0  0  0  0  0  0  0  0  0  0  0
   -1.5529    2.5430   -0.1416 C   0  0  0  0  0  0  0  0  0  0  0  0
   -1.3210    1.1336   -0.2423 C   0  0  0  0  0  0  0  0  0  0  0  0
   -2.3395    0.2550   -0.0022 C   0  0  0  0  0  0  0  0  0  0  0  0
   -3.6323    0.7254    0.3254 C   0  0  0  0  0  0  0  0  0  0  0  0
   -3.8402    2.1043    0.5045 C   0  0  0  0  0  0  0  0  0  0  0  0
   -2.7860    3.0053    0.2369 C   0  0  0  0  0  0  0  0  0  0  0  0
   -4.7621   -0.1145    0.5635 C   0  0  0  0  0  0  0  0  0  0  0  0
   -5.8654    0.3845    1.0846 N   0  0  0  0  0  0  0  0  0  0  0  0
   -5.9233    1.7088    1.2740 C   0  0  0  0  0  0  0  0  0  0  0  0
   -5.0158    2.5943    0.9713 N   0  0  0  0  0  0  0  0  0  0  0  0
   -4.7106   -1.4574    0.3015 N   0  0  0  0  0  0  0  0  0  0  0  0
   -4.7750   -4.2017   -0.3354 O   0  0  0  0  0  0  0  0  0  0  0  0
   -5.7085   -2.3273    0.9021 C   0  0  0  0  0  0  0  0  0  0  0  0
    0.2852   -0.5778   -0.5815 C   0  0  0  0  0  0  0  0  0  0  0  0
    2.5819    0.0249   -0.0396 N   0  0  0  0  0  0  0  0  0  0  0  0
    3.9176   -0.1042   -0.0122 C   0  0  0  0  0  0  0  0  0  0  0  0
    4.6885   -1.4256   -0.8894 S   0  0  0  0  0  0  0  0  0  0  0  0
    7.1237    0.8862    1.0977 C   0  0  0  0  0  0  0  0  0  0  0  0
    8.5698   -0.7659    0.0739 C   0  0  0  0  0  0  0  0  0  0  0  0
   -0.4898    3.3025   -0.4083 O   0  0  0  0  0  0  0  0  0  0  0  0
   -3.5941   -1.2907   -1.4899 H   0  0  0  0  0  0  0  0  0  0  0  0
   -5.2272   -1.9061   -1.6831 H   0  0  0  0  0  0  0  0  0  0  0  0
   -3.6150   -3.7409   -1.9299 H   0  0  0  0  0  0  0  0  0  0  0  0
   -2.8830   -3.3567   -0.3625 H   0  0  0  0  0  0  0  0  0  0  0  0
   -5.9056   -4.4237    1.3295 H   0  0  0  0  0  0  0  0  0  0  0  0
   -4.2887   -3.7630    1.6276 H   0  0  0  0  0  0  0  0  0  0  0  0
    1.9904   -1.7411   -0.9784 H   0  0  0  0  0  0  0  0  0  0  0  0
    1.8731   -0.3094   -2.0018 H   0  0  0  0  0  0  0  0  0  0  0  0
    7.6191   -2.2722   -1.1349 H   0  0  0  0  0  0  0  0  0  0  0  0
   -1.3785    5.1015   -0.9724 H   0  0  0  0  0  0  0  0  0  0  0  0
   -0.8776    5.0026    0.7316 H   0  0  0  0  0  0  0  0  0  0  0  0
    0.3439    5.1305   -0.5488 H   0  0  0  0  0  0  0  0  0  0  0  0
   -2.1589   -0.8099   -0.0221 H   0  0  0  0  0  0  0  0  0  0  0  0
   -2.9838    4.0609    0.3642 H   0  0  0  0  0  0  0  0  0  0  0  0
   -6.8478    2.0793    1.7054 H   0  0  0  0  0  0  0  0  0  0  0  0
   -6.6499   -2.3081    0.3382 H   0  0  0  0  0  0  0  0  0  0  0  0
   -5.9252   -1.9979    1.9170 H   0  0  0  0  0  0  0  0  0  0  0  0
   -0.3170   -1.1300   -1.3100 H   0  0  0  0  0  0  0  0  0  0  0  0
    0.1255   -1.0218    0.4067 H   0  0  0  0  0  0  0  0  0  0  0  0
    2.2355    0.8988    0.3296 H   0  0  0  0  0  0  0  0  0  0  0  0
    6.9864    1.7625    1.7180 H   0  0  0  0  0  0  0  0  0  0  0  0
    9.5652   -1.1572   -0.0877 H   0  0  0  0  0  0  0  0  0  0  0  0
   -0.0638    0.7946   -0.5683 O   0  0  0  0  0  0  0  0  0  0  0  0
    9.2467    0.8415    1.3241 H   0  0  0  0  0  0  0  0  0  0  0  0
 10 30  1  0
 20 19  1  0
 20 15  2  0
 19 18  2  0
 16 15  1  0
 16 11  2  0
 15 14  1  0
 30 11  1  0
 11 12  1  0
 18 17  1  0
 14 17  2  0
 14 13  1  0
 17 21  1  0
 12 13  2  0
 12 53  1  0
 53 24  1  0
 21 23  1  0
 21  1  1  0
 23  3  1  0
 24  4  1  0
  1  2  1  0
  3 22  1  0
  4 25  1  0
 25 26  1  0
  2 22  1  0
 26  5  2  0
 26 27  1  0
  5  6  1  0
 27  7  1  0
  6 28  2  0
  6  7  1  0
 28  8  1  0
  7  9  2  0
  8 29  2  0
  9 29  1  0
  1 31  1  0
  1 32  1  0
  2 33  1  0
  2 34  1  0
  3 35  1  0
  3 36  1  0
  4 37  1  0
  4 38  1  0
  8 54  1  0
  9 39  1  0
 10 40  1  0
 10 41  1  0
 10 42  1  0
 13 43  1  0
 16 44  1  0
 19 45  1  0
 23 46  1  0
 23 47  1  0
 24 48  1  0
 24 49  1  0
 25 50  1  0
 28 51  1  0
 29 52  1  0
M  END
