
     RDKit          3D

 32 34  0  0  0  0  0  0  0  0999 V2000
   -3.0100    1.5044    0.7110 C   0  0  0  0  0  0  0  0  0  0  0  0
   -0.7325    0.3632   -0.3562 C   0  0  0  0  0  0  0  0  0  0  0  0
    1.9406   -3.0426    1.0518 C   0  0  0  0  0  0  0  0  0  0  0  0
    1.1612   -2.2142    0.0620 C   0  0  0  0  0  0  0  0  0  0  0  0
    0.3882   -2.7186   -0.7436 O   0  0  0  0  0  0  0  0  0  0  0  0
    1.3581   -0.8820    0.1007 N   0  0  0  0  0  0  0  0  0  0  0  0
    2.2108   -0.1413    1.0145 C   0  0  0  0  0  0  0  0  0  0  0  0
    2.6369    1.0643    0.1808 C   0  0  1  0  0  0  0  0  0  0  0  0
    3.8083    0.7535   -0.7389 C   0  0  0  0  0  0  0  0  0  0  0  0
    4.9290    0.4459    0.0545 O   0  0  0  0  0  0  0  0  0  0  0  0
    1.3914    1.3664   -0.6424 C   0  0  2  0  0  0  0  0  0  0  0  0
    0.5036    2.2342    0.0804 O   0  0  0  0  0  0  0  0  0  0  0  0
   -0.7050    1.6474    0.1652 C   0  0  0  0  0  0  0  0  0  0  0  0
   -1.8312    2.2405    0.7087 C   0  0  0  0  0  0  0  0  0  0  0  0
   -3.0385    0.2221    0.1789 C   0  0  0  0  0  0  0  0  0  0  0  0
   -4.5318   -0.6655    0.1895 Cl  0  0  0  0  0  0  0  0  0  0  0  0
   -1.9028   -0.3702   -0.3611 C   0  0  0  0  0  0  0  0  0  0  0  0
    0.6577    0.0147   -0.8085 C   0  0  2  0  0  0  0  0  0  0  0  0
   -3.9094    1.9393    1.1252 H   0  0  0  0  0  0  0  0  0  0  0  0
    1.7262   -2.7421    2.0780 H   0  0  0  0  0  0  0  0  0  0  0  0
    1.6785   -4.0908    0.9346 H   0  0  0  0  0  0  0  0  0  0  0  0
    3.0159   -2.9368    0.9015 H   0  0  0  0  0  0  0  0  0  0  0  0
    1.6568    0.1721    1.9051 H   0  0  0  0  0  0  0  0  0  0  0  0
    3.0602   -0.7328    1.3481 H   0  0  0  0  0  0  0  0  0  0  0  0
    2.8990    1.9169    0.8111 H   0  0  0  0  0  0  0  0  0  0  0  0
    3.5534   -0.0771   -1.4122 H   0  0  0  0  0  0  0  0  0  0  0  0
    3.9925    1.6294   -1.3751 H   0  0  0  0  0  0  0  0  0  0  0  0
    5.6401    0.1630   -0.5271 H   0  0  0  0  0  0  0  0  0  0  0  0
    1.6162    1.8399   -1.6011 H   0  0  0  0  0  0  0  0  0  0  0  0
   -1.8060    3.2414    1.1182 H   0  0  0  0  0  0  0  0  0  0  0  0
   -1.9335   -1.3707   -0.7687 H   0  0  0  0  0  0  0  0  0  0  0  0
    0.6946   -0.3652   -1.8295 H   0  0  0  0  0  0  0  0  0  0  0  0
 10  9  1  0
  9  8  1  0
  5  4  2  0
  8  7  1  0
  8 11  1  0
  7  6  1  0
  4  6  1  0
  4  3  1  0
  6 18  1  0
 11 18  1  0
 11 12  1  0
 18  2  1  0
 12 13  1  0
  2 13  2  0
  2 17  1  0
 13 14  1  0
 17 15  2  0
 14  1  2  0
 15  1  1  0
 15 16  1  0
  1 19  1  0
  3 20  1  0
  3 21  1  0
  3 22  1  0
  7 23  1  0
  7 24  1  0
  8 25  1  1
  9 26  1  0
  9 27  1  0
 10 28  1  0
 11 29  1  6
 14 30  1  0
 17 31  1  0
 18 32  1  6
M  END
