
     RDKit          3D

 63 67  0  0  0  0  0  0  0  0999 V2000
   -7.1533    0.0827   -2.3227 C   0  0  0  0  0  0  0  0  0  0  0  0
   -6.0622    0.2411   -1.5992 N   0  0  0  0  0  0  0  0  0  0  0  0
   -6.3339    0.7136   -0.3871 C   0  0  0  0  0  0  0  0  0  0  0  0
   -7.5900    1.0276    0.1088 C   0  0  0  0  0  0  0  0  0  0  0  0
   -8.6720    0.8153   -0.7612 C   0  0  0  0  0  0  0  0  0  0  0  0
   -8.4169    0.3361   -1.9807 N   0  0  0  0  0  0  0  0  0  0  0  0
   -7.5117    1.4940    1.3948 N   0  0  0  0  0  0  0  0  0  0  0  0
   -5.4681    1.0031    0.6332 N   0  0  0  0  0  0  0  0  0  0  0  0
   -6.2425    1.4613    1.6675 C   0  0  0  0  0  0  0  0  0  0  0  0
   -2.0840   -0.4402    0.2098 C   0  0  0  0  0  0  0  0  0  0  0  0
   -1.2771    0.6018    0.6754 C   0  0  0  0  0  0  0  0  0  0  0  0
   -1.8934    1.7775    1.1113 C   0  0  0  0  0  0  0  0  0  0  0  0
   -3.2667    1.9183    1.0818 C   0  0  0  0  0  0  0  0  0  0  0  0
   -4.0605    0.8719    0.6355 C   0  0  0  0  0  0  0  0  0  0  0  0
   -3.4609   -0.3000    0.2009 C   0  0  0  0  0  0  0  0  0  0  0  0
    4.5406   -0.6356    0.0121 N   0  0  0  0  0  0  0  0  0  0  0  0
    3.2903   -1.0893    0.2939 C   0  0  0  0  0  0  0  0  0  0  0  0
    3.3578   -2.4562    0.3214 C   0  0  0  0  0  0  0  0  0  0  0  0
    4.7173   -2.7457    0.0577 C   0  0  0  0  0  0  0  0  0  0  0  0
    5.4149   -1.6467   -0.1082 N   0  0  0  0  0  0  0  0  0  0  0  0
    5.3403   -4.1113   -0.0561 C   0  0  1  0  0  0  0  0  0  0  0  0
    4.9825    0.6969   -0.0942 C   0  0  0  0  0  0  0  0  0  0  0  0
    4.2892    1.6134   -0.8745 C   0  0  0  0  0  0  0  0  0  0  0  0
    4.7356    2.9247   -0.9572 C   0  0  0  0  0  0  0  0  0  0  0  0
    5.8816    3.3423   -0.2913 C   0  0  0  0  0  0  0  0  0  0  0  0
    6.5780    2.3985    0.4629 C   0  0  0  0  0  0  0  0  0  0  0  0
    6.1375    1.0925    0.5711 C   0  0  0  0  0  0  0  0  0  0  0  0
    6.3601    4.7611   -0.3752 C   0  0  0  0  0  0  0  0  0  0  0  0
    2.2636   -0.1922    0.5498 N   0  0  0  0  0  0  0  0  0  0  0  0
    0.9359   -0.4950    0.3894 C   0  0  0  0  0  0  0  0  0  0  0  0
    0.5409   -1.5655   -0.0046 O   0  0  0  0  0  0  0  0  0  0  0  0
    6.8506   -4.0063   -0.2579 C   0  0  0  0  0  0  0  0  0  0  0  0
    5.0537   -4.9065    1.2222 C   0  0  0  0  0  0  0  0  0  0  0  0
    4.7141   -4.8320   -1.2565 C   0  0  0  0  0  0  0  0  0  0  0  0
   -9.9362    1.0847   -0.4149 N   0  0  0  0  0  0  0  0  0  0  0  0
   -7.0120   -0.3055   -3.3247 H   0  0  0  0  0  0  0  0  0  0  0  0
   -5.8017    1.7430    2.6120 H   0  0  0  0  0  0  0  0  0  0  0  0
   -1.6485   -1.3619   -0.1366 H   0  0  0  0  0  0  0  0  0  0  0  0
   -1.2940    2.6050    1.4720 H   0  0  0  0  0  0  0  0  0  0  0  0
   -3.7124    2.8516    1.4010 H   0  0  0  0  0  0  0  0  0  0  0  0
   -4.0670   -1.1236   -0.1508 H   0  0  0  0  0  0  0  0  0  0  0  0
    2.5534   -3.1451    0.5042 H   0  0  0  0  0  0  0  0  0  0  0  0
    3.4256    1.3011   -1.4472 H   0  0  0  0  0  0  0  0  0  0  0  0
    4.1920    3.6258   -1.5784 H   0  0  0  0  0  0  0  0  0  0  0  0
    7.4839    2.6912    0.9796 H   0  0  0  0  0  0  0  0  0  0  0  0
    6.6889    0.3716    1.1587 H   0  0  0  0  0  0  0  0  0  0  0  0
    6.1864    5.2935    0.5616 H   0  0  0  0  0  0  0  0  0  0  0  0
    7.4298    4.8114   -0.5786 H   0  0  0  0  0  0  0  0  0  0  0  0
    5.8480    5.3122   -1.1628 H   0  0  0  0  0  0  0  0  0  0  0  0
    2.5416    0.7166    0.8862 H   0  0  0  0  0  0  0  0  0  0  0  0
    0.5422    1.4023    1.0686 H   0  0  0  0  0  0  0  0  0  0  0  0
    7.3341   -3.4984    0.5767 H   0  0  0  0  0  0  0  0  0  0  0  0
    7.2829   -5.0052   -0.3390 H   0  0  0  0  0  0  0  0  0  0  0  0
    7.1000   -3.4574   -1.1658 H   0  0  0  0  0  0  0  0  0  0  0  0
    3.9833   -5.0149    1.4036 H   0  0  0  0  0  0  0  0  0  0  0  0
    5.4765   -5.9102    1.1471 H   0  0  0  0  0  0  0  0  0  0  0  0
    5.4921   -4.4227    2.0961 H   0  0  0  0  0  0  0  0  0  0  0  0
    4.9125   -4.2926   -2.1836 H   0  0  0  0  0  0  0  0  0  0  0  0
    5.1255   -5.8381   -1.3588 H   0  0  0  0  0  0  0  0  0  0  0  0
    3.6322   -4.9270   -1.1526 H   0  0  0  0  0  0  0  0  0  0  0  0
  -10.1640    1.3845    0.5147 H   0  0  0  0  0  0  0  0  0  0  0  0
  -10.6890    0.8526   -1.0367 H   0  0  0  0  0  0  0  0  0  0  0  0
    0.1115    0.5583    0.7283 N   0  0  0  0  0  0  0  0  0  0  0  0
 24 23  2  0
 24 25  1  0
 23 22  1  0
 21 32  1  6
 28 25  1  0
 25 26  2  0
 33 21  1  0
 22 16  1  0
 22 27  2  0
 20 16  1  0
 20 19  2  0
 21 19  1  0
 21 34  1  0
 16 17  1  0
 19 18  1  0
 26 27  1  0
 18 17  2  0
 17 29  1  0
 29 30  1  0
 30 63  1  0
 30 31  2  0
 63 11  1  0
 11 10  2  0
 11 12  1  0
 10 15  1  0
 12 13  2  0
 15 14  2  0
 13 14  1  0
 14  8  1  0
  9  8  1  0
  9  7  2  0
  8  3  1  0
  7  4  1  0
  3  4  2  0
  3  2  1  0
  4  5  1  0
  2  1  2  0
  1  6  1  0
  5  6  2  0
  5 35  1  0
  1 36  1  0
  9 37  1  0
 10 38  1  0
 12 39  1  0
 13 40  1  0
 15 41  1  0
 18 42  1  0
 23 43  1  0
 24 44  1  0
 26 45  1  0
 27 46  1  0
 28 47  1  0
 28 48  1  0
 28 49  1  0
 29 50  1  0
 63 51  1  0
 32 52  1  0
 32 53  1  0
 32 54  1  0
 33 55  1  0
 33 56  1  0
 33 57  1  0
 34 58  1  0
 34 59  1  0
 34 60  1  0
 35 61  1  0
 35 62  1  0
M  END
