
     RDKit          3D

 45 47  0  0  0  0  0  0  0  0999 V2000
    4.8886   -2.2982    0.4733 C   0  0  0  0  0  0  0  0  0  0  0  0
    5.5827   -1.1001    0.4824 C   0  0  0  0  0  0  0  0  0  0  0  0
    3.5292   -2.3403    0.2027 C   0  0  0  0  0  0  0  0  0  0  0  0
   -5.6729    0.4367    1.3195 C   0  0  0  0  0  0  0  0  0  0  0  0
   -4.7054   -0.4068    1.8194 C   0  0  0  0  0  0  0  0  0  0  0  0
    3.5284    0.0396   -0.0842 C   0  0  0  0  0  0  0  0  0  0  0  0
   -4.6422    0.3031   -0.8653 C   0  0  0  0  0  0  0  0  0  0  0  0
    4.8843    0.0685    0.1991 C   0  0  0  0  0  0  0  0  0  0  0  0
   -3.6802   -0.5579   -0.3791 C   0  0  0  0  0  0  0  0  0  0  0  0
    2.8196   -1.1688   -0.0861 C   0  0  0  0  0  0  0  0  0  0  0  0
   -5.6347    0.7946   -0.0238 C   0  0  0  0  0  0  0  0  0  0  0  0
   -3.7011   -0.9090    0.9865 C   0  0  0  0  0  0  0  0  0  0  0  0
    0.8066   -2.4456   -0.6133 C   0  0  0  0  0  0  0  0  0  0  0  0
    0.6019   -0.2208    0.2746 C   0  0  0  0  0  0  0  0  0  0  0  0
   -0.4942   -2.2461   -1.3673 C   0  0  0  0  0  0  0  0  0  0  0  0
   -0.6909   -0.0347   -0.4896 C   0  0  0  0  0  0  0  0  0  0  0  0
   -2.6667   -1.1798   -1.3037 C   0  0  0  0  0  0  0  0  0  0  0  0
    5.5838    1.3918    0.2324 C   0  0  1  0  0  0  0  0  0  0  0  0
    1.4662   -1.1726   -0.4079 N   0  0  0  0  0  0  0  0  0  0  0  0
   -1.3646   -1.3172   -0.6603 N   0  0  0  0  0  0  0  0  0  0  0  0
   -6.6350    1.6862   -0.5518 N   0  0  0  0  0  0  0  0  0  0  0  0
   -6.5686    1.9998   -1.7209 O   0  0  0  0  0  0  0  0  0  0  0  0
   -7.5020    2.0847    0.1954 O   0  0  0  0  0  0  0  0  0  0  0  0
   -2.7798   -1.7123    1.5033 O   0  0  0  0  0  0  0  0  0  0  0  0
    6.9065    1.2755    0.0742 F   0  0  0  0  0  0  0  0  0  0  0  0
    5.1483    2.2240   -0.7227 F   0  0  0  0  0  0  0  0  0  0  0  0
    5.3893    2.0227    1.4020 F   0  0  0  0  0  0  0  0  0  0  0  0
    5.4102   -3.2200    0.6947 H   0  0  0  0  0  0  0  0  0  0  0  0
    6.6409   -1.0903    0.7019 H   0  0  0  0  0  0  0  0  0  0  0  0
    3.0286   -3.2980    0.2302 H   0  0  0  0  0  0  0  0  0  0  0  0
   -4.7155   -0.6849    2.8650 H   0  0  0  0  0  0  0  0  0  0  0  0
    3.0116    0.9565   -0.3350 H   0  0  0  0  0  0  0  0  0  0  0  0
   -4.6186    0.5802   -1.9107 H   0  0  0  0  0  0  0  0  0  0  0  0
    0.6054   -2.9627    0.3368 H   0  0  0  0  0  0  0  0  0  0  0  0
    1.4421   -3.0963   -1.2141 H   0  0  0  0  0  0  0  0  0  0  0  0
    1.0905    0.7471    0.3616 H   0  0  0  0  0  0  0  0  0  0  0  0
    0.3787   -0.5641    1.2955 H   0  0  0  0  0  0  0  0  0  0  0  0
   -0.2783   -1.8841   -2.3825 H   0  0  0  0  0  0  0  0  0  0  0  0
   -1.0011   -3.2078   -1.4596 H   0  0  0  0  0  0  0  0  0  0  0  0
   -1.3359    0.6476    0.0668 H   0  0  0  0  0  0  0  0  0  0  0  0
   -0.4834    0.4270   -1.4653 H   0  0  0  0  0  0  0  0  0  0  0  0
   -3.0080   -2.1837   -1.5739 H   0  0  0  0  0  0  0  0  0  0  0  0
   -2.6054   -0.6065   -2.2381 H   0  0  0  0  0  0  0  0  0  0  0  0
   -2.0458   -1.7915    0.8219 H   0  0  0  0  0  0  0  0  0  0  0  0
   -6.4399    0.8171    1.9781 H   0  0  0  0  0  0  0  0  0  0  0  0
 23 21  2  0
 22 21  1  0
 21 11  1  0
 11  7  1  0
 11  4  2  0
  7  9  2  0
  4  5  1  0
 18 26  1  6
  9 17  1  0
  9 12  1  0
 15 13  1  0
 15 20  1  0
  5 12  2  0
 17 20  1  0
 13 19  1  0
 12 24  1  0
 20 16  1  0
 18 27  1  0
 18 25  1  0
 18  8  1  0
  6  8  2  0
  6 10  1  0
 19 10  1  0
 19 14  1  0
  8  2  1  0
 16 14  1  0
 10  3  2  0
  2  1  2  0
  3  1  1  0
  1 28  1  0
  2 29  1  0
  3 30  1  0
  4 45  1  0
  5 31  1  0
  6 32  1  0
  7 33  1  0
 13 34  1  0
 13 35  1  0
 14 36  1  0
 14 37  1  0
 15 38  1  0
 15 39  1  0
 16 40  1  0
 16 41  1  0
 17 42  1  0
 17 43  1  0
 24 44  1  0
M  CHG  2  21   1  22  -1
M  END
