
     RDKit          3D

 25 26  0  0  0  0  0  0  0  0999 V2000
    0.9344   -2.0530    0.4572 Cl  0  0  0  0  0  0  0  0  0  0  0  0
    2.0357   -0.8095   -0.0356 C   0  0  0  0  0  0  0  0  0  0  0  0
    3.3382   -1.1886   -0.3246 C   0  0  0  0  0  0  0  0  0  0  0  0
    4.2772   -0.2311   -0.6734 C   0  0  0  0  0  0  0  0  0  0  0  0
    3.9123    1.1065   -0.7324 C   0  0  0  0  0  0  0  0  0  0  0  0
    2.6080    1.4746   -0.4551 C   0  0  0  0  0  0  0  0  0  0  0  0
    1.6398    0.5300   -0.0997 C   0  0  0  0  0  0  0  0  0  0  0  0
    0.2986    1.0110    0.2038 C   0  0  0  0  0  0  0  0  0  0  0  0
   -0.7636    0.2592   -0.1334 O   0  0  0  0  0  0  0  0  0  0  0  0
   -0.1280    2.1750    0.7737 C   0  0  0  0  0  0  0  0  0  0  0  0
   -1.5444    2.1210    0.7826 C   0  0  0  0  0  0  0  0  0  0  0  0
   -1.8799    0.9303    0.2202 C   0  0  0  0  0  0  0  0  0  0  0  0
   -3.2040    0.3307   -0.0157 C   0  0  0  0  0  0  0  0  0  0  0  0
   -4.2114    0.9679    0.2460 O   0  0  0  0  0  0  0  0  0  0  0  0
   -3.1841   -0.9188   -0.5139 N   0  0  0  0  0  0  0  0  0  0  0  0
   -4.3636   -1.5897   -0.7801 N   0  0  0  0  0  0  0  0  0  0  0  0
    3.6179   -2.2319   -0.2690 H   0  0  0  0  0  0  0  0  0  0  0  0
    5.2907   -0.5349   -0.8977 H   0  0  0  0  0  0  0  0  0  0  0  0
    4.6372    1.8609   -1.0063 H   0  0  0  0  0  0  0  0  0  0  0  0
    2.3191    2.5149   -0.5291 H   0  0  0  0  0  0  0  0  0  0  0  0
    0.4954    2.9660    1.1582 H   0  0  0  0  0  0  0  0  0  0  0  0
   -2.2236    2.8642    1.1666 H   0  0  0  0  0  0  0  0  0  0  0  0
   -4.3534   -1.8958   -1.7442 H   0  0  0  0  0  0  0  0  0  0  0  0
   -2.3048   -1.3914   -0.6699 H   0  0  0  0  0  0  0  0  0  0  0  0
   -4.4119   -2.4168   -0.1986 H   0  0  0  0  0  0  0  0  0  0  0  0
  1  2  1  0
  2  3  2  0
  2  7  1  0
  3  4  1  0
  3 17  1  0
  4  5  2  0
  4 18  1  0
  5  6  1  0
  5 19  1  0
  6  7  2  0
  6 20  1  0
  7  8  1  0
  8  9  1  0
  8 10  2  0
  9 12  1  0
 10 11  1  0
 10 21  1  0
 11 12  2  0
 11 22  1  0
 12 13  1  0
 13 14  2  0
 13 15  1  0
 15 16  1  0
 16 23  1  0
 15 24  1  0
 16 25  1  0
M  END
