
     RDKit          3D

 49 52  0  0  0  0  0  0  0  0999 V2000
    1.6944    3.1881   -0.0354 N   0  0  0  0  0  0  0  0  0  0  0  0
    0.8173    2.2471    0.0011 C   0  0  0  0  0  0  0  0  0  0  0  0
   -0.4598    2.7396    0.0156 N   0  0  0  0  0  0  0  0  0  0  0  0
   -0.3771    4.1273   -0.0145 C   0  0  0  0  0  0  0  0  0  0  0  0
    0.9594    4.3355   -0.0431 N   0  0  0  0  0  0  0  0  0  0  0  0
   -1.2966    4.9230   -0.0140 O   0  0  0  0  0  0  0  0  0  0  0  0
   -1.6597    1.9922    0.0440 C   0  0  0  0  0  0  0  0  0  0  0  0
   -2.4548    1.9941    1.1861 C   0  0  0  0  0  0  0  0  0  0  0  0
   -3.6191    1.2546    1.2164 C   0  0  0  0  0  0  0  0  0  0  0  0
   -4.0009    0.4919    0.1081 C   0  0  0  0  0  0  0  0  0  0  0  0
   -3.2032    0.4937   -1.0349 C   0  0  0  0  0  0  0  0  0  0  0  0
   -2.0414    1.2524   -1.0627 C   0  0  0  0  0  0  0  0  0  0  0  0
   -5.1421   -0.2044    0.2362 O   0  0  0  0  0  0  0  0  0  0  0  0
   -5.5503   -1.0511   -0.8344 C   0  0  0  0  0  0  0  0  0  0  0  0
   -6.8146   -1.7313   -0.4072 C   0  0  0  0  0  0  0  0  0  0  0  0
   -8.0530   -1.1658   -0.6949 C   0  0  0  0  0  0  0  0  0  0  0  0
   -9.2236   -1.7821   -0.2735 C   0  0  0  0  0  0  0  0  0  0  0  0
   -9.1639   -2.9707    0.4425 C   0  0  0  0  0  0  0  0  0  0  0  0
   -7.9311   -3.5402    0.7361 C   0  0  0  0  0  0  0  0  0  0  0  0
   -6.7630   -2.9210    0.3135 C   0  0  0  0  0  0  0  0  0  0  0  0
    1.0965    0.5316    0.0427 S   0  0  0  0  0  0  0  0  0  0  0  0
    2.9060    0.5726    0.0562 C   0  0  0  0  0  0  0  0  0  0  0  0
    3.3846   -0.8572    0.0680 C   0  0  0  0  0  0  0  0  0  0  0  0
    2.5837   -1.7661    0.0761 O   0  0  0  0  0  0  0  0  0  0  0  0
    4.8457   -1.1002    0.0687 C   0  0  0  0  0  0  0  0  0  0  0  0
    5.3091   -2.4168    0.0664 C   0  0  0  0  0  0  0  0  0  0  0  0
    6.6641   -2.6893    0.0657 C   0  0  0  0  0  0  0  0  0  0  0  0
    7.5636   -1.6312    0.0682 C   0  0  0  0  0  0  0  0  0  0  0  0
    7.1295   -0.3146    0.0711 C   0  0  0  0  0  0  0  0  0  0  0  0
    5.7692   -0.0555    0.0708 C   0  0  0  0  0  0  0  0  0  0  0  0
    9.2579   -1.9616    0.0674 Cl  0  0  0  0  0  0  0  0  0  0  0  0
    1.4202    5.2307   -0.0750 H   0  0  0  0  0  0  0  0  0  0  0  0
   -2.1570    2.5668    2.0547 H   0  0  0  0  0  0  0  0  0  0  0  0
   -4.2394    1.2517    2.1035 H   0  0  0  0  0  0  0  0  0  0  0  0
   -3.4693   -0.0777   -1.9133 H   0  0  0  0  0  0  0  0  0  0  0  0
   -1.4339    1.2622   -1.9586 H   0  0  0  0  0  0  0  0  0  0  0  0
   -5.7180   -0.4626   -1.7417 H   0  0  0  0  0  0  0  0  0  0  0  0
   -4.7693   -1.7882   -1.0478 H   0  0  0  0  0  0  0  0  0  0  0  0
   -8.1041   -0.2415   -1.2585 H   0  0  0  0  0  0  0  0  0  0  0  0
  -10.1818   -1.3356   -0.5048 H   0  0  0  0  0  0  0  0  0  0  0  0
  -10.0763   -3.4550    0.7655 H   0  0  0  0  0  0  0  0  0  0  0  0
   -7.8794   -4.4676    1.2916 H   0  0  0  0  0  0  0  0  0  0  0  0
   -5.8029   -3.3707    0.5374 H   0  0  0  0  0  0  0  0  0  0  0  0
    3.2791    1.0964   -0.8262 H   0  0  0  0  0  0  0  0  0  0  0  0
    3.2675    1.1070    0.9372 H   0  0  0  0  0  0  0  0  0  0  0  0
    4.6073   -3.2395    0.0642 H   0  0  0  0  0  0  0  0  0  0  0  0
    7.0163   -3.7117    0.0623 H   0  0  0  0  0  0  0  0  0  0  0  0
    7.8397    0.5000    0.0733 H   0  0  0  0  0  0  0  0  0  0  0  0
    5.4478    0.9777    0.0729 H   0  0  0  0  0  0  0  0  0  0  0  0
  1  2  2  0
  1  5  1  0
  2  3  1  0
  2 21  1  0
  3  4  1  0
  3  7  1  0
  4  5  1  0
  4  6  2  0
  7  8  2  0
  7 12  1  0
  8  9  1  0
  9 10  2  0
 10 11  1  0
 10 13  1  0
 11 12  2  0
 13 14  1  0
 14 15  1  0
 15 16  2  0
 15 20  1  0
 16 17  1  0
 17 18  2  0
 18 19  1  0
 19 20  2  0
 21 22  1  0
 22 23  1  0
 23 24  2  0
 23 25  1  0
 25 26  2  0
 25 30  1  0
 26 27  1  0
 27 28  2  0
 28 29  1  0
 28 31  1  0
 29 30  2  0
  5 32  1  0
  8 33  1  0
  9 34  1  0
 11 35  1  0
 12 36  1  0
 14 37  1  0
 14 38  1  0
 16 39  1  0
 17 40  1  0
 18 41  1  0
 19 42  1  0
 20 43  1  0
 22 44  1  0
 22 45  1  0
 26 46  1  0
 27 47  1  0
 29 48  1  0
 30 49  1  0
M  END
