
     RDKit          3D

 24 24  0  0  0  0  0  0  0  0999 V2000
    2.4497    0.1273    0.7299 O   0  0  0  0  0  0  0  0  0  0  0  0
    0.4425    0.1337    2.1062 C   0  0  0  0  0  0  0  0  0  0  0  0
    1.3878    0.6925    2.9823 O   0  0  0  0  0  0  0  0  0  0  0  0
    0.9932    0.1391    0.7063 C   0  0  2  0  0  0  0  0  0  0  0  0
    0.4413   -1.1410   -0.1114 O   0  0  0  0  0  0  0  0  0  0  0  0
    0.5629    1.1870    0.0585 C   0  0  1  0  0  0  0  0  0  0  0  0
    1.5752    1.6198   -0.9494 O   0  0  0  0  0  0  0  0  0  0  0  0
   -0.7281    0.7302   -0.6504 C   0  0  2  0  0  0  0  0  0  0  0  0
   -1.8250    1.2720   -0.0324 O   0  0  0  0  0  0  0  0  0  0  0  0
   -0.7479   -0.8105   -0.5243 C   0  0  1  0  0  0  0  0  0  0  0  0
   -1.0316   -1.4653   -1.9133 C   0  0  0  0  0  0  0  0  0  0  0  0
   -1.1172   -2.8977   -1.7600 O   0  0  0  0  0  0  0  0  0  0  0  0
    2.7703   -0.7974    0.7286 H   0  0  0  0  0  0  0  0  0  0  0  0
   -0.4773    0.7223    2.1386 H   0  0  0  0  0  0  0  0  0  0  0  0
    0.2316   -0.8763    2.4040 H   0  0  0  0  0  0  0  0  0  0  0  0
    1.0910    0.5887    3.8726 H   0  0  0  0  0  0  0  0  0  0  0  0
    0.3398    2.0081    0.7652 H   0  0  0  0  0  0  0  0  0  0  0  0
    1.6474    2.5601   -0.9369 H   0  0  0  0  0  0  0  0  0  0  0  0
   -0.7003    1.0223   -1.7162 H   0  0  0  0  0  0  0  0  0  0  0  0
   -2.2281    1.9070   -0.6047 H   0  0  0  0  0  0  0  0  0  0  0  0
   -1.5283   -1.1296    0.2359 H   0  0  0  0  0  0  0  0  0  0  0  0
   -1.9920   -1.0782   -2.3176 H   0  0  0  0  0  0  0  0  0  0  0  0
   -0.2093   -1.2179   -2.6107 H   0  0  0  0  0  0  0  0  0  0  0  0
   -1.3476   -3.2964   -2.6009 H   0  0  0  0  0  0  0  0  0  0  0  0
  4  1  1  1
  2  3  1  0
  2  4  1  0
  4  5  1  0
  4  6  1  0
  5 10  1  0
  6  7  1  0
  6  8  1  0
  8  9  1  0
  8 10  1  0
 10 11  1  0
 11 12  1  0
  2 14  1  0
  2 15  1  0
  3 16  1  0
  6 17  1  1
  7 18  1  0
  8 19  1  6
  9 20  1  0
 10 21  1  1
 11 22  1  0
 11 23  1  0
 12 24  1  0
 13  1  1  0
M  END
