
     RDKit          3D

 62 62  0  0  0  0  0  0  0  0999 V2000
    6.5528    1.3383    0.6490 C   0  0  2  0  0  0  0  0  0  0  0  0
    5.6987    0.1976    0.0811 C   0  0  1  0  0  0  0  0  0  0  0  0
    4.2118    0.3199    0.4523 C   0  0  2  0  0  0  0  0  0  0  0  0
    3.4000   -0.8998   -0.0081 C   0  0  2  0  0  0  0  0  0  0  0  0
    1.9943   -0.8520    0.5113 C   0  0  0  0  0  0  0  0  0  0  0  0
   -7.8198   -0.9090   -0.2090 C   0  0  0  0  0  0  0  0  0  0  0  0
   -9.2281   -1.2417    0.2721 C   0  0  0  0  0  0  0  0  0  0  0  0
  -10.1643   -0.0541    0.0698 C   0  0  0  0  0  0  0  0  0  0  0  0
   -9.6236    1.1763    0.6220 N   0  0  0  0  0  0  0  0  0  0  0  0
   -8.3672    1.4371    0.0333 N   0  0  0  0  0  0  0  0  0  0  0  0
   -7.3700    0.4380    0.3722 C   0  0  2  0  0  0  0  0  0  0  0  0
   -6.0260    0.8484   -0.1868 C   0  0  0  0  0  0  0  0  0  0  0  0
   -5.0928   -0.0362    0.1275 O   0  0  0  0  0  0  0  0  0  0  0  0
   -5.8183    1.8460   -0.8302 O   0  0  0  0  0  0  0  0  0  0  0  0
   -3.7585    0.1713   -0.3526 C   0  0  0  0  0  0  0  0  0  0  0  0
   -2.9411   -1.0365    0.0715 C   0  0  0  0  0  0  0  0  0  0  0  0
   -1.5513   -0.9733   -0.4731 C   0  0  0  0  0  0  0  0  0  0  0  0
   -0.4509   -0.9032    0.2807 C   0  0  0  0  0  0  0  0  0  0  0  0
    0.9000   -0.8936   -0.2519 C   0  0  0  0  0  0  0  0  0  0  0  0
    7.9773    1.1221    0.1900 C   0  0  0  0  0  0  0  0  0  0  0  0
    8.6078    0.1119    0.3898 O   0  0  0  0  0  0  0  0  0  0  0  0
    6.5221    1.4024    2.1764 C   0  0  0  0  0  0  0  0  0  0  0  0
    3.5865    1.6042   -0.0846 C   0  0  0  0  0  0  0  0  0  0  0  0
    4.0446   -2.0616    0.4809 O   0  0  0  0  0  0  0  0  0  0  0  0
    5.8846    0.2185   -1.3225 O   0  0  0  0  0  0  0  0  0  0  0  0
    3.5758   -3.2584   -0.0899 C   0  0  0  0  0  0  0  0  0  0  0  0
    6.2019   -1.0129   -1.9266 C   0  0  0  0  0  0  0  0  0  0  0  0
    6.2052    2.2918    0.2461 H   0  0  0  0  0  0  0  0  0  0  0  0
    6.0862   -0.7374    0.5010 H   0  0  0  0  0  0  0  0  0  0  0  0
    4.1497    0.3438    1.5472 H   0  0  0  0  0  0  0  0  0  0  0  0
    3.3718   -0.9191   -1.1103 H   0  0  0  0  0  0  0  0  0  0  0  0
    1.8891   -0.8088    1.5942 H   0  0  0  0  0  0  0  0  0  0  0  0
   -7.8056   -0.8408   -1.3008 H   0  0  0  0  0  0  0  0  0  0  0  0
   -9.6062   -2.1224   -0.2516 H   0  0  0  0  0  0  0  0  0  0  0  0
   -9.1971   -1.4960    1.3368 H   0  0  0  0  0  0  0  0  0  0  0  0
  -10.3456    0.1066   -0.9961 H   0  0  0  0  0  0  0  0  0  0  0  0
  -11.1310   -0.2415    0.5411 H   0  0  0  0  0  0  0  0  0  0  0  0
   -8.0776    2.3620    0.3207 H   0  0  0  0  0  0  0  0  0  0  0  0
   -7.2468    0.3216    1.4639 H   0  0  0  0  0  0  0  0  0  0  0  0
   -3.7637    0.2753   -1.4404 H   0  0  0  0  0  0  0  0  0  0  0  0
   -3.3466    1.0882    0.0745 H   0  0  0  0  0  0  0  0  0  0  0  0
   -2.9171   -1.1046    1.1615 H   0  0  0  0  0  0  0  0  0  0  0  0
   -3.4327   -1.9404   -0.3028 H   0  0  0  0  0  0  0  0  0  0  0  0
   -1.4495   -1.0008   -1.5556 H   0  0  0  0  0  0  0  0  0  0  0  0
   -0.5496   -0.8741    1.3632 H   0  0  0  0  0  0  0  0  0  0  0  0
    1.0050   -0.9402   -1.3334 H   0  0  0  0  0  0  0  0  0  0  0  0
    7.2385    2.1317    2.5554 H   0  0  0  0  0  0  0  0  0  0  0  0
    5.5387    1.7075    2.5308 H   0  0  0  0  0  0  0  0  0  0  0  0
    6.7587    0.4341    2.6192 H   0  0  0  0  0  0  0  0  0  0  0  0
    2.5321    1.6703    0.1810 H   0  0  0  0  0  0  0  0  0  0  0  0
    4.0727    2.4888    0.3265 H   0  0  0  0  0  0  0  0  0  0  0  0
    3.6574    1.6582   -1.1716 H   0  0  0  0  0  0  0  0  0  0  0  0
    4.1638   -4.0751    0.3271 H   0  0  0  0  0  0  0  0  0  0  0  0
    2.5197   -3.4446    0.1290 H   0  0  0  0  0  0  0  0  0  0  0  0
    3.6987   -3.2662   -1.1798 H   0  0  0  0  0  0  0  0  0  0  0  0
    7.0458   -1.5077   -1.4352 H   0  0  0  0  0  0  0  0  0  0  0  0
    5.3608   -1.7109   -1.9396 H   0  0  0  0  0  0  0  0  0  0  0  0
    6.4829   -0.8063   -2.9592 H   0  0  0  0  0  0  0  0  0  0  0  0
   -9.5186    1.0519    1.6299 H   0  0  0  0  0  0  0  0  0  0  0  0
    8.4863    2.1786   -0.4314 O   0  0  0  0  0  0  0  0  0  0  0  0
    9.4041    2.0000   -0.6876 H   0  0  0  0  0  0  0  0  0  0  0  0
   -7.1240   -1.6971    0.0794 H   0  0  0  0  0  0  0  0  0  0  0  0
 16 15  1  0
 16 17  1  0
 15 13  1  0
 17 18  2  0
 26 24  1  0
 18 19  1  0
 19  5  2  0
 13 12  1  0
 24  4  1  0
  5  4  1  0
 14 12  2  0
 12 11  1  0
  4  3  1  0
 11  6  1  0
 11 10  1  0
  3 23  1  0
  3  2  1  0
  6  7  1  0
 27 25  1  0
 10  9  1  0
  2 25  1  0
  2  1  1  0
  7  8  1  0
  9  8  1  0
  1 22  1  0
  1 20  1  0
 20 21  2  0
  1 28  1  6
  2 29  1  1
  3 30  1  1
  4 31  1  6
  5 32  1  0
  6 62  1  0
  6 33  1  0
  7 34  1  0
  7 35  1  0
  8 36  1  0
  8 37  1  0
 10 38  1  0
 11 39  1  1
 15 40  1  0
 15 41  1  0
 16 42  1  0
 16 43  1  0
 17 44  1  0
 18 45  1  0
 19 46  1  0
 22 47  1  0
 22 48  1  0
 22 49  1  0
 23 50  1  0
 23 51  1  0
 23 52  1  0
 26 53  1  0
 26 54  1  0
 26 55  1  0
 27 56  1  0
 27 57  1  0
 27 58  1  0
  9 59  1  0
 20 60  1  0
 60 61  1  0
M  END
