
     RDKit          3D

 17 18  0  0  0  0  0  0  0  0999 V2000
    2.8004    0.4901    0.2204 N   0  0  0  0  0  0  0  0  0  0  0  0
    1.4424    0.5752    0.0830 C   0  0  0  0  0  0  0  0  0  0  0  0
    0.8728    1.7547    0.0167 N   0  0  0  0  0  0  0  0  0  0  0  0
   -0.4595    1.8972   -0.0450 N   0  0  0  0  0  0  0  0  0  0  0  0
    0.6375   -0.5889    0.0586 C   0  0  0  0  0  0  0  0  0  0  0  0
    0.9659   -1.9138    0.0888 N   0  0  0  0  0  0  0  0  0  0  0  0
   -0.1822   -2.5326    0.0116 C   0  0  0  0  0  0  0  0  0  0  0  0
   -1.2361   -1.6869   -0.0663 N   0  0  0  0  0  0  0  0  0  0  0  0
   -0.7279   -0.4232   -0.0368 C   0  0  0  0  0  0  0  0  0  0  0  0
   -1.2777    0.8763   -0.0818 C   0  0  0  0  0  0  0  0  0  0  0  0
   -2.6275    1.0953   -0.2292 N   0  0  0  0  0  0  0  0  0  0  0  0
    3.3117    1.3164   -0.0479 H   0  0  0  0  0  0  0  0  0  0  0  0
    3.2247   -0.3612   -0.1113 H   0  0  0  0  0  0  0  0  0  0  0  0
   -0.3181   -3.6031    0.0062 H   0  0  0  0  0  0  0  0  0  0  0  0
   -2.2030   -1.9626   -0.1438 H   0  0  0  0  0  0  0  0  0  0  0  0
   -2.8993    2.0515   -0.0543 H   0  0  0  0  0  0  0  0  0  0  0  0
   -3.2327    0.4496    0.2543 H   0  0  0  0  0  0  0  0  0  0  0  0
  1  2  1  0
  2  3  2  0
  2  5  1  0
  3  4  1  0
  4 10  2  0
  5  6  1  0
  5  9  2  0
  6  7  2  0
  7  8  1  0
  8  9  1  0
  9 10  1  0
 10 11  1  0
  1 12  1  0
  1 13  1  0
  7 14  1  0
  8 15  1  0
 11 16  1  0
 11 17  1  0
M  END
