
     RDKit          3D

 27 27  0  0  0  0  0  0  0  0999 V2000
    0.3204   -2.4283   -0.0274 C   0  0  0  0  0  0  0  0  0  0  0  0
    0.8360   -2.6004    0.9178 H   0  0  0  0  0  0  0  0  0  0  0  0
    1.0697   -2.4673   -0.8191 H   0  0  0  0  0  0  0  0  0  0  0  0
   -0.3615   -3.2629   -0.1837 H   0  0  0  0  0  0  0  0  0  0  0  0
   -0.4390   -1.1299   -0.0164 C   0  0  0  0  0  0  0  0  0  0  0  0
    0.1926    0.1149   -0.1386 C   0  0  0  0  0  0  0  0  0  0  0  0
   -0.5492    1.3012   -0.1382 C   0  0  0  0  0  0  0  0  0  0  0  0
   -1.9304    1.2206    0.0070 C   0  0  0  0  0  0  0  0  0  0  0  0
   -2.5861    0.0014    0.1238 C   0  0  0  0  0  0  0  0  0  0  0  0
   -1.8231   -1.1610    0.1048 C   0  0  0  0  0  0  0  0  0  0  0  0
    0.0959    2.6532   -0.2667 C   0  0  0  0  0  0  0  0  0  0  0  0
   -4.0795   -0.0670    0.2459 C   0  0  0  0  0  0  0  0  0  0  0  0
    1.6710    0.1923   -0.3100 C   0  0  0  0  0  0  0  0  0  0  0  0
    2.2201    0.7069   -1.2532 O   0  0  0  0  0  0  0  0  0  0  0  0
    2.3196   -0.3608    0.7027 O   0  0  0  0  0  0  0  0  0  0  0  0
    3.7471   -0.3874    0.6380 C   0  0  0  0  0  0  0  0  0  0  0  0
   -2.5089    2.1374    0.0316 H   0  0  0  0  0  0  0  0  0  0  0  0
   -2.3182   -2.1221    0.1910 H   0  0  0  0  0  0  0  0  0  0  0  0
    0.4704    2.8247   -1.2760 H   0  0  0  0  0  0  0  0  0  0  0  0
   -0.6242    3.4394   -0.0455 H   0  0  0  0  0  0  0  0  0  0  0  0
    0.9370    2.7771    0.4164 H   0  0  0  0  0  0  0  0  0  0  0  0
   -4.5345   -0.3480   -0.7061 H   0  0  0  0  0  0  0  0  0  0  0  0
   -4.3861   -0.8130    0.9793 H   0  0  0  0  0  0  0  0  0  0  0  0
   -4.5028    0.8925    0.5402 H   0  0  0  0  0  0  0  0  0  0  0  0
    4.0958   -0.9490   -0.2286 H   0  0  0  0  0  0  0  0  0  0  0  0
    4.1603    0.6201    0.6042 H   0  0  0  0  0  0  0  0  0  0  0  0
    4.0766   -0.8826    1.5463 H   0  0  0  0  0  0  0  0  0  0  0  0
  1  2  1  0
  1  3  1  0
  1  4  1  0
  1  5  1  0
  5  6  2  0
  6  7  1  0
  7  8  2  0
  8  9  1  0
  9 10  2  0
 10  5  1  0
  7 11  1  0
  9 12  1  0
  6 13  1  0
 13 14  2  0
 13 15  1  0
 15 16  1  0
  8 17  1  0
 10 18  1  0
 11 19  1  0
 11 20  1  0
 11 21  1  0
 12 22  1  0
 12 23  1  0
 12 24  1  0
 16 25  1  0
 16 26  1  0
 16 27  1  0
M  END
