
     RDKit          3D

 21 22  0  0  0  0  0  0  0  0999 V2000
   -3.9224   -2.0336    1.1629 Cl  0  0  0  0  0  0  0  0  0  0  0  0
   -2.7267   -1.0032    0.5482 C   0  0  0  0  0  0  0  0  0  0  0  0
   -2.8715    0.1535   -0.1711 C   0  0  0  0  0  0  0  0  0  0  0  0
   -4.3342    0.8554   -0.6813 Cl  0  0  0  0  0  0  0  0  0  0  0  0
   -1.5698    0.6409   -0.4203 C   0  0  0  0  0  0  0  0  0  0  0  0
   -1.2042    2.0197   -1.3501 Cl  0  0  0  0  0  0  0  0  0  0  0  0
   -0.6730   -0.2282    0.1538 C   0  0  0  0  0  0  0  0  0  0  0  0
    0.7873   -0.2525    0.1508 C   0  0  0  0  0  0  0  0  0  0  0  0
    1.4549   -1.3974   -0.2741 C   0  0  0  0  0  0  0  0  0  0  0  0
    2.8370   -1.4433   -0.2633 C   0  0  0  0  0  0  0  0  0  0  0  0
    3.6512   -2.8722   -0.8004 Cl  0  0  0  0  0  0  0  0  0  0  0  0
    1.5170    0.8555    0.6005 C   0  0  0  0  0  0  0  0  0  0  0  0
    2.9108    0.7801    0.5809 C   0  0  0  0  0  0  0  0  0  0  0  0
   -1.4060   -1.2259    0.7310 N   0  0  0  0  0  0  0  0  0  0  0  0
    3.8181    2.1466    1.1335 Cl  0  0  0  0  0  0  0  0  0  0  0  0
    3.5797   -0.3539    0.1574 C   0  0  0  0  0  0  0  0  0  0  0  0
    0.8441    1.9155    1.0467 O   0  0  0  0  0  0  0  0  0  0  0  0
   -1.0187   -1.9826    1.2755 H   0  0  0  0  0  0  0  0  0  0  0  0
    0.8870   -2.2458   -0.6317 H   0  0  0  0  0  0  0  0  0  0  0  0
    1.4411    2.6339    1.2944 H   0  0  0  0  0  0  0  0  0  0  0  0
    4.6605   -0.3810    0.1596 H   0  0  0  0  0  0  0  0  0  0  0  0
  1  2  1  0
  2  3  2  0
  2 14  1  0
  3  4  1  0
  3  5  1  0
  5  6  1  0
  5  7  2  0
  7  8  1  0
  7 14  1  0
  8 12  1  0
  8  9  2  0
 12 13  2  0
 12 17  1  0
 13 15  1  0
 13 16  1  0
  9 10  1  0
 10 11  1  0
 10 16  2  0
 14 18  1  0
  9 19  1  0
 17 20  1  0
 16 21  1  0
M  END
