
     RDKit          3D

 40 43  0  0  0  0  0  0  0  0999 V2000
   -0.9445    0.2881    0.9088 N   0  0  0  0  0  0  0  0  0  0  0  0
    0.9306   -1.0008    0.2216 N   0  0  0  0  0  0  0  0  0  0  0  0
    2.3228    1.5978    0.1178 C   0  0  0  0  0  0  0  0  0  0  0  0
    0.3363    0.1216    0.5256 C   0  0  0  0  0  0  0  0  0  0  0  0
   -1.7073   -0.7762    0.9995 C   0  0  0  0  0  0  0  0  0  0  0  0
   -3.5886    0.6540    1.6857 C   0  0  0  0  0  0  0  0  0  0  0  0
   -4.3201    1.2137    0.5176 C   0  0  0  0  0  0  0  0  0  0  0  0
   -5.7338    1.9944   -1.0196 C   0  0  0  0  0  0  0  0  0  0  0  0
   -1.9282   -3.2797    0.7462 C   0  0  0  0  0  0  0  0  0  0  0  0
    0.0063   -4.5175    0.0424 C   0  0  0  0  0  0  0  0  0  0  0  0
    0.1672   -2.1210    0.2983 C   0  0  0  0  0  0  0  0  0  0  0  0
    1.0163    1.3070    0.4687 N   0  0  0  0  0  0  0  0  0  0  0  0
    4.5609    1.0630   -0.5515 C   0  0  0  0  0  0  0  0  0  0  0  0
   -3.6113    1.5156   -0.5917 O   0  0  0  0  0  0  0  0  0  0  0  0
    4.9368    2.3940   -0.5555 C   0  0  0  0  0  0  0  0  0  0  0  0
   -5.6320    1.4850    0.3121 C   0  0  0  0  0  0  0  0  0  0  0  0
   -1.1877   -2.0885    0.6858 C   0  0  0  0  0  0  0  0  0  0  0  0
   -1.3423   -4.4814    0.4285 C   0  0  0  0  0  0  0  0  0  0  0  0
    0.7482   -3.3643   -0.0219 C   0  0  0  0  0  0  0  0  0  0  0  0
    3.2817    0.6407   -0.2243 C   0  0  0  0  0  0  0  0  0  0  0  0
    3.9725    3.3347   -0.2133 C   0  0  0  0  0  0  0  0  0  0  0  0
    2.6876    2.9514    0.1175 C   0  0  0  0  0  0  0  0  0  0  0  0
   -4.4760    1.9845   -1.5159 C   0  0  0  0  0  0  0  0  0  0  0  0
   -2.9731   -0.6260    1.4094 N   0  0  0  0  0  0  0  0  0  0  0  0
    5.7354   -0.1454   -0.9755 Cl  0  0  0  0  0  0  0  0  0  0  0  0
   -2.8172    1.3399    2.0346 H   0  0  0  0  0  0  0  0  0  0  0  0
   -4.3006    0.5243    2.5001 H   0  0  0  0  0  0  0  0  0  0  0  0
   -6.6247    2.3163   -1.5337 H   0  0  0  0  0  0  0  0  0  0  0  0
   -2.9705   -3.2757    1.0401 H   0  0  0  0  0  0  0  0  0  0  0  0
    0.4655   -5.4653   -0.2071 H   0  0  0  0  0  0  0  0  0  0  0  0
    0.4452    2.1025    0.7102 H   0  0  0  0  0  0  0  0  0  0  0  0
    5.9418    2.6927   -0.8179 H   0  0  0  0  0  0  0  0  0  0  0  0
   -6.4314    1.3379    1.0206 H   0  0  0  0  0  0  0  0  0  0  0  0
   -1.9183   -5.3952    0.4784 H   0  0  0  0  0  0  0  0  0  0  0  0
    1.7891   -3.3862   -0.3185 H   0  0  0  0  0  0  0  0  0  0  0  0
    3.0273   -0.4067   -0.2321 H   0  0  0  0  0  0  0  0  0  0  0  0
    4.2310    4.3853   -0.2083 H   0  0  0  0  0  0  0  0  0  0  0  0
    1.9530    3.7045    0.3772 H   0  0  0  0  0  0  0  0  0  0  0  0
   -4.0588    2.2698   -2.4680 H   0  0  0  0  0  0  0  0  0  0  0  0
   -3.5851   -1.4236    1.4033 H   0  0  0  0  0  0  0  0  0  0  0  0
 25 13  1  0
 20 13  2  0
 20  3  1  0
 13 15  1  0
 12  3  1  0
 12  4  1  0
 15 21  2  0
  3 22  2  0
  2  4  1  0
  2 11  2  0
 19 11  1  0
 19 10  2  0
  4  1  2  0
 11 17  1  0
 10 18  1  0
 21 22  1  0
  1  5  1  0
 17  5  2  0
 17  9  1  0
 18  9  2  0
  5 24  1  0
 24  6  1  0
  6  7  1  0
 14  7  1  0
 14 23  1  0
  7 16  2  0
 23  8  2  0
 16  8  1  0
  6 26  1  0
  6 27  1  0
  8 28  1  0
  9 29  1  0
 10 30  1  0
 12 31  1  0
 15 32  1  0
 16 33  1  0
 18 34  1  0
 19 35  1  0
 20 36  1  0
 21 37  1  0
 22 38  1  0
 23 39  1  0
 24 40  1  0
M  END
