
     RDKit          3D

 47 50  0  0  0  0  0  0  0  0999 V2000
   -3.0369    1.0648   -0.2438 C   0  0  0  0  0  0  0  0  0  0  0  0
   -2.7586   -1.3529   -0.0143 C   0  0  0  0  0  0  0  0  0  0  0  0
   -4.1220   -1.5404    0.1351 C   0  0  0  0  0  0  0  0  0  0  0  0
   -4.9669   -0.4248    0.1001 C   0  0  0  0  0  0  0  0  0  0  0  0
   -4.4180    0.8665   -0.0914 C   0  0  0  0  0  0  0  0  0  0  0  0
   -2.2401   -0.0454   -0.2003 C   0  0  0  0  0  0  0  0  0  0  0  0
   -5.3134    2.0050   -0.1288 C   0  0  0  0  0  0  0  0  0  0  0  0
   -6.3152   -0.6301    0.2609 N   0  0  0  0  0  0  0  0  0  0  0  0
   -7.0958    0.3984    0.2214 C   0  0  0  0  0  0  0  0  0  0  0  0
   -8.4359    0.2540    0.3191 N   0  0  0  0  0  0  0  0  0  0  0  0
   -6.6413    1.6762    0.0343 N   0  0  0  0  0  0  0  0  0  0  0  0
   -0.8762   -0.2278   -0.3022 N   0  0  0  0  0  0  0  0  0  0  0  0
   -1.7449   -2.2686   -0.0079 N   0  0  0  0  0  0  0  0  0  0  0  0
   -0.6442   -1.5624   -0.1806 C   0  0  0  0  0  0  0  0  0  0  0  0
    0.5872   -2.0869   -0.2524 N   0  0  0  0  0  0  0  0  0  0  0  0
    1.7976   -1.2949   -0.1695 C   0  0  0  0  0  0  0  0  0  0  0  0
   -4.9804    3.1699   -0.2892 O   0  0  0  0  0  0  0  0  0  0  0  0
    3.0177   -2.2070   -0.2348 C   0  0  0  0  0  0  0  0  0  0  0  0
    6.6613    0.0900    0.1335 C   0  0  0  0  0  0  0  0  0  0  0  0
    7.9056    0.9227    0.2639 C   0  0  0  0  0  0  0  0  0  0  0  0
    7.6094    2.3941    0.0117 C   0  0  0  0  0  0  0  0  0  0  0  0
    8.8017    3.1281    0.1802 O   0  0  0  0  0  0  0  0  0  0  0  0
    5.9138   -0.2576    1.2562 C   0  0  0  0  0  0  0  0  0  0  0  0
    4.7500   -1.0029    1.1381 C   0  0  0  0  0  0  0  0  0  0  0  0
    4.2929   -1.4219   -0.1089 C   0  0  0  0  0  0  0  0  0  0  0  0
    5.0355   -1.0705   -1.2323 C   0  0  0  0  0  0  0  0  0  0  0  0
    6.2030   -0.3291   -1.1128 C   0  0  0  0  0  0  0  0  0  0  0  0
   -2.6362    2.0594   -0.3887 H   0  0  0  0  0  0  0  0  0  0  0  0
   -4.5411   -2.5275    0.2832 H   0  0  0  0  0  0  0  0  0  0  0  0
   -8.7608   -0.6426    0.6408 H   0  0  0  0  0  0  0  0  0  0  0  0
   -9.0003    1.0367    0.6056 H   0  0  0  0  0  0  0  0  0  0  0  0
   -7.3051    2.4387   -0.0042 H   0  0  0  0  0  0  0  0  0  0  0  0
   -0.1886    0.4959   -0.4359 H   0  0  0  0  0  0  0  0  0  0  0  0
    0.6480   -3.0591    0.0069 H   0  0  0  0  0  0  0  0  0  0  0  0
    1.8361   -0.5863   -1.0016 H   0  0  0  0  0  0  0  0  0  0  0  0
    1.8249   -0.7108    0.7577 H   0  0  0  0  0  0  0  0  0  0  0  0
    2.9526   -2.9445    0.5704 H   0  0  0  0  0  0  0  0  0  0  0  0
    3.0049   -2.7598   -1.1770 H   0  0  0  0  0  0  0  0  0  0  0  0
    8.3215    0.8087    1.2678 H   0  0  0  0  0  0  0  0  0  0  0  0
    8.6653    0.5806   -0.4437 H   0  0  0  0  0  0  0  0  0  0  0  0
    7.2028    2.5125   -1.0015 H   0  0  0  0  0  0  0  0  0  0  0  0
    6.8275    2.7269    0.7070 H   0  0  0  0  0  0  0  0  0  0  0  0
    8.6051    4.0578    0.0344 H   0  0  0  0  0  0  0  0  0  0  0  0
    6.2523    0.0494    2.2390 H   0  0  0  0  0  0  0  0  0  0  0  0
    4.1951   -1.2675    2.0312 H   0  0  0  0  0  0  0  0  0  0  0  0
    4.7023   -1.3857   -2.2143 H   0  0  0  0  0  0  0  0  0  0  0  0
    6.7689   -0.0814   -2.0039 H   0  0  0  0  0  0  0  0  0  0  0  0
 22 21  1  0
 21 20  1  0
 20 19  1  0
 19 27  2  0
 19 23  1  0
 27 26  1  0
 23 24  2  0
 26 25  2  0
 24 25  1  0
 25 18  1  0
 18 16  1  0
 16 15  1  0
 15 14  1  0
 14 13  2  0
 14 12  1  0
 13  2  1  0
 12  6  1  0
  2  6  1  0
  2  3  2  0
  6  1  2  0
  3  4  1  0
  1  5  1  0
  4  5  2  0
  4  8  1  0
  5  7  1  0
  8  9  2  0
  7 17  2  0
  7 11  1  0
  9 11  1  0
  9 10  1  0
  1 28  1  0
  3 29  1  0
 10 30  1  0
 10 31  1  0
 11 32  1  0
 12 33  1  0
 15 34  1  0
 16 35  1  0
 16 36  1  0
 18 37  1  0
 18 38  1  0
 20 39  1  0
 20 40  1  0
 21 41  1  0
 21 42  1  0
 22 43  1  0
 23 44  1  0
 24 45  1  0
 26 46  1  0
 27 47  1  0
M  END
