
     RDKit          3D

 26 28  0  0  0  0  0  0  0  0999 V2000
   -2.7583   -2.1522    0.2168 O   0  0  0  0  0  0  0  0  0  0  0  0
   -1.8640   -1.0813    0.2489 C   0  0  1  0  0  0  0  0  0  0  0  0
   -0.7446   -1.2747   -0.7677 C   0  0  2  0  0  0  0  0  0  0  0  0
    0.4550   -1.7798   -0.1741 O   0  0  0  0  0  0  0  0  0  0  0  0
    1.3476   -0.8062   -0.0824 C   0  0  0  0  0  0  0  0  0  0  0  0
    2.4777   -0.9644    0.4951 N   0  0  0  0  0  0  0  0  0  0  0  0
    3.3555    0.1069    0.5177 C   0  0  0  0  0  0  0  0  0  0  0  0
    4.4418   -0.0002    1.0660 O   0  0  0  0  0  0  0  0  0  0  0  0
    2.9248    1.3403   -0.1371 C   0  0  0  0  0  0  0  0  0  0  0  0
    1.7169    1.4141   -0.7186 C   0  0  0  0  0  0  0  0  0  0  0  0
    0.9017    0.3188   -0.6829 N   0  0  0  0  0  0  0  0  0  0  0  0
   -0.4213    0.1543   -1.2369 C   0  0  2  0  0  0  0  0  0  0  0  0
   -1.3454    1.0152   -0.6520 O   0  0  0  0  0  0  0  0  0  0  0  0
   -2.4622    0.2598   -0.1890 C   0  0  2  0  0  0  0  0  0  0  0  0
   -3.1523    0.9946    0.9315 C   0  0  0  0  0  0  0  0  0  0  0  0
   -3.7255    2.1727    0.4256 O   0  0  0  0  0  0  0  0  0  0  0  0
   -3.2549   -2.1708    1.0404 H   0  0  0  0  0  0  0  0  0  0  0  0
   -1.4159   -0.9575    1.2450 H   0  0  0  0  0  0  0  0  0  0  0  0
   -1.0376   -1.9425   -1.5775 H   0  0  0  0  0  0  0  0  0  0  0  0
    3.5856    2.1943   -0.1469 H   0  0  0  0  0  0  0  0  0  0  0  0
    1.3351    2.2926   -1.2178 H   0  0  0  0  0  0  0  0  0  0  0  0
   -0.3968    0.2822   -2.3215 H   0  0  0  0  0  0  0  0  0  0  0  0
   -3.1685    0.0892   -1.0132 H   0  0  0  0  0  0  0  0  0  0  0  0
   -3.9098    0.3200    1.3532 H   0  0  0  0  0  0  0  0  0  0  0  0
   -2.4217    1.1944    1.7267 H   0  0  0  0  0  0  0  0  0  0  0  0
   -4.1352    2.6445    1.1564 H   0  0  0  0  0  0  0  0  0  0  0  0
  8  7  2  0
  6  7  1  0
  6  5  2  0
  7  9  1  0
  4  5  1  0
  4  3  1  0
  5 11  1  0
  3  2  1  0
  3 12  1  0
  9 10  2  0
  2  1  1  0
  2 14  1  0
 15 14  1  0
 15 16  1  0
 11 10  1  0
 11 12  1  0
 12 13  1  0
 14 13  1  0
  1 17  1  0
  2 18  1  1
  3 19  1  6
  9 20  1  0
 10 21  1  0
 12 22  1  6
 14 23  1  6
 15 24  1  0
 15 25  1  0
 16 26  1  0
M  END
