
     RDKit          3D

 31 31  0  0  0  0  0  0  0  0999 V2000
    3.7469    0.8432   -1.5916 O   0  0  0  0  0  0  0  0  0  0  0  0
    3.6150    1.0113   -0.3945 C   0  0  0  0  0  0  0  0  0  0  0  0
    4.4915    1.6581    0.3871 N   0  0  0  0  0  0  0  0  0  0  0  0
    5.4821    2.3978   -0.1816 O   0  0  0  0  0  0  0  0  0  0  0  0
    2.4061    0.4990    0.3700 C   0  0  0  0  0  0  0  0  0  0  0  0
    1.9443   -0.7175   -0.2735 N   0  0  0  0  0  0  0  0  0  0  0  0
    0.6000   -1.4670    0.3093 S   0  0  1  0  0  0  0  0  0  0  0  0
    0.4398   -2.6912   -0.4595 O   0  0  0  0  0  0  0  0  0  0  0  0
    0.7503   -1.5455    1.7555 O   0  0  0  0  0  0  0  0  0  0  0  0
   -0.7896   -0.3960   -0.0523 C   0  0  0  0  0  0  0  0  0  0  0  0
   -2.0961   -0.9723    0.4907 C   0  0  0  0  0  0  0  0  0  0  0  0
   -3.2374   -0.0468    0.1673 C   0  0  0  0  0  0  0  0  0  0  0  0
   -3.6756    0.8915    1.0975 C   0  0  0  0  0  0  0  0  0  0  0  0
   -4.7073    1.7682    0.7876 C   0  0  0  0  0  0  0  0  0  0  0  0
   -3.8498   -0.0881   -1.0831 C   0  0  0  0  0  0  0  0  0  0  0  0
   -4.8800    0.7874   -1.3969 C   0  0  0  0  0  0  0  0  0  0  0  0
   -5.3122    1.7189   -0.4611 C   0  0  0  0  0  0  0  0  0  0  0  0
    2.6587    0.2932    1.4094 H   0  0  0  0  0  0  0  0  0  0  0  0
    1.6584    1.3026    0.3640 H   0  0  0  0  0  0  0  0  0  0  0  0
    1.9653   -0.6781   -1.2886 H   0  0  0  0  0  0  0  0  0  0  0  0
   -0.5773    0.5794    0.3897 H   0  0  0  0  0  0  0  0  0  0  0  0
   -0.8210   -0.2823   -1.1370 H   0  0  0  0  0  0  0  0  0  0  0  0
   -2.2759   -1.9559    0.0533 H   0  0  0  0  0  0  0  0  0  0  0  0
   -2.0187   -1.1032    1.5708 H   0  0  0  0  0  0  0  0  0  0  0  0
   -3.2106    0.9328    2.0756 H   0  0  0  0  0  0  0  0  0  0  0  0
   -5.0410    2.4874    1.5245 H   0  0  0  0  0  0  0  0  0  0  0  0
   -3.5200   -0.8139   -1.8178 H   0  0  0  0  0  0  0  0  0  0  0  0
   -5.3473    0.7408   -2.3721 H   0  0  0  0  0  0  0  0  0  0  0  0
   -6.1179    2.4002   -0.7022 H   0  0  0  0  0  0  0  0  0  0  0  0
    4.2830    1.8919    1.3481 H   0  0  0  0  0  0  0  0  0  0  0  0
    6.2818    1.8587   -0.1279 H   0  0  0  0  0  0  0  0  0  0  0  0
  1  2  2  0
  2  3  1  0
  3  4  1  0
  5  2  1  0
  5 18  1  0
  5 19  1  0
  6  5  1  0
  7  6  1  6
  6 20  1  0
  7  9  2  0
  7 10  1  0
  8  7  2  0
 10 11  1  0
 10 21  1  0
 10 22  1  0
 11 12  1  0
 11 23  1  0
 11 24  1  0
 12 15  2  0
 13 12  1  0
 13 14  2  0
 13 25  1  0
 14 17  1  0
 14 26  1  0
 15 16  1  0
 15 27  1  0
 16 28  1  0
 17 16  2  0
 17 29  1  0
  3 30  1  0
  4 31  1  0
M  END
