
     RDKit          3D

 29 29  0  0  0  0  0  0  0  0999 V2000
    4.8677   -1.6870    0.1558 C   0  0  0  0  0  0  0  0  0  0  0  0
    2.5310   -1.5173    0.6654 O   0  0  0  0  0  0  0  0  0  0  0  0
    3.5481   -0.9758    0.2771 C   0  0  0  0  0  0  0  0  0  0  0  0
    1.5441    0.9508   -1.0999 C   0  0  0  0  0  0  0  0  0  0  0  0
    0.2696    1.7315   -0.8833 C   0  0  0  0  0  0  0  0  0  0  0  0
   -0.9153    0.7893   -0.7013 C   0  0  2  0  0  0  0  0  0  0  0  0
   -2.2445    1.5398   -0.5701 C   0  0  0  0  0  0  0  0  0  0  0  0
   -3.2943    0.4965   -0.2215 C   0  0  0  0  0  0  0  0  0  0  0  0
   -2.4639   -0.6027    0.9521 S   0  0  2  0  0  0  0  0  0  0  0  0
   -2.8001   -0.2086    2.3205 O   0  0  0  0  0  0  0  0  0  0  0  0
   -0.7799   -0.0639    0.5603 C   0  0  0  0  0  0  0  0  0  0  0  0
    1.7286    0.2484   -2.0740 O   0  0  0  0  0  0  0  0  0  0  0  0
    2.4554    1.0846   -0.1051 N   0  0  0  0  0  0  0  0  0  0  0  0
    3.5859    0.3336   -0.0821 N   0  0  0  0  0  0  0  0  0  0  0  0
    5.0862   -2.2050    1.0884 H   0  0  0  0  0  0  0  0  0  0  0  0
    4.7952   -2.4391   -0.6298 H   0  0  0  0  0  0  0  0  0  0  0  0
    5.6989   -1.0249   -0.0789 H   0  0  0  0  0  0  0  0  0  0  0  0
    0.3440    2.4010   -0.0229 H   0  0  0  0  0  0  0  0  0  0  0  0
    0.1018    2.3554   -1.7640 H   0  0  0  0  0  0  0  0  0  0  0  0
   -0.9772    0.1280   -1.5708 H   0  0  0  0  0  0  0  0  0  0  0  0
   -2.1758    2.2943    0.2175 H   0  0  0  0  0  0  0  0  0  0  0  0
   -2.5053    2.0494   -1.4973 H   0  0  0  0  0  0  0  0  0  0  0  0
   -4.1922    0.8905    0.2516 H   0  0  0  0  0  0  0  0  0  0  0  0
   -3.5705   -0.0998   -1.0912 H   0  0  0  0  0  0  0  0  0  0  0  0
   -0.1399   -0.9380    0.4495 H   0  0  0  0  0  0  0  0  0  0  0  0
   -0.4304    0.5299    1.4068 H   0  0  0  0  0  0  0  0  0  0  0  0
    2.2411    1.6168    0.7249 H   0  0  0  0  0  0  0  0  0  0  0  0
    4.4199    0.7454   -0.4715 H   0  0  0  0  0  0  0  0  0  0  0  0
   -2.6613   -2.0010    0.5717 O   0  0  0  0  0  0  0  0  0  0  0  0
  2  3  2  0
  1  3  1  0
  3 14  1  0
 14 13  1  0
 13  4  1  0
  4 12  2  0
  4  5  1  0
  5  6  1  0
 10  9  2  0
  6  7  1  0
  6 11  1  0
  7  8  1  0
  9 11  1  1
  9  8  1  0
  9 29  2  0
  1 15  1  0
  1 16  1  0
  1 17  1  0
  5 18  1  0
  5 19  1  0
  6 20  1  6
  7 21  1  0
  7 22  1  0
  8 23  1  0
  8 24  1  0
 11 25  1  0
 11 26  1  0
 13 27  1  0
 14 28  1  0
M  END
