
     RDKit          3D

 63 67  0  0  0  0  0  0  0  0999 V2000
   -8.8462    0.3003    1.1831 C   0  0  0  0  0  0  0  0  0  0  0  0
   -8.5053   -0.9339    0.5105 N   0  0  0  0  0  0  0  0  0  0  0  0
   -9.5845   -1.8920    0.6114 C   0  0  0  0  0  0  0  0  0  0  0  0
   -8.1252   -0.7336   -0.8721 C   0  0  0  0  0  0  0  0  0  0  0  0
   -6.8544    0.0663   -1.0571 C   0  0  0  0  0  0  0  0  0  0  0  0
   -5.8030   -0.5948   -0.3747 O   0  0  0  0  0  0  0  0  0  0  0  0
   -4.5794   -0.0428   -0.3726 C   0  0  0  0  0  0  0  0  0  0  0  0
   -4.2326    1.1160   -1.0631 C   0  0  0  0  0  0  0  0  0  0  0  0
   -2.9333    1.6005   -0.9913 C   0  0  0  0  0  0  0  0  0  0  0  0
   -3.6051   -0.6973    0.3872 C   0  0  0  0  0  0  0  0  0  0  0  0
   -2.3200   -0.2020    0.4544 C   0  0  0  0  0  0  0  0  0  0  0  0
   -1.9538    0.9571   -0.2384 C   0  0  0  0  0  0  0  0  0  0  0  0
   -0.5954    1.4879   -0.1603 C   0  0  0  0  0  0  0  0  0  0  0  0
   -0.3768    2.8468   -0.1399 N   0  0  0  0  0  0  0  0  0  0  0  0
    0.9468    3.0996   -0.0333 C   0  0  0  0  0  0  0  0  0  0  0  0
    1.5115    4.3080    0.0342 N   0  0  0  0  0  0  0  0  0  0  0  0
    2.8234    4.2481    0.1266 C   0  0  0  0  0  0  0  0  0  0  0  0
    3.5969    3.1643    0.1319 N   0  0  0  0  0  0  0  0  0  0  0  0
    1.6134    1.8708   -0.0014 C   0  0  0  0  0  0  0  0  0  0  0  0
    0.6194    0.8425   -0.0824 C   0  0  0  0  0  0  0  0  0  0  0  0
    0.8386   -0.6109   -0.0973 C   0  0  0  0  0  0  0  0  0  0  0  0
    0.3624   -1.3961   -1.1487 C   0  0  0  0  0  0  0  0  0  0  0  0
    0.5533   -2.7692   -1.1495 C   0  0  0  0  0  0  0  0  0  0  0  0
    1.2323   -3.3819   -0.1029 C   0  0  0  0  0  0  0  0  0  0  0  0
    1.7201   -2.6098    0.9420 C   0  0  0  0  0  0  0  0  0  0  0  0
    1.5231   -1.2358    0.9465 C   0  0  0  0  0  0  0  0  0  0  0  0
    3.0237    1.9609    0.0530 C   0  0  0  0  0  0  0  0  0  0  0  0
    3.8222    0.8843    0.0316 N   0  0  0  0  0  0  0  0  0  0  0  0
    5.2587    0.9744    0.0426 C   0  0  0  0  0  0  0  0  0  0  0  0
    5.8989   -0.3993    0.1447 C   0  0  2  0  0  0  0  0  0  0  0  0
    5.4837   -1.4468   -1.3068 S   0  0  0  0  0  0  0  0  0  0  0  0
    5.1523   -3.0015   -0.4160 C   0  0  0  0  0  0  0  0  0  0  0  0
    5.7656   -2.9093    0.9695 C   0  0  0  0  0  0  0  0  0  0  0  0
    5.3691   -1.2781    1.6402 S   0  0  0  0  0  0  0  0  0  0  0  0
   -9.1242    0.0905    2.2166 H   0  0  0  0  0  0  0  0  0  0  0  0
   -7.9959    0.9810    1.2128 H   0  0  0  0  0  0  0  0  0  0  0  0
   -9.6878    0.8334    0.7119 H   0  0  0  0  0  0  0  0  0  0  0  0
  -10.5143   -1.5579    0.1240 H   0  0  0  0  0  0  0  0  0  0  0  0
   -9.2910   -2.8379    0.1540 H   0  0  0  0  0  0  0  0  0  0  0  0
   -9.8134   -2.0871    1.6600 H   0  0  0  0  0  0  0  0  0  0  0  0
   -7.9909   -1.7144   -1.3368 H   0  0  0  0  0  0  0  0  0  0  0  0
   -8.9123   -0.2212   -1.4531 H   0  0  0  0  0  0  0  0  0  0  0  0
   -6.6413    0.1333   -2.1299 H   0  0  0  0  0  0  0  0  0  0  0  0
   -6.9660    1.0908   -0.6856 H   0  0  0  0  0  0  0  0  0  0  0  0
   -4.9508    1.6503   -1.6695 H   0  0  0  0  0  0  0  0  0  0  0  0
   -2.6904    2.4933   -1.5549 H   0  0  0  0  0  0  0  0  0  0  0  0
   -3.8708   -1.5928    0.9349 H   0  0  0  0  0  0  0  0  0  0  0  0
   -1.5945   -0.7170    1.0699 H   0  0  0  0  0  0  0  0  0  0  0  0
   -1.0979    3.5503   -0.1112 H   0  0  0  0  0  0  0  0  0  0  0  0
    3.3460    5.1967    0.1989 H   0  0  0  0  0  0  0  0  0  0  0  0
   -0.1589   -0.9232   -1.9713 H   0  0  0  0  0  0  0  0  0  0  0  0
    0.1750   -3.3621   -1.9724 H   0  0  0  0  0  0  0  0  0  0  0  0
    1.3848   -4.4535   -0.1050 H   0  0  0  0  0  0  0  0  0  0  0  0
    2.2535   -3.0757    1.7605 H   0  0  0  0  0  0  0  0  0  0  0  0
    1.8972   -0.6460    1.7746 H   0  0  0  0  0  0  0  0  0  0  0  0
    3.4159   -0.0196   -0.1563 H   0  0  0  0  0  0  0  0  0  0  0  0
    5.6384    1.4676   -0.8581 H   0  0  0  0  0  0  0  0  0  0  0  0
    5.5945    1.5787    0.8882 H   0  0  0  0  0  0  0  0  0  0  0  0
    6.9799   -0.2597    0.1659 H   0  0  0  0  0  0  0  0  0  0  0  0
    4.0775   -3.1593   -0.3574 H   0  0  0  0  0  0  0  0  0  0  0  0
    5.5979   -3.8207   -0.9805 H   0  0  0  0  0  0  0  0  0  0  0  0
    5.3432   -3.6621    1.6358 H   0  0  0  0  0  0  0  0  0  0  0  0
    6.8464   -3.0471    0.9330 H   0  0  0  0  0  0  0  0  0  0  0  0
  4  5  1  0
  4  2  1  0
  5  6  1  0
  2  3  1  0
  2  1  1  0
  6  7  1  0
  8  7  2  0
  8  9  1  0
  7 10  1  0
  9 12  2  0
 10 11  2  0
 12 11  1  0
 12 13  1  0
 14 13  1  0
 14 15  1  0
 13 20  2  0
 16 15  2  0
 16 17  1  0
 15 19  1  0
 20 19  1  0
 20 21  1  0
 17 18  2  0
 19 27  2  0
 21 22  2  0
 21 26  1  0
 18 27  1  0
 22 23  1  0
 27 28  1  0
 26 25  2  0
 23 24  2  0
 25 24  1  0
 28 29  1  0
 29 30  1  0
 30 31  1  0
 30 34  1  0
 31 32  1  0
 32 33  1  0
 34 33  1  0
  1 35  1  0
  1 36  1  0
  1 37  1  0
  3 38  1  0
  3 39  1  0
  3 40  1  0
  4 41  1  0
  4 42  1  0
  5 43  1  0
  5 44  1  0
  8 45  1  0
  9 46  1  0
 10 47  1  0
 11 48  1  0
 14 49  1  0
 17 50  1  0
 22 51  1  0
 23 52  1  0
 24 53  1  0
 25 54  1  0
 26 55  1  0
 28 56  1  0
 29 57  1  0
 29 58  1  0
 30 59  1  1
 32 60  1  0
 32 61  1  0
 33 62  1  0
 33 63  1  0
M  END
