
     RDKit          3D

 66 69  0  0  0  0  0  0  0  0999 V2000
   -4.9254   -0.6098   -2.2945 C   0  0  0  0  0  0  0  0  0  0  0  0
   -1.5254   -2.2094   -0.2259 C   0  0  0  0  0  0  0  0  0  0  0  0
   -0.1839   -2.3665    0.0671 C   0  0  0  0  0  0  0  0  0  0  0  0
    4.1289   -0.8039    1.0251 C   0  0  0  0  0  0  0  0  0  0  0  0
    5.7545    1.3820   -1.5554 C   0  0  0  0  0  0  0  0  0  0  0  0
    8.1215    0.7538   -1.3203 C   0  0  0  0  0  0  0  0  0  0  0  0
    8.4175    1.6315    0.9387 C   0  0  0  0  0  0  0  0  0  0  0  0
   -4.4400    2.0695   -0.3377 C   0  0  0  0  0  0  0  0  0  0  0  0
   -2.4179    1.5186   -1.0969 C   0  0  0  0  0  0  0  0  0  0  0  0
   -1.2021    0.8795   -1.6561 C   0  0  0  0  0  0  0  0  0  0  0  0
   -3.6831    1.0036   -0.8695 C   0  0  0  0  0  0  0  0  0  0  0  0
   -2.3600   -1.4000    0.5559 C   0  0  0  0  0  0  0  0  0  0  0  0
    0.3859   -1.6968    1.1408 C   0  0  0  0  0  0  0  0  0  0  0  0
    1.8519   -1.8132    1.4287 C   0  0  0  0  0  0  0  0  0  0  0  0
    5.0369    0.1602   -0.9951 C   0  0  0  0  0  0  0  0  0  0  0  0
    9.1074    0.7785   -0.1385 C   0  0  0  0  0  0  0  0  0  0  0  0
    6.9504    1.6206    0.5298 C   0  0  2  0  0  0  0  0  0  0  0  0
    6.2038    0.4018    1.0688 C   0  0  0  0  0  0  0  0  0  0  0  0
   -0.4124   -0.8435    1.8872 C   0  0  0  0  0  0  0  0  0  0  0  0
   -1.7598   -0.6887    1.6014 C   0  0  0  0  0  0  0  0  0  0  0  0
   -3.6885    3.1468   -0.2482 N   0  0  0  0  0  0  0  0  0  0  0  0
   -2.4794    2.7999   -0.7070 N   0  0  0  0  0  0  0  0  0  0  0  0
   -4.0824   -0.3196   -1.1381 N   0  0  0  0  0  0  0  0  0  0  0  0
    4.8973    0.2805    0.4462 N   0  0  0  0  0  0  0  0  0  0  0  0
    7.0302    1.6385   -0.9228 N   0  0  0  0  0  0  0  0  0  0  0  0
   -4.5715   -2.6241   -0.2485 O   0  0  0  0  0  0  0  0  0  0  0  0
   -4.7935   -0.7149    1.3049 O   0  0  0  0  0  0  0  0  0  0  0  0
   -4.1106   -1.3161    0.1777 S   0  0  1  0  0  0  0  0  0  0  0  0
   -2.5863    0.4771    2.5656 Cl  0  0  0  0  0  0  0  0  0  0  0  0
   -4.5214   -0.0537   -3.1369 H   0  0  0  0  0  0  0  0  0  0  0  0
   -4.8837   -1.6670   -2.5409 H   0  0  0  0  0  0  0  0  0  0  0  0
   -5.9666   -0.3188   -2.1470 H   0  0  0  0  0  0  0  0  0  0  0  0
    0.4262   -3.0050   -0.5582 H   0  0  0  0  0  0  0  0  0  0  0  0
    2.2693    0.2657    1.0141 H   0  0  0  0  0  0  0  0  0  0  0  0
    2.4628   -0.8036   -0.3649 H   0  0  0  0  0  0  0  0  0  0  0  0
    4.2518   -0.7568    2.1112 H   0  0  0  0  0  0  0  0  0  0  0  0
    4.5160   -1.7900    0.7124 H   0  0  0  0  0  0  0  0  0  0  0  0
    5.1099    2.2562   -1.4163 H   0  0  0  0  0  0  0  0  0  0  0  0
    8.5717    1.1140   -2.2492 H   0  0  0  0  0  0  0  0  0  0  0  0
    7.7892   -0.2746   -1.5139 H   0  0  0  0  0  0  0  0  0  0  0  0
    8.5754    1.2460    1.9473 H   0  0  0  0  0  0  0  0  0  0  0  0
    8.7941    2.6553    0.9205 H   0  0  0  0  0  0  0  0  0  0  0  0
   -0.7582    1.4840   -2.4476 H   0  0  0  0  0  0  0  0  0  0  0  0
   -0.4377    0.7260   -0.8911 H   0  0  0  0  0  0  0  0  0  0  0  0
   -1.4529   -0.0885   -2.0832 H   0  0  0  0  0  0  0  0  0  0  0  0
    2.2136   -2.7944    1.1125 H   0  0  0  0  0  0  0  0  0  0  0  0
    2.0204   -1.7432    2.5059 H   0  0  0  0  0  0  0  0  0  0  0  0
    4.0513    0.0930   -1.4586 H   0  0  0  0  0  0  0  0  0  0  0  0
    5.5761   -0.7642   -1.2695 H   0  0  0  0  0  0  0  0  0  0  0  0
    9.2938   -0.2322    0.2247 H   0  0  0  0  0  0  0  0  0  0  0  0
   10.0735    1.1955   -0.4216 H   0  0  0  0  0  0  0  0  0  0  0  0
    6.4245    2.5190    0.8730 H   0  0  0  0  0  0  0  0  0  0  0  0
    6.8137   -0.5106    0.9266 H   0  0  0  0  0  0  0  0  0  0  0  0
    6.0703    0.5195    2.1479 H   0  0  0  0  0  0  0  0  0  0  0  0
    0.0186   -0.2818    2.7058 H   0  0  0  0  0  0  0  0  0  0  0  0
   -2.0792   -2.9819   -1.6673 Cl  0  0  0  0  0  0  0  0  0  0  0  0
    2.6413   -0.7165    0.7098 C   0  0  0  0  0  0  0  0  0  0  0  0
   -5.8664    2.0814    0.0875 C   0  0  0  0  0  0  0  0  0  0  0  0
   -1.3988    3.7546   -0.6706 C   0  0  0  0  0  0  0  0  0  0  0  0
    5.9013    1.2658   -2.6316 H   0  0  0  0  0  0  0  0  0  0  0  0
   -5.9751    1.7270    1.1122 H   0  0  0  0  0  0  0  0  0  0  0  0
   -6.2735    3.0900    0.0370 H   0  0  0  0  0  0  0  0  0  0  0  0
   -6.4772    1.4376   -0.5435 H   0  0  0  0  0  0  0  0  0  0  0  0
   -0.8016    3.6426    0.2344 H   0  0  0  0  0  0  0  0  0  0  0  0
   -0.7520    3.6270   -1.5353 H   0  0  0  0  0  0  0  0  0  0  0  0
   -1.8193    4.7556   -0.6955 H   0  0  0  0  0  0  0  0  0  0  0  0
 58  8  1  0
 21  8  2  0
 21 22  1  0
  8 11  1  0
 22 59  1  0
 22  9  1  0
 11  9  2  0
 11 23  1  0
  1 23  1  0
  9 10  1  0
 28 23  1  6
 26 28  2  0
 28 27  2  0
 28 12  1  0
 29 20  1  0
 12 20  1  0
 12  2  2  0
 56  2  1  0
 20 19  2  0
  2  3  1  0
 19 13  1  0
  3 13  2  0
 13 14  1  0
 17 18  1  0
 17  7  1  0
 17 25  1  0
  4 24  1  0
  4 57  1  0
 18 24  1  0
  7 16  1  0
 24 15  1  0
 25  5  1  0
 25  6  1  0
  5 15  1  0
 14 57  1  0
 16  6  1  0
  1 30  1  0
  1 31  1  0
  1 32  1  0
  3 33  1  0
 57 34  1  0
 57 35  1  0
  4 36  1  0
  4 37  1  0
  5 60  1  0
  5 38  1  0
  6 39  1  0
  6 40  1  0
  7 41  1  0
  7 42  1  0
 58 61  1  0
 58 62  1  0
 58 63  1  0
 59 64  1  0
 59 65  1  0
 59 66  1  0
 10 43  1  0
 10 44  1  0
 10 45  1  0
 14 46  1  0
 14 47  1  0
 15 48  1  0
 15 49  1  0
 16 50  1  0
 16 51  1  0
 17 52  1  1
 18 53  1  0
 18 54  1  0
 19 55  1  0
M  END
