
     RDKit          3D

 47 50  0  0  0  0  0  0  0  0999 V2000
   -2.4810   -1.3143    1.1492 C   0  0  0  0  0  0  0  0  0  0  0  0
   -3.6597   -2.0054    1.2145 C   0  0  0  0  0  0  0  0  0  0  0  0
   -4.8216   -1.5025    0.5958 C   0  0  0  0  0  0  0  0  0  0  0  0
   -4.7377   -0.2752   -0.0910 C   0  0  0  0  0  0  0  0  0  0  0  0
   -3.5198    0.4199   -0.1398 C   0  0  0  0  0  0  0  0  0  0  0  0
   -2.3899   -0.0808    0.4683 C   0  0  0  0  0  0  0  0  0  0  0  0
   -1.1118    0.6526    0.4060 C   0  0  0  0  0  0  0  0  0  0  0  0
    0.0815   -0.0335    0.2206 C   0  0  0  0  0  0  0  0  0  0  0  0
    1.3014    0.6408    0.1416 C   0  0  0  0  0  0  0  0  0  0  0  0
    1.3269    2.0301    0.2514 C   0  0  0  0  0  0  0  0  0  0  0  0
    0.1243    2.6839    0.4356 C   0  0  0  0  0  0  0  0  0  0  0  0
   -1.0919    2.0421    0.5178 C   0  0  0  0  0  0  0  0  0  0  0  0
    2.4408   -0.1384   -0.0422 N   0  0  0  0  0  0  0  0  0  0  0  0
    3.7131    0.2461   -0.3444 C   0  0  0  0  0  0  0  0  0  0  0  0
    4.0721    1.3995   -0.4340 O   0  0  0  0  0  0  0  0  0  0  0  0
    4.6325   -0.9391   -0.5987 C   0  0  0  0  0  0  0  0  0  0  0  0
    6.0153   -0.5916   -0.5123 N   0  0  0  0  0  0  0  0  0  0  0  0
    6.9055   -1.5989   -1.0620 C   0  0  0  0  0  0  0  0  0  0  0  0
    8.2898   -1.1308   -0.6192 C   0  0  0  0  0  0  0  0  0  0  0  0
    8.0251   -0.3251    0.6701 C   0  0  0  0  0  0  0  0  0  0  0  0
    6.5038   -0.3508    0.8342 C   0  0  0  0  0  0  0  0  0  0  0  0
   -5.9553    0.1735   -0.7125 C   0  0  0  0  0  0  0  0  0  0  0  0
   -7.0657   -0.5346   -0.6103 N   0  0  0  0  0  0  0  0  0  0  0  0
   -7.0096   -1.6772    0.0827 C   0  0  0  0  0  0  0  0  0  0  0  0
   -5.9800   -2.2065    0.6810 N   0  0  0  0  0  0  0  0  0  0  0  0
   -6.0135    1.3208   -1.3931 N   0  0  0  0  0  0  0  0  0  0  0  0
    0.1518    4.0178    0.5559 F   0  0  0  0  0  0  0  0  0  0  0  0
   -1.6086   -1.7117    1.6520 H   0  0  0  0  0  0  0  0  0  0  0  0
   -3.7220   -2.9425    1.7512 H   0  0  0  0  0  0  0  0  0  0  0  0
   -3.4426    1.3565   -0.6778 H   0  0  0  0  0  0  0  0  0  0  0  0
    0.0619   -1.1105    0.1040 H   0  0  0  0  0  0  0  0  0  0  0  0
    2.2437    2.5943    0.2042 H   0  0  0  0  0  0  0  0  0  0  0  0
   -1.9960    2.6089    0.6950 H   0  0  0  0  0  0  0  0  0  0  0  0
    2.2832   -1.1323    0.0051 H   0  0  0  0  0  0  0  0  0  0  0  0
    4.3581   -1.7721    0.0752 H   0  0  0  0  0  0  0  0  0  0  0  0
    4.4125   -1.2919   -1.6124 H   0  0  0  0  0  0  0  0  0  0  0  0
    6.6942   -2.6008   -0.6523 H   0  0  0  0  0  0  0  0  0  0  0  0
    6.7967   -1.6636   -2.1466 H   0  0  0  0  0  0  0  0  0  0  0  0
    8.9624   -1.9719   -0.4586 H   0  0  0  0  0  0  0  0  0  0  0  0
    8.7434   -0.4982   -1.3820 H   0  0  0  0  0  0  0  0  0  0  0  0
    8.5212   -0.7551    1.5390 H   0  0  0  0  0  0  0  0  0  0  0  0
    8.3873    0.6977    0.5680 H   0  0  0  0  0  0  0  0  0  0  0  0
    6.1055    0.5784    1.2426 H   0  0  0  0  0  0  0  0  0  0  0  0
    6.2085   -1.1650    1.5179 H   0  0  0  0  0  0  0  0  0  0  0  0
   -7.9444   -2.2256    0.1447 H   0  0  0  0  0  0  0  0  0  0  0  0
   -5.2026    1.8573   -1.6318 H   0  0  0  0  0  0  0  0  0  0  0  0
   -6.8589    1.5561   -1.8808 H   0  0  0  0  0  0  0  0  0  0  0  0
 19 18  1  0
 19 20  1  0
 18 17  1  0
 20 21  1  0
 21 17  1  0
 17 16  1  0
 16 14  1  0
 14 13  1  0
 14 15  2  0
 13  9  1  0
  9  8  2  0
  9 10  1  0
  8  7  1  0
  1  2  2  0
  1  6  1  0
 10 11  2  0
  2  3  1  0
  7  6  1  0
  7 12  2  0
  6  5  2  0
 11 12  1  0
 11 27  1  0
  3 25  2  0
  3  4  1  0
 25 24  1  0
  5  4  1  0
  4 22  2  0
 24 23  2  0
 22 23  1  0
 22 26  1  0
  1 28  1  0
  2 29  1  0
  5 30  1  0
  8 31  1  0
 10 32  1  0
 12 33  1  0
 13 34  1  0
 16 35  1  0
 16 36  1  0
 18 37  1  0
 18 38  1  0
 19 39  1  0
 19 40  1  0
 20 41  1  0
 20 42  1  0
 21 43  1  0
 21 44  1  0
 24 45  1  0
 26 46  1  0
 26 47  1  0
M  END
