
     RDKit          3D

 13 13  0  0  0  0  0  0  0  0999 V2000
   -1.7917   -2.1413    0.0176 O   0  0  0  0  0  0  0  0  0  0  0  0
   -1.5427   -0.8479    0.0410 C   0  0  0  0  0  0  0  0  0  0  0  0
   -2.3833    0.0106    0.0749 O   0  0  0  0  0  0  0  0  0  0  0  0
   -0.0669   -0.5663    0.0211 C   0  0  0  0  0  0  0  0  0  0  0  0
    0.7402   -1.6208    0.0465 N   0  0  0  0  0  0  0  0  0  0  0  0
    0.4634    0.7182   -0.0187 C   0  0  0  0  0  0  0  0  0  0  0  0
   -0.4433    2.1685   -0.0603 Cl  0  0  0  0  0  0  0  0  0  0  0  0
    1.8536    0.8244   -0.0305 C   0  0  0  0  0  0  0  0  0  0  0  0
    2.6390   -0.2325   -0.0031 N   0  0  0  0  0  0  0  0  0  0  0  0
    2.0403   -1.4168    0.0347 C   0  0  0  0  0  0  0  0  0  0  0  0
   -2.7501   -2.2882    0.0298 H   0  0  0  0  0  0  0  0  0  0  0  0
    2.3213    1.8018   -0.0636 H   0  0  0  0  0  0  0  0  0  0  0  0
    2.6784   -2.2915    0.0576 H   0  0  0  0  0  0  0  0  0  0  0  0
  9 10  2  0
  9  8  1  0
 10  5  1  0
  8  6  2  0
  5  4  2  0
  6  4  1  0
  6  7  1  0
  4  2  1  0
  2  3  2  0
  2  1  1  0
  1 11  1  0
  8 12  1  0
 10 13  1  0
M  END
