
     RDKit          3D

 14 14  0  0  0  0  0  0  0  0999 V2000
   -1.7608   -1.4604   -0.0549 O   0  0  0  0  0  0  0  0  0  0  0  0
   -0.7724   -0.7874    0.0179 C   0  0  0  0  0  0  0  0  0  0  0  0
   -0.8938    0.7248    0.1159 C   0  0  0  0  0  0  0  0  0  0  0  0
   -2.0180    1.2112    0.4508 N   0  0  0  0  0  0  0  0  0  0  0  0
    0.1668    1.6428   -0.2685 C   0  0  0  0  0  0  0  0  0  0  0  0
    1.4859    1.4164   -0.3463 C   0  0  0  0  0  0  0  0  0  0  0  0
    2.1922    0.1934   -0.0704 C   0  0  0  0  0  0  0  0  0  0  0  0
    1.6840   -1.0247    0.1042 C   0  0  0  0  0  0  0  0  0  0  0  0
    0.3960   -1.4391    0.0133 O   0  0  0  0  0  0  0  0  0  0  0  0
   -2.7002    0.4842    0.6525 H   0  0  0  0  0  0  0  0  0  0  0  0
   -0.1906    2.6442   -0.4730 H   0  0  0  0  0  0  0  0  0  0  0  0
    2.1092    2.2602   -0.6144 H   0  0  0  0  0  0  0  0  0  0  0  0
    3.2696    0.2512    0.0035 H   0  0  0  0  0  0  0  0  0  0  0  0
    2.3203   -1.8745    0.3052 H   0  0  0  0  0  0  0  0  0  0  0  0
  6  7  1  0
  6  5  2  0
  7  8  2  0
  5  3  1  0
  8  9  1  0
  3  4  2  0
  3  2  1  0
  9  2  1  0
  2  1  2  0
  4 10  1  0
  5 11  1  0
  6 12  1  0
  7 13  1  0
  8 14  1  0
M  END
