
     RDKit          3D

 23 23  0  0  0  0  0  0  0  0999 V2000
   -2.6867   -1.6427    0.0087 O   0  0  0  0  0  0  0  0  0  0  0  0
   -1.7761   -0.6421   -0.0101 C   0  0  0  0  0  0  0  0  0  0  0  0
   -0.4273   -0.8289   -0.2555 C   0  0  0  0  0  0  0  0  0  0  0  0
   -2.2703    0.6476    0.2304 C   0  0  0  0  0  0  0  0  0  0  0  0
   -3.5802    0.8731    0.4728 O   0  0  0  0  0  0  0  0  0  0  0  0
   -1.3901    1.7154    0.2110 C   0  0  0  0  0  0  0  0  0  0  0  0
   -0.0355    1.5194   -0.0410 C   0  0  0  0  0  0  0  0  0  0  0  0
    0.4619    0.2459   -0.2712 C   0  0  0  0  0  0  0  0  0  0  0  0
    1.9336   -0.0248   -0.5009 C   0  0  1  0  0  0  0  0  0  0  0  0
    2.6304    1.0962   -0.9955 O   0  0  0  0  0  0  0  0  0  0  0  0
    2.5814   -0.5702    0.7702 C   0  0  0  0  0  0  0  0  0  0  0  0
    3.9537   -0.9761    0.5241 N   0  0  0  0  0  0  0  0  0  0  0  0
   -2.2585   -2.4981   -0.1044 H   0  0  0  0  0  0  0  0  0  0  0  0
   -0.0612   -1.8335   -0.4470 H   0  0  0  0  0  0  0  0  0  0  0  0
   -4.0667    0.0411    0.5039 H   0  0  0  0  0  0  0  0  0  0  0  0
   -1.7703    2.7130    0.3938 H   0  0  0  0  0  0  0  0  0  0  0  0
    0.6154    2.3838   -0.0552 H   0  0  0  0  0  0  0  0  0  0  0  0
    2.0287   -0.7911   -1.2773 H   0  0  0  0  0  0  0  0  0  0  0  0
    2.7697    1.7242   -0.2780 H   0  0  0  0  0  0  0  0  0  0  0  0
    2.4669    0.1840    1.5661 H   0  0  0  0  0  0  0  0  0  0  0  0
    2.0140   -1.4441    1.0964 H   0  0  0  0  0  0  0  0  0  0  0  0
    4.5210   -0.1611    0.3301 H   0  0  0  0  0  0  0  0  0  0  0  0
    4.3382   -1.3828    1.3668 H   0  0  0  0  0  0  0  0  0  0  0  0
  2  1  1  0
  1 13  1  0
  3  2  2  0
  2  4  1  0
  8  3  1  0
  3 14  1  0
  6  4  2  0
  4  5  1  0
  5 15  1  0
  7  6  1  0
  6 16  1  0
  8  7  2  0
  7 17  1  0
  9  8  1  0
 11  9  1  0
 10  9  1  0
  9 18  1  6
 10 19  1  0
 12 11  1  0
 11 20  1  0
 11 21  1  0
 12 22  1  0
 12 23  1  0
M  END
