
     RDKit          3D

 76 80  0  0  0  0  0  0  0  0999 V2000
   11.0301   -0.9675   -1.1648 C   0  0  0  0  0  0  0  0  0  0  0  0
    9.6964   -0.6075   -0.8665 O   0  0  0  0  0  0  0  0  0  0  0  0
    9.4644    0.5625   -0.2371 C   0  0  0  0  0  0  0  0  0  0  0  0
    8.1185    0.8358    0.0538 C   0  0  0  0  0  0  0  0  0  0  0  0
    7.0713   -0.1667   -0.3480 C   0  0  0  0  0  0  0  0  0  0  0  0
    5.8121    0.2549    0.0955 O   0  0  0  0  0  0  0  0  0  0  0  0
   10.4599    1.4665    0.1168 C   0  0  0  0  0  0  0  0  0  0  0  0
   10.1198    2.6518    0.7609 C   0  0  0  0  0  0  0  0  0  0  0  0
    8.7976    2.9349    1.0512 C   0  0  0  0  0  0  0  0  0  0  0  0
    7.8063    2.0247    0.6948 C   0  0  0  0  0  0  0  0  0  0  0  0
   -4.9357    0.8985   -0.7830 C   0  0  0  0  0  0  0  0  0  0  0  0
   -5.3599    1.5928    0.3439 C   0  0  0  0  0  0  0  0  0  0  0  0
   -5.2926    2.9869    0.3977 C   0  0  0  0  0  0  0  0  0  0  0  0
   -4.7756    3.6997   -0.7029 C   0  0  0  0  0  0  0  0  0  0  0  0
   -4.3723    2.9785   -1.8134 C   0  0  0  0  0  0  0  0  0  0  0  0
   -4.4370    1.5905   -1.8833 C   0  0  0  0  0  0  0  0  0  0  0  0
   -4.5167   -2.6859   -1.3206 C   0  0  2  0  0  0  0  0  0  0  0  0
   -5.9440   -3.2004   -1.2431 C   0  0  0  0  0  0  0  0  0  0  0  0
   -5.9197   -4.5272   -0.6709 N   0  0  0  0  0  0  0  0  0  0  0  0
   -5.5628   -4.4401    0.7256 C   0  0  0  0  0  0  0  0  0  0  0  0
   -4.2510   -3.7204    0.9386 C   0  0  0  0  0  0  0  0  0  0  0  0
   -3.8208   -2.8964   -0.0458 N   0  0  0  0  0  0  0  0  0  0  0  0
   -4.4663   -1.2267   -1.7385 C   0  0  0  0  0  0  0  0  0  0  0  0
   -5.0503   -0.4468   -0.7210 O   0  0  0  0  0  0  0  0  0  0  0  0
   -2.3737   -1.1529    0.8787 C   0  0  0  0  0  0  0  0  0  0  0  0
   -2.5390   -2.2960    0.1029 C   0  0  0  0  0  0  0  0  0  0  0  0
   -1.4422   -2.8310   -0.5507 C   0  0  0  0  0  0  0  0  0  0  0  0
   -0.1874   -2.2418   -0.4452 C   0  0  0  0  0  0  0  0  0  0  0  0
   -0.0260   -1.1000    0.3352 C   0  0  0  0  0  0  0  0  0  0  0  0
   -1.1323   -0.5605    0.9968 C   0  0  0  0  0  0  0  0  0  0  0  0
    1.1426   -0.4551    0.5080 O   0  0  0  0  0  0  0  0  0  0  0  0
    2.3116   -0.9820   -0.0971 C   0  0  0  0  0  0  0  0  0  0  0  0
    3.4741   -0.0941    0.2957 C   0  0  0  0  0  0  0  0  0  0  0  0
    4.7755   -0.6169   -0.2823 C   0  0  0  0  0  0  0  0  0  0  0  0
   -5.5801    5.8019    0.4037 C   0  0  0  0  0  0  0  0  0  0  0  0
   -5.4281    5.0444    1.7118 C   0  0  0  0  0  0  0  0  0  0  0  0
   -5.7598    3.6534    1.5033 N   0  0  0  0  0  0  0  0  0  0  0  0
   -4.6559    5.2020   -0.6493 C   0  0  0  0  0  0  0  0  0  0  0  0
   11.5014   -0.2583   -1.8502 H   0  0  0  0  0  0  0  0  0  0  0  0
   11.6417   -1.0461   -0.2625 H   0  0  0  0  0  0  0  0  0  0  0  0
   10.9869   -1.9420   -1.6448 H   0  0  0  0  0  0  0  0  0  0  0  0
    7.0762   -0.2889   -1.4417 H   0  0  0  0  0  0  0  0  0  0  0  0
    7.3176   -1.1540    0.0693 H   0  0  0  0  0  0  0  0  0  0  0  0
   11.5002    1.2654   -0.0999 H   0  0  0  0  0  0  0  0  0  0  0  0
   10.9026    3.3487    1.0316 H   0  0  0  0  0  0  0  0  0  0  0  0
    8.5292    3.8559    1.5516 H   0  0  0  0  0  0  0  0  0  0  0  0
    6.7745    2.2530    0.9234 H   0  0  0  0  0  0  0  0  0  0  0  0
   -5.7520    1.0403    1.1910 H   0  0  0  0  0  0  0  0  0  0  0  0
   -3.9821    3.5191   -2.6688 H   0  0  0  0  0  0  0  0  0  0  0  0
   -4.1065    1.0881   -2.7813 H   0  0  0  0  0  0  0  0  0  0  0  0
   -3.9946   -3.2482   -2.1040 H   0  0  0  0  0  0  0  0  0  0  0  0
   -6.5701   -2.5028   -0.6674 H   0  0  0  0  0  0  0  0  0  0  0  0
   -6.3443   -3.2442   -2.2564 H   0  0  0  0  0  0  0  0  0  0  0  0
   -6.8276   -4.9629   -0.7595 H   0  0  0  0  0  0  0  0  0  0  0  0
   -6.3127   -3.9120    1.3377 H   0  0  0  0  0  0  0  0  0  0  0  0
   -5.4558   -5.4391    1.1502 H   0  0  0  0  0  0  0  0  0  0  0  0
   -3.4318   -0.9175   -1.9207 H   0  0  0  0  0  0  0  0  0  0  0  0
   -5.0076   -1.1216   -2.6867 H   0  0  0  0  0  0  0  0  0  0  0  0
   -3.2229   -0.7172    1.3875 H   0  0  0  0  0  0  0  0  0  0  0  0
   -1.5574   -3.7207   -1.1575 H   0  0  0  0  0  0  0  0  0  0  0  0
    0.6428   -2.6910   -0.9723 H   0  0  0  0  0  0  0  0  0  0  0  0
   -1.0097    0.3283    1.6029 H   0  0  0  0  0  0  0  0  0  0  0  0
    2.1984   -1.0073   -1.1871 H   0  0  0  0  0  0  0  0  0  0  0  0
    2.4827   -2.0109    0.2407 H   0  0  0  0  0  0  0  0  0  0  0  0
    3.5509   -0.0553    1.3852 H   0  0  0  0  0  0  0  0  0  0  0  0
    3.2976    0.9233   -0.0627 H   0  0  0  0  0  0  0  0  0  0  0  0
    4.7077   -0.6836   -1.3777 H   0  0  0  0  0  0  0  0  0  0  0  0
    4.9708   -1.6338    0.0868 H   0  0  0  0  0  0  0  0  0  0  0  0
   -5.3441    6.8554    0.5590 H   0  0  0  0  0  0  0  0  0  0  0  0
   -6.6208    5.7477    0.0735 H   0  0  0  0  0  0  0  0  0  0  0  0
   -4.4033    5.1721    2.0877 H   0  0  0  0  0  0  0  0  0  0  0  0
   -6.0996    5.4462    2.4713 H   0  0  0  0  0  0  0  0  0  0  0  0
   -5.8749    3.0985    2.3354 H   0  0  0  0  0  0  0  0  0  0  0  0
   -3.6237    5.4815   -0.4129 H   0  0  0  0  0  0  0  0  0  0  0  0
   -4.8698    5.6303   -1.6312 H   0  0  0  0  0  0  0  0  0  0  0  0
   -3.6254   -3.8718    1.9776 O   0  0  0  0  0  0  0  0  0  0  0  0
  1  2  1  0
  1 39  1  0
  1 40  1  0
  1 41  1  0
  2  3  1  0
  3  4  2  0
  3  7  1  0
  4  5  1  0
  4 10  1  0
  5  6  1  0
  5 42  1  0
  5 43  1  0
  6 34  1  0
  7  8  2  0
  7 44  1  0
  8  9  1  0
  8 45  1  0
  9 10  2  0
  9 46  1  0
 10 47  1  0
 11 12  2  0
 11 16  1  0
 11 24  1  0
 12 13  1  0
 12 48  1  0
 13 14  2  0
 13 37  1  0
 14 15  1  0
 14 38  1  0
 15 16  2  0
 15 49  1  0
 16 50  1  0
 17 18  1  0
 17 22  1  0
 17 23  1  0
 17 51  1  6
 18 19  1  0
 18 52  1  0
 18 53  1  0
 19 20  1  0
 19 54  1  0
 20 21  1  0
 20 55  1  0
 20 56  1  0
 21 22  1  0
 21 76  2  0
 22 26  1  0
 23 24  1  0
 23 57  1  0
 23 58  1  0
 25 26  2  0
 25 30  1  0
 25 59  1  0
 26 27  1  0
 27 28  2  0
 27 60  1  0
 28 29  1  0
 28 61  1  0
 29 30  2  0
 29 31  1  0
 30 62  1  0
 31 32  1  0
 32 33  1  0
 32 63  1  0
 32 64  1  0
 33 34  1  0
 33 65  1  0
 33 66  1  0
 34 67  1  0
 34 68  1  0
 35 36  1  0
 35 38  1  0
 35 69  1  0
 35 70  1  0
 36 37  1  0
 36 71  1  0
 36 72  1  0
 37 73  1  0
 38 74  1  0
 38 75  1  0
M  END
