
     RDKit          3D

 26 25  0  0  0  0  0  0  0  0999 V2000
    3.7504   -1.0788    0.9339 O   0  0  0  0  0  0  0  0  0  0  0  0
    3.5893    0.0189    0.4160 C   0  0  0  0  0  0  0  0  0  0  0  0
    4.6983    1.0389    0.3491 C   0  0  0  0  0  0  0  0  0  0  0  0
    2.4226    0.4013   -0.1291 N   0  0  0  0  0  0  0  0  0  0  0  0
    1.2544   -0.4393   -0.1574 C   0  0  2  0  0  0  0  0  0  0  0  0
    1.2747   -1.4310   -1.3252 C   0  0  0  0  0  0  0  0  0  0  0  0
    0.0032    0.4229   -0.1938 C   0  0  0  0  0  0  0  0  0  0  0  0
   -1.3065   -0.3198   -0.1901 C   0  0  0  0  0  0  0  0  0  0  0  0
   -2.4937    0.5689    0.1274 C   0  0  0  0  0  0  0  0  0  0  0  0
   -3.7983   -0.1780    0.0887 C   0  0  0  0  0  0  0  0  0  0  0  0
   -4.8178    0.6038    0.4273 O   0  0  0  0  0  0  0  0  0  0  0  0
   -3.9289   -1.3380   -0.2129 O   0  0  0  0  0  0  0  0  0  0  0  0
    0.0666    1.6294   -0.2343 O   0  0  0  0  0  0  0  0  0  0  0  0
    5.5324    0.6294   -0.2209 H   0  0  0  0  0  0  0  0  0  0  0  0
    4.3988    1.9796   -0.1087 H   0  0  0  0  0  0  0  0  0  0  0  0
    5.0631    1.2426    1.3555 H   0  0  0  0  0  0  0  0  0  0  0  0
    2.3457    1.3227   -0.5298 H   0  0  0  0  0  0  0  0  0  0  0  0
    1.2121   -1.0114    0.7757 H   0  0  0  0  0  0  0  0  0  0  0  0
    0.4234   -2.1086   -1.2846 H   0  0  0  0  0  0  0  0  0  0  0  0
    1.2582   -0.9082   -2.2818 H   0  0  0  0  0  0  0  0  0  0  0  0
    2.1794   -2.0340   -1.2777 H   0  0  0  0  0  0  0  0  0  0  0  0
   -1.4257   -0.7735   -1.1795 H   0  0  0  0  0  0  0  0  0  0  0  0
   -1.2391   -1.1592    0.5068 H   0  0  0  0  0  0  0  0  0  0  0  0
   -2.3883    1.0275    1.1142 H   0  0  0  0  0  0  0  0  0  0  0  0
   -2.5599    1.3994   -0.5799 H   0  0  0  0  0  0  0  0  0  0  0  0
   -5.6457    0.1019    0.3901 H   0  0  0  0  0  0  0  0  0  0  0  0
  1  2  2  0
  2  3  1  0
  2  4  1  0
  4  5  1  0
  5  6  1  0
  5  7  1  0
  7  8  1  0
  7 13  2  0
  8  9  1  0
  9 10  1  0
 10 11  1  0
 10 12  2  0
  3 14  1  0
  3 15  1  0
  3 16  1  0
  4 17  1  0
  5 18  1  1
  6 19  1  0
  6 20  1  0
  6 21  1  0
  8 22  1  0
  8 23  1  0
  9 24  1  0
  9 25  1  0
 11 26  1  0
M  END
