
     RDKit          3D

 40 40  0  0  0  0  0  0  0  0999 V2000
    2.1986    2.1989    0.4989 O   0  0  0  0  0  0  0  0  0  0  0  0
    1.8490    1.3040   -0.6226 P   0  0  1  0  0  0  0  0  0  0  0  0
    0.5870    1.8864   -1.4138 O   0  0  0  0  0  0  0  0  0  0  0  0
    2.9821    0.9772   -1.7051 O   0  0  0  0  0  0  0  0  0  0  0  0
    1.3917   -0.3894   -0.1071 C   0  0  1  0  0  0  0  0  0  0  0  0
    2.8919   -1.4079    0.1855 P   0  0  1  0  0  0  0  0  0  0  0  0
    3.3678   -1.8867   -1.2601 O   0  0  0  0  0  0  0  0  0  0  0  0
    3.8764   -0.7205    1.0487 O   0  0  0  0  0  0  0  0  0  0  0  0
    2.2962   -2.7856    0.7297 O   0  0  0  0  0  0  0  0  0  0  0  0
    0.5427   -0.3446    1.1679 C   0  0  0  0  0  0  0  0  0  0  0  0
   -0.6596    0.4894    0.9983 N   0  0  0  0  0  0  0  0  0  0  0  0
   -1.6339    0.0468    0.1879 C   0  0  0  0  0  0  0  0  0  0  0  0
   -2.7695    0.7907   -0.0475 C   0  0  0  0  0  0  0  0  0  0  0  0
   -2.8710    2.0228    0.5964 C   0  0  0  0  0  0  0  0  0  0  0  0
   -1.8616    2.4598    1.4353 C   0  0  0  0  0  0  0  0  0  0  0  0
   -0.7507    1.6704    1.6223 C   0  0  0  0  0  0  0  0  0  0  0  0
   -3.8663    0.2564   -0.9153 C   0  0  0  0  0  0  0  0  0  0  0  0
   -4.8554   -0.5902   -0.1095 C   0  0  0  0  0  0  0  0  0  0  0  0
   -6.0281   -1.0712   -0.9533 C   0  0  0  0  0  0  0  0  0  0  0  0
   -6.9963   -1.9362   -0.1588 C   0  0  0  0  0  0  0  0  0  0  0  0
    0.3748    1.4738   -2.2619 H   0  0  0  0  0  0  0  0  0  0  0  0
    3.5203    1.7311   -1.9896 H   0  0  0  0  0  0  0  0  0  0  0  0
    0.8268   -0.8722   -0.9119 H   0  0  0  0  0  0  0  0  0  0  0  0
    3.7189   -1.1782   -1.8185 H   0  0  0  0  0  0  0  0  0  0  0  0
    2.6462   -3.0519    1.5910 H   0  0  0  0  0  0  0  0  0  0  0  0
    0.2068   -1.3436    1.4363 H   0  0  0  0  0  0  0  0  0  0  0  0
    1.1045    0.0579    2.0067 H   0  0  0  0  0  0  0  0  0  0  0  0
   -1.4787   -0.9237   -0.2634 H   0  0  0  0  0  0  0  0  0  0  0  0
   -3.7446    2.6421    0.4387 H   0  0  0  0  0  0  0  0  0  0  0  0
   -1.9228    3.4095    1.9447 H   0  0  0  0  0  0  0  0  0  0  0  0
    0.0699    1.9574    2.2608 H   0  0  0  0  0  0  0  0  0  0  0  0
   -4.3907    1.0944   -1.3789 H   0  0  0  0  0  0  0  0  0  0  0  0
   -3.4433   -0.3418   -1.7249 H   0  0  0  0  0  0  0  0  0  0  0  0
   -4.3299   -1.4502    0.3176 H   0  0  0  0  0  0  0  0  0  0  0  0
   -5.2275   -0.0052    0.7378 H   0  0  0  0  0  0  0  0  0  0  0  0
   -6.5560   -0.2045   -1.3617 H   0  0  0  0  0  0  0  0  0  0  0  0
   -5.6530   -1.6332   -1.8140 H   0  0  0  0  0  0  0  0  0  0  0  0
   -6.5036   -2.8342    0.2180 H   0  0  0  0  0  0  0  0  0  0  0  0
   -7.3943   -1.3933    0.7002 H   0  0  0  0  0  0  0  0  0  0  0  0
   -7.8414   -2.2542   -0.7699 H   0  0  0  0  0  0  0  0  0  0  0  0
 20 19  1  0
 18 19  1  0
 18 17  1  0
 14 15  2  0
 14 13  1  0
 15 16  1  0
 13 17  1  0
 13 12  2  0
 16 11  2  0
 12 11  1  0
 11 10  1  0
 10  5  1  0
  8  6  2  0
  5  6  1  0
  5  2  1  0
  1  2  2  0
  6  9  1  1
  6  7  1  0
  2  4  1  6
  2  3  1  0
  3 21  1  0
  4 22  1  0
  5 23  1  6
  7 24  1  0
  9 25  1  0
 10 26  1  0
 10 27  1  0
 12 28  1  0
 14 29  1  0
 15 30  1  0
 16 31  1  0
 17 32  1  0
 17 33  1  0
 18 34  1  0
 18 35  1  0
 19 36  1  0
 19 37  1  0
 20 38  1  0
 20 39  1  0
 20 40  1  0
M  CHG  1  11   1
M  END
