
     RDKit          3D

 38 40  0  0  0  0  0  0  0  0999 V2000
   -4.9361    1.3984   -1.5287 O   0  0  0  0  0  0  0  0  0  0  0  0
   -4.4604    1.0447   -0.0438 P   0  0  1  0  0  0  0  0  0  0  0  0
   -4.1895    2.1656    0.8846 O   0  0  0  0  0  0  0  0  0  0  0  0
   -5.5883    0.0055    0.5583 N   0  0  0  0  0  0  0  0  0  0  0  0
   -3.1491    0.2308   -0.5089 O   0  0  0  0  0  0  0  0  0  0  0  0
   -2.3293   -0.3638    0.4897 C   0  0  0  0  0  0  0  0  0  0  0  0
   -1.3773   -1.3222   -0.1793 C   0  0  2  0  0  0  0  0  0  0  0  0
   -0.4368   -2.0075    0.8088 C   0  0  1  0  0  0  0  0  0  0  0  0
   -1.0443   -3.1483    1.3420 O   0  0  0  0  0  0  0  0  0  0  0  0
    0.7779   -2.3034   -0.0776 C   0  0  1  0  0  0  0  0  0  0  0  0
    0.5419   -3.4107   -0.9020 O   0  0  0  0  0  0  0  0  0  0  0  0
    0.7975   -1.0621   -0.9673 C   0  0  1  0  0  0  0  0  0  0  0  0
   -0.5239   -0.6304   -1.0872 O   0  0  0  0  0  0  0  0  0  0  0  0
    1.5969    0.0077   -0.3788 N   0  0  0  0  0  0  0  0  0  0  0  0
    2.9592    0.0194   -0.3140 C   0  0  0  0  0  0  0  0  0  0  0  0
    3.2862    1.2277    0.2802 C   0  0  0  0  0  0  0  0  0  0  0  0
    2.1576    1.9477    0.5685 N   0  0  0  0  0  0  0  0  0  0  0  0
    1.1788    1.1936    0.1596 C   0  0  0  0  0  0  0  0  0  0  0  0
    3.8087   -0.9180   -0.7309 N   0  0  0  0  0  0  0  0  0  0  0  0
    5.0642   -0.5671   -0.5132 C   0  0  0  0  0  0  0  0  0  0  0  0
    5.5263    0.5502    0.0423 N   0  0  0  0  0  0  0  0  0  0  0  0
    4.6596    1.4812    0.4567 C   0  0  0  0  0  0  0  0  0  0  0  0
    5.1202    2.5983    1.0209 N   0  0  0  0  0  0  0  0  0  0  0  0
   -5.7823    1.8634   -1.5580 H   0  0  0  0  0  0  0  0  0  0  0  0
   -5.7933   -0.8526    0.0675 H   0  0  0  0  0  0  0  0  0  0  0  0
   -5.6525   -0.0916    1.5600 H   0  0  0  0  0  0  0  0  0  0  0  0
   -1.7840    0.4047    1.0471 H   0  0  0  0  0  0  0  0  0  0  0  0
   -2.9314   -0.9308    1.2084 H   0  0  0  0  0  0  0  0  0  0  0  0
   -1.9540   -2.0769   -0.7277 H   0  0  0  0  0  0  0  0  0  0  0  0
   -0.1421   -1.3021    1.5973 H   0  0  0  0  0  0  0  0  0  0  0  0
   -0.5848   -3.3976    2.1506 H   0  0  0  0  0  0  0  0  0  0  0  0
    1.7033   -2.4128    0.4999 H   0  0  0  0  0  0  0  0  0  0  0  0
    0.0490   -4.0635   -0.3892 H   0  0  0  0  0  0  0  0  0  0  0  0
    1.2188   -1.2800   -1.9524 H   0  0  0  0  0  0  0  0  0  0  0  0
    0.1358    1.4599    0.2158 H   0  0  0  0  0  0  0  0  0  0  0  0
    5.8211   -1.2784   -0.8265 H   0  0  0  0  0  0  0  0  0  0  0  0
    4.4955    3.3377    1.2902 H   0  0  0  0  0  0  0  0  0  0  0  0
    6.1095    2.7697    1.0715 H   0  0  0  0  0  0  0  0  0  0  0  0
  3  2  2  0
  4  2  1  0
  2  5  1  6
  2  1  1  0
  5  6  1  0
  6  7  1  0
  9  8  1  0
  7  8  1  0
  7 13  1  0
  8 10  1  0
 13 12  1  0
 12 10  1  0
 12 14  1  0
 10 11  1  0
 14 18  1  0
 14 15  1  0
 19 15  1  0
 19 20  2  0
 18 17  2  0
 15 16  2  0
 20 21  1  0
 17 16  1  0
 16 22  1  0
 21 22  2  0
 22 23  1  0
  1 24  1  0
  4 25  1  0
  4 26  1  0
  6 27  1  0
  6 28  1  0
  7 29  1  6
  8 30  1  1
  9 31  1  0
 10 32  1  1
 11 33  1  0
 12 34  1  6
 18 35  1  0
 20 36  1  0
 23 37  1  0
 23 38  1  0
M  END
