
     RDKit          3D

 45 47  0  0  0  0  0  0  0  0999 V2000
    1.0964   -0.4895    0.4648 N   0  0  0  0  0  0  0  0  0  0  0  0
    0.2493    0.3036    1.1766 C   0  0  0  0  0  0  0  0  0  0  0  0
    0.6079    1.1093    2.0050 O   0  0  0  0  0  0  0  0  0  0  0  0
   -1.0850    0.0772    0.8468 N   0  0  0  0  0  0  0  0  0  0  0  0
   -2.1783    0.6105    1.4952 C   0  0  0  0  0  0  0  0  0  0  0  0
   -2.1271    1.1854    2.5590 O   0  0  0  0  0  0  0  0  0  0  0  0
   -3.4591    0.4054    0.8017 C   0  0  0  0  0  0  0  0  0  0  0  0
   -4.7012    0.4753    1.3746 C   0  0  0  0  0  0  0  0  0  0  0  0
   -5.6449    0.1848    0.3524 C   0  0  0  0  0  0  0  0  0  0  0  0
   -7.0450    0.1004    0.3154 C   0  0  0  0  0  0  0  0  0  0  0  0
    2.5083   -0.3034    0.4912 C   0  0  1  0  0  0  0  0  0  0  0  0
   -7.6578   -0.1948   -0.8817 C   0  0  0  0  0  0  0  0  0  0  0  0
   -6.9032   -0.4106   -2.0517 C   0  0  0  0  0  0  0  0  0  0  0  0
   -5.5268   -0.3393   -2.0471 C   0  0  0  0  0  0  0  0  0  0  0  0
   -4.9075   -0.0453   -0.8303 C   0  0  0  0  0  0  0  0  0  0  0  0
    3.2281   -1.6395    0.2918 C   0  0  2  0  0  0  0  0  0  0  0  0
    2.9738   -2.5254    1.3507 O   0  0  0  0  0  0  0  0  0  0  0  0
    4.7294   -1.3863    0.2527 C   0  0  1  0  0  0  0  0  0  0  0  0
    5.4532   -2.5493   -0.0678 O   0  0  0  0  0  0  0  0  0  0  0  0
   -3.5861    0.0778   -0.5278 N   0  0  0  0  0  0  0  0  0  0  0  0
    5.0710   -0.3289   -0.7907 C   0  0  2  0  0  0  0  0  0  0  0  0
    6.4292    0.0276   -0.7304 O   0  0  0  0  0  0  0  0  0  0  0  0
    4.2361    0.9277   -0.5378 C   0  0  2  0  0  0  0  0  0  0  0  0
    2.8640    0.5920   -0.5359 O   0  0  0  0  0  0  0  0  0  0  0  0
    4.4551    1.9752   -1.6087 C   0  0  0  0  0  0  0  0  0  0  0  0
    3.7120    3.1246   -1.2810 O   0  0  0  0  0  0  0  0  0  0  0  0
    0.7246   -1.0560   -0.2842 H   0  0  0  0  0  0  0  0  0  0  0  0
   -1.2683   -0.5703    0.0942 H   0  0  0  0  0  0  0  0  0  0  0  0
   -4.9070    0.6830    2.4126 H   0  0  0  0  0  0  0  0  0  0  0  0
   -7.6303    0.2683    1.2106 H   0  0  0  0  0  0  0  0  0  0  0  0
    2.7860    0.1070    1.4699 H   0  0  0  0  0  0  0  0  0  0  0  0
   -8.7367   -0.2614   -0.9312 H   0  0  0  0  0  0  0  0  0  0  0  0
   -7.4177   -0.6422   -2.9752 H   0  0  0  0  0  0  0  0  0  0  0  0
   -4.9506   -0.5099   -2.9472 H   0  0  0  0  0  0  0  0  0  0  0  0
    2.9175   -2.0641   -0.6759 H   0  0  0  0  0  0  0  0  0  0  0  0
    2.0664   -2.8392    1.2855 H   0  0  0  0  0  0  0  0  0  0  0  0
    5.0323   -0.9960    1.2375 H   0  0  0  0  0  0  0  0  0  0  0  0
    5.4029   -3.1570    0.6765 H   0  0  0  0  0  0  0  0  0  0  0  0
   -2.8501    0.0950   -1.2159 H   0  0  0  0  0  0  0  0  0  0  0  0
    4.8083   -0.7223   -1.7861 H   0  0  0  0  0  0  0  0  0  0  0  0
    6.9541   -0.7625   -0.8950 H   0  0  0  0  0  0  0  0  0  0  0  0
    4.5221    1.3467    0.4415 H   0  0  0  0  0  0  0  0  0  0  0  0
    5.5269    2.1888   -1.6681 H   0  0  0  0  0  0  0  0  0  0  0  0
    4.1541    1.5584   -2.5802 H   0  0  0  0  0  0  0  0  0  0  0  0
    3.9416    3.8148   -1.9095 H   0  0  0  0  0  0  0  0  0  0  0  0
  1  2  1  0
  1 11  1  0
  2  3  2  0
  2  4  1  0
  4  5  1  0
  5  6  2  0
  5  7  1  0
  7  8  2  0
  7 20  1  0
  8  9  1  0
  9 10  2  0
  9 15  1  0
 10 12  1  0
 11 16  1  0
 11 24  1  0
 12 13  2  0
 13 14  1  0
 14 15  2  0
 15 20  1  0
 16 17  1  0
 16 18  1  0
 18 19  1  0
 18 21  1  0
 21 22  1  0
 21 23  1  0
 23 24  1  0
 23 25  1  0
 25 26  1  0
  1 27  1  0
  4 28  1  0
  8 29  1  0
 10 30  1  0
 11 31  1  1
 12 32  1  0
 13 33  1  0
 14 34  1  0
 16 35  1  6
 17 36  1  0
 18 37  1  1
 19 38  1  0
 20 39  1  0
 21 40  1  6
 22 41  1  0
 23 42  1  1
 25 43  1  0
 25 44  1  0
 26 45  1  0
M  END
