
     RDKit          3D

 43 45  0  0  0  0  0  0  0  0999 V2000
   -2.1972   -0.4281    0.2452 C   0  0  0  0  0  0  0  0  0  0  0  0
   -2.9164    1.7468   -0.5124 C   0  0  0  0  0  0  0  0  0  0  0  0
   -3.5233   -0.8273    0.3054 C   0  0  0  0  0  0  0  0  0  0  0  0
   -4.2325    1.3449   -0.4577 C   0  0  0  0  0  0  0  0  0  0  0  0
   -1.8821    0.8688   -0.1624 C   0  0  0  0  0  0  0  0  0  0  0  0
   -4.5347    0.0525   -0.0406 C   0  0  0  0  0  0  0  0  0  0  0  0
    3.6956    0.2419   -0.9283 C   0  0  0  0  0  0  0  0  0  0  0  0
    3.5060    0.6755    1.3108 C   0  0  0  0  0  0  0  0  0  0  0  0
    0.5931    0.7307   -0.0370 C   0  0  0  0  0  0  0  0  0  0  0  0
    6.2734   -2.3980   -0.0254 C   0  0  0  0  0  0  0  0  0  0  0  0
    7.1544   -1.1347   -0.1735 C   0  0  0  0  0  0  0  0  0  0  0  0
    4.8675   -1.9841   -0.4799 C   0  0  0  0  0  0  0  0  0  0  0  0
    6.2213   -0.0309   -0.6919 C   0  0  0  0  0  0  0  0  0  0  0  0
    4.8301   -0.4749   -0.2264 C   0  0  1  0  0  0  0  0  0  0  0  0
    1.7973    1.6500   -0.2015 C   0  0  0  0  0  0  0  0  0  0  0  0
    4.5617   -0.1375    1.1553 N   0  0  0  0  0  0  0  0  0  0  0  0
    3.0112    0.9342    0.0261 N   0  0  0  0  0  0  0  0  0  0  0  0
   -6.8448    0.5651    1.1234 N   0  0  0  0  0  0  0  0  0  0  0  0
   -0.5873    1.3702   -0.2384 N   0  0  0  0  0  0  0  0  0  0  0  0
    3.0326    1.1325    2.3277 O   0  0  0  0  0  0  0  0  0  0  0  0
    0.7172   -0.4411    0.2441 O   0  0  0  0  0  0  0  0  0  0  0  0
   -6.2180   -0.4699   -0.0009 S   0  0  1  0  0  0  0  0  0  0  0  0
   -1.4289   -1.1308    0.5201 H   0  0  0  0  0  0  0  0  0  0  0  0
   -2.6827    2.7548   -0.8316 H   0  0  0  0  0  0  0  0  0  0  0  0
   -3.7517   -1.8331    0.6293 H   0  0  0  0  0  0  0  0  0  0  0  0
   -5.0133    2.0426   -0.7300 H   0  0  0  0  0  0  0  0  0  0  0  0
    6.6465   -3.2336   -0.6169 H   0  0  0  0  0  0  0  0  0  0  0  0
    6.2563   -2.7346    1.0122 H   0  0  0  0  0  0  0  0  0  0  0  0
    7.5862   -0.8528    0.7879 H   0  0  0  0  0  0  0  0  0  0  0  0
    7.9880   -1.2920   -0.8568 H   0  0  0  0  0  0  0  0  0  0  0  0
    4.7449   -2.1546   -1.5512 H   0  0  0  0  0  0  0  0  0  0  0  0
    4.0654   -2.5119    0.0365 H   0  0  0  0  0  0  0  0  0  0  0  0
    6.4769    0.9663   -0.3334 H   0  0  0  0  0  0  0  0  0  0  0  0
    6.2291   -0.0061   -1.7835 H   0  0  0  0  0  0  0  0  0  0  0  0
    1.8104    2.0760   -1.2062 H   0  0  0  0  0  0  0  0  0  0  0  0
    1.7273    2.4841    0.4989 H   0  0  0  0  0  0  0  0  0  0  0  0
    5.1276   -0.4309    1.9355 H   0  0  0  0  0  0  0  0  0  0  0  0
   -7.8589    0.5974    1.0734 H   0  0  0  0  0  0  0  0  0  0  0  0
   -6.5469    0.3463    2.0685 H   0  0  0  0  0  0  0  0  0  0  0  0
   -0.5238    2.3480   -0.4847 H   0  0  0  0  0  0  0  0  0  0  0  0
    3.4422    0.2202   -2.1090 O   0  0  0  0  0  0  0  0  0  0  0  0
   -6.8716   -0.1278   -1.2567 O   0  0  0  0  0  0  0  0  0  0  0  0
   -6.2446   -1.8629    0.4267 O   0  0  0  0  0  0  0  0  0  0  0  0
 12 10  1  0
 12 14  1  0
 10 11  1  0
 41  7  2  0
 11 13  1  0
 14  7  1  6
 14 13  1  0
 14 16  1  0
  7 17  1  0
 16  8  1  0
 17  8  1  0
 17 15  1  0
  8 20  2  0
 15  9  1  0
 21  9  2  0
  9 19  1  0
 19  5  1  0
  5  1  2  0
  5  2  1  0
  1  3  1  0
  2  4  2  0
  3  6  2  0
  4  6  1  0
  6 22  1  0
 22 18  1  1
 43 22  2  0
 22 42  2  0
  1 23  1  0
  2 24  1  0
  3 25  1  0
  4 26  1  0
 10 27  1  0
 10 28  1  0
 11 29  1  0
 11 30  1  0
 12 31  1  0
 12 32  1  0
 13 33  1  0
 13 34  1  0
 15 35  1  0
 15 36  1  0
 16 37  1  0
 18 38  1  0
 18 39  1  0
 19 40  1  0
M  END
