
     RDKit          3D

 70 73  0  0  0  0  0  0  0  0999 V2000
   -1.9635   -2.5676    5.0925 O   0  0  0  0  0  0  0  0  0  0  0  0
   -3.2333   -2.1933    5.1711 C   0  0  0  0  0  0  0  0  0  0  0  0
   -3.9306   -1.8549    4.2532 O   0  0  0  0  0  0  0  0  0  0  0  0
   -3.6187   -2.2488    6.4938 N   0  0  0  0  0  0  0  0  0  0  0  0
   -4.8490   -1.9016    6.9927 C   0  0  0  0  0  0  0  0  0  0  0  0
   -4.9534   -2.0676    8.4672 C   0  0  0  0  0  0  0  0  0  0  0  0
   -5.7773   -1.4951    6.3324 O   0  0  0  0  0  0  0  0  0  0  0  0
   -3.8951   -2.5266    9.1029 N   0  0  0  0  0  0  0  0  0  0  0  0
   -3.8888   -2.7061   10.3914 N   0  0  0  0  0  0  0  0  0  0  0  0
   -6.1376   -1.7412    9.1447 C   0  0  0  0  0  0  0  0  0  0  0  0
   -6.1589   -1.9183   10.4939 C   0  0  0  0  0  0  0  0  0  0  0  0
   -4.9875   -2.4195   11.1058 C   0  0  0  0  0  0  0  0  0  0  0  0
   -4.9260   -2.6450   12.4220 N   0  0  0  0  0  0  0  0  0  0  0  0
   -1.2739   -4.6422   -0.3324 O   0  0  0  0  0  0  0  0  0  0  0  0
    1.3070   -1.5203    0.3582 C   0  0  0  0  0  0  0  0  0  0  0  0
    2.4531   -0.9872    1.1997 C   0  0  1  0  0  0  0  0  0  0  0  0
    2.2398   -1.6775    2.5368 C   0  0  0  0  0  0  0  0  0  0  0  0
    0.8124   -2.1998    2.6154 C   0  0  1  0  0  0  0  0  0  0  0  0
    0.0778   -1.9759    3.9550 C   0  0  1  0  0  0  0  0  0  0  0  0
    0.0179   -0.4416    4.1609 C   0  0  1  0  0  0  0  0  0  0  0  0
   -0.4121    0.2719    2.9103 C   0  0  0  0  0  0  0  0  0  0  0  0
   -0.3581   -0.2310    1.6815 C   0  0  0  0  0  0  0  0  0  0  0  0
    0.1279   -1.6176    1.3499 C   0  0  1  0  0  0  0  0  0  0  0  0
   -1.0652   -2.4158    0.7331 C   0  0  2  0  0  0  0  0  0  0  0  0
   -0.9290   -3.9617    0.8555 C   0  0  1  0  0  0  0  0  0  0  0  0
   -1.7756   -4.5632    2.0004 C   0  0  2  0  0  0  0  0  0  0  0  0
   -1.2700   -4.1198    3.3938 C   0  0  0  0  0  0  0  0  0  0  0  0
   -1.3184   -2.6336    3.8062 C   0  0  1  0  0  0  0  0  0  0  0  0
    0.8363   -2.6374    5.1139 C   0  0  0  0  0  0  0  0  0  0  0  0
   -0.7626    0.0909    5.3638 C   0  0  0  0  0  0  0  0  0  0  0  0
   -1.3215   -1.9593   -0.7057 C   0  0  0  0  0  0  0  0  0  0  0  0
   -1.6238   -6.0970    1.9923 C   0  0  0  0  0  0  0  0  0  0  0  0
   -3.2571   -4.2730    1.9168 C   0  0  0  0  0  0  0  0  0  0  0  0
   -3.9974   -3.9469    0.8636 C   0  0  0  0  0  0  0  0  0  0  0  0
   -2.9427   -2.5674    7.1790 H   0  0  0  0  0  0  0  0  0  0  0  0
   -6.9991   -1.3615    8.6140 H   0  0  0  0  0  0  0  0  0  0  0  0
   -7.0337   -1.6855   11.0862 H   0  0  0  0  0  0  0  0  0  0  0  0
   -5.6678   -2.3548   13.0341 H   0  0  0  0  0  0  0  0  0  0  0  0
   -4.0545   -2.9194   12.8426 H   0  0  0  0  0  0  0  0  0  0  0  0
   -0.6021   -4.4558   -0.9943 H   0  0  0  0  0  0  0  0  0  0  0  0
    1.0931   -0.8796   -0.4965 H   0  0  0  0  0  0  0  0  0  0  0  0
    1.5529   -2.5186   -0.0252 H   0  0  0  0  0  0  0  0  0  0  0  0
    2.2904    0.0833    1.3747 H   0  0  0  0  0  0  0  0  0  0  0  0
    0.9655   -3.2769    2.4765 H   0  0  0  0  0  0  0  0  0  0  0  0
    1.0578   -0.1414    4.3507 H   0  0  0  0  0  0  0  0  0  0  0  0
   -0.7717    1.2885    3.0390 H   0  0  0  0  0  0  0  0  0  0  0  0
   -0.6841    0.3874    0.8506 H   0  0  0  0  0  0  0  0  0  0  0  0
   -1.9656   -2.1168    1.2721 H   0  0  0  0  0  0  0  0  0  0  0  0
    0.1173   -4.2088    1.0863 H   0  0  0  0  0  0  0  0  0  0  0  0
   -0.2633   -4.5190    3.5350 H   0  0  0  0  0  0  0  0  0  0  0  0
   -1.8793   -4.6671    4.1162 H   0  0  0  0  0  0  0  0  0  0  0  0
   -1.9186   -2.0499    3.1104 H   0  0  0  0  0  0  0  0  0  0  0  0
    1.7456   -2.0952    5.3588 H   0  0  0  0  0  0  0  0  0  0  0  0
    0.2303   -2.6761    6.0169 H   0  0  0  0  0  0  0  0  0  0  0  0
    1.1313   -3.6595    4.8729 H   0  0  0  0  0  0  0  0  0  0  0  0
   -0.5119   -0.4331    6.2852 H   0  0  0  0  0  0  0  0  0  0  0  0
   -0.5032    1.1408    5.5094 H   0  0  0  0  0  0  0  0  0  0  0  0
   -1.8418    0.0566    5.2225 H   0  0  0  0  0  0  0  0  0  0  0  0
   -2.2650   -2.3542   -1.0776 H   0  0  0  0  0  0  0  0  0  0  0  0
   -1.3961   -0.8730   -0.7548 H   0  0  0  0  0  0  0  0  0  0  0  0
   -0.5391   -2.2556   -1.4059 H   0  0  0  0  0  0  0  0  0  0  0  0
   -2.1831   -6.5375    2.8200 H   0  0  0  0  0  0  0  0  0  0  0  0
   -1.9980   -6.5354    1.0700 H   0  0  0  0  0  0  0  0  0  0  0  0
   -0.5762   -6.3866    2.1102 H   0  0  0  0  0  0  0  0  0  0  0  0
   -3.7770   -4.4115    2.8619 H   0  0  0  0  0  0  0  0  0  0  0  0
   -5.0658   -3.8099    0.9731 H   0  0  0  0  0  0  0  0  0  0  0  0
   -3.5942   -3.8128   -0.1298 H   0  0  0  0  0  0  0  0  0  0  0  0
    3.7445   -1.1102    0.6849 O   0  0  0  0  0  0  0  0  0  0  0  0
    3.1194   -1.8512    3.3436 O   0  0  0  0  0  0  0  0  0  0  0  0
    3.9229   -2.0394    0.5040 H   0  0  0  0  0  0  0  0  0  0  0  0
  1  2  1  0
  1 28  1  0
  2  3  2  0
  2  4  1  0
  4  5  1  0
  4 35  1  0
  5  7  2  0
  5  6  1  0
  6 10  1  0
  6  8  2  0
  8  9  1  0
  9 12  2  0
 10 11  2  0
 10 36  1  0
 11 12  1  0
 11 37  1  0
 12 13  1  0
 13 38  1  0
 13 39  1  0
 69 17  2  0
 14 25  1  0
 14 40  1  0
 15 23  1  0
 15 16  1  0
 15 41  1  0
 15 42  1  0
 16 17  1  0
 16 68  1  0
 16 43  1  1
 17 18  1  0
 18 23  1  0
 18 19  1  0
 18 44  1  6
 19 20  1  0
 19 28  1  0
 19 29  1  1
 20 21  1  0
 20 30  1  0
 20 45  1  1
 21 22  2  0
 21 46  1  0
 23 22  1  1
 22 47  1  0
 23 24  1  0
 24 31  1  0
 24 25  1  0
 24 48  1  1
 25 26  1  0
 25 49  1  1
 26 33  1  6
 26 27  1  0
 26 32  1  0
 27 28  1  0
 27 50  1  0
 27 51  1  0
 28 52  1  6
 29 53  1  0
 29 54  1  0
 29 55  1  0
 30 56  1  0
 30 57  1  0
 30 58  1  0
 31 59  1  0
 31 60  1  0
 31 61  1  0
 32 62  1  0
 32 63  1  0
 32 64  1  0
 33 34  2  0
 33 65  1  0
 34 66  1  0
 34 67  1  0
 68 70  1  0
M  END
