
     RDKit          3D

 41 44  0  0  0  0  0  0  0  0999 V2000
   -4.1945    0.6770    0.2566 C   0  0  0  0  0  0  0  0  0  0  0  0
   -4.4388   -0.6293   -0.2032 C   0  0  0  0  0  0  0  0  0  0  0  0
   -6.0509   -1.1339   -0.5922 Cl  0  0  0  0  0  0  0  0  0  0  0  0
   -3.4132   -1.5322   -0.4156 C   0  0  0  0  0  0  0  0  0  0  0  0
   -2.1283   -1.0896   -0.1429 C   0  0  0  0  0  0  0  0  0  0  0  0
   -1.8484    0.2146    0.3076 C   0  0  0  0  0  0  0  0  0  0  0  0
   -2.8920    1.1062    0.5015 C   0  0  0  0  0  0  0  0  0  0  0  0
   -5.2783    1.6469    0.4964 C   0  0  0  0  0  0  0  0  0  0  0  0
   -6.2544    1.3517    1.3163 N   0  0  0  0  0  0  0  0  0  0  0  0
   -5.2053    2.8130   -0.0956 N   0  0  0  0  0  0  0  0  0  0  0  0
   -0.9129   -1.6864   -0.2239 N   0  0  0  0  0  0  0  0  0  0  0  0
   -0.5053    0.3795    0.4868 N   0  0  0  0  0  0  0  0  0  0  0  0
    0.0430   -0.7710    0.1624 C   0  0  0  0  0  0  0  0  0  0  0  0
    1.4461   -1.1327    0.1999 C   0  0  0  0  0  0  0  0  0  0  0  0
    1.7890   -2.4801    0.3686 C   0  0  0  0  0  0  0  0  0  0  0  0
    3.1017   -2.8984    0.4060 C   0  0  0  0  0  0  0  0  0  0  0  0
    4.1082   -1.9395    0.2590 C   0  0  0  0  0  0  0  0  0  0  0  0
    3.8306   -0.5990    0.0803 C   0  0  0  0  0  0  0  0  0  0  0  0
    2.4623   -0.1124    0.0531 C   0  0  0  0  0  0  0  0  0  0  0  0
    2.1985    1.1011   -0.0943 O   0  0  0  0  0  0  0  0  0  0  0  0
    4.9478    0.3567   -0.0564 C   0  0  0  0  0  0  0  0  0  0  0  0
    6.0537    0.2745    0.7943 C   0  0  0  0  0  0  0  0  0  0  0  0
    7.1410    1.1272    0.6535 C   0  0  0  0  0  0  0  0  0  0  0  0
    7.1452    2.0923   -0.3435 C   0  0  0  0  0  0  0  0  0  0  0  0
    6.0510    2.1913   -1.1954 C   0  0  0  0  0  0  0  0  0  0  0  0
    4.9651    1.3405   -1.0512 C   0  0  0  0  0  0  0  0  0  0  0  0
   -3.6149   -2.5289   -0.7831 H   0  0  0  0  0  0  0  0  0  0  0  0
   -2.6991    2.1096    0.8594 H   0  0  0  0  0  0  0  0  0  0  0  0
   -7.0283    1.9790    1.4802 H   0  0  0  0  0  0  0  0  0  0  0  0
   -6.2490    0.4900    1.8367 H   0  0  0  0  0  0  0  0  0  0  0  0
   -4.5014    2.9884   -0.7946 H   0  0  0  0  0  0  0  0  0  0  0  0
   -5.8645    3.5544    0.0909 H   0  0  0  0  0  0  0  0  0  0  0  0
   -0.7347   -2.6095   -0.5861 H   0  0  0  0  0  0  0  0  0  0  0  0
    1.0104   -3.2230    0.5051 H   0  0  0  0  0  0  0  0  0  0  0  0
    3.3475   -3.9419    0.5471 H   0  0  0  0  0  0  0  0  0  0  0  0
    5.1440   -2.2631    0.2721 H   0  0  0  0  0  0  0  0  0  0  0  0
    6.0594   -0.4619    1.5890 H   0  0  0  0  0  0  0  0  0  0  0  0
    7.9818    1.0389    1.3299 H   0  0  0  0  0  0  0  0  0  0  0  0
    7.9898    2.7597   -0.4575 H   0  0  0  0  0  0  0  0  0  0  0  0
    6.0443    2.9365   -1.9810 H   0  0  0  0  0  0  0  0  0  0  0  0
    4.1296    1.4301   -1.7305 H   0  0  0  0  0  0  0  0  0  0  0  0
  1  2  2  0
  1  7  1  0
  1  8  1  0
  2  3  1  0
  2  4  1  0
  4  5  2  0
  4 27  1  0
  5  6  1  0
  5 11  1  0
  6  7  2  0
  6 12  1  0
  7 28  1  0
  8  9  1  0
  8 10  2  0
  9 29  1  0
  9 30  1  0
 10 31  1  0
 10 32  1  0
 11 13  1  0
 11 33  1  0
 12 13  2  0
 13 14  1  0
 14 15  2  0
 14 19  1  0
 15 16  1  0
 15 34  1  0
 16 17  2  0
 16 35  1  0
 17 18  1  0
 17 36  1  0
 18 19  2  0
 18 21  1  0
 19 20  1  0
 21 22  2  0
 21 26  1  0
 22 23  1  0
 22 37  1  0
 23 24  2  0
 23 38  1  0
 24 25  1  0
 24 39  1  0
 25 26  2  0
 25 40  1  0
 26 41  1  0
M  CHG  2  10   1  20  -1
M  END
