
     RDKit          3D

 40 42  0  0  0  0  0  0  0  0999 V2000
    5.3511   -0.6904    0.5684 F   0  0  0  0  0  0  0  0  0  0  0  0
    4.0120   -0.7598    0.4658 C   0  0  0  0  0  0  0  0  0  0  0  0
    3.4517   -1.2448   -0.6996 C   0  0  0  0  0  0  0  0  0  0  0  0
    2.0691   -1.3123   -0.7854 C   0  0  0  0  0  0  0  0  0  0  0  0
    3.2353   -0.3496    1.5301 C   0  0  0  0  0  0  0  0  0  0  0  0
    1.8526   -0.4207    1.4174 C   0  0  0  0  0  0  0  0  0  0  0  0
    1.2438   -0.8999    0.2610 C   0  0  0  0  0  0  0  0  0  0  0  0
   -0.2540   -0.9835    0.0768 C   0  0  2  0  0  0  0  0  0  0  0  0
   -0.8019    0.1723   -0.7868 C   0  0  2  0  0  0  0  0  0  0  0  0
   -0.3781    1.5389   -0.3104 C   0  0  0  0  0  0  0  0  0  0  0  0
   -0.2230    2.3724   -1.3373 O   0  0  0  0  0  0  0  0  0  0  0  0
    0.1341    3.7212   -1.0414 C   0  0  0  0  0  0  0  0  0  0  0  0
   -0.2173    1.8752    0.8346 O   0  0  0  0  0  0  0  0  0  0  0  0
   -2.3432    0.1131   -0.8349 C   0  0  1  0  0  0  0  0  0  0  0  0
   -1.0677   -1.1768    1.3571 C   0  0  0  0  0  0  0  0  0  0  0  0
   -2.5653   -1.1011    1.0649 C   0  0  2  0  0  0  0  0  0  0  0  0
   -2.9897   -2.0894   -0.0464 C   0  0  0  0  0  0  0  0  0  0  0  0
   -2.8297   -1.2669   -1.3394 C   0  0  0  0  0  0  0  0  0  0  0  0
   -2.8509    0.2268    0.5239 N   0  0  0  0  0  0  0  0  0  0  0  0
   -4.2549    0.5811    0.5761 C   0  0  0  0  0  0  0  0  0  0  0  0
    4.0770   -1.5713   -1.5205 H   0  0  0  0  0  0  0  0  0  0  0  0
    1.6231   -1.7014   -1.6932 H   0  0  0  0  0  0  0  0  0  0  0  0
    3.6967    0.0250    2.4346 H   0  0  0  0  0  0  0  0  0  0  0  0
    1.2560   -0.0952    2.2576 H   0  0  0  0  0  0  0  0  0  0  0  0
   -0.4139   -1.8778   -0.5351 H   0  0  0  0  0  0  0  0  0  0  0  0
   -0.4393    0.0440   -1.8106 H   0  0  0  0  0  0  0  0  0  0  0  0
    0.2624    4.2150   -2.0005 H   0  0  0  0  0  0  0  0  0  0  0  0
   -0.6501    4.2276   -0.4784 H   0  0  0  0  0  0  0  0  0  0  0  0
    1.0677    3.7739   -0.4817 H   0  0  0  0  0  0  0  0  0  0  0  0
   -2.7186    0.9300   -1.4557 H   0  0  0  0  0  0  0  0  0  0  0  0
   -0.8205   -2.1478    1.7934 H   0  0  0  0  0  0  0  0  0  0  0  0
   -0.8337   -0.4148    2.1006 H   0  0  0  0  0  0  0  0  0  0  0  0
   -3.1210   -1.2573    1.9921 H   0  0  0  0  0  0  0  0  0  0  0  0
   -2.3780   -2.9936   -0.0433 H   0  0  0  0  0  0  0  0  0  0  0  0
   -4.0225   -2.4109    0.0929 H   0  0  0  0  0  0  0  0  0  0  0  0
   -3.7815   -1.1596   -1.8606 H   0  0  0  0  0  0  0  0  0  0  0  0
   -2.1337   -1.7175   -2.0490 H   0  0  0  0  0  0  0  0  0  0  0  0
   -4.9281   -0.1010    0.0379 H   0  0  0  0  0  0  0  0  0  0  0  0
   -4.5827    0.6136    1.6159 H   0  0  0  0  0  0  0  0  0  0  0  0
   -4.3959    1.5780    0.1558 H   0  0  0  0  0  0  0  0  0  0  0  0
 18 17  1  0
 18 14  1  0
 17 16  1  0
 14 19  1  0
 14  9  1  0
 20 19  1  0
 19 16  1  0
 16 15  1  0
  9  8  1  0
  9 10  1  0
  8 15  1  0
  8  7  1  0
  6  7  2  0
  6  5  1  0
 10 11  1  0
 10 13  2  0
  7  4  1  0
 11 12  1  0
  5  2  2  0
  4  3  2  0
  2  3  1  0
  2  1  1  0
  3 21  1  0
  4 22  1  0
  5 23  1  0
  6 24  1  0
  8 25  1  6
  9 26  1  6
 12 27  1  0
 12 28  1  0
 12 29  1  0
 14 30  1  6
 15 31  1  0
 15 32  1  0
 16 33  1  1
 17 34  1  0
 17 35  1  0
 18 36  1  0
 18 37  1  0
 20 38  1  0
 20 39  1  0
 20 40  1  0
M  END
