
     RDKit          3D

 54 57  0  0  0  0  0  0  0  0999 V2000
   -4.7616   -2.5814   -0.5354 C   0  0  0  0  0  0  0  0  0  0  0  0
   -3.8722   -1.6481    0.0283 C   0  0  0  0  0  0  0  0  0  0  0  0
   -3.8514   -0.3905   -0.5523 C   0  0  0  0  0  0  0  0  0  0  0  0
   -4.5815    0.0148   -1.5880 N   0  0  0  0  0  0  0  0  0  0  0  0
   -5.3737   -0.9453   -2.0329 C   0  0  0  0  0  0  0  0  0  0  0  0
   -5.5044   -2.1879   -1.5765 N   0  0  0  0  0  0  0  0  0  0  0  0
   -2.9349    0.3218    0.1684 N   0  0  0  0  0  0  0  0  0  0  0  0
   -2.4517   -0.5355    1.1213 C   0  0  0  0  0  0  0  0  0  0  0  0
   -2.9861   -1.7177    1.0731 N   0  0  0  0  0  0  0  0  0  0  0  0
   -2.5138    1.6763   -0.0841 C   0  0  2  0  0  0  0  0  0  0  0  0
   -1.1594    1.6925   -0.4398 O   0  0  0  0  0  0  0  0  0  0  0  0
   -0.4588    2.7295    0.2616 C   0  0  1  0  0  0  0  0  0  0  0  0
   -1.5410    3.6202    0.8543 C   0  0  2  0  0  0  0  0  0  0  0  0
   -2.6503    2.6013    1.1272 C   0  0  1  0  0  0  0  0  0  0  0  0
   -3.9418    3.1296    1.1703 O   0  0  0  0  0  0  0  0  0  0  0  0
   -1.9422    4.5477   -0.1196 O   0  0  0  0  0  0  0  0  0  0  0  0
    0.4664    2.1252    1.3031 C   0  0  0  0  0  0  0  0  0  0  0  0
    1.4177    1.2346    0.6760 N   0  0  0  0  0  0  0  0  0  0  0  0
    2.3710    0.6711    1.6178 C   0  0  0  0  0  0  0  0  0  0  0  0
    3.2719   -0.3138    0.9383 C   0  0  0  0  0  0  0  0  0  0  0  0
   -4.8883   -3.8262   -0.0764 N   0  0  0  0  0  0  0  0  0  0  0  0
    2.9110   -1.6820    0.6962 C   0  0  0  0  0  0  0  0  0  0  0  0
    3.6779   -2.5108    0.0192 N   0  0  0  0  0  0  0  0  0  0  0  0
    4.8588   -2.1128   -0.4972 C   0  0  0  0  0  0  0  0  0  0  0  0
    5.2556   -0.7854   -0.2734 N   0  0  0  0  0  0  0  0  0  0  0  0
    4.4595    0.0624    0.4166 C   0  0  0  0  0  0  0  0  0  0  0  0
    1.7391   -2.1509    1.1446 N   0  0  0  0  0  0  0  0  0  0  0  0
    6.5057   -0.3110   -0.8512 C   0  0  0  0  0  0  0  0  0  0  0  0
    6.4245   -0.1024   -2.2192 O   0  0  0  0  0  0  0  0  0  0  0  0
    5.6378    1.0099   -2.5885 C   0  0  0  0  0  0  0  0  0  0  0  0
    5.5910   -2.8553   -1.1351 O   0  0  0  0  0  0  0  0  0  0  0  0
   -6.0020   -0.6914   -2.8803 H   0  0  0  0  0  0  0  0  0  0  0  0
   -1.7034   -0.2288    1.8378 H   0  0  0  0  0  0  0  0  0  0  0  0
   -3.1408    2.0379   -0.9058 H   0  0  0  0  0  0  0  0  0  0  0  0
    0.1474    3.2783   -0.4649 H   0  0  0  0  0  0  0  0  0  0  0  0
   -1.2024    4.1132    1.7751 H   0  0  0  0  0  0  0  0  0  0  0  0
   -2.4106    2.0565    2.0482 H   0  0  0  0  0  0  0  0  0  0  0  0
   -4.1285    3.4270    2.0663 H   0  0  0  0  0  0  0  0  0  0  0  0
   -2.8228    4.8640    0.1142 H   0  0  0  0  0  0  0  0  0  0  0  0
    1.0148    2.9419    1.7809 H   0  0  0  0  0  0  0  0  0  0  0  0
   -0.1165    1.6408    2.1063 H   0  0  0  0  0  0  0  0  0  0  0  0
    0.9224    0.4881    0.2028 H   0  0  0  0  0  0  0  0  0  0  0  0
    2.9751    1.4863    2.0237 H   0  0  0  0  0  0  0  0  0  0  0  0
    1.8872    0.2096    2.4942 H   0  0  0  0  0  0  0  0  0  0  0  0
   -4.3516   -4.1497    0.7089 H   0  0  0  0  0  0  0  0  0  0  0  0
   -5.5494   -4.4571   -0.4954 H   0  0  0  0  0  0  0  0  0  0  0  0
    4.8296    1.0729    0.5361 H   0  0  0  0  0  0  0  0  0  0  0  0
    1.2132   -1.6554    1.8433 H   0  0  0  0  0  0  0  0  0  0  0  0
    1.5530   -3.1372    1.0643 H   0  0  0  0  0  0  0  0  0  0  0  0
    6.7723    0.6062   -0.3144 H   0  0  0  0  0  0  0  0  0  0  0  0
    7.2784   -1.0559   -0.6791 H   0  0  0  0  0  0  0  0  0  0  0  0
    4.5761    0.8684   -2.3621 H   0  0  0  0  0  0  0  0  0  0  0  0
    5.9757    1.9271   -2.0939 H   0  0  0  0  0  0  0  0  0  0  0  0
    5.7390    1.1386   -3.6645 H   0  0  0  0  0  0  0  0  0  0  0  0
  5  6  1  0
  5  4  2  0
  6  1  2  0
  4  3  1  0
  1 21  1  0
  1  2  1  0
  3  2  2  0
  3  7  1  0
 15 14  1  0
  2  9  1  0
 10  7  1  0
 10 14  1  0
 10 11  1  0
 16 13  1  0
  7  8  1  0
 14 13  1  0
 11 12  1  0
 13 12  1  0
 12 17  1  0
  9  8  2  0
 17 18  1  0
 18 19  1  0
 27 22  1  0
 19 20  1  0
 22 20  1  0
 22 23  2  0
 20 26  2  0
 23 24  1  0
 26 25  1  0
 24 25  1  0
 24 31  2  0
 25 28  1  0
 28 29  1  0
 29 30  1  0
  5 32  1  0
  8 33  1  0
 10 34  1  6
 12 35  1  6
 13 36  1  1
 14 37  1  1
 15 38  1  0
 16 39  1  0
 17 40  1  0
 17 41  1  0
 18 42  1  0
 19 43  1  0
 19 44  1  0
 21 45  1  0
 21 46  1  0
 26 47  1  0
 27 48  1  0
 27 49  1  0
 28 50  1  0
 28 51  1  0
 30 52  1  0
 30 53  1  0
 30 54  1  0
M  END
