
     RDKit          3D

 27 28  0  0  0  0  0  0  0  0999 V2000
   -2.3077   -1.9704   -0.1889 O   0  0  0  0  0  0  0  0  0  0  0  0
   -0.9334   -1.9704   -0.1889 C   0  0  2  0  0  0  0  0  0  0  0  0
   -0.4466   -1.9704    1.2349 C   0  0  2  0  0  0  0  0  0  0  0  0
   -0.3351   -0.7858    1.7186 O   0  0  0  0  0  0  0  0  0  0  0  0
    0.9801   -2.4656    1.2367 C   0  0  0  0  0  0  0  0  0  0  0  0
    1.7567   -1.2571    1.2678 O   0  0  0  0  0  0  0  0  0  0  0  0
    0.7003   -0.1785    1.2776 C   0  0  1  0  0  0  0  0  0  0  0  0
    0.5252    0.3154   -0.1365 C   0  0  2  0  0  0  0  0  0  0  0  0
   -0.0770    1.6106   -0.1022 N   0  0  0  0  0  0  0  0  0  0  0  0
    0.6800    2.7737   -0.5245 C   0  0  0  0  0  0  0  0  0  0  0  0
    0.0329    4.1559   -0.4992 C   0  0  0  0  0  0  0  0  0  0  0  0
    1.7977    2.6495   -0.8979 O   0  0  0  0  0  0  0  0  0  0  0  0
   -0.4045   -0.6729   -1.0312 C   0  0  1  0  0  0  0  0  0  0  0  0
    0.2870   -1.0888   -2.0618 O   0  0  0  0  0  0  0  0  0  0  0  0
   -0.1883   -0.9037   -2.8548 H   0  0  0  0  0  0  0  0  0  0  0  0
   -0.5833   -2.8713   -0.6782 H   0  0  0  0  0  0  0  0  0  0  0  0
   -1.0737   -2.5911    1.8635 H   0  0  0  0  0  0  0  0  0  0  0  0
    1.1740   -3.0658    2.1174 H   0  0  0  0  0  0  0  0  0  0  0  0
    1.1889   -3.0296    0.3357 H   0  0  0  0  0  0  0  0  0  0  0  0
    0.9838    0.6314    1.9387 H   0  0  0  0  0  0  0  0  0  0  0  0
    1.5001    0.3948   -0.6023 H   0  0  0  0  0  0  0  0  0  0  0  0
   -1.0122    1.7187    0.2374 H   0  0  0  0  0  0  0  0  0  0  0  0
   -0.8398    4.1579   -1.1410 H   0  0  0  0  0  0  0  0  0  0  0  0
   -0.2637    4.3973    0.5143 H   0  0  0  0  0  0  0  0  0  0  0  0
    0.7430    4.8936   -0.8530 H   0  0  0  0  0  0  0  0  0  0  0  0
   -1.2623   -0.1159   -1.3883 H   0  0  0  0  0  0  0  0  0  0  0  0
   -2.6221   -2.7617   -0.5939 H   0  0  0  0  0  0  0  0  0  0  0  0
  1  2  1  0
  2  3  1  0
  2 13  1  0
  2 16  1  6
  3  4  1  0
  3  5  1  0
  3 17  1  1
  4  7  1  0
  5  6  1  0
  5 18  1  0
  5 19  1  0
  6  7  1  0
  7  8  1  0
  7 20  1  1
  8  9  1  0
  8 13  1  0
  8 21  1  6
  9 10  1  0
  9 22  1  0
 10 11  1  0
 10 12  2  0
 11 23  1  0
 11 24  1  0
 11 25  1  0
 13 14  1  0
 13 26  1  6
 15 14  1  0
  1 27  1  0
M  END
