
     RDKit          3D

 72 78  0  0  0  0  0  0  0  0999 V2000
   -6.8693   -4.4651   -0.0862 C   0  0  0  0  0  0  0  0  0  0  0  0
   -8.0943   -3.8220   -0.1691 C   0  0  0  0  0  0  0  0  0  0  0  0
    3.8370   -1.9851   -2.2676 C   0  0  0  0  0  0  0  0  0  0  0  0
   -5.6988   -3.7221   -0.1650 C   0  0  0  0  0  0  0  0  0  0  0  0
   -3.5838   -1.5559    0.6620 C   0  0  0  0  0  0  0  0  0  0  0  0
   -4.1170   -0.8867   -1.5733 C   0  0  0  0  0  0  0  0  0  0  0  0
    4.8557   -2.3873   -1.4159 C   0  0  0  0  0  0  0  0  0  0  0  0
   -8.1355   -2.4418   -0.3198 C   0  0  0  0  0  0  0  0  0  0  0  0
    3.1003   -0.8454   -1.9958 C   0  0  0  0  0  0  0  0  0  0  0  0
   -2.4314   -0.7894    0.6235 C   0  0  0  0  0  0  0  0  0  0  0  0
   -2.9574   -0.1307   -1.6259 C   0  0  0  0  0  0  0  0  0  0  0  0
    4.4016   -0.5025    0.0100 C   0  0  0  0  0  0  0  0  0  0  0  0
   -4.4586   -1.5869   -0.4207 C   0  0  0  0  0  0  0  0  0  0  0  0
   -5.7321   -2.3405   -0.3349 C   0  0  0  0  0  0  0  0  0  0  0  0
    5.1462   -1.6459   -0.2743 C   0  0  0  0  0  0  0  0  0  0  0  0
    1.1149    2.5791   -0.2045 C   0  0  0  0  0  0  0  0  0  0  0  0
   -6.9718   -1.6859   -0.4055 C   0  0  0  0  0  0  0  0  0  0  0  0
    3.3908   -0.1186   -0.8495 C   0  0  0  0  0  0  0  0  0  0  0  0
   -2.1225   -0.0610   -0.5178 C   0  0  0  0  0  0  0  0  0  0  0  0
    1.3224    1.2543   -0.4927 C   0  0  0  0  0  0  0  0  0  0  0  0
    2.4078    3.1042   -0.1031 C   0  0  0  0  0  0  0  0  0  0  0  0
    6.2168   -2.0368    0.6360 C   0  0  0  0  0  0  0  0  0  0  0  0
    0.2570    0.2376   -0.5115 C   0  0  0  0  0  0  0  0  0  0  0  0
    7.7995   -3.2593    1.6241 C   0  0  0  0  0  0  0  0  0  0  0  0
   -0.2635    3.1050   -0.0270 C   0  0  0  0  0  0  0  0  0  0  0  0
   -5.1816    2.2896    1.4416 C   0  0  0  0  0  0  0  0  0  0  0  0
   -5.6435    1.2986    2.5323 C   0  0  0  0  0  0  0  0  0  0  0  0
   -1.1999    2.2124   -0.8281 C   0  0  0  0  0  0  0  0  0  0  0  0
   -5.9698    1.8783    0.1974 C   0  0  0  0  0  0  0  0  0  0  0  0
   -6.6187    0.3602    1.8132 C   0  0  0  0  0  0  0  0  0  0  0  0
   -7.0613   -0.1838   -0.5359 C   0  0  0  0  0  0  0  0  0  0  0  0
    2.7851    4.5115    0.1853 C   0  0  1  0  0  0  0  0  0  0  0  0
    3.3256    2.1831   -0.3265 N   0  0  0  0  0  0  0  0  0  0  0  0
    6.6974   -1.2771    1.5641 N   0  0  0  0  0  0  0  0  0  0  0  0
    2.6648    1.0632   -0.5558 N   0  0  0  0  0  0  0  0  0  0  0  0
    6.8509   -3.2459    0.6252 N   0  0  0  0  0  0  0  0  0  0  0  0
    7.6537   -2.0188    2.1632 N   0  0  0  0  0  0  0  0  0  0  0  0
   -0.9842    0.7878   -0.5416 N   0  0  0  0  0  0  0  0  0  0  0  0
   -6.2329    0.4796    0.4284 N   0  0  0  0  0  0  0  0  0  0  0  0
    8.5640   -4.1538    1.9380 O   0  0  0  0  0  0  0  0  0  0  0  0
    2.1642    4.9554    1.2860 F   0  0  0  0  0  0  0  0  0  0  0  0
    4.0951    4.6541    0.3676 F   0  0  0  0  0  0  0  0  0  0  0  0
    2.4226    5.3311   -0.8111 F   0  0  0  0  0  0  0  0  0  0  0  0
   -6.8204   -5.5390    0.0381 H   0  0  0  0  0  0  0  0  0  0  0  0
   -9.0146   -4.3881   -0.1048 H   0  0  0  0  0  0  0  0  0  0  0  0
    3.6260   -2.5591   -3.1591 H   0  0  0  0  0  0  0  0  0  0  0  0
   -4.7410   -4.2250   -0.1049 H   0  0  0  0  0  0  0  0  0  0  0  0
   -3.8326   -2.0973    1.5664 H   0  0  0  0  0  0  0  0  0  0  0  0
   -4.7682   -0.9194   -2.4382 H   0  0  0  0  0  0  0  0  0  0  0  0
    5.4220   -3.2748   -1.6673 H   0  0  0  0  0  0  0  0  0  0  0  0
   -9.0944   -1.9376   -0.3605 H   0  0  0  0  0  0  0  0  0  0  0  0
    2.3251   -0.5192   -2.6755 H   0  0  0  0  0  0  0  0  0  0  0  0
   -1.7853   -0.7381    1.4902 H   0  0  0  0  0  0  0  0  0  0  0  0
   -2.7076    0.4117   -2.5295 H   0  0  0  0  0  0  0  0  0  0  0  0
    4.6042    0.0730    0.9035 H   0  0  0  0  0  0  0  0  0  0  0  0
   -0.5361    3.1031    1.0319 H   0  0  0  0  0  0  0  0  0  0  0  0
   -0.3641    4.1302   -0.3835 H   0  0  0  0  0  0  0  0  0  0  0  0
   -5.3657    3.3293    1.7120 H   0  0  0  0  0  0  0  0  0  0  0  0
   -4.1112    2.1819    1.2616 H   0  0  0  0  0  0  0  0  0  0  0  0
   -4.7933    0.7403    2.9238 H   0  0  0  0  0  0  0  0  0  0  0  0
   -6.1210    1.7977    3.3751 H   0  0  0  0  0  0  0  0  0  0  0  0
   -2.2345    2.4413   -0.5822 H   0  0  0  0  0  0  0  0  0  0  0  0
   -1.0641    2.4040   -1.8962 H   0  0  0  0  0  0  0  0  0  0  0  0
   -6.8955    2.4753    0.1175 H   0  0  0  0  0  0  0  0  0  0  0  0
   -5.4091    2.0153   -0.7306 H   0  0  0  0  0  0  0  0  0  0  0  0
   -6.5422   -0.6744    2.1554 H   0  0  0  0  0  0  0  0  0  0  0  0
   -7.6616    0.6827    1.9828 H   0  0  0  0  0  0  0  0  0  0  0  0
   -6.7263    0.1190   -1.5328 H   0  0  0  0  0  0  0  0  0  0  0  0
   -8.1214    0.1185   -0.4701 H   0  0  0  0  0  0  0  0  0  0  0  0
    6.6511   -4.0391    0.0361 H   0  0  0  0  0  0  0  0  0  0  0  0
    8.1874   -1.6376    2.9275 H   0  0  0  0  0  0  0  0  0  0  0  0
    0.4774   -0.9582   -0.4472 O   0  0  0  0  0  0  0  0  0  0  0  0
  1  2  2  0
  1  4  1  0
  2  8  1  0
  3  7  2  0
  3  9  1  0
  4 14  2  0
  5 10  2  0
  5 13  1  0
  6 11  1  0
  6 13  2  0
  7 15  1  0
  8 17  2  0
  9 18  2  0
 10 19  1  0
 11 19  2  0
 12 15  2  0
 12 18  1  0
 13 14  1  0
 14 17  1  0
 15 22  1  0
 16 20  2  0
 16 21  1  0
 16 25  1  0
 17 31  1  0
 18 35  1  0
 19 38  1  0
 20 23  1  0
 20 35  1  0
 21 32  1  0
 21 33  2  0
 22 34  2  0
 22 36  1  0
 23 38  1  0
 23 72  2  0
 24 36  1  0
 24 37  1  0
 24 40  2  0
 25 28  1  0
 26 27  1  0
 26 29  1  0
 27 30  1  0
 28 38  1  0
 29 39  1  0
 30 39  1  0
 31 39  1  0
 32 41  1  1
 32 42  1  0
 32 43  1  0
 33 35  1  0
 34 37  1  0
  1 44  1  0
  2 45  1  0
  3 46  1  0
  4 47  1  0
  5 48  1  0
  6 49  1  0
  7 50  1  0
  8 51  1  0
  9 52  1  0
 10 53  1  0
 11 54  1  0
 12 55  1  0
 25 56  1  0
 25 57  1  0
 26 58  1  0
 26 59  1  0
 27 60  1  0
 27 61  1  0
 28 62  1  0
 28 63  1  0
 29 64  1  0
 29 65  1  0
 30 66  1  0
 30 67  1  0
 31 68  1  0
 31 69  1  0
 36 70  1  0
 37 71  1  0
M  END
