
     RDKit          3D

 50 52  0  0  0  0  0  0  0  0999 V2000
    5.2224    2.4958   -0.1938 C   0  0  0  0  0  0  0  0  0  0  0  0
    3.8381    2.4348   -0.2295 C   0  0  0  0  0  0  0  0  0  0  0  0
    0.9147    2.1508    0.4020 C   0  0  0  0  0  0  0  0  0  0  0  0
    1.0368    0.0798   -0.7756 C   0  0  0  0  0  0  0  0  0  0  0  0
    5.9744    1.3387   -0.0654 C   0  0  0  0  0  0  0  0  0  0  0  0
   -0.4652    2.0974    0.3576 C   0  0  0  0  0  0  0  0  0  0  0  0
   -0.3482    0.0048   -0.8207 C   0  0  0  0  0  0  0  0  0  0  0  0
    3.9357    0.0552    0.0010 C   0  0  0  0  0  0  0  0  0  0  0  0
    1.6977    1.1454   -0.1696 C   0  0  0  0  0  0  0  0  0  0  0  0
    3.1713    1.2116   -0.1311 C   0  0  0  0  0  0  0  0  0  0  0  0
    5.3259    0.1090    0.0315 C   0  0  0  0  0  0  0  0  0  0  0  0
   -1.1090    1.0270   -0.2610 C   0  0  0  0  0  0  0  0  0  0  0  0
    6.0669   -1.1706    0.1812 C   0  0  0  0  0  0  0  0  0  0  0  0
   -5.3030    0.6665    0.1891 C   0  0  1  0  0  0  0  0  0  0  0  0
   -5.2601   -0.7686    0.7043 C   0  0  1  0  0  0  0  0  0  0  0  0
   -4.6165    0.7705   -1.1706 C   0  0  1  0  0  0  0  0  0  0  0  0
   -3.8152   -1.2702    0.7202 C   0  0  1  0  0  0  0  0  0  0  0  0
   -3.2036    0.1867   -1.0659 C   0  0  2  0  0  0  0  0  0  0  0  0
    8.1932   -2.1627    0.3560 C   0  0  0  0  0  0  0  0  0  0  0  0
   -3.7373   -2.7447    1.0547 C   0  0  0  0  0  0  0  0  0  0  0  0
    5.5321   -2.2499    0.2716 O   0  0  0  0  0  0  0  0  0  0  0  0
   -3.2152   -1.1021   -0.5558 O   0  0  0  0  0  0  0  0  0  0  0  0
   -6.6537    1.0588    0.1378 O   0  0  0  0  0  0  0  0  0  0  0  0
   -5.7527   -0.8481    2.0202 O   0  0  0  0  0  0  0  0  0  0  0  0
   -5.3652    0.0368   -2.1033 O   0  0  0  0  0  0  0  0  0  0  0  0
   -2.3841   -3.1212    1.1449 O   0  0  0  0  0  0  0  0  0  0  0  0
   -2.4616    1.0772   -0.2653 O   0  0  0  0  0  0  0  0  0  0  0  0
    7.3777   -1.0006    0.2058 O   0  0  0  0  0  0  0  0  0  0  0  0
    5.7192    3.4532   -0.2774 H   0  0  0  0  0  0  0  0  0  0  0  0
    3.2714    3.3491   -0.3545 H   0  0  0  0  0  0  0  0  0  0  0  0
    1.3851    2.9870    0.9035 H   0  0  0  0  0  0  0  0  0  0  0  0
    1.6059   -0.7160   -1.2394 H   0  0  0  0  0  0  0  0  0  0  0  0
    7.0529    1.4051   -0.0433 H   0  0  0  0  0  0  0  0  0  0  0  0
   -1.0537    2.8883    0.8050 H   0  0  0  0  0  0  0  0  0  0  0  0
   -0.8051   -0.8564   -1.2858 H   0  0  0  0  0  0  0  0  0  0  0  0
    3.4435   -0.9037    0.1010 H   0  0  0  0  0  0  0  0  0  0  0  0
   -4.7470    1.2946    0.8978 H   0  0  0  0  0  0  0  0  0  0  0  0
   -5.8459   -1.4075    0.0268 H   0  0  0  0  0  0  0  0  0  0  0  0
   -4.5362    1.8265   -1.4620 H   0  0  0  0  0  0  0  0  0  0  0  0
   -3.2579   -0.7066    1.4821 H   0  0  0  0  0  0  0  0  0  0  0  0
   -2.7494    0.1111   -2.0617 H   0  0  0  0  0  0  0  0  0  0  0  0
    7.9830   -2.6771    1.2932 H   0  0  0  0  0  0  0  0  0  0  0  0
    8.0555   -2.8546   -0.4743 H   0  0  0  0  0  0  0  0  0  0  0  0
    9.2187   -1.8063    0.3623 H   0  0  0  0  0  0  0  0  0  0  0  0
   -4.2670   -2.9123    1.9985 H   0  0  0  0  0  0  0  0  0  0  0  0
   -4.2692   -3.3155    0.2805 H   0  0  0  0  0  0  0  0  0  0  0  0
   -6.6994    2.0191    0.1694 H   0  0  0  0  0  0  0  0  0  0  0  0
   -6.6527   -0.5058    2.0177 H   0  0  0  0  0  0  0  0  0  0  0  0
   -5.0520    0.2509   -2.9875 H   0  0  0  0  0  0  0  0  0  0  0  0
   -2.3530   -4.0367    1.4359 H   0  0  0  0  0  0  0  0  0  0  0  0
  2  1  2  0
  1  5  1  0
  1 29  1  0
  2 10  1  0
  2 30  1  0
  6  3  2  0
  3  9  1  0
  3 31  1  0
  9  4  2  0
  7  4  1  0
  4 32  1  0
  5 11  2  0
  5 33  1  0
  6 12  1  0
  6 34  1  0
 12  7  2  0
  7 35  1  0
 10  8  2  0
  8 11  1  0
  8 36  1  0
  9 10  1  0
 11 13  1  0
 27 12  1  0
 28 13  1  0
 13 21  2  0
 23 14  1  0
 14 16  1  0
 14 15  1  0
 14 37  1  1
 24 15  1  0
 15 17  1  0
 15 38  1  6
 16 18  1  0
 16 25  1  0
 16 39  1  6
 17 22  1  0
 17 20  1  0
 17 40  1  1
 27 18  1  0
 18 22  1  0
 18 41  1  6
 28 19  1  0
 19 42  1  0
 19 43  1  0
 19 44  1  0
 20 26  1  0
 20 45  1  0
 20 46  1  0
 23 47  1  0
 24 48  1  0
 25 49  1  0
 26 50  1  0
M  END
