
     RDKit          3D

 34 34  0  0  0  0  0  0  0  0999 V2000
   -3.4995   -0.2059   -1.1206 O   0  0  0  0  0  0  0  0  0  0  0  0
   -2.5029   -0.0867   -0.3620 N   0  0  0  0  0  0  0  0  0  0  0  0
   -2.1205    1.2006    0.2524 C   0  0  2  0  0  0  0  0  0  0  0  0
   -0.8879    0.7796    0.9923 C   0  0  0  0  0  0  0  0  0  0  0  0
   -0.5454   -0.4914    0.7601 C   0  0  0  0  0  0  0  0  0  0  0  0
    0.6322   -1.1612    1.3721 C   0  0  0  0  0  0  0  0  0  0  0  0
    2.0375   -1.4711    0.2178 S   0  0  0  0  0  0  0  0  0  0  0  0
   -1.5137   -1.1728   -0.1831 C   0  0  2  0  0  0  0  0  0  0  0  0
   -0.9195   -1.5307   -1.5480 C   0  0  0  0  0  0  0  0  0  0  0  0
   -2.2063   -2.3844    0.4398 C   0  0  0  0  0  0  0  0  0  0  0  0
   -3.2436    1.6854    1.1671 C   0  0  0  0  0  0  0  0  0  0  0  0
   -1.8145    2.2302   -0.8387 C   0  0  0  0  0  0  0  0  0  0  0  0
   -0.3251    1.4664    1.6181 H   0  0  0  0  0  0  0  0  0  0  0  0
    1.0291   -0.5732    2.2027 H   0  0  0  0  0  0  0  0  0  0  0  0
    0.3985   -2.1685    1.7360 H   0  0  0  0  0  0  0  0  0  0  0  0
   -0.3433   -0.6949   -1.9549 H   0  0  0  0  0  0  0  0  0  0  0  0
   -0.2587   -2.3989   -1.4726 H   0  0  0  0  0  0  0  0  0  0  0  0
   -1.7422   -1.7677   -2.2302 H   0  0  0  0  0  0  0  0  0  0  0  0
   -3.0290   -2.6997   -0.2090 H   0  0  0  0  0  0  0  0  0  0  0  0
   -1.5076   -3.2222    0.5411 H   0  0  0  0  0  0  0  0  0  0  0  0
   -2.6132   -2.1384    1.4258 H   0  0  0  0  0  0  0  0  0  0  0  0
   -3.4445    0.9551    1.9570 H   0  0  0  0  0  0  0  0  0  0  0  0
   -2.9716    2.6398    1.6299 H   0  0  0  0  0  0  0  0  0  0  0  0
   -4.1562    1.8260    0.5797 H   0  0  0  0  0  0  0  0  0  0  0  0
   -2.6994    2.3618   -1.4694 H   0  0  0  0  0  0  0  0  0  0  0  0
   -1.5537    3.1933   -0.3875 H   0  0  0  0  0  0  0  0  0  0  0  0
   -0.9752    1.9015   -1.4582 H   0  0  0  0  0  0  0  0  0  0  0  0
    2.5121    0.5772   -0.1424 S   0  0  1  0  0  0  0  0  0  0  0  0
    1.8104    1.0656   -1.3499 O   0  0  0  0  0  0  0  0  0  0  0  0
    2.3615    1.3112    1.1380 O   0  0  0  0  0  0  0  0  0  0  0  0
    4.2569    0.4399   -0.5303 C   0  0  0  0  0  0  0  0  0  0  0  0
    4.3627   -0.2319   -1.3844 H   0  0  0  0  0  0  0  0  0  0  0  0
    4.5748    1.4521   -0.7921 H   0  0  0  0  0  0  0  0  0  0  0  0
    4.7769    0.0708    0.3540 H   0  0  0  0  0  0  0  0  0  0  0  0
  1  2  1  0
  2  3  1  0
  2  8  1  0
  3  4  1  0
  3 11  1  1
  3 12  1  0
  4  5  2  0
  4 13  1  0
  5  6  1  0
  5  8  1  0
  6  7  1  0
  6 14  1  0
  6 15  1  0
  8  9  1  6
  8 10  1  0
  9 16  1  0
  9 17  1  0
  9 18  1  0
 10 19  1  0
 10 20  1  0
 10 21  1  0
 11 22  1  0
 11 23  1  0
 11 24  1  0
 12 25  1  0
 12 26  1  0
 12 27  1  0
 28  7  1  1
 28 29  2  0
 28 30  2  0
 28 31  1  0
 31 32  1  0
 31 33  1  0
 31 34  1  0
M  CHG  1   1  -1
M  END
