
     RDKit          3D

 27 28  0  0  0  0  0  0  0  0999 V2000
   -3.4893   -1.9179    0.1100 O   0  0  0  0  0  0  0  0  0  0  0  0
   -3.3466   -0.6070    0.0741 C   0  0  0  0  0  0  0  0  0  0  0  0
   -4.2665    0.1738    0.0691 O   0  0  0  0  0  0  0  0  0  0  0  0
   -1.9134   -0.1739    0.0393 C   0  0  0  0  0  0  0  0  0  0  0  0
   -0.9917   -1.1011    0.0504 N   0  0  0  0  0  0  0  0  0  0  0  0
    0.2990   -0.7134    0.0168 C   0  0  0  0  0  0  0  0  0  0  0  0
    1.2620   -1.7493    0.0324 C   0  0  0  0  0  0  0  0  0  0  0  0
    2.5986   -1.4741    0.0032 C   0  0  0  0  0  0  0  0  0  0  0  0
    3.6389   -2.5512    0.0177 C   0  0  0  0  0  0  0  0  0  0  0  0
    3.0005   -0.1200   -0.0419 C   0  0  0  0  0  0  0  0  0  0  0  0
    2.1199    0.9304   -0.0606 C   0  0  0  0  0  0  0  0  0  0  0  0
    2.6983    2.3200   -0.1091 C   0  0  0  0  0  0  0  0  0  0  0  0
    0.7161    0.6502   -0.0320 C   0  0  0  0  0  0  0  0  0  0  0  0
   -0.3329    1.6166   -0.0469 C   0  0  0  0  0  0  0  0  0  0  0  0
   -0.1565    2.9380   -0.0958 O   0  0  0  0  0  0  0  0  0  0  0  0
   -1.6440    1.1938   -0.0071 C   0  0  0  0  0  0  0  0  0  0  0  0
   -4.4320   -2.1422    0.1305 H   0  0  0  0  0  0  0  0  0  0  0  0
    0.8979   -2.7689    0.0696 H   0  0  0  0  0  0  0  0  0  0  0  0
    4.2693   -2.4954   -0.8712 H   0  0  0  0  0  0  0  0  0  0  0  0
    4.2963   -2.4460    0.8821 H   0  0  0  0  0  0  0  0  0  0  0  0
    3.1916   -3.5429    0.0524 H   0  0  0  0  0  0  0  0  0  0  0  0
    4.0626    0.0958   -0.0636 H   0  0  0  0  0  0  0  0  0  0  0  0
    2.4257    2.9223    0.7611 H   0  0  0  0  0  0  0  0  0  0  0  0
    3.7854    2.2738   -0.1105 H   0  0  0  0  0  0  0  0  0  0  0  0
    2.4240    2.8590   -1.0202 H   0  0  0  0  0  0  0  0  0  0  0  0
    0.7672    3.1943   -0.1723 H   0  0  0  0  0  0  0  0  0  0  0  0
   -2.4433    1.9214   -0.0172 H   0  0  0  0  0  0  0  0  0  0  0  0
 12 11  1  0
 15 14  1  0
 11 13  1  0
 11 10  2  0
 14 13  2  0
 14 16  1  0
 13  6  1  0
 10  8  1  0
 16  4  2  0
  6  7  1  0
  6  5  2  0
  8  7  2  0
  8  9  1  0
  4  5  1  0
  4  2  1  0
  3  2  2  0
  2  1  1  0
  1 17  1  0
  7 18  1  0
  9 19  1  0
  9 20  1  0
  9 21  1  0
 10 22  1  0
 12 23  1  0
 12 24  1  0
 12 25  1  0
 15 26  1  0
 16 27  1  0
M  END
