
     RDKit          3D

 70 73  0  0  0  0  0  0  0  0999 V2000
   21.3350   44.6992   37.5223 O   0  0  0  0  0  0  0  0  0  0  0  0
   21.1799   44.2881   38.6495 C   0  0  0  0  0  0  0  0  0  0  0  0
   19.9705   44.2285   39.2067 O   0  0  0  0  0  0  0  0  0  0  0  0
   22.2807   43.8285   39.5206 C   0  0  0  0  0  0  0  0  0  0  0  0
   23.5691   44.0364   39.0077 C   0  0  0  0  0  0  0  0  0  0  0  0
   24.7044   43.6665   39.6911 C   0  0  0  0  0  0  0  0  0  0  0  0
   24.5575   43.0731   40.9438 C   0  0  0  0  0  0  0  0  0  0  0  0
   23.3095   42.8503   41.4789 C   0  0  0  0  0  0  0  0  0  0  0  0
   22.1317   43.2052   40.7893 C   0  0  0  0  0  0  0  0  0  0  0  0
   20.9166   42.9521   41.3557 N   0  0  0  0  0  0  0  0  0  0  0  0
   20.6847   42.1757   42.5049 C   0  0  0  0  0  0  0  0  0  0  0  0
   19.9233   42.6930   43.5442 C   0  0  0  0  0  0  0  0  0  0  0  0
   19.6229   41.9321   44.6675 C   0  0  0  0  0  0  0  0  0  0  0  0
   21.1491   40.8640   42.6107 C   0  0  0  0  0  0  0  0  0  0  0  0
   20.8803   40.1100   43.7361 C   0  0  0  0  0  0  0  0  0  0  0  0
   20.1096   40.6327   44.7778 C   0  0  0  0  0  0  0  0  0  0  0  0
   19.8749   39.8036   45.8142 O   0  0  0  0  0  0  0  0  0  0  0  0
   19.2608   40.2979   46.9959 C   0  0  0  0  0  0  0  0  0  0  0  0
   20.1762   41.1761   47.8344 C   0  0  0  0  0  0  0  0  0  0  0  0
   21.5470   40.5713   48.1301 C   0  0  0  0  0  0  0  0  0  0  0  0
   21.5256   39.2033   48.8104 C   0  0  0  0  0  0  0  0  0  0  0  0
   20.7783   39.1459   50.1415 C   0  0  0  0  0  0  0  0  0  0  0  0
   21.3718   40.0765   51.1788 C   0  0  0  0  0  0  0  0  0  0  0  0
   20.6756   39.8729   52.4007 O   0  0  0  0  0  0  0  0  0  0  0  0
   21.0105   40.6098   53.4721 C   0  0  0  0  0  0  0  0  0  0  0  0
   22.0130   41.5778   53.4832 C   0  0  0  0  0  0  0  0  0  0  0  0
   22.2786   42.2821   54.6491 C   0  0  0  0  0  0  0  0  0  0  0  0
   20.2879   40.3682   54.6435 C   0  0  0  0  0  0  0  0  0  0  0  0
   20.5631   41.0803   55.7929 C   0  0  0  0  0  0  0  0  0  0  0  0
   21.5670   42.0543   55.8243 C   0  0  0  0  0  0  0  0  0  0  0  0
   21.8565   42.8114   57.0542 C   0  0  0  0  0  0  0  0  0  0  0  0
   20.8398   43.1253   57.9608 C   0  0  0  0  0  0  0  0  0  0  0  0
   21.1088   43.8361   59.1151 C   0  0  0  0  0  0  0  0  0  0  0  0
   23.1536   43.2385   57.3504 C   0  0  0  0  0  0  0  0  0  0  0  0
   23.4272   43.9531   58.5031 C   0  0  0  0  0  0  0  0  0  0  0  0
   22.4053   44.2600   59.4005 C   0  0  0  0  0  0  0  0  0  0  0  0
   22.6419   45.0246   60.6464 C   0  0  0  0  0  0  0  0  0  0  0  0
   23.9122   45.3683   60.8129 O   0  0  0  0  0  0  0  0  0  0  0  0
   21.7726   45.3117   61.4355 O   0  0  0  0  0  0  0  0  0  0  0  0
   19.2985   44.5274   38.5754 H   0  0  0  0  0  0  0  0  0  0  0  0
   23.6652   44.5091   38.0397 H   0  0  0  0  0  0  0  0  0  0  0  0
   25.6839   43.8415   39.2690 H   0  0  0  0  0  0  0  0  0  0  0  0
   25.4313   42.7904   41.5172 H   0  0  0  0  0  0  0  0  0  0  0  0
   23.2350   42.4039   42.4606 H   0  0  0  0  0  0  0  0  0  0  0  0
   20.1117   43.3939   40.9453 H   0  0  0  0  0  0  0  0  0  0  0  0
   19.5539   43.7093   43.4827 H   0  0  0  0  0  0  0  0  0  0  0  0
   19.0200   42.3808   45.4447 H   0  0  0  0  0  0  0  0  0  0  0  0
   21.7246   40.4246   41.8058 H   0  0  0  0  0  0  0  0  0  0  0  0
   21.2518   39.0953   43.8074 H   0  0  0  0  0  0  0  0  0  0  0  0
   18.9775   39.4024   47.5502 H   0  0  0  0  0  0  0  0  0  0  0  0
   18.3309   40.8264   46.7614 H   0  0  0  0  0  0  0  0  0  0  0  0
   19.6390   41.3915   48.7628 H   0  0  0  0  0  0  0  0  0  0  0  0
   20.3210   42.1461   47.3528 H   0  0  0  0  0  0  0  0  0  0  0  0
   22.1077   41.2848   48.7398 H   0  0  0  0  0  0  0  0  0  0  0  0
   22.1132   40.4855   47.1992 H   0  0  0  0  0  0  0  0  0  0  0  0
   22.5580   38.8772   48.9673 H   0  0  0  0  0  0  0  0  0  0  0  0
   21.0838   38.4664   48.1350 H   0  0  0  0  0  0  0  0  0  0  0  0
   20.8135   38.1214   50.5207 H   0  0  0  0  0  0  0  0  0  0  0  0
   19.7220   39.3907   49.9988 H   0  0  0  0  0  0  0  0  0  0  0  0
   21.2754   41.1221   50.8672 H   0  0  0  0  0  0  0  0  0  0  0  0
   22.4407   39.8688   51.3115 H   0  0  0  0  0  0  0  0  0  0  0  0
   22.5923   41.8036   52.5982 H   0  0  0  0  0  0  0  0  0  0  0  0
   23.0487   43.0425   54.6200 H   0  0  0  0  0  0  0  0  0  0  0  0
   19.5129   39.6122   54.6445 H   0  0  0  0  0  0  0  0  0  0  0  0
   19.9959   40.8555   56.6876 H   0  0  0  0  0  0  0  0  0  0  0  0
   19.8192   42.8306   57.7537 H   0  0  0  0  0  0  0  0  0  0  0  0
   20.3004   44.0707   59.7948 H   0  0  0  0  0  0  0  0  0  0  0  0
   23.9700   42.9944   56.6829 H   0  0  0  0  0  0  0  0  0  0  0  0
   24.4462   44.2587   58.6961 H   0  0  0  0  0  0  0  0  0  0  0  0
   24.0127   45.8681   61.6366 H   0  0  0  0  0  0  0  0  0  0  0  0
  1  2  2  0
  2  3  1  0
  2  4  1  0
  3 40  1  0
  4  5  2  0
  4  9  1  0
  5  6  1  0
  5 41  1  0
  6  7  2  0
  6 42  1  0
  7  8  1  0
  7 43  1  0
  8  9  2  0
  8 44  1  0
  9 10  1  0
 10 11  1  0
 10 45  1  0
 11 12  2  0
 11 14  1  0
 12 13  1  0
 12 46  1  0
 13 16  2  0
 13 47  1  0
 14 15  2  0
 14 48  1  0
 15 16  1  0
 15 49  1  0
 16 17  1  0
 17 18  1  0
 18 19  1  0
 18 50  1  0
 18 51  1  0
 19 20  1  0
 19 52  1  0
 19 53  1  0
 20 21  1  0
 20 54  1  0
 20 55  1  0
 21 22  1  0
 21 56  1  0
 21 57  1  0
 22 23  1  0
 22 58  1  0
 22 59  1  0
 23 24  1  0
 23 60  1  0
 23 61  1  0
 24 25  1  0
 25 26  2  0
 25 28  1  0
 26 27  1  0
 26 62  1  0
 27 30  2  0
 27 63  1  0
 28 29  2  0
 28 64  1  0
 29 30  1  0
 29 65  1  0
 30 31  1  0
 31 32  2  0
 31 34  1  0
 32 33  1  0
 32 66  1  0
 33 36  2  0
 33 67  1  0
 34 35  2  0
 34 68  1  0
 35 36  1  0
 35 69  1  0
 36 37  1  0
 37 38  1  0
 37 39  2  0
 38 70  1  0
M  END
