
     RDKit          3D

 37 37  0  0  0  0  0  0  0  0999 V2000
    0.5922   -0.0837    0.2783 C   0  0  2  0  0  0  0  0  0  0  0  0
    0.1925   -0.2048   -1.0315 O   0  0  0  0  0  0  0  0  0  0  0  0
    2.1242   -0.0231    0.3294 C   0  0  2  0  0  0  0  0  0  0  0  0
    2.6571   -1.1538   -0.3778 O   0  0  0  0  0  0  0  0  0  0  0  0
    2.6376   -0.0424    1.7265 C   0  0  1  0  0  0  0  0  0  0  0  0
    2.2531    1.2120    2.3936 O   0  0  0  0  0  0  0  0  0  0  0  0
    2.0956   -1.1874    2.5035 C   0  0  2  0  0  0  0  0  0  0  0  0
    2.6238   -2.3905    1.9712 O   0  0  0  0  0  0  0  0  0  0  0  0
    0.5555   -1.2487    2.4461 C   0  0  2  0  0  0  0  0  0  0  0  0
    0.0498   -1.2310    1.0588 O   0  0  0  0  0  0  0  0  0  0  0  0
    0.0013   -0.0827    3.1752 C   0  0  0  0  0  0  0  0  0  0  0  0
    0.1621   -0.2720    4.5401 O   0  0  0  0  0  0  0  0  0  0  0  0
   -1.1181    0.3443   -1.2942 C   0  0  0  0  0  0  0  0  0  0  0  0
   -1.3033    0.5368   -2.8098 C   0  0  0  0  0  0  0  0  0  0  0  0
   -2.8294    0.5539   -3.1509 C   0  0  1  0  0  0  0  0  0  0  0  0
   -3.0726    1.4477   -4.3604 C   0  0  0  0  0  0  0  0  0  0  0  0
   -3.2539   -0.7391   -3.4362 O   0  0  0  0  0  0  0  0  0  0  0  0
    0.1926    0.8363    0.6881 H   0  0  0  0  0  0  0  0  0  0  0  0
    2.4525    0.8810   -0.1490 H   0  0  0  0  0  0  0  0  0  0  0  0
    3.3403   -0.8646   -0.9647 H   0  0  0  0  0  0  0  0  0  0  0  0
    3.7158   -0.1165    1.7013 H   0  0  0  0  0  0  0  0  0  0  0  0
    3.0308    1.7265    2.5727 H   0  0  0  0  0  0  0  0  0  0  0  0
    2.4056   -1.0863    3.5432 H   0  0  0  0  0  0  0  0  0  0  0  0
    3.1006   -2.8550    2.6512 H   0  0  0  0  0  0  0  0  0  0  0  0
    0.2222   -2.1625    2.9281 H   0  0  0  0  0  0  0  0  0  0  0  0
   -1.0405    0.0176    2.9491 H   0  0  0  0  0  0  0  0  0  0  0  0
    0.5252    0.8153    2.8709 H   0  0  0  0  0  0  0  0  0  0  0  0
   -0.5691    0.0797    4.9891 H   0  0  0  0  0  0  0  0  0  0  0  0
   -1.2163    1.3036   -0.7919 H   0  0  0  0  0  0  0  0  0  0  0  0
   -1.8695   -0.3315   -0.9260 H   0  0  0  0  0  0  0  0  0  0  0  0
   -0.8515    1.4788   -3.1141 H   0  0  0  0  0  0  0  0  0  0  0  0
   -0.8263   -0.2792   -3.3368 H   0  0  0  0  0  0  0  0  0  0  0  0
   -3.3858    0.9374   -2.3015 H   0  0  0  0  0  0  0  0  0  0  0  0
   -2.7772    2.4688   -4.1233 H   0  0  0  0  0  0  0  0  0  0  0  0
   -2.4855    1.0852   -5.2032 H   0  0  0  0  0  0  0  0  0  0  0  0
   -4.1953   -0.7969   -3.3248 H   0  0  0  0  0  0  0  0  0  0  0  0
   -4.1361    1.4272   -4.6208 H   0  0  0  0  0  0  0  0  0  0  0  0
 16 15  1  0
 15 14  1  0
 15 17  1  0
 14 13  1  0
 13  2  1  0
  2  1  1  0
  4  3  1  0
  1  3  1  0
  1 10  1  0
  3  5  1  0
  5  6  1  0
  5  7  1  0
 10  9  1  0
  9  7  1  0
  9 11  1  0
  7  8  1  0
 11 12  1  0
  1 18  1  1
  3 19  1  6
  4 20  1  0
  5 21  1  6
  6 22  1  0
  7 23  1  1
  8 24  1  0
  9 25  1  1
 11 26  1  0
 11 27  1  0
 12 28  1  0
 13 29  1  0
 13 30  1  0
 14 31  1  0
 14 32  1  0
 15 33  1  1
 16 34  1  0
 16 35  1  0
 17 36  1  0
 16 37  1  0
M  END
