
     RDKit          3D

 25 26  0  0  0  0  0  0  0  0999 V2000
    0.5260   -2.1272    0.3147 C   0  0  0  0  0  0  0  0  0  0  0  0
   -2.0256    1.1465    0.4630 C   0  0  0  0  0  0  0  0  0  0  0  0
   -0.7875   -2.2451   -0.4442 C   0  0  0  0  0  0  0  0  0  0  0  0
    1.0862   -0.7373    0.1770 C   0  0  0  0  0  0  0  0  0  0  0  0
   -3.3990    1.0136    0.1834 O   0  0  0  0  0  0  0  0  0  0  0  0
   -1.2431    0.1342   -0.3669 C   0  0  2  0  0  0  0  0  0  0  0  0
   -1.7226   -1.2040   -0.0667 N   0  0  0  0  0  0  0  0  0  0  0  0
    0.2547    0.3327   -0.1653 C   0  0  0  0  0  0  0  0  0  0  0  0
    2.4527   -0.5138    0.3457 C   0  0  0  0  0  0  0  0  0  0  0  0
    3.0052    0.7433    0.1677 C   0  0  0  0  0  0  0  0  0  0  0  0
    2.1863    1.8006   -0.2087 C   0  0  0  0  0  0  0  0  0  0  0  0
    0.8283    1.5872   -0.3807 C   0  0  0  0  0  0  0  0  0  0  0  0
    0.3510   -2.3621    1.3702 H   0  0  0  0  0  0  0  0  0  0  0  0
    1.2550   -2.8581   -0.0445 H   0  0  0  0  0  0  0  0  0  0  0  0
   -1.6725    2.1562    0.2314 H   0  0  0  0  0  0  0  0  0  0  0  0
   -1.8060    0.9713    1.5269 H   0  0  0  0  0  0  0  0  0  0  0  0
   -0.6056   -2.1765   -1.5210 H   0  0  0  0  0  0  0  0  0  0  0  0
   -1.2467   -3.2186   -0.2628 H   0  0  0  0  0  0  0  0  0  0  0  0
   -3.8643    1.7086    0.6574 H   0  0  0  0  0  0  0  0  0  0  0  0
   -1.4538    0.3407   -1.4260 H   0  0  0  0  0  0  0  0  0  0  0  0
   -1.9104   -1.2825    0.9270 H   0  0  0  0  0  0  0  0  0  0  0  0
    3.0925   -1.3493    0.6071 H   0  0  0  0  0  0  0  0  0  0  0  0
    4.0686    0.8945    0.3026 H   0  0  0  0  0  0  0  0  0  0  0  0
    2.6035    2.7857   -0.3746 H   0  0  0  0  0  0  0  0  0  0  0  0
    0.2068    2.4176   -0.6948 H   0  0  0  0  0  0  0  0  0  0  0  0
 10 11  2  0
 10  9  1  0
 11 12  1  0
  9  4  2  0
 12  8  2  0
  4  8  1  0
  4  1  1  0
  8  6  1  0
  1  3  1  0
  6  2  1  0
  6  7  1  0
  3  7  1  0
  2  5  1  0
  1 13  1  0
  1 14  1  0
  2 15  1  0
  2 16  1  0
  3 17  1  0
  3 18  1  0
  5 19  1  0
  6 20  1  6
  7 21  1  0
  9 22  1  0
 10 23  1  0
 11 24  1  0
 12 25  1  0
M  END
