
     RDKit          3D

103103  0  0  0  0  0  0  0  0999 V2000
    1.7238   -2.0389    3.3409 C   0  0  0  0  0  0  0  0  0  0  0  0
    1.6121   -3.5273    3.5304 C   0  0  0  0  0  0  0  0  0  0  0  0
    0.9032   -1.1828    4.0771 C   0  0  0  0  0  0  0  0  0  0  0  0
    0.0269   -1.7010    4.9701 O   0  0  0  0  0  0  0  0  0  0  0  0
    0.9913    0.1992    3.9078 C   0  0  0  0  0  0  0  0  0  0  0  0
    1.8725    0.7407    2.9824 C   0  0  0  0  0  0  0  0  0  0  0  0
    2.6913   -0.1072    2.2406 C   0  0  0  0  0  0  0  0  0  0  0  0
    3.5401    0.4739    1.3525 O   0  0  0  0  0  0  0  0  0  0  0  0
    2.6499   -1.4886    2.4441 C   0  0  0  0  0  0  0  0  0  0  0  0
    0.1656    1.0047    4.6313 O   0  0  0  0  0  0  0  0  0  0  0  0
    0.7364    1.5002    5.8363 C   0  0  0  0  0  0  0  0  0  0  0  0
    1.9403    2.0878    2.8173 O   0  0  0  0  0  0  0  0  0  0  0  0
    1.0537    2.5884    1.8273 C   0  0  0  0  0  0  0  0  0  0  0  0
    3.6079   -2.3541    1.6547 C   0  0  0  0  0  0  0  0  0  0  0  0
    3.2718   -2.3411    0.1897 C   0  0  0  0  0  0  0  0  0  0  0  0
    4.0600   -2.0155   -0.8426 C   0  0  0  0  0  0  0  0  0  0  0  0
    5.5066   -1.6324   -0.7316 C   0  0  0  0  0  0  0  0  0  0  0  0
    3.4854   -1.9952   -2.2347 C   0  0  0  0  0  0  0  0  0  0  0  0
    3.1316   -0.5736   -2.6990 C   0  0  0  0  0  0  0  0  0  0  0  0
    2.3820   -0.5836   -3.9929 C   0  0  0  0  0  0  0  0  0  0  0  0
    2.6734    0.0341   -5.1407 C   0  0  0  0  0  0  0  0  0  0  0  0
    3.8808    0.8927   -5.3724 C   0  0  0  0  0  0  0  0  0  0  0  0
    1.7130   -0.0663   -6.2972 C   0  0  0  0  0  0  0  0  0  0  0  0
    0.8502    1.1986   -6.4530 C   0  0  0  0  0  0  0  0  0  0  0  0
   -0.2368    1.0307   -7.4742 C   0  0  0  0  0  0  0  0  0  0  0  0
   -1.4587    0.5546   -7.2211 C   0  0  0  0  0  0  0  0  0  0  0  0
   -2.4947    0.4207   -8.2975 C   0  0  0  0  0  0  0  0  0  0  0  0
   -1.8946    0.1502   -5.8367 C   0  0  0  0  0  0  0  0  0  0  0  0
   -2.5741    1.2973   -5.0691 C   0  0  0  0  0  0  0  0  0  0  0  0
   -2.8372    0.9236   -3.6433 C   0  0  0  0  0  0  0  0  0  0  0  0
   -3.9859    0.5237   -3.0914 C   0  0  0  0  0  0  0  0  0  0  0  0
   -5.2782    0.3804   -3.8401 C   0  0  0  0  0  0  0  0  0  0  0  0
   -4.0350    0.1798   -1.6261 C   0  0  0  0  0  0  0  0  0  0  0  0
   -4.8705    1.1667   -0.7947 C   0  0  0  0  0  0  0  0  0  0  0  0
   -4.8479    0.8115    0.6587 C   0  0  0  0  0  0  0  0  0  0  0  0
   -4.2566    1.4694    1.6596 C   0  0  0  0  0  0  0  0  0  0  0  0
   -3.5082    2.7612    1.5032 C   0  0  0  0  0  0  0  0  0  0  0  0
   -4.2965    0.9160    3.0605 C   0  0  0  0  0  0  0  0  0  0  0  0
   -2.9393    0.3572    3.5175 C   0  0  0  0  0  0  0  0  0  0  0  0
   -2.9613   -0.0760    4.9505 C   0  0  0  0  0  0  0  0  0  0  0  0
   -3.1185   -1.3173    5.4250 C   0  0  0  0  0  0  0  0  0  0  0  0
   -3.1537   -1.5810    6.9028 C   0  0  0  0  0  0  0  0  0  0  0  0
   -3.2786   -2.5392    4.5708 C   0  0  0  0  0  0  0  0  0  0  0  0
    1.5551   -4.0497    2.5748 H   0  0  0  0  0  0  0  0  0  0  0  0
    2.4744   -3.9318    4.0648 H   0  0  0  0  0  0  0  0  0  0  0  0
    0.7243   -3.7954    4.0973 H   0  0  0  0  0  0  0  0  0  0  0  0
   -0.6938   -1.0726    5.1294 H   0  0  0  0  0  0  0  0  0  0  0  0
    3.6329   -0.1015    0.5815 H   0  0  0  0  0  0  0  0  0  0  0  0
   -0.0507    2.0301    6.3689 H   0  0  0  0  0  0  0  0  0  0  0  0
    1.1059    0.6907    6.4711 H   0  0  0  0  0  0  0  0  0  0  0  0
    1.5558    2.1936    5.6361 H   0  0  0  0  0  0  0  0  0  0  0  0
    1.1627    3.6713    1.8134 H   0  0  0  0  0  0  0  0  0  0  0  0
    1.2925    2.1980    0.8350 H   0  0  0  0  0  0  0  0  0  0  0  0
    0.0130    2.3443    2.0578 H   0  0  0  0  0  0  0  0  0  0  0  0
    4.6335   -2.0219    1.8325 H   0  0  0  0  0  0  0  0  0  0  0  0
    3.5714   -3.3811    2.0194 H   0  0  0  0  0  0  0  0  0  0  0  0
    2.2436   -2.6173   -0.0338 H   0  0  0  0  0  0  0  0  0  0  0  0
    5.8567   -1.5351    0.2943 H   0  0  0  0  0  0  0  0  0  0  0  0
    6.1296   -2.3863   -1.2187 H   0  0  0  0  0  0  0  0  0  0  0  0
    5.7092   -0.6883   -1.2419 H   0  0  0  0  0  0  0  0  0  0  0  0
    4.1941   -2.4367   -2.9418 H   0  0  0  0  0  0  0  0  0  0  0  0
    2.5832   -2.6111   -2.2687 H   0  0  0  0  0  0  0  0  0  0  0  0
    2.4955   -0.1164   -1.9317 H   0  0  0  0  0  0  0  0  0  0  0  0
    4.0325    0.0398   -2.7538 H   0  0  0  0  0  0  0  0  0  0  0  0
    1.4689   -1.1774   -3.9697 H   0  0  0  0  0  0  0  0  0  0  0  0
    4.5645    0.9135   -4.5268 H   0  0  0  0  0  0  0  0  0  0  0  0
    4.4375    0.5388   -6.2435 H   0  0  0  0  0  0  0  0  0  0  0  0
    3.5946    1.9251   -5.5876 H   0  0  0  0  0  0  0  0  0  0  0  0
    2.2541   -0.2479   -7.2315 H   0  0  0  0  0  0  0  0  0  0  0  0
    1.0485   -0.9215   -6.1505 H   0  0  0  0  0  0  0  0  0  0  0  0
    0.4273    1.4500   -5.4773 H   0  0  0  0  0  0  0  0  0  0  0  0
    1.4829    2.0435   -6.7346 H   0  0  0  0  0  0  0  0  0  0  0  0
    0.0122    1.2994   -8.4974 H   0  0  0  0  0  0  0  0  0  0  0  0
   -2.1436    0.8070   -9.2543 H   0  0  0  0  0  0  0  0  0  0  0  0
   -2.7816   -0.6244   -8.4391 H   0  0  0  0  0  0  0  0  0  0  0  0
   -3.4098    0.9579   -8.0340 H   0  0  0  0  0  0  0  0  0  0  0  0
   -2.5957   -0.6871   -5.8997 H   0  0  0  0  0  0  0  0  0  0  0  0
   -1.0464   -0.2128   -5.2511 H   0  0  0  0  0  0  0  0  0  0  0  0
   -1.9106    2.1670   -5.0866 H   0  0  0  0  0  0  0  0  0  0  0  0
   -3.4874    1.5992   -5.5852 H   0  0  0  0  0  0  0  0  0  0  0  0
   -1.9618    0.9573   -2.9977 H   0  0  0  0  0  0  0  0  0  0  0  0
   -5.1823    0.5865   -4.9045 H   0  0  0  0  0  0  0  0  0  0  0  0
   -5.6663   -0.6358   -3.7319 H   0  0  0  0  0  0  0  0  0  0  0  0
   -6.0480    1.0454   -3.4412 H   0  0  0  0  0  0  0  0  0  0  0  0
   -4.4473   -0.8276   -1.4971 H   0  0  0  0  0  0  0  0  0  0  0  0
   -3.0205    0.1553   -1.2208 H   0  0  0  0  0  0  0  0  0  0  0  0
   -4.4979    2.1777   -0.9691 H   0  0  0  0  0  0  0  0  0  0  0  0
   -5.9063    1.1541   -1.1469 H   0  0  0  0  0  0  0  0  0  0  0  0
   -5.3585   -0.1170    0.9082 H   0  0  0  0  0  0  0  0  0  0  0  0
   -3.5066    3.1386    0.4831 H   0  0  0  0  0  0  0  0  0  0  0  0
   -3.9392    3.5348    2.1435 H   0  0  0  0  0  0  0  0  0  0  0  0
   -2.4650    2.6546    1.8109 H   0  0  0  0  0  0  0  0  0  0  0  0
   -4.6086    1.7025    3.7571 H   0  0  0  0  0  0  0  0  0  0  0  0
   -5.0441    0.1219    3.1309 H   0  0  0  0  0  0  0  0  0  0  0  0
   -2.6535   -0.4602    2.8526 H   0  0  0  0  0  0  0  0  0  0  0  0
   -2.1708    1.1242    3.4050 H   0  0  0  0  0  0  0  0  0  0  0  0
   -2.8819    0.7295    5.6767 H   0  0  0  0  0  0  0  0  0  0  0  0
   -4.1119   -2.0161    7.1975 H   0  0  0  0  0  0  0  0  0  0  0  0
   -2.3853   -2.3029    7.1913 H   0  0  0  0  0  0  0  0  0  0  0  0
   -3.0012   -0.6733    7.4859 H   0  0  0  0  0  0  0  0  0  0  0  0
   -3.2326   -2.3341    3.5033 H   0  0  0  0  0  0  0  0  0  0  0  0
   -2.5062   -3.2760    4.8030 H   0  0  0  0  0  0  0  0  0  0  0  0
   -4.2385   -3.0195    4.7756 H   0  0  0  0  0  0  0  0  0  0  0  0
  1  2  1  0
  1  3  2  0
  1  9  1  0
  2 44  1  0
  2 45  1  0
  2 46  1  0
  3  4  1  0
  3  5  1  0
  4 47  1  0
  5  6  2  0
  5 10  1  0
  6  7  1  0
  6 12  1  0
  7  8  1  0
  7  9  2  0
  8 48  1  0
  9 14  1  0
 10 11  1  0
 11 49  1  0
 11 50  1  0
 11 51  1  0
 12 13  1  0
 13 52  1  0
 13 53  1  0
 13 54  1  0
 14 15  1  0
 14 55  1  0
 14 56  1  0
 15 16  2  0
 15 57  1  0
 16 17  1  0
 16 18  1  0
 17 58  1  0
 17 59  1  0
 17 60  1  0
 18 19  1  0
 18 61  1  0
 18 62  1  0
 19 20  1  0
 19 63  1  0
 19 64  1  0
 20 21  2  0
 20 65  1  0
 21 22  1  0
 21 23  1  0
 22 66  1  0
 22 67  1  0
 22 68  1  0
 23 24  1  0
 23 69  1  0
 23 70  1  0
 24 25  1  0
 24 71  1  0
 24 72  1  0
 25 26  2  0
 25 73  1  0
 26 27  1  0
 26 28  1  0
 27 74  1  0
 27 75  1  0
 27 76  1  0
 28 29  1  0
 28 77  1  0
 28 78  1  0
 29 30  1  0
 29 79  1  0
 29 80  1  0
 30 31  2  0
 30 81  1  0
 31 32  1  0
 31 33  1  0
 32 82  1  0
 32 83  1  0
 32 84  1  0
 33 34  1  0
 33 85  1  0
 33 86  1  0
 34 35  1  0
 34 87  1  0
 34 88  1  0
 35 36  2  0
 35 89  1  0
 36 37  1  0
 36 38  1  0
 37 90  1  0
 37 91  1  0
 37 92  1  0
 38 39  1  0
 38 93  1  0
 38 94  1  0
 39 40  1  0
 39 95  1  0
 39 96  1  0
 40 41  2  0
 40 97  1  0
 41 42  1  0
 41 43  1  0
 42 98  1  0
 42 99  1  0
 42100  1  0
 43101  1  0
 43102  1  0
 43103  1  0
M  END
