
     RDKit          3D

 64 68  0  0  0  0  0  0  0  0999 V2000
   -3.2513    0.7867    0.3624 C   0  0  0  0  0  0  0  0  0  0  0  0
   -1.7354   -3.0932    0.0431 C   0  0  0  0  0  0  0  0  0  0  0  0
   -1.3780   -0.7273    0.7219 C   0  0  0  0  0  0  0  0  0  0  0  0
    0.4506   -2.2089    0.9480 C   0  0  2  0  0  0  0  0  0  0  0  0
    0.8741   -3.6559    0.8891 C   0  0  0  0  0  0  0  0  0  0  0  0
    0.2693   -4.5286   -0.0104 C   0  0  0  0  0  0  0  0  0  0  0  0
   -0.8878   -4.0201   -0.8113 C   0  0  0  0  0  0  0  0  0  0  0  0
    1.9200   -4.0976    1.6927 C   0  0  0  0  0  0  0  0  0  0  0  0
    4.5101    0.2553    0.9338 C   0  0  0  0  0  0  0  0  0  0  0  0
    0.7239   -5.8403   -0.0948 C   0  0  0  0  0  0  0  0  0  0  0  0
    5.6355    0.9312    0.4956 C   0  0  0  0  0  0  0  0  0  0  0  0
   -7.8360    0.0172   -1.9193 Cl  0  0  0  0  0  0  0  0  0  0  0  0
   -6.4151    2.8424    0.5000 C   0  0  0  0  0  0  0  0  0  0  0  0
   -7.2642    2.1206   -0.3211 C   0  0  0  0  0  0  0  0  0  0  0  0
   -6.8176    0.9422   -0.8922 C   0  0  0  0  0  0  0  0  0  0  0  0
   -5.5287    0.4975   -0.6434 C   0  0  0  0  0  0  0  0  0  0  0  0
   -4.6420    1.2012    0.1633 C   0  0  0  0  0  0  0  0  0  0  0  0
   -5.1296    2.3863    0.7253 C   0  0  0  0  0  0  0  0  0  0  0  0
   -4.2852    3.1455    1.5671 N   0  0  0  0  0  0  0  0  0  0  0  0
   -3.9447    4.4373    1.4905 C   0  0  0  0  0  0  0  0  0  0  0  0
   -3.1816    4.7136    2.5118 N   0  0  0  0  0  0  0  0  0  0  0  0
   -3.0685    3.5774    3.2059 N   0  0  0  0  0  0  0  0  0  0  0  0
   -3.7211    2.6342    2.6605 N   0  0  0  0  0  0  0  0  0  0  0  0
   -2.8267   -0.4670    0.5186 C   0  0  0  0  0  0  0  0  0  0  0  0
   -0.6080    0.1737    1.0359 O   0  0  0  0  0  0  0  0  0  0  0  0
   -0.9358   -1.9967    0.5778 N   0  0  0  0  0  0  0  0  0  0  0  0
    2.3762   -5.4031    1.5946 C   0  0  0  0  0  0  0  0  0  0  0  0
    1.7775   -6.2762    0.6951 C   0  0  0  0  0  0  0  0  0  0  0  0
    1.3728   -1.4308   -0.0064 C   0  0  0  0  0  0  0  0  0  0  0  0
    1.1557   -1.3893   -1.2011 O   0  0  0  0  0  0  0  0  0  0  0  0
    3.7308    0.0040   -1.3131 C   0  0  0  0  0  0  0  0  0  0  0  0
    4.8575    0.6781   -1.7519 C   0  0  0  0  0  0  0  0  0  0  0  0
    5.8266    1.1515   -0.8684 C   0  0  0  0  0  0  0  0  0  0  0  0
    3.5431   -0.2196    0.0502 C   0  0  0  0  0  0  0  0  0  0  0  0
    2.4503   -0.8957    0.6065 N   0  0  0  0  0  0  0  0  0  0  0  0
    8.0147    2.3108   -0.7917 C   0  0  0  0  0  0  0  0  0  0  0  0
    8.8393    2.8585   -1.6843 O   0  0  0  0  0  0  0  0  0  0  0  0
    8.2323    2.2704    0.3986 O   0  0  0  0  0  0  0  0  0  0  0  0
   10.0441    3.4295   -1.1817 C   0  0  0  0  0  0  0  0  0  0  0  0
   -2.5180    1.5857    0.3789 H   0  0  0  0  0  0  0  0  0  0  0  0
   -2.5322   -2.6884   -0.5748 H   0  0  0  0  0  0  0  0  0  0  0  0
   -2.1962   -3.6616    0.8556 H   0  0  0  0  0  0  0  0  0  0  0  0
    0.6000   -1.8476    1.9710 H   0  0  0  0  0  0  0  0  0  0  0  0
   -1.5098   -4.8468   -1.1568 H   0  0  0  0  0  0  0  0  0  0  0  0
   -0.5431   -3.4851   -1.6988 H   0  0  0  0  0  0  0  0  0  0  0  0
    2.3804   -3.4222    2.4041 H   0  0  0  0  0  0  0  0  0  0  0  0
    4.3880    0.0943    1.9987 H   0  0  0  0  0  0  0  0  0  0  0  0
    0.2446   -6.5254   -0.7838 H   0  0  0  0  0  0  0  0  0  0  0  0
    6.3487    1.2759    1.2260 H   0  0  0  0  0  0  0  0  0  0  0  0
   -6.7629    3.7508    0.9721 H   0  0  0  0  0  0  0  0  0  0  0  0
   -8.2716    2.4659   -0.5044 H   0  0  0  0  0  0  0  0  0  0  0  0
   -4.2527    5.1043    0.7024 H   0  0  0  0  0  0  0  0  0  0  0  0
   -3.5231   -1.2916    0.5594 H   0  0  0  0  0  0  0  0  0  0  0  0
    3.1902   -5.7395    2.2231 H   0  0  0  0  0  0  0  0  0  0  0  0
    2.1230   -7.2988    0.6180 H   0  0  0  0  0  0  0  0  0  0  0  0
    3.0142   -0.3380   -2.0413 H   0  0  0  0  0  0  0  0  0  0  0  0
    4.9802    0.8384   -2.8167 H   0  0  0  0  0  0  0  0  0  0  0  0
    2.4551   -0.9395    1.6141 H   0  0  0  0  0  0  0  0  0  0  0  0
    6.8999    1.9268   -2.4283 H   0  0  0  0  0  0  0  0  0  0  0  0
   10.5702    3.8189   -2.0482 H   0  0  0  0  0  0  0  0  0  0  0  0
    9.8431    4.2454   -0.4878 H   0  0  0  0  0  0  0  0  0  0  0  0
   10.6678    2.6832   -0.6901 H   0  0  0  0  0  0  0  0  0  0  0  0
   -5.1286   -0.6218   -1.2373 F   0  0  0  0  0  0  0  0  0  0  0  0
    6.9201    1.8199   -1.4247 N   0  0  0  0  0  0  0  0  0  0  0  0
 21 20  2  0
 21 22  1  0
 20 19  1  0
 22 23  2  0
 19 23  1  0
 19 18  1  0
  7  2  1  0
  7  6  1  0
 13 18  2  0
 13 14  1  0
 18 17  1  0
  2 26  1  0
 10  6  1  0
 10 28  2  0
  6  5  2  0
 14 15  2  0
 17  1  1  0
 17 16  2  0
 30 29  2  0
  1 24  2  0
 28 27  1  0
 26  3  1  0
 26  4  1  0
 24  3  1  0
 15 16  1  0
 15 12  1  0
 16 63  1  0
  5  4  1  0
  5  8  1  0
  3 25  2  0
 29  4  1  0
 29 35  1  0
 27  8  2  0
  9 11  2  0
  9 34  1  0
 38 36  2  0
 11 33  1  0
 35 34  1  0
 34 31  2  0
 39 37  1  0
 36 37  1  0
 36 64  1  0
 33 64  1  0
 33 32  2  0
 31 32  1  0
  1 40  1  0
  2 41  1  0
  2 42  1  0
  4 43  1  1
  7 44  1  0
  7 45  1  0
  8 46  1  0
  9 47  1  0
 10 48  1  0
 11 49  1  0
 13 50  1  0
 14 51  1  0
 20 52  1  0
 24 53  1  0
 27 54  1  0
 28 55  1  0
 31 56  1  0
 32 57  1  0
 35 58  1  0
 64 59  1  0
 39 60  1  0
 39 61  1  0
 39 62  1  0
M  END
