
     RDKit          3D

 40 44  0  0  0  0  0  0  0  0999 V2000
   -6.3185   -0.2883    0.3614 O   0  0  0  0  0  0  0  0  0  0  0  0
   -5.1289   -0.0197    0.2533 C   0  0  0  0  0  0  0  0  0  0  0  0
   -4.0786   -1.0335    0.2220 C   0  0  0  0  0  0  0  0  0  0  0  0
   -2.7572   -0.7524    0.1046 C   0  0  0  0  0  0  0  0  0  0  0  0
   -1.7380   -1.8185    0.1453 C   0  0  0  0  0  0  0  0  0  0  0  0
   -0.6977   -1.7548    1.0715 C   0  0  0  0  0  0  0  0  0  0  0  0
    0.2667   -2.7486    1.1090 C   0  0  0  0  0  0  0  0  0  0  0  0
    0.2086   -3.8102    0.2144 C   0  0  0  0  0  0  0  0  0  0  0  0
   -0.8264   -3.8806   -0.7077 C   0  0  0  0  0  0  0  0  0  0  0  0
   -1.8005   -2.8917   -0.7389 C   0  0  0  0  0  0  0  0  0  0  0  0
   -2.3907    0.6229   -0.0375 C   0  0  0  0  0  0  0  0  0  0  0  0
   -1.2198    1.3538   -0.2321 C   0  0  0  0  0  0  0  0  0  0  0  0
   -1.5979    2.6402   -0.2338 N   0  0  0  0  0  0  0  0  0  0  0  0
   -2.9120    2.8321   -0.0840 N   0  0  0  0  0  0  0  0  0  0  0  0
   -3.3908    1.6130    0.0268 C   0  0  0  0  0  0  0  0  0  0  0  0
   -4.7046    1.2850    0.1776 N   0  0  0  0  0  0  0  0  0  0  0  0
    0.1511    0.9376   -0.4331 C   0  0  0  0  0  0  0  0  0  0  0  0
    1.4653    1.5901    0.4677 S   0  0  0  0  0  0  0  0  0  0  0  0
    2.5460    0.5428   -0.3844 C   0  0  0  0  0  0  0  0  0  0  0  0
    1.9588   -0.2282   -1.2503 N   0  0  0  0  0  0  0  0  0  0  0  0
    0.6238   -0.0163   -1.2862 C   0  0  0  0  0  0  0  0  0  0  0  0
    3.9823    0.5272   -0.1303 C   0  0  0  0  0  0  0  0  0  0  0  0
    4.7746   -0.4981   -0.6452 C   0  0  0  0  0  0  0  0  0  0  0  0
    6.1318   -0.4871   -0.3853 C   0  0  0  0  0  0  0  0  0  0  0  0
    6.6547    0.5443    0.3829 C   0  0  0  0  0  0  0  0  0  0  0  0
    5.9122    1.5290    0.8754 N   0  0  0  0  0  0  0  0  0  0  0  0
    4.6138    1.5183    0.6203 C   0  0  0  0  0  0  0  0  0  0  0  0
   -4.4098   -2.0564    0.3444 H   0  0  0  0  0  0  0  0  0  0  0  0
   -0.6486   -0.9313    1.7729 H   0  0  0  0  0  0  0  0  0  0  0  0
    1.0669   -2.6926    1.8350 H   0  0  0  0  0  0  0  0  0  0  0  0
    0.9684   -4.5803    0.2369 H   0  0  0  0  0  0  0  0  0  0  0  0
   -0.8761   -4.7045   -1.4071 H   0  0  0  0  0  0  0  0  0  0  0  0
   -2.5984   -2.9417   -1.4692 H   0  0  0  0  0  0  0  0  0  0  0  0
   -1.0034    3.4392   -0.3976 H   0  0  0  0  0  0  0  0  0  0  0  0
   -5.4011    2.0173    0.2153 H   0  0  0  0  0  0  0  0  0  0  0  0
    0.0019   -0.5852   -1.9625 H   0  0  0  0  0  0  0  0  0  0  0  0
    4.3279   -1.2908   -1.2300 H   0  0  0  0  0  0  0  0  0  0  0  0
    6.7777   -1.2658   -0.7658 H   0  0  0  0  0  0  0  0  0  0  0  0
    7.7142    0.5756    0.6089 H   0  0  0  0  0  0  0  0  0  0  0  0
    4.0457    2.3492    1.0288 H   0  0  0  0  0  0  0  0  0  0  0  0
  1  2  2  0
  8  7  1  0
  8  9  2  0
  7  6  2  0
  3  2  1  0
  3  4  2  0
  9 10  1  0
  6  5  1  0
  2 16  1  0
 10  5  2  0
  5  4  1  0
  4 11  1  0
 16 15  1  0
 11 15  1  0
 11 12  2  0
 15 14  2  0
 12 17  1  0
 12 13  1  0
 14 13  1  0
 17 21  2  0
 17 18  1  0
 21 20  1  0
 20 19  2  0
 18 19  1  0
 19 22  1  0
 23 22  2  0
 23 24  1  0
 22 27  1  0
 24 25  2  0
 27 26  2  0
 25 26  1  0
  3 28  1  0
  6 29  1  0
  7 30  1  0
  8 31  1  0
  9 32  1  0
 10 33  1  0
 13 34  1  0
 16 35  1  0
 21 36  1  0
 23 37  1  0
 24 38  1  0
 25 39  1  0
 27 40  1  0
M  END
