
     RDKit          3D

 43 45  0  0  0  0  0  0  0  0999 V2000
   -0.4367    1.7635    1.1175 C   0  0  0  0  0  0  0  0  0  0  0  0
    0.2522    1.6531   -0.0872 C   0  0  0  0  0  0  0  0  0  0  0  0
   -0.4288    1.5126   -1.2845 C   0  0  0  0  0  0  0  0  0  0  0  0
   -1.8120    1.4649   -1.2886 C   0  0  0  0  0  0  0  0  0  0  0  0
    3.7140    0.6618   -0.2356 C   0  0  0  0  0  0  0  0  0  0  0  0
    2.3297    0.5556   -0.1101 C   0  0  0  0  0  0  0  0  0  0  0  0
    1.7578   -0.7067   -0.0296 C   0  0  0  0  0  0  0  0  0  0  0  0
    2.5514   -1.8428   -0.0737 C   0  0  0  0  0  0  0  0  0  0  0  0
    3.9234   -1.7147   -0.2001 C   0  0  0  0  0  0  0  0  0  0  0  0
    4.5161   -0.4644   -0.2805 C   0  0  0  0  0  0  0  0  0  0  0  0
   -6.1126   -2.3837    0.2770 C   0  0  0  0  0  0  0  0  0  0  0  0
   -4.5920   -2.3780    0.3892 C   0  0  0  0  0  0  0  0  0  0  0  0
   -6.0528    0.0127   -0.4927 C   0  0  0  0  0  0  0  0  0  0  0  0
    0.1871    1.9059    2.3007 O   0  0  0  0  0  0  0  0  0  0  0  0
   -1.8280    1.7160    1.0970 C   0  0  0  0  0  0  0  0  0  0  0  0
   -2.5259    1.5558   -0.0928 C   0  0  0  0  0  0  0  0  0  0  0  0
   -4.5283    0.0286   -0.3850 C   0  0  2  0  0  0  0  0  0  0  0  0
   -6.5892   -1.3874   -0.7747 C   0  0  0  0  0  0  0  0  0  0  0  0
   -4.0576   -0.9756    0.6655 C   0  0  0  0  0  0  0  0  0  0  0  0
    1.6305    1.7163   -0.0606 O   0  0  0  0  0  0  0  0  0  0  0  0
    4.9198   -3.1283   -0.2596 Cl  0  0  0  0  0  0  0  0  0  0  0  0
    0.1302    1.4380   -2.2094 H   0  0  0  0  0  0  0  0  0  0  0  0
   -2.3400    1.3527   -2.2275 H   0  0  0  0  0  0  0  0  0  0  0  0
    0.6866   -0.8205    0.0682 H   0  0  0  0  0  0  0  0  0  0  0  0
    2.0911   -2.8185   -0.0061 H   0  0  0  0  0  0  0  0  0  0  0  0
    5.5878   -0.3614   -0.3777 H   0  0  0  0  0  0  0  0  0  0  0  0
   -6.4733   -3.3879    0.0404 H   0  0  0  0  0  0  0  0  0  0  0  0
   -6.5466   -2.1170    1.2474 H   0  0  0  0  0  0  0  0  0  0  0  0
   -4.2660   -3.0643    1.1748 H   0  0  0  0  0  0  0  0  0  0  0  0
   -4.1575   -2.7495   -0.5457 H   0  0  0  0  0  0  0  0  0  0  0  0
   -6.4835    0.3823    0.4462 H   0  0  0  0  0  0  0  0  0  0  0  0
   -6.3757    0.7065   -1.2746 H   0  0  0  0  0  0  0  0  0  0  0  0
    1.1322    2.0534    2.1763 H   0  0  0  0  0  0  0  0  0  0  0  0
   -2.3666    1.8012    2.0339 H   0  0  0  0  0  0  0  0  0  0  0  0
   -6.2496   -1.7132   -1.7642 H   0  0  0  0  0  0  0  0  0  0  0  0
   -7.6813   -1.3702   -0.8130 H   0  0  0  0  0  0  0  0  0  0  0  0
   -4.3959   -0.6416    1.6549 H   0  0  0  0  0  0  0  0  0  0  0  0
   -4.1203   -0.2828   -1.3570 H   0  0  0  0  0  0  0  0  0  0  0  0
   -2.9657   -0.9955    0.7065 H   0  0  0  0  0  0  0  0  0  0  0  0
   -4.0250    1.4489   -0.0963 C   0  0  0  0  0  0  0  0  0  0  0  0
    4.4314    2.2267   -0.3297 Cl  0  0  0  0  0  0  0  0  0  0  0  0
   -4.4233    1.7804    0.8673 H   0  0  0  0  0  0  0  0  0  0  0  0
   -4.4358    2.1246   -0.8526 H   0  0  0  0  0  0  0  0  0  0  0  0
 18 11  1  0
 18 13  1  0
 11 12  1  0
 12 19  1  0
 13 17  1  0
 17 19  1  0
 17 40  1  0
 40 16  1  0
  4  3  2  0
  4 16  1  0
  3  2  1  0
 16 15  2  0
  8  7  2  0
  8  9  1  0
  7  6  1  0
 21  9  1  0
  9 10  2  0
  2 20  1  0
  2  1  2  0
 15  1  1  0
  6 20  1  0
  6  5  2  0
  1 14  1  0
 10  5  1  0
  5 41  1  0
  3 22  1  0
  4 23  1  0
  7 24  1  0
  8 25  1  0
 10 26  1  0
 11 27  1  0
 11 28  1  0
 12 29  1  0
 12 30  1  0
 40 42  1  0
 40 43  1  0
 13 31  1  0
 13 32  1  0
 14 33  1  0
 15 34  1  0
 18 35  1  0
 18 36  1  0
 19 37  1  0
 17 38  1  6
 19 39  1  0
M  END
