
     RDKit          3D

 25 27  0  0  0  0  0  0  0  0999 V2000
    3.6497    1.0424    0.0281 C   0  0  0  0  0  0  0  0  0  0  0  0
    4.3242   -0.1630    0.0506 C   0  0  0  0  0  0  0  0  0  0  0  0
    3.6269   -1.3795    0.0534 C   0  0  0  0  0  0  0  0  0  0  0  0
    2.2449   -1.4205    0.0332 C   0  0  0  0  0  0  0  0  0  0  0  0
    1.5344   -0.2146    0.0100 C   0  0  0  0  0  0  0  0  0  0  0  0
    2.2599    0.9917    0.0080 C   0  0  0  0  0  0  0  0  0  0  0  0
    1.3496    2.0185   -0.0167 N   0  0  0  0  0  0  0  0  0  0  0  0
    0.0988    1.5295   -0.0289 C   0  0  0  0  0  0  0  0  0  0  0  0
    0.1352    0.1458   -0.0128 C   0  0  0  0  0  0  0  0  0  0  0  0
   -0.9602   -0.8062   -0.0228 C   0  0  0  0  0  0  0  0  0  0  0  0
   -0.7485   -2.0136   -0.0366 O   0  0  0  0  0  0  0  0  0  0  0  0
   -2.3633   -0.3750   -0.0144 C   0  0  0  0  0  0  0  0  0  0  0  0
   -2.7017    0.9334    0.0186 O   0  0  0  0  0  0  0  0  0  0  0  0
   -4.0402    1.0112    0.0220 C   0  0  0  0  0  0  0  0  0  0  0  0
   -4.5869   -0.2308   -0.0080 C   0  0  0  0  0  0  0  0  0  0  0  0
   -3.4946   -1.1359   -0.0312 C   0  0  0  0  0  0  0  0  0  0  0  0
    4.1798    1.9860    0.0253 H   0  0  0  0  0  0  0  0  0  0  0  0
    5.4060   -0.1683    0.0658 H   0  0  0  0  0  0  0  0  0  0  0  0
    4.1856   -2.3064    0.0718 H   0  0  0  0  0  0  0  0  0  0  0  0
    1.7286   -2.3688    0.0352 H   0  0  0  0  0  0  0  0  0  0  0  0
    1.5758    3.0004   -0.0265 H   0  0  0  0  0  0  0  0  0  0  0  0
   -0.7348    2.2091   -0.0516 H   0  0  0  0  0  0  0  0  0  0  0  0
   -4.4676    2.0005    0.0467 H   0  0  0  0  0  0  0  0  0  0  0  0
   -5.6380   -0.4674   -0.0117 H   0  0  0  0  0  0  0  0  0  0  0  0
   -3.5408   -2.2121   -0.0576 H   0  0  0  0  0  0  0  0  0  0  0  0
  7  8  1  0
  7  6  1  0
  8  9  2  0
 15 16  1  0
 15 14  2  0
 16 12  2  0
  6  1  2  0
  6  5  1  0
  1  2  1  0
  9  5  1  0
  9 10  1  0
 14 13  1  0
  5  4  2  0
  2  3  2  0
 12 10  1  0
 12 13  1  0
 10 11  2  0
  4  3  1  0
  1 17  1  0
  2 18  1  0
  3 19  1  0
  4 20  1  0
  7 21  1  0
  8 22  1  0
 14 23  1  0
 15 24  1  0
 16 25  1  0
M  END
