
     RDKit          3D

 71 75  0  0  0  0  0  0  0  0999 V2000
    2.5830    1.0067   -2.5393 C   0  0  0  0  0  0  0  0  0  0  0  0
    1.1174    1.1440   -0.1881 C   0  0  0  0  0  0  0  0  0  0  0  0
   -0.3186    2.9875   -1.1934 C   0  0  0  0  0  0  0  0  0  0  0  0
   -4.1556    4.3402    1.4034 C   0  0  0  0  0  0  0  0  0  0  0  0
   -3.3568    3.0895    0.9687 C   0  0  2  0  0  0  0  0  0  0  0  0
   -3.7974    0.7131    0.6025 C   0  0  0  0  0  0  0  0  0  0  0  0
   -4.7921   -0.3265    0.2106 C   0  0  0  0  0  0  0  0  0  0  0  0
   -5.5106   -2.6014    0.3381 C   0  0  0  0  0  0  0  0  0  0  0  0
    6.8687    3.1869    2.2521 C   0  0  0  0  0  0  0  0  0  0  0  0
    6.2031    2.3851    1.1417 C   0  0  0  0  0  0  0  0  0  0  0  0
    6.0087    0.9417    1.5541 C   0  0  0  0  0  0  0  0  0  0  0  0
    5.1022   -1.0550    0.6284 C   0  0  0  0  0  0  0  0  0  0  0  0
    4.3874   -1.6325   -0.4291 C   0  0  0  0  0  0  0  0  0  0  0  0
    4.0102   -0.8116   -1.6256 C   0  0  0  0  0  0  0  0  0  0  0  0
    2.9026    0.1620   -1.4758 C   0  0  0  0  0  0  0  0  0  0  0  0
    1.5470    1.9126   -2.4230 C   0  0  0  0  0  0  0  0  0  0  0  0
    0.7954    1.9842   -1.2506 C   0  0  0  0  0  0  0  0  0  0  0  0
    2.1627    0.2425   -0.2995 C   0  0  0  0  0  0  0  0  0  0  0  0
   -2.4151    3.6254   -0.1131 C   0  0  1  0  0  0  0  0  0  0  0  0
   -2.1720    5.0491    0.3922 C   0  0  0  0  0  0  0  0  0  0  0  0
   -4.5886   -1.6109    0.6780 C   0  0  0  0  0  0  0  0  0  0  0  0
   -6.6095   -2.2903   -0.4826 C   0  0  0  0  0  0  0  0  0  0  0  0
   -5.6653   -3.9878    0.6149 C   0  0  0  0  0  0  0  0  0  0  0  0
   -6.8154   -0.9998   -0.9825 C   0  0  0  0  0  0  0  0  0  0  0  0
   -5.9012   -0.0398   -0.6233 C   0  0  0  0  0  0  0  0  0  0  0  0
    4.0755   -2.9697   -0.3793 C   0  0  0  0  0  0  0  0  0  0  0  0
    4.4261   -3.7874    0.6960 C   0  0  0  0  0  0  0  0  0  0  0  0
    4.3867   -5.9233    1.7018 C   0  0  0  0  0  0  0  0  0  0  0  0
    5.1259   -3.1962    1.7357 C   0  0  0  0  0  0  0  0  0  0  0  0
    5.4626   -1.8436    1.7089 C   0  0  0  0  0  0  0  0  0  0  0  0
    3.3859   -3.5094   -1.3924 F   0  0  0  0  0  0  0  0  0  0  0  0
   -1.2478    2.7865   -0.2487 N   0  0  0  0  0  0  0  0  0  0  0  0
   -3.4836    5.5066    0.8267 N   0  0  0  0  0  0  0  0  0  0  0  0
   -4.2038    1.9930    0.5621 N   0  0  0  0  0  0  0  0  0  0  0  0
   -7.2985   -3.4410   -0.6291 N   0  0  0  0  0  0  0  0  0  0  0  0
   -6.7345   -4.4591    0.0284 N   0  0  0  0  0  0  0  0  0  0  0  0
    4.5932   -0.9633   -2.6746 O   0  0  0  0  0  0  0  0  0  0  0  0
   -0.3578    3.9251   -1.9781 O   0  0  0  0  0  0  0  0  0  0  0  0
   -2.6656    0.3992    0.9654 O   0  0  0  0  0  0  0  0  0  0  0  0
    4.0489   -5.0759    0.6210 O   0  0  0  0  0  0  0  0  0  0  0  0
    3.1502    0.9602   -3.4592 H   0  0  0  0  0  0  0  0  0  0  0  0
    0.5817    1.1892    0.7510 H   0  0  0  0  0  0  0  0  0  0  0  0
   -5.1928    4.2946    1.0674 H   0  0  0  0  0  0  0  0  0  0  0  0
   -4.1758    4.4001    2.4929 H   0  0  0  0  0  0  0  0  0  0  0  0
   -2.7504    2.7461    1.8114 H   0  0  0  0  0  0  0  0  0  0  0  0
    6.2456    3.2241    3.1468 H   0  0  0  0  0  0  0  0  0  0  0  0
    7.8300    2.7545    2.5340 H   0  0  0  0  0  0  0  0  0  0  0  0
    7.0495    4.2130    1.9339 H   0  0  0  0  0  0  0  0  0  0  0  0
    5.2353    2.8265    0.8918 H   0  0  0  0  0  0  0  0  0  0  0  0
    6.8162    2.4229    0.2379 H   0  0  0  0  0  0  0  0  0  0  0  0
    6.9764    0.4824    1.7869 H   0  0  0  0  0  0  0  0  0  0  0  0
    5.3864    0.8799    2.4548 H   0  0  0  0  0  0  0  0  0  0  0  0
    1.3130    2.5678   -3.2508 H   0  0  0  0  0  0  0  0  0  0  0  0
    2.3895   -0.4024    0.5392 H   0  0  0  0  0  0  0  0  0  0  0  0
   -2.9539    3.6804   -1.0669 H   0  0  0  0  0  0  0  0  0  0  0  0
   -1.4767    5.0235    1.2379 H   0  0  0  0  0  0  0  0  0  0  0  0
   -1.7565    5.7107   -0.3652 H   0  0  0  0  0  0  0  0  0  0  0  0
   -3.7372   -1.8418    1.3046 H   0  0  0  0  0  0  0  0  0  0  0  0
   -5.0359   -4.6274    1.2145 H   0  0  0  0  0  0  0  0  0  0  0  0
   -7.6495   -0.7645   -1.6293 H   0  0  0  0  0  0  0  0  0  0  0  0
   -6.0360    0.9557   -1.0266 H   0  0  0  0  0  0  0  0  0  0  0  0
    3.9987   -6.9077    1.4536 H   0  0  0  0  0  0  0  0  0  0  0  0
    5.4684   -5.9952    1.8410 H   0  0  0  0  0  0  0  0  0  0  0  0
    3.9309   -5.5904    2.6379 H   0  0  0  0  0  0  0  0  0  0  0  0
    5.4289   -3.7778    2.5956 H   0  0  0  0  0  0  0  0  0  0  0  0
    6.0110   -1.4367    2.5466 H   0  0  0  0  0  0  0  0  0  0  0  0
   -1.2587    1.9195    0.2687 H   0  0  0  0  0  0  0  0  0  0  0  0
   -4.0018    5.8124    0.0137 H   0  0  0  0  0  0  0  0  0  0  0  0
   -5.1457    2.2114    0.2807 H   0  0  0  0  0  0  0  0  0  0  0  0
   -8.1463   -3.5926   -1.1510 H   0  0  0  0  0  0  0  0  0  0  0  0
    5.3811    0.2513    0.4829 O   0  0  0  0  0  0  0  0  0  0  0  0
 35 36  1  0
 35 22  1  0
 36 23  2  0
 24 22  2  0
 24 25  1  0
 22  8  1  0
 23  8  1  0
 25  7  2  0
  8 21  2  0
  7 21  1  0
  7  6  1  0
  6 39  2  0
  6 34  1  0
 34  5  1  0
  5  4  1  0
  5 19  1  0
  4 33  1  0
 28 40  1  0
 19 32  1  0
 19 20  1  0
 33 20  1  0
 40 27  1  0
 32  3  1  0
 27 29  2  0
 27 26  1  0
  3 38  2  0
  3 17  1  0
 31 26  1  0
 29 30  1  0
 16 17  1  0
 16  1  2  0
 26 13  2  0
 17  2  2  0
  1 15  1  0
 30 12  2  0
  2 18  1  0
 13 12  1  0
 13 14  1  0
 15 18  2  0
 15 14  1  0
 12 71  1  0
 14 37  2  0
 71 11  1  0
 11 10  1  0
 10  9  1  0
  1 41  1  0
  2 42  1  0
  4 43  1  0
  4 44  1  0
  5 45  1  1
  9 46  1  0
  9 47  1  0
  9 48  1  0
 10 49  1  0
 10 50  1  0
 11 51  1  0
 11 52  1  0
 16 53  1  0
 18 54  1  0
 19 55  1  6
 20 56  1  0
 20 57  1  0
 21 58  1  0
 23 59  1  0
 24 60  1  0
 25 61  1  0
 28 62  1  0
 28 63  1  0
 28 64  1  0
 29 65  1  0
 30 66  1  0
 32 67  1  0
 33 68  1  0
 34 69  1  0
 35 70  1  0
M  END
