
     RDKit          3D

 58 61  0  0  0  0  0  0  0  0999 V2000
    1.9600   -1.1298   -0.1139 C   0  0  0  0  0  0  0  0  0  0  0  0
    1.9424    0.2769   -0.1448 C   0  0  0  0  0  0  0  0  0  0  0  0
    0.7694    0.8933    0.2635 C   0  0  0  0  0  0  0  0  0  0  0  0
   -0.3101    0.1927    0.6589 N   0  0  0  0  0  0  0  0  0  0  0  0
    0.8740   -1.8184    0.2722 N   0  0  0  0  0  0  0  0  0  0  0  0
    4.2695   -1.2721   -0.9770 C   0  0  0  0  0  0  0  0  0  0  0  0
    5.4841   -1.9490   -0.3653 C   0  0  0  0  0  0  0  0  0  0  0  0
    5.4429   -3.3806   -0.5709 N   0  0  0  0  0  0  0  0  0  0  0  0
    6.6294   -4.0281   -0.0599 C   0  0  0  0  0  0  0  0  0  0  0  0
    4.2373   -3.9321    0.0115 C   0  0  0  0  0  0  0  0  0  0  0  0
    3.0025   -3.2978   -0.5993 C   0  0  0  0  0  0  0  0  0  0  0  0
    3.0480   -1.8530   -0.4571 N   0  0  0  0  0  0  0  0  0  0  0  0
    0.5789    2.2394    0.3081 N   0  0  0  0  0  0  0  0  0  0  0  0
    1.4449    3.2736    0.0102 C   0  0  0  0  0  0  0  0  0  0  0  0
    1.1204    4.6401    0.1407 C   0  0  0  0  0  0  0  0  0  0  0  0
    2.2596    5.3034   -0.2594 C   0  0  0  0  0  0  0  0  0  0  0  0
    2.5738    6.7548   -0.3231 C   0  0  0  0  0  0  0  0  0  0  0  0
    3.1440    4.3495   -0.5877 N   0  0  0  0  0  0  0  0  0  0  0  0
    2.6741    3.1048   -0.4346 N   0  0  0  0  0  0  0  0  0  0  0  0
   -0.1711   -1.1076    0.6255 C   0  0  0  0  0  0  0  0  0  0  0  0
   -1.2177   -1.8694    1.0057 O   0  0  0  0  0  0  0  0  0  0  0  0
   -2.4222   -1.2632    1.2834 C   0  0  0  0  0  0  0  0  0  0  0  0
   -3.2612   -0.9450    0.2267 C   0  0  0  0  0  0  0  0  0  0  0  0
   -2.7827   -1.0585    2.6017 C   0  0  0  0  0  0  0  0  0  0  0  0
   -4.0353   -0.5166    2.8609 C   0  0  0  0  0  0  0  0  0  0  0  0
   -4.8918   -0.1844    1.8283 C   0  0  0  0  0  0  0  0  0  0  0  0
   -4.5133   -0.3959    0.4983 C   0  0  0  0  0  0  0  0  0  0  0  0
   -5.4367   -0.0348   -0.4831 N   0  0  0  0  0  0  0  0  0  0  0  0
   -5.3367   -0.1245   -1.8360 C   0  0  0  0  0  0  0  0  0  0  0  0
   -4.3622   -0.5663   -2.4214 O   0  0  0  0  0  0  0  0  0  0  0  0
   -6.5435    0.3727   -2.5432 C   0  0  0  0  0  0  0  0  0  0  0  0
   -6.6174    0.3725   -3.8692 C   0  0  0  0  0  0  0  0  0  0  0  0
    2.7775    0.8693   -0.4694 H   0  0  0  0  0  0  0  0  0  0  0  0
    4.3260   -0.2113   -0.7521 H   0  0  0  0  0  0  0  0  0  0  0  0
    4.2961   -1.3793   -2.0677 H   0  0  0  0  0  0  0  0  0  0  0  0
    6.3804   -1.5416   -0.8389 H   0  0  0  0  0  0  0  0  0  0  0  0
    5.5372   -1.6900    0.7068 H   0  0  0  0  0  0  0  0  0  0  0  0
    6.7582   -3.9030    1.0265 H   0  0  0  0  0  0  0  0  0  0  0  0
    6.5884   -5.0981   -0.2681 H   0  0  0  0  0  0  0  0  0  0  0  0
    7.5164   -3.6237   -0.5497 H   0  0  0  0  0  0  0  0  0  0  0  0
    4.2067   -5.0078   -0.1772 H   0  0  0  0  0  0  0  0  0  0  0  0
    4.2106   -3.7949    1.1069 H   0  0  0  0  0  0  0  0  0  0  0  0
    2.9464   -3.5555   -1.6639 H   0  0  0  0  0  0  0  0  0  0  0  0
    2.1108   -3.6839   -0.1165 H   0  0  0  0  0  0  0  0  0  0  0  0
   -0.3351    2.5167    0.6304 H   0  0  0  0  0  0  0  0  0  0  0  0
    0.1932    5.0720    0.4802 H   0  0  0  0  0  0  0  0  0  0  0  0
    3.0488    7.0957    0.5980 H   0  0  0  0  0  0  0  0  0  0  0  0
    3.2492    6.9827   -1.1473 H   0  0  0  0  0  0  0  0  0  0  0  0
    1.6643    7.3353   -0.4607 H   0  0  0  0  0  0  0  0  0  0  0  0
    4.0826    4.4825   -0.9275 H   0  0  0  0  0  0  0  0  0  0  0  0
   -2.9372   -1.1310   -0.7841 H   0  0  0  0  0  0  0  0  0  0  0  0
   -2.1090   -1.3208    3.4068 H   0  0  0  0  0  0  0  0  0  0  0  0
   -4.3468   -0.3489    3.8831 H   0  0  0  0  0  0  0  0  0  0  0  0
   -5.8634    0.2385    2.0525 H   0  0  0  0  0  0  0  0  0  0  0  0
   -6.2981    0.3520   -0.1271 H   0  0  0  0  0  0  0  0  0  0  0  0
   -7.3727    0.7412   -1.9500 H   0  0  0  0  0  0  0  0  0  0  0  0
   -5.8050    0.0119   -4.4868 H   0  0  0  0  0  0  0  0  0  0  0  0
   -7.4990    0.7359   -4.3781 H   0  0  0  0  0  0  0  0  0  0  0  0
 32 31  2  0
 31 29  1  0
 29 28  1  0
 29 30  2  0
  9  8  1  0
 28 27  1  0
 10  8  1  0
 10 11  1  0
  8  7  1  0
 27 26  1  0
 27 23  2  0
  7  6  1  0
 26 25  2  0
 11 12  1  0
 23 22  1  0
 12  6  1  0
 12  1  1  0
 25 24  1  0
  1  5  1  0
  1  2  2  0
  5 20  2  0
 22 24  2  0
 22 21  1  0
  2  3  1  0
 20 21  1  0
 20  4  1  0
  3  4  2  0
  3 13  1  0
 13 14  1  0
 14 15  1  0
 14 19  2  0
 15 16  2  0
 19 18  1  0
 16 18  1  0
 16 17  1  0
  2 33  1  0
  6 34  1  0
  6 35  1  0
  7 36  1  0
  7 37  1  0
  9 38  1  0
  9 39  1  0
  9 40  1  0
 10 41  1  0
 10 42  1  0
 11 43  1  0
 11 44  1  0
 13 45  1  0
 15 46  1  0
 17 47  1  0
 17 48  1  0
 17 49  1  0
 18 50  1  0
 23 51  1  0
 24 52  1  0
 25 53  1  0
 26 54  1  0
 28 55  1  0
 31 56  1  0
 32 57  1  0
 32 58  1  0
M  END
