
     RDKit          3D

 27 26  0  0  0  0  0  0  0  0999 V2000
    0.3587   -0.6169    4.2945 C   0  0  0  0  0  0  0  0  0  0  0  0
   -0.3886   -0.3276    5.4530 O   0  0  0  0  0  0  0  0  0  0  0  0
   -0.2976    0.0633    3.1056 C   0  0  1  0  0  0  0  0  0  0  0  0
   -0.3438    1.4682    3.2435 O   0  0  0  0  0  0  0  0  0  0  0  0
    0.3887   -0.3520    1.7996 C   0  0  2  0  0  0  0  0  0  0  0  0
    1.7536    0.0080    1.7797 O   0  0  0  0  0  0  0  0  0  0  0  0
   -0.3390    0.1925    0.5578 C   0  0  2  0  0  0  0  0  0  0  0  0
   -1.7129   -0.1025    0.5805 O   0  0  0  0  0  0  0  0  0  0  0  0
    0.3213   -0.3342   -0.7056 C   0  0  0  0  0  0  0  0  0  0  0  0
   -0.3262    0.2729   -1.8295 O   0  0  0  0  0  0  0  0  0  0  0  0
    0.1151   -0.1375   -3.3055 P   0  0  1  0  0  0  0  0  0  0  0  0
    0.1608   -1.5799   -3.6093 O   0  0  0  0  0  0  0  0  0  0  0  0
   -0.9593    0.7521   -4.0771 O   0  0  0  0  0  0  0  0  0  0  0  0
    1.5566    0.5051   -3.5611 O   0  0  0  0  0  0  0  0  0  0  0  0
    1.3982   -0.2750    4.3915 H   0  0  0  0  0  0  0  0  0  0  0  0
    0.3986   -1.6964    4.0972 H   0  0  0  0  0  0  0  0  0  0  0  0
    0.0777   -0.6983    6.2074 H   0  0  0  0  0  0  0  0  0  0  0  0
   -1.3364   -0.2756    3.0571 H   0  0  0  0  0  0  0  0  0  0  0  0
    0.4706    1.7759    3.6538 H   0  0  0  0  0  0  0  0  0  0  0  0
    0.3704   -1.4483    1.7530 H   0  0  0  0  0  0  0  0  0  0  0  0
    1.8236    0.9687    1.7412 H   0  0  0  0  0  0  0  0  0  0  0  0
   -0.2682    1.2857    0.5624 H   0  0  0  0  0  0  0  0  0  0  0  0
   -1.8295   -1.0594    0.5641 H   0  0  0  0  0  0  0  0  0  0  0  0
    1.3862   -0.0964   -0.7091 H   0  0  0  0  0  0  0  0  0  0  0  0
    0.2176   -1.4235   -0.7569 H   0  0  0  0  0  0  0  0  0  0  0  0
   -0.9930    0.5873   -5.0289 H   0  0  0  0  0  0  0  0  0  0  0  0
    1.6187    1.4618   -3.4373 H   0  0  0  0  0  0  0  0  0  0  0  0
  1  2  1  0
  1  3  1  0
  1 15  1  0
  1 16  1  0
  2 17  1  0
  3  4  1  0
  3  5  1  0
  3 18  1  6
  4 19  1  0
  5  6  1  0
  5  7  1  0
  5 20  1  6
  6 21  1  0
  7  8  1  0
  7  9  1  0
  7 22  1  6
  8 23  1  0
  9 10  1  0
  9 24  1  0
  9 25  1  0
 11 10  1  1
 11 12  2  0
 11 13  1  0
 11 14  1  0
 13 26  1  0
 14 27  1  0
M  END
