
     RDKit          3D

 58 60  0  0  0  0  0  0  0  0999 V2000
   -5.5055   -2.8072   -0.6823 N   0  0  0  0  0  0  0  0  0  0  0  0
   -6.5692   -1.9839   -0.6596 C   0  0  0  0  0  0  0  0  0  0  0  0
   -6.5608   -0.7080   -0.3283 N   0  0  0  0  0  0  0  0  0  0  0  0
   -5.3979   -0.2176    0.1335 C   0  0  0  0  0  0  0  0  0  0  0  0
   -4.2276   -1.0073    0.2820 C   0  0  0  0  0  0  0  0  0  0  0  0
   -4.3491   -2.3426   -0.2621 C   0  0  0  0  0  0  0  0  0  0  0  0
   10.5901   -1.4397   -0.9642 C   0  0  0  0  0  0  0  0  0  0  0  0
   -7.7349   -2.5308   -1.0401 N   0  0  0  0  0  0  0  0  0  0  0  0
   -3.3057   -3.1795   -0.3835 N   0  0  0  0  0  0  0  0  0  0  0  0
    7.2992   -1.2302    1.5597 O   0  0  0  0  0  0  0  0  0  0  0  0
    1.3997    1.9963   -0.8308 C   0  0  0  0  0  0  0  0  0  0  0  0
    0.1777    2.5799   -1.1658 C   0  0  0  0  0  0  0  0  0  0  0  0
   -4.3155    1.6027    0.9624 C   0  0  0  0  0  0  0  0  0  0  0  0
    0.4330    1.2305    1.2231 C   0  0  0  0  0  0  0  0  0  0  0  0
    9.5537   -1.4802    0.1323 C   0  0  0  0  0  0  0  0  0  0  0  0
    4.9228    0.0013    0.6642 C   0  0  0  0  0  0  0  0  0  0  0  0
    3.8036    0.7325   -0.0478 C   0  0  0  0  0  0  0  0  0  0  0  0
    6.1551   -0.0800   -0.2218 C   0  0  0  0  0  0  0  0  0  0  0  0
   -5.4118    1.0848    0.4707 N   0  0  0  0  0  0  0  0  0  0  0  0
   -2.1149    3.0541   -0.5525 O   0  0  0  0  0  0  0  0  0  0  0  0
    8.3632   -0.8475   -0.3642 O   0  0  0  0  0  0  0  0  0  0  0  0
    7.3111   -0.7818    0.4402 C   0  0  0  0  0  0  0  0  0  0  0  0
    1.5372    1.3234    0.3724 C   0  0  0  0  0  0  0  0  0  0  0  0
   -3.0900   -0.4444    0.9128 C   0  0  0  0  0  0  0  0  0  0  0  0
   -3.1287    0.9067    1.2261 C   0  0  0  0  0  0  0  0  0  0  0  0
   -0.7878    1.7922    0.8995 C   0  0  0  0  0  0  0  0  0  0  0  0
   -0.9107    2.4931   -0.3120 C   0  0  0  0  0  0  0  0  0  0  0  0
   10.2564   -1.9762   -1.8525 H   0  0  0  0  0  0  0  0  0  0  0  0
   10.8381   -0.4166   -1.2468 H   0  0  0  0  0  0  0  0  0  0  0  0
   11.5027   -1.9185   -0.6106 H   0  0  0  0  0  0  0  0  0  0  0  0
   -1.6533    4.5774   -1.8976 H   0  0  0  0  0  0  0  0  0  0  0  0
   -2.1784    3.0486   -2.6339 H   0  0  0  0  0  0  0  0  0  0  0  0
   -3.3470    4.0693   -1.7758 H   0  0  0  0  0  0  0  0  0  0  0  0
   -1.1759   -1.3678    0.4924 H   0  0  0  0  0  0  0  0  0  0  0  0
   -1.3605   -0.7954    2.1303 H   0  0  0  0  0  0  0  0  0  0  0  0
   -2.1807   -2.2572    1.6460 H   0  0  0  0  0  0  0  0  0  0  0  0
   -7.7733   -3.4841   -1.3518 H   0  0  0  0  0  0  0  0  0  0  0  0
   -8.5669   -1.9710   -1.0888 H   0  0  0  0  0  0  0  0  0  0  0  0
   -2.3595   -2.8469   -0.3781 H   0  0  0  0  0  0  0  0  0  0  0  0
   -3.4672   -4.0261   -0.9049 H   0  0  0  0  0  0  0  0  0  0  0  0
    2.2197    2.0915   -1.5291 H   0  0  0  0  0  0  0  0  0  0  0  0
    0.1109    3.1089   -2.1075 H   0  0  0  0  0  0  0  0  0  0  0  0
   -4.3592    2.6599    1.2096 H   0  0  0  0  0  0  0  0  0  0  0  0
    0.5373    0.6939    2.1597 H   0  0  0  0  0  0  0  0  0  0  0  0
    9.3309   -2.5096    0.4193 H   0  0  0  0  0  0  0  0  0  0  0  0
    9.9052   -0.9527    1.0212 H   0  0  0  0  0  0  0  0  0  0  0  0
    5.1629    0.5203    1.5943 H   0  0  0  0  0  0  0  0  0  0  0  0
    4.5864   -1.0032    0.9300 H   0  0  0  0  0  0  0  0  0  0  0  0
    4.1109    1.7582   -0.2854 H   0  0  0  0  0  0  0  0  0  0  0  0
    3.5655    0.2350   -0.9959 H   0  0  0  0  0  0  0  0  0  0  0  0
    5.9258   -0.6005   -1.1567 H   0  0  0  0  0  0  0  0  0  0  0  0
    6.4895    0.9196   -0.5168 H   0  0  0  0  0  0  0  0  0  0  0  0
   -2.3187    2.6527    2.1238 H   0  0  0  0  0  0  0  0  0  0  0  0
   -1.6358    1.1808    2.7544 H   0  0  0  0  0  0  0  0  0  0  0  0
   -1.8958   -1.2630    1.3084 C   0  0  0  0  0  0  0  0  0  0  0  0
   -1.9686    1.6597    1.8304 C   0  0  0  0  0  0  0  0  0  0  0  0
    2.6751    0.7335    0.8057 O   0  0  0  0  0  0  0  0  0  0  0  0
   -2.3182    3.7174   -1.7800 C   0  0  0  0  0  0  0  0  0  0  0  0
  1  2  2  0
  1  6  1  0
  2  3  1  0
  2  8  1  0
  3  4  2  0
  4  5  1  0
  4 19  1  0
  5  6  2  0
  5 24  1  0
  6  9  1  0
  7 15  1  0
 58 20  1  0
 55 24  1  0
 10 22  2  0
 11 12  2  0
 11 23  1  0
 12 27  1  0
 13 19  2  0
 13 25  1  0
 14 23  2  0
 14 26  1  0
 15 21  1  0
 16 17  1  0
 16 18  1  0
 17 57  1  0
 18 22  1  0
 56 25  1  0
 56 26  1  0
 20 27  1  0
 21 22  1  0
 57 23  1  0
 24 25  2  0
 26 27  2  0
  7 28  1  0
  7 29  1  0
  7 30  1  0
 58 31  1  0
 58 32  1  0
 58 33  1  0
 55 34  1  0
 55 35  1  0
 55 36  1  0
  8 37  1  0
  8 38  1  0
  9 39  1  0
  9 40  1  0
 11 41  1  0
 12 42  1  0
 13 43  1  0
 14 44  1  0
 15 45  1  0
 15 46  1  0
 16 47  1  0
 16 48  1  0
 17 49  1  0
 17 50  1  0
 18 51  1  0
 18 52  1  0
 56 53  1  0
 56 54  1  0
M  END
