
     RDKit          3D

 59 61  0  0  0  0  0  0  0  0999 V2000
    0.5583   -1.0766   -0.2039 C   0  0  0  0  0  0  0  0  0  0  0  0
    1.2636   -2.2656   -0.4004 C   0  0  0  0  0  0  0  0  0  0  0  0
    1.4084   -2.8207   -1.6622 C   0  0  0  0  0  0  0  0  0  0  0  0
    0.8550   -2.1856   -2.7606 C   0  0  0  0  0  0  0  0  0  0  0  0
    0.1569   -0.9872   -2.6050 C   0  0  0  0  0  0  0  0  0  0  0  0
    0.0132   -0.4547   -1.3312 C   0  0  0  0  0  0  0  0  0  0  0  0
    1.9658   -3.0847    0.9535 Cl  0  0  0  0  0  0  0  0  0  0  0  0
    0.4761   -0.5788    1.0967 N   0  0  0  0  0  0  0  0  0  0  0  0
   -0.4343   -0.3028   -3.7768 C   0  0  0  0  0  0  0  0  0  0  0  0
    0.1677    0.7632   -4.4234 C   0  0  0  0  0  0  0  0  0  0  0  0
    1.4745    1.3368   -3.9573 C   0  0  0  0  0  0  0  0  0  0  0  0
   -0.3847    1.3662   -5.4789 N   0  0  0  0  0  0  0  0  0  0  0  0
   -1.5576    0.8928   -5.8923 C   0  0  0  0  0  0  0  0  0  0  0  0
   -2.1022    1.4708   -6.9902 N   0  0  0  0  0  0  0  0  0  0  0  0
   -2.2331   -0.1191   -5.3503 N   0  0  0  0  0  0  0  0  0  0  0  0
   -1.6805   -0.7175   -4.3007 C   0  0  0  0  0  0  0  0  0  0  0  0
   -2.3485   -1.7592   -3.7668 N   0  0  0  0  0  0  0  0  0  0  0  0
   -0.4636    0.8319    2.4302 N   0  0  0  0  0  0  0  0  0  0  0  0
    0.3973    0.3809    3.5111 C   0  0  0  0  0  0  0  0  0  0  0  0
    1.2668    2.5929   -3.1116 C   0  0  0  0  0  0  0  0  0  0  0  0
   -1.5959    1.7081    2.6515 C   0  0  0  0  0  0  0  0  0  0  0  0
   -2.8896    0.9603    2.8937 C   0  0  0  0  0  0  0  0  0  0  0  0
   -2.7205    0.1830    4.0793 O   0  0  0  0  0  0  0  0  0  0  0  0
   -3.7066   -0.6333    4.4425 C   0  0  0  0  0  0  0  0  0  0  0  0
   -3.3679   -1.3755    5.6998 C   0  0  0  0  0  0  0  0  0  0  0  0
   -4.7377   -0.7356    3.8269 O   0  0  0  0  0  0  0  0  0  0  0  0
    1.8281    0.8303    3.3442 C   0  0  0  0  0  0  0  0  0  0  0  0
    2.1366    2.1876    3.3052 C   0  0  0  0  0  0  0  0  0  0  0  0
    2.8599   -0.0963    3.2529 C   0  0  0  0  0  0  0  0  0  0  0  0
    4.1787    0.3221    3.1375 C   0  0  0  0  0  0  0  0  0  0  0  0
    4.4794    1.6775    3.0998 C   0  0  0  0  0  0  0  0  0  0  0  0
    3.4531    2.6104    3.1817 C   0  0  0  0  0  0  0  0  0  0  0  0
   -0.3964    0.3066    1.2421 N   0  0  0  0  0  0  0  0  0  0  0  0
    1.9539   -3.7464   -1.7851 H   0  0  0  0  0  0  0  0  0  0  0  0
    0.9788   -2.6165   -3.7457 H   0  0  0  0  0  0  0  0  0  0  0  0
   -0.5344    0.4697   -1.2016 H   0  0  0  0  0  0  0  0  0  0  0  0
    2.0725    1.5880   -4.8357 H   0  0  0  0  0  0  0  0  0  0  0  0
    2.0350    0.5975   -3.3850 H   0  0  0  0  0  0  0  0  0  0  0  0
   -3.0766    1.3044   -7.1741 H   0  0  0  0  0  0  0  0  0  0  0  0
   -1.7491    2.3714   -7.2640 H   0  0  0  0  0  0  0  0  0  0  0  0
   -3.3009   -1.9083   -4.0547 H   0  0  0  0  0  0  0  0  0  0  0  0
   -2.1000   -2.1035   -2.8557 H   0  0  0  0  0  0  0  0  0  0  0  0
   -0.0143    0.7868    4.4340 H   0  0  0  0  0  0  0  0  0  0  0  0
    0.3507   -0.7088    3.5821 H   0  0  0  0  0  0  0  0  0  0  0  0
    2.2255    3.0238   -2.8233 H   0  0  0  0  0  0  0  0  0  0  0  0
    0.7086    3.3496   -3.6625 H   0  0  0  0  0  0  0  0  0  0  0  0
    0.7155    2.3681   -2.1982 H   0  0  0  0  0  0  0  0  0  0  0  0
   -1.3683    2.3641    3.4914 H   0  0  0  0  0  0  0  0  0  0  0  0
   -1.7274    2.3442    1.7757 H   0  0  0  0  0  0  0  0  0  0  0  0
   -3.7079    1.6740    3.0135 H   0  0  0  0  0  0  0  0  0  0  0  0
   -3.1172    0.3147    2.0424 H   0  0  0  0  0  0  0  0  0  0  0  0
   -4.1206   -2.1300    5.9098 H   0  0  0  0  0  0  0  0  0  0  0  0
   -2.3910   -1.8515    5.6202 H   0  0  0  0  0  0  0  0  0  0  0  0
   -3.3225   -0.6817    6.5405 H   0  0  0  0  0  0  0  0  0  0  0  0
    1.3453    2.9253    3.3740 H   0  0  0  0  0  0  0  0  0  0  0  0
    2.6277   -1.1535    3.2561 H   0  0  0  0  0  0  0  0  0  0  0  0
    4.9709   -0.4120    3.0672 H   0  0  0  0  0  0  0  0  0  0  0  0
    5.5069    2.0046    3.0054 H   0  0  0  0  0  0  0  0  0  0  0  0
    3.6770    3.6692    3.1533 H   0  0  0  0  0  0  0  0  0  0  0  0
  1  2  2  0
  1  6  1  0
  1  8  1  0
  2  3  1  0
  2  7  1  0
  3  4  2  0
  3 34  1  0
  4  5  1  0
  4 35  1  0
  5  6  2  0
  5  9  1  0
  6 36  1  0
  8 33  2  0
  9 10  2  0
  9 16  1  0
 10 11  1  0
 10 12  1  0
 11 20  1  0
 11 37  1  0
 11 38  1  0
 12 13  2  0
 13 14  1  0
 13 15  1  0
 14 39  1  0
 14 40  1  0
 15 16  2  0
 16 17  1  0
 17 41  1  0
 17 42  1  0
 18 19  1  0
 18 21  1  0
 18 33  1  0
 19 27  1  0
 19 43  1  0
 19 44  1  0
 20 45  1  0
 20 46  1  0
 20 47  1  0
 21 22  1  0
 21 48  1  0
 21 49  1  0
 22 23  1  0
 22 50  1  0
 22 51  1  0
 23 24  1  0
 24 25  1  0
 24 26  2  0
 25 52  1  0
 25 53  1  0
 25 54  1  0
 27 28  2  0
 27 29  1  0
 28 32  1  0
 28 55  1  0
 29 30  2  0
 29 56  1  0
 30 31  1  0
 30 57  1  0
 31 32  2  0
 31 58  1  0
 32 59  1  0
M  END
