
     RDKit          3D

 36 37  0  0  0  0  0  0  0  0999 V2000
    2.1245   -1.1378   -0.4084 N   0  0  0  0  0  0  0  0  0  0  0  0
    2.2931   -0.0459    0.3788 C   0  0  0  0  0  0  0  0  0  0  0  0
    2.3390    1.2088    2.1821 C   0  0  0  0  0  0  0  0  0  0  0  0
    3.0979    2.2279    0.0866 C   0  0  0  0  0  0  0  0  0  0  0  0
    2.5081   -0.7644   -1.6625 C   0  0  0  0  0  0  0  0  0  0  0  0
   -3.2295    1.6294   -1.7807 O   0  0  0  0  0  0  0  0  0  0  0  0
   -3.6510    1.0703   -0.3313 P   0  0  1  0  0  0  0  0  0  0  0  0
   -3.8651    2.3472    0.6189 O   0  0  0  0  0  0  0  0  0  0  0  0
   -4.8144    0.1642   -0.4831 O   0  0  0  0  0  0  0  0  0  0  0  0
   -2.1749    0.3385    0.3973 C   0  0  0  0  0  0  0  0  0  0  0  0
   -0.5665   -1.3864    0.2680 O   0  0  0  0  0  0  0  0  0  0  0  0
    0.0606   -2.4554   -0.3972 C   0  0  2  0  0  0  0  0  0  0  0  0
   -0.5560   -3.8026   -0.0634 C   0  0  0  0  0  0  0  0  0  0  0  0
   -0.4002   -4.0577    1.3108 O   0  0  0  0  0  0  0  0  0  0  0  0
    1.5383   -2.4045   -0.0265 C   0  0  0  0  0  0  0  0  0  0  0  0
    2.0570    0.0427    1.7034 N   0  0  0  0  0  0  0  0  0  0  0  0
    2.8181    2.2459    1.4563 N   0  0  0  0  0  0  0  0  0  0  0  0
    3.5389    3.2095   -0.4855 O   0  0  0  0  0  0  0  0  0  0  0  0
    2.7911    0.9398   -0.4548 C   0  0  0  0  0  0  0  0  0  0  0  0
    2.9182    0.4699   -1.7305 N   0  0  0  0  0  0  0  0  0  0  0  0
    2.1956    1.4095    3.2355 H   0  0  0  0  0  0  0  0  0  0  0  0
    2.4708   -1.4590   -2.4889 H   0  0  0  0  0  0  0  0  0  0  0  0
   -2.5075    2.2713   -1.7859 H   0  0  0  0  0  0  0  0  0  0  0  0
   -4.7221    2.7815    0.5061 H   0  0  0  0  0  0  0  0  0  0  0  0
   -1.3822    1.0896    0.4436 H   0  0  0  0  0  0  0  0  0  0  0  0
   -2.4192    0.0538    1.4236 H   0  0  0  0  0  0  0  0  0  0  0  0
   -2.5069   -1.6245   -0.4301 H   0  0  0  0  0  0  0  0  0  0  0  0
   -1.4601   -0.5999   -1.4165 H   0  0  0  0  0  0  0  0  0  0  0  0
   -0.0240   -2.3313   -1.4878 H   0  0  0  0  0  0  0  0  0  0  0  0
   -1.6130   -3.7942   -0.3601 H   0  0  0  0  0  0  0  0  0  0  0  0
   -0.0636   -4.5615   -0.6849 H   0  0  0  0  0  0  0  0  0  0  0  0
   -0.7316   -4.9413    1.4928 H   0  0  0  0  0  0  0  0  0  0  0  0
    2.0765   -3.2065   -0.5320 H   0  0  0  0  0  0  0  0  0  0  0  0
    1.6792   -2.5311    1.0452 H   0  0  0  0  0  0  0  0  0  0  0  0
    3.0016    3.1115    1.9471 H   0  0  0  0  0  0  0  0  0  0  0  0
   -1.7042   -0.8782   -0.3832 C   0  0  0  0  0  0  0  0  0  0  0  0
  9  7  2  0
  7  8  1  1
  7  6  1  0
  7 10  1  0
 36 10  1  0
 36 11  1  0
 14 13  1  0
 12 15  1  0
 12 11  1  0
 12 13  1  0
 15  1  1  0
  1  5  1  0
  1  2  1  0
  5 20  2  0
  2 16  1  0
  2 19  2  0
 16  3  2  0
 20 19  1  0
 19  4  1  0
  3 17  1  0
  4 17  1  0
  4 18  2  0
  3 21  1  0
  5 22  1  0
  6 23  1  0
  8 24  1  0
 10 25  1  0
 10 26  1  0
 36 27  1  0
 36 28  1  0
 12 29  1  6
 13 30  1  0
 13 31  1  0
 14 32  1  0
 15 33  1  0
 15 34  1  0
 17 35  1  0
M  END
