
     RDKit          3D

 65 68  0  0  0  0  0  0  0  0999 V2000
    0.7270    3.6288    0.2489 C   0  0  0  0  0  0  0  0  0  0  0  0
    6.6642   -0.8732    0.1492 C   0  0  0  0  0  0  0  0  0  0  0  0
   -4.9582   -2.8325   -0.7026 N   0  0  0  0  0  0  0  0  0  0  0  0
   -8.9506    0.2004    0.5283 Cl  0  0  0  0  0  0  0  0  0  0  0  0
   -3.9893   -0.5654    2.4249 Cl  0  0  0  0  0  0  0  0  0  0  0  0
   -1.5763   -2.8974   -0.3181 C   0  0  0  0  0  0  0  0  0  0  0  0
   -6.4012   -0.1444    1.3140 C   0  0  0  0  0  0  0  0  0  0  0  0
   -5.3596    0.8025   -1.0727 C   0  0  0  0  0  0  0  0  0  0  0  0
    1.4621   -1.0813   -0.1179 C   0  0  0  0  0  0  0  0  0  0  0  0
   -0.3360    1.0452   -0.0174 C   0  0  0  0  0  0  0  0  0  0  0  0
    5.5670    0.1838    0.1267 C   0  0  0  0  0  0  0  0  0  0  0  0
    4.2064   -0.4733    0.0323 C   0  0  0  0  0  0  0  0  0  0  0  0
   12.1036    0.4823   -0.2801 C   0  0  0  0  0  0  0  0  0  0  0  0
    8.4392    0.2952   -0.9984 C   0  0  0  0  0  0  0  0  0  0  0  0
    8.9624   -1.2976    0.6810 C   0  0  0  0  0  0  0  0  0  0  0  0
    9.8134    0.9169   -0.8348 C   0  0  0  0  0  0  0  0  0  0  0  0
   10.3335   -0.6723    0.8494 C   0  0  0  0  0  0  0  0  0  0  0  0
   -0.3039   -2.6486   -0.2552 N   0  0  0  0  0  0  0  0  0  0  0  0
    1.5731    2.4970    0.1745 O   0  0  0  0  0  0  0  0  0  0  0  0
   -6.7368    0.7657   -0.9049 C   0  0  0  0  0  0  0  0  0  0  0  0
   -7.2429    0.2725    0.3044 C   0  0  0  0  0  0  0  0  0  0  0  0
   -5.0281   -0.0766    1.1383 C   0  0  0  0  0  0  0  0  0  0  0  0
   -2.5875   -1.9088   -0.3359 C   0  0  0  0  0  0  0  0  0  0  0  0
   -4.4992    0.3766   -0.0649 C   0  0  0  0  0  0  0  0  0  0  0  0
    1.0086    1.2912    0.0445 C   0  0  0  0  0  0  0  0  0  0  0  0
    1.9335    0.2004   -0.0159 C   0  0  0  0  0  0  0  0  0  0  0  0
   -2.2279   -0.5619   -0.2507 C   0  0  0  0  0  0  0  0  0  0  0  0
    0.0777   -1.3476   -0.1834 C   0  0  0  0  0  0  0  0  0  0  0  0
   -0.8337   -0.2730   -0.1563 C   0  0  0  0  0  0  0  0  0  0  0  0
    7.9952   -0.3060    0.2462 N   0  0  0  0  0  0  0  0  0  0  0  0
   10.7752   -0.0717   -0.3924 N   0  0  0  0  0  0  0  0  0  0  0  0
   -7.1525    1.6473   -3.0616 C   0  0  0  0  0  0  0  0  0  0  0  0
    1.3780    4.4944    0.3362 H   0  0  0  0  0  0  0  0  0  0  0  0
    0.1148    3.7358   -0.6500 H   0  0  0  0  0  0  0  0  0  0  0  0
    0.0729    3.5885    1.1235 H   0  0  0  0  0  0  0  0  0  0  0  0
    6.5102   -1.5130    1.0227 H   0  0  0  0  0  0  0  0  0  0  0  0
    6.5690   -1.5313   -0.7321 H   0  0  0  0  0  0  0  0  0  0  0  0
   -1.8769   -3.9383   -0.3778 H   0  0  0  0  0  0  0  0  0  0  0  0
   -6.8127   -0.5111    2.2439 H   0  0  0  0  0  0  0  0  0  0  0  0
   -4.9214    1.1478   -1.9993 H   0  0  0  0  0  0  0  0  0  0  0  0
    2.1288   -1.9316   -0.1481 H   0  0  0  0  0  0  0  0  0  0  0  0
   -1.0236    1.8744    0.0655 H   0  0  0  0  0  0  0  0  0  0  0  0
    5.6298    0.7851    1.0369 H   0  0  0  0  0  0  0  0  0  0  0  0
    5.6931    0.8600   -0.7220 H   0  0  0  0  0  0  0  0  0  0  0  0
    4.1278   -1.0573   -0.8918 H   0  0  0  0  0  0  0  0  0  0  0  0
    4.0480   -1.1601    0.8717 H   0  0  0  0  0  0  0  0  0  0  0  0
   12.8090   -0.2966    0.0146 H   0  0  0  0  0  0  0  0  0  0  0  0
   12.4266    0.8790   -1.2439 H   0  0  0  0  0  0  0  0  0  0  0  0
   12.1764    1.2964    0.4587 H   0  0  0  0  0  0  0  0  0  0  0  0
    7.7422    1.0766   -1.3067 H   0  0  0  0  0  0  0  0  0  0  0  0
    8.4730   -0.4488   -1.8137 H   0  0  0  0  0  0  0  0  0  0  0  0
    9.0324   -2.1389   -0.0307 H   0  0  0  0  0  0  0  0  0  0  0  0
    8.6400   -1.7128    1.6388 H   0  0  0  0  0  0  0  0  0  0  0  0
   10.1358    1.3251   -1.7960 H   0  0  0  0  0  0  0  0  0  0  0  0
    9.7467    1.7645   -0.1293 H   0  0  0  0  0  0  0  0  0  0  0  0
   10.2948    0.0672    1.6690 H   0  0  0  0  0  0  0  0  0  0  0  0
   11.0450   -1.4462    1.1482 H   0  0  0  0  0  0  0  0  0  0  0  0
   -2.7841    1.3560   -0.6008 H   0  0  0  0  0  0  0  0  0  0  0  0
   -8.0338    1.8894   -3.6487 H   0  0  0  0  0  0  0  0  0  0  0  0
   -6.5531    2.5514   -2.9335 H   0  0  0  0  0  0  0  0  0  0  0  0
   -6.5636    0.8985   -3.5960 H   0  0  0  0  0  0  0  0  0  0  0  0
   -3.9157   -2.3696   -0.5261 C   0  0  0  0  0  0  0  0  0  0  0  0
   -3.1163    0.4637   -0.2701 N   0  0  0  0  0  0  0  0  0  0  0  0
    3.2185    0.5498    0.0487 O   0  0  0  0  0  0  0  0  0  0  0  0
   -7.6264    1.1525   -1.8202 O   0  0  0  0  0  0  0  0  0  0  0  0
  1 19  1  0
  1 33  1  0
  1 34  1  0
  1 35  1  0
 20 65  1  0
 32 65  1  0
 30  2  1  0
 11  2  1  0
  2 36  1  0
  2 37  1  0
 62  3  3  0
  4 21  1  0
  5 22  1  0
 23 62  1  0
 23  6  2  0
 18  6  1  0
  6 38  1  0
  7 22  2  0
  7 21  1  0
  7 39  1  0
 24  8  2  0
 20  8  1  0
  8 40  1  0
 26  9  2  0
  9 28  1  0
  9 41  1  0
 25 10  2  0
 10 29  1  0
 10 42  1  0
 11 12  1  0
 11 43  1  0
 11 44  1  0
 64 12  1  0
 12 45  1  0
 12 46  1  0
 13 31  1  0
 13 47  1  0
 13 48  1  0
 13 49  1  0
 30 14  1  0
 16 14  1  0
 14 50  1  0
 14 51  1  0
 17 15  1  0
 15 30  1  0
 15 52  1  0
 15 53  1  0
 31 16  1  0
 16 54  1  0
 16 55  1  0
 17 31  1  0
 17 56  1  0
 17 57  1  0
 28 18  2  0
 24 63  1  0
 63 27  1  0
 63 58  1  0
 19 25  1  0
 64 26  1  0
 21 20  2  0
 22 24  1  0
 27 23  1  0
 25 26  1  0
 29 27  2  0
 29 28  1  0
 32 59  1  0
 32 60  1  0
 32 61  1  0
M  END
