
     RDKit          3D

 42 44  0  0  0  0  0  0  0  0999 V2000
   -2.9965   -0.6389   -0.4583 C   0  0  0  0  0  0  0  0  0  0  0  0
   -4.1304    0.1337   -0.2684 C   0  0  0  0  0  0  0  0  0  0  0  0
   -4.0614    1.4923    0.0831 C   0  0  0  0  0  0  0  0  0  0  0  0
   -2.8462    2.1246    0.2549 C   0  0  0  0  0  0  0  0  0  0  0  0
   -1.6751    1.3810    0.0686 C   0  0  0  0  0  0  0  0  0  0  0  0
   -1.7736    0.0172   -0.2850 C   0  0  0  0  0  0  0  0  0  0  0  0
   -0.2801    1.6813    0.1586 C   0  0  0  0  0  0  0  0  0  0  0  0
    2.4636   -0.4791    0.9216 C   0  0  0  0  0  0  0  0  0  0  0  0
    1.4430   -2.5316    0.1159 O   0  0  0  0  0  0  0  0  0  0  0  0
    2.1836   -1.9562    0.8785 C   0  0  0  0  0  0  0  0  0  0  0  0
    2.8674   -2.5924    1.8195 O   0  0  0  0  0  0  0  0  0  0  0  0
    1.8876    0.4036   -0.2034 C   0  0  1  0  0  0  0  0  0  0  0  0
    2.3201   -0.0492   -1.6067 C   0  0  0  0  0  0  0  0  0  0  0  0
    3.8200   -0.2460   -1.7813 C   0  0  0  0  0  0  0  0  0  0  0  0
    0.3911    0.5296   -0.1357 C   0  0  0  0  0  0  0  0  0  0  0  0
   -0.5023   -0.4698   -0.4075 N   0  0  0  0  0  0  0  0  0  0  0  0
   -3.0617   -2.1033   -0.7872 C   0  0  0  0  0  0  0  0  0  0  0  0
   -2.7670   -2.9904    0.4238 C   0  0  0  0  0  0  0  0  0  0  0  0
    2.4430    1.7019   -0.0435 O   0  0  0  0  0  0  0  0  0  0  0  0
    1.8487    2.5508    0.9229 C   0  0  0  0  0  0  0  0  0  0  0  0
    0.4332    2.9370    0.5227 C   0  0  0  0  0  0  0  0  0  0  0  0
   -5.1032   -0.3269   -0.3975 H   0  0  0  0  0  0  0  0  0  0  0  0
   -4.9808    2.0474    0.2204 H   0  0  0  0  0  0  0  0  0  0  0  0
   -2.8006    3.1723    0.5263 H   0  0  0  0  0  0  0  0  0  0  0  0
    2.1018   -0.1197    1.8907 H   0  0  0  0  0  0  0  0  0  0  0  0
    3.5489   -0.3469    0.9507 H   0  0  0  0  0  0  0  0  0  0  0  0
    2.6673   -3.5404    1.7922 H   0  0  0  0  0  0  0  0  0  0  0  0
    1.8023   -0.9706   -1.8721 H   0  0  0  0  0  0  0  0  0  0  0  0
    1.9641    0.7103   -2.3072 H   0  0  0  0  0  0  0  0  0  0  0  0
    4.0438   -0.4699   -2.8242 H   0  0  0  0  0  0  0  0  0  0  0  0
    4.3848    0.6438   -1.5061 H   0  0  0  0  0  0  0  0  0  0  0  0
    4.1990   -1.0795   -1.1882 H   0  0  0  0  0  0  0  0  0  0  0  0
   -0.2404   -1.4236   -0.5963 H   0  0  0  0  0  0  0  0  0  0  0  0
   -4.0547   -2.3406   -1.1738 H   0  0  0  0  0  0  0  0  0  0  0  0
   -2.3578   -2.3404   -1.5909 H   0  0  0  0  0  0  0  0  0  0  0  0
   -1.7742   -2.7994    0.8340 H   0  0  0  0  0  0  0  0  0  0  0  0
   -3.4924   -2.8149    1.2183 H   0  0  0  0  0  0  0  0  0  0  0  0
   -2.8142   -4.0451    0.1514 H   0  0  0  0  0  0  0  0  0  0  0  0
    1.8316    2.0806    1.9133 H   0  0  0  0  0  0  0  0  0  0  0  0
    2.4961    3.4255    0.9901 H   0  0  0  0  0  0  0  0  0  0  0  0
    0.4476    3.6482   -0.3093 H   0  0  0  0  0  0  0  0  0  0  0  0
   -0.0530    3.4456    1.3595 H   0  0  0  0  0  0  0  0  0  0  0  0
  3  2  1  0
  3  4  2  0
  2  1  2  0
 18 17  1  0
  4  5  1  0
  1 17  1  0
  1  6  1  0
  5  6  2  0
  5  7  1  0
  6 16  1  0
  7 21  1  0
  7 15  2  0
 16 15  1  0
 21 20  1  0
 15 12  1  0
 20 19  1  0
  9 10  2  0
 12 19  1  0
 12  8  1  1
 12 13  1  0
  8 10  1  0
 10 11  1  0
 13 14  1  0
  2 22  1  0
  3 23  1  0
  4 24  1  0
  8 25  1  0
  8 26  1  0
 11 27  1  0
 13 28  1  0
 13 29  1  0
 14 30  1  0
 14 31  1  0
 14 32  1  0
 16 33  1  0
 17 34  1  0
 17 35  1  0
 18 36  1  0
 18 37  1  0
 18 38  1  0
 20 39  1  0
 20 40  1  0
 21 41  1  0
 21 42  1  0
M  END
