
     RDKit          3D

 25 25  0  0  0  0  0  0  0  0999 V2000
   -3.1140   -1.0889    0.6018 O   0  0  0  0  0  0  0  0  0  0  0  0
   -2.9097   -0.0738   -0.0085 C   0  0  0  0  0  0  0  0  0  0  0  0
   -1.5496    0.4493   -0.3952 C   0  0  0  0  0  0  0  0  0  0  0  0
   -0.5790   -0.4303    0.0752 O   0  0  0  0  0  0  0  0  0  0  0  0
    0.7426   -0.0978   -0.3182 C   0  0  2  0  0  0  0  0  0  0  0  0
    1.6131   -1.3234   -0.0878 C   0  0  0  0  0  0  0  0  0  0  0  0
    3.0608   -1.0476   -0.4838 C   0  0  0  0  0  0  0  0  0  0  0  0
    3.6215    0.1652    0.2512 C   0  0  0  0  0  0  0  0  0  0  0  0
    2.7379    1.3896    0.0403 C   0  0  0  0  0  0  0  0  0  0  0  0
    1.2912    1.1088    0.4393 C   0  0  0  0  0  0  0  0  0  0  0  0
   -1.5165    0.5538   -1.4900 H   0  0  0  0  0  0  0  0  0  0  0  0
   -1.4468    1.4646    0.0112 H   0  0  0  0  0  0  0  0  0  0  0  0
    0.7519    0.1351   -1.3960 H   0  0  0  0  0  0  0  0  0  0  0  0
    1.5691   -1.6012    0.9712 H   0  0  0  0  0  0  0  0  0  0  0  0
    1.2192   -2.1692   -0.6572 H   0  0  0  0  0  0  0  0  0  0  0  0
    3.6725   -1.9300   -0.2839 H   0  0  0  0  0  0  0  0  0  0  0  0
    3.1158   -0.8727   -1.5639 H   0  0  0  0  0  0  0  0  0  0  0  0
    3.6846   -0.0558    1.3219 H   0  0  0  0  0  0  0  0  0  0  0  0
    4.6405    0.3717   -0.0844 H   0  0  0  0  0  0  0  0  0  0  0  0
    3.1189    2.2396    0.6106 H   0  0  0  0  0  0  0  0  0  0  0  0
    2.7727    1.6857   -1.0137 H   0  0  0  0  0  0  0  0  0  0  0  0
    0.6815    1.9970    0.2527 H   0  0  0  0  0  0  0  0  0  0  0  0
    1.2357    0.9053    1.5147 H   0  0  0  0  0  0  0  0  0  0  0  0
   -3.8626    0.7459   -0.4351 O   0  0  0  0  0  0  0  0  0  0  0  0
   -4.7347    0.4042   -0.1876 H   0  0  0  0  0  0  0  0  0  0  0  0
  1  2  2  0
  2  3  1  0
  3  4  1  0
  4  5  1  0
  5  6  1  0
  5 10  1  0
  6  7  1  0
  7  8  1  0
  8  9  1  0
  9 10  1  0
  3 11  1  0
  3 12  1  0
  5 13  1  6
  6 14  1  0
  6 15  1  0
  7 16  1  0
  7 17  1  0
  8 18  1  0
  8 19  1  0
  9 20  1  0
  9 21  1  0
 10 22  1  0
 10 23  1  0
  2 24  1  0
 24 25  1  0
M  END
