
     RDKit          3D

 74 78  0  0  0  0  0  0  0  0999 V2000
    3.0213   -2.0081    0.0019 C   0  0  0  0  0  0  0  0  0  0  0  0
    3.6580   -0.8272   -0.3871 C   0  0  0  0  0  0  0  0  0  0  0  0
    2.8926    0.3059   -0.6113 C   0  0  0  0  0  0  0  0  0  0  0  0
    1.5142    0.2794   -0.4412 C   0  0  0  0  0  0  0  0  0  0  0  0
    0.8710   -0.8841   -0.0338 C   0  0  0  0  0  0  0  0  0  0  0  0
   -1.5239   -0.1654   -0.0417 C   0  0  0  0  0  0  0  0  0  0  0  0
   -3.6539    1.3818   -0.4580 C   0  0  0  0  0  0  0  0  0  0  0  0
   -5.5801    0.3142    1.6873 C   0  0  0  0  0  0  0  0  0  0  0  0
   -5.2622   -1.5079   -1.6671 C   0  0  0  0  0  0  0  0  0  0  0  0
   -7.5533   -2.3412   -1.3787 C   0  0  0  0  0  0  0  0  0  0  0  0
   -3.7712    0.1160    0.1292 C   0  0  0  0  0  0  0  0  0  0  0  0
    1.6543   -2.0418    0.1907 C   0  0  0  0  0  0  0  0  0  0  0  0
   -0.4896   -1.0171    0.1911 N   0  0  0  0  0  0  0  0  0  0  0  0
   -1.3127    1.0162   -0.6076 N   0  0  0  0  0  0  0  0  0  0  0  0
   -2.3751    1.7797   -0.8014 C   0  0  0  0  0  0  0  0  0  0  0  0
   -4.7772    2.1975   -0.7019 N   0  0  0  0  0  0  0  0  0  0  0  0
   -5.7373    2.4213    0.2214 C   0  0  0  0  0  0  0  0  0  0  0  0
   -6.7580    3.0322   -0.0144 O   0  0  0  0  0  0  0  0  0  0  0  0
   -5.4937    1.8375    1.6240 C   0  0  2  0  0  0  0  0  0  0  0  0
   -4.2732    2.2671    2.0645 F   0  0  0  0  0  0  0  0  0  0  0  0
   -6.4006    2.3748    2.4686 F   0  0  0  0  0  0  0  0  0  0  0  0
   -5.0235   -0.3810    0.5442 N   0  0  0  0  0  0  0  0  0  0  0  0
   -5.9489   -0.7560   -0.5290 C   0  0  2  0  0  0  0  0  0  0  0  0
   -6.4225   -2.1684   -2.4199 C   0  0  0  0  0  0  0  0  0  0  0  0
   -7.0030   -1.7628   -0.0692 C   0  0  0  0  0  0  0  0  0  0  0  0
   -2.7160   -0.6365    0.3413 N   0  0  0  0  0  0  0  0  0  0  0  0
    5.1368   -0.8664   -0.5814 C   0  0  0  0  0  0  0  0  0  0  0  0
    5.7111   -1.9122   -0.8615 O   0  0  0  0  0  0  0  0  0  0  0  0
    5.7818    0.3037   -0.4332 N   0  0  0  0  0  0  0  0  0  0  0  0
    7.2183    0.4438   -0.5648 C   0  0  1  0  0  0  0  0  0  0  0  0
    7.5703    1.8787   -0.9355 C   0  0  0  0  0  0  0  0  0  0  0  0
    9.0784    2.0537   -1.0247 C   0  0  0  0  0  0  0  0  0  0  0  0
    9.7295    1.6757    0.2146 N   0  0  0  0  0  0  0  0  0  0  0  0
   11.1501    1.9356    0.1632 C   0  0  0  0  0  0  0  0  0  0  0  0
    9.4553    0.2904    0.5460 C   0  0  0  0  0  0  0  0  0  0  0  0
    7.9629    0.0479    0.7075 C   0  0  0  0  0  0  0  0  0  0  0  0
    3.6202   -2.8944    0.1613 H   0  0  0  0  0  0  0  0  0  0  0  0
    3.3442    1.2288   -0.9514 H   0  0  0  0  0  0  0  0  0  0  0  0
    0.9386    1.1685   -0.6373 H   0  0  0  0  0  0  0  0  0  0  0  0
   -5.9144    2.2865   -2.4752 H   0  0  0  0  0  0  0  0  0  0  0  0
   -5.1020    3.8002   -2.0393 H   0  0  0  0  0  0  0  0  0  0  0  0
   -4.1695    2.4437   -2.6796 H   0  0  0  0  0  0  0  0  0  0  0  0
   -5.0847   -0.0052    2.6099 H   0  0  0  0  0  0  0  0  0  0  0  0
   -6.6304    0.0400    1.7836 H   0  0  0  0  0  0  0  0  0  0  0  0
   -4.6568   -0.8688   -2.3119 H   0  0  0  0  0  0  0  0  0  0  0  0
   -4.6008   -2.2646   -1.2362 H   0  0  0  0  0  0  0  0  0  0  0  0
   -8.4459   -1.7976   -1.6910 H   0  0  0  0  0  0  0  0  0  0  0  0
   -7.8503   -3.3827   -1.2567 H   0  0  0  0  0  0  0  0  0  0  0  0
    2.4105   -4.1808    1.6573 H   0  0  0  0  0  0  0  0  0  0  0  0
    0.9366   -5.0510    1.1888 H   0  0  0  0  0  0  0  0  0  0  0  0
    2.1827   -4.7058   -0.0262 H   0  0  0  0  0  0  0  0  0  0  0  0
   -0.7831   -1.9001    0.5823 H   0  0  0  0  0  0  0  0  0  0  0  0
   -2.1991    2.7505   -1.2535 H   0  0  0  0  0  0  0  0  0  0  0  0
   -6.4689    0.1163   -0.9560 H   0  0  0  0  0  0  0  0  0  0  0  0
   -6.7539   -1.5333   -3.2429 H   0  0  0  0  0  0  0  0  0  0  0  0
   -6.1173   -3.1168   -2.8618 H   0  0  0  0  0  0  0  0  0  0  0  0
   -7.7866   -1.3264    0.5517 H   0  0  0  0  0  0  0  0  0  0  0  0
   -6.5046   -2.5358    0.5221 H   0  0  0  0  0  0  0  0  0  0  0  0
    5.2832    1.0815   -0.0299 H   0  0  0  0  0  0  0  0  0  0  0  0
    7.5420   -0.2132   -1.3773 H   0  0  0  0  0  0  0  0  0  0  0  0
    7.1123    2.1484   -1.8895 H   0  0  0  0  0  0  0  0  0  0  0  0
    7.1747    2.5618   -0.1766 H   0  0  0  0  0  0  0  0  0  0  0  0
    9.4639    1.4660   -1.8780 H   0  0  0  0  0  0  0  0  0  0  0  0
    9.3095    3.0999   -1.2387 H   0  0  0  0  0  0  0  0  0  0  0  0
   11.3300    2.9911   -0.0467 H   0  0  0  0  0  0  0  0  0  0  0  0
   11.6094    1.7016    1.1250 H   0  0  0  0  0  0  0  0  0  0  0  0
   11.6713    1.3475   -0.6089 H   0  0  0  0  0  0  0  0  0  0  0  0
    9.8537   -0.3937   -0.2262 H   0  0  0  0  0  0  0  0  0  0  0  0
    9.9711    0.0419    1.4765 H   0  0  0  0  0  0  0  0  0  0  0  0
    7.5834    0.6377    1.5476 H   0  0  0  0  0  0  0  0  0  0  0  0
    7.7859   -1.0041    0.9384 H   0  0  0  0  0  0  0  0  0  0  0  0
    0.9665   -3.1303    0.5866 O   0  0  0  0  0  0  0  0  0  0  0  0
   -5.0081    2.7161   -2.0470 C   0  0  0  0  0  0  0  0  0  0  0  0
    1.6750   -4.3237    0.8623 C   0  0  0  0  0  0  0  0  0  0  0  0
 19 20  1  1
 19 21  1  0
 19  8  1  0
 19 17  1  0
 18 17  2  0
  8 22  1  0
 10 24  1  0
 10 25  1  0
 24  9  1  0
 17 16  1  0
  9 23  1  0
 25 23  1  0
 22 23  1  0
 22 11  1  0
 16 73  1  0
 16  7  1  0
 11  7  2  0
 11 26  1  0
  7 15  1  0
 34 33  1  0
 33 32  1  0
 33 35  1  0
 26  6  2  0
 32 31  1  0
 15 14  2  0
 31 30  1  0
 35 36  1  0
 36 30  1  0
  6 14  1  0
  6 13  1  0
  4  3  2  0
  4  5  1  0
 29 30  1  0
 29 27  1  0
  3  2  1  0
 13  5  1  0
  5 12  2  0
  2 27  1  0
  2  1  2  0
 27 28  2  0
 12  1  1  0
 12 72  1  0
 72 74  1  0
  1 37  1  0
  3 38  1  0
  4 39  1  0
 73 40  1  0
 73 41  1  0
 73 42  1  0
  8 43  1  0
  8 44  1  0
  9 45  1  0
  9 46  1  0
 10 47  1  0
 10 48  1  0
 74 49  1  0
 74 50  1  0
 74 51  1  0
 13 52  1  0
 15 53  1  0
 23 54  1  6
 24 55  1  0
 24 56  1  0
 25 57  1  0
 25 58  1  0
 29 59  1  0
 30 60  1  6
 31 61  1  0
 31 62  1  0
 32 63  1  0
 32 64  1  0
 34 65  1  0
 34 66  1  0
 34 67  1  0
 35 68  1  0
 35 69  1  0
 36 70  1  0
 36 71  1  0
M  END
