
     RDKit          3D

 30 31  0  0  0  0  0  0  0  0999 V2000
   -1.5185    0.8717   -0.9562 C   0  0  0  0  0  0  0  0  0  0  0  0
   -2.6953    1.5160   -1.3042 C   0  0  0  0  0  0  0  0  0  0  0  0
   -3.6835    1.7381   -0.3488 C   0  0  0  0  0  0  0  0  0  0  0  0
   -4.8450    2.3565   -0.6320 O   0  0  0  0  0  0  0  0  0  0  0  0
   -3.4693    1.3143    0.9599 C   0  0  0  0  0  0  0  0  0  0  0  0
   -2.2897    0.6694    1.2883 C   0  0  0  0  0  0  0  0  0  0  0  0
   -1.2926    0.4292    0.3441 C   0  0  0  0  0  0  0  0  0  0  0  0
   -0.0326   -0.2832    0.7893 C   0  0  1  0  0  0  0  0  0  0  0  0
   -0.0236   -1.7782    0.4063 C   0  0  1  0  0  0  0  0  0  0  0  0
    1.4301   -2.5560    1.0626 Cl  0  0  0  0  0  0  0  0  0  0  0  0
   -1.4401   -2.5842    1.1161 Cl  0  0  0  0  0  0  0  0  0  0  0  0
   -0.0675   -2.0653   -1.3410 Cl  0  0  0  0  0  0  0  0  0  0  0  0
    1.2625    0.4374    0.4762 C   0  0  0  0  0  0  0  0  0  0  0  0
    1.9922    0.9470    1.5468 C   0  0  0  0  0  0  0  0  0  0  0  0
    3.1785    1.6395    1.3644 C   0  0  0  0  0  0  0  0  0  0  0  0
    3.6748    1.8350    0.0798 C   0  0  0  0  0  0  0  0  0  0  0  0
    4.8222    2.4939   -0.1684 O   0  0  0  0  0  0  0  0  0  0  0  0
    2.9614    1.3307   -1.0048 C   0  0  0  0  0  0  0  0  0  0  0  0
    1.7751    0.6450   -0.8045 C   0  0  0  0  0  0  0  0  0  0  0  0
   -0.7782    0.7321   -1.7303 H   0  0  0  0  0  0  0  0  0  0  0  0
   -2.8394    1.8461   -2.3267 H   0  0  0  0  0  0  0  0  0  0  0  0
   -4.8730    2.6104   -1.5614 H   0  0  0  0  0  0  0  0  0  0  0  0
   -4.2234    1.4906    1.7166 H   0  0  0  0  0  0  0  0  0  0  0  0
   -2.1426    0.3505    2.3131 H   0  0  0  0  0  0  0  0  0  0  0  0
   -0.0842   -0.3239    1.8812 H   0  0  0  0  0  0  0  0  0  0  0  0
    1.6298    0.8029    2.5576 H   0  0  0  0  0  0  0  0  0  0  0  0
    3.7151    2.0202    2.2258 H   0  0  0  0  0  0  0  0  0  0  0  0
    5.2295    2.7825    0.6560 H   0  0  0  0  0  0  0  0  0  0  0  0
    3.3380    1.4740   -2.0098 H   0  0  0  0  0  0  0  0  0  0  0  0
    1.2690    0.2685   -1.6808 H   0  0  0  0  0  0  0  0  0  0  0  0
  9 10  1  1
 11  9  1  0
  9 12  1  0
  9  8  1  0
 15 14  2  0
 15 16  1  0
 17 16  1  0
 14 13  1  0
 16 18  2  0
 13  8  1  0
 13 19  2  0
 18 19  1  0
  8  7  1  0
  7  1  2  0
  7  6  1  0
  1  2  1  0
  2  3  2  0
  6  5  2  0
  3  5  1  0
  3  4  1  0
  1 20  1  0
  2 21  1  0
  4 22  1  0
  5 23  1  0
  6 24  1  0
  8 25  1  1
 14 26  1  0
 15 27  1  0
 17 28  1  0
 18 29  1  0
 19 30  1  0
M  END
