
     RDKit          3D

 29 29  0  0  0  0  0  0  0  0999 V2000
    4.8103    0.9488    3.0314 O   0  0  0  0  0  0  0  0  0  0  0  0
    3.5538    0.8748    2.5137 C   0  0  0  0  0  0  0  0  0  0  0  0
    3.4594    0.1522    1.1730 C   0  0  1  0  0  0  0  0  0  0  0  0
    2.1718   -0.4490    0.9277 N   0  0  0  0  0  0  0  0  0  0  0  0
    3.9134    1.0860    0.0479 C   0  0  0  0  0  0  0  0  0  0  0  0
    2.7508    2.3365   -0.4066 S   0  0  0  0  0  0  0  0  0  0  0  0
    1.9762    1.6613   -1.8514 C   0  0  0  0  0  0  0  0  0  0  0  0
    0.9920    2.6931   -2.3360 C   0  0  0  0  0  0  0  0  0  0  0  0
    0.3349    2.2867   -3.6292 C   0  0  0  0  0  0  0  0  0  0  0  0
    0.6661    1.2571   -4.2317 O   0  0  0  0  0  0  0  0  0  0  0  0
   -0.7115    3.1765   -4.1261 C   0  0  0  0  0  0  0  0  0  0  0  0
   -0.8080    4.5461   -3.8853 C   0  0  0  0  0  0  0  0  0  0  0  0
   -1.9875    2.6555   -5.0853 S   0  0  0  0  0  0  0  0  0  0  0  0
   -2.6705    4.1532   -5.2060 C   0  0  0  0  0  0  0  0  0  0  0  0
   -1.9487    5.1124   -4.5160 C   0  0  0  0  0  0  0  0  0  0  0  0
    2.6453    1.3896    3.1713 O   0  0  0  0  0  0  0  0  0  0  0  0
    4.7864    1.4207    3.8808 H   0  0  0  0  0  0  0  0  0  0  0  0
    4.2166   -0.6919    1.2399 H   0  0  0  0  0  0  0  0  0  0  0  0
    1.9341   -1.0847    1.6648 H   0  0  0  0  0  0  0  0  0  0  0  0
    1.4588    0.2539    0.8528 H   0  0  0  0  0  0  0  0  0  0  0  0
    4.1737    0.4673   -0.8462 H   0  0  0  0  0  0  0  0  0  0  0  0
    4.8352    1.6251    0.3857 H   0  0  0  0  0  0  0  0  0  0  0  0
    1.4580    0.6993   -1.6197 H   0  0  0  0  0  0  0  0  0  0  0  0
    2.7383    1.4457   -2.6406 H   0  0  0  0  0  0  0  0  0  0  0  0
    1.5131    3.6764   -2.5009 H   0  0  0  0  0  0  0  0  0  0  0  0
    0.1912    2.8568   -1.5644 H   0  0  0  0  0  0  0  0  0  0  0  0
   -0.1048    5.1351   -3.2909 H   0  0  0  0  0  0  0  0  0  0  0  0
   -3.5839    4.3506   -5.7670 H   0  0  0  0  0  0  0  0  0  0  0  0
   -2.2085    6.1712   -4.4538 H   0  0  0  0  0  0  0  0  0  0  0  0
  1  2  1  0
  1 17  1  0
  2 16  2  0
  2  3  1  0
  3  5  1  0
  3  4  1  0
  3 18  1  1
  4 19  1  0
  4 20  1  0
  5  6  1  0
  5 21  1  0
  5 22  1  0
  6  7  1  0
  7  8  1  0
  7 23  1  0
  7 24  1  0
  8  9  1  0
  8 25  1  0
  8 26  1  0
  9 10  2  0
  9 11  1  0
 11 12  2  0
 11 13  1  0
 12 15  1  0
 12 27  1  0
 13 14  1  0
 14 15  2  0
 14 28  1  0
 15 29  1  0
M  END
