
     RDKit          3D

 62 65  0  0  0  0  0  0  0  0999 V2000
    4.1774    1.0375    2.5395 C   0  0  0  0  0  0  0  0  0  0  0  0
    2.9410    1.2745    3.2482 N   0  0  0  0  0  0  0  0  0  0  0  0
    2.7586    1.1537    4.5793 C   0  0  0  0  0  0  0  0  0  0  0  0
    1.5321    1.4348    4.9392 N   0  0  0  0  0  0  0  0  0  0  0  0
    0.8876    1.7503    3.7804 C   0  0  0  0  0  0  0  0  0  0  0  0
    1.7398    1.6626    2.7136 C   0  0  0  0  0  0  0  0  0  0  0  0
    1.4866    1.9063    1.2666 C   0  0  0  0  0  0  0  0  0  0  0  0
    1.5497    0.6953    0.4582 N   0  0  0  0  0  0  0  0  0  0  0  0
    2.4030    0.5296   -0.5929 C   0  0  0  0  0  0  0  0  0  0  0  0
    2.3023   -0.6012   -1.4354 C   0  0  0  0  0  0  0  0  0  0  0  0
    3.1752   -0.8028   -2.4790 C   0  0  0  0  0  0  0  0  0  0  0  0
    4.1944    0.1128   -2.7485 C   0  0  0  0  0  0  0  0  0  0  0  0
    5.0928   -0.0964   -3.8269 C   0  0  0  0  0  0  0  0  0  0  0  0
    5.8227   -0.2668   -4.7050 N   0  0  0  0  0  0  0  0  0  0  0  0
    4.3063    1.2407   -1.9326 C   0  0  0  0  0  0  0  0  0  0  0  0
    3.4370    1.4466   -0.8858 C   0  0  0  0  0  0  0  0  0  0  0  0
    0.4847   -0.2485    0.7230 C   0  0  0  0  0  0  0  0  0  0  0  0
   -0.7624    0.0365   -0.1130 C   0  0  0  0  0  0  0  0  0  0  0  0
   -1.8101   -0.9510    0.1448 N   0  0  0  0  0  0  0  0  0  0  0  0
   -2.9277   -0.5561    1.2914 S   0  0  1  0  0  0  0  0  0  0  0  0
   -3.7347   -1.7395    1.5293 O   0  0  0  0  0  0  0  0  0  0  0  0
   -2.2114    0.0687    2.3921 O   0  0  0  0  0  0  0  0  0  0  0  0
   -3.9386    0.6845    0.5985 C   0  0  0  0  0  0  0  0  0  0  0  0
   -3.9383    2.0148    0.9189 C   0  0  0  0  0  0  0  0  0  0  0  0
   -4.8505    2.5673    0.0810 N   0  0  0  0  0  0  0  0  0  0  0  0
   -5.2162    3.9679    0.0146 C   0  0  0  0  0  0  0  0  0  0  0  0
   -5.3417    1.5734   -0.6953 C   0  0  0  0  0  0  0  0  0  0  0  0
   -4.8098    0.4156   -0.4086 N   0  0  0  0  0  0  0  0  0  0  0  0
   -2.2413   -1.7570   -0.9989 C   0  0  0  0  0  0  0  0  0  0  0  0
   -1.0976   -2.5868   -1.5173 C   0  0  0  0  0  0  0  0  0  0  0  0
   -0.4421   -3.4904   -0.6825 C   0  0  0  0  0  0  0  0  0  0  0  0
    0.6147   -4.2497   -1.1610 C   0  0  0  0  0  0  0  0  0  0  0  0
    1.0272   -4.1195   -2.4835 C   0  0  0  0  0  0  0  0  0  0  0  0
    0.3751   -3.2273   -3.3215 C   0  0  0  0  0  0  0  0  0  0  0  0
   -0.6793   -2.4617   -2.8366 C   0  0  0  0  0  0  0  0  0  0  0  0
    4.0556    0.2518    1.7977 H   0  0  0  0  0  0  0  0  0  0  0  0
    4.5229    1.9446    2.0475 H   0  0  0  0  0  0  0  0  0  0  0  0
    4.9363    0.7254    3.2518 H   0  0  0  0  0  0  0  0  0  0  0  0
    3.5616    0.8555    5.2377 H   0  0  0  0  0  0  0  0  0  0  0  0
   -0.1586    2.0181    3.7548 H   0  0  0  0  0  0  0  0  0  0  0  0
    0.4876    2.3432    1.1831 H   0  0  0  0  0  0  0  0  0  0  0  0
    2.1599    2.6630    0.8713 H   0  0  0  0  0  0  0  0  0  0  0  0
    1.5298   -1.3408   -1.2888 H   0  0  0  0  0  0  0  0  0  0  0  0
    3.0592   -1.6831   -3.0974 H   0  0  0  0  0  0  0  0  0  0  0  0
    5.0858    1.9681   -2.1162 H   0  0  0  0  0  0  0  0  0  0  0  0
    3.5862    2.3351   -0.2915 H   0  0  0  0  0  0  0  0  0  0  0  0
    0.8226   -1.2715    0.5585 H   0  0  0  0  0  0  0  0  0  0  0  0
    0.2362   -0.1856    1.7816 H   0  0  0  0  0  0  0  0  0  0  0  0
   -1.1195    1.0555    0.0680 H   0  0  0  0  0  0  0  0  0  0  0  0
   -0.5231   -0.0044   -1.1767 H   0  0  0  0  0  0  0  0  0  0  0  0
   -3.3920    2.5876    1.6492 H   0  0  0  0  0  0  0  0  0  0  0  0
   -4.3765    4.5618   -0.3388 H   0  0  0  0  0  0  0  0  0  0  0  0
   -6.0468    4.0823   -0.6757 H   0  0  0  0  0  0  0  0  0  0  0  0
   -5.5214    4.3226    0.9955 H   0  0  0  0  0  0  0  0  0  0  0  0
   -6.0909    1.7542   -1.4509 H   0  0  0  0  0  0  0  0  0  0  0  0
   -3.0515   -2.4123   -0.6831 H   0  0  0  0  0  0  0  0  0  0  0  0
   -2.6332   -1.1222   -1.7995 H   0  0  0  0  0  0  0  0  0  0  0  0
   -0.7564   -3.5957    0.3493 H   0  0  0  0  0  0  0  0  0  0  0  0
    1.1181   -4.9458   -0.5027 H   0  0  0  0  0  0  0  0  0  0  0  0
    1.8539   -4.7109   -2.8555 H   0  0  0  0  0  0  0  0  0  0  0  0
    0.6912   -3.1171   -4.3508 H   0  0  0  0  0  0  0  0  0  0  0  0
   -1.1768   -1.7564   -3.4918 H   0  0  0  0  0  0  0  0  0  0  0  0
  1  2  1  0
  1 36  1  0
  1 37  1  0
  1 38  1  0
  6  2  1  0
  2  3  1  0
  3  4  2  0
  3 39  1  0
  5  4  1  0
  6  5  2  0
  5 40  1  0
  7  6  1  0
  8  7  1  0
  7 41  1  0
  7 42  1  0
 17  8  1  0
  8  9  1  0
 10  9  2  0
  9 16  1  0
 10 11  1  0
 10 43  1  0
 11 12  2  0
 11 44  1  0
 12 15  1  0
 12 13  1  0
 13 14  3  0
 16 15  2  0
 15 45  1  0
 16 46  1  0
 17 18  1  0
 17 47  1  0
 17 48  1  0
 19 18  1  0
 18 49  1  0
 18 50  1  0
 29 19  1  0
 20 19  1  6
 22 20  2  0
 20 21  2  0
 20 23  1  0
 24 23  2  0
 23 28  1  0
 24 25  1  0
 24 51  1  0
 26 25  1  0
 25 27  1  0
 26 52  1  0
 26 53  1  0
 26 54  1  0
 28 27  2  0
 27 55  1  0
 30 29  1  0
 29 56  1  0
 29 57  1  0
 35 30  1  0
 30 31  2  0
 31 32  1  0
 31 58  1  0
 33 32  2  0
 32 59  1  0
 34 33  1  0
 33 60  1  0
 35 34  2  0
 34 61  1  0
 35 62  1  0
M  END
