
     RDKit          3D

 23 23  0  0  0  0  0  0  0  0999 V2000
   -0.1582   -1.0408    0.1609 N   0  0  0  0  0  0  0  0  0  0  0  0
    1.1109   -1.5188    0.6569 C   0  0  1  0  0  0  0  0  0  0  0  0
    1.4474   -0.9033    2.0324 C   0  0  0  0  0  0  0  0  0  0  0  0
    2.8835   -1.0602    2.3922 C   0  0  0  0  0  0  0  0  0  0  0  0
    3.8550   -0.2133    1.8194 C   0  0  0  0  0  0  0  0  0  0  0  0
    3.4927    0.7460    0.9398 F   0  0  0  0  0  0  0  0  0  0  0  0
    3.3017   -2.0486    3.3064 C   0  0  0  0  0  0  0  0  0  0  0  0
    2.4066   -2.8825    3.8800 F   0  0  0  0  0  0  0  0  0  0  0  0
    5.2279   -0.3455    2.1487 C   0  0  0  0  0  0  0  0  0  0  0  0
    6.1408    0.4749    1.5889 F   0  0  0  0  0  0  0  0  0  0  0  0
    4.6713   -2.1956    3.6475 C   0  0  0  0  0  0  0  0  0  0  0  0
    5.0510   -3.1482    4.5240 F   0  0  0  0  0  0  0  0  0  0  0  0
    5.6377   -1.3409    3.0667 C   0  0  0  0  0  0  0  0  0  0  0  0
    6.9406   -1.4741    3.3858 F   0  0  0  0  0  0  0  0  0  0  0  0
    1.1568   -3.0400    0.7824 C   0  0  0  0  0  0  0  0  0  0  0  0
    0.2879   -3.7922    1.2319 O   0  0  0  0  0  0  0  0  0  0  0  0
    2.3071   -3.6105    0.3373 O   0  0  0  0  0  0  0  0  0  0  0  0
   -0.3145   -1.3528   -0.7762 H   0  0  0  0  0  0  0  0  0  0  0  0
   -0.9134   -1.3375    0.7472 H   0  0  0  0  0  0  0  0  0  0  0  0
    1.9114   -1.2074   -0.0819 H   0  0  0  0  0  0  0  0  0  0  0  0
    1.2151    0.1988    1.9936 H   0  0  0  0  0  0  0  0  0  0  0  0
    0.7902   -1.3637    2.8178 H   0  0  0  0  0  0  0  0  0  0  0  0
    2.2616   -4.5750    0.4493 H   0  0  0  0  0  0  0  0  0  0  0  0
  1  2  1  0
  1 18  1  0
  1 19  1  0
  2 15  1  0
  2  3  1  0
  2 20  1  6
  3  4  1  0
  3 21  1  0
  3 22  1  0
  4  7  2  0
  4  5  1  0
  5  9  2  0
  5  6  1  0
  7  8  1  0
  7 11  1  0
  9 13  1  0
  9 10  1  0
 11 12  1  0
 11 13  2  0
 13 14  1  0
 15 16  2  0
 15 17  1  0
 17 23  1  0
M  END
