
     RDKit          3D

 22 23  0  0  0  0  0  0  0  0999 V2000
    0.3418    0.7255   -0.0685 C   0  0  0  0  0  0  0  0  0  0  0  0
    0.6532    2.0125   -0.1031 O   0  0  0  0  0  0  0  0  0  0  0  0
    1.2967   -0.2878   -0.0547 C   0  0  0  0  0  0  0  0  0  0  0  0
    3.0988    1.2463   -0.1083 O   0  0  0  0  0  0  0  0  0  0  0  0
    0.8797   -1.6449   -0.0159 C   0  0  0  0  0  0  0  0  0  0  0  0
    3.5471   -0.9326   -0.0685 O   0  0  0  0  0  0  0  0  0  0  0  0
   -0.4378   -1.9759    0.0080 C   0  0  0  0  0  0  0  0  0  0  0  0
   -2.8078   -1.2781    0.0187 C   0  0  0  0  0  0  0  0  0  0  0  0
   -3.7546   -0.2879    0.0046 C   0  0  0  0  0  0  0  0  0  0  0  0
   -3.3686    1.0644   -0.0346 C   0  0  0  0  0  0  0  0  0  0  0  0
   -2.0410    1.4034   -0.0585 C   0  0  0  0  0  0  0  0  0  0  0  0
    2.7104    0.0857   -0.0796 C   0  0  0  0  0  0  0  0  0  0  0  0
   -1.4324   -0.9623   -0.0059 C   0  0  0  0  0  0  0  0  0  0  0  0
   -1.0480    0.3994   -0.0447 C   0  0  0  0  0  0  0  0  0  0  0  0
    1.6358    2.0873   -0.1130 H   0  0  0  0  0  0  0  0  0  0  0  0
    1.6240   -2.4284   -0.0046 H   0  0  0  0  0  0  0  0  0  0  0  0
    4.4628   -0.6154   -0.0856 H   0  0  0  0  0  0  0  0  0  0  0  0
   -0.7404   -3.0146    0.0387 H   0  0  0  0  0  0  0  0  0  0  0  0
   -3.1060   -2.3190    0.0499 H   0  0  0  0  0  0  0  0  0  0  0  0
   -4.8061   -0.5432    0.0240 H   0  0  0  0  0  0  0  0  0  0  0  0
   -4.1240    1.8384   -0.0457 H   0  0  0  0  0  0  0  0  0  0  0  0
   -1.7568    2.4462   -0.0888 H   0  0  0  0  0  0  0  0  0  0  0  0
 14  1  2  0
  1  3  1  0
  1  2  1  0
  2 15  1  0
  5  3  2  0
  3 12  1  0
 12  4  2  0
  7  5  1  0
  5 16  1  0
 12  6  1  0
  6 17  1  0
 13  7  2  0
  7 18  1  0
  9  8  2  0
  8 13  1  0
  8 19  1  0
  9 10  1  0
  9 20  1  0
 10 11  2  0
 10 21  1  0
 11 14  1  0
 11 22  1  0
 13 14  1  0
M  END
