
     RDKit          3D

 58 61  0  0  0  0  0  0  0  0999 V2000
   -3.5187    1.1211    0.1709 C   0  0  0  0  0  0  0  0  0  0  0  0
   -2.9760   -0.1687    0.1657 N   0  0  0  0  0  0  0  0  0  0  0  0
   -2.8812    2.0724   -0.1959 O   0  0  0  0  0  0  0  0  0  0  0  0
    3.5312    3.0007   -0.0694 Cl  0  0  0  0  0  0  0  0  0  0  0  0
   -1.6155   -0.4231    0.2070 C   0  0  0  0  0  0  0  0  0  0  0  0
    1.8469    0.5938    0.1182 N   0  0  0  0  0  0  0  0  0  0  0  0
    8.0419    0.3179   -1.1124 O   0  0  0  0  0  0  0  0  0  0  0  0
   -0.5143    0.4054    0.1096 C   0  0  0  0  0  0  0  0  0  0  0  0
    8.0796   -1.2467    0.5155 N   0  0  0  0  0  0  0  0  0  0  0  0
   -5.7369   -1.0693   -0.8944 O   0  0  0  0  0  0  0  0  0  0  0  0
    0.7354   -0.2187    0.2124 C   0  0  0  0  0  0  0  0  0  0  0  0
    0.8991   -1.5282    0.3954 N   0  0  0  0  0  0  0  0  0  0  0  0
   -4.7374    1.1037    0.6398 O   0  0  0  0  0  0  0  0  0  0  0  0
    3.1888    0.2990    0.0705 C   0  0  0  0  0  0  0  0  0  0  0  0
   -7.2258   -2.1489    0.3127 N   0  0  0  0  0  0  0  0  0  0  0  0
    3.7314   -0.9930    0.0983 C   0  0  0  0  0  0  0  0  0  0  0  0
    5.0977   -1.1971    0.0411 C   0  0  0  0  0  0  0  0  0  0  0  0
    5.9896   -0.1354   -0.0577 C   0  0  0  0  0  0  0  0  0  0  0  0
    7.4568   -0.3273   -0.2488 C   0  0  0  0  0  0  0  0  0  0  0  0
    9.4515   -1.6055    0.2201 C   0  0  0  0  0  0  0  0  0  0  0  0
    7.5822   -1.7462    1.7825 C   0  0  0  0  0  0  0  0  0  0  0  0
    5.4701    1.1529   -0.1136 C   0  0  0  0  0  0  0  0  0  0  0  0
    4.1098    1.3611   -0.0298 C   0  0  0  0  0  0  0  0  0  0  0  0
   -0.1652   -2.3059    0.4911 C   0  0  0  0  0  0  0  0  0  0  0  0
   -1.4545   -1.8075    0.4082 C   0  0  0  0  0  0  0  0  0  0  0  0
   -2.7562   -2.3935    0.4546 C   0  0  0  0  0  0  0  0  0  0  0  0
   -3.6579   -1.3949    0.3061 C   0  0  0  0  0  0  0  0  0  0  0  0
   -5.0890   -1.5587    0.1937 C   0  0  0  0  0  0  0  0  0  0  0  0
   -6.0003   -2.2257    0.9362 C   0  0  0  0  0  0  0  0  0  0  0  0
   -7.0072   -1.4579   -0.7489 C   0  0  0  0  0  0  0  0  0  0  0  0
   -5.6088    2.2849    0.6485 C   0  0  1  0  0  0  0  0  0  0  0  0
   -5.8581    2.7596   -0.7752 C   0  0  0  0  0  0  0  0  0  0  0  0
   -6.8963    1.7508    1.2587 C   0  0  0  0  0  0  0  0  0  0  0  0
   -5.0242    3.3770    1.5324 C   0  0  0  0  0  0  0  0  0  0  0  0
    1.6248    1.5734    0.0253 H   0  0  0  0  0  0  0  0  0  0  0  0
   -0.5885    1.4698   -0.0497 H   0  0  0  0  0  0  0  0  0  0  0  0
    3.0692   -1.8390    0.1634 H   0  0  0  0  0  0  0  0  0  0  0  0
    5.4611   -2.2170    0.0550 H   0  0  0  0  0  0  0  0  0  0  0  0
   10.1598   -1.0031    0.7943 H   0  0  0  0  0  0  0  0  0  0  0  0
    9.6051   -2.6520    0.4816 H   0  0  0  0  0  0  0  0  0  0  0  0
    9.6657   -1.4819   -0.8373 H   0  0  0  0  0  0  0  0  0  0  0  0
    7.3390   -2.8088    1.7285 H   0  0  0  0  0  0  0  0  0  0  0  0
    8.3518   -1.6130    2.5447 H   0  0  0  0  0  0  0  0  0  0  0  0
    6.7019   -1.2018    2.1082 H   0  0  0  0  0  0  0  0  0  0  0  0
    6.1303    2.0045   -0.2102 H   0  0  0  0  0  0  0  0  0  0  0  0
    0.0153   -3.3647    0.6402 H   0  0  0  0  0  0  0  0  0  0  0  0
   -2.9942   -3.4424    0.5314 H   0  0  0  0  0  0  0  0  0  0  0  0
   -5.8532   -2.7398    1.8722 H   0  0  0  0  0  0  0  0  0  0  0  0
   -7.7095   -1.1649   -1.5143 H   0  0  0  0  0  0  0  0  0  0  0  0
   -6.2454    1.9487   -1.3937 H   0  0  0  0  0  0  0  0  0  0  0  0
   -6.6094    3.5492   -0.7573 H   0  0  0  0  0  0  0  0  0  0  0  0
   -4.9659    3.1664   -1.2464 H   0  0  0  0  0  0  0  0  0  0  0  0
   -6.7329    1.3659    2.2658 H   0  0  0  0  0  0  0  0  0  0  0  0
   -7.6310    2.5529    1.3202 H   0  0  0  0  0  0  0  0  0  0  0  0
   -7.3257    0.9558    0.6488 H   0  0  0  0  0  0  0  0  0  0  0  0
   -4.1284    3.8267    1.1107 H   0  0  0  0  0  0  0  0  0  0  0  0
   -5.7679    4.1663    1.6465 H   0  0  0  0  0  0  0  0  0  0  0  0
   -4.7932    2.9953    2.5277 H   0  0  0  0  0  0  0  0  0  0  0  0
  1  2  1  0
  1  3  2  0
  1 13  1  0
  2  5  1  0
  2 27  1  0
  4 23  1  0
  5  8  2  0
  5 25  1  0
  6 11  1  0
  6 14  1  0
  7 19  2  0
  8 11  1  0
  9 19  1  0
  9 20  1  0
  9 21  1  0
 10 28  1  0
 10 30  1  0
 11 12  2  0
 12 24  1  0
 31 13  1  6
 14 16  2  0
 14 23  1  0
 15 29  1  0
 15 30  2  0
 16 17  1  0
 17 18  2  0
 18 19  1  0
 18 22  1  0
 22 23  2  0
 24 25  2  0
 25 26  1  0
 26 27  2  0
 27 28  1  0
 28 29  2  0
 31 32  1  0
 31 33  1  0
 31 34  1  0
  6 35  1  0
  8 36  1  0
 16 37  1  0
 17 38  1  0
 20 39  1  0
 20 40  1  0
 20 41  1  0
 21 42  1  0
 21 43  1  0
 21 44  1  0
 22 45  1  0
 24 46  1  0
 26 47  1  0
 29 48  1  0
 30 49  1  0
 32 50  1  0
 32 51  1  0
 32 52  1  0
 33 53  1  0
 33 54  1  0
 33 55  1  0
 34 56  1  0
 34 57  1  0
 34 58  1  0
M  END
