
     RDKit          3D

 50 53  0  0  0  0  0  0  0  0999 V2000
   -1.8496    2.4997   -0.3054 C   0  0  0  0  0  0  0  0  0  0  0  0
   -2.9289    3.3249   -0.5171 N   0  0  0  0  0  0  0  0  0  0  0  0
    2.0539    3.1341    1.1320 O   0  0  0  0  0  0  0  0  0  0  0  0
   -2.2344    1.1570   -0.4643 C   0  0  0  0  0  0  0  0  0  0  0  0
   -3.9108    2.5157   -0.7889 C   0  0  0  0  0  0  0  0  0  0  0  0
    2.7251    1.2695    0.0477 N   0  0  0  0  0  0  0  0  0  0  0  0
    4.1364    1.4344    0.3048 C   0  0  0  0  0  0  0  0  0  0  0  0
    4.8099    0.1052    0.5253 C   0  0  0  0  0  0  0  0  0  0  0  0
    4.2980   -0.8112    1.4412 C   0  0  0  0  0  0  0  0  0  0  0  0
    4.9375   -2.0224    1.6514 C   0  0  0  0  0  0  0  0  0  0  0  0
    6.0960   -2.3429    0.9549 C   0  0  0  0  0  0  0  0  0  0  0  0
    6.5957   -1.4257    0.0466 C   0  0  0  0  0  0  0  0  0  0  0  0
    8.0375   -1.8040   -0.8408 Cl  0  0  0  0  0  0  0  0  0  0  0  0
    5.9655   -0.2103   -0.1782 C   0  0  0  0  0  0  0  0  0  0  0  0
    0.3756    1.7742    0.1496 C   0  0  0  0  0  0  0  0  0  0  0  0
   -0.5347    2.8131    0.0177 C   0  0  0  0  0  0  0  0  0  0  0  0
   -0.0341    0.4354   -0.0058 C   0  0  0  0  0  0  0  0  0  0  0  0
   -1.3403    0.1038   -0.3082 C   0  0  0  0  0  0  0  0  0  0  0  0
   -3.5641    1.2016   -0.7810 N   0  0  0  0  0  0  0  0  0  0  0  0
   -4.9072   -0.5264    0.3404 C   0  0  0  0  0  0  0  0  0  0  0  0
   -5.7859   -1.6485    0.1280 N   0  0  0  0  0  0  0  0  0  0  0  0
   -6.0234   -2.4292    1.3312 C   0  0  0  0  0  0  0  0  0  0  0  0
   -7.1860   -3.3452    0.9493 C   0  0  0  0  0  0  0  0  0  0  0  0
   -7.9254   -2.5771   -0.1669 C   0  0  0  0  0  0  0  0  0  0  0  0
   -7.1141   -1.2929   -0.3481 C   0  0  0  0  0  0  0  0  0  0  0  0
   -4.9234    2.8184   -1.0152 H   0  0  0  0  0  0  0  0  0  0  0  0
   -5.2980    0.4302   -1.5704 H   0  0  0  0  0  0  0  0  0  0  0  0
   -3.9352   -0.6758   -1.5841 H   0  0  0  0  0  0  0  0  0  0  0  0
    2.4625    0.5645   -0.6230 H   0  0  0  0  0  0  0  0  0  0  0  0
    4.6245    1.9657   -0.5171 H   0  0  0  0  0  0  0  0  0  0  0  0
    4.2469    2.0591    1.1915 H   0  0  0  0  0  0  0  0  0  0  0  0
    3.3946   -0.5789    1.9911 H   0  0  0  0  0  0  0  0  0  0  0  0
    4.5347   -2.7288    2.3649 H   0  0  0  0  0  0  0  0  0  0  0  0
    6.5935   -3.2892    1.1177 H   0  0  0  0  0  0  0  0  0  0  0  0
    6.3715    0.4873   -0.8999 H   0  0  0  0  0  0  0  0  0  0  0  0
   -0.2288    3.8428    0.1489 H   0  0  0  0  0  0  0  0  0  0  0  0
    0.6752   -0.3684    0.1430 H   0  0  0  0  0  0  0  0  0  0  0  0
   -1.6410   -0.9308   -0.4093 H   0  0  0  0  0  0  0  0  0  0  0  0
   -4.0292   -0.8722    0.8928 H   0  0  0  0  0  0  0  0  0  0  0  0
   -5.3797    0.2609    0.9531 H   0  0  0  0  0  0  0  0  0  0  0  0
   -5.1229   -2.9721    1.6260 H   0  0  0  0  0  0  0  0  0  0  0  0
   -6.3100   -1.7866    2.1804 H   0  0  0  0  0  0  0  0  0  0  0  0
   -6.8185   -4.3029    0.5802 H   0  0  0  0  0  0  0  0  0  0  0  0
   -7.8250   -3.5547    1.8066 H   0  0  0  0  0  0  0  0  0  0  0  0
   -7.9440   -3.1573   -1.0898 H   0  0  0  0  0  0  0  0  0  0  0  0
   -8.9598   -2.3555    0.0935 H   0  0  0  0  0  0  0  0  0  0  0  0
   -7.5452   -0.4766    0.2557 H   0  0  0  0  0  0  0  0  0  0  0  0
   -7.0930   -0.9530   -1.3850 H   0  0  0  0  0  0  0  0  0  0  0  0
   -4.4500    0.0759   -0.9845 C   0  0  0  0  0  0  0  0  0  0  0  0
    1.7852    2.1262    0.4920 C   0  0  0  0  0  0  0  0  0  0  0  0
 24 23  1  0
 24 25  1  0
 23 22  1  0
 25 21  1  0
 22 21  1  0
 21 20  1  0
 20 49  1  0
 49 19  1  0
 18  4  1  0
 18 17  2  0
 19  4  1  0
 19  5  1  0
  4  1  2  0
 17 15  1  0
  5  2  2  0
  3 50  2  0
  1  2  1  0
  1 16  1  0
 15 16  2  0
 15 50  1  0
 50  6  1  0
  6  7  1  0
  7  8  1  0
  8 14  1  0
  8  9  2  0
 14 12  2  0
  9 10  1  0
 12 13  1  0
 12 11  1  0
 10 11  2  0
  5 26  1  0
 49 27  1  0
 49 28  1  0
  6 29  1  0
  7 30  1  0
  7 31  1  0
  9 32  1  0
 10 33  1  0
 11 34  1  0
 14 35  1  0
 16 36  1  0
 17 37  1  0
 18 38  1  0
 20 39  1  0
 20 40  1  0
 22 41  1  0
 22 42  1  0
 23 43  1  0
 23 44  1  0
 24 45  1  0
 24 46  1  0
 25 47  1  0
 25 48  1  0
M  END
