
     RDKit          3D

 49 52  0  0  0  0  0  0  0  0999 V2000
   -3.8806   -2.0721   -0.0757 C   0  0  0  0  0  0  0  0  0  0  0  0
    0.2898    0.8752   -0.0251 C   0  0  0  0  0  0  0  0  0  0  0  0
    3.5961   -1.8505   -1.7022 C   0  0  0  0  0  0  0  0  0  0  0  0
    5.3987    0.1715   -0.5387 C   0  0  0  0  0  0  0  0  0  0  0  0
    4.6634   -0.8378    0.3433 C   0  0  1  0  0  0  0  0  0  0  0  0
    4.3727   -0.3926    1.7592 C   0  0  0  0  0  0  0  0  0  0  0  0
    0.7576    2.2142   -0.0962 C   0  0  0  0  0  0  0  0  0  0  0  0
   -2.7473    2.6642   -0.0911 C   0  0  0  0  0  0  0  0  0  0  0  0
   -3.7062    1.6951   -0.0330 C   0  0  0  0  0  0  0  0  0  0  0  0
   -3.2986    0.3401    0.0494 C   0  0  0  0  0  0  0  0  0  0  0  0
   -4.2930   -0.7516    0.1220 C   0  0  0  0  0  0  0  0  0  0  0  0
   -5.6396   -0.5067    0.3946 C   0  0  0  0  0  0  0  0  0  0  0  0
   -6.5499   -1.5516    0.4610 C   0  0  0  0  0  0  0  0  0  0  0  0
   -6.1306   -2.8583    0.2551 C   0  0  0  0  0  0  0  0  0  0  0  0
   -4.7909   -3.1138   -0.0128 C   0  0  0  0  0  0  0  0  0  0  0  0
   -2.0350   -0.0102    0.0571 N   0  0  0  0  0  0  0  0  0  0  0  0
   -1.1026    0.9395   -0.0012 C   0  0  0  0  0  0  0  0  0  0  0  0
    2.3902   -0.2112   -0.2899 N   0  0  0  0  0  0  0  0  0  0  0  0
    3.3420   -1.3038   -0.2971 C   0  0  1  0  0  0  0  0  0  0  0  0
    4.3398   -0.8566   -2.5861 C   0  0  0  0  0  0  0  0  0  0  0  0
    5.6409   -0.4084   -1.9296 C   0  0  0  0  0  0  0  0  0  0  0  0
    4.7083    0.8642    2.0108 O   0  0  0  0  0  0  0  0  0  0  0  0
    3.8736   -1.1152    2.5880 O   0  0  0  0  0  0  0  0  0  0  0  0
    0.5991   -1.4401    0.3450 O   0  0  0  0  0  0  0  0  0  0  0  0
   -0.3077    3.0656   -0.1205 C   0  0  0  0  0  0  0  0  0  0  0  0
   -1.4437    2.2927   -0.0675 N   0  0  0  0  0  0  0  0  0  0  0  0
   -2.8376   -2.2742   -0.2785 H   0  0  0  0  0  0  0  0  0  0  0  0
    4.1869   -2.7674   -1.6088 H   0  0  0  0  0  0  0  0  0  0  0  0
    2.6427   -2.1375   -2.1512 H   0  0  0  0  0  0  0  0  0  0  0  0
    4.8290    1.1026   -0.6283 H   0  0  0  0  0  0  0  0  0  0  0  0
    6.3505    0.4447   -0.0799 H   0  0  0  0  0  0  0  0  0  0  0  0
    5.2954   -1.7296    0.4336 H   0  0  0  0  0  0  0  0  0  0  0  0
    1.7848    2.5459   -0.1040 H   0  0  0  0  0  0  0  0  0  0  0  0
   -3.8743    4.1834   -0.1981 H   0  0  0  0  0  0  0  0  0  0  0  0
   -4.7464    1.9821   -0.0742 H   0  0  0  0  0  0  0  0  0  0  0  0
   -5.9947    0.4986    0.5774 H   0  0  0  0  0  0  0  0  0  0  0  0
   -7.5890   -1.3411    0.6775 H   0  0  0  0  0  0  0  0  0  0  0  0
   -6.8417   -3.6722    0.3054 H   0  0  0  0  0  0  0  0  0  0  0  0
   -4.4541   -4.1295   -0.1742 H   0  0  0  0  0  0  0  0  0  0  0  0
    2.6787    0.6576   -0.7092 H   0  0  0  0  0  0  0  0  0  0  0  0
    2.9186   -2.0968    0.3175 H   0  0  0  0  0  0  0  0  0  0  0  0
    4.5429   -1.3091   -3.5589 H   0  0  0  0  0  0  0  0  0  0  0  0
    3.7074    0.0158   -2.7853 H   0  0  0  0  0  0  0  0  0  0  0  0
    6.1454    0.3327   -2.5528 H   0  0  0  0  0  0  0  0  0  0  0  0
    6.3203   -1.2636   -1.8509 H   0  0  0  0  0  0  0  0  0  0  0  0
    4.4917    1.0848    2.9298 H   0  0  0  0  0  0  0  0  0  0  0  0
   -0.3453    4.1398   -0.1588 H   0  0  0  0  0  0  0  0  0  0  0  0
    1.0791   -0.3597    0.0269 C   0  0  0  0  0  0  0  0  0  0  0  0
   -2.9330    3.9654   -0.1779 O   0  0  0  0  0  0  0  0  0  0  0  0
 23  6  2  0
  6  5  1  0
  6 22  1  0
  5 19  1  0
  5  4  1  0
 19  3  1  0
 19 18  1  0
 20  3  1  0
 20 21  1  0
  4 21  1  0
 24 48  2  0
 18 48  1  0
 48  2  1  0
  2  7  1  0
  2 17  2  0
  7 25  2  0
 17 16  1  0
 17 26  1  0
 16 10  2  0
 13 12  2  0
 13 14  1  0
 12 11  1  0
 25 26  1  0
 26  8  1  0
 10 11  1  0
 10  9  1  0
 11  1  2  0
 14 15  2  0
  8  9  2  0
  8 49  1  0
  1 15  1  0
  1 27  1  0
  3 28  1  0
  3 29  1  0
  4 30  1  0
  4 31  1  0
  5 32  1  1
  7 33  1  0
 49 34  1  0
  9 35  1  0
 12 36  1  0
 13 37  1  0
 14 38  1  0
 15 39  1  0
 18 40  1  0
 19 41  1  1
 20 42  1  0
 20 43  1  0
 21 44  1  0
 21 45  1  0
 22 46  1  0
 25 47  1  0
M  END
