
     RDKit          3D

 56 59  0  0  0  0  0  0  0  0999 V2000
   -1.9976   -0.1048    1.4897 C   0  0  0  0  0  0  0  0  0  0  0  0
   -0.6751    0.1624    1.8029 C   0  0  0  0  0  0  0  0  0  0  0  0
    0.2762    0.2902    0.7947 C   0  0  0  0  0  0  0  0  0  0  0  0
   -0.1283    0.1784   -0.5337 C   0  0  0  0  0  0  0  0  0  0  0  0
   -1.4556   -0.0737   -0.8448 C   0  0  0  0  0  0  0  0  0  0  0  0
   -2.4022   -0.2318    0.1631 C   0  0  0  0  0  0  0  0  0  0  0  0
   -3.8229   -0.5212   -0.1606 C   0  0  0  0  0  0  0  0  0  0  0  0
    1.6884    0.5850    1.1861 C   0  0  0  0  0  0  0  0  0  0  0  0
    1.9460    1.1790    2.2253 O   0  0  0  0  0  0  0  0  0  0  0  0
    2.6392    0.1637    0.3381 N   0  0  0  0  0  0  0  0  0  0  0  0
    4.0481    0.3813    0.5877 C   0  0  0  0  0  0  0  0  0  0  0  0
    4.8516    0.0581   -0.6653 C   0  0  0  0  0  0  0  0  0  0  0  0
    6.2654    0.2848   -0.4582 N   0  0  0  0  0  0  0  0  0  0  0  0
    6.9863    0.4890   -1.7022 C   0  0  0  0  0  0  0  0  0  0  0  0
    8.4351    0.8263   -1.4035 C   0  0  0  0  0  0  0  0  0  0  0  0
    9.0595   -0.1842   -0.6420 O   0  0  0  0  0  0  0  0  0  0  0  0
    8.3583   -0.4122    0.5605 C   0  0  0  0  0  0  0  0  0  0  0  0
    6.9085   -0.7739    0.3005 C   0  0  0  0  0  0  0  0  0  0  0  0
   -4.7091    0.5656   -0.4235 C   0  0  0  0  0  0  0  0  0  0  0  0
   -6.0716    0.2951   -0.7139 C   0  0  0  0  0  0  0  0  0  0  0  0
   -6.5174   -1.0473   -0.7272 C   0  0  0  0  0  0  0  0  0  0  0  0
   -5.6499   -2.0651   -0.4640 C   0  0  0  0  0  0  0  0  0  0  0  0
   -4.2832   -1.8177   -0.1883 C   0  0  0  0  0  0  0  0  0  0  0  0
   -4.2822    1.9155   -0.3969 C   0  0  0  0  0  0  0  0  0  0  0  0
   -5.1586    2.9361   -0.6537 C   0  0  0  0  0  0  0  0  0  0  0  0
   -6.5086    2.6626   -0.9497 C   0  0  0  0  0  0  0  0  0  0  0  0
   -6.9529    1.3688   -0.9772 C   0  0  0  0  0  0  0  0  0  0  0  0
   -3.3975   -2.9963    0.1180 C   0  0  0  0  0  0  0  0  0  0  0  0
   -3.6553   -3.4705    1.4725 N   0  0  0  0  0  0  0  0  0  0  0  0
   -2.7264   -0.2049    2.2844 H   0  0  0  0  0  0  0  0  0  0  0  0
   -0.3806    0.2651    2.8389 H   0  0  0  0  0  0  0  0  0  0  0  0
    0.5794    0.3095   -1.3426 H   0  0  0  0  0  0  0  0  0  0  0  0
   -1.7565   -0.1529   -1.8818 H   0  0  0  0  0  0  0  0  0  0  0  0
    2.3865   -0.4622   -0.4100 H   0  0  0  0  0  0  0  0  0  0  0  0
    4.2138    1.4250    0.8570 H   0  0  0  0  0  0  0  0  0  0  0  0
    4.3792   -0.2259    1.4359 H   0  0  0  0  0  0  0  0  0  0  0  0
    4.6421   -0.9745   -0.9934 H   0  0  0  0  0  0  0  0  0  0  0  0
    4.5112    0.7150   -1.4697 H   0  0  0  0  0  0  0  0  0  0  0  0
    6.9390   -0.3994   -2.3546 H   0  0  0  0  0  0  0  0  0  0  0  0
    6.5378    1.3200   -2.2519 H   0  0  0  0  0  0  0  0  0  0  0  0
    8.9978    0.9305   -2.3326 H   0  0  0  0  0  0  0  0  0  0  0  0
    8.4759    1.7875   -0.8717 H   0  0  0  0  0  0  0  0  0  0  0  0
    8.8611   -1.2274    1.0827 H   0  0  0  0  0  0  0  0  0  0  0  0
    8.3982    0.4788    1.2030 H   0  0  0  0  0  0  0  0  0  0  0  0
    6.4092   -0.9117    1.2611 H   0  0  0  0  0  0  0  0  0  0  0  0
    6.8589   -1.7393   -0.2324 H   0  0  0  0  0  0  0  0  0  0  0  0
   -7.5574   -1.2547   -0.9483 H   0  0  0  0  0  0  0  0  0  0  0  0
   -5.9997   -3.0904   -0.4744 H   0  0  0  0  0  0  0  0  0  0  0  0
   -3.2504    2.1455   -0.1659 H   0  0  0  0  0  0  0  0  0  0  0  0
   -4.8134    3.9615   -0.6271 H   0  0  0  0  0  0  0  0  0  0  0  0
   -7.1909    3.4782   -1.1505 H   0  0  0  0  0  0  0  0  0  0  0  0
   -7.9907    1.1502   -1.1987 H   0  0  0  0  0  0  0  0  0  0  0  0
   -3.6456   -3.8062   -0.5724 H   0  0  0  0  0  0  0  0  0  0  0  0
   -2.3488   -2.7421   -0.0697 H   0  0  0  0  0  0  0  0  0  0  0  0
   -3.0873   -4.2905    1.6474 H   0  0  0  0  0  0  0  0  0  0  0  0
   -3.3381   -2.7727    2.1348 H   0  0  0  0  0  0  0  0  0  0  0  0
 16 17  1  0
 16 15  1  0
 25 26  1  0
 25 24  2  0
 18 17  1  0
 18 13  1  0
 26 27  2  0
 14 15  1  0
 14 13  1  0
 24 19  1  0
 12 13  1  0
 12 11  1  0
 27 20  1  0
  4  5  2  0
  4  3  1  0
  5  6  1  0
 10 11  1  0
 10  8  1  0
 19 20  1  0
 19  7  2  0
 20 21  2  0
  8  3  1  0
  8  9  2  0
  3  2  2  0
  6  7  1  0
  6  1  2  0
  7 23  1  0
 21 22  1  0
  2  1  1  0
 23 22  2  0
 23 28  1  0
 28 29  1  0
  1 30  1  0
  2 31  1  0
  4 32  1  0
  5 33  1  0
 10 34  1  0
 11 35  1  0
 11 36  1  0
 12 37  1  0
 12 38  1  0
 14 39  1  0
 14 40  1  0
 15 41  1  0
 15 42  1  0
 17 43  1  0
 17 44  1  0
 18 45  1  0
 18 46  1  0
 21 47  1  0
 22 48  1  0
 24 49  1  0
 25 50  1  0
 26 51  1  0
 27 52  1  0
 28 53  1  0
 28 54  1  0
 29 55  1  0
 29 56  1  0
M  END
