
     RDKit          3D

 41 43  0  0  0  0  0  0  0  0999 V2000
   -3.6366    2.7448    1.4235 N   0  0  0  0  0  0  0  0  0  0  0  0
   -3.5869    1.5612    2.0278 C   0  0  0  0  0  0  0  0  0  0  0  0
   -2.9222    0.4787    1.6608 N   0  0  0  0  0  0  0  0  0  0  0  0
   -2.2426    0.6776    0.5349 C   0  0  0  0  0  0  0  0  0  0  0  0
   -2.1962    1.8475   -0.2042 C   0  0  0  0  0  0  0  0  0  0  0  0
   -2.9443    2.9297    0.2933 C   0  0  0  0  0  0  0  0  0  0  0  0
   -2.9761    4.1208   -0.3053 N   0  0  0  0  0  0  0  0  0  0  0  0
   -1.3763    1.7035   -1.2937 N   0  0  0  0  0  0  0  0  0  0  0  0
   -0.9439    0.4822   -1.2150 C   0  0  0  0  0  0  0  0  0  0  0  0
   -1.4411   -0.2037   -0.1371 N   0  0  0  0  0  0  0  0  0  0  0  0
    2.8575    0.1419   -0.7575 P   0  0  2  0  0  0  0  0  0  0  0  0
    1.6399    2.1128    0.4737 C   0  0  0  0  0  0  0  0  0  0  0  0
   -1.0784   -1.5223    0.3076 C   0  0  1  0  0  0  0  0  0  0  0  0
    4.3551    0.6245   -0.5916 O   0  0  0  0  0  0  0  0  0  0  0  0
    2.0872    2.9227   -0.3006 O   0  0  0  0  0  0  0  0  0  0  0  0
   -1.1812   -2.6075   -0.7640 C   0  0  2  0  0  0  0  0  0  0  0  0
   -2.4907   -3.0841   -0.8268 O   0  0  0  0  0  0  0  0  0  0  0  0
    2.3139    0.4056   -2.0986 O   0  0  0  0  0  0  0  0  0  0  0  0
    0.7407    2.3226    1.4332 N   0  0  0  0  0  0  0  0  0  0  0  0
   -0.1475   -3.6221   -0.2596 C   0  0  2  0  0  0  0  0  0  0  0  0
   -0.6605   -4.3752    0.8060 O   0  0  0  0  0  0  0  0  0  0  0  0
    2.0327    0.8034    0.4779 O   0  0  0  0  0  0  0  0  0  0  0  0
    0.9351   -2.6948    0.2810 C   0  0  2  0  0  0  0  0  0  0  0  0
    0.2611   -1.5208    0.7241 O   0  0  0  0  0  0  0  0  0  0  0  0
    1.9639   -2.3528   -0.7809 C   0  0  0  0  0  0  0  0  0  0  0  0
    2.8872   -1.3762   -0.2866 O   0  0  0  0  0  0  0  0  0  0  0  0
   -4.1679    1.4794    2.9402 H   0  0  0  0  0  0  0  0  0  0  0  0
   -2.5074    4.2738   -1.1807 H   0  0  0  0  0  0  0  0  0  0  0  0
   -3.5649    4.8527    0.0532 H   0  0  0  0  0  0  0  0  0  0  0  0
   -0.2566    0.0305   -1.9137 H   0  0  0  0  0  0  0  0  0  0  0  0
   -1.7495   -1.7559    1.1406 H   0  0  0  0  0  0  0  0  0  0  0  0
    4.7550    0.5357    0.2846 H   0  0  0  0  0  0  0  0  0  0  0  0
   -0.8506   -2.2185   -1.7352 H   0  0  0  0  0  0  0  0  0  0  0  0
   -2.6151   -3.5463   -1.6620 H   0  0  0  0  0  0  0  0  0  0  0  0
    0.4193    1.5845    2.0359 H   0  0  0  0  0  0  0  0  0  0  0  0
    0.3646    3.2452    1.5666 H   0  0  0  0  0  0  0  0  0  0  0  0
    0.2262   -4.2614   -1.0705 H   0  0  0  0  0  0  0  0  0  0  0  0
   -1.5389   -4.6856    0.5563 H   0  0  0  0  0  0  0  0  0  0  0  0
    1.4452   -3.1474    1.1364 H   0  0  0  0  0  0  0  0  0  0  0  0
    2.5442   -3.2444   -1.0199 H   0  0  0  0  0  0  0  0  0  0  0  0
    1.4984   -2.0057   -1.7070 H   0  0  0  0  0  0  0  0  0  0  0  0
  2  1  2  0
  6  1  1  0
  3  2  1  0
  2 27  1  0
  4  3  2  0
 10  4  1  0
  4  5  1  0
  8  5  1  0
  5  6  2  0
  6  7  1  0
  7 28  1  0
  7 29  1  0
  9  8  2  0
 10  9  1  0
  9 30  1  0
 13 10  1  0
 18 11  2  0
 11 14  1  6
 11 22  1  0
 11 26  1  0
 19 12  1  0
 15 12  2  0
 12 22  1  0
 24 13  1  0
 16 13  1  0
 13 31  1  1
 14 32  1  0
 17 16  1  0
 20 16  1  0
 16 33  1  6
 17 34  1  0
 19 35  1  0
 19 36  1  0
 21 20  1  0
 23 20  1  0
 20 37  1  6
 21 38  1  0
 23 25  1  0
 23 24  1  0
 23 39  1  1
 26 25  1  0
 25 40  1  0
 25 41  1  0
M  END
