
     RDKit          3D

 52 54  0  0  0  0  0  0  0  0999 V2000
    7.5059    3.9604   -0.1510 C   0  0  0  0  0  0  0  0  0  0  0  0
    6.9381    3.1766    0.8824 O   0  0  0  0  0  0  0  0  0  0  0  0
    5.9328    2.3429    0.5808 C   0  0  0  0  0  0  0  0  0  0  0  0
    5.4140    1.5880    1.6366 C   0  0  0  0  0  0  0  0  0  0  0  0
    4.3786    0.7038    1.4161 C   0  0  0  0  0  0  0  0  0  0  0  0
    5.3921    2.1934   -0.6971 C   0  0  0  0  0  0  0  0  0  0  0  0
    4.3540    1.3010   -0.9058 C   0  0  0  0  0  0  0  0  0  0  0  0
    3.8329    0.5451    0.1407 C   0  0  0  0  0  0  0  0  0  0  0  0
    2.7402   -0.3956   -0.0743 C   0  0  0  0  0  0  0  0  0  0  0  0
    2.1564   -1.1052    0.9383 N   0  0  0  0  0  0  0  0  0  0  0  0
    2.2196   -0.6390   -1.2418 N   0  0  0  0  0  0  0  0  0  0  0  0
    1.2427   -1.5645   -0.9803 O   0  0  0  0  0  0  0  0  0  0  0  0
    1.2547   -1.7885    0.3220 C   0  0  0  0  0  0  0  0  0  0  0  0
    0.3245   -2.7959    0.9049 C   0  0  0  0  0  0  0  0  0  0  0  0
   -0.9209   -2.9069    0.1819 N   0  0  0  0  0  0  0  0  0  0  0  0
   -1.2839   -4.2029   -0.3977 C   0  0  1  0  0  0  0  0  0  0  0  0
   -0.2964   -4.6235   -1.4779 C   0  0  0  0  0  0  0  0  0  0  0  0
   -1.4451   -5.2684    0.6801 C   0  0  0  0  0  0  0  0  0  0  0  0
   -1.6827   -1.7911    0.1471 C   0  0  0  0  0  0  0  0  0  0  0  0
   -1.2985   -0.7581    0.6738 O   0  0  0  0  0  0  0  0  0  0  0  0
   -3.0228   -1.8569   -0.5684 C   0  0  0  0  0  0  0  0  0  0  0  0
   -3.6841   -0.5132   -0.5895 C   0  0  0  0  0  0  0  0  0  0  0  0
   -4.5929   -0.1525    0.4000 C   0  0  0  0  0  0  0  0  0  0  0  0
   -5.2022    1.0899    0.3903 C   0  0  0  0  0  0  0  0  0  0  0  0
   -4.8906    1.9773   -0.6295 C   0  0  0  0  0  0  0  0  0  0  0  0
   -5.5253    3.2844   -0.6527 N   0  0  0  0  0  0  0  0  0  0  0  0
   -6.2943    3.5601    0.2383 O   0  0  0  0  0  0  0  0  0  0  0  0
   -5.2528    4.0336   -1.5616 O   0  0  0  0  0  0  0  0  0  0  0  0
   -3.9888    1.6445   -1.6306 C   0  0  0  0  0  0  0  0  0  0  0  0
   -3.3917    0.3977   -1.6005 C   0  0  0  0  0  0  0  0  0  0  0  0
    6.7752    4.6433   -0.5915 H   0  0  0  0  0  0  0  0  0  0  0  0
    8.2993    4.5450    0.3071 H   0  0  0  0  0  0  0  0  0  0  0  0
    7.9345    3.3407   -0.9423 H   0  0  0  0  0  0  0  0  0  0  0  0
    5.8315    1.7016    2.6289 H   0  0  0  0  0  0  0  0  0  0  0  0
    3.9910    0.1261    2.2447 H   0  0  0  0  0  0  0  0  0  0  0  0
    5.7643    2.7637   -1.5368 H   0  0  0  0  0  0  0  0  0  0  0  0
    3.9483    1.2020   -1.9043 H   0  0  0  0  0  0  0  0  0  0  0  0
    0.8307   -3.7630    0.9027 H   0  0  0  0  0  0  0  0  0  0  0  0
    0.1688   -2.5342    1.9530 H   0  0  0  0  0  0  0  0  0  0  0  0
   -2.2537   -4.0752   -0.8731 H   0  0  0  0  0  0  0  0  0  0  0  0
    0.6988   -4.8141   -1.0724 H   0  0  0  0  0  0  0  0  0  0  0  0
   -0.6362   -5.5484   -1.9440 H   0  0  0  0  0  0  0  0  0  0  0  0
   -0.2112   -3.8650   -2.2554 H   0  0  0  0  0  0  0  0  0  0  0  0
   -2.1333   -4.9402    1.4593 H   0  0  0  0  0  0  0  0  0  0  0  0
   -1.8474   -6.1794    0.2375 H   0  0  0  0  0  0  0  0  0  0  0  0
   -0.4944   -5.5296    1.1476 H   0  0  0  0  0  0  0  0  0  0  0  0
   -2.8828   -2.2170   -1.5905 H   0  0  0  0  0  0  0  0  0  0  0  0
   -3.6644   -2.5871   -0.0682 H   0  0  0  0  0  0  0  0  0  0  0  0
   -4.8349   -0.8522    1.1894 H   0  0  0  0  0  0  0  0  0  0  0  0
   -5.9067    1.3496    1.1669 H   0  0  0  0  0  0  0  0  0  0  0  0
   -3.7505    2.3381   -2.4234 H   0  0  0  0  0  0  0  0  0  0  0  0
   -2.6910    0.1322   -2.3818 H   0  0  0  0  0  0  0  0  0  0  0  0
 21 19  1  0
 21 22  1  0
 18 16  1  0
 23 22  2  0
 23 24  1  0
 20 19  2  0
 19 15  1  0
 22 30  1  0
 24 25  2  0
 15 16  1  0
 15 14  1  0
 16 17  1  0
 30 29  2  0
 14 13  1  0
 25 29  1  0
 25 26  1  0
 26 27  1  0
 26 28  2  0
 13 12  1  0
 13 10  2  0
 12 11  1  0
 10  9  1  0
 11  9  2  0
  9  8  1  0
  8  7  2  0
  8  5  1  0
  7  6  1  0
  5  4  2  0
  6  3  2  0
  4  3  1  0
  3  2  1  0
  2  1  1  0
  1 31  1  0
  1 32  1  0
  1 33  1  0
  4 34  1  0
  5 35  1  0
  6 36  1  0
  7 37  1  0
 14 38  1  0
 14 39  1  0
 16 40  1  6
 17 41  1  0
 17 42  1  0
 17 43  1  0
 18 44  1  0
 18 45  1  0
 18 46  1  0
 21 47  1  0
 21 48  1  0
 23 49  1  0
 24 50  1  0
 29 51  1  0
 30 52  1  0
M  CHG  2  26   1  27  -1
M  END
