
     RDKit          3D

134141  0  0  0  0  0  0  0  0999 V2000
   11.5597   -5.3334    0.4680 C   0  0  0  0  0  0  0  0  0  0  0  0
   -7.4162   -9.2102   -1.9171 C   0  0  0  0  0  0  0  0  0  0  0  0
    0.5400    3.9726   -1.5404 O   0  0  0  0  0  0  0  0  0  0  0  0
   -0.6476   -3.8737    1.0158 O   0  0  0  0  0  0  0  0  0  0  0  0
    3.9098    0.9894   -1.2444 O   0  0  0  0  0  0  0  0  0  0  0  0
   -4.0093   -0.8804    0.7645 O   0  0  0  0  0  0  0  0  0  0  0  0
   -1.3640    2.1446   -0.6709 C   0  0  0  0  0  0  0  0  0  0  0  0
    1.2567   -2.0442    0.1517 C   0  0  0  0  0  0  0  0  0  0  0  0
    5.5239   -2.8508   -0.1507 C   0  0  0  0  0  0  0  0  0  0  0  0
   -5.6091    2.9774   -0.0735 C   0  0  0  0  0  0  0  0  0  0  0  0
    3.7953    4.2367   -0.7612 C   0  0  0  0  0  0  0  0  0  0  0  0
   -3.9360   -4.1441    0.4005 C   0  0  0  0  0  0  0  0  0  0  0  0
    4.0121   -2.8000   -0.0010 C   0  0  0  0  0  0  0  0  0  0  0  0
   -4.1251    2.9203   -0.3985 C   0  0  0  0  0  0  0  0  0  0  0  0
    6.0590   -4.1931    0.3290 C   0  0  0  0  0  0  0  0  0  0  0  0
   -6.1988    4.3423   -0.3999 C   0  0  0  0  0  0  0  0  0  0  0  0
    4.8190    5.2318   -1.2942 C   0  0  0  0  0  0  0  0  0  0  0  0
   -4.8176   -5.2075    1.0425 C   0  0  0  0  0  0  0  0  0  0  0  0
    9.3132   -5.9917   -0.0410 C   0  0  0  0  0  0  0  0  0  0  0  0
    9.7824   -3.7276    0.4912 C   0  0  0  0  0  0  0  0  0  0  0  0
   -9.7381    5.5473   -0.5701 C   0  0  0  0  0  0  0  0  0  0  0  0
   -9.4130    4.4922    1.5315 C   0  0  0  0  0  0  0  0  0  0  0  0
    6.4726    8.2628    0.1468 C   0  0  0  0  0  0  0  0  0  0  0  0
    6.4819    6.5668    1.8008 C   0  0  0  0  0  0  0  0  0  0  0  0
   -7.4314   -7.5931   -0.1502 C   0  0  0  0  0  0  0  0  0  0  0  0
   -5.6812   -7.5678   -1.7489 C   0  0  0  0  0  0  0  0  0  0  0  0
    7.8531   -5.7668    0.3005 C   0  0  0  0  0  0  0  0  0  0  0  0
    8.3206   -3.4989    0.8287 C   0  0  0  0  0  0  0  0  0  0  0  0
   -8.2389    5.5441   -0.8008 C   0  0  0  0  0  0  0  0  0  0  0  0
   -7.9145    4.4866    1.2958 C   0  0  0  0  0  0  0  0  0  0  0  0
    6.0562    7.2410   -0.9044 C   0  0  0  0  0  0  0  0  0  0  0  0
    6.0618    5.5340    0.7596 C   0  0  0  0  0  0  0  0  0  0  0  0
   -6.5615   -6.8088    0.8119 C   0  0  0  0  0  0  0  0  0  0  0  0
   -4.8067   -6.7797   -0.7915 C   0  0  0  0  0  0  0  0  0  0  0  0
    3.1643    3.4600   -1.9085 C   0  0  0  0  0  0  0  0  0  0  0  0
   -3.2465   -3.3313    1.4883 C   0  0  0  0  0  0  0  0  0  0  0  0
    3.5128   -1.5015   -0.3947 N   0  0  0  0  0  0  0  0  0  0  0  0
   -3.6143    1.6041   -0.0874 N   0  0  0  0  0  0  0  0  0  0  0  0
    2.2323   -1.1150   -0.3029 C   0  0  0  0  0  0  0  0  0  0  0  0
   -2.3365    1.2179   -0.2044 C   0  0  0  0  0  0  0  0  0  0  0  0
    0.8954    2.8389   -1.2883 C   0  0  0  0  0  0  0  0  0  0  0  0
   -1.0001   -2.7368    0.7744 C   0  0  0  0  0  0  0  0  0  0  0  0
    2.7101    1.1957   -1.1157 C   0  0  0  0  0  0  0  0  0  0  0  0
   -2.8116   -1.0894    0.6210 C   0  0  0  0  0  0  0  0  0  0  0  0
   -0.0468    1.8084   -0.8077 C   0  0  0  0  0  0  0  0  0  0  0  0
   -0.0607   -1.7091    0.2841 C   0  0  0  0  0  0  0  0  0  0  0  0
    1.7820    0.1822   -0.6369 C   0  0  0  0  0  0  0  0  0  0  0  0
   -1.8878   -0.0821    0.1207 C   0  0  0  0  0  0  0  0  0  0  0  0
    0.4186    0.5132   -0.4943 C   0  0  0  0  0  0  0  0  0  0  0  0
   -0.5259   -0.4144   -0.0293 C   0  0  0  0  0  0  0  0  0  0  0  0
   10.1584   -5.1049    0.7313 N   0  0  0  0  0  0  0  0  0  0  0  0
  -10.0376    5.6050    0.8462 N   0  0  0  0  0  0  0  0  0  0  0  0
    7.2220    7.6880    1.2502 N   0  0  0  0  0  0  0  0  0  0  0  0
   -6.6133   -8.4068   -1.0252 N   0  0  0  0  0  0  0  0  0  0  0  0
    7.4699   -4.3882    0.0588 N   0  0  0  0  0  0  0  0  0  0  0  0
   -7.6205    4.4195   -0.1239 N   0  0  0  0  0  0  0  0  0  0  0  0
    5.2864    6.1700   -0.2931 N   0  0  0  0  0  0  0  0  0  0  0  0
   -5.6159   -5.9679    0.0997 N   0  0  0  0  0  0  0  0  0  0  0  0
    2.2095    2.4519   -1.4420 N   0  0  0  0  0  0  0  0  0  0  0  0
   -2.3076   -2.3411    0.9581 N   0  0  0  0  0  0  0  0  0  0  0  0
   11.8434   -5.1413   -0.5790 H   0  0  0  0  0  0  0  0  0  0  0  0
   12.1706   -4.6885    1.1017 H   0  0  0  0  0  0  0  0  0  0  0  0
   11.8193   -6.3680    0.6971 H   0  0  0  0  0  0  0  0  0  0  0  0
  -11.6536    5.7543    2.1604 H   0  0  0  0  0  0  0  0  0  0  0  0
  -11.8981    6.5163    0.5886 H   0  0  0  0  0  0  0  0  0  0  0  0
  -11.9918    4.7540    0.7389 H   0  0  0  0  0  0  0  0  0  0  0  0
    9.1058    8.2658    0.5703 H   0  0  0  0  0  0  0  0  0  0  0  0
    9.1141    7.0124    1.8050 H   0  0  0  0  0  0  0  0  0  0  0  0
    8.7223    6.5997    0.1359 H   0  0  0  0  0  0  0  0  0  0  0  0
   -8.0495   -8.6112   -2.5906 H   0  0  0  0  0  0  0  0  0  0  0  0
   -6.7733   -9.8375   -2.5364 H   0  0  0  0  0  0  0  0  0  0  0  0
   -8.0711   -9.8674   -1.3426 H   0  0  0  0  0  0  0  0  0  0  0  0
   -1.6710    3.1478   -0.9298 H   0  0  0  0  0  0  0  0  0  0  0  0
    1.5612   -3.0485    0.4081 H   0  0  0  0  0  0  0  0  0  0  0  0
    5.7988   -2.7048   -1.1990 H   0  0  0  0  0  0  0  0  0  0  0  0
    5.9660   -2.0294    0.4190 H   0  0  0  0  0  0  0  0  0  0  0  0
   -6.1423    2.2146   -0.6473 H   0  0  0  0  0  0  0  0  0  0  0  0
   -5.7432    2.7382    0.9846 H   0  0  0  0  0  0  0  0  0  0  0  0
    4.2634    3.5360   -0.0672 H   0  0  0  0  0  0  0  0  0  0  0  0
    3.0247    4.7780   -0.2074 H   0  0  0  0  0  0  0  0  0  0  0  0
   -3.1794   -4.6042   -0.2386 H   0  0  0  0  0  0  0  0  0  0  0  0
   -4.5443   -3.4929   -0.2307 H   0  0  0  0  0  0  0  0  0  0  0  0
    3.5596   -3.5879   -0.6130 H   0  0  0  0  0  0  0  0  0  0  0  0
    3.7398   -3.0108    1.0391 H   0  0  0  0  0  0  0  0  0  0  0  0
   -3.9680    3.1551   -1.4570 H   0  0  0  0  0  0  0  0  0  0  0  0
   -3.5943    3.6839    0.1796 H   0  0  0  0  0  0  0  0  0  0  0  0
    5.8321   -4.3128    1.4033 H   0  0  0  0  0  0  0  0  0  0  0  0
    5.5132   -4.9878   -0.1888 H   0  0  0  0  0  0  0  0  0  0  0  0
   -5.6376    5.1290    0.1340 H   0  0  0  0  0  0  0  0  0  0  0  0
   -6.0558    4.5344   -1.4670 H   0  0  0  0  0  0  0  0  0  0  0  0
    5.6564    4.6816   -1.7591 H   0  0  0  0  0  0  0  0  0  0  0  0
    4.3551    5.8157   -2.0957 H   0  0  0  0  0  0  0  0  0  0  0  0
   -4.1876   -5.8737    1.6589 H   0  0  0  0  0  0  0  0  0  0  0  0
   -5.5086   -4.7142    1.7336 H   0  0  0  0  0  0  0  0  0  0  0  0
    9.5767   -7.0275    0.1864 H   0  0  0  0  0  0  0  0  0  0  0  0
    9.4575   -5.8512   -1.1272 H   0  0  0  0  0  0  0  0  0  0  0  0
    9.9598   -3.4325   -0.5585 H   0  0  0  0  0  0  0  0  0  0  0  0
   10.3959   -3.0736    1.1154 H   0  0  0  0  0  0  0  0  0  0  0  0
  -10.1742    6.4183   -1.0659 H   0  0  0  0  0  0  0  0  0  0  0  0
  -10.1756    4.6495   -1.0425 H   0  0  0  0  0  0  0  0  0  0  0  0
   -9.8338    3.5254    1.2019 H   0  0  0  0  0  0  0  0  0  0  0  0
   -9.6054    4.5773    2.6039 H   0  0  0  0  0  0  0  0  0  0  0  0
    7.0631    9.0550   -0.3190 H   0  0  0  0  0  0  0  0  0  0  0  0
    5.5685    8.7307    0.5518 H   0  0  0  0  0  0  0  0  0  0  0  0
    5.5782    6.9555    2.2831 H   0  0  0  0  0  0  0  0  0  0  0  0
    7.0789    6.0852    2.5785 H   0  0  0  0  0  0  0  0  0  0  0  0
   -8.1005   -8.2405    0.4220 H   0  0  0  0  0  0  0  0  0  0  0  0
   -8.0675   -6.8928   -0.7207 H   0  0  0  0  0  0  0  0  0  0  0  0
   -6.2046   -6.8653   -2.4223 H   0  0  0  0  0  0  0  0  0  0  0  0
   -5.0431   -8.1958   -2.3750 H   0  0  0  0  0  0  0  0  0  0  0  0
    7.2377   -6.4216   -0.3209 H   0  0  0  0  0  0  0  0  0  0  0  0
    7.6800   -6.0601    1.3508 H   0  0  0  0  0  0  0  0  0  0  0  0
    8.1708   -3.6363    1.9142 H   0  0  0  0  0  0  0  0  0  0  0  0
    8.0759   -2.4604    0.6002 H   0  0  0  0  0  0  0  0  0  0  0  0
   -8.0443    5.4675   -1.8730 H   0  0  0  0  0  0  0  0  0  0  0  0
   -7.8185    6.5070   -0.4614 H   0  0  0  0  0  0  0  0  0  0  0  0
   -7.4718    5.3884    1.7547 H   0  0  0  0  0  0  0  0  0  0  0  0
   -7.4879    3.6223    1.8079 H   0  0  0  0  0  0  0  0  0  0  0  0
    5.4401    7.7359   -1.6595 H   0  0  0  0  0  0  0  0  0  0  0  0
    6.9479    6.8509   -1.4278 H   0  0  0  0  0  0  0  0  0  0  0  0
    6.9501    5.0194    0.3493 H   0  0  0  0  0  0  0  0  0  0  0  0
    5.4585    4.7722    1.2562 H   0  0  0  0  0  0  0  0  0  0  0  0
   -7.1991   -6.1780    1.4357 H   0  0  0  0  0  0  0  0  0  0  0  0
   -6.0454   -7.5146    1.4863 H   0  0  0  0  0  0  0  0  0  0  0  0
   -4.1621   -7.4774   -0.2278 H   0  0  0  0  0  0  0  0  0  0  0  0
   -4.1490   -6.1392   -1.3806 H   0  0  0  0  0  0  0  0  0  0  0  0
    2.6371    4.1343   -2.5793 H   0  0  0  0  0  0  0  0  0  0  0  0
    3.9274    2.9552   -2.4966 H   0  0  0  0  0  0  0  0  0  0  0  0
   -3.9805   -2.8087    2.0974 H   0  0  0  0  0  0  0  0  0  0  0  0
   -2.6912   -3.9898    2.1529 H   0  0  0  0  0  0  0  0  0  0  0  0
    4.1676   -0.8022   -0.7137 H   0  0  0  0  0  0  0  0  0  0  0  0
   -4.2601    0.8981    0.2371 H   0  0  0  0  0  0  0  0  0  0  0  0
    8.5933    7.3652    0.9131 C   0  0  0  0  0  0  0  0  0  0  0  0
  -11.4600    5.6524    1.0913 C   0  0  0  0  0  0  0  0  0  0  0  0
134 52  1  0
 52 22  1  0
 52 21  1  0
 22 30  1  0
 21 29  1  0
 30 56  1  0
 29 56  1  0
 56 16  1  0
 16 10  1  0
 10 14  1  0
 14 38  1  0
 25 33  1  0
 25 54  1  0
  2 54  1  0
 33 58  1  0
 38 40  1  0
 54 26  1  0
  6 44  2  0
 40  7  2  0
 40 48  1  0
  7 45  1  0
 58 18  1  0
 58 34  1  0
 26 34  1  0
  3 41  2  0
 44 48  1  0
 44 60  1  0
 48 50  2  0
 12 18  1  0
 12 36  1  0
 45 41  1  0
 45 49  2  0
 41 59  1  0
 36 60  1  0
 60 42  1  0
 50 49  1  0
 50 46  1  0
 49 47  1  0
 59 35  1  0
 59 43  1  0
 35 11  1  0
 11 17  1  0
 42 46  1  0
 42  4  2  0
 46  8  2  0
 47 43  1  0
 47 39  2  0
 43  5  2  0
  8 39  1  0
 17 57  1  0
 57 31  1  0
 57 32  1  0
 39 37  1  0
 24 32  1  0
 24 53  1  0
 23 31  1  0
 23 53  1  0
 53133  1  0
 37 13  1  0
 13  9  1  0
  9 15  1  0
 15 55  1  0
 27 55  1  0
 27 19  1  0
 55 28  1  0
 19 51  1  0
 51  1  1  0
 51 20  1  0
 28 20  1  0
  1 61  1  0
  1 62  1  0
  1 63  1  0
134 64  1  0
134 65  1  0
134 66  1  0
133 67  1  0
133 68  1  0
133 69  1  0
  2 70  1  0
  2 71  1  0
  2 72  1  0
  7 73  1  0
  8 74  1  0
  9 75  1  0
  9 76  1  0
 10 77  1  0
 10 78  1  0
 11 79  1  0
 11 80  1  0
 12 81  1  0
 12 82  1  0
 13 83  1  0
 13 84  1  0
 14 85  1  0
 14 86  1  0
 15 87  1  0
 15 88  1  0
 16 89  1  0
 16 90  1  0
 17 91  1  0
 17 92  1  0
 18 93  1  0
 18 94  1  0
 19 95  1  0
 19 96  1  0
 20 97  1  0
 20 98  1  0
 21 99  1  0
 21100  1  0
 22101  1  0
 22102  1  0
 23103  1  0
 23104  1  0
 24105  1  0
 24106  1  0
 25107  1  0
 25108  1  0
 26109  1  0
 26110  1  0
 27111  1  0
 27112  1  0
 28113  1  0
 28114  1  0
 29115  1  0
 29116  1  0
 30117  1  0
 30118  1  0
 31119  1  0
 31120  1  0
 32121  1  0
 32122  1  0
 33123  1  0
 33124  1  0
 34125  1  0
 34126  1  0
 35127  1  0
 35128  1  0
 36129  1  0
 36130  1  0
 37131  1  0
 38132  1  0
M  END
