
     RDKit          3D

 64 67  0  0  0  0  0  0  0  0999 V2000
    4.5220    3.3521   -0.8640 C   0  0  0  0  0  0  0  0  0  0  0  0
    3.1858    2.6185   -0.9333 C   0  0  1  0  0  0  0  0  0  0  0  0
    2.7524    2.4127   -2.3818 C   0  0  0  0  0  0  0  0  0  0  0  0
    4.2622    0.4229   -0.6579 N   0  0  0  0  0  0  0  0  0  0  0  0
    5.2162   -0.1558    0.0790 C   0  0  0  0  0  0  0  0  0  0  0  0
    6.1533   -1.1074   -0.6821 C   0  0  1  0  0  0  0  0  0  0  0  0
    7.5100   -0.5093   -0.9292 C   0  0  0  0  0  0  0  0  0  0  0  0
    1.9226    0.5453   -0.0396 C   0  0  2  0  0  0  0  0  0  0  0  0
   -0.3317    1.1656    0.5091 C   0  0  0  0  0  0  0  0  0  0  0  0
   -3.0581    0.7164    0.5222 C   0  0  0  0  0  0  0  0  0  0  0  0
   -2.5185    1.8217    1.1952 C   0  0  0  0  0  0  0  0  0  0  0  0
   -3.6525    2.4841    1.7402 C   0  0  0  0  0  0  0  0  0  0  0  0
   -4.4109    0.7793    0.7077 N   0  0  0  0  0  0  0  0  0  0  0  0
   -5.3894   -0.0816    0.1859 C   0  0  0  0  0  0  0  0  0  0  0  0
   -7.4273   -0.3753   -0.9808 N   0  0  0  0  0  0  0  0  0  0  0  0
   -8.5583    0.2144   -1.6848 C   0  0  0  0  0  0  0  0  0  0  0  0
   -6.2683   -2.2877   -0.1518 C   0  0  0  0  0  0  0  0  0  0  0  0
   -5.3077   -1.4815    0.3654 C   0  0  0  0  0  0  0  0  0  0  0  0
   -1.1403    2.0495    1.1951 C   0  0  0  0  0  0  0  0  0  0  0  0
    2.0656   -0.7091    0.7880 C   0  0  0  0  0  0  0  0  0  0  0  0
    2.0091   -0.6575    2.1771 C   0  0  0  0  0  0  0  0  0  0  0  0
    2.1919   -1.8088    2.9291 C   0  0  0  0  0  0  0  0  0  0  0  0
    3.2578    1.3149   -0.1218 C   0  0  2  0  0  0  0  0  0  0  0  0
    5.4255    0.0445    1.2593 O   0  0  0  0  0  0  0  0  0  0  0  0
    6.2578   -2.2438    0.0577 F   0  0  0  0  0  0  0  0  0  0  0  0
    5.5840   -1.4857   -1.8670 F   0  0  0  0  0  0  0  0  0  0  0  0
    0.9948    1.4493    0.5166 O   0  0  0  0  0  0  0  0  0  0  0  0
   -0.8874    0.0576   -0.1694 C   0  0  0  0  0  0  0  0  0  0  0  0
   -2.2458   -0.1766   -0.1754 C   0  0  0  0  0  0  0  0  0  0  0  0
   -4.7546    1.8495    1.4392 N   0  0  0  0  0  0  0  0  0  0  0  0
   -6.4533    0.4237   -0.4935 C   0  0  0  0  0  0  0  0  0  0  0  0
   -7.4007   -1.7627   -0.8670 C   0  0  0  0  0  0  0  0  0  0  0  0
   -8.3027   -2.4367   -1.3538 O   0  0  0  0  0  0  0  0  0  0  0  0
    2.4448   -3.0222    2.3021 C   0  0  0  0  0  0  0  0  0  0  0  0
    2.5050   -3.0795    0.9168 C   0  0  0  0  0  0  0  0  0  0  0  0
    2.3085   -1.9287    0.1660 C   0  0  0  0  0  0  0  0  0  0  0  0
    5.3125    2.8013   -1.3767 H   0  0  0  0  0  0  0  0  0  0  0  0
    4.4427    4.3313   -1.3382 H   0  0  0  0  0  0  0  0  0  0  0  0
    4.8386    3.5091    0.1687 H   0  0  0  0  0  0  0  0  0  0  0  0
    2.4386    3.2468   -0.4430 H   0  0  0  0  0  0  0  0  0  0  0  0
    3.4482    1.7795   -2.9378 H   0  0  0  0  0  0  0  0  0  0  0  0
    1.7580    1.9725   -2.4644 H   0  0  0  0  0  0  0  0  0  0  0  0
    2.7185    3.3717   -2.9000 H   0  0  0  0  0  0  0  0  0  0  0  0
    4.1797    0.1622   -1.6281 H   0  0  0  0  0  0  0  0  0  0  0  0
    7.9772   -0.2281    0.0126 H   0  0  0  0  0  0  0  0  0  0  0  0
    8.1538   -1.2247   -1.4410 H   0  0  0  0  0  0  0  0  0  0  0  0
    7.4223    0.3845   -1.5461 H   0  0  0  0  0  0  0  0  0  0  0  0
    1.6235    0.2660   -1.0592 H   0  0  0  0  0  0  0  0  0  0  0  0
   -3.6829    3.3836    2.3360 H   0  0  0  0  0  0  0  0  0  0  0  0
   -8.5734   -0.1100   -2.7231 H   0  0  0  0  0  0  0  0  0  0  0  0
   -9.4930   -0.0764   -1.2111 H   0  0  0  0  0  0  0  0  0  0  0  0
   -8.4691    1.2956   -1.6536 H   0  0  0  0  0  0  0  0  0  0  0  0
   -6.2190   -3.3601   -0.0250 H   0  0  0  0  0  0  0  0  0  0  0  0
   -4.4817   -1.9093    0.9197 H   0  0  0  0  0  0  0  0  0  0  0  0
   -0.7114    2.9008    1.7088 H   0  0  0  0  0  0  0  0  0  0  0  0
    1.8179    0.2819    2.6810 H   0  0  0  0  0  0  0  0  0  0  0  0
    2.1412   -1.7577    4.0091 H   0  0  0  0  0  0  0  0  0  0  0  0
    3.5606    1.5690    0.8965 H   0  0  0  0  0  0  0  0  0  0  0  0
   -0.2549   -0.6363   -0.7047 H   0  0  0  0  0  0  0  0  0  0  0  0
   -2.6458   -1.0283   -0.7090 H   0  0  0  0  0  0  0  0  0  0  0  0
   -6.5692    1.4850   -0.6610 H   0  0  0  0  0  0  0  0  0  0  0  0
    2.5913   -3.9183    2.8913 H   0  0  0  0  0  0  0  0  0  0  0  0
    2.6981   -4.0207    0.4185 H   0  0  0  0  0  0  0  0  0  0  0  0
    2.3380   -1.9864   -0.9161 H   0  0  0  0  0  0  0  0  0  0  0  0
 33 32  2  0
 32 17  1  0
 32 15  1  0
 16 15  1  0
 17 18  2  0
 15 31  1  0
 18 14  1  0
 31 14  2  0
 14 13  1  0
 13 30  1  0
 13 10  1  0
 30 12  2  0
 10 29  1  0
 10 11  2  0
 12 11  1  0
 29 28  2  0
 11 19  1  0
 28  9  1  0
 19  9  2  0
  9 27  1  0
  1  2  1  0
 27  8  1  0
  8 23  1  0
  8 20  1  0
  2 23  1  0
  2  3  1  0
 23  4  1  0
 20 36  1  0
 20 21  2  0
 36 35  2  0
 21 22  1  0
 35 34  1  0
 22 34  2  0
  4  5  1  0
  5 24  2  0
  5  6  1  0
  7  6  1  0
  6 25  1  1
  6 26  1  0
  1 37  1  0
  1 38  1  0
  1 39  1  0
  2 40  1  1
  3 41  1  0
  3 42  1  0
  3 43  1  0
  4 44  1  0
  7 45  1  0
  7 46  1  0
  7 47  1  0
  8 48  1  6
 12 49  1  0
 16 50  1  0
 16 51  1  0
 16 52  1  0
 17 53  1  0
 18 54  1  0
 19 55  1  0
 21 56  1  0
 22 57  1  0
 23 58  1  1
 28 59  1  0
 29 60  1  0
 31 61  1  0
 34 62  1  0
 35 63  1  0
 36 64  1  0
M  END
