
     RDKit          3D

 60 64  0  0  0  0  0  0  0  0999 V2000
    5.9987    1.0477   -0.7606 N   0  0  0  0  0  0  0  0  0  0  0  0
    5.6008   -0.0459   -0.1137 C   0  0  0  0  0  0  0  0  0  0  0  0
    6.5099   -0.9208    0.4767 C   0  0  0  0  0  0  0  0  0  0  0  0
    7.8622   -0.6432    0.3635 C   0  0  0  0  0  0  0  0  0  0  0  0
    8.2668    0.4900   -0.3199 C   0  0  0  0  0  0  0  0  0  0  0  0
    4.1385   -0.2704   -0.0493 C   0  0  0  0  0  0  0  0  0  0  0  0
    2.2378   -1.7162    0.2778 C   0  0  0  0  0  0  0  0  0  0  0  0
    3.2522    0.7839   -0.2767 C   0  0  0  0  0  0  0  0  0  0  0  0
   -0.8758   -0.1243    1.0729 C   0  0  0  0  0  0  0  0  0  0  0  0
   -4.8185   -2.0569   -0.5788 C   0  0  0  0  0  0  0  0  0  0  0  0
   -2.9013   -2.6484   -1.6075 C   0  0  0  0  0  0  0  0  0  0  0  0
   -0.7566   -1.6610   -0.8190 C   0  0  0  0  0  0  0  0  0  0  0  0
   -6.9393   -3.0716   -1.2848 C   0  0  0  0  0  0  0  0  0  0  0  0
   -3.3702    1.9806    1.2923 C   0  0  1  0  0  0  0  0  0  0  0  0
    7.2934    1.3237   -0.8670 C   0  0  0  0  0  0  0  0  0  0  0  0
    3.6103   -1.5274    0.2282 C   0  0  0  0  0  0  0  0  0  0  0  0
    1.3414   -0.6754    0.0509 C   0  0  0  0  0  0  0  0  0  0  0  0
    1.8878    0.5802   -0.2175 C   0  0  0  0  0  0  0  0  0  0  0  0
   -0.1214   -0.8575    0.0613 C   0  0  0  0  0  0  0  0  0  0  0  0
   -2.2674   -0.2199    1.0153 N   0  0  0  0  0  0  0  0  0  0  0  0
   -2.9165   -1.0789    0.1668 C   0  0  0  0  0  0  0  0  0  0  0  0
   -4.2223   -1.2139    0.2674 N   0  0  0  0  0  0  0  0  0  0  0  0
   -4.2036   -2.7837   -1.5336 N   0  0  0  0  0  0  0  0  0  0  0  0
   -2.1639   -1.8092   -0.7734 C   0  0  0  0  0  0  0  0  0  0  0  0
   -6.1429   -2.1884   -0.4700 N   0  0  0  0  0  0  0  0  0  0  0  0
   -3.0454    0.6298    1.9073 C   0  0  0  0  0  0  0  0  0  0  0  0
   -2.1871    2.6771    1.0467 O   0  0  0  0  0  0  0  0  0  0  0  0
   -2.4177    3.9593    0.4950 C   0  0  0  0  0  0  0  0  0  0  0  0
   -3.2294    3.8618   -0.7887 C   0  0  1  0  0  0  0  0  0  0  0  0
   -4.4602    3.0099   -0.4916 C   0  0  0  0  0  0  0  0  0  0  0  0
   -4.0960    1.7848    0.1183 O   0  0  0  0  0  0  0  0  0  0  0  0
   -3.5306    5.1927   -1.2755 N   0  0  0  0  0  0  0  0  0  0  0  0
    1.6575   -3.3073    0.6532 Cl  0  0  0  0  0  0  0  0  0  0  0  0
    6.1834   -1.7945    1.0227 H   0  0  0  0  0  0  0  0  0  0  0  0
    8.5922   -1.3065    0.8085 H   0  0  0  0  0  0  0  0  0  0  0  0
    9.3159    0.7322   -0.4260 H   0  0  0  0  0  0  0  0  0  0  0  0
    3.6380    1.7685   -0.4999 H   0  0  0  0  0  0  0  0  0  0  0  0
   -2.3862   -3.2315   -2.3657 H   0  0  0  0  0  0  0  0  0  0  0  0
   -0.1988   -2.2048   -1.5727 H   0  0  0  0  0  0  0  0  0  0  0  0
   -6.8149   -2.8625   -2.3470 H   0  0  0  0  0  0  0  0  0  0  0  0
   -6.6942   -4.1209   -1.1138 H   0  0  0  0  0  0  0  0  0  0  0  0
   -7.9831   -2.9181   -1.0263 H   0  0  0  0  0  0  0  0  0  0  0  0
   -3.9865    2.5440    2.0196 H   0  0  0  0  0  0  0  0  0  0  0  0
    7.5908    3.4417   -0.9074 H   0  0  0  0  0  0  0  0  0  0  0  0
    8.6878    2.5510   -1.9552 H   0  0  0  0  0  0  0  0  0  0  0  0
    6.9939    2.7733   -2.4191 H   0  0  0  0  0  0  0  0  0  0  0  0
    4.2574   -2.3779    0.3922 H   0  0  0  0  0  0  0  0  0  0  0  0
    1.2190    1.4118   -0.3983 H   0  0  0  0  0  0  0  0  0  0  0  0
   -6.5949   -1.6545    0.2528 H   0  0  0  0  0  0  0  0  0  0  0  0
   -2.4915    0.7793    2.8305 H   0  0  0  0  0  0  0  0  0  0  0  0
   -3.9741    0.1220    2.1526 H   0  0  0  0  0  0  0  0  0  0  0  0
   -2.9542    4.5944    1.2179 H   0  0  0  0  0  0  0  0  0  0  0  0
   -1.4439    4.4142    0.3101 H   0  0  0  0  0  0  0  0  0  0  0  0
   -2.6229    3.3519   -1.5435 H   0  0  0  0  0  0  0  0  0  0  0  0
   -5.1380    3.5761    0.1669 H   0  0  0  0  0  0  0  0  0  0  0  0
   -5.0063    2.7684   -1.4053 H   0  0  0  0  0  0  0  0  0  0  0  0
   -3.9768    5.1385   -2.1823 H   0  0  0  0  0  0  0  0  0  0  0  0
   -4.1961    5.6468   -0.6601 H   0  0  0  0  0  0  0  0  0  0  0  0
    7.6654    2.5864   -1.5825 C   0  0  0  0  0  0  0  0  0  0  0  0
   -0.3345    0.5375    1.9400 O   0  0  0  0  0  0  0  0  0  0  0  0
  1  2  2  0
  1 15  1  0
  2  3  1  0
  2  6  1  0
  3  4  2  0
  4  5  1  0
  5 15  2  0
  6  8  2  0
  6 16  1  0
  7 16  2  0
  7 17  1  0
  7 33  1  0
  8 18  1  0
  9 19  1  0
  9 60  2  0
  9 20  1  0
 10 22  1  0
 10 23  2  0
 10 25  1  0
 11 23  1  0
 11 24  2  0
 12 19  2  0
 12 24  1  0
 13 25  1  0
 14 27  1  0
 14 31  1  0
 59 15  1  0
 17 18  2  0
 17 19  1  0
 20 21  1  0
 20 26  1  0
 21 22  2  0
 21 24  1  0
 27 28  1  0
 28 29  1  0
 29 30  1  0
 29 32  1  0
 30 31  1  0
 26 14  1  0
  3 34  1  0
  4 35  1  0
  5 36  1  0
  8 37  1  0
 11 38  1  0
 12 39  1  0
 13 40  1  0
 13 41  1  0
 13 42  1  0
 14 43  1  1
 59 44  1  0
 59 45  1  0
 59 46  1  0
 16 47  1  0
 18 48  1  0
 25 49  1  0
 26 50  1  0
 26 51  1  0
 28 52  1  0
 28 53  1  0
 29 54  1  6
 30 55  1  0
 30 56  1  0
 32 57  1  0
 32 58  1  0
M  END
