
     RDKit          3D

 18 18  0  0  0  0  0  0  0  0999 V2000
    0.3281    2.5284    0.1793 C   0  0  0  0  0  0  0  0  0  0  0  0
    0.6973    1.0886    0.0857 C   0  0  0  0  0  0  0  0  0  0  0  0
    1.9613    0.7358    0.0075 N   0  0  0  0  0  0  0  0  0  0  0  0
    1.9572   -0.6000   -0.0625 N   0  0  0  0  0  0  0  0  0  0  0  0
    0.7412   -1.1424   -0.0331 C   0  0  0  0  0  0  0  0  0  0  0  0
    0.5204   -2.6084   -0.0968 C   0  0  0  0  0  0  0  0  0  0  0  0
   -0.1337   -0.0647    0.0650 C   0  0  0  0  0  0  0  0  0  0  0  0
   -1.5788   -0.1852    0.1206 C   0  0  0  0  0  0  0  0  0  0  0  0
   -2.1967    0.9915    0.1942 O   0  0  0  0  0  0  0  0  0  0  0  0
   -2.1803   -1.2378    0.1011 O   0  0  0  0  0  0  0  0  0  0  0  0
   -0.3065    2.8355   -0.6515 H   0  0  0  0  0  0  0  0  0  0  0  0
   -0.2158    2.7442    1.0986 H   0  0  0  0  0  0  0  0  0  0  0  0
    1.2277    3.1412    0.1652 H   0  0  0  0  0  0  0  0  0  0  0  0
    2.8331   -1.0956   -0.1323 H   0  0  0  0  0  0  0  0  0  0  0  0
    0.0495   -2.9704    0.8162 H   0  0  0  0  0  0  0  0  0  0  0  0
   -0.1358   -2.8684   -0.9255 H   0  0  0  0  0  0  0  0  0  0  0  0
    1.4630   -3.1374   -0.2273 H   0  0  0  0  0  0  0  0  0  0  0  0
   -3.1545    0.8519    0.2228 H   0  0  0  0  0  0  0  0  0  0  0  0
  1  2  1  0
  2  3  2  0
  2  7  1  0
  3  4  1  0
  4  5  1  0
  5  6  1  0
  5  7  2  0
  7  8  1  0
  8  9  1  0
  8 10  2  0
  1 11  1  0
  1 12  1  0
  1 13  1  0
  4 14  1  0
  6 15  1  0
  6 16  1  0
  6 17  1  0
  9 18  1  0
M  END
