
     RDKit          3D

 52 55  0  0  0  0  0  0  0  0999 V2000
   -3.5120    2.0983    1.0220 C   0  0  0  0  0  0  0  0  0  0  0  0
   -2.1370    2.0097    1.2265 C   0  0  0  0  0  0  0  0  0  0  0  0
   -1.2881    2.9170    0.5984 C   0  0  0  0  0  0  0  0  0  0  0  0
   -2.2545   -0.7069   -0.2638 C   0  0  0  0  0  0  0  0  0  0  0  0
    1.4452   -1.7690   -0.2871 C   0  0  0  0  0  0  0  0  0  0  0  0
    3.5414   -0.9721   -1.2166 C   0  0  0  0  0  0  0  0  0  0  0  0
    2.1540   -2.3378    0.7649 C   0  0  0  0  0  0  0  0  0  0  0  0
    6.5415   -0.8962   -0.7889 C   0  0  0  0  0  0  0  0  0  0  0  0
   -4.3008   -1.1880   -0.1185 C   0  0  0  0  0  0  0  0  0  0  0  0
    8.8473   -0.5272   -1.0288 O   0  0  0  0  0  0  0  0  0  0  0  0
    7.9633   -1.0811   -0.2369 C   0  0  0  0  0  0  0  0  0  0  0  0
    8.1980   -1.6637    0.7895 O   0  0  0  0  0  0  0  0  0  0  0  0
    6.3428   -0.2832   -1.8158 O   0  0  0  0  0  0  0  0  0  0  0  0
    4.2399   -1.5443   -0.1529 C   0  0  0  0  0  0  0  0  0  0  0  0
    2.1619   -1.0937   -1.2684 C   0  0  0  0  0  0  0  0  0  0  0  0
    3.5312   -2.2316    0.8320 C   0  0  0  0  0  0  0  0  0  0  0  0
   -0.0514   -1.8770   -0.3725 C   0  0  0  0  0  0  0  0  0  0  0  0
   -0.7893   -0.5581   -0.0824 C   0  0  2  0  0  0  0  0  0  0  0  0
   -0.4126   -0.0135    1.6276 S   0  0  1  0  0  0  0  0  0  0  0  0
   -0.5010   -1.1510    2.5244 O   0  0  0  0  0  0  0  0  0  0  0  0
    0.8176    0.7505    1.5511 O   0  0  0  0  0  0  0  0  0  0  0  0
   -1.6402    1.0061    2.0902 N   0  0  0  0  0  0  0  0  0  0  0  0
   -4.0393    3.0724    0.1910 C   0  0  0  0  0  0  0  0  0  0  0  0
   -3.1751    3.9415   -0.4448 C   0  0  0  0  0  0  0  0  0  0  0  0
   -3.6769    4.8765   -1.2663 F   0  0  0  0  0  0  0  0  0  0  0  0
   -1.8094    3.8795   -0.2530 C   0  0  0  0  0  0  0  0  0  0  0  0
   -2.8105   -0.0836   -1.3212 O   0  0  0  0  0  0  0  0  0  0  0  0
   -4.1315   -0.3812   -1.2379 C   0  0  0  0  0  0  0  0  0  0  0  0
   -5.1623    0.0189   -2.0640 C   0  0  0  0  0  0  0  0  0  0  0  0
   -6.4213   -0.4428   -1.7076 C   0  0  0  0  0  0  0  0  0  0  0  0
   -6.6194   -1.2567   -0.5841 C   0  0  0  0  0  0  0  0  0  0  0  0
   -5.5672   -1.6431    0.2300 C   0  0  0  0  0  0  0  0  0  0  0  0
   -3.0633   -1.3747    0.4740 N   0  0  0  0  0  0  0  0  0  0  0  0
   -4.1828    1.4070    1.5172 H   0  0  0  0  0  0  0  0  0  0  0  0
   -0.2219    2.8927    0.7708 H   0  0  0  0  0  0  0  0  0  0  0  0
    4.0532   -0.4430   -2.0033 H   0  0  0  0  0  0  0  0  0  0  0  0
    1.6303   -2.8760    1.5442 H   0  0  0  0  0  0  0  0  0  0  0  0
    9.7427   -0.6483   -0.6759 H   0  0  0  0  0  0  0  0  0  0  0  0
    5.9954   -1.9469    0.8216 H   0  0  0  0  0  0  0  0  0  0  0  0
    1.6371   -0.6490   -2.1059 H   0  0  0  0  0  0  0  0  0  0  0  0
    4.0616   -2.6855    1.6606 H   0  0  0  0  0  0  0  0  0  0  0  0
   -0.3389   -2.1680   -1.3857 H   0  0  0  0  0  0  0  0  0  0  0  0
   -0.4273   -2.6546    0.2925 H   0  0  0  0  0  0  0  0  0  0  0  0
   -0.4191    0.2360   -0.7346 H   0  0  0  0  0  0  0  0  0  0  0  0
   -2.3571    0.5029    2.6013 H   0  0  0  0  0  0  0  0  0  0  0  0
   -5.1074    3.1400    0.0341 H   0  0  0  0  0  0  0  0  0  0  0  0
   -1.1528    4.5815   -0.7495 H   0  0  0  0  0  0  0  0  0  0  0  0
   -5.0048    0.6528   -2.9256 H   0  0  0  0  0  0  0  0  0  0  0  0
   -7.2738   -0.1653   -2.3131 H   0  0  0  0  0  0  0  0  0  0  0  0
   -7.6219   -1.5880   -0.3487 H   0  0  0  0  0  0  0  0  0  0  0  0
   -5.7214   -2.2684    1.0989 H   0  0  0  0  0  0  0  0  0  0  0  0
    5.6291   -1.4853   -0.0002 N   0  0  0  0  0  0  0  0  0  0  0  0
 26  3  2  0
 26 24  1  0
 25 24  1  0
  3  2  1  0
 24 23  2  0
  2 22  1  0
  2  1  2  0
 20 19  2  0
 23  1  1  0
 19 22  1  1
 19 21  2  0
 19 18  1  0
 18 17  1  0
 18  4  1  0
 17  5  1  0
 15  5  1  0
 15  6  2  0
  4 27  1  0
  4 33  2  0
  5  7  2  0
 27 28  1  0
 33  9  1  0
  6 14  1  0
  7 16  1  0
 28  9  2  0
 28 29  1  0
  9 32  1  0
 14 16  2  0
 14 52  1  0
 29 30  2  0
 32 31  2  0
 52  8  1  0
 30 31  1  0
  8 11  1  0
  8 13  2  0
 12 11  2  0
 11 10  1  0
  1 34  1  0
  3 35  1  0
  6 36  1  0
  7 37  1  0
 10 38  1  0
 52 39  1  0
 15 40  1  0
 16 41  1  0
 17 42  1  0
 17 43  1  0
 18 44  1  6
 22 45  1  0
 23 46  1  0
 26 47  1  0
 29 48  1  0
 30 49  1  0
 31 50  1  0
 32 51  1  0
M  END
