
     RDKit          3D

 55 58  0  0  0  0  0  0  0  0999 V2000
    2.1937    0.4459   -0.9819 C   0  0  0  0  0  0  0  0  0  0  0  0
    3.3059    0.7624   -1.7374 C   0  0  0  0  0  0  0  0  0  0  0  0
    4.3858    1.4195   -1.1470 C   0  0  0  0  0  0  0  0  0  0  0  0
    5.4493    1.7042   -1.9242 O   0  0  0  0  0  0  0  0  0  0  0  0
    4.3260    1.7568    0.2019 C   0  0  0  0  0  0  0  0  0  0  0  0
    3.2017    1.4331    0.9463 C   0  0  0  0  0  0  0  0  0  0  0  0
    2.1230    0.7616    0.3763 C   0  0  0  0  0  0  0  0  0  0  0  0
    0.9434    0.4250    1.1693 C   0  0  0  0  0  0  0  0  0  0  0  0
    0.2127    1.4115    2.0628 C   0  0  2  0  0  0  0  0  0  0  0  0
   -0.3869    0.5598    3.0284 O   0  0  0  0  0  0  0  0  0  0  0  0
   -1.0663    1.9161    1.3434 C   0  0  1  0  0  0  0  0  0  0  0  0
   -0.8480    2.6679    0.0615 C   0  0  0  0  0  0  0  0  0  0  0  0
    0.2226    3.0514   -0.3330 O   0  0  0  0  0  0  0  0  0  0  0  0
   -2.0021    2.9373   -0.5316 O   0  0  0  0  0  0  0  0  0  0  0  0
   -1.9708    3.5772   -1.8149 C   0  0  0  0  0  0  0  0  0  0  0  0
   -3.3676    3.5338   -2.3845 C   0  0  0  0  0  0  0  0  0  0  0  0
   -1.9185    0.6258    1.3026 C   0  0  1  0  0  0  0  0  0  0  0  0
   -2.2439    0.0995   -0.0706 C   0  0  0  0  0  0  0  0  0  0  0  0
   -1.5105    0.1658   -1.0239 O   0  0  0  0  0  0  0  0  0  0  0  0
   -3.4282   -0.4941   -0.0912 O   0  0  0  0  0  0  0  0  0  0  0  0
   -3.8685   -1.0762   -1.3293 C   0  0  0  0  0  0  0  0  0  0  0  0
   -5.2371   -1.6677   -1.0975 C   0  0  0  0  0  0  0  0  0  0  0  0
   -0.9684   -0.3391    2.1070 C   0  0  1  0  0  0  0  0  0  0  0  0
    0.2134   -0.7027    1.2285 C   0  0  0  0  0  0  0  0  0  0  0  0
    0.4006   -2.0241    0.6430 C   0  0  0  0  0  0  0  0  0  0  0  0
   -0.6851   -2.8854    0.4571 C   0  0  0  0  0  0  0  0  0  0  0  0
   -0.5295   -4.1559   -0.0695 C   0  0  0  0  0  0  0  0  0  0  0  0
    0.7387   -4.6151   -0.4131 C   0  0  0  0  0  0  0  0  0  0  0  0
    0.8464   -5.8579   -0.9192 O   0  0  0  0  0  0  0  0  0  0  0  0
    1.8392   -3.7829   -0.2120 C   0  0  0  0  0  0  0  0  0  0  0  0
    1.6669   -2.5129    0.3074 C   0  0  0  0  0  0  0  0  0  0  0  0
    1.3516   -0.0406   -1.4560 H   0  0  0  0  0  0  0  0  0  0  0  0
    3.3401    0.5137   -2.7910 H   0  0  0  0  0  0  0  0  0  0  0  0
    6.1196    2.1768   -1.4184 H   0  0  0  0  0  0  0  0  0  0  0  0
    5.1551    2.2709    0.6749 H   0  0  0  0  0  0  0  0  0  0  0  0
    3.1768    1.7028    1.9953 H   0  0  0  0  0  0  0  0  0  0  0  0
    0.8120    2.1936    2.5256 H   0  0  0  0  0  0  0  0  0  0  0  0
   -1.5682    2.6202    2.0156 H   0  0  0  0  0  0  0  0  0  0  0  0
   -1.6240    4.6067   -1.7026 H   0  0  0  0  0  0  0  0  0  0  0  0
   -1.2692    3.0555   -2.4684 H   0  0  0  0  0  0  0  0  0  0  0  0
   -3.3705    4.0169   -3.3612 H   0  0  0  0  0  0  0  0  0  0  0  0
   -3.7098    2.5071   -2.5179 H   0  0  0  0  0  0  0  0  0  0  0  0
   -4.0808    4.0595   -1.7497 H   0  0  0  0  0  0  0  0  0  0  0  0
   -2.8408    0.7554    1.8683 H   0  0  0  0  0  0  0  0  0  0  0  0
   -3.9009   -0.3065   -2.1034 H   0  0  0  0  0  0  0  0  0  0  0  0
   -3.1588   -1.8424   -1.6492 H   0  0  0  0  0  0  0  0  0  0  0  0
   -5.2123   -2.4577   -0.3471 H   0  0  0  0  0  0  0  0  0  0  0  0
   -5.9529   -0.9084   -0.7825 H   0  0  0  0  0  0  0  0  0  0  0  0
   -5.5996   -2.1029   -2.0282 H   0  0  0  0  0  0  0  0  0  0  0  0
   -1.4876   -1.1541    2.6091 H   0  0  0  0  0  0  0  0  0  0  0  0
   -1.6853   -2.5721    0.7282 H   0  0  0  0  0  0  0  0  0  0  0  0
   -1.3926   -4.7950   -0.2079 H   0  0  0  0  0  0  0  0  0  0  0  0
    1.7703   -6.0756   -1.0865 H   0  0  0  0  0  0  0  0  0  0  0  0
    2.8374   -4.1297   -0.4544 H   0  0  0  0  0  0  0  0  0  0  0  0
    2.5426   -1.8975    0.4645 H   0  0  0  0  0  0  0  0  0  0  0  0
  1  7  2  0
  1  2  1  0
  1 32  1  0
  2  3  2  0
  2 33  1  0
  3  5  1  0
  3  4  1  0
  4 34  1  0
  5  6  2  0
  5 35  1  0
  6  7  1  0
  6 36  1  0
  7  8  1  0
  8  9  1  0
  8 24  2  0
  9 10  1  0
  9 11  1  0
  9 37  1  1
 10 23  1  0
 11 17  1  0
 11 12  1  0
 11 38  1  1
 12 14  1  0
 12 13  2  0
 14 15  1  0
 15 16  1  0
 15 39  1  0
 15 40  1  0
 16 41  1  0
 16 42  1  0
 16 43  1  0
 17 18  1  0
 17 23  1  0
 17 44  1  1
 18 20  1  0
 18 19  2  0
 20 21  1  0
 21 22  1  0
 21 45  1  0
 21 46  1  0
 22 47  1  0
 22 48  1  0
 22 49  1  0
 23 24  1  0
 23 50  1  1
 24 25  1  0
 25 31  1  0
 25 26  2  0
 26 27  1  0
 26 51  1  0
 27 28  2  0
 27 52  1  0
 28 30  1  0
 28 29  1  0
 29 53  1  0
 30 31  2  0
 30 54  1  0
 31 55  1  0
M  END
