
     RDKit          3D

 66 70  0  0  0  0  0  0  0  0999 V2000
   -2.4712    2.6428    0.3591 C   0  0  0  0  0  0  0  0  0  0  0  0
   -2.1219    2.9202   -0.9530 C   0  0  0  0  0  0  0  0  0  0  0  0
    5.6758    4.6159    3.0953 C   0  0  0  0  0  0  0  0  0  0  0  0
    6.8449    4.5210    2.3585 C   0  0  0  0  0  0  0  0  0  0  0  0
   -3.4807    1.7252    0.6061 C   0  0  0  0  0  0  0  0  0  0  0  0
   -2.7668    2.2921   -2.0102 C   0  0  0  0  0  0  0  0  0  0  0  0
    4.6105    3.7866    2.7760 C   0  0  0  0  0  0  0  0  0  0  0  0
    1.9225   -0.1149    0.1369 C   0  0  0  0  0  0  0  0  0  0  0  0
    2.8409   -1.4221   -2.1007 C   0  0  0  0  0  0  0  0  0  0  0  0
    6.9045    3.5945    1.3246 C   0  0  0  0  0  0  0  0  0  0  0  0
   -4.1460    1.0878   -0.4352 C   0  0  0  0  0  0  0  0  0  0  0  0
   -5.0672   -0.9894    0.8042 C   0  0  0  0  0  0  0  0  0  0  0  0
    1.1081   -1.0705   -0.4620 C   0  0  0  0  0  0  0  0  0  0  0  0
    3.1951    0.2165   -0.3331 C   0  0  0  0  0  0  0  0  0  0  0  0
    3.6426   -0.4557   -1.4940 C   0  0  0  0  0  0  0  0  0  0  0  0
   -3.7809    1.3693   -1.7613 C   0  0  0  0  0  0  0  0  0  0  0  0
    1.6064   -1.7347   -1.5991 C   0  0  0  0  0  0  0  0  0  0  0  0
   -5.1789    0.0940   -0.1167 C   0  0  0  0  0  0  0  0  0  0  0  0
    4.7720    2.8961    1.7251 C   0  0  0  0  0  0  0  0  0  0  0  0
   -6.2977   -1.5654    0.7779 C   0  0  0  0  0  0  0  0  0  0  0  0
    3.6464    1.9793    1.3455 C   0  0  0  0  0  0  0  0  0  0  0  0
   -0.3839   -1.0840    1.4542 C   0  0  0  0  0  0  0  0  0  0  0  0
   -1.2968   -1.0564   -0.7662 C   0  0  0  0  0  0  0  0  0  0  0  0
   -1.5813   -1.8785    1.9458 C   0  0  0  0  0  0  0  0  0  0  0  0
   -2.5088   -1.8324   -0.2895 C   0  0  0  0  0  0  0  0  0  0  0  0
   -6.8874   -2.7355    1.4632 C   0  0  0  0  0  0  0  0  0  0  0  0
   -4.0315    0.8648   -4.0669 C   0  0  0  0  0  0  0  0  0  0  0  0
    5.8912    2.8022    1.0167 N   0  0  0  0  0  0  0  0  0  0  0  0
   -6.3709    0.1347   -0.6366 N   0  0  0  0  0  0  0  0  0  0  0  0
   -0.1340   -1.3885    0.0560 N   0  0  0  0  0  0  0  0  0  0  0  0
   -2.7436   -1.5998    1.1236 N   0  0  0  0  0  0  0  0  0  0  0  0
    3.9627    1.1747    0.2939 N   0  0  0  0  0  0  0  0  0  0  0  0
    4.9234   -0.2229   -2.1088 N   0  0  0  0  0  0  0  0  0  0  0  0
    5.1742   -0.7834   -3.1499 O   0  0  0  0  0  0  0  0  0  0  0  0
   -4.1318   -1.4439    2.9016 O   0  0  0  0  0  0  0  0  0  0  0  0
    2.5892    1.9976    1.9435 O   0  0  0  0  0  0  0  0  0  0  0  0
    5.7147    0.5259   -1.5648 O   0  0  0  0  0  0  0  0  0  0  0  0
   -7.0611   -0.9038   -0.0900 O   0  0  0  0  0  0  0  0  0  0  0  0
   -4.4274    0.6893   -2.7197 O   0  0  0  0  0  0  0  0  0  0  0  0
    0.7288   -3.0392   -2.3149 Cl  0  0  0  0  0  0  0  0  0  0  0  0
   -1.9643    3.1301    1.1804 H   0  0  0  0  0  0  0  0  0  0  0  0
   -1.3343    3.6311   -1.1660 H   0  0  0  0  0  0  0  0  0  0  0  0
    7.6979    5.1488    2.5750 H   0  0  0  0  0  0  0  0  0  0  0  0
   -3.7661    1.5052    1.6277 H   0  0  0  0  0  0  0  0  0  0  0  0
   -2.4635    2.5267   -3.0209 H   0  0  0  0  0  0  0  0  0  0  0  0
    3.6830    3.8310    3.3284 H   0  0  0  0  0  0  0  0  0  0  0  0
    1.5508    0.4127    0.9974 H   0  0  0  0  0  0  0  0  0  0  0  0
    3.2105   -1.9565   -2.9629 H   0  0  0  0  0  0  0  0  0  0  0  0
    7.8022    3.4911    0.7272 H   0  0  0  0  0  0  0  0  0  0  0  0
   -0.5692   -0.0129    1.6186 H   0  0  0  0  0  0  0  0  0  0  0  0
    0.4828   -1.3715    2.0499 H   0  0  0  0  0  0  0  0  0  0  0  0
   -1.1169   -1.3010   -1.8103 H   0  0  0  0  0  0  0  0  0  0  0  0
   -1.4922    0.0215   -0.7093 H   0  0  0  0  0  0  0  0  0  0  0  0
   -1.3526   -2.9485    1.9108 H   0  0  0  0  0  0  0  0  0  0  0  0
   -1.7878   -1.6133    2.9790 H   0  0  0  0  0  0  0  0  0  0  0  0
   -3.3765   -1.5530   -0.8809 H   0  0  0  0  0  0  0  0  0  0  0  0
   -2.3362   -2.9019   -0.4503 H   0  0  0  0  0  0  0  0  0  0  0  0
   -7.8096   -2.4625    1.9766 H   0  0  0  0  0  0  0  0  0  0  0  0
   -7.1238   -3.5252    0.7490 H   0  0  0  0  0  0  0  0  0  0  0  0
   -6.1939   -3.1337    2.1983 H   0  0  0  0  0  0  0  0  0  0  0  0
   -4.1971    1.8887   -4.4106 H   0  0  0  0  0  0  0  0  0  0  0  0
   -2.9809    0.6048   -4.2199 H   0  0  0  0  0  0  0  0  0  0  0  0
   -4.6491    0.1929   -4.6568 H   0  0  0  0  0  0  0  0  0  0  0  0
    4.8972    1.3240   -0.0758 H   0  0  0  0  0  0  0  0  0  0  0  0
   -3.9430   -1.3694    1.6944 C   0  0  0  0  0  0  0  0  0  0  0  0
    5.5922    5.3244    3.9082 H   0  0  0  0  0  0  0  0  0  0  0  0
 10  4  1  0
 10 28  2  0
 34 33  1  0
 37 33  2  0
  4  3  2  0
 33 15  1  0
 28 19  1  0
  3  7  1  0
 19  7  2  0
 19 21  1  0
 15  9  2  0
 15 14  1  0
 32 14  1  0
 32 21  1  0
  9 17  1  0
 14  8  2  0
 21 36  2  0
 17 40  1  0
 17 13  2  0
  8 13  1  0
 13 30  1  0
 22 30  1  0
 22 24  1  0
 30 23  1  0
 24 31  1  0
 23 25  1  0
 31 25  1  0
 31 65  1  0
 65 35  2  0
 65 12  1  0
 27 39  1  0
  6  2  1  0
  6 16  2  0
  2  1  2  0
 39 16  1  0
 16 11  1  0
  1  5  1  0
 12 18  1  0
 12 20  2  0
 11  5  2  0
 11 18  1  0
 18 29  2  0
 20 26  1  0
 20 38  1  0
 29 38  1  0
  1 41  1  0
  2 42  1  0
  3 66  1  0
  4 43  1  0
  5 44  1  0
  6 45  1  0
  7 46  1  0
  8 47  1  0
  9 48  1  0
 10 49  1  0
 22 50  1  0
 22 51  1  0
 23 52  1  0
 23 53  1  0
 24 54  1  0
 24 55  1  0
 25 56  1  0
 25 57  1  0
 26 58  1  0
 26 59  1  0
 26 60  1  0
 27 61  1  0
 27 62  1  0
 27 63  1  0
 32 64  1  0
M  CHG  2  33   1  34  -1
M  END
