
     RDKit          3D

 56 60  0  0  0  0  0  0  0  0999 V2000
    6.3305   -0.4067    1.4233 N   0  0  0  0  0  0  0  0  0  0  0  0
    6.4132   -1.7268    1.2906 C   0  0  0  0  0  0  0  0  0  0  0  0
    6.1682   -3.8387    0.6171 C   0  0  0  0  0  0  0  0  0  0  0  0
    5.7283   -2.5156    0.3486 C   0  0  0  0  0  0  0  0  0  0  0  0
    2.6842   -0.0404   -1.6177 N   0  0  0  0  0  0  0  0  0  0  0  0
    1.8939    0.7295   -2.5653 C   0  0  0  0  0  0  0  0  0  0  0  0
    0.1484    1.1090   -0.7440 C   0  0  2  0  0  0  0  0  0  0  0  0
    1.8551   -0.8031   -0.6959 C   0  0  0  0  0  0  0  0  0  0  0  0
   -1.0430    0.3786   -1.3755 C   0  0  0  0  0  0  0  0  0  0  0  0
   -4.0394   -0.2960   -0.1040 C   0  0  0  0  0  0  0  0  0  0  0  0
   -6.3354   -2.6424    0.3959 C   0  0  1  0  0  0  0  0  0  0  0  0
    4.7567   -0.4958   -0.4107 C   0  0  0  0  0  0  0  0  0  0  0  0
    1.0316    1.7504   -1.8361 C   0  0  0  0  0  0  0  0  0  0  0  0
    0.9726    0.1356    0.1217 C   0  0  0  0  0  0  0  0  0  0  0  0
   -0.5514    2.1528    0.0788 C   0  0  0  0  0  0  0  0  0  0  0  0
   -1.9284    2.0436   -0.0987 C   0  0  0  0  0  0  0  0  0  0  0  0
    5.5209    0.1788    0.5664 C   0  0  0  0  0  0  0  0  0  0  0  0
   -6.0810   -1.2276    0.8692 C   0  0  0  0  0  0  0  0  0  0  0  0
   -2.8284    2.8786    0.5313 C   0  0  0  0  0  0  0  0  0  0  0  0
   -2.3193    3.8659    1.3728 C   0  0  0  0  0  0  0  0  0  0  0  0
   -0.9597    3.9878    1.5546 C   0  0  0  0  0  0  0  0  0  0  0  0
   -0.0712    3.1335    0.9092 C   0  0  0  0  0  0  0  0  0  0  0  0
    4.8641   -1.8691   -0.5304 C   0  0  0  0  0  0  0  0  0  0  0  0
   -6.9922   -3.3473    1.3252 F   0  0  0  0  0  0  0  0  0  0  0  0
   -7.0752   -2.6693   -0.7214 F   0  0  0  0  0  0  0  0  0  0  0  0
   -5.2019   -3.2983    0.1226 F   0  0  0  0  0  0  0  0  0  0  0  0
    1.2401    3.2862    1.1124 F   0  0  0  0  0  0  0  0  0  0  0  0
   -0.4650    4.9340    2.3632 F   0  0  0  0  0  0  0  0  0  0  0  0
   -2.1914    1.0094   -0.9892 N   0  0  0  0  0  0  0  0  0  0  0  0
   -5.3756   -0.4583   -0.1150 N   0  0  0  0  0  0  0  0  0  0  0  0
    7.1657   -2.5783    2.0147 N   0  0  0  0  0  0  0  0  0  0  0  0
    7.0181   -3.8447    1.6113 N   0  0  0  0  0  0  0  0  0  0  0  0
   -1.0034   -0.5894   -2.1030 O   0  0  0  0  0  0  0  0  0  0  0  0
   -3.2981   -0.7549    0.7416 O   0  0  0  0  0  0  0  0  0  0  0  0
    5.8898   -4.7562    0.1224 H   0  0  0  0  0  0  0  0  0  0  0  0
    2.5507    1.2344   -3.2689 H   0  0  0  0  0  0  0  0  0  0  0  0
    1.2793    0.0326   -3.1357 H   0  0  0  0  0  0  0  0  0  0  0  0
    1.2603   -1.5140   -1.2686 H   0  0  0  0  0  0  0  0  0  0  0  0
    2.4693   -1.3802   -0.0115 H   0  0  0  0  0  0  0  0  0  0  0  0
    1.6866    2.4846   -1.3632 H   0  0  0  0  0  0  0  0  0  0  0  0
    0.4103    2.2949   -2.5503 H   0  0  0  0  0  0  0  0  0  0  0  0
    1.6183    0.7195    0.7821 H   0  0  0  0  0  0  0  0  0  0  0  0
    0.3102   -0.4479    0.7648 H   0  0  0  0  0  0  0  0  0  0  0  0
    5.4419    1.2574    0.6448 H   0  0  0  0  0  0  0  0  0  0  0  0
   -3.4616   -0.1157   -2.1577 H   0  0  0  0  0  0  0  0  0  0  0  0
   -4.1696    1.3537   -1.5218 H   0  0  0  0  0  0  0  0  0  0  0  0
   -7.0388   -0.7540    1.0862 H   0  0  0  0  0  0  0  0  0  0  0  0
   -5.5113   -1.2611    1.7975 H   0  0  0  0  0  0  0  0  0  0  0  0
   -3.8968    2.7893    0.3902 H   0  0  0  0  0  0  0  0  0  0  0  0
   -2.9871    4.5429    1.8886 H   0  0  0  0  0  0  0  0  0  0  0  0
    4.3089   -2.4176   -1.2816 H   0  0  0  0  0  0  0  0  0  0  0  0
   -5.9167   -0.0106   -0.8379 H   0  0  0  0  0  0  0  0  0  0  0  0
    7.7826   -2.3596    2.7812 H   0  0  0  0  0  0  0  0  0  0  0  0
    3.9582    0.3347   -1.3614 C   0  0  0  0  0  0  0  0  0  0  0  0
   -3.5045    0.5237   -1.2740 C   0  0  0  0  0  0  0  0  0  0  0  0
    4.4921    1.2952   -1.8998 O   0  0  0  0  0  0  0  0  0  0  0  0
 32  3  2  0
 32 31  1  0
  3  4  1  0
 31  2  1  0
 28 21  1  0
  4  2  1  0
  4 23  2  0
  2  1  2  0
 27 22  1  0
 23 12  1  0
 21 22  1  0
 21 20  2  0
  1 17  1  0
 22 15  2  0
 12 17  2  0
 12 54  1  0
 20 19  1  0
 56 54  2  0
 54  5  1  0
 15  7  1  0
 15 16  1  0
 14  7  1  0
 14  8  1  0
 19 16  2  0
 13  7  1  0
 13  6  1  0
  7  9  1  6
  5  8  1  0
  5  6  1  0
 16 29  1  0
  9 29  1  0
  9 33  2  0
 29 55  1  0
 34 10  2  0
 55 10  1  0
 10 30  1  0
 30 18  1  0
 18 11  1  0
 11 25  1  6
 11 26  1  0
 11 24  1  0
  3 35  1  0
  6 36  1  0
  6 37  1  0
  8 38  1  0
  8 39  1  0
 13 40  1  0
 13 41  1  0
 14 42  1  0
 14 43  1  0
 17 44  1  0
 55 45  1  0
 55 46  1  0
 18 47  1  0
 18 48  1  0
 19 49  1  0
 20 50  1  0
 23 51  1  0
 30 52  1  0
 31 53  1  0
M  END
