
     RDKit          3D

 30 30  0  0  0  0  0  0  0  0999 V2000
   -0.9181    2.7393    4.7108 F   0  0  0  0  0  0  0  0  0  0  0  0
   -0.7429    3.0285    3.3870 C   0  0  1  0  0  0  0  0  0  0  0  0
    0.1339    4.0675    3.2603 F   0  0  0  0  0  0  0  0  0  0  0  0
   -0.1835    1.7961    2.6639 C   0  0  0  0  0  0  0  0  0  0  0  0
    0.5370    1.0488    3.2370 O   0  0  0  0  0  0  0  0  0  0  0  0
   -0.5653    1.5255    1.2840 N   0  0  0  0  0  0  0  0  0  0  0  0
   -0.0556    0.3222    0.6002 C   0  0  2  0  0  0  0  0  0  0  0  0
    0.5657    0.7302   -0.6846 C   0  0  1  0  0  0  0  0  0  0  0  0
    1.7431    1.5857   -0.3935 O   0  0  0  0  0  0  0  0  0  0  0  0
    0.9997   -0.4035   -1.4735 C   0  0  1  0  0  0  0  0  0  0  0  0
    2.1137   -1.0707   -0.7701 O   0  0  0  0  0  0  0  0  0  0  0  0
   -0.0951   -1.4024   -1.6952 C   0  0  1  0  0  0  0  0  0  0  0  0
    0.4813   -2.6076   -2.3972 C   0  0  0  0  0  0  0  0  0  0  0  0
   -0.5601   -3.4197   -2.8605 O   0  0  0  0  0  0  0  0  0  0  0  0
   -0.7260   -1.8447   -0.4284 O   0  0  0  0  0  0  0  0  0  0  0  0
   -1.2437   -0.6869    0.4007 C   0  0  1  0  0  0  0  0  0  0  0  0
   -1.6538   -1.1190    1.5536 O   0  0  0  0  0  0  0  0  0  0  0  0
   -1.6943    3.3035    2.9485 H   0  0  0  0  0  0  0  0  0  0  0  0
   -1.2028    2.1364    0.8126 H   0  0  0  0  0  0  0  0  0  0  0  0
    0.7001   -0.1464    1.2201 H   0  0  0  0  0  0  0  0  0  0  0  0
   -0.1551    1.2986   -1.2565 H   0  0  0  0  0  0  0  0  0  0  0  0
   -2.0553   -0.1966   -0.1231 H   0  0  0  0  0  0  0  0  0  0  0  0
    1.6993    2.3675   -0.9151 H   0  0  0  0  0  0  0  0  0  0  0  0
    1.3481   -0.0469   -2.4361 H   0  0  0  0  0  0  0  0  0  0  0  0
    2.8979   -1.0061   -1.2906 H   0  0  0  0  0  0  0  0  0  0  0  0
   -0.8544   -0.9536   -2.3249 H   0  0  0  0  0  0  0  0  0  0  0  0
    1.0862   -2.2824   -3.2357 H   0  0  0  0  0  0  0  0  0  0  0  0
    1.0961   -3.1691   -1.7045 H   0  0  0  0  0  0  0  0  0  0  0  0
   -0.2350   -3.9950   -3.5305 H   0  0  0  0  0  0  0  0  0  0  0  0
   -2.4609   -1.5990    1.4415 H   0  0  0  0  0  0  0  0  0  0  0  0
  1  2  1  0
  2  3  1  0
  2  4  1  0
  4  5  2  0
  4  6  1  0
  6  7  1  0
  7  8  1  0
  7 16  1  0
  8  9  1  0
  8 10  1  0
 10 11  1  0
 10 12  1  0
 12 13  1  0
 12 15  1  0
 13 14  1  0
 15 16  1  0
 16 17  1  0
  2 18  1  6
  6 19  1  0
  7 20  1  1
  8 21  1  6
 16 22  1  6
  9 23  1  0
 10 24  1  6
 11 25  1  0
 12 26  1  6
 13 27  1  0
 13 28  1  0
 14 29  1  0
 17 30  1  0
M  END
