
     RDKit          3D

 62 61  0  0  0  0  0  0  0  0999 V2000
   -5.9076   -3.2664   -1.0258 O   0  0  0  0  0  0  0  0  0  0  0  0
   -7.1381   -2.6050   -0.2473 P   0  0  1  0  0  0  0  0  0  0  0  0
   -8.1463   -2.1504   -1.2229 O   0  0  0  0  0  0  0  0  0  0  0  0
   -7.6038   -3.6255    0.8850 O   0  0  0  0  0  0  0  0  0  0  0  0
   -6.5332   -1.4981    0.7260 O   0  0  0  0  0  0  0  0  0  0  0  0
   -6.0134   -0.2842    0.1671 C   0  0  0  0  0  0  0  0  0  0  0  0
   -5.3938    0.5448    1.2908 C   0  0  1  0  0  0  0  0  0  0  0  0
   -6.4512    0.8971    2.3409 C   0  0  0  0  0  0  0  0  0  0  0  0
   -4.2601   -0.2304    1.9653 C   0  0  0  0  0  0  0  0  0  0  0  0
   -4.8528    1.8811    0.7068 C   0  0  2  0  0  0  0  0  0  0  0  0
   -5.8590    2.6511    0.1083 O   0  0  0  0  0  0  0  0  0  0  0  0
   -3.7255    1.6838   -0.3091 C   0  0  0  0  0  0  0  0  0  0  0  0
   -3.9899    1.5762   -1.5021 O   0  0  0  0  0  0  0  0  0  0  0  0
   -2.4822    1.6535    0.1710 N   0  0  0  0  0  0  0  0  0  0  0  0
   -1.3211    1.4231   -0.6656 C   0  0  0  0  0  0  0  0  0  0  0  0
   -0.0548    1.6667    0.1399 C   0  0  0  0  0  0  0  0  0  0  0  0
    1.1861    1.3711   -0.6749 C   0  0  0  0  0  0  0  0  0  0  0  0
    1.2660    0.3879   -1.3969 O   0  0  0  0  0  0  0  0  0  0  0  0
    2.1865    2.2571   -0.5332 N   0  0  0  0  0  0  0  0  0  0  0  0
    3.4816    2.0888   -1.1465 C   0  0  0  0  0  0  0  0  0  0  0  0
    4.3963    1.2363   -0.2717 C   0  0  0  0  0  0  0  0  0  0  0  0
    6.0033    1.0643   -1.0980 S   0  0  0  0  0  0  0  0  0  0  0  0
    6.9304    0.1825    0.1336 C   0  0  0  0  0  0  0  0  0  0  0  0
    6.4543   -0.1344    1.1919 O   0  0  0  0  0  0  0  0  0  0  0  0
    8.3411   -0.1201   -0.3003 C   0  0  0  0  0  0  0  0  0  0  0  0
    9.1927   -0.7595    0.7867 C   0  0  0  0  0  0  0  0  0  0  0  0
   10.6042   -1.0627    0.2992 C   0  0  0  0  0  0  0  0  0  0  0  0
   11.4723   -1.7031    1.3759 C   0  0  0  0  0  0  0  0  0  0  0  0
   12.8805   -2.0190    0.8913 C   0  0  0  0  0  0  0  0  0  0  0  0
   -5.2637   -0.5220   -0.5925 H   0  0  0  0  0  0  0  0  0  0  0  0
   -6.8258    0.2662   -0.3138 H   0  0  0  0  0  0  0  0  0  0  0  0
   -6.0095    1.5076    3.1315 H   0  0  0  0  0  0  0  0  0  0  0  0
   -7.2818    1.4575    1.9116 H   0  0  0  0  0  0  0  0  0  0  0  0
   -6.8547   -0.0005    2.8087 H   0  0  0  0  0  0  0  0  0  0  0  0
   -3.5410   -0.6336    1.2506 H   0  0  0  0  0  0  0  0  0  0  0  0
   -3.7168    0.4075    2.6666 H   0  0  0  0  0  0  0  0  0  0  0  0
   -4.6565   -1.0679    2.5383 H   0  0  0  0  0  0  0  0  0  0  0  0
   -4.4683    2.4517    1.5608 H   0  0  0  0  0  0  0  0  0  0  0  0
   -5.8564    2.4533   -0.8373 H   0  0  0  0  0  0  0  0  0  0  0  0
   -2.3450    1.7586    1.1637 H   0  0  0  0  0  0  0  0  0  0  0  0
   -1.3315    0.4033   -1.0540 H   0  0  0  0  0  0  0  0  0  0  0  0
   -1.3536    2.0994   -1.5220 H   0  0  0  0  0  0  0  0  0  0  0  0
   -0.0431    2.6895    0.5220 H   0  0  0  0  0  0  0  0  0  0  0  0
   -0.0354    1.0019    1.0099 H   0  0  0  0  0  0  0  0  0  0  0  0
    2.0659    3.0296    0.1013 H   0  0  0  0  0  0  0  0  0  0  0  0
    3.3559    1.6345   -2.1292 H   0  0  0  0  0  0  0  0  0  0  0  0
    3.9149    3.0771   -1.2977 H   0  0  0  0  0  0  0  0  0  0  0  0
    4.5451    1.7111    0.6976 H   0  0  0  0  0  0  0  0  0  0  0  0
    3.9644    0.2485   -0.1160 H   0  0  0  0  0  0  0  0  0  0  0  0
    8.2818   -0.7739   -1.1771 H   0  0  0  0  0  0  0  0  0  0  0  0
    8.8001    0.8074   -0.6568 H   0  0  0  0  0  0  0  0  0  0  0  0
    9.2418   -0.0954    1.6537 H   0  0  0  0  0  0  0  0  0  0  0  0
    8.7211   -1.6841    1.1287 H   0  0  0  0  0  0  0  0  0  0  0  0
   10.5556   -1.7276   -0.5700 H   0  0  0  0  0  0  0  0  0  0  0  0
   11.0803   -0.1396   -0.0488 H   0  0  0  0  0  0  0  0  0  0  0  0
   11.5238   -1.0361    2.2420 H   0  0  0  0  0  0  0  0  0  0  0  0
   10.9907   -2.6207    1.7272 H   0  0  0  0  0  0  0  0  0  0  0  0
   12.8619   -2.7156    0.0514 H   0  0  0  0  0  0  0  0  0  0  0  0
   13.3957   -1.1162    0.5578 H   0  0  0  0  0  0  0  0  0  0  0  0
   13.4831   -2.4691    1.6810 H   0  0  0  0  0  0  0  0  0  0  0  0
   -5.2213   -3.6636   -0.4733 H   0  0  0  0  0  0  0  0  0  0  0  0
   -8.1142   -4.3751    0.5504 H   0  0  0  0  0  0  0  0  0  0  0  0
  2  1  1  6
  1 61  1  0
  3  2  2  0
  2  5  1  0
  2  4  1  0
  4 62  1  0
  5  6  1  0
  6 31  1  0
  7  6  1  6
  6 30  1  0
  9  7  1  0
 10  7  1  0
  7  8  1  0
  8 34  1  0
  8 33  1  0
  8 32  1  0
 37  9  1  0
  9 35  1  0
  9 36  1  0
 11 10  1  0
 10 12  1  0
 10 38  1  1
 39 11  1  0
 13 12  2  0
 12 14  1  0
 14 15  1  0
 14 40  1  0
 41 15  1  0
 42 15  1  0
 15 16  1  0
 16 43  1  0
 16 17  1  0
 16 44  1  0
 19 17  1  0
 17 18  2  0
 45 19  1  0
 19 20  1  0
 21 20  1  0
 20 46  1  0
 20 47  1  0
 22 21  1  0
 21 48  1  0
 21 49  1  0
 23 22  1  0
 25 23  1  0
 23 24  2  0
 26 25  1  0
 50 25  1  0
 51 25  1  0
 52 26  1  0
 26 27  1  0
 26 53  1  0
 28 27  1  0
 55 27  1  0
 27 54  1  0
 29 28  1  0
 28 56  1  0
 28 57  1  0
 60 29  1  0
 59 29  1  0
 58 29  1  0
M  END
