
     RDKit          3D

 29 29  0  0  0  0  0  0  0  0999 V2000
   -1.6674    1.9843    0.3036 C   0  0  0  0  0  0  0  0  0  0  0  0
   -2.8328   -0.4254   -0.3711 C   0  0  0  0  0  0  0  0  0  0  0  0
    3.4578    0.8023    1.1032 C   0  0  0  0  0  0  0  0  0  0  0  0
    2.8305   -0.0292   -0.0164 C   0  0  1  0  0  0  0  0  0  0  0  0
    3.3528    0.4061   -1.3842 C   0  0  0  0  0  0  0  0  0  0  0  0
    3.1193   -1.5217    0.2001 C   0  0  0  0  0  0  0  0  0  0  0  0
    4.5051   -1.7323    0.2186 O   0  0  0  0  0  0  0  0  0  0  0  0
    1.3666    0.0530    0.0341 N   0  0  0  0  0  0  0  0  0  0  0  0
    0.6145    1.1389   -0.2069 C   0  0  0  0  0  0  0  0  0  0  0  0
    1.0545    2.2427   -0.4928 O   0  0  0  0  0  0  0  0  0  0  0  0
   -0.8672    0.9214   -0.1049 C   0  0  0  0  0  0  0  0  0  0  0  0
   -3.0412    1.8268    0.3915 C   0  0  0  0  0  0  0  0  0  0  0  0
   -3.6373    0.6199    0.0528 C   0  0  0  0  0  0  0  0  0  0  0  0
   -1.4560   -0.2915   -0.4516 C   0  0  0  0  0  0  0  0  0  0  0  0
   -3.5608   -1.9316   -0.8211 Cl  0  0  0  0  0  0  0  0  0  0  0  0
   -1.2164    2.9322    0.5635 H   0  0  0  0  0  0  0  0  0  0  0  0
    3.0917    0.4785    2.0789 H   0  0  0  0  0  0  0  0  0  0  0  0
    4.5424    0.7015    1.0965 H   0  0  0  0  0  0  0  0  0  0  0  0
    3.2224    1.8586    0.9837 H   0  0  0  0  0  0  0  0  0  0  0  0
    4.4225    0.2133   -1.4544 H   0  0  0  0  0  0  0  0  0  0  0  0
    2.8546   -0.1452   -2.1832 H   0  0  0  0  0  0  0  0  0  0  0  0
    3.1964    1.4688   -1.5514 H   0  0  0  0  0  0  0  0  0  0  0  0
    2.6553   -1.8347    1.1478 H   0  0  0  0  0  0  0  0  0  0  0  0
    2.6319   -2.0914   -0.6037 H   0  0  0  0  0  0  0  0  0  0  0  0
    4.6632   -2.6758    0.3109 H   0  0  0  0  0  0  0  0  0  0  0  0
    0.8948   -0.7373    0.4465 H   0  0  0  0  0  0  0  0  0  0  0  0
   -3.6594    2.6503    0.7226 H   0  0  0  0  0  0  0  0  0  0  0  0
   -4.7103    0.4992    0.1137 H   0  0  0  0  0  0  0  0  0  0  0  0
   -0.8600   -1.1217   -0.8082 H   0  0  0  0  0  0  0  0  0  0  0  0
  5  4  1  0
  4  3  1  0
  4  8  1  6
  4  6  1  0
  7  6  1  0
  8  9  1  0
  9 11  1  0
  9 10  2  0
 15  2  1  0
 14 11  1  0
 14  2  2  0
 11  1  2  0
  2 13  1  0
  1 12  1  0
 13 12  2  0
  1 16  1  0
  3 17  1  0
  3 18  1  0
  3 19  1  0
  5 20  1  0
  5 21  1  0
  5 22  1  0
  6 23  1  0
  6 24  1  0
  7 25  1  0
  8 26  1  0
 12 27  1  0
 13 28  1  0
 14 29  1  0
M  END
