
     RDKit          3D

 37 38  0  0  0  0  0  0  0  0999 V2000
   -4.1602    1.9729    0.5209 O   0  0  0  0  0  0  0  0  0  0  0  0
   -4.1678    0.8969   -0.4867 P   0  0  1  0  0  0  0  0  0  0  0  0
   -5.3296   -0.1456   -0.1437 O   0  0  0  0  0  0  0  0  0  0  0  0
   -4.3109    1.3046   -2.0199 O   0  0  0  0  0  0  0  0  0  0  0  0
    2.1188   -0.0187   -0.0259 N   0  0  0  0  0  0  0  0  0  0  0  0
    2.0004    0.6807    1.1606 C   0  0  0  0  0  0  0  0  0  0  0  0
    1.1150    0.4679    1.9597 O   0  0  0  0  0  0  0  0  0  0  0  0
    2.9667    1.6213    1.3862 N   0  0  0  0  0  0  0  0  0  0  0  0
    4.0214    1.9645    0.5598 C   0  0  0  0  0  0  0  0  0  0  0  0
    4.8339    2.8025    0.8995 O   0  0  0  0  0  0  0  0  0  0  0  0
    3.0713    0.3353   -0.9579 C   0  0  0  0  0  0  0  0  0  0  0  0
    4.0112    1.2639   -0.7011 C   0  0  0  0  0  0  0  0  0  0  0  0
   -2.8199    0.0540   -0.6404 O   0  0  0  0  0  0  0  0  0  0  0  0
   -2.1826   -0.4594    0.5328 C   0  0  0  0  0  0  0  0  0  0  0  0
   -1.0636   -1.3758    0.1144 C   0  0  2  0  0  0  0  0  0  0  0  0
   -0.3782   -2.0222    1.3197 C   0  0  1  0  0  0  0  0  0  0  0  0
   -0.9990   -3.2471    1.6107 O   0  0  0  0  0  0  0  0  0  0  0  0
    1.0763   -2.1903    0.8381 C   0  0  1  0  0  0  0  0  0  0  0  0
    1.2501   -3.4480    0.2401 O   0  0  0  0  0  0  0  0  0  0  0  0
   -0.0648   -0.6325   -0.5575 O   0  0  0  0  0  0  0  0  0  0  0  0
    1.2107   -1.1322   -0.2759 C   0  0  1  0  0  0  0  0  0  0  0  0
    2.9955   -0.2672   -2.3121 C   0  0  0  0  0  0  0  0  0  0  0  0
    4.0551   -0.5911   -2.9130 N   0  0  0  0  0  0  0  0  0  0  0  0
   -5.4478   -0.8666   -0.7766 H   0  0  0  0  0  0  0  0  0  0  0  0
   -5.0347    1.9204   -2.1977 H   0  0  0  0  0  0  0  0  0  0  0  0
    2.8929    2.1127    2.2691 H   0  0  0  0  0  0  0  0  0  0  0  0
    4.7326    1.5300   -1.4580 H   0  0  0  0  0  0  0  0  0  0  0  0
   -1.7878    0.3608    1.1373 H   0  0  0  0  0  0  0  0  0  0  0  0
   -2.8893   -1.0308    1.1416 H   0  0  0  0  0  0  0  0  0  0  0  0
   -1.4580   -2.1643   -0.5411 H   0  0  0  0  0  0  0  0  0  0  0  0
   -0.4051   -1.3534    2.1807 H   0  0  0  0  0  0  0  0  0  0  0  0
   -0.8921   -3.4361    2.5484 H   0  0  0  0  0  0  0  0  0  0  0  0
    1.8019   -2.0417    1.6438 H   0  0  0  0  0  0  0  0  0  0  0  0
    0.5788   -4.0340    0.6173 H   0  0  0  0  0  0  0  0  0  0  0  0
    1.6208   -1.6561   -1.1423 H   0  0  0  0  0  0  0  0  0  0  0  0
    1.9981   -0.3408   -2.7485 H   0  0  0  0  0  0  0  0  0  0  0  0
    3.8428   -0.9247   -3.8491 H   0  0  0  0  0  0  0  0  0  0  0  0
  1  2  2  0
  2  3  1  1
  2 13  1  0
  2  4  1  0
  3 24  1  0
  4 25  1  0
  6  5  1  0
 11  5  1  0
  5 21  1  0
  8  6  1  0
  6  7  2  0
  9  8  1  0
  8 26  1  0
 10  9  2  0
  9 12  1  0
 12 11  2  0
 11 22  1  0
 12 27  1  0
 14 13  1  0
 14 15  1  0
 14 28  1  0
 14 29  1  0
 20 15  1  0
 15 16  1  0
 15 30  1  6
 16 18  1  0
 16 17  1  0
 16 31  1  1
 17 32  1  0
 21 18  1  0
 18 19  1  0
 18 33  1  1
 19 34  1  0
 20 21  1  0
 21 35  1  6
 23 22  2  0
 22 36  1  0
 23 37  1  0
M  END
