
     RDKit          3D

 33 33  0  0  0  0  0  0  0  0999 V2000
    3.6490    1.7668    2.0762 C   0  0  0  0  0  0  0  0  0  0  0  0
    3.9018    2.7086   -0.2494 C   0  0  0  0  0  0  0  0  0  0  0  0
    0.8216   -1.8712   -1.5909 O   0  0  0  0  0  0  0  0  0  0  0  0
   -5.0054   -0.8768    0.2853 O   0  0  0  0  0  0  0  0  0  0  0  0
    2.8962   -2.1559   -0.8054 O   0  0  0  0  0  0  0  0  0  0  0  0
   -4.2428   -0.2370   -1.7025 O   0  0  0  0  0  0  0  0  0  0  0  0
    2.9377    0.4640    0.1041 C   0  0  0  0  0  0  0  0  0  0  0  0
   -1.4562   -0.3570    2.2156 C   0  0  0  0  0  0  0  0  0  0  0  0
   -0.3129    0.0092    1.5119 C   0  0  0  0  0  0  0  0  0  0  0  0
   -2.6524   -0.5038    1.5465 C   0  0  0  0  0  0  0  0  0  0  0  0
    0.6901    0.6238   -0.5918 O   0  0  0  0  0  0  0  0  0  0  0  0
    1.7923   -1.4555   -1.0073 C   0  0  0  0  0  0  0  0  0  0  0  0
    1.8544   -0.0857   -0.4397 C   0  0  0  0  0  0  0  0  0  0  0  0
   -1.5911    0.0548   -0.5504 C   0  0  0  0  0  0  0  0  0  0  0  0
   -0.3877    0.2136    0.1530 C   0  0  0  0  0  0  0  0  0  0  0  0
   -2.7450   -0.2993    0.1626 C   0  0  0  0  0  0  0  0  0  0  0  0
    3.0442    1.8403    0.6737 C   0  0  1  0  0  0  0  0  0  0  0  0
    3.7279    2.7654    2.5075 H   0  0  0  0  0  0  0  0  0  0  0  0
    3.0387    1.1600    2.7466 H   0  0  0  0  0  0  0  0  0  0  0  0
    4.6512    1.3344    2.0501 H   0  0  0  0  0  0  0  0  0  0  0  0
    3.4378    2.8278   -1.2284 H   0  0  0  0  0  0  0  0  0  0  0  0
    4.0363    3.7011    0.1827 H   0  0  0  0  0  0  0  0  0  0  0  0
    4.8912    2.2714   -0.3959 H   0  0  0  0  0  0  0  0  0  0  0  0
   -5.8355   -0.9496   -0.2080 H   0  0  0  0  0  0  0  0  0  0  0  0
    2.8141   -3.0295   -1.2157 H   0  0  0  0  0  0  0  0  0  0  0  0
   -0.7193    0.3987   -2.1874 H   0  0  0  0  0  0  0  0  0  0  0  0
    3.8450   -0.1300    0.1254 H   0  0  0  0  0  0  0  0  0  0  0  0
   -1.4048   -0.5138    3.2838 H   0  0  0  0  0  0  0  0  0  0  0  0
    0.6298    0.1418    2.0292 H   0  0  0  0  0  0  0  0  0  0  0  0
   -3.5339   -0.7786    2.1068 H   0  0  0  0  0  0  0  0  0  0  0  0
    2.0514    2.2899    0.7471 H   0  0  0  0  0  0  0  0  0  0  0  0
   -1.6194    0.2439   -1.8692 O   0  0  0  0  0  0  0  0  0  0  0  0
   -4.0431   -0.4578   -0.5328 C   0  0  0  0  0  0  0  0  0  0  0  0
  1 17  1  0
  2 17  1  0
  3 12  2  0
  4 33  1  0
  5 12  1  0
  6 33  2  0
 32 14  1  0
  7 13  2  0
  7 17  1  0
  8  9  2  0
  8 10  1  0
  9 15  1  0
 10 16  2  0
 11 13  1  0
 11 15  1  0
 12 13  1  0
 33 16  1  0
 14 15  2  0
 14 16  1  0
  1 18  1  0
  1 19  1  0
  1 20  1  0
  2 21  1  0
  2 22  1  0
  2 23  1  0
  4 24  1  0
  5 25  1  0
 32 26  1  0
  7 27  1  0
  8 28  1  0
  9 29  1  0
 10 30  1  0
 17 31  1  1
M  END
