
     RDKit          3D

 26 27  0  0  0  0  0  0  0  0999 V2000
   -1.5681    0.1057    0.0806 C   0  0  0  0  0  0  0  0  0  0  0  0
   -1.7231   -1.2738   -0.0580 C   0  0  0  0  0  0  0  0  0  0  0  0
   -2.9942   -1.8179    0.0118 C   0  0  0  0  0  0  0  0  0  0  0  0
   -4.0737   -0.9735    0.2177 C   0  0  0  0  0  0  0  0  0  0  0  0
   -3.9427    0.3430    0.3496 N   0  0  0  0  0  0  0  0  0  0  0  0
   -2.7281    0.8605    0.2807 C   0  0  0  0  0  0  0  0  0  0  0  0
   -0.2723    0.7544    0.0254 C   0  0  0  0  0  0  0  0  0  0  0  0
    0.1353    2.0384    0.2222 C   0  0  0  0  0  0  0  0  0  0  0  0
    1.5463    2.0428    0.0357 C   0  0  0  0  0  0  0  0  0  0  0  0
    1.9007    0.7684   -0.2636 C   0  0  0  0  0  0  0  0  0  0  0  0
    0.7991   -0.0146   -0.2723 O   0  0  0  0  0  0  0  0  0  0  0  0
    3.2027    0.1217   -0.5643 C   0  0  0  0  0  0  0  0  0  0  0  0
    3.5888   -0.8335    0.4613 N   0  0  0  0  0  0  0  0  0  0  0  0
    4.8813   -1.4280    0.1807 C   0  0  0  0  0  0  0  0  0  0  0  0
   -0.8689   -1.9191   -0.2135 H   0  0  0  0  0  0  0  0  0  0  0  0
   -3.1457   -2.8837   -0.0889 H   0  0  0  0  0  0  0  0  0  0  0  0
   -5.0804   -1.3707    0.2775 H   0  0  0  0  0  0  0  0  0  0  0  0
   -2.6616    1.9384    0.3858 H   0  0  0  0  0  0  0  0  0  0  0  0
   -0.4848    2.8825    0.4776 H   0  0  0  0  0  0  0  0  0  0  0  0
    2.2140    2.8855    0.1146 H   0  0  0  0  0  0  0  0  0  0  0  0
    3.9555    0.9124   -0.6053 H   0  0  0  0  0  0  0  0  0  0  0  0
    3.1717   -0.3253   -1.5713 H   0  0  0  0  0  0  0  0  0  0  0  0
    2.8974   -1.5717    0.5023 H   0  0  0  0  0  0  0  0  0  0  0  0
    5.1014   -2.1935    0.9242 H   0  0  0  0  0  0  0  0  0  0  0  0
    4.9560   -1.8903   -0.8135 H   0  0  0  0  0  0  0  0  0  0  0  0
    5.6623   -0.6684    0.2476 H   0  0  0  0  0  0  0  0  0  0  0  0
  1  2  2  0
  1  6  1  0
  1  7  1  0
  2  3  1  0
  2 15  1  0
  3  4  2  0
  3 16  1  0
  4  5  1  0
  4 17  1  0
  5  6  2  0
  6 18  1  0
  7  8  2  0
  7 11  1  0
  8  9  1  0
  8 19  1  0
  9 10  2  0
  9 20  1  0
 10 11  1  0
 10 12  1  0
 12 13  1  0
 12 21  1  0
 12 22  1  0
 13 14  1  0
 13 23  1  0
 14 24  1  0
 14 25  1  0
 14 26  1  0
M  END
