
     RDKit          3D

 48 48  0  0  0  0  0  0  0  0999 V2000
   -5.1234    0.9464   -0.8636 O   0  0  0  0  0  0  0  0  0  0  0  0
    3.9803   -0.2021   -0.3817 C   0  0  0  0  0  0  0  0  0  0  0  0
    2.7793    0.0562    0.5195 C   0  0  0  0  0  0  0  0  0  0  0  0
   -2.6775    2.5356   -1.0792 O   0  0  0  0  0  0  0  0  0  0  0  0
    1.4697   -0.0121   -0.2389 C   0  0  0  0  0  0  0  0  0  0  0  0
   -0.8713    0.2090    0.0711 C   0  0  1  0  0  0  0  0  0  0  0  0
   -1.3924   -1.2066    0.3594 C   0  0  0  0  0  0  0  0  0  0  0  0
   -3.7480   -0.8586    0.1347 C   0  0  2  0  0  0  0  0  0  0  0  0
   -0.9844    2.4297    0.9321 O   0  0  0  0  0  0  0  0  0  0  0  0
   -4.9433   -1.7540   -0.1325 C   0  0  0  0  0  0  0  0  0  0  0  0
   -3.8107    0.4512   -0.6741 C   0  0  2  0  0  0  0  0  0  0  0  0
   -3.0301    1.6211   -0.0658 C   0  0  1  0  0  0  0  0  0  0  0  0
   -1.7572    1.2750    0.7289 C   0  0  1  0  0  0  0  0  0  0  0  0
   -4.7759   -2.9483    0.5936 O   0  0  0  0  0  0  0  0  0  0  0  0
   -2.5929   -1.5626   -0.2697 O   0  0  0  0  0  0  0  0  0  0  0  0
    0.4121    0.2893    0.6442 O   0  0  0  0  0  0  0  0  0  0  0  0
    5.3032   -0.1515    0.3726 C   0  0  0  0  0  0  0  0  0  0  0  0
    6.5161   -0.3771   -0.5203 C   0  0  0  0  0  0  0  0  0  0  0  0
    7.8369   -0.3337    0.2389 C   0  0  0  0  0  0  0  0  0  0  0  0
    9.0454   -0.5455   -0.6621 C   0  0  0  0  0  0  0  0  0  0  0  0
   -5.5221    0.4971   -1.6146 H   0  0  0  0  0  0  0  0  0  0  0  0
    3.8766   -1.1798   -0.8649 H   0  0  0  0  0  0  0  0  0  0  0  0
    3.9962    0.5365   -1.1906 H   0  0  0  0  0  0  0  0  0  0  0  0
    2.7656   -0.6755    1.3335 H   0  0  0  0  0  0  0  0  0  0  0  0
    2.8756    1.0430    0.9828 H   0  0  0  0  0  0  0  0  0  0  0  0
   -3.4878    2.8004   -1.5270 H   0  0  0  0  0  0  0  0  0  0  0  0
    1.4805    0.7017   -1.0750 H   0  0  0  0  0  0  0  0  0  0  0  0
    1.3508   -1.0122   -0.6800 H   0  0  0  0  0  0  0  0  0  0  0  0
   -0.8184    0.3812   -1.0142 H   0  0  0  0  0  0  0  0  0  0  0  0
   -0.6497   -1.9278    0.0110 H   0  0  0  0  0  0  0  0  0  0  0  0
   -1.4749   -1.3233    1.4499 H   0  0  0  0  0  0  0  0  0  0  0  0
   -3.7160   -0.6582    1.2174 H   0  0  0  0  0  0  0  0  0  0  0  0
   -1.5664    3.1338    1.2357 H   0  0  0  0  0  0  0  0  0  0  0  0
   -5.8487   -1.2228    0.1760 H   0  0  0  0  0  0  0  0  0  0  0  0
   -5.0292   -1.9465   -1.2128 H   0  0  0  0  0  0  0  0  0  0  0  0
   -3.3585    0.2159   -1.6468 H   0  0  0  0  0  0  0  0  0  0  0  0
   -3.7093    2.1013    0.6582 H   0  0  0  0  0  0  0  0  0  0  0  0
   -2.0909    0.8751    1.6990 H   0  0  0  0  0  0  0  0  0  0  0  0
   -5.6125   -3.4214    0.5802 H   0  0  0  0  0  0  0  0  0  0  0  0
    5.3966    0.8188    0.8729 H   0  0  0  0  0  0  0  0  0  0  0  0
    5.2934   -0.9027    1.1702 H   0  0  0  0  0  0  0  0  0  0  0  0
    6.4223   -1.3443   -1.0271 H   0  0  0  0  0  0  0  0  0  0  0  0
    6.5302    0.3790   -1.3134 H   0  0  0  0  0  0  0  0  0  0  0  0
    7.9258    0.6285    0.7532 H   0  0  0  0  0  0  0  0  0  0  0  0
    7.8273   -1.0960    1.0242 H   0  0  0  0  0  0  0  0  0  0  0  0
    9.1033    0.2245   -1.4339 H   0  0  0  0  0  0  0  0  0  0  0  0
    9.9783   -0.5175   -0.0976 H   0  0  0  0  0  0  0  0  0  0  0  0
    8.9959   -1.5122   -1.1672 H   0  0  0  0  0  0  0  0  0  0  0  0
 20 19  1  0
 19 18  1  0
 18 17  1  0
 17  2  1  0
  2  3  1  0
  3  5  1  0
  5 16  1  0
 16  6  1  0
  6  7  1  0
  6 13  1  0
  7 15  1  0
  8 15  1  0
  8 10  1  0
  8 11  1  0
 13 12  1  0
 13  9  1  0
 12 11  1  0
 12  4  1  0
 10 14  1  0
 11  1  1  0
  1 21  1  0
  2 22  1  0
  2 23  1  0
  3 24  1  0
  3 25  1  0
  4 26  1  0
  5 27  1  0
  5 28  1  0
  6 29  1  6
  7 30  1  0
  7 31  1  0
  8 32  1  1
  9 33  1  0
 10 34  1  0
 10 35  1  0
 11 36  1  6
 12 37  1  1
 13 38  1  1
 14 39  1  0
 17 40  1  0
 17 41  1  0
 18 42  1  0
 18 43  1  0
 19 44  1  0
 19 45  1  0
 20 46  1  0
 20 47  1  0
 20 48  1  0
M  END
