
     RDKit          3D

 30 31  0  0  0  0  0  0  0  0999 V2000
    5.0864   -1.3407    0.8438 C   0  0  0  0  0  0  0  0  0  0  0  0
    4.3089   -0.3649    0.0132 C   0  0  0  0  0  0  0  0  0  0  0  0
   -1.1310   -2.0222   -1.0392 S   0  0  0  0  0  0  0  0  0  0  0  0
    0.5591   -1.5365   -0.5856 C   0  0  0  0  0  0  0  0  0  0  0  0
    4.7938    0.3888   -0.7928 O   0  0  0  0  0  0  0  0  0  0  0  0
    0.7452   -0.0697   -0.2881 C   0  0  0  0  0  0  0  0  0  0  0  0
    3.0009   -0.4350    0.2483 O   0  0  0  0  0  0  0  0  0  0  0  0
   -0.2523    0.7013    0.1718 C   0  0  0  0  0  0  0  0  0  0  0  0
   -1.5074    0.1702    0.4405 N   0  0  0  0  0  0  0  0  0  0  0  0
   -1.8667   -1.2330    0.4065 C   0  0  1  0  0  0  0  0  0  0  0  0
   -3.3458   -0.8025    0.2259 C   0  0  1  0  0  0  0  0  0  0  0  0
   -2.7665    0.6174    0.0966 C   0  0  0  0  0  0  0  0  0  0  0  0
   -3.1571    1.7008   -0.2388 O   0  0  0  0  0  0  0  0  0  0  0  0
   -0.1601    2.1508    0.5300 C   0  0  0  0  0  0  0  0  0  0  0  0
    2.1429    0.4175   -0.5222 C   0  0  0  0  0  0  0  0  0  0  0  0
   -4.0908   -1.3817   -0.8424 N   0  0  0  0  0  0  0  0  0  0  0  0
    4.5383   -1.6776    1.7196 H   0  0  0  0  0  0  0  0  0  0  0  0
    5.3216   -2.2148    0.2329 H   0  0  0  0  0  0  0  0  0  0  0  0
    6.0296   -0.8945    1.1510 H   0  0  0  0  0  0  0  0  0  0  0  0
    1.1845   -1.8181   -1.4350 H   0  0  0  0  0  0  0  0  0  0  0  0
    0.5338    3.7948   -0.0924 H   0  0  0  0  0  0  0  0  0  0  0  0
   -1.6111   -1.7741    1.3175 H   0  0  0  0  0  0  0  0  0  0  0  0
   -3.8944   -0.9231    1.1619 H   0  0  0  0  0  0  0  0  0  0  0  0
    2.3795    0.3285   -1.5863 H   0  0  0  0  0  0  0  0  0  0  0  0
    2.3041    1.4514   -0.2280 H   0  0  0  0  0  0  0  0  0  0  0  0
   -5.0756   -1.1819   -0.7420 H   0  0  0  0  0  0  0  0  0  0  0  0
   -3.8008   -1.0396   -1.7485 H   0  0  0  0  0  0  0  0  0  0  0  0
    0.8899   -2.1446    0.2589 H   0  0  0  0  0  0  0  0  0  0  0  0
    0.4595    2.8725   -0.3856 O   0  0  0  0  0  0  0  0  0  0  0  0
   -0.6313    2.5886    1.5461 O   0  0  0  0  0  0  0  0  0  0  0  0
  2  1  1  0
  1 17  1  0
  1 18  1  0
  1 19  1  0
  5  2  2  0
  2  7  1  0
  4  3  1  0
  3 10  1  0
  6  4  1  0
  4 28  1  0
  4 20  1  0
 15  6  1  0
  6  8  2  0
 15  7  1  0
 14  8  1  0
  8  9  1  0
 14 29  1  0
 29 21  1  0
  9 12  1  0
  9 10  1  0
 30 14  2  0
 10 11  1  0
 10 22  1  1
 12 11  1  0
 16 11  1  0
 11 23  1  1
 13 12  2  0
 15 24  1  0
 15 25  1  0
 16 26  1  0
 16 27  1  0
M  END
