
     RDKit          3D

 52 57  0  0  0  0  0  0  0  0999 V2000
    5.1818    0.3735    0.3566 C   0  0  0  0  0  0  0  0  0  0  0  0
    7.3336   -1.3899   -0.8611 C   0  0  0  0  0  0  0  0  0  0  0  0
    8.4306   -2.1150   -1.2874 C   0  0  0  0  0  0  0  0  0  0  0  0
    8.3056   -2.8200   -2.4240 F   0  0  0  0  0  0  0  0  0  0  0  0
    9.6320   -2.1536   -0.6115 C   0  0  0  0  0  0  0  0  0  0  0  0
    9.7250   -1.4168    0.5623 C   0  0  0  0  0  0  0  0  0  0  0  0
    8.6530   -0.6773    1.0271 C   0  0  0  0  0  0  0  0  0  0  0  0
    7.4473   -0.6559    0.3193 C   0  0  0  0  0  0  0  0  0  0  0  0
    6.4146    0.1101    0.8597 N   0  0  0  0  0  0  0  0  0  0  0  0
    4.7637   -0.0483   -0.7020 O   0  0  0  0  0  0  0  0  0  0  0  0
    4.3555    1.2704    1.2677 C   0  0  0  0  0  0  0  0  0  0  0  0
    2.9974    1.5272    0.7299 C   0  0  0  0  0  0  0  0  0  0  0  0
    1.7996    0.8931    0.9609 C   0  0  0  0  0  0  0  0  0  0  0  0
    2.7279    2.5064   -0.1519 N   0  0  0  0  0  0  0  0  0  0  0  0
    1.4557    2.5587   -0.5095 N   0  0  0  0  0  0  0  0  0  0  0  0
    0.8637    1.5792    0.1591 C   0  0  0  0  0  0  0  0  0  0  0  0
   -0.5751    1.3352    0.0222 C   0  0  0  0  0  0  0  0  0  0  0  0
   -1.3581    2.1880   -0.7345 C   0  0  0  0  0  0  0  0  0  0  0  0
   -1.1588    0.2196    0.6742 C   0  0  0  0  0  0  0  0  0  0  0  0
   -2.5014   -0.0573    0.5868 C   0  0  0  0  0  0  0  0  0  0  0  0
   -3.3062    0.7993   -0.1744 C   0  0  0  0  0  0  0  0  0  0  0  0
   -2.7200    1.9007   -0.8186 C   0  0  0  0  0  0  0  0  0  0  0  0
   -3.7298    2.5346   -1.4654 N   0  0  0  0  0  0  0  0  0  0  0  0
   -4.8990    1.9375   -1.2899 N   0  0  0  0  0  0  0  0  0  0  0  0
   -4.6833    0.8924   -0.5207 C   0  0  0  0  0  0  0  0  0  0  0  0
   -5.7682    0.0205   -0.1306 C   0  0  0  0  0  0  0  0  0  0  0  0
   -7.0503    0.2379   -0.5259 N   0  0  0  0  0  0  0  0  0  0  0  0
   -7.8151   -0.7574    0.0163 C   0  0  0  0  0  0  0  0  0  0  0  0
   -9.1743   -1.0422   -0.0451 C   0  0  0  0  0  0  0  0  0  0  0  0
   -9.6058   -2.1610    0.6462 C   0  0  0  0  0  0  0  0  0  0  0  0
   -8.7138   -2.9664    1.3717 C   0  0  0  0  0  0  0  0  0  0  0  0
   -7.3627   -2.6765    1.4280 C   0  0  0  0  0  0  0  0  0  0  0  0
   -6.9068   -1.5528    0.7383 C   0  0  0  0  0  0  0  0  0  0  0  0
   -5.6390   -1.0387    0.6249 N   0  0  0  0  0  0  0  0  0  0  0  0
    6.4234   -1.4090   -1.4384 H   0  0  0  0  0  0  0  0  0  0  0  0
   10.4637   -2.7363   -0.9832 H   0  0  0  0  0  0  0  0  0  0  0  0
   10.6505   -1.4182    1.1225 H   0  0  0  0  0  0  0  0  0  0  0  0
    8.7482   -0.1100    1.9445 H   0  0  0  0  0  0  0  0  0  0  0  0
    6.6317    0.5409    1.7466 H   0  0  0  0  0  0  0  0  0  0  0  0
    4.2733    0.8012    2.2508 H   0  0  0  0  0  0  0  0  0  0  0  0
    4.8944    2.2092    1.4263 H   0  0  0  0  0  0  0  0  0  0  0  0
    1.6390    0.0569    1.6212 H   0  0  0  0  0  0  0  0  0  0  0  0
    3.3794    3.1705   -0.5410 H   0  0  0  0  0  0  0  0  0  0  0  0
   -0.9320    3.0468   -1.2354 H   0  0  0  0  0  0  0  0  0  0  0  0
   -0.5289   -0.4384    1.2579 H   0  0  0  0  0  0  0  0  0  0  0  0
   -2.9270   -0.9143    1.0895 H   0  0  0  0  0  0  0  0  0  0  0  0
   -3.6761    3.3669   -2.0309 H   0  0  0  0  0  0  0  0  0  0  0  0
   -7.3679    1.0013   -1.1028 H   0  0  0  0  0  0  0  0  0  0  0  0
   -9.8626   -0.4233   -0.6053 H   0  0  0  0  0  0  0  0  0  0  0  0
  -10.6557   -2.4220    0.6269 H   0  0  0  0  0  0  0  0  0  0  0  0
   -9.0959   -3.8325    1.8959 H   0  0  0  0  0  0  0  0  0  0  0  0
   -6.6776   -3.2986    1.9895 H   0  0  0  0  0  0  0  0  0  0  0  0
 10  1  2  0
  6  7  2  0
  6  5  1  0
  7  8  1  0
  5  3  2  0
  1 11  1  0
  1  9  1  0
  8  9  1  0
  8  2  2  0
 11 12  1  0
  3  2  1  0
  3  4  1  0
 12 13  2  0
 12 14  1  0
 13 16  1  0
 14 15  1  0
 15 16  2  0
 16 17  1  0
 17 19  1  0
 17 18  2  0
 19 20  2  0
 18 22  1  0
 20 21  1  0
 22 21  2  0
 22 23  1  0
 21 25  1  0
 23 24  1  0
 25 24  2  0
 25 26  1  0
 34 26  2  0
 34 33  1  0
 26 27  1  0
 33 32  1  0
 33 28  2  0
 32 31  2  0
 27 28  1  0
 28 29  1  0
 31 30  1  0
 29 30  2  0
  2 35  1  0
  5 36  1  0
  6 37  1  0
  7 38  1  0
  9 39  1  0
 11 40  1  0
 11 41  1  0
 13 42  1  0
 14 43  1  0
 18 44  1  0
 19 45  1  0
 20 46  1  0
 23 47  1  0
 27 48  1  0
 29 49  1  0
 30 50  1  0
 31 51  1  0
 32 52  1  0
M  END
