
     RDKit          3D

 66 65  0  0  0  0  0  0  0  0999 V2000
   11.0878    1.0849   -1.3905 O   0  0  0  0  0  0  0  0  0  0  0  0
   11.6633   -1.3920   -0.9549 O   0  0  0  0  0  0  0  0  0  0  0  0
   10.9877   -0.0969   -0.3191 P   0  0  1  0  0  0  0  0  0  0  0  0
   11.4845    0.3751    0.9865 O   0  0  0  0  0  0  0  0  0  0  0  0
    3.6360    1.2566    1.2995 O   0  0  0  0  0  0  0  0  0  0  0  0
    9.4832   -0.6286   -0.3602 O   0  0  0  0  0  0  0  0  0  0  0  0
    8.4502    0.1627    0.2285 C   0  0  0  0  0  0  0  0  0  0  0  0
    7.1153   -0.3340   -0.3008 C   0  0  1  0  0  0  0  0  0  0  0  0
    6.0023    0.4068    0.4214 C   0  0  0  0  0  0  0  0  0  0  0  0
    4.7647   -0.1490   -0.0140 O   0  0  0  0  0  0  0  0  0  0  0  0
    3.6452    0.3567    0.4977 C   0  0  0  0  0  0  0  0  0  0  0  0
    2.4280   -0.3365   -0.0494 C   0  0  0  0  0  0  0  0  0  0  0  0
    1.1194    0.1734    0.5322 C   0  0  0  0  0  0  0  0  0  0  0  0
   -0.0805   -0.5871   -0.0180 C   0  0  0  0  0  0  0  0  0  0  0  0
   -1.4033   -0.1048    0.5636 C   0  0  0  0  0  0  0  0  0  0  0  0
   -2.5987   -0.9212    0.0895 C   0  0  0  0  0  0  0  0  0  0  0  0
   -3.9207   -0.4524    0.6849 C   0  0  0  0  0  0  0  0  0  0  0  0
   -5.0923   -1.3588    0.3093 C   0  0  0  0  0  0  0  0  0  0  0  0
   -6.3743   -0.9601    0.9688 C   0  0  0  0  0  0  0  0  0  0  0  0
   -7.5313   -0.7556    0.3463 C   0  0  0  0  0  0  0  0  0  0  0  0
   -8.8169   -0.3878    1.0291 C   0  0  0  0  0  0  0  0  0  0  0  0
   -9.3778    0.9029    0.5079 C   0  0  0  0  0  0  0  0  0  0  0  0
  -10.5339    1.0796   -0.1299 C   0  0  0  0  0  0  0  0  0  0  0  0
  -11.5646    0.0355   -0.4535 C   0  0  0  0  0  0  0  0  0  0  0  0
  -12.7512    0.1660    0.4589 C   0  0  0  0  0  0  0  0  0  0  0  0
  -14.0000    0.4898    0.1276 C   0  0  0  0  0  0  0  0  0  0  0  0
  -14.5474    0.7728   -1.2363 C   0  0  0  0  0  0  0  0  0  0  0  0
  -15.5914   -0.2629   -1.6512 C   0  0  0  0  0  0  0  0  0  0  0  0
    7.0213   -0.2322   -1.6964 O   0  0  0  0  0  0  0  0  0  0  0  0
    8.4853    0.0652    1.3158 H   0  0  0  0  0  0  0  0  0  0  0  0
    8.5778    1.2225   -0.0173 H   0  0  0  0  0  0  0  0  0  0  0  0
    7.0293   -1.4004   -0.0691 H   0  0  0  0  0  0  0  0  0  0  0  0
    6.1129    0.2887    1.5022 H   0  0  0  0  0  0  0  0  0  0  0  0
    6.0398    1.4777    0.1977 H   0  0  0  0  0  0  0  0  0  0  0  0
    2.4343   -0.2256   -1.1387 H   0  0  0  0  0  0  0  0  0  0  0  0
    2.5349   -1.4105    0.1332 H   0  0  0  0  0  0  0  0  0  0  0  0
    1.1365    0.0774    1.6213 H   0  0  0  0  0  0  0  0  0  0  0  0
    1.0067    1.2396    0.3178 H   0  0  0  0  0  0  0  0  0  0  0  0
   -0.1057   -0.4963   -1.1094 H   0  0  0  0  0  0  0  0  0  0  0  0
    0.0383   -1.6553    0.1942 H   0  0  0  0  0  0  0  0  0  0  0  0
   -1.3519   -0.1483    1.6572 H   0  0  0  0  0  0  0  0  0  0  0  0
   -1.5509    0.9502    0.3090 H   0  0  0  0  0  0  0  0  0  0  0  0
   -2.6574   -0.8879   -1.0037 H   0  0  0  0  0  0  0  0  0  0  0  0
   -2.4416   -1.9733    0.3523 H   0  0  0  0  0  0  0  0  0  0  0  0
   -3.8310   -0.4186    1.7761 H   0  0  0  0  0  0  0  0  0  0  0  0
   -4.1292    0.5727    0.3637 H   0  0  0  0  0  0  0  0  0  0  0  0
   -5.2202   -1.3791   -0.7771 H   0  0  0  0  0  0  0  0  0  0  0  0
   -4.8427   -2.3835    0.6098 H   0  0  0  0  0  0  0  0  0  0  0  0
   -6.3372   -0.8479    2.0515 H   0  0  0  0  0  0  0  0  0  0  0  0
   -7.5807   -0.8640   -0.7352 H   0  0  0  0  0  0  0  0  0  0  0  0
   -9.5403   -1.1975    0.9048 H   0  0  0  0  0  0  0  0  0  0  0  0
   -8.7521    1.7758    0.6726 H   0  0  0  0  0  0  0  0  0  0  0  0
  -10.7980    2.0894   -0.4304 H   0  0  0  0  0  0  0  0  0  0  0  0
  -11.8652    0.1402   -1.4981 H   0  0  0  0  0  0  0  0  0  0  0  0
  -11.1463   -0.9687   -0.3512 H   0  0  0  0  0  0  0  0  0  0  0  0
  -12.5363   -0.0158    1.5083 H   0  0  0  0  0  0  0  0  0  0  0  0
  -14.7322    0.5349    0.9302 H   0  0  0  0  0  0  0  0  0  0  0  0
  -15.0136    1.7629   -1.2315 H   0  0  0  0  0  0  0  0  0  0  0  0
  -13.7527    0.8126   -1.9826 H   0  0  0  0  0  0  0  0  0  0  0  0
  -15.1471   -1.2559   -1.7289 H   0  0  0  0  0  0  0  0  0  0  0  0
  -16.4029   -0.3198   -0.9238 H   0  0  0  0  0  0  0  0  0  0  0  0
  -16.0296   -0.0147   -2.6184 H   0  0  0  0  0  0  0  0  0  0  0  0
    7.0737    0.6960   -1.9512 H   0  0  0  0  0  0  0  0  0  0  0  0
   10.8374    0.8545   -2.2953 H   0  0  0  0  0  0  0  0  0  0  0  0
   12.6291   -1.3921   -0.9150 H   0  0  0  0  0  0  0  0  0  0  0  0
   -8.6398   -0.2970    2.1055 H   0  0  0  0  0  0  0  0  0  0  0  0
  3  1  1  6
  2  3  1  0
  3  4  2  0
  3  6  1  0
  5 11  2  0
  6  7  1  0
  7  8  1  0
  8  9  1  0
  8 29  1  0
  9 10  1  0
 10 11  1  0
 11 12  1  0
 12 13  1  0
 13 14  1  0
 14 15  1  0
 15 16  1  0
 16 17  1  0
 17 18  1  0
 18 19  1  0
 19 20  2  0
 20 21  1  0
 21 22  1  0
 22 23  2  0
 23 24  1  0
 24 25  1  0
 25 26  2  0
 26 27  1  0
 27 28  1  0
  7 30  1  0
  7 31  1  0
  8 32  1  6
  9 33  1  0
  9 34  1  0
 12 35  1  0
 12 36  1  0
 13 37  1  0
 13 38  1  0
 14 39  1  0
 14 40  1  0
 15 41  1  0
 15 42  1  0
 16 43  1  0
 16 44  1  0
 17 45  1  0
 17 46  1  0
 18 47  1  0
 18 48  1  0
 19 49  1  0
 20 50  1  0
 21 51  1  0
 22 52  1  0
 23 53  1  0
 24 54  1  0
 24 55  1  0
 25 56  1  0
 26 57  1  0
 27 58  1  0
 27 59  1  0
 28 60  1  0
 28 61  1  0
 28 62  1  0
 29 63  1  0
 21 66  1  0
  1 64  1  0
  2 65  1  0
M  END
