
     RDKit          3D

 62 64  0  0  0  0  0  0  0  0999 V2000
   -5.9560    0.9230    1.1157 C   0  0  0  0  0  0  0  0  0  0  0  0
   -7.1181    1.8963    1.0870 C   0  0  0  0  0  0  0  0  0  0  0  0
   -8.3665    1.1964    0.8614 N   0  0  0  0  0  0  0  0  0  0  0  0
   -9.4947    2.0980    0.8766 C   0  0  0  0  0  0  0  0  0  0  0  0
   -8.2989    0.4437   -0.3750 C   0  0  0  0  0  0  0  0  0  0  0  0
   -7.1357   -0.5293   -0.3485 C   0  0  0  0  0  0  0  0  0  0  0  0
   -5.8875    0.1812   -0.1314 N   0  0  0  0  0  0  0  0  0  0  0  0
   -4.7549   -0.7021   -0.1864 C   0  0  0  0  0  0  0  0  0  0  0  0
   -3.4451    0.0121   -0.4546 C   0  0  0  0  0  0  0  0  0  0  0  0
   -3.3983    1.2020   -0.6797 O   0  0  0  0  0  0  0  0  0  0  0  0
   -2.2069   -0.8055   -0.4427 C   0  0  0  0  0  0  0  0  0  0  0  0
   -0.9735   -0.1641   -0.5526 C   0  0  0  0  0  0  0  0  0  0  0  0
   -2.2140   -2.1946   -0.3431 C   0  0  0  0  0  0  0  0  0  0  0  0
   -1.0400   -2.9260   -0.3724 C   0  0  0  0  0  0  0  0  0  0  0  0
    0.1908   -2.2792   -0.4839 C   0  0  0  0  0  0  0  0  0  0  0  0
    1.3576   -2.9062   -0.5626 O   0  0  0  0  0  0  0  0  0  0  0  0
    1.4010   -4.3309   -0.5373 C   0  0  0  0  0  0  0  0  0  0  0  0
    2.8460   -4.7593   -0.6703 C   0  0  0  0  0  0  0  0  0  0  0  0
    2.9682   -6.2770   -0.6599 C   0  0  0  0  0  0  0  0  0  0  0  0
    0.2152   -0.8713   -0.5522 C   0  0  0  0  0  0  0  0  0  0  0  0
    1.4940   -0.1385   -0.6139 C   0  0  0  0  0  0  0  0  0  0  0  0
    2.4330   -0.3771    0.2390 N   0  0  0  0  0  0  0  0  0  0  0  0
    1.6075    0.8094   -1.5684 N   0  0  0  0  0  0  0  0  0  0  0  0
    2.7131    1.6285   -1.7167 C   0  0  0  0  0  0  0  0  0  0  0  0
    2.7533    2.4788   -2.5868 O   0  0  0  0  0  0  0  0  0  0  0  0
    3.7488    1.3268   -0.7556 C   0  0  0  0  0  0  0  0  0  0  0  0
    5.3001    2.3662   -0.9277 Br  0  0  0  0  0  0  0  0  0  0  0  0
    3.5873    0.3413    0.1772 C   0  0  0  0  0  0  0  0  0  0  0  0
    4.6274   -0.0827    1.1788 C   0  0  1  0  0  0  0  0  0  0  0  0
    4.0459   -0.1421    2.5895 C   0  0  0  0  0  0  0  0  0  0  0  0
    5.1929   -1.4393    0.7525 C   0  0  0  0  0  0  0  0  0  0  0  0
   -5.0331    1.4820    1.2667 H   0  0  0  0  0  0  0  0  0  0  0  0
   -6.0728    0.2423    1.9766 H   0  0  0  0  0  0  0  0  0  0  0  0
   -7.1678    2.4209    2.0443 H   0  0  0  0  0  0  0  0  0  0  0  0
   -6.9321    2.6572    0.3084 H   0  0  0  0  0  0  0  0  0  0  0  0
   -9.4542    2.8558    0.0787 H   0  0  0  0  0  0  0  0  0  0  0  0
  -10.4240    1.5384    0.7580 H   0  0  0  0  0  0  0  0  0  0  0  0
   -9.5412    2.6231    1.8321 H   0  0  0  0  0  0  0  0  0  0  0  0
   -9.2292   -0.1148   -0.5054 H   0  0  0  0  0  0  0  0  0  0  0  0
   -8.1926    1.1085   -1.2506 H   0  0  0  0  0  0  0  0  0  0  0  0
   -7.3154   -1.2877    0.4321 H   0  0  0  0  0  0  0  0  0  0  0  0
   -7.0887   -1.0546   -1.3052 H   0  0  0  0  0  0  0  0  0  0  0  0
   -4.6469   -1.3165    0.7244 H   0  0  0  0  0  0  0  0  0  0  0  0
   -4.8989   -1.4174   -1.0039 H   0  0  0  0  0  0  0  0  0  0  0  0
   -0.9470    0.9174   -0.6096 H   0  0  0  0  0  0  0  0  0  0  0  0
   -3.1428   -2.7418   -0.2503 H   0  0  0  0  0  0  0  0  0  0  0  0
   -1.0996   -4.0033   -0.3159 H   0  0  0  0  0  0  0  0  0  0  0  0
    0.9746   -4.7016    0.4012 H   0  0  0  0  0  0  0  0  0  0  0  0
    0.8055   -4.7383   -1.3618 H   0  0  0  0  0  0  0  0  0  0  0  0
    3.2596   -4.3597   -1.5993 H   0  0  0  0  0  0  0  0  0  0  0  0
    3.4285   -4.3340    0.1506 H   0  0  0  0  0  0  0  0  0  0  0  0
    2.6020   -6.7017    0.2760 H   0  0  0  0  0  0  0  0  0  0  0  0
    2.4001   -6.7276   -1.4751 H   0  0  0  0  0  0  0  0  0  0  0  0
    4.0079   -6.5813   -0.7753 H   0  0  0  0  0  0  0  0  0  0  0  0
    5.4448    0.6383    1.1842 H   0  0  0  0  0  0  0  0  0  0  0  0
    3.2512   -0.8836    2.6626 H   0  0  0  0  0  0  0  0  0  0  0  0
    4.8308   -0.4150    3.2958 H   0  0  0  0  0  0  0  0  0  0  0  0
    3.6417    0.8230    2.8973 H   0  0  0  0  0  0  0  0  0  0  0  0
    5.6390   -1.3938   -0.2419 H   0  0  0  0  0  0  0  0  0  0  0  0
    5.9665   -1.7589    1.4516 H   0  0  0  0  0  0  0  0  0  0  0  0
    4.4109   -2.1992    0.7402 H   0  0  0  0  0  0  0  0  0  0  0  0
    0.8577    0.9348   -2.2389 H   0  0  0  0  0  0  0  0  0  0  0  0
 27 26  1  0
 30 29  1  0
 29 31  1  0
 29 28  1  0
 26 28  2  0
 26 24  1  0
 25 24  2  0
 28 22  1  0
 24 23  1  0
 22 21  2  0
 23 21  1  0
 21 20  1  0
 19 18  1  0
 18 17  1  0
 20 12  2  0
 20 15  1  0
 16 15  1  0
 16 17  1  0
 12 11  1  0
 15 14  2  0
 10  9  2  0
 11  9  1  0
 11 13  2  0
 14 13  1  0
  9  8  1  0
  8  7  1  0
  6  7  1  0
  6  5  1  0
  7  1  1  0
  5  3  1  0
  1  2  1  0
  3  4  1  0
  3  2  1  0
  1 32  1  0
  1 33  1  0
  2 34  1  0
  2 35  1  0
  4 36  1  0
  4 37  1  0
  4 38  1  0
  5 39  1  0
  5 40  1  0
  6 41  1  0
  6 42  1  0
  8 43  1  0
  8 44  1  0
 12 45  1  0
 13 46  1  0
 14 47  1  0
 17 48  1  0
 17 49  1  0
 18 50  1  0
 18 51  1  0
 19 52  1  0
 19 53  1  0
 19 54  1  0
 29 55  1  1
 30 56  1  0
 30 57  1  0
 30 58  1  0
 31 59  1  0
 31 60  1  0
 31 61  1  0
 23 62  1  0
M  END
