
     RDKit          3D

 23 24  0  0  0  0  0  0  0  0999 V2000
   -1.7351   -0.3289    0.0872 C   0  0  0  0  0  0  0  0  0  0  0  0
   -2.5992   -1.1835   -0.5987 C   0  0  0  0  0  0  0  0  0  0  0  0
    4.2779   -0.9269   -0.1277 N   0  0  0  0  0  0  0  0  0  0  0  0
    3.6461    1.1421    0.5323 O   0  0  0  0  0  0  0  0  0  0  0  0
    1.9616   -0.4617    0.2127 C   0  0  0  0  0  0  0  0  0  0  0  0
    0.7966    0.2735    0.1526 C   0  0  0  0  0  0  0  0  0  0  0  0
    0.6975    1.9723   -0.0204 Cl  0  0  0  0  0  0  0  0  0  0  0  0
   -0.3048   -0.6172    0.1518 C   0  0  0  0  0  0  0  0  0  0  0  0
    0.2451   -1.8832    0.2282 C   0  0  0  0  0  0  0  0  0  0  0  0
    1.5835   -1.7748    0.2575 N   0  0  0  0  0  0  0  0  0  0  0  0
   -2.3108    0.7751    0.7161 C   0  0  0  0  0  0  0  0  0  0  0  0
   -3.6803    0.9652    0.6262 C   0  0  0  0  0  0  0  0  0  0  0  0
   -4.5014    0.1498   -0.0257 N   0  0  0  0  0  0  0  0  0  0  0  0
   -3.9555   -0.9059   -0.6196 C   0  0  0  0  0  0  0  0  0  0  0  0
   -2.2233   -2.0516   -1.1242 H   0  0  0  0  0  0  0  0  0  0  0  0
    4.0350   -1.7670   -0.6248 H   0  0  0  0  0  0  0  0  0  0  0  0
    5.2456   -0.6504   -0.1763 H   0  0  0  0  0  0  0  0  0  0  0  0
   -0.2413   -2.8423    0.3001 H   0  0  0  0  0  0  0  0  0  0  0  0
    2.2037   -2.5560    0.4057 H   0  0  0  0  0  0  0  0  0  0  0  0
   -1.7176    1.4723    1.2899 H   0  0  0  0  0  0  0  0  0  0  0  0
   -4.1341    1.8203    1.1148 H   0  0  0  0  0  0  0  0  0  0  0  0
   -4.6309   -1.5686   -1.1495 H   0  0  0  0  0  0  0  0  0  0  0  0
    3.3599   -0.0018    0.2139 C   0  0  0  0  0  0  0  0  0  0  0  0
  4 23  2  0
  7  6  1  0
 23  3  1  0
 23  5  1  0
  5  6  2  0
  5 10  1  0
  6  8  1  0
 11 12  2  0
 11  1  1  0
 10  9  1  0
 12 13  1  0
  8  1  1  0
  8  9  2  0
  1  2  2  0
 13 14  2  0
  2 14  1  0
  2 15  1  0
  3 16  1  0
  3 17  1  0
  9 18  1  0
 10 19  1  0
 11 20  1  0
 12 21  1  0
 14 22  1  0
M  END
