
     RDKit          3D

 27 28  0  0  0  0  0  0  0  0999 V2000
    5.7729   -0.8627    0.0905 C   0  0  0  0  0  0  0  0  0  0  0  0
    4.3715   -0.4330   -0.2998 C   0  0  0  0  0  0  0  0  0  0  0  0
    3.6427    0.1815    0.9002 C   0  0  0  0  0  0  0  0  0  0  0  0
    2.2558    0.5669    0.5532 C   0  0  0  0  0  0  0  0  0  0  0  0
   -3.8755   -0.3382   -0.0298 C   0  0  0  0  0  0  0  0  0  0  0  0
   -2.9659   -1.2333    0.5104 C   0  0  0  0  0  0  0  0  0  0  0  0
   -2.1286    1.2380   -0.4486 C   0  0  0  0  0  0  0  0  0  0  0  0
   -1.1963    0.3528    0.0922 C   0  0  0  0  0  0  0  0  0  0  0  0
   -1.6266   -0.8827    0.5690 C   0  0  0  0  0  0  0  0  0  0  0  0
   -3.4679    0.8980   -0.5117 C   0  0  0  0  0  0  0  0  0  0  0  0
    0.2206    0.7032    0.1591 C   0  0  0  0  0  0  0  0  0  0  0  0
    0.6995    1.8246   -0.2917 N   0  0  0  0  0  0  0  0  0  0  0  0
    1.1698   -0.1154    0.6995 N   0  0  0  0  0  0  0  0  0  0  0  0
    2.0371    1.7371   -0.0341 O   0  0  0  0  0  0  0  0  0  0  0  0
    6.4037   -1.4163   -1.0414 O   0  0  0  0  0  0  0  0  0  0  0  0
    6.3232    0.0063    0.4755 H   0  0  0  0  0  0  0  0  0  0  0  0
    5.7104   -1.5874    0.9127 H   0  0  0  0  0  0  0  0  0  0  0  0
    4.4238    0.2934   -1.1145 H   0  0  0  0  0  0  0  0  0  0  0  0
    3.8098   -1.2966   -0.6640 H   0  0  0  0  0  0  0  0  0  0  0  0
    3.5909   -0.5379    1.7180 H   0  0  0  0  0  0  0  0  0  0  0  0
    4.1851    1.0568    1.2631 H   0  0  0  0  0  0  0  0  0  0  0  0
   -3.2932   -2.1941    0.8826 H   0  0  0  0  0  0  0  0  0  0  0  0
   -1.8142    2.2020   -0.8258 H   0  0  0  0  0  0  0  0  0  0  0  0
   -0.9154   -1.5807    0.9893 H   0  0  0  0  0  0  0  0  0  0  0  0
   -4.1855    1.5899   -0.9306 H   0  0  0  0  0  0  0  0  0  0  0  0
    7.2825   -1.7082   -0.7832 H   0  0  0  0  0  0  0  0  0  0  0  0
   -5.5488   -0.7688   -0.1045 Cl  0  0  0  0  0  0  0  0  0  0  0  0
 15  1  1  0
  1  2  1  0
  2  3  1  0
  3  4  1  0
  4 14  1  0
  4 13  2  0
 14 12  1  0
 13 11  1  0
 12 11  2  0
 11  8  1  0
  8  7  2  0
  8  9  1  0
  7 10  1  0
  9  6  2  0
 10  5  2  0
  6  5  1  0
  5 27  1  0
  1 16  1  0
  1 17  1  0
  2 18  1  0
  2 19  1  0
  3 20  1  0
  3 21  1  0
  6 22  1  0
  7 23  1  0
  9 24  1  0
 10 25  1  0
 15 26  1  0
M  END
