
     RDKit          3D

 53 54  0  0  0  0  0  0  0  0999 V2000
    0.6028   -0.5988   -1.4935 N   0  0  0  0  0  0  0  0  0  0  0  0
    1.7849   -1.1102   -2.1231 C   0  0  2  0  0  0  0  0  0  0  0  0
    1.4767   -2.3612   -2.9408 C   0  0  0  0  0  0  0  0  0  0  0  0
    0.5723   -3.1870   -2.7977 O   0  0  0  0  0  0  0  0  0  0  0  0
    2.9176   -1.4902   -1.1480 C   0  0  0  0  0  0  0  0  0  0  0  0
    3.4964   -0.2709   -0.4663 C   0  0  0  0  0  0  0  0  0  0  0  0
    4.7295   -0.6795    0.3422 C   0  0  0  0  0  0  0  0  0  0  0  0
    5.3419    0.4374    1.0427 N   0  0  0  0  0  0  0  0  0  0  0  0
    6.3335    0.3101    2.0976 C   0  0  0  0  0  0  0  0  0  0  0  0
    6.7911    1.4150    2.6322 N   0  0  0  0  0  0  0  0  0  0  0  0
    6.7598   -1.0023    2.4985 N   0  0  0  0  0  0  0  0  0  0  0  0
    2.3478   -2.5591   -3.9664 O   0  0  0  0  0  0  0  0  0  0  0  0
    0.1099    0.9501   -1.6140 S   0  0  2  0  0  0  0  0  0  0  0  0
    0.3377    1.4079   -2.9303 O   0  0  0  0  0  0  0  0  0  0  0  0
    0.7373    1.7274   -0.6257 O   0  0  0  0  0  0  0  0  0  0  0  0
   -5.5131   -0.2718    1.4668 N   0  0  0  0  0  0  0  0  0  0  0  0
   -1.5482    0.7953   -1.3166 C   0  0  0  0  0  0  0  0  0  0  0  0
   -2.4078    1.1185   -2.3575 C   0  0  0  0  0  0  0  0  0  0  0  0
   -3.8022    1.0275   -2.2215 C   0  0  0  0  0  0  0  0  0  0  0  0
   -4.3507    0.6094   -1.0340 C   0  0  0  0  0  0  0  0  0  0  0  0
   -3.5269    0.2626    0.0720 C   0  0  0  0  0  0  0  0  0  0  0  0
   -2.1107    0.3567   -0.0696 C   0  0  0  0  0  0  0  0  0  0  0  0
   -1.2923    0.0072    1.0464 C   0  0  0  0  0  0  0  0  0  0  0  0
   -1.8496   -0.4093    2.2267 C   0  0  0  0  0  0  0  0  0  0  0  0
   -3.2449   -0.5051    2.3765 C   0  0  0  0  0  0  0  0  0  0  0  0
   -4.0958   -0.1791    1.3287 C   0  0  0  0  0  0  0  0  0  0  0  0
   -6.1967   -1.5000    1.1122 C   0  0  0  0  0  0  0  0  0  0  0  0
   -6.2818    0.8463    1.9676 C   0  0  0  0  0  0  0  0  0  0  0  0
    0.0243   -1.3117   -1.1127 H   0  0  0  0  0  0  0  0  0  0  0  0
    2.1051   -3.3659   -4.4511 H   0  0  0  0  0  0  0  0  0  0  0  0
   -6.3069   -2.2010    1.9838 H   0  0  0  0  0  0  0  0  0  0  0  0
   -7.2187   -1.2390    0.7304 H   0  0  0  0  0  0  0  0  0  0  0  0
   -5.6298   -2.0288    0.3025 H   0  0  0  0  0  0  0  0  0  0  0  0
   -5.9332    1.7899    1.4729 H   0  0  0  0  0  0  0  0  0  0  0  0
   -7.3591    0.6755    1.7055 H   0  0  0  0  0  0  0  0  0  0  0  0
   -6.2063    0.9733    3.0828 H   0  0  0  0  0  0  0  0  0  0  0  0
   -2.0029    1.4598   -3.3300 H   0  0  0  0  0  0  0  0  0  0  0  0
   -4.4450    1.2940   -3.0735 H   0  0  0  0  0  0  0  0  0  0  0  0
   -5.4481    0.5443   -0.9467 H   0  0  0  0  0  0  0  0  0  0  0  0
   -0.1942    0.0658    0.9762 H   0  0  0  0  0  0  0  0  0  0  0  0
   -1.2057   -0.6762    3.0803 H   0  0  0  0  0  0  0  0  0  0  0  0
   -3.6418   -0.8448    3.3457 H   0  0  0  0  0  0  0  0  0  0  0  0
    2.1821   -0.3269   -2.8450 H   0  0  0  0  0  0  0  0  0  0  0  0
    2.5365   -2.2155   -0.3829 H   0  0  0  0  0  0  0  0  0  0  0  0
    3.7169   -2.0073   -1.7436 H   0  0  0  0  0  0  0  0  0  0  0  0
    3.7802    0.4957   -1.2349 H   0  0  0  0  0  0  0  0  0  0  0  0
    2.7306    0.1986    0.2092 H   0  0  0  0  0  0  0  0  0  0  0  0
    4.4330   -1.5096    1.0476 H   0  0  0  0  0  0  0  0  0  0  0  0
    5.5002   -1.0994   -0.3664 H   0  0  0  0  0  0  0  0  0  0  0  0
    7.4695    1.3020    3.3526 H   0  0  0  0  0  0  0  0  0  0  0  0
    6.4098   -1.8394    2.0897 H   0  0  0  0  0  0  0  0  0  0  0  0
    7.4402   -1.0895    3.2220 H   0  0  0  0  0  0  0  0  0  0  0  0
    5.0611    1.3673    0.7813 H   0  0  0  0  0  0  0  0  0  0  0  0
 13 14  2  0
 13 15  2  0
 13 17  1  0
 13  1  1  6
 12  3  1  0
 16 26  1  0
 16 27  1  0
 16 28  1  0
 17 18  2  0
 17 22  1  0
 18 19  1  0
 19 20  2  0
 20 21  1  0
 21 22  2  0
 21 26  1  0
 22 23  1  0
 23 24  2  0
 24 25  1  0
 25 26  2  0
  1  2  1  0
  2  3  1  0
  2  5  1  0
  3  4  2  0
  5  6  1  0
  6  7  1  0
  7  8  1  0
  8  9  1  0
  9 10  2  0
  9 11  1  0
  1 29  1  0
 12 30  1  0
 27 31  1  0
 27 32  1  0
 27 33  1  0
 28 34  1  0
 28 35  1  0
 28 36  1  0
 18 37  1  0
 19 38  1  0
 20 39  1  0
 23 40  1  0
 24 41  1  0
 25 42  1  0
  2 43  1  6
  5 44  1  0
  5 45  1  0
  6 46  1  0
  6 47  1  0
  7 48  1  0
  7 49  1  0
 10 50  1  0
 11 51  1  0
 11 52  1  0
  8 53  1  0
M  END
