
     RDKit          3D

 51 52  0  0  0  0  0  0  0  0999 V2000
   -9.9416   -3.4361    1.3891 O   0  0  0  0  0  0  0  0  0  0  0  0
  -10.0046   -2.9411    0.2750 C   0  0  0  0  0  0  0  0  0  0  0  0
   -7.8557   -1.7743    0.4234 C   0  0  0  0  0  0  0  0  0  0  0  0
   -7.0012   -0.8737   -0.4519 C   0  0  0  0  0  0  0  0  0  0  0  0
   -5.7128   -0.4699    0.2543 C   0  0  0  0  0  0  0  0  0  0  0  0
   -4.8910    0.4667   -0.6052 C   0  0  0  0  0  0  0  0  0  0  0  0
   -2.8459    1.6757   -0.4418 C   0  0  0  0  0  0  0  0  0  0  0  0
   -3.0231    2.2809   -1.6849 C   0  0  0  0  0  0  0  0  0  0  0  0
   -9.0757   -2.1487   -0.2628 N   0  0  0  0  0  0  0  0  0  0  0  0
   -3.7063    0.7947    0.1029 O   0  0  0  0  0  0  0  0  0  0  0  0
   -1.7152    1.9816    0.3165 C   0  0  0  0  0  0  0  0  0  0  0  0
   -2.0736    3.1846   -2.1456 C   0  0  0  0  0  0  0  0  0  0  0  0
   -0.9541    3.4935   -1.3906 C   0  0  0  0  0  0  0  0  0  0  0  0
   -0.7742    2.8875   -0.1494 C   0  0  0  0  0  0  0  0  0  0  0  0
    0.4540    3.1800    0.6676 C   0  0  0  0  0  0  0  0  0  0  0  0
    1.4570    2.1582    0.4275 N   0  0  0  0  0  0  0  0  0  0  0  0
    2.5345    2.0134    1.2119 C   0  0  0  0  0  0  0  0  0  0  0  0
    2.7474    2.7121    2.1921 O   0  0  0  0  0  0  0  0  0  0  0  0
    3.4882    0.9269    0.8174 C   0  0  0  0  0  0  0  0  0  0  0  0
    3.0714   -0.2264    0.1556 C   0  0  0  0  0  0  0  0  0  0  0  0
    3.9833   -1.2134   -0.1752 C   0  0  0  0  0  0  0  0  0  0  0  0
    5.3187   -1.0366    0.1585 C   0  0  0  0  0  0  0  0  0  0  0  0
    6.4811   -2.3054   -0.2700 S   0  0  1  0  0  0  0  0  0  0  0  0
    7.6927   -2.0734    0.5029 O   0  0  0  0  0  0  0  0  0  0  0  0
    5.8307   -3.6031   -0.1762 O   0  0  0  0  0  0  0  0  0  0  0  0
    6.6864   -2.0157   -1.8818 N   0  0  0  0  0  0  0  0  0  0  0  0
    5.7512    0.0971    0.8286 C   0  0  0  0  0  0  0  0  0  0  0  0
    4.8272    1.0742    1.1625 C   0  0  0  0  0  0  0  0  0  0  0  0
  -10.8557   -3.1085   -0.4025 H   0  0  0  0  0  0  0  0  0  0  0  0
   -7.2936   -2.6724    0.6945 H   0  0  0  0  0  0  0  0  0  0  0  0
   -8.0992   -1.2597    1.3570 H   0  0  0  0  0  0  0  0  0  0  0  0
   -6.7634   -1.3898   -1.3871 H   0  0  0  0  0  0  0  0  0  0  0  0
   -7.5710    0.0213   -0.7211 H   0  0  0  0  0  0  0  0  0  0  0  0
   -5.9505    0.0222    1.2015 H   0  0  0  0  0  0  0  0  0  0  0  0
   -5.1278   -1.3625    0.4923 H   0  0  0  0  0  0  0  0  0  0  0  0
   -4.6429   -0.0091   -1.5613 H   0  0  0  0  0  0  0  0  0  0  0  0
   -5.4654    1.3732   -0.8273 H   0  0  0  0  0  0  0  0  0  0  0  0
   -3.8849    2.0662   -2.3019 H   0  0  0  0  0  0  0  0  0  0  0  0
   -9.2373   -1.7986   -1.1933 H   0  0  0  0  0  0  0  0  0  0  0  0
   -1.5816    1.5077    1.2824 H   0  0  0  0  0  0  0  0  0  0  0  0
   -2.2195    3.6513   -3.1110 H   0  0  0  0  0  0  0  0  0  0  0  0
   -0.2234    4.2014   -1.7614 H   0  0  0  0  0  0  0  0  0  0  0  0
    0.8468    4.1688    0.4140 H   0  0  0  0  0  0  0  0  0  0  0  0
    0.2113    3.1918    1.7306 H   0  0  0  0  0  0  0  0  0  0  0  0
    1.4179    1.6712   -0.4540 H   0  0  0  0  0  0  0  0  0  0  0  0
    2.0290   -0.3841   -0.0871 H   0  0  0  0  0  0  0  0  0  0  0  0
    3.6454   -2.1087   -0.6788 H   0  0  0  0  0  0  0  0  0  0  0  0
    7.2979   -1.2272   -2.0663 H   0  0  0  0  0  0  0  0  0  0  0  0
    7.0138   -2.8425   -2.3723 H   0  0  0  0  0  0  0  0  0  0  0  0
    6.7908    0.2269    1.0950 H   0  0  0  0  0  0  0  0  0  0  0  0
    5.1567    1.9592    1.6892 H   0  0  0  0  0  0  0  0  0  0  0  0
  1  2  2  0
  2  9  1  0
  3  9  1  0
  3  4  1  0
  4  5  1  0
  5  6  1  0
 23 26  1  6
 25 23  2  0
  6 10  1  0
 21 20  2  0
 21 22  1  0
 10  7  1  0
 23 22  1  0
 23 24  2  0
 20 19  1  0
 22 27  2  0
  7 11  2  0
  7  8  1  0
 11 14  1  0
  8 12  2  0
 16 15  1  0
 16 17  1  0
 19 17  1  0
 19 28  2  0
 14 15  1  0
 14 13  2  0
 27 28  1  0
 12 13  1  0
 17 18  2  0
  2 29  1  0
  3 30  1  0
  3 31  1  0
  4 32  1  0
  4 33  1  0
  5 34  1  0
  5 35  1  0
  6 36  1  0
  6 37  1  0
  8 38  1  0
  9 39  1  0
 11 40  1  0
 12 41  1  0
 13 42  1  0
 15 43  1  0
 15 44  1  0
 16 45  1  0
 20 46  1  0
 21 47  1  0
 26 48  1  0
 26 49  1  0
 27 50  1  0
 28 51  1  0
M  END
