
     RDKit          3D

 44 45  0  0  0  0  0  0  0  0999 V2000
    2.7509   -0.9130    2.3349 C   0  0  0  0  0  0  0  0  0  0  0  0
    3.3875   -1.6644    3.3174 C   0  0  0  0  0  0  0  0  0  0  0  0
    4.7572   -1.5749    3.5149 C   0  0  0  0  0  0  0  0  0  0  0  0
    5.4956   -0.7184    2.7162 C   0  0  0  0  0  0  0  0  0  0  0  0
    4.8876    0.0561    1.7419 C   0  0  0  0  0  0  0  0  0  0  0  0
    3.5164   -0.0439    1.5620 C   0  0  0  0  0  0  0  0  0  0  0  0
    1.2897   -1.1056    2.0531 C   0  0  0  0  0  0  0  0  0  0  0  0
    1.0931   -2.2762    1.0756 C   0  0  1  0  0  0  0  0  0  0  0  0
   -0.3785   -2.5141    0.7827 C   0  0  0  0  0  0  0  0  0  0  0  0
   -1.2664   -2.1761    1.5236 O   0  0  0  0  0  0  0  0  0  0  0  0
   -0.5737   -3.1705   -0.3485 O   0  0  0  0  0  0  0  0  0  0  0  0
    1.8662   -2.1167   -0.1242 N   0  0  0  0  0  0  0  0  0  0  0  0
    3.0316   -2.7701   -0.3388 C   0  0  0  0  0  0  0  0  0  0  0  0
    3.7946   -2.3195   -1.5569 C   0  0  0  0  0  0  0  0  0  0  0  0
    3.4437   -3.6477    0.4015 O   0  0  0  0  0  0  0  0  0  0  0  0
    6.8553   -0.6131    2.9186 O   0  0  0  0  0  0  0  0  0  0  0  0
    7.6860   -1.3005    2.1015 C   0  0  0  0  0  0  0  0  0  0  0  0
    7.2818   -2.2843    1.2238 C   0  0  0  0  0  0  0  0  0  0  0  0
    8.2293   -2.9374    0.4375 C   0  0  0  0  0  0  0  0  0  0  0  0
    7.7517   -3.9715   -0.4492 N   0  0  0  0  0  0  0  0  0  0  0  0
    8.5731   -4.5702   -1.1303 O   0  0  0  0  0  0  0  0  0  0  0  0
    6.5751   -4.2068   -0.4876 O   0  0  0  0  0  0  0  0  0  0  0  0
    9.6008   -2.6302    0.4831 C   0  0  0  0  0  0  0  0  0  0  0  0
   10.5403   -3.2333   -0.2138 O   0  0  0  0  0  0  0  0  0  0  0  0
    9.9544   -1.6200    1.3941 C   0  0  0  0  0  0  0  0  0  0  0  0
   11.3437   -1.2090    1.5193 N   0  0  0  0  0  0  0  0  0  0  0  0
   12.0074   -1.1421    0.5159 O   0  0  0  0  0  0  0  0  0  0  0  0
   11.7394   -0.9342    2.6268 O   0  0  0  0  0  0  0  0  0  0  0  0
    9.0364   -0.9794    2.1940 C   0  0  0  0  0  0  0  0  0  0  0  0
    2.8086   -2.3417    3.9339 H   0  0  0  0  0  0  0  0  0  0  0  0
    5.2462   -2.1643    4.2802 H   0  0  0  0  0  0  0  0  0  0  0  0
    5.4758    0.7322    1.1340 H   0  0  0  0  0  0  0  0  0  0  0  0
    3.0403    0.5641    0.8022 H   0  0  0  0  0  0  0  0  0  0  0  0
    0.8608   -0.1960    1.6263 H   0  0  0  0  0  0  0  0  0  0  0  0
    0.7480   -1.3183    2.9749 H   0  0  0  0  0  0  0  0  0  0  0  0
    1.4493   -3.1919    1.5597 H   0  0  0  0  0  0  0  0  0  0  0  0
   -1.5211   -3.3320   -0.4758 H   0  0  0  0  0  0  0  0  0  0  0  0
    1.6241   -1.3595   -0.7437 H   0  0  0  0  0  0  0  0  0  0  0  0
    4.6430   -1.7120   -1.2373 H   0  0  0  0  0  0  0  0  0  0  0  0
    4.1938   -3.1832   -2.0844 H   0  0  0  0  0  0  0  0  0  0  0  0
    3.1966   -1.7266   -2.2464 H   0  0  0  0  0  0  0  0  0  0  0  0
    6.2406   -2.5686    1.1426 H   0  0  0  0  0  0  0  0  0  0  0  0
   10.1201   -3.9300   -0.7580 H   0  0  0  0  0  0  0  0  0  0  0  0
    9.3554   -0.2102    2.8852 H   0  0  0  0  0  0  0  0  0  0  0  0
  1  2  2  0
  1  6  1  0
  1  7  1  0
  2  3  1  0
  2 30  1  0
  3  4  2  0
  3 31  1  0
  4  5  1  0
  4 16  1  0
  5  6  2  0
  5 32  1  0
  6 33  1  0
  7  8  1  0
  7 34  1  0
  7 35  1  0
  8  9  1  0
  8 12  1  0
  8 36  1  1
  9 10  2  0
  9 11  1  0
 11 37  1  0
 12 13  1  0
 12 38  1  0
 13 14  1  0
 13 15  2  0
 14 39  1  0
 14 40  1  0
 14 41  1  0
 16 17  1  0
 17 18  2  0
 17 29  1  0
 18 19  1  0
 18 42  1  0
 19 20  1  0
 19 23  2  0
 20 21  2  0
 20 22  1  0
 23 24  1  0
 23 25  1  0
 24 43  1  0
 25 26  1  0
 25 29  2  0
 26 27  2  0
 26 28  1  0
 29 44  1  0
M  CHG  4  20   1  22  -1  26   1  28  -1
M  END
