
     RDKit          3D

 29 31  0  0  0  0  0  0  0  0999 V2000
   -2.6198    1.0338   -0.3016 C   0  0  0  0  0  0  0  0  0  0  0  0
   -3.7621    0.4385   -0.8317 C   0  0  0  0  0  0  0  0  0  0  0  0
   -4.2004   -0.7983   -0.3870 C   0  0  0  0  0  0  0  0  0  0  0  0
   -3.4848   -1.4583    0.5988 C   0  0  0  0  0  0  0  0  0  0  0  0
   -2.3542   -0.8869    1.1588 C   0  0  0  0  0  0  0  0  0  0  0  0
   -1.9362    0.3567    0.7159 C   0  0  0  0  0  0  0  0  0  0  0  0
   -0.8743    0.9912    1.3233 O   0  0  0  0  0  0  0  0  0  0  0  0
    0.3840    0.5170    1.0851 C   0  0  0  0  0  0  0  0  0  0  0  0
    0.9855   -0.3404    1.9606 C   0  0  0  0  0  0  0  0  0  0  0  0
    2.3026   -0.7824    1.7377 C   0  0  0  0  0  0  0  0  0  0  0  0
    2.9934   -0.3551    0.6406 C   0  0  0  0  0  0  0  0  0  0  0  0
    2.4123    0.5426   -0.2883 C   0  0  0  0  0  0  0  0  0  0  0  0
    1.0859    0.9845   -0.0566 C   0  0  0  0  0  0  0  0  0  0  0  0
    0.4674    1.8517   -0.8873 N   0  0  0  0  0  0  0  0  0  0  0  0
    1.1028    2.2915   -1.9417 C   0  0  0  0  0  0  0  0  0  0  0  0
    2.4176    1.9103   -2.2601 C   0  0  0  0  0  0  0  0  0  0  0  0
    3.0691    1.0391   -1.4349 C   0  0  0  0  0  0  0  0  0  0  0  0
    4.6095   -0.9135    0.3886 Cl  0  0  0  0  0  0  0  0  0  0  0  0
   -2.2238    2.2301   -0.7513 O   0  0  0  0  0  0  0  0  0  0  0  0
   -4.0148   -3.0138    1.1550 Cl  0  0  0  0  0  0  0  0  0  0  0  0
   -4.3075    0.9532   -1.6125 H   0  0  0  0  0  0  0  0  0  0  0  0
   -5.0881   -1.2430   -0.8156 H   0  0  0  0  0  0  0  0  0  0  0  0
   -1.8141   -1.3929    1.9487 H   0  0  0  0  0  0  0  0  0  0  0  0
    0.4584   -0.6782    2.8431 H   0  0  0  0  0  0  0  0  0  0  0  0
    2.7600   -1.4608    2.4440 H   0  0  0  0  0  0  0  0  0  0  0  0
    0.5675    2.9824   -2.5817 H   0  0  0  0  0  0  0  0  0  0  0  0
    2.8937    2.3082   -3.1444 H   0  0  0  0  0  0  0  0  0  0  0  0
    4.0817    0.7323   -1.6566 H   0  0  0  0  0  0  0  0  0  0  0  0
   -1.2349    2.2776   -0.6968 H   0  0  0  0  0  0  0  0  0  0  0  0
  1  2  2  0
  1  6  1  0
  1 19  1  0
  2  3  1  0
  3  4  2  0
  4  5  1  0
  4 20  1  0
  5  6  2  0
  6  7  1  0
  7  8  1  0
  8  9  2  0
  8 13  1  0
  9 10  1  0
 10 11  2  0
 11 12  1  0
 11 18  1  0
 12 13  2  0
 12 17  1  0
 13 14  1  0
 14 15  2  0
 15 16  1  0
 16 17  2  0
  2 21  1  0
  3 22  1  0
  5 23  1  0
  9 24  1  0
 10 25  1  0
 15 26  1  0
 16 27  1  0
 17 28  1  0
 19 29  1  0
M  END
