
     RDKit          3D

 64 67  0  0  0  0  0  0  0  0999 V2000
    0.6453   -1.7811   -0.9644 O   0  0  0  0  0  0  0  0  0  0  0  0
    0.7079   -0.8558   -0.1718 C   0  0  0  0  0  0  0  0  0  0  0  0
    1.7621    0.2447   -0.3187 C   0  0  1  0  0  0  0  0  0  0  0  0
    3.0016   -0.2872   -0.8234 N   0  0  0  0  0  0  0  0  0  0  0  0
    3.7147   -1.1250   -0.0631 C   0  0  0  0  0  0  0  0  0  0  0  0
    4.7909   -1.7082   -0.6329 O   0  0  0  0  0  0  0  0  0  0  0  0
    5.3431   -2.4538    0.3713 C   0  0  0  0  0  0  0  0  0  0  0  0
    6.4632   -3.2497    0.3329 C   0  0  0  0  0  0  0  0  0  0  0  0
    6.7883   -3.8921    1.5269 C   0  0  0  0  0  0  0  0  0  0  0  0
    6.0124   -3.7258    2.6744 C   0  0  0  0  0  0  0  0  0  0  0  0
    4.8826   -2.9135    2.6825 C   0  0  0  0  0  0  0  0  0  0  0  0
    4.5490   -2.2682    1.5003 C   0  0  0  0  0  0  0  0  0  0  0  0
    3.5086   -1.4141    1.1822 N   0  0  0  0  0  0  0  0  0  0  0  0
    1.2219    1.3152   -1.2675 C   0  0  0  0  0  0  0  0  0  0  0  0
    2.1526    2.5042   -1.5051 C   0  0  1  0  0  0  0  0  0  0  0  0
    1.4805    3.4935   -2.4599 C   0  0  0  0  0  0  0  0  0  0  0  0
    2.3515    4.7165   -2.7266 C   0  0  0  0  0  0  0  0  0  0  0  0
    2.7433    5.4069   -1.4249 C   0  0  0  0  0  0  0  0  0  0  0  0
    3.4281    4.4305   -0.4754 C   0  0  0  0  0  0  0  0  0  0  0  0
    2.5584    3.2046   -0.2095 C   0  0  0  0  0  0  0  0  0  0  0  0
   -0.1443   -0.6702    0.8472 N   0  0  0  0  0  0  0  0  0  0  0  0
   -1.3369   -1.4521    1.0668 C   0  0  0  0  0  0  0  0  0  0  0  0
   -2.5874   -0.6375    0.7594 C   0  0  0  0  0  0  0  0  0  0  0  0
   -3.7658   -1.4379    0.9860 N   0  0  0  0  0  0  0  0  0  0  0  0
   -5.0244   -0.8895    0.7848 C   0  0  0  0  0  0  0  0  0  0  0  0
   -6.1550   -1.5521    1.2861 C   0  0  0  0  0  0  0  0  0  0  0  0
   -7.4270   -1.0614    1.0770 C   0  0  0  0  0  0  0  0  0  0  0  0
   -5.2353    0.2878    0.0701 C   0  0  0  0  0  0  0  0  0  0  0  0
   -6.5203    0.7820   -0.1502 C   0  0  0  0  0  0  0  0  0  0  0  0
   -7.6287    0.1154    0.3517 C   0  0  0  0  0  0  0  0  0  0  0  0
   -8.9130    0.5209    0.1997 O   0  0  0  0  0  0  0  0  0  0  0  0
   -9.1515    1.7026   -0.5322 C   0  0  0  0  0  0  0  0  0  0  0  0
    1.9587    0.6908    0.6597 H   0  0  0  0  0  0  0  0  0  0  0  0
    3.1347   -0.3286   -1.8224 H   0  0  0  0  0  0  0  0  0  0  0  0
    7.0586   -3.3722   -0.5618 H   0  0  0  0  0  0  0  0  0  0  0  0
    7.6600   -4.5316    1.5612 H   0  0  0  0  0  0  0  0  0  0  0  0
    6.2972   -4.2431    3.5813 H   0  0  0  0  0  0  0  0  0  0  0  0
    4.2863   -2.7893    3.5769 H   0  0  0  0  0  0  0  0  0  0  0  0
    0.9778    0.8476   -2.2278 H   0  0  0  0  0  0  0  0  0  0  0  0
    0.2754    1.6783   -0.8554 H   0  0  0  0  0  0  0  0  0  0  0  0
    3.0681    2.1470   -1.9946 H   0  0  0  0  0  0  0  0  0  0  0  0
    1.2364    2.9898   -3.3999 H   0  0  0  0  0  0  0  0  0  0  0  0
    0.5265    3.8155   -2.0252 H   0  0  0  0  0  0  0  0  0  0  0  0
    3.2562    4.4076   -3.2619 H   0  0  0  0  0  0  0  0  0  0  0  0
    1.8252    5.4134   -3.3835 H   0  0  0  0  0  0  0  0  0  0  0  0
    3.3938    6.2613   -1.6269 H   0  0  0  0  0  0  0  0  0  0  0  0
    1.8435    5.8060   -0.9437 H   0  0  0  0  0  0  0  0  0  0  0  0
    4.3803    4.1089   -0.9115 H   0  0  0  0  0  0  0  0  0  0  0  0
    3.6724    4.9240    0.4684 H   0  0  0  0  0  0  0  0  0  0  0  0
    1.6546    3.5100    0.3326 H   0  0  0  0  0  0  0  0  0  0  0  0
    3.0988    2.5161    0.4460 H   0  0  0  0  0  0  0  0  0  0  0  0
    0.0134    0.1061    1.4703 H   0  0  0  0  0  0  0  0  0  0  0  0
   -1.3547   -1.7945    2.1045 H   0  0  0  0  0  0  0  0  0  0  0  0
   -1.2997   -2.3348    0.4313 H   0  0  0  0  0  0  0  0  0  0  0  0
   -2.5499   -0.3299   -0.2886 H   0  0  0  0  0  0  0  0  0  0  0  0
   -2.5830    0.2828    1.3625 H   0  0  0  0  0  0  0  0  0  0  0  0
   -3.7130   -1.9980    1.8245 H   0  0  0  0  0  0  0  0  0  0  0  0
   -6.0291   -2.4689    1.8508 H   0  0  0  0  0  0  0  0  0  0  0  0
   -8.2805   -1.5941    1.4790 H   0  0  0  0  0  0  0  0  0  0  0  0
   -4.4006    0.8471   -0.3314 H   0  0  0  0  0  0  0  0  0  0  0  0
   -6.6216    1.6998   -0.7144 H   0  0  0  0  0  0  0  0  0  0  0  0
   -8.8160    1.6185   -1.5701 H   0  0  0  0  0  0  0  0  0  0  0  0
  -10.2274    1.8620   -0.5265 H   0  0  0  0  0  0  0  0  0  0  0  0
   -8.6667    2.5728   -0.0803 H   0  0  0  0  0  0  0  0  0  0  0  0
  1  2  2  0
  2  3  1  0
  2 21  1  0
  3  4  1  0
  3 14  1  0
  3 33  1  1
  4  5  1  0
  4 34  1  0
  5  6  1  0
  5 13  2  0
  6  7  1  0
  7  8  2  0
  7 12  1  0
  8  9  1  0
  8 35  1  0
  9 10  2  0
  9 36  1  0
 10 11  1  0
 10 37  1  0
 11 12  2  0
 11 38  1  0
 12 13  1  0
 14 15  1  0
 14 39  1  0
 14 40  1  0
 15 16  1  0
 15 20  1  0
 15 41  1  6
 16 17  1  0
 16 42  1  0
 16 43  1  0
 17 18  1  0
 17 44  1  0
 17 45  1  0
 18 19  1  0
 18 46  1  0
 18 47  1  0
 19 20  1  0
 19 48  1  0
 19 49  1  0
 20 50  1  0
 20 51  1  0
 21 22  1  0
 21 52  1  0
 22 23  1  0
 22 53  1  0
 22 54  1  0
 23 24  1  0
 23 55  1  0
 23 56  1  0
 24 25  1  0
 24 57  1  0
 25 26  2  0
 25 28  1  0
 26 27  1  0
 26 58  1  0
 27 30  2  0
 27 59  1  0
 28 29  2  0
 28 60  1  0
 29 30  1  0
 29 61  1  0
 30 31  1  0
 31 32  1  0
 32 62  1  0
 32 63  1  0
 32 64  1  0
M  END
