
     RDKit          3D

127126  0  0  0  0  0  0  0  0999 V2000
   20.3776    6.9816   -0.8704 C   0  0  0  0  0  0  0  0  0  0  0  0
   19.6406    5.6922   -0.5366 C   0  0  0  0  0  0  0  0  0  0  0  0
   18.1463    5.7715   -0.8248 C   0  0  0  0  0  0  0  0  0  0  0  0
   17.3999    4.4858   -0.4935 C   0  0  0  0  0  0  0  0  0  0  0  0
   15.9042    4.5645   -0.7731 C   0  0  0  0  0  0  0  0  0  0  0  0
   15.1629    3.2783   -0.4323 C   0  0  0  0  0  0  0  0  0  0  0  0
   13.6639    3.3514   -0.6963 C   0  0  0  0  0  0  0  0  0  0  0  0
   12.9323    2.0653   -0.3347 C   0  0  0  0  0  0  0  0  0  0  0  0
   11.4281    2.1299   -0.5705 C   0  0  0  0  0  0  0  0  0  0  0  0
   10.7111    0.8451   -0.1761 C   0  0  0  0  0  0  0  0  0  0  0  0
    9.2001    0.9023   -0.3654 C   0  0  0  0  0  0  0  0  0  0  0  0
    8.5012   -0.3800    0.0688 C   0  0  0  0  0  0  0  0  0  0  0  0
    6.9834   -0.3212   -0.0518 C   0  0  0  0  0  0  0  0  0  0  0  0
    6.3018   -1.6020    0.4141 C   0  0  0  0  0  0  0  0  0  0  0  0
    4.7809   -1.5217    0.3892 C   0  0  0  0  0  0  0  0  0  0  0  0
    4.1166   -2.8089    0.8632 C   0  0  0  0  0  0  0  0  0  0  0  0
    2.6040   -2.6710    0.9402 C   0  0  0  0  0  0  0  0  0  0  0  0
    1.9090   -3.9202    1.4036 C   0  0  0  0  0  0  0  0  0  0  0  0
    2.3911   -5.0235    1.4159 O   0  0  0  0  0  0  0  0  0  0  0  0
    0.6587   -3.6622    1.7956 O   0  0  0  0  0  0  0  0  0  0  0  0
   -0.1636   -4.7404    2.2401 C   0  0  2  0  0  0  0  0  0  0  0  0
   -0.8244   -5.4320    1.0655 C   0  0  0  0  0  0  0  0  0  0  0  0
   -1.5407   -4.4715    0.2893 O   0  0  0  0  0  0  0  0  0  0  0  0
   -2.6276   -4.9486   -0.7830 P   0  0  1  0  0  0  0  0  0  0  0  0
   -2.1631   -5.8247   -1.8740 O   0  0  0  0  0  0  0  0  0  0  0  0
   -3.8041   -5.6497    0.0322 O   0  0  0  0  0  0  0  0  0  0  0  0
   -3.1291   -3.4941   -1.1904 O   0  0  0  0  0  0  0  0  0  0  0  0
   -3.9630   -3.3081   -2.3503 C   0  0  0  0  0  0  0  0  0  0  0  0
   -4.6749   -1.9856   -2.2087 C   0  0  0  0  0  0  0  0  0  0  0  0
   -3.7382   -0.8761   -2.1787 N   0  0  0  0  0  0  0  0  0  0  0  0
   -1.0952   -4.1868    3.3015 C   0  0  0  0  0  0  0  0  0  0  0  0
   -1.8405   -3.0528    2.8583 O   0  0  0  0  0  0  0  0  0  0  0  0
   -3.0773   -3.1989    2.4164 C   0  0  0  0  0  0  0  0  0  0  0  0
   -3.6595   -4.2626    2.4045 O   0  0  0  0  0  0  0  0  0  0  0  0
   -3.6542   -1.8982    1.9400 C   0  0  0  0  0  0  0  0  0  0  0  0
   -5.1492   -1.9493    1.6689 C   0  0  0  0  0  0  0  0  0  0  0  0
   -5.6863   -0.5951    1.2239 C   0  0  0  0  0  0  0  0  0  0  0  0
   -7.1907   -0.6004    0.9889 C   0  0  0  0  0  0  0  0  0  0  0  0
   -7.7248    0.7520    0.5340 C   0  0  0  0  0  0  0  0  0  0  0  0
   -9.2427    0.7915    0.4120 C   0  0  0  0  0  0  0  0  0  0  0  0
   -9.7735    2.1457   -0.0432 C   0  0  0  0  0  0  0  0  0  0  0  0
  -11.2949    2.2208   -0.0609 C   0  0  0  0  0  0  0  0  0  0  0  0
  -11.8269    3.5702   -0.5284 C   0  0  0  0  0  0  0  0  0  0  0  0
  -13.3468    3.6640   -0.4886 C   0  0  0  0  0  0  0  0  0  0  0  0
  -13.8815    5.0088   -0.9661 C   0  0  0  0  0  0  0  0  0  0  0  0
  -15.4001    5.1099   -0.9008 C   0  0  0  0  0  0  0  0  0  0  0  0
  -15.9363    6.4522   -1.3828 C   0  0  0  0  0  0  0  0  0  0  0  0
  -17.4540    6.5604   -1.3026 C   0  0  0  0  0  0  0  0  0  0  0  0
  -17.9777    7.9043   -1.7902 C   0  0  0  0  0  0  0  0  0  0  0  0
   20.2810    7.2279   -1.9297 H   0  0  0  0  0  0  0  0  0  0  0  0
   19.9769    7.8225   -0.3009 H   0  0  0  0  0  0  0  0  0  0  0  0
   21.4421    6.9071   -0.6449 H   0  0  0  0  0  0  0  0  0  0  0  0
   20.0741    4.8630   -1.1045 H   0  0  0  0  0  0  0  0  0  0  0  0
   19.7907    5.4454    0.5190 H   0  0  0  0  0  0  0  0  0  0  0  0
   17.7112    6.6015   -0.2566 H   0  0  0  0  0  0  0  0  0  0  0  0
   17.9952    6.0193   -1.8816 H   0  0  0  0  0  0  0  0  0  0  0  0
   17.8330    3.6570   -1.0648 H   0  0  0  0  0  0  0  0  0  0  0  0
   17.5563    4.2367    0.5622 H   0  0  0  0  0  0  0  0  0  0  0  0
   15.4714    5.3947   -0.2036 H   0  0  0  0  0  0  0  0  0  0  0  0
   15.7454    4.8092   -1.8293 H   0  0  0  0  0  0  0  0  0  0  0  0
   15.5925    2.4489   -1.0054 H   0  0  0  0  0  0  0  0  0  0  0  0
   15.3299    3.0323    0.6224 H   0  0  0  0  0  0  0  0  0  0  0  0
   13.2353    4.1847   -0.1281 H   0  0  0  0  0  0  0  0  0  0  0  0
   13.4919    3.5870   -1.7525 H   0  0  0  0  0  0  0  0  0  0  0  0
   13.3549    1.2332   -0.9091 H   0  0  0  0  0  0  0  0  0  0  0  0
   13.1189    1.8276    0.7187 H   0  0  0  0  0  0  0  0  0  0  0  0
   11.0075    2.9682   -0.0035 H   0  0  0  0  0  0  0  0  0  0  0  0
   11.2334    2.3515   -1.6257 H   0  0  0  0  0  0  0  0  0  0  0  0
   11.1194    0.0086   -0.7546 H   0  0  0  0  0  0  0  0  0  0  0  0
   10.9303    0.6187    0.8736 H   0  0  0  0  0  0  0  0  0  0  0  0
    8.7952    1.7459    0.2052 H   0  0  0  0  0  0  0  0  0  0  0  0
    8.9698    1.1102   -1.4162 H   0  0  0  0  0  0  0  0  0  0  0  0
    8.8829   -1.2205   -0.5219 H   0  0  0  0  0  0  0  0  0  0  0  0
    8.7675   -0.5983    1.1092 H   0  0  0  0  0  0  0  0  0  0  0  0
    6.6072    0.5234    0.5368 H   0  0  0  0  0  0  0  0  0  0  0  0
    6.7046   -0.1136   -1.0908 H   0  0  0  0  0  0  0  0  0  0  0  0
    6.6361   -2.4398   -0.2078 H   0  0  0  0  0  0  0  0  0  0  0  0
    6.6297   -1.8320    1.4340 H   0  0  0  0  0  0  0  0  0  0  0  0
    4.4557   -0.6879    1.0213 H   0  0  0  0  0  0  0  0  0  0  0  0
    4.4402   -1.2856   -0.6248 H   0  0  0  0  0  0  0  0  0  0  0  0
    4.3853   -3.6262    0.1897 H   0  0  0  0  0  0  0  0  0  0  0  0
    4.5088   -3.0759    1.8487 H   0  0  0  0  0  0  0  0  0  0  0  0
    2.3254   -1.8438    1.5979 H   0  0  0  0  0  0  0  0  0  0  0  0
    2.1930   -2.4177   -0.0440 H   0  0  0  0  0  0  0  0  0  0  0  0
    0.4369   -5.5035    2.7461 H   0  0  0  0  0  0  0  0  0  0  0  0
   -0.0693   -5.9165    0.4435 H   0  0  0  0  0  0  0  0  0  0  0  0
   -1.4835   -6.2129    1.4557 H   0  0  0  0  0  0  0  0  0  0  0  0
   -4.0289   -5.2114    0.8771 H   0  0  0  0  0  0  0  0  0  0  0  0
   -3.3352   -3.3157   -3.2432 H   0  0  0  0  0  0  0  0  0  0  0  0
   -4.6997   -4.1108   -2.4338 H   0  0  0  0  0  0  0  0  0  0  0  0
   -5.3167   -1.8788   -3.0858 H   0  0  0  0  0  0  0  0  0  0  0  0
   -5.3439   -2.0364   -1.3389 H   0  0  0  0  0  0  0  0  0  0  0  0
   -4.2477   -0.0025   -2.1723 H   0  0  0  0  0  0  0  0  0  0  0  0
   -3.2067   -0.8913   -1.3175 H   0  0  0  0  0  0  0  0  0  0  0  0
   -1.7465   -4.9827    3.6632 H   0  0  0  0  0  0  0  0  0  0  0  0
   -0.5002   -3.8314    4.1422 H   0  0  0  0  0  0  0  0  0  0  0  0
   -3.4206   -1.1239    2.6758 H   0  0  0  0  0  0  0  0  0  0  0  0
   -3.1072   -1.6143    1.0338 H   0  0  0  0  0  0  0  0  0  0  0  0
   -5.3630   -2.6955    0.8988 H   0  0  0  0  0  0  0  0  0  0  0  0
   -5.6784   -2.2710    2.5696 H   0  0  0  0  0  0  0  0  0  0  0  0
   -5.4427    0.1600    1.9788 H   0  0  0  0  0  0  0  0  0  0  0  0
   -5.1745   -0.2816    0.3073 H   0  0  0  0  0  0  0  0  0  0  0  0
   -7.4434   -1.3629    0.2436 H   0  0  0  0  0  0  0  0  0  0  0  0
   -7.6983   -0.8987    1.9127 H   0  0  0  0  0  0  0  0  0  0  0  0
   -7.4042    1.5231    1.2436 H   0  0  0  0  0  0  0  0  0  0  0  0
   -7.2701    1.0176   -0.4268 H   0  0  0  0  0  0  0  0  0  0  0  0
   -9.5766    0.0157   -0.2859 H   0  0  0  0  0  0  0  0  0  0  0  0
   -9.6861    0.5376    1.3812 H   0  0  0  0  0  0  0  0  0  0  0  0
   -9.3835    2.9274    0.6185 H   0  0  0  0  0  0  0  0  0  0  0  0
   -9.3829    2.3722   -1.0414 H   0  0  0  0  0  0  0  0  0  0  0  0
  -11.6936    1.4299   -0.7061 H   0  0  0  0  0  0  0  0  0  0  0  0
  -11.6761    2.0108    0.9447 H   0  0  0  0  0  0  0  0  0  0  0  0
  -11.3995    4.3638    0.0949 H   0  0  0  0  0  0  0  0  0  0  0  0
  -11.4757    3.7651   -1.5479 H   0  0  0  0  0  0  0  0  0  0  0  0
  -13.7775    2.8639   -1.1012 H   0  0  0  0  0  0  0  0  0  0  0  0
  -13.6928    3.4798    0.5347 H   0  0  0  0  0  0  0  0  0  0  0  0
  -13.4389    5.8098   -0.3634 H   0  0  0  0  0  0  0  0  0  0  0  0
  -13.5489    5.1865   -1.9950 H   0  0  0  0  0  0  0  0  0  0  0  0
  -15.8440    4.3056   -1.4981 H   0  0  0  0  0  0  0  0  0  0  0  0
  -15.7301    4.9373    0.1299 H   0  0  0  0  0  0  0  0  0  0  0  0
  -15.4849    7.2572   -0.7918 H   0  0  0  0  0  0  0  0  0  0  0  0
  -15.6154    6.6217   -2.4170 H   0  0  0  0  0  0  0  0  0  0  0  0
  -17.9054    5.7549   -1.8903 H   0  0  0  0  0  0  0  0  0  0  0  0
  -17.7739    6.3956   -0.2688 H   0  0  0  0  0  0  0  0  0  0  0  0
  -17.5507    8.7263   -1.2124 H   0  0  0  0  0  0  0  0  0  0  0  0
  -17.7203    8.0711   -2.8378 H   0  0  0  0  0  0  0  0  0  0  0  0
  -19.0631    7.9689   -1.7037 H   0  0  0  0  0  0  0  0  0  0  0  0
  1  2  1  0
  1 50  1  0
  1 51  1  0
  1 52  1  0
  2  3  1  0
  2 53  1  0
  2 54  1  0
  3  4  1  0
  3 55  1  0
  3 56  1  0
  4  5  1  0
  4 57  1  0
  4 58  1  0
  5  6  1  0
  5 59  1  0
  5 60  1  0
  6  7  1  0
  6 61  1  0
  6 62  1  0
  7  8  1  0
  7 63  1  0
  7 64  1  0
  8  9  1  0
  8 65  1  0
  8 66  1  0
  9 10  1  0
  9 67  1  0
  9 68  1  0
 10 11  1  0
 10 69  1  0
 10 70  1  0
 11 12  1  0
 11 71  1  0
 11 72  1  0
 12 13  1  0
 12 73  1  0
 12 74  1  0
 13 14  1  0
 13 75  1  0
 13 76  1  0
 14 15  1  0
 14 77  1  0
 14 78  1  0
 15 16  1  0
 15 79  1  0
 15 80  1  0
 16 17  1  0
 16 81  1  0
 16 82  1  0
 17 18  1  0
 17 83  1  0
 17 84  1  0
 18 19  2  0
 18 20  1  0
 20 21  1  0
 21 22  1  0
 21 31  1  0
 21 85  1  1
 22 23  1  0
 22 86  1  0
 22 87  1  0
 24 23  1  1
 24 25  2  0
 24 26  1  0
 24 27  1  0
 26 88  1  0
 27 28  1  0
 28 29  1  0
 28 89  1  0
 28 90  1  0
 29 30  1  0
 29 91  1  0
 29 92  1  0
 30 93  1  0
 30 94  1  0
 31 32  1  0
 31 95  1  0
 31 96  1  0
 32 33  1  0
 33 34  2  0
 33 35  1  0
 35 36  1  0
 35 97  1  0
 35 98  1  0
 36 37  1  0
 36 99  1  0
 36100  1  0
 37 38  1  0
 37101  1  0
 37102  1  0
 38 39  1  0
 38103  1  0
 38104  1  0
 39 40  1  0
 39105  1  0
 39106  1  0
 40 41  1  0
 40107  1  0
 40108  1  0
 41 42  1  0
 41109  1  0
 41110  1  0
 42 43  1  0
 42111  1  0
 42112  1  0
 43 44  1  0
 43113  1  0
 43114  1  0
 44 45  1  0
 44115  1  0
 44116  1  0
 45 46  1  0
 45117  1  0
 45118  1  0
 46 47  1  0
 46119  1  0
 46120  1  0
 47 48  1  0
 47121  1  0
 47122  1  0
 48 49  1  0
 48123  1  0
 48124  1  0
 49125  1  0
 49126  1  0
 49127  1  0
M  END
