
     RDKit          3D

 53 57  0  0  0  0  0  0  0  0999 V2000
    7.1247    1.0448   -2.8071 C   0  0  0  0  0  0  0  0  0  0  0  0
    6.3434    0.1798   -2.0065 O   0  0  0  0  0  0  0  0  0  0  0  0
    5.7870    0.6705   -0.8835 C   0  0  0  0  0  0  0  0  0  0  0  0
    5.9201    1.9888   -0.4510 C   0  0  0  0  0  0  0  0  0  0  0  0
    5.3011    2.3838    0.7285 C   0  0  0  0  0  0  0  0  0  0  0  0
    4.5562    1.4911    1.4820 C   0  0  0  0  0  0  0  0  0  0  0  0
    4.4262    0.1740    1.0508 C   0  0  0  0  0  0  0  0  0  0  0  0
    5.0369   -0.2301   -0.1263 C   0  0  0  0  0  0  0  0  0  0  0  0
    3.6043   -0.8184    1.8396 C   0  0  0  0  0  0  0  0  0  0  0  0
    2.2993   -1.0732    1.1884 C   0  0  0  0  0  0  0  0  0  0  0  0
    1.4295   -0.0598    1.0346 O   0  0  0  0  0  0  0  0  0  0  0  0
    0.3907   -0.6288    0.3972 C   0  0  0  0  0  0  0  0  0  0  0  0
    0.5992   -1.8823    0.1754 N   0  0  0  0  0  0  0  0  0  0  0  0
    1.8376   -2.1633    0.6904 N   0  0  0  0  0  0  0  0  0  0  0  0
   -0.7280    0.2106    0.0725 C   0  0  0  0  0  0  0  0  0  0  0  0
   -0.6709    1.9049    0.4730 S   0  0  0  0  0  0  0  0  0  0  0  0
   -2.2390    2.1502   -0.2190 C   0  0  0  0  0  0  0  0  0  0  0  0
   -2.9246    3.3596   -0.2955 C   0  0  0  0  0  0  0  0  0  0  0  0
   -4.1545    3.3705   -0.9229 C   0  0  0  0  0  0  0  0  0  0  0  0
   -4.6933    2.2009   -1.4771 C   0  0  0  0  0  0  0  0  0  0  0  0
   -4.0137    1.0047   -1.3984 C   0  0  0  0  0  0  0  0  0  0  0  0
   -2.7739    0.9666   -0.7475 C   0  0  0  0  0  0  0  0  0  0  0  0
   -1.8836   -0.1459   -0.5602 C   0  0  0  0  0  0  0  0  0  0  0  0
   -2.1366   -1.3849   -0.9984 O   0  0  0  0  0  0  0  0  0  0  0  0
   -3.1670   -2.1216   -0.3079 C   0  0  1  0  0  0  0  0  0  0  0  0
   -3.4488   -3.3650   -1.1283 C   0  0  0  0  0  0  0  0  0  0  0  0
   -4.4832   -4.2255   -0.4137 C   0  0  0  0  0  0  0  0  0  0  0  0
   -4.0085   -4.5654    0.9145 N   0  0  0  0  0  0  0  0  0  0  0  0
   -3.8211   -3.3816    1.7326 C   0  0  0  0  0  0  0  0  0  0  0  0
   -2.7560   -2.4854    1.1098 C   0  0  0  0  0  0  0  0  0  0  0  0
    7.9903    1.4323   -2.2637 H   0  0  0  0  0  0  0  0  0  0  0  0
    7.4750    0.4536   -3.6494 H   0  0  0  0  0  0  0  0  0  0  0  0
    6.5409    1.8869   -3.1873 H   0  0  0  0  0  0  0  0  0  0  0  0
    6.4978    2.7122   -1.0097 H   0  0  0  0  0  0  0  0  0  0  0  0
    4.9377   -1.2541   -0.4693 H   0  0  0  0  0  0  0  0  0  0  0  0
    5.4085    3.4088    1.0589 H   0  0  0  0  0  0  0  0  0  0  0  0
    4.0815    1.8127    2.4002 H   0  0  0  0  0  0  0  0  0  0  0  0
    4.1202   -1.7752    1.9213 H   0  0  0  0  0  0  0  0  0  0  0  0
    3.4377   -0.4529    2.8554 H   0  0  0  0  0  0  0  0  0  0  0  0
   -2.5029    4.2669    0.1164 H   0  0  0  0  0  0  0  0  0  0  0  0
   -4.7048    4.2989   -0.9979 H   0  0  0  0  0  0  0  0  0  0  0  0
   -5.6508    2.2418   -1.9787 H   0  0  0  0  0  0  0  0  0  0  0  0
   -4.4292    0.1105   -1.8443 H   0  0  0  0  0  0  0  0  0  0  0  0
   -4.0775   -1.5094   -0.2659 H   0  0  0  0  0  0  0  0  0  0  0  0
   -3.8150   -3.0920   -2.1206 H   0  0  0  0  0  0  0  0  0  0  0  0
   -2.5241   -3.9350   -1.2550 H   0  0  0  0  0  0  0  0  0  0  0  0
   -1.7983   -3.0101    1.0855 H   0  0  0  0  0  0  0  0  0  0  0  0
   -2.6344   -1.5887    1.7225 H   0  0  0  0  0  0  0  0  0  0  0  0
   -5.4437   -3.6841   -0.3927 H   0  0  0  0  0  0  0  0  0  0  0  0
   -4.6509   -5.1431   -0.9795 H   0  0  0  0  0  0  0  0  0  0  0  0
   -4.6694   -5.1865    1.3619 H   0  0  0  0  0  0  0  0  0  0  0  0
   -4.7514   -2.8023    1.8567 H   0  0  0  0  0  0  0  0  0  0  0  0
   -3.5030   -3.6838    2.7317 H   0  0  0  0  0  0  0  0  0  0  0  0
  1  2  1  0
  2  3  1  0
  3  4  2  0
  3  8  1  0
  4  5  1  0
  5  6  2  0
  6  7  1  0
  7  8  2  0
  7  9  1  0
  9 10  1  0
 10 11  1  0
 10 14  2  0
 11 12  1  0
 12 13  2  0
 12 15  1  0
 13 14  1  0
 15 16  1  0
 15 23  2  0
 16 17  1  0
 17 18  2  0
 17 22  1  0
 18 19  1  0
 19 20  2  0
 20 21  1  0
 21 22  2  0
 22 23  1  0
 23 24  1  0
 24 25  1  0
 25 26  1  0
 25 30  1  0
 26 27  1  0
 27 28  1  0
 28 29  1  0
 29 30  1  0
  1 31  1  0
  1 32  1  0
  1 33  1  0
  4 34  1  0
  8 35  1  0
  5 36  1  0
  6 37  1  0
  9 38  1  0
  9 39  1  0
 18 40  1  0
 19 41  1  0
 20 42  1  0
 21 43  1  0
 25 44  1  1
 26 45  1  0
 26 46  1  0
 30 47  1  0
 30 48  1  0
 27 49  1  0
 27 50  1  0
 28 51  1  0
 29 52  1  0
 29 53  1  0
M  END
