
     RDKit          3D

 45 47  0  0  0  0  0  0  0  0999 V2000
    1.4228    0.3116    0.6951 C   0  0  0  0  0  0  0  0  0  0  0  0
    2.5980    0.9939    0.4081 C   0  0  0  0  0  0  0  0  0  0  0  0
    3.7958    0.3143    0.2455 C   0  0  0  0  0  0  0  0  0  0  0  0
    3.7897   -1.0649    0.3706 C   0  0  0  0  0  0  0  0  0  0  0  0
    2.6245   -1.7578    0.6586 C   0  0  0  0  0  0  0  0  0  0  0  0
    1.4268   -1.0742    0.8240 C   0  0  0  0  0  0  0  0  0  0  0  0
    0.1843   -1.8375    1.1993 C   0  0  0  0  0  0  0  0  0  0  0  0
   -0.9050   -1.6025    0.2807 N   0  0  0  0  0  0  0  0  0  0  0  0
   -2.1926   -1.6153    0.6746 C   0  0  0  0  0  0  0  0  0  0  0  0
   -2.5355   -1.8070    1.8283 O   0  0  0  0  0  0  0  0  0  0  0  0
   -3.1836   -1.3740   -0.4212 C   0  0  0  0  0  0  0  0  0  0  0  0
   -3.0471   -2.0365   -1.6404 C   0  0  0  0  0  0  0  0  0  0  0  0
   -3.9667   -1.8603   -2.6617 C   0  0  0  0  0  0  0  0  0  0  0  0
   -5.0395   -1.0015   -2.4765 C   0  0  0  0  0  0  0  0  0  0  0  0
   -5.1934   -0.3301   -1.2735 C   0  0  0  0  0  0  0  0  0  0  0  0
   -4.2780   -0.5259   -0.2505 C   0  0  0  0  0  0  0  0  0  0  0  0
   -4.5107    0.3610    1.2134 Cl  0  0  0  0  0  0  0  0  0  0  0  0
    2.5728    2.8659    0.2730 Br  0  0  0  0  0  0  0  0  0  0  0  0
    5.4006   -2.0135    0.1467 Br  0  0  0  0  0  0  0  0  0  0  0  0
    0.2616    1.0034    0.9000 O   0  0  0  0  0  0  0  0  0  0  0  0
   -0.4288    1.3950   -0.2048 C   0  0  0  0  0  0  0  0  0  0  0  0
   -0.0677    1.0784   -1.3051 O   0  0  0  0  0  0  0  0  0  0  0  0
   -1.6035    2.2175    0.1357 C   0  0  0  0  0  0  0  0  0  0  0  0
   -1.7122    2.7562    1.4215 C   0  0  0  0  0  0  0  0  0  0  0  0
   -2.7735    3.5723    1.7637 C   0  0  0  0  0  0  0  0  0  0  0  0
   -3.7477    3.8507    0.8170 C   0  0  0  0  0  0  0  0  0  0  0  0
   -3.6518    3.3088   -0.4538 C   0  0  0  0  0  0  0  0  0  0  0  0
   -2.5911    2.4885   -0.8305 C   0  0  0  0  0  0  0  0  0  0  0  0
   -2.5872    1.9440   -2.2292 C   0  0  0  0  0  0  0  0  0  0  0  0
    4.7066    0.8531    0.0232 H   0  0  0  0  0  0  0  0  0  0  0  0
    2.6329   -2.8356    0.7558 H   0  0  0  0  0  0  0  0  0  0  0  0
    0.4262   -2.9020    1.2491 H   0  0  0  0  0  0  0  0  0  0  0  0
   -0.1393   -1.5414    2.1980 H   0  0  0  0  0  0  0  0  0  0  0  0
   -0.6852   -1.5073   -0.6982 H   0  0  0  0  0  0  0  0  0  0  0  0
   -2.2207   -2.7208   -1.7878 H   0  0  0  0  0  0  0  0  0  0  0  0
   -3.8450   -2.3934   -3.5948 H   0  0  0  0  0  0  0  0  0  0  0  0
   -5.7611   -0.8478   -3.2674 H   0  0  0  0  0  0  0  0  0  0  0  0
   -6.0226    0.3492   -1.1299 H   0  0  0  0  0  0  0  0  0  0  0  0
   -0.9548    2.5507    2.1643 H   0  0  0  0  0  0  0  0  0  0  0  0
   -2.8373    3.9872    2.7606 H   0  0  0  0  0  0  0  0  0  0  0  0
   -4.5873    4.4861    1.0677 H   0  0  0  0  0  0  0  0  0  0  0  0
   -4.4255    3.5227   -1.1805 H   0  0  0  0  0  0  0  0  0  0  0  0
   -2.4822    0.8597   -2.2517 H   0  0  0  0  0  0  0  0  0  0  0  0
   -3.5256    2.1941   -2.7208 H   0  0  0  0  0  0  0  0  0  0  0  0
   -1.7758    2.3608   -2.8255 H   0  0  0  0  0  0  0  0  0  0  0  0
  6  1  1  0
  1 20  1  0
  1  2  2  0
  3  2  1  0
  2 18  1  0
  4  3  2  0
  3 30  1  0
  5  4  1  0
 19  4  1  0
  5  6  2  0
  5 31  1  0
  7  6  1  0
  8  7  1  0
  7 32  1  0
  7 33  1  0
  8  9  1  0
  8 34  1  0
 11  9  1  0
  9 10  2  0
 16 11  1  0
 12 11  2  0
 13 12  1  0
 12 35  1  0
 14 13  2  0
 13 36  1  0
 14 15  1  0
 14 37  1  0
 15 16  2  0
 15 38  1  0
 16 17  1  0
 20 21  1  0
 23 21  1  0
 21 22  2  0
 24 23  2  0
 23 28  1  0
 25 24  1  0
 24 39  1  0
 25 26  2  0
 25 40  1  0
 26 27  1  0
 26 41  1  0
 27 28  2  0
 27 42  1  0
 28 29  1  0
 29 43  1  0
 29 44  1  0
 29 45  1  0
M  END
