
     RDKit          3D

 50 53  0  0  0  0  0  0  0  0999 V2000
   -3.0413   -2.0550   -1.4371 C   0  0  0  0  0  0  0  0  0  0  0  0
   -3.2711    3.3509    1.0609 C   0  0  0  0  0  0  0  0  0  0  0  0
   -2.2460    3.9561    1.7725 C   0  0  0  0  0  0  0  0  0  0  0  0
   -1.4655    1.2179   -1.2769 C   0  0  0  0  0  0  0  0  0  0  0  0
   -1.7536    2.2255   -0.1955 C   0  0  0  0  0  0  0  0  0  0  0  0
   -0.7298    2.8433    0.5217 C   0  0  0  0  0  0  0  0  0  0  0  0
    3.0908    1.4794   -0.4478 C   0  0  0  0  0  0  0  0  0  0  0  0
    4.3293    1.6875   -1.3012 C   0  0  0  0  0  0  0  0  0  0  0  0
    5.4342   -0.0842   -0.2864 C   0  0  0  0  0  0  0  0  0  0  0  0
    4.2497   -0.3750    0.6163 C   0  0  0  0  0  0  0  0  0  0  0  0
    5.5028    1.2811   -0.6342 O   0  0  0  0  0  0  0  0  0  0  0  0
    3.0295    0.1021   -0.0032 N   0  0  0  0  0  0  0  0  0  0  0  0
    0.6760   -3.8568    1.1687 C   0  0  0  0  0  0  0  0  0  0  0  0
   -0.9731    3.7043    1.4979 N   0  0  0  0  0  0  0  0  0  0  0  0
   -3.0251    2.4942    0.0798 N   0  0  0  0  0  0  0  0  0  0  0  0
   -4.4137   -2.5109   -0.9344 C   0  0  0  0  0  0  0  0  0  0  0  0
   -4.5323   -1.9838    0.5189 C   0  0  0  0  0  0  0  0  0  0  0  0
   -3.2856   -1.1199    0.7671 C   0  0  0  0  0  0  0  0  0  0  0  0
   -2.8052   -0.7693   -0.6437 C   0  0  1  0  0  0  0  0  0  0  0  0
   -1.4915   -0.1448   -0.7715 N   0  0  0  0  0  0  0  0  0  0  0  0
    0.7658    0.0183   -0.3719 N   0  0  0  0  0  0  0  0  0  0  0  0
   -0.3486   -0.7088   -0.3126 C   0  0  0  0  0  0  0  0  0  0  0  0
   -0.4054   -1.9546    0.1656 N   0  0  0  0  0  0  0  0  0  0  0  0
    0.7421   -2.4557    0.6102 C   0  0  0  0  0  0  0  0  0  0  0  0
    1.9059   -1.8158    0.5936 N   0  0  0  0  0  0  0  0  0  0  0  0
    1.8667   -0.5850    0.0770 C   0  0  0  0  0  0  0  0  0  0  0  0
   -2.2728   -2.7869   -1.1917 H   0  0  0  0  0  0  0  0  0  0  0  0
   -3.0189   -1.8879   -2.5156 H   0  0  0  0  0  0  0  0  0  0  0  0
   -4.3078    3.5700    1.2868 H   0  0  0  0  0  0  0  0  0  0  0  0
   -2.4614    4.6561    2.5707 H   0  0  0  0  0  0  0  0  0  0  0  0
   -2.2226    1.3076   -2.0563 H   0  0  0  0  0  0  0  0  0  0  0  0
   -0.4994    1.4202   -1.7319 H   0  0  0  0  0  0  0  0  0  0  0  0
    0.3061    2.6257    0.2916 H   0  0  0  0  0  0  0  0  0  0  0  0
    2.2068    1.7185   -1.0331 H   0  0  0  0  0  0  0  0  0  0  0  0
    4.2139    1.1364   -2.2456 H   0  0  0  0  0  0  0  0  0  0  0  0
    4.4370    2.7464   -1.5408 H   0  0  0  0  0  0  0  0  0  0  0  0
    6.3611   -0.3381    0.2297 H   0  0  0  0  0  0  0  0  0  0  0  0
    5.3674   -0.7074   -1.1896 H   0  0  0  0  0  0  0  0  0  0  0  0
    4.1736   -1.4440    0.7959 H   0  0  0  0  0  0  0  0  0  0  0  0
    4.3949    0.1172    1.5864 H   0  0  0  0  0  0  0  0  0  0  0  0
   -0.4005   -4.1856    1.0860 H   0  0  0  0  0  0  0  0  0  0  0  0
   -5.2021   -2.0794   -1.5541 H   0  0  0  0  0  0  0  0  0  0  0  0
   -4.5289   -3.5937   -0.9922 H   0  0  0  0  0  0  0  0  0  0  0  0
   -5.4441   -1.3963    0.6352 H   0  0  0  0  0  0  0  0  0  0  0  0
   -4.5925   -2.7996    1.2397 H   0  0  0  0  0  0  0  0  0  0  0  0
   -3.4985   -0.2280    1.3587 H   0  0  0  0  0  0  0  0  0  0  0  0
   -2.5189   -1.6959    1.2828 H   0  0  0  0  0  0  0  0  0  0  0  0
   -3.5014   -0.0232   -1.0348 H   0  0  0  0  0  0  0  0  0  0  0  0
    3.1128    2.1544    0.4175 H   0  0  0  0  0  0  0  0  0  0  0  0
    1.6241   -4.5150    1.6309 N   0  0  0  0  0  0  0  0  0  0  0  0
 50 13  2  0
 13 24  1  0
 24 25  2  0
 24 23  1  0
 25 26  1  0
 10  9  1  0
 10 12  1  0
  9 11  1  0
 23 22  2  0
 26 12  1  0
 26 21  2  0
 12  7  1  0
 11  8  1  0
 22 21  1  0
 22 20  1  0
 18 19  1  0
 18 17  1  0
  7  8  1  0
 19 20  1  0
 19  1  1  0
 17 16  1  0
 20  4  1  0
  1 16  1  0
  4  5  1  0
  6  5  2  0
  6 14  1  0
  5 15  1  0
 14  3  2  0
 15  2  2  0
  3  2  1  0
  1 27  1  0
  1 28  1  0
  2 29  1  0
  3 30  1  0
  4 31  1  0
  4 32  1  0
  6 33  1  0
  7 49  1  0
  7 34  1  0
  8 35  1  0
  8 36  1  0
  9 37  1  0
  9 38  1  0
 10 39  1  0
 10 40  1  0
 13 41  1  0
 16 42  1  0
 16 43  1  0
 17 44  1  0
 17 45  1  0
 18 46  1  0
 18 47  1  0
 19 48  1  6
M  CHG  1  50  -1
M  END
