
     RDKit          3D

 17 16  0  0  0  0  0  0  0  0999 V2000
    3.0427   -0.0180   -0.4453 C   0  0  0  0  0  0  0  0  0  0  0  0
    1.9412   -0.0236   -1.4953 C   0  0  0  0  0  0  0  0  0  0  0  0
   -0.0086   -0.0207   -0.6151 Sn  0  0  1  0  0  0  0  0  0  0  0  0
   -1.9666   -0.0310   -1.4761 C   0  0  0  0  0  0  0  0  0  0  0  0
   -3.0591   -0.0271   -0.4169 C   0  0  0  0  0  0  0  0  0  0  0  0
   -0.0005   -1.8324    0.9359 Cl  0  0  0  0  0  0  0  0  0  0  0  0
    2.9948    0.8671    0.1888 H   0  0  0  0  0  0  0  0  0  0  0  0
    2.9926   -0.8950    0.1997 H   0  0  0  0  0  0  0  0  0  0  0  0
    1.9928    0.8531   -2.1423 H   0  0  0  0  0  0  0  0  0  0  0  0
    1.9934   -0.9066   -2.1337 H   0  0  0  0  0  0  0  0  0  0  0  0
   -2.0270    0.8440   -2.1247 H   0  0  0  0  0  0  0  0  0  0  0  0
   -2.0212   -0.9155   -2.1122 H   0  0  0  0  0  0  0  0  0  0  0  0
   -3.0011   -0.9032    0.2285 H   0  0  0  0  0  0  0  0  0  0  0  0
   -3.0080    0.8587    0.2160 H   0  0  0  0  0  0  0  0  0  0  0  0
   -0.0038    1.8060    0.9180 Cl  0  0  0  0  0  0  0  0  0  0  0  0
    4.0215   -0.0218   -0.9278 H   0  0  0  0  0  0  0  0  0  0  0  0
   -4.0418   -0.0341   -0.8919 H   0  0  0  0  0  0  0  0  0  0  0  0
  1  2  1  0
  1  7  1  0
  1  8  1  0
  2  3  1  0
  2  9  1  0
  2 10  1  0
  3  4  1  0
  3  6  1  1
  4  5  1  0
  4 11  1  0
  4 12  1  0
  5 13  1  0
  5 14  1  0
  3 15  1  0
  1 16  1  0
  5 17  1  0
M  END
