
     RDKit          3D

 61 65  0  0  0  0  0  0  0  0999 V2000
    6.3095    4.6541    0.7937 C   0  0  0  0  0  0  0  0  0  0  0  0
    5.3281    3.7645    0.0514 C   0  0  0  0  0  0  0  0  0  0  0  0
    3.8946    3.9511    0.5021 C   0  0  0  0  0  0  0  0  0  0  0  0
    3.5656    4.8226    1.2987 O   0  0  0  0  0  0  0  0  0  0  0  0
    2.9918    3.1028   -0.0211 N   0  0  0  0  0  0  0  0  0  0  0  0
    3.2696    2.0474   -0.9926 C   0  0  0  0  0  0  0  0  0  0  0  0
    1.8817    1.6153   -1.4377 C   0  0  0  0  0  0  0  0  0  0  0  0
    1.0518    1.8227   -0.1712 C   0  0  1  0  0  0  0  0  0  0  0  0
    1.5961    3.1391    0.3792 C   0  0  0  0  0  0  0  0  0  0  0  0
   -0.3734    1.8676   -0.3472 N   0  0  0  0  0  0  0  0  0  0  0  0
   -1.1400    0.7758   -0.5308 C   0  0  0  0  0  0  0  0  0  0  0  0
   -2.4274    0.9839   -0.8067 N   0  0  0  0  0  0  0  0  0  0  0  0
   -3.1838   -0.0957   -0.9789 C   0  0  0  0  0  0  0  0  0  0  0  0
   -4.6338    0.1393   -1.3052 C   0  0  0  0  0  0  0  0  0  0  0  0
   -5.3194    0.8473   -0.2465 N   0  0  0  0  0  0  0  0  0  0  0  0
   -6.6291    1.3000   -0.6806 C   0  0  0  0  0  0  0  0  0  0  0  0
   -7.3178    2.0535    0.4402 C   0  0  0  0  0  0  0  0  0  0  0  0
   -7.4365    1.2606    1.6008 O   0  0  0  0  0  0  0  0  0  0  0  0
   -6.1677    0.8247    2.0359 C   0  0  0  0  0  0  0  0  0  0  0  0
   -5.4430    0.0435    0.9571 C   0  0  0  0  0  0  0  0  0  0  0  0
   -2.6816   -1.3794   -0.8827 C   0  0  0  0  0  0  0  0  0  0  0  0
   -1.3187   -1.4776   -0.5926 C   0  0  0  0  0  0  0  0  0  0  0  0
   -0.7330   -2.7113   -0.4909 N   0  0  0  0  0  0  0  0  0  0  0  0
    0.5753   -3.0047   -0.2639 C   0  0  0  0  0  0  0  0  0  0  0  0
    0.9733   -4.2355   -0.2468 N   0  0  0  0  0  0  0  0  0  0  0  0
    2.3179   -4.3035   -0.0057 C   0  0  0  0  0  0  0  0  0  0  0  0
    3.1040   -5.4477    0.0774 C   0  0  0  0  0  0  0  0  0  0  0  0
    4.4553   -5.2773    0.3268 C   0  0  0  0  0  0  0  0  0  0  0  0
    4.9766   -3.9934    0.4823 C   0  0  0  0  0  0  0  0  0  0  0  0
    4.2406   -2.8899    0.4056 N   0  0  0  0  0  0  0  0  0  0  0  0
    2.9583   -3.0689    0.1694 C   0  0  0  0  0  0  0  0  0  0  0  0
    1.7925   -1.7763    0.0182 S   0  0  0  0  0  0  0  0  0  0  0  0
   -0.5521   -0.4207   -0.4154 N   0  0  0  0  0  0  0  0  0  0  0  0
    6.2845    4.4724    1.8677 H   0  0  0  0  0  0  0  0  0  0  0  0
    7.3235    4.4563    0.4479 H   0  0  0  0  0  0  0  0  0  0  0  0
    6.1036    5.7105    0.6275 H   0  0  0  0  0  0  0  0  0  0  0  0
    5.3863    3.9595   -1.0244 H   0  0  0  0  0  0  0  0  0  0  0  0
    5.6086    2.7137    0.1697 H   0  0  0  0  0  0  0  0  0  0  0  0
    3.8746    2.4126   -1.8227 H   0  0  0  0  0  0  0  0  0  0  0  0
    3.8103    1.2182   -0.5255 H   0  0  0  0  0  0  0  0  0  0  0  0
    1.5103    2.2691   -2.2312 H   0  0  0  0  0  0  0  0  0  0  0  0
    1.8573    0.5898   -1.8024 H   0  0  0  0  0  0  0  0  0  0  0  0
    1.2841    1.0281    0.5411 H   0  0  0  0  0  0  0  0  0  0  0  0
    1.4898    3.2120    1.4614 H   0  0  0  0  0  0  0  0  0  0  0  0
    1.0796    3.9966   -0.0672 H   0  0  0  0  0  0  0  0  0  0  0  0
   -0.8049    2.7511   -0.5708 H   0  0  0  0  0  0  0  0  0  0  0  0
   -4.6772    0.7498   -2.2119 H   0  0  0  0  0  0  0  0  0  0  0  0
   -5.1163   -0.8225   -1.5428 H   0  0  0  0  0  0  0  0  0  0  0  0
   -6.5144    1.9674   -1.5384 H   0  0  0  0  0  0  0  0  0  0  0  0
   -7.2668    0.4594   -1.0051 H   0  0  0  0  0  0  0  0  0  0  0  0
   -6.7560    2.9722    0.6603 H   0  0  0  0  0  0  0  0  0  0  0  0
   -8.3246    2.3411    0.1341 H   0  0  0  0  0  0  0  0  0  0  0  0
   -5.5511    1.6828    2.3396 H   0  0  0  0  0  0  0  0  0  0  0  0
   -6.3194    0.1948    2.9137 H   0  0  0  0  0  0  0  0  0  0  0  0
   -5.9768   -0.9025    0.7590 H   0  0  0  0  0  0  0  0  0  0  0  0
   -4.4515   -0.2238    1.3309 H   0  0  0  0  0  0  0  0  0  0  0  0
   -3.3028   -2.2523   -1.0240 H   0  0  0  0  0  0  0  0  0  0  0  0
   -1.3211   -3.5201   -0.6378 H   0  0  0  0  0  0  0  0  0  0  0  0
    2.6707   -6.4309   -0.0514 H   0  0  0  0  0  0  0  0  0  0  0  0
    5.1140   -6.1311    0.4020 H   0  0  0  0  0  0  0  0  0  0  0  0
    6.0338   -3.8555    0.6746 H   0  0  0  0  0  0  0  0  0  0  0  0
 19 18  1  0
 19 20  1  0
 18 17  1  0
 17 16  1  0
 20 15  1  0
 15 16  1  0
 15 14  1  0
 14 13  1  0
 21 13  1  0
 21 22  2  0
 13 12  2  0
 23 22  1  0
 23 24  1  0
 22 33  1  0
 12 11  1  0
 25 24  2  0
 25 26  1  0
 24 32  1  0
 33 11  2  0
 11 10  1  0
 26 27  2  0
 26 31  1  0
 27 28  1  0
 10  8  1  0
 32 31  1  0
 31 30  2  0
 28 29  2  0
  7  8  1  0
  7  6  1  0
  8  9  1  0
 30 29  1  0
  9  5  1  0
  6  5  1  0
  5  3  1  0
  3  2  1  0
  3  4  2  0
  2  1  1  0
  1 34  1  0
  1 35  1  0
  1 36  1  0
  2 37  1  0
  2 38  1  0
  6 39  1  0
  6 40  1  0
  7 41  1  0
  7 42  1  0
  8 43  1  1
  9 44  1  0
  9 45  1  0
 10 46  1  0
 14 47  1  0
 14 48  1  0
 16 49  1  0
 16 50  1  0
 17 51  1  0
 17 52  1  0
 19 53  1  0
 19 54  1  0
 20 55  1  0
 20 56  1  0
 21 57  1  0
 23 58  1  0
 27 59  1  0
 28 60  1  0
 29 61  1  0
M  END
