
     RDKit          3D

 25 25  0  0  0  0  0  0  0  0999 V2000
    2.0038    3.0950   -2.2979 O   0  0  0  0  0  0  0  0  0  0  0  0
   -1.4736    4.3870   -0.9426 N   0  0  0  0  0  0  0  0  0  0  0  0
   -1.1255    3.0069   -1.2035 C   0  0  2  0  0  0  0  0  0  0  0  0
   -2.3472    2.1353   -0.9503 C   0  0  0  0  0  0  0  0  0  0  0  0
   -3.0265    2.0368    0.0753 O   0  0  0  0  0  0  0  0  0  0  0  0
    0.0426    2.4507   -0.3604 C   0  0  0  0  0  0  0  0  0  0  0  0
    0.8163    1.4111   -1.0909 C   0  0  0  0  0  0  0  0  0  0  0  0
    1.8143    1.8887   -2.0813 C   0  0  0  0  0  0  0  0  0  0  0  0
    0.6253    0.0993   -0.8687 C   0  0  0  0  0  0  0  0  0  0  0  0
    2.5638    0.8523   -2.7897 C   0  0  0  0  0  0  0  0  0  0  0  0
    1.3630   -0.9797   -1.5628 C   0  0  0  0  0  0  0  0  0  0  0  0
    2.3534   -0.4602   -2.5486 C   0  0  0  0  0  0  0  0  0  0  0  0
    3.0242   -1.4726   -3.1803 O   0  0  0  0  0  0  0  0  0  0  0  0
   -2.7124    1.3764   -2.0168 O   0  0  0  0  0  0  0  0  0  0  0  0
   -1.8757    4.4937   -0.0322 H   0  0  0  0  0  0  0  0  0  0  0  0
   -0.8455    2.9249   -2.2993 H   0  0  0  0  0  0  0  0  0  0  0  0
   -0.3617    2.0377    0.6024 H   0  0  0  0  0  0  0  0  0  0  0  0
    0.7399    3.2977   -0.1116 H   0  0  0  0  0  0  0  0  0  0  0  0
   -0.1184   -0.2489   -0.1308 H   0  0  0  0  0  0  0  0  0  0  0  0
    1.9015   -1.6184   -0.8063 H   0  0  0  0  0  0  0  0  0  0  0  0
    0.6341   -1.6522   -2.0982 H   0  0  0  0  0  0  0  0  0  0  0  0
    3.4551   -1.1145   -3.9722 H   0  0  0  0  0  0  0  0  0  0  0  0
    3.3032    1.2031   -3.5247 H   0  0  0  0  0  0  0  0  0  0  0  0
   -3.4950    0.8468   -1.7891 H   0  0  0  0  0  0  0  0  0  0  0  0
   -0.6640    4.9693   -1.0294 H   0  0  0  0  0  0  0  0  0  0  0  0
  1  8  2  0
  2  3  1  0
  2 25  1  0
  2 15  1  0
  3  4  1  0
  3  6  1  0
  3 16  1  6
  4  5  2  0
  4 14  1  0
  6  7  1  0
  6 17  1  0
  6 18  1  0
  7  9  2  0
  7  8  1  0
  8 10  1  0
  9 11  1  0
  9 19  1  0
 10 12  2  0
 10 23  1  0
 11 12  1  0
 11 20  1  0
 11 21  1  0
 12 13  1  0
 13 22  1  0
 14 24  1  0
M  END
