
     RDKit          3D

 16 16  0  0  0  0  0  0  0  0999 V2000
    0.5868   -0.2582   -0.4004 C   0  0  0  0  0  0  0  0  0  0  0  0
   -3.6824   -0.5715   -0.2725 N   0  0  0  0  0  0  0  0  0  0  0  0
   -2.5754    0.0804    0.0173 C   0  0  0  0  0  0  0  0  0  0  0  0
   -2.1751    0.6137    1.5299 S   0  0  0  0  0  0  0  0  0  0  0  0
   -1.7009    0.3577   -1.1938 C   0  0  0  0  0  0  0  0  0  0  0  0
   -0.3403    0.6410   -0.8464 N   0  0  0  0  0  0  0  0  0  0  0  0
    0.2321    1.8592   -0.7466 C   0  0  0  0  0  0  0  0  0  0  0  0
    1.4588    1.7923   -0.2992 N   0  0  0  0  0  0  0  0  0  0  0  0
    1.6850    0.4789   -0.0793 C   0  0  0  0  0  0  0  0  0  0  0  0
    3.1685   -0.1189    0.5135 Cl  0  0  0  0  0  0  0  0  0  0  0  0
    0.2970   -1.9216   -0.3195 Cl  0  0  0  0  0  0  0  0  0  0  0  0
   -4.3673   -0.7635    0.4416 H   0  0  0  0  0  0  0  0  0  0  0  0
   -3.8875   -0.8955   -1.2057 H   0  0  0  0  0  0  0  0  0  0  0  0
   -1.7379   -0.4770   -1.8952 H   0  0  0  0  0  0  0  0  0  0  0  0
   -2.1075    1.2268   -1.7136 H   0  0  0  0  0  0  0  0  0  0  0  0
   -0.2899    2.7610   -1.0259 H   0  0  0  0  0  0  0  0  0  0  0  0
 11  1  1  0
  2  3  1  0
  5  3  1  0
  5  6  1  0
  3  4  2  0
  1  6  1  0
  1  9  2  0
  6  7  1  0
  9 10  1  0
  9  8  1  0
  7  8  2  0
  2 12  1  0
  2 13  1  0
  5 14  1  0
  5 15  1  0
  7 16  1  0
M  END
