
     RDKit          3D

 30 31  0  0  0  0  0  0  0  0999 V2000
    0.6688   -3.2738    4.7417 C   0  0  0  0  0  0  0  0  0  0  0  0
   -0.3978   -4.0460    5.1712 C   0  0  0  0  0  0  0  0  0  0  0  0
   -1.5536   -3.4134    5.6044 C   0  0  0  0  0  0  0  0  0  0  0  0
   -1.6459   -2.0330    5.6129 C   0  0  0  0  0  0  0  0  0  0  0  0
    0.7939   -0.5696    0.5912 C   0  0  0  0  0  0  0  0  0  0  0  0
    1.9178   -1.0294   -0.0858 C   0  0  0  0  0  0  0  0  0  0  0  0
    2.9961   -1.5197    0.6361 C   0  0  0  0  0  0  0  0  0  0  0  0
    2.9500   -1.5479    2.0251 C   0  0  0  0  0  0  0  0  0  0  0  0
    1.8011   -1.1028    4.2274 C   0  0  2  0  0  0  0  0  0  0  0  0
    0.7511   -0.6020    1.9773 C   0  0  0  0  0  0  0  0  0  0  0  0
    1.8298   -1.0922    2.7126 C   0  0  0  0  0  0  0  0  0  0  0  0
    0.6083   -1.8809    4.7358 C   0  0  0  0  0  0  0  0  0  0  0  0
   -0.5645   -1.2767    5.1782 C   0  0  0  0  0  0  0  0  0  0  0  0
    1.8987    0.3185    4.7890 C   0  0  0  0  0  0  0  0  0  0  0  0
    3.1665    0.9200    4.4129 N   0  0  0  0  0  0  0  0  0  0  0  0
   -2.8982   -4.3660    6.1473 Cl  0  0  0  0  0  0  0  0  0  0  0  0
    1.5702   -3.7710    4.4029 H   0  0  0  0  0  0  0  0  0  0  0  0
   -0.3262   -5.1253    5.1704 H   0  0  0  0  0  0  0  0  0  0  0  0
   -2.5471   -1.5433    5.9563 H   0  0  0  0  0  0  0  0  0  0  0  0
   -0.6594   -0.1988    5.1964 H   0  0  0  0  0  0  0  0  0  0  0  0
    1.9496   -1.0070   -1.1675 H   0  0  0  0  0  0  0  0  0  0  0  0
   -0.1372   -0.2463    2.4862 H   0  0  0  0  0  0  0  0  0  0  0  0
    3.8760   -1.8835    0.1208 H   0  0  0  0  0  0  0  0  0  0  0  0
    3.7956   -1.9350    2.5811 H   0  0  0  0  0  0  0  0  0  0  0  0
    2.6994   -1.6276    4.5677 H   0  0  0  0  0  0  0  0  0  0  0  0
    1.0277    0.9061    4.4681 H   0  0  0  0  0  0  0  0  0  0  0  0
    1.8545    0.2647    5.8797 H   0  0  0  0  0  0  0  0  0  0  0  0
    3.2467    1.8282    4.8518 H   0  0  0  0  0  0  0  0  0  0  0  0
    3.1752    1.0985    3.4160 H   0  0  0  0  0  0  0  0  0  0  0  0
   -0.0543   -0.1870    0.0380 H   0  0  0  0  0  0  0  0  0  0  0  0
  1  2  2  0
  2  3  1  0
  3  4  2  0
  5  6  2  0
  6  7  1  0
  7  8  2  0
  5 10  1  0
  8 11  1  0
  9 11  1  0
 10 11  2  0
  1 12  1  0
  9 12  1  0
  4 13  1  0
 12 13  2  0
  9 14  1  0
 14 15  1  0
  3 16  1  0
  1 17  1  0
  2 18  1  0
  4 19  1  0
 13 20  1  0
  5 30  1  0
  6 21  1  0
 10 22  1  0
  7 23  1  0
  8 24  1  0
  9 25  1  1
 14 26  1  0
 14 27  1  0
 15 28  1  0
 15 29  1  0
M  END
