
     RDKit          3D

 59 63  0  0  0  0  0  0  0  0999 V2000
    9.0458    0.4563    0.2445 C   0  0  0  0  0  0  0  0  0  0  0  0
    7.6956    0.2803   -0.4287 C   0  0  0  0  0  0  0  0  0  0  0  0
    6.5734    0.9971    0.2997 C   0  0  0  0  0  0  0  0  0  0  0  0
    6.7882    1.6129    1.3354 O   0  0  0  0  0  0  0  0  0  0  0  0
    5.3350    0.9310   -0.2439 N   0  0  0  0  0  0  0  0  0  0  0  0
    4.9692    0.1955   -1.4378 C   0  0  0  0  0  0  0  0  0  0  0  0
    3.9218   -0.8621   -1.1211 C   0  0  0  0  0  0  0  0  0  0  0  0
    2.7705   -0.2192   -0.5076 N   0  0  0  0  0  0  0  0  0  0  0  0
    3.1490    0.4830    0.7194 C   0  0  0  0  0  0  0  0  0  0  0  0
    4.1934    1.5394    0.4109 C   0  0  0  0  0  0  0  0  0  0  0  0
    1.5873   -0.9328   -0.4807 C   0  0  0  0  0  0  0  0  0  0  0  0
    1.6364   -2.2272   -0.6381 N   0  0  0  0  0  0  0  0  0  0  0  0
    0.5246   -2.9692   -0.6430 N   0  0  0  0  0  0  0  0  0  0  0  0
   -0.6449   -2.4415   -0.4167 C   0  0  0  0  0  0  0  0  0  0  0  0
   -1.7832   -3.3854   -0.3903 C   0  0  0  0  0  0  0  0  0  0  0  0
   -2.9054   -3.1904   -1.1951 C   0  0  0  0  0  0  0  0  0  0  0  0
   -3.9467   -4.1075   -1.1818 C   0  0  0  0  0  0  0  0  0  0  0  0
   -3.8793   -5.2265   -0.3627 C   0  0  0  0  0  0  0  0  0  0  0  0
   -2.7614   -5.4303    0.4364 C   0  0  0  0  0  0  0  0  0  0  0  0
   -1.7163   -4.5186    0.4182 C   0  0  0  0  0  0  0  0  0  0  0  0
   -0.8115   -1.0342   -0.2239 C   0  0  0  0  0  0  0  0  0  0  0  0
   -2.0468   -0.4131    0.0309 C   0  0  0  0  0  0  0  0  0  0  0  0
   -2.1598    0.9544    0.0991 C   0  0  0  0  0  0  0  0  0  0  0  0
   -1.0011    1.7313   -0.1188 C   0  0  0  0  0  0  0  0  0  0  0  0
   -1.1358    3.4494   -0.1565 Cl  0  0  0  0  0  0  0  0  0  0  0  0
    0.2260    1.1581   -0.3206 C   0  0  0  0  0  0  0  0  0  0  0  0
    0.3406   -0.2407   -0.3276 C   0  0  0  0  0  0  0  0  0  0  0  0
   -3.4686    1.5829    0.3642 C   0  0  0  0  0  0  0  0  0  0  0  0
   -3.7198    2.2441    1.5713 C   0  0  0  0  0  0  0  0  0  0  0  0
   -2.7195    2.2699    2.4628 O   0  0  0  0  0  0  0  0  0  0  0  0
   -4.9616    2.8265    1.8078 C   0  0  0  0  0  0  0  0  0  0  0  0
   -5.9538    2.7470    0.8433 C   0  0  0  0  0  0  0  0  0  0  0  0
   -5.7356    2.0937   -0.3611 C   0  0  0  0  0  0  0  0  0  0  0  0
   -4.4934    1.5276   -0.5663 C   0  0  0  0  0  0  0  0  0  0  0  0
   -4.2535    0.8958   -1.7239 F   0  0  0  0  0  0  0  0  0  0  0  0
    9.0444    0.0667    1.2614 H   0  0  0  0  0  0  0  0  0  0  0  0
    9.8080   -0.0842   -0.3160 H   0  0  0  0  0  0  0  0  0  0  0  0
    9.3446    1.5030    0.2857 H   0  0  0  0  0  0  0  0  0  0  0  0
    7.7476    0.6394   -1.4600 H   0  0  0  0  0  0  0  0  0  0  0  0
    7.4555   -0.7846   -0.4984 H   0  0  0  0  0  0  0  0  0  0  0  0
    4.5620    0.8936   -2.1759 H   0  0  0  0  0  0  0  0  0  0  0  0
    5.8336   -0.2828   -1.8873 H   0  0  0  0  0  0  0  0  0  0  0  0
    3.6151   -1.3464   -2.0473 H   0  0  0  0  0  0  0  0  0  0  0  0
    4.3570   -1.6309   -0.4697 H   0  0  0  0  0  0  0  0  0  0  0  0
    2.2826    0.9522    1.1808 H   0  0  0  0  0  0  0  0  0  0  0  0
    3.5585   -0.2297    1.4482 H   0  0  0  0  0  0  0  0  0  0  0  0
    4.5107    2.0233    1.3301 H   0  0  0  0  0  0  0  0  0  0  0  0
    3.7634    2.3044   -0.2444 H   0  0  0  0  0  0  0  0  0  0  0  0
   -2.9603   -2.3293   -1.8498 H   0  0  0  0  0  0  0  0  0  0  0  0
   -4.8084   -3.9485   -1.8168 H   0  0  0  0  0  0  0  0  0  0  0  0
   -4.6940   -5.9384   -0.3483 H   0  0  0  0  0  0  0  0  0  0  0  0
   -2.7029   -6.3017    1.0753 H   0  0  0  0  0  0  0  0  0  0  0  0
   -0.8473   -4.6798    1.0432 H   0  0  0  0  0  0  0  0  0  0  0  0
   -2.9285   -1.0180    0.1911 H   0  0  0  0  0  0  0  0  0  0  0  0
    1.0920    1.7786   -0.5018 H   0  0  0  0  0  0  0  0  0  0  0  0
   -2.9856    2.7507    3.2552 H   0  0  0  0  0  0  0  0  0  0  0  0
   -5.1532    3.3368    2.7441 H   0  0  0  0  0  0  0  0  0  0  0  0
   -6.9162    3.2021    1.0349 H   0  0  0  0  0  0  0  0  0  0  0  0
   -6.5044    2.0274   -1.1181 H   0  0  0  0  0  0  0  0  0  0  0  0
  4  3  2  0
  1  2  1  0
  3  2  1  0
  3  5  1  0
  6  5  1  0
  6  7  1  0
  5 10  1  0
  7  8  1  0
 10  9  1  0
 25 24  1  0
 35 34  1  0
  8  9  1  0
  8 11  1  0
 26 24  1  0
 26 27  2  0
 24 23  2  0
 34 33  2  0
 34 28  1  0
 11 27  1  0
 11 12  2  0
 33 32  1  0
 27 21  1  0
 23 28  1  0
 23 22  1  0
 12 13  1  0
 28 29  2  0
 21 22  2  0
 21 14  1  0
 32 31  2  0
 13 14  2  0
 14 15  1  0
 29 31  1  0
 29 30  1  0
 20 15  1  0
 20 19  2  0
 15 16  2  0
 19 18  1  0
 16 17  1  0
 18 17  2  0
  1 36  1  0
  1 37  1  0
  1 38  1  0
  2 39  1  0
  2 40  1  0
  6 41  1  0
  6 42  1  0
  7 43  1  0
  7 44  1  0
  9 45  1  0
  9 46  1  0
 10 47  1  0
 10 48  1  0
 16 49  1  0
 17 50  1  0
 18 51  1  0
 19 52  1  0
 20 53  1  0
 22 54  1  0
 26 55  1  0
 30 56  1  0
 31 57  1  0
 32 58  1  0
 33 59  1  0
M  END
