
     RDKit          3D

 75 78  0  0  0  0  0  0  0  0999 V2000
    7.8414   -2.5015   -2.4566 C   0  0  0  0  0  0  0  0  0  0  0  0
    7.0803   -2.0405   -1.2380 C   0  0  0  0  0  0  0  0  0  0  0  0
    7.3703   -2.3878   -0.1054 O   0  0  0  0  0  0  0  0  0  0  0  0
    6.0350   -1.2270   -1.5190 N   0  0  0  0  0  0  0  0  0  0  0  0
    5.2489   -0.5469   -0.5229 C   0  0  2  0  0  0  0  0  0  0  0  0
    3.7561   -0.7235   -0.8219 C   0  0  1  0  0  0  0  0  0  0  0  0
    3.3768   -2.0685   -0.7577 O   0  0  0  0  0  0  0  0  0  0  0  0
    5.5840    0.9410   -0.4609 C   0  0  2  0  0  0  0  0  0  0  0  0
    6.9030    1.0898   -0.1120 O   0  0  0  0  0  0  0  0  0  0  0  0
    7.4316    2.3915   -0.3247 C   0  0  0  0  0  0  0  0  0  0  0  0
    8.8882    2.3634   -0.0036 C   0  0  0  0  0  0  0  0  0  0  0  0
    9.8356    2.7794   -0.8338 C   0  0  0  0  0  0  0  0  0  0  0  0
    4.7812    1.5478    0.5178 O   0  0  0  0  0  0  0  0  0  0  0  0
    3.4068    1.5305    0.2030 C   0  0  2  0  0  0  0  0  0  0  0  0
    2.6890    2.3653    1.2431 C   0  0  0  0  0  0  0  0  0  0  0  0
    3.1770    3.6829    1.1715 O   0  0  0  0  0  0  0  0  0  0  0  0
    2.9100    0.0764    0.1605 C   0  0  1  0  0  0  0  0  0  0  0  0
    1.5678    0.0456   -0.2872 O   0  0  0  0  0  0  0  0  0  0  0  0
    0.5993   -0.2817    0.6424 C   0  0  1  0  0  0  0  0  0  0  0  0
   -0.7460    0.2240    0.1132 C   0  0  2  0  0  0  0  0  0  0  0  0
   -0.7623    1.6260    0.0206 O   0  0  0  0  0  0  0  0  0  0  0  0
    0.5799   -1.6686    0.8087 O   0  0  0  0  0  0  0  0  0  0  0  0
   -0.3630   -2.0762    1.7795 C   0  0  2  0  0  0  0  0  0  0  0  0
   -0.2043   -3.5612    2.0161 C   0  0  0  0  0  0  0  0  0  0  0  0
    1.0286   -3.7944    2.6526 O   0  0  0  0  0  0  0  0  0  0  0  0
   -1.7778   -1.7122    1.3267 C   0  0  2  0  0  0  0  0  0  0  0  0
   -2.1266   -2.3877    0.1410 O   0  0  0  0  0  0  0  0  0  0  0  0
   -1.8429   -0.2074    1.0786 C   0  0  2  0  0  0  0  0  0  0  0  0
   -3.1199    0.1174    0.5889 O   0  0  0  0  0  0  0  0  0  0  0  0
   -3.7048    1.2804    1.1116 C   0  0  0  0  0  0  0  0  0  0  0  0
   -5.1391    1.2629    0.7141 C   0  0  0  0  0  0  0  0  0  0  0  0
   -5.8339    0.2944    0.0483 C   0  0  0  0  0  0  0  0  0  0  0  0
   -5.9876    2.2842    0.9777 N   0  0  0  0  0  0  0  0  0  0  0  0
   -7.1535    2.0031    0.5202 N   0  0  0  0  0  0  0  0  0  0  0  0
   -7.0820    0.8069   -0.0458 N   0  0  0  0  0  0  0  0  0  0  0  0
   -8.1986    0.2235   -0.6472 C   0  0  0  0  0  0  0  0  0  0  0  0
   -9.3811    0.8482   -0.7241 N   0  0  0  0  0  0  0  0  0  0  0  0
   -8.1250   -0.9666   -1.1655 N   0  0  0  0  0  0  0  0  0  0  0  0
   -9.3843   -1.1316   -1.6264 N   0  0  0  0  0  0  0  0  0  0  0  0
  -10.1235   -0.0467   -1.3592 C   0  0  0  0  0  0  0  0  0  0  0  0
  -11.4061    0.1211   -1.7425 N   0  0  0  0  0  0  0  0  0  0  0  0
    8.6532   -3.1643   -2.1699 H   0  0  0  0  0  0  0  0  0  0  0  0
    7.1828   -3.0300   -3.1470 H   0  0  0  0  0  0  0  0  0  0  0  0
    8.2579   -1.6497   -2.9957 H   0  0  0  0  0  0  0  0  0  0  0  0
    5.9170   -0.9352   -2.4782 H   0  0  0  0  0  0  0  0  0  0  0  0
    5.4783   -0.9901    0.4488 H   0  0  0  0  0  0  0  0  0  0  0  0
    3.5647   -0.3076   -1.8262 H   0  0  0  0  0  0  0  0  0  0  0  0
    3.8897   -2.5495   -1.4163 H   0  0  0  0  0  0  0  0  0  0  0  0
    5.3776    1.4106   -1.4431 H   0  0  0  0  0  0  0  0  0  0  0  0
    7.2705    2.7061   -1.3633 H   0  0  0  0  0  0  0  0  0  0  0  0
    6.9260    3.1204    0.3191 H   0  0  0  0  0  0  0  0  0  0  0  0
    9.1545    2.0065    0.9868 H   0  0  0  0  0  0  0  0  0  0  0  0
    9.6033    3.1422   -1.8284 H   0  0  0  0  0  0  0  0  0  0  0  0
   10.8791    2.7786   -0.5480 H   0  0  0  0  0  0  0  0  0  0  0  0
    3.2367    1.9780   -0.7901 H   0  0  0  0  0  0  0  0  0  0  0  0
    1.6127    2.3274    1.0458 H   0  0  0  0  0  0  0  0  0  0  0  0
    2.8537    1.9223    2.2355 H   0  0  0  0  0  0  0  0  0  0  0  0
    2.6835    4.2157    1.8013 H   0  0  0  0  0  0  0  0  0  0  0  0
    3.0040   -0.3666    1.1613 H   0  0  0  0  0  0  0  0  0  0  0  0
    0.8063    0.2007    1.6178 H   0  0  0  0  0  0  0  0  0  0  0  0
   -0.9267   -0.2419   -0.8659 H   0  0  0  0  0  0  0  0  0  0  0  0
   -0.2195    1.8869   -0.7301 H   0  0  0  0  0  0  0  0  0  0  0  0
   -0.1720   -1.5543    2.7326 H   0  0  0  0  0  0  0  0  0  0  0  0
   -1.0477   -3.8952    2.6359 H   0  0  0  0  0  0  0  0  0  0  0  0
   -0.2750   -4.0946    1.0609 H   0  0  0  0  0  0  0  0  0  0  0  0
    1.1796   -4.7433    2.6701 H   0  0  0  0  0  0  0  0  0  0  0  0
   -2.4728   -1.9516    2.1410 H   0  0  0  0  0  0  0  0  0  0  0  0
   -2.6635   -3.1514    0.3649 H   0  0  0  0  0  0  0  0  0  0  0  0
   -1.6642    0.2889    2.0450 H   0  0  0  0  0  0  0  0  0  0  0  0
   -3.6245    1.3108    2.2066 H   0  0  0  0  0  0  0  0  0  0  0  0
   -3.2271    2.1912    0.7347 H   0  0  0  0  0  0  0  0  0  0  0  0
   -5.5618   -0.6669   -0.3494 H   0  0  0  0  0  0  0  0  0  0  0  0
   -9.6478   -1.9782   -2.1062 H   0  0  0  0  0  0  0  0  0  0  0  0
  -11.9506   -0.7063   -1.9248 H   0  0  0  0  0  0  0  0  0  0  0  0
  -11.9128    0.8423   -1.2557 H   0  0  0  0  0  0  0  0  0  0  0  0
 41 40  1  0
 40 39  1  0
 40 37  2  0
 39 38  1  0
 37 36  1  0
 38 36  2  0
 36 35  1  0
 35 32  1  0
 35 34  1  0
  1  2  1  0
 32 31  2  0
 34 33  2  0
  7  6  1  0
 27 26  1  0
  4  2  1  0
  4  5  1  0
  2  3  2  0
  6  5  1  0
  6 17  1  0
 31 33  1  0
 31 30  1  0
 29 30  1  0
 29 28  1  0
 18 17  1  0
 18 19  1  0
 20 21  1  0
 20 28  1  0
 20 19  1  0
  5  8  1  0
 22 19  1  0
 22 23  1  0
 26 28  1  0
 26 23  1  0
 17 14  1  0
  8  9  1  0
  8 13  1  0
 24 23  1  0
 24 25  1  0
  9 10  1  0
 14 13  1  0
 14 15  1  0
 10 11  1  0
 15 16  1  0
 11 12  2  0
  1 42  1  0
  1 43  1  0
  1 44  1  0
  4 45  1  0
  5 46  1  1
  6 47  1  6
  7 48  1  0
  8 49  1  6
 10 50  1  0
 10 51  1  0
 11 52  1  0
 12 53  1  0
 12 54  1  0
 14 55  1  6
 15 56  1  0
 15 57  1  0
 16 58  1  0
 17 59  1  1
 19 60  1  1
 20 61  1  6
 21 62  1  0
 23 63  1  1
 24 64  1  0
 24 65  1  0
 25 66  1  0
 26 67  1  1
 27 68  1  0
 28 69  1  1
 30 70  1  0
 30 71  1  0
 32 72  1  0
 39 73  1  0
 41 74  1  0
 41 75  1  0
M  END
