
     RDKit          3D

 45 48  0  0  0  0  0  0  0  0999 V2000
   -0.0223    0.0093    0.0151 P   0  0  1  0  0  0  0  0  0  0  0  0
    1.2263    1.2535   -0.3247 C   0  0  0  0  0  0  0  0  0  0  0  0
    2.4144    1.2229    0.4084 C   0  0  0  0  0  0  0  0  0  0  0  0
    3.3841    2.1844    0.1805 C   0  0  0  0  0  0  0  0  0  0  0  0
    3.1754    3.1681   -0.7789 C   0  0  0  0  0  0  0  0  0  0  0  0
    1.9974    3.1929   -1.5118 C   0  0  0  0  0  0  0  0  0  0  0  0
    1.0180    2.2363   -1.2887 C   0  0  0  0  0  0  0  0  0  0  0  0
   -1.2486   -0.0195   -1.2956 C   0  0  0  0  0  0  0  0  0  0  0  0
   -1.2469   -1.0245   -2.2593 C   0  0  0  0  0  0  0  0  0  0  0  0
   -2.1924   -0.9998   -3.2740 C   0  0  0  0  0  0  0  0  0  0  0  0
   -3.1310    0.0207   -3.3275 C   0  0  0  0  0  0  0  0  0  0  0  0
   -3.1339    1.0216   -2.3633 C   0  0  0  0  0  0  0  0  0  0  0  0
   -2.1973    1.0041   -1.3435 C   0  0  0  0  0  0  0  0  0  0  0  0
    0.8127   -1.5775    0.1181 C   0  0  0  0  0  0  0  0  0  0  0  0
    0.4940   -2.4968    1.1141 C   0  0  0  0  0  0  0  0  0  0  0  0
    1.1364   -3.7266    1.1393 C   0  0  0  0  0  0  0  0  0  0  0  0
    2.0819   -4.0378    0.1741 C   0  0  0  0  0  0  0  0  0  0  0  0
    2.4045   -3.1177   -0.8160 C   0  0  0  0  0  0  0  0  0  0  0  0
    1.7767   -1.8842   -0.8448 C   0  0  0  0  0  0  0  0  0  0  0  0
   -0.3405    1.2690    2.4760 C   0  0  0  0  0  0  0  0  0  0  0  0
   -1.0110    1.5011    3.6678 C   0  0  0  0  0  0  0  0  0  0  0  0
   -2.2021    0.8422    3.9375 C   0  0  0  0  0  0  0  0  0  0  0  0
   -2.7335   -0.0508    3.0148 C   0  0  0  0  0  0  0  0  0  0  0  0
   -2.0741   -0.2874    1.8203 C   0  0  0  0  0  0  0  0  0  0  0  0
   -0.8723    0.3715    1.5536 C   0  0  0  0  0  0  0  0  0  0  0  0
    2.5898    0.4537    1.1507 H   0  0  0  0  0  0  0  0  0  0  0  0
    4.3045    2.1617    0.7477 H   0  0  0  0  0  0  0  0  0  0  0  0
    3.9383    3.9136   -0.9596 H   0  0  0  0  0  0  0  0  0  0  0  0
    1.8398    3.9534   -2.2641 H   0  0  0  0  0  0  0  0  0  0  0  0
    0.1100    2.2573   -1.8762 H   0  0  0  0  0  0  0  0  0  0  0  0
   -0.5257   -1.8300   -2.2266 H   0  0  0  0  0  0  0  0  0  0  0  0
   -2.1942   -1.7825   -4.0199 H   0  0  0  0  0  0  0  0  0  0  0  0
   -3.8667    0.0348   -4.1203 H   0  0  0  0  0  0  0  0  0  0  0  0
   -3.8685    1.8140   -2.4014 H   0  0  0  0  0  0  0  0  0  0  0  0
   -2.2136    1.7840   -0.5921 H   0  0  0  0  0  0  0  0  0  0  0  0
   -0.2418   -2.2671    1.8734 H   0  0  0  0  0  0  0  0  0  0  0  0
    0.8931   -4.4409    1.9141 H   0  0  0  0  0  0  0  0  0  0  0  0
    2.5771   -4.9996    0.1956 H   0  0  0  0  0  0  0  0  0  0  0  0
    3.1474   -3.3572   -1.5644 H   0  0  0  0  0  0  0  0  0  0  0  0
    2.0437   -1.1702   -1.6143 H   0  0  0  0  0  0  0  0  0  0  0  0
   -0.6005    2.2011    4.3825 H   0  0  0  0  0  0  0  0  0  0  0  0
   -2.7213    1.0274    4.8684 H   0  0  0  0  0  0  0  0  0  0  0  0
   -3.6646   -0.5599    3.2227 H   0  0  0  0  0  0  0  0  0  0  0  0
   -2.5019   -0.9788    1.1046 H   0  0  0  0  0  0  0  0  0  0  0  0
    0.5839    1.7942    2.2764 H   0  0  0  0  0  0  0  0  0  0  0  0
  1  2  1  6
  1  8  1  0
  1 14  1  0
  1 25  1  0
  2  3  2  0
  2  7  1  0
  3  4  1  0
  3 26  1  0
  4  5  2  0
  4 27  1  0
  5  6  1  0
  5 28  1  0
  6  7  2  0
  6 29  1  0
  7 30  1  0
  8  9  2  0
  8 13  1  0
  9 10  1  0
  9 31  1  0
 10 11  2  0
 10 32  1  0
 11 12  1  0
 11 33  1  0
 12 13  2  0
 12 34  1  0
 13 35  1  0
 14 15  2  0
 14 19  1  0
 15 16  1  0
 15 36  1  0
 16 17  2  0
 16 37  1  0
 17 18  1  0
 17 38  1  0
 18 19  2  0
 18 39  1  0
 19 40  1  0
 20 21  2  0
 20 25  1  0
 20 45  1  0
 21 22  1  0
 21 41  1  0
 22 23  2  0
 22 42  1  0
 23 24  1  0
 23 43  1  0
 24 25  2  0
 24 44  1  0
M  CHG  1   1   1
M  END
