
     RDKit          3D

 32 31  0  0  0  0  0  0  0  0999 V2000
    6.2961    0.4238    1.0545 O   0  0  0  0  0  0  0  0  0  0  0  0
    5.2014    0.5758   -0.1102 P   0  0  1  0  0  0  0  0  0  0  0  0
    4.3641    1.9134    0.1956 O   0  0  0  0  0  0  0  0  0  0  0  0
    5.7294    0.6226   -1.4911 O   0  0  0  0  0  0  0  0  0  0  0  0
    4.1016   -0.7986    0.3089 C   0  0  0  0  0  0  0  0  0  0  0  0
    2.7852   -0.6722   -0.4310 C   0  0  0  0  0  0  0  0  0  0  0  0
    2.7531   -0.5070   -1.6405 O   0  0  0  0  0  0  0  0  0  0  0  0
    1.6951   -0.7617    0.3428 N   0  0  0  0  0  0  0  0  0  0  0  0
    0.3398   -0.6795   -0.1525 C   0  0  0  0  0  0  0  0  0  0  0  0
   -0.5360   -1.7180    0.5447 C   0  0  0  0  0  0  0  0  0  0  0  0
   -1.9045   -1.6663    0.0894 N   0  0  0  0  0  0  0  0  0  0  0  0
   -2.8008   -0.7911    0.5665 C   0  0  0  0  0  0  0  0  0  0  0  0
   -2.5398    0.0388    1.4231 O   0  0  0  0  0  0  0  0  0  0  0  0
   -4.1920   -0.9226   -0.0159 C   0  0  0  0  0  0  0  0  0  0  0  0
   -4.8994    0.7014   -0.3784 P   0  0  1  0  0  0  0  0  0  0  0  0
   -6.2840    0.2423   -1.0532 O   0  0  0  0  0  0  0  0  0  0  0  0
   -5.2792    1.4164    1.0048 O   0  0  0  0  0  0  0  0  0  0  0  0
   -4.0422    1.5960   -1.1890 O   0  0  0  0  0  0  0  0  0  0  0  0
    7.0924    0.9555    0.9166 H   0  0  0  0  0  0  0  0  0  0  0  0
    4.0404    2.0083    1.1010 H   0  0  0  0  0  0  0  0  0  0  0  0
    4.5887   -1.7255   -0.0045 H   0  0  0  0  0  0  0  0  0  0  0  0
    3.9766   -0.8505    1.3917 H   0  0  0  0  0  0  0  0  0  0  0  0
    1.8182   -0.8513    1.3390 H   0  0  0  0  0  0  0  0  0  0  0  0
   -0.0641    0.3232    0.0088 H   0  0  0  0  0  0  0  0  0  0  0  0
    0.3463   -0.8644   -1.2252 H   0  0  0  0  0  0  0  0  0  0  0  0
   -0.1540   -2.7172    0.3385 H   0  0  0  0  0  0  0  0  0  0  0  0
   -0.5071   -1.5751    1.6265 H   0  0  0  0  0  0  0  0  0  0  0  0
   -2.1814   -2.3070   -0.6357 H   0  0  0  0  0  0  0  0  0  0  0  0
   -4.1991   -1.5063   -0.9380 H   0  0  0  0  0  0  0  0  0  0  0  0
   -4.8260   -1.4545    0.6993 H   0  0  0  0  0  0  0  0  0  0  0  0
   -6.7974    0.9679   -1.4348 H   0  0  0  0  0  0  0  0  0  0  0  0
   -5.8421    0.9041    1.5997 H   0  0  0  0  0  0  0  0  0  0  0  0
  2  1  1  1
  1 19  1  0
  2  3  1  0
  2  4  2  0
  2  5  1  0
  3 20  1  0
  5  6  1  0
  5 21  1  0
  5 22  1  0
  6  7  2  0
  6  8  1  0
  8  9  1  0
  8 23  1  0
  9 10  1  0
  9 24  1  0
  9 25  1  0
 10 11  1  0
 10 26  1  0
 10 27  1  0
 11 12  1  0
 11 28  1  0
 12 13  2  0
 12 14  1  0
 14 15  1  0
 14 29  1  0
 14 30  1  0
 15 16  1  6
 15 17  1  0
 15 18  2  0
 16 31  1  0
 17 32  1  0
M  END
