
     RDKit          3D

 64 66  0  0  0  0  0  0  0  0999 V2000
   -1.2768    1.8763   -0.1980 N   0  0  0  0  0  0  0  0  0  0  0  0
   -6.6942    0.3185    1.2509 C   0  0  0  0  0  0  0  0  0  0  0  0
   -5.5141    1.0409    1.1918 C   0  0  0  0  0  0  0  0  0  0  0  0
   -4.9497    1.3870   -0.0324 C   0  0  0  0  0  0  0  0  0  0  0  0
   -3.6607    2.1463   -0.0881 C   0  0  0  0  0  0  0  0  0  0  0  0
   -2.4583    1.2147   -0.0781 C   0  0  0  0  0  0  0  0  0  0  0  0
    0.3376    0.0102   -0.1538 C   0  0  0  0  0  0  0  0  0  0  0  0
    4.1020    0.0135   -0.3314 C   0  0  0  0  0  0  0  0  0  0  0  0
    5.9879   -0.8088   -1.5993 C   0  0  0  0  0  0  0  0  0  0  0  0
    7.1880   -3.9900   -1.2375 C   0  0  0  0  0  0  0  0  0  0  0  0
    6.0770   -0.8102    0.7784 C   0  0  0  0  0  0  0  0  0  0  0  0
    4.7954   -0.2622    0.8364 C   0  0  0  0  0  0  0  0  0  0  0  0
    2.3804    1.8873   -0.3377 C   0  0  0  0  0  0  0  0  0  0  0  0
    3.4663    2.9191   -0.4327 C   0  0  1  0  0  0  0  0  0  0  0  0
   -6.7694    0.2751   -1.1662 C   0  0  0  0  0  0  0  0  0  0  0  0
    8.0703   -3.2362   -0.2498 C   0  0  1  0  0  0  0  0  0  0  0  0
    9.5046   -3.7513   -0.3013 C   0  0  0  0  0  0  0  0  0  0  0  0
    6.7018   -1.0973   -0.4422 C   0  0  0  0  0  0  0  0  0  0  0  0
    6.7594   -1.0711    2.0054 C   0  0  0  0  0  0  0  0  0  0  0  0
    7.3043   -1.2808    2.9993 N   0  0  0  0  0  0  0  0  0  0  0  0
    4.7142   -0.2654   -1.5503 C   0  0  0  0  0  0  0  0  0  0  0  0
    2.7100    0.5295   -0.2819 C   0  0  0  0  0  0  0  0  0  0  0  0
    1.0579    2.2941   -0.3044 C   0  0  0  0  0  0  0  0  0  0  0  0
    4.1852    2.7840   -1.5556 F   0  0  0  0  0  0  0  0  0  0  0  0
    2.9899    4.1673   -0.4307 F   0  0  0  0  0  0  0  0  0  0  0  0
    4.3263    2.8331    0.5904 F   0  0  0  0  0  0  0  0  0  0  0  0
    1.6669   -0.3810   -0.1877 C   0  0  0  0  0  0  0  0  0  0  0  0
    0.0194    1.3648   -0.2155 C   0  0  0  0  0  0  0  0  0  0  0  0
   -2.5605    0.0102    0.0302 O   0  0  0  0  0  0  0  0  0  0  0  0
   -5.5885    0.9981   -1.2057 C   0  0  0  0  0  0  0  0  0  0  0  0
   -7.3100   -0.0623    0.0665 C   0  0  0  0  0  0  0  0  0  0  0  0
   -8.8003   -1.0186    0.1289 S   0  0  1  0  0  0  0  0  0  0  0  0
   -9.4767   -0.7483    1.3976 O   0  0  0  0  0  0  0  0  0  0  0  0
   -9.5431   -0.8016   -1.1126 O   0  0  0  0  0  0  0  0  0  0  0  0
   -8.2138   -2.7113    0.1493 C   0  0  0  0  0  0  0  0  0  0  0  0
   -9.3762   -3.6868    0.1897 C   0  0  0  0  0  0  0  0  0  0  0  0
   -1.3402    2.8806   -0.2800 H   0  0  0  0  0  0  0  0  0  0  0  0
   -7.1231    0.0628    2.2104 H   0  0  0  0  0  0  0  0  0  0  0  0
   -5.0325    1.3422    2.1134 H   0  0  0  0  0  0  0  0  0  0  0  0
   -3.6188    2.7696   -0.9855 H   0  0  0  0  0  0  0  0  0  0  0  0
   -3.5770    2.8290    0.7623 H   0  0  0  0  0  0  0  0  0  0  0  0
   -0.4289   -0.7425   -0.0845 H   0  0  0  0  0  0  0  0  0  0  0  0
    6.4391   -1.0188   -2.5608 H   0  0  0  0  0  0  0  0  0  0  0  0
    8.7349   -1.2339    0.2011 H   0  0  0  0  0  0  0  0  0  0  0  0
    8.4811   -1.5347   -1.5055 H   0  0  0  0  0  0  0  0  0  0  0  0
    6.1371   -3.7135   -1.1469 H   0  0  0  0  0  0  0  0  0  0  0  0
    7.4962   -3.7939   -2.2676 H   0  0  0  0  0  0  0  0  0  0  0  0
    7.2576   -5.0659   -1.0707 H   0  0  0  0  0  0  0  0  0  0  0  0
    4.3449   -0.0566    1.7985 H   0  0  0  0  0  0  0  0  0  0  0  0
   -7.2561   -0.0146   -2.0878 H   0  0  0  0  0  0  0  0  0  0  0  0
    7.6825   -3.4131    0.7594 H   0  0  0  0  0  0  0  0  0  0  0  0
   10.1422   -3.2367    0.4197 H   0  0  0  0  0  0  0  0  0  0  0  0
    9.5471   -4.8183   -0.0784 H   0  0  0  0  0  0  0  0  0  0  0  0
    9.9351   -3.6022   -1.2943 H   0  0  0  0  0  0  0  0  0  0  0  0
    4.1873   -0.0653   -2.4743 H   0  0  0  0  0  0  0  0  0  0  0  0
    0.8097    3.3467   -0.3454 H   0  0  0  0  0  0  0  0  0  0  0  0
    1.8951   -1.4381   -0.1437 H   0  0  0  0  0  0  0  0  0  0  0  0
   -5.1642    1.2651   -2.1653 H   0  0  0  0  0  0  0  0  0  0  0  0
   -7.6025   -2.8409   -0.7445 H   0  0  0  0  0  0  0  0  0  0  0  0
   -7.5673   -2.8082    1.0223 H   0  0  0  0  0  0  0  0  0  0  0  0
   -8.9807   -4.7011    0.1989 H   0  0  0  0  0  0  0  0  0  0  0  0
   -9.9812   -3.5580    1.0854 H   0  0  0  0  0  0  0  0  0  0  0  0
  -10.0160   -3.5872   -0.6852 H   0  0  0  0  0  0  0  0  0  0  0  0
    8.0638   -1.7208   -0.5125 C   0  0  0  0  0  0  0  0  0  0  0  0
 20 19  3  0
 14 24  1  6
 19 11  1  0
 26 14  1  0
 34 32  2  0
 14 25  1  0
 14 13  1  0
 36 35  1  0
 11 12  2  0
 11 18  1  0
 64 18  1  0
 64 16  1  0
 12  8  1  0
 32 35  1  1
 18  9  2  0
 32 33  2  0
 32 31  1  0
 10 16  1  0
 13 23  2  0
 13 22  1  0
  8 22  1  0
  8 21  2  0
 16 17  1  0
  9 21  1  0
 15 31  1  0
 15 30  2  0
 23 28  1  0
 22 27  2  0
 31  2  2  0
 30  4  1  0
 28  1  1  0
 28  7  2  0
 27  7  1  0
  2  3  1  0
  1  6  1  0
  4  3  2  0
  4  5  1  0
  6 29  2  0
  6  5  1  0
  1 37  1  0
  2 38  1  0
  3 39  1  0
  5 40  1  0
  5 41  1  0
  7 42  1  0
  9 43  1  0
 64 44  1  0
 64 45  1  0
 10 46  1  0
 10 47  1  0
 10 48  1  0
 12 49  1  0
 15 50  1  0
 16 51  1  1
 17 52  1  0
 17 53  1  0
 17 54  1  0
 21 55  1  0
 23 56  1  0
 27 57  1  0
 30 58  1  0
 35 59  1  0
 35 60  1  0
 36 61  1  0
 36 62  1  0
 36 63  1  0
M  END
