
     RDKit          3D

 64 67  0  0  0  0  0  0  0  0999 V2000
    9.9420   -2.5158    0.5006 C   0  0  0  0  0  0  0  0  0  0  0  0
   -0.0340    1.2017    0.0815 C   0  0  0  0  0  0  0  0  0  0  0  0
   -0.1366    2.6037   -0.0413 C   0  0  0  0  0  0  0  0  0  0  0  0
    0.9762    4.6858   -0.2269 C   0  0  0  0  0  0  0  0  0  0  0  0
   -1.3995    3.1816   -0.0861 C   0  0  0  0  0  0  0  0  0  0  0  0
   -2.5313    2.3838   -0.0166 C   0  0  0  0  0  0  0  0  0  0  0  0
   -2.4506    0.9962    0.0902 C   0  0  0  0  0  0  0  0  0  0  0  0
   -1.1815    0.4217    0.1415 C   0  0  0  0  0  0  0  0  0  0  0  0
   -3.6581    0.1570    0.1114 C   0  0  0  0  0  0  0  0  0  0  0  0
   -3.6022   -3.2246   -1.8987 C   0  0  0  0  0  0  0  0  0  0  0  0
    8.0375   -1.1443    0.1545 C   0  0  0  0  0  0  0  0  0  0  0  0
   -3.4627   -4.0289    0.4910 C   0  0  0  0  0  0  0  0  0  0  0  0
   -5.8032   -1.5967    0.4700 C   0  0  0  0  0  0  0  0  0  0  0  0
   -5.8635   -0.2146    1.0822 C   0  0  2  0  0  0  0  0  0  0  0  0
   -7.2847    0.2937    1.2679 C   0  0  0  0  0  0  0  0  0  0  0  0
   -7.8645    0.8369   -0.0007 C   0  0  0  0  0  0  0  0  0  0  0  0
   -7.1392    1.1362   -1.0739 C   0  0  0  0  0  0  0  0  0  0  0  0
   -5.6517    0.9785   -1.1431 C   0  0  0  0  0  0  0  0  0  0  0  0
   -5.0289    0.7479    0.2430 C   0  0  2  0  0  0  0  0  0  0  0  0
    6.6469   -1.0336    0.2410 C   0  0  0  0  0  0  0  0  0  0  0  0
    8.8064   -0.0904   -0.3281 C   0  0  0  0  0  0  0  0  0  0  0  0
    8.1627    1.0777   -0.7220 C   0  0  0  0  0  0  0  0  0  0  0  0
    6.7916    1.2069   -0.6438 C   0  0  0  0  0  0  0  0  0  0  0  0
    6.0236    0.1418   -0.1580 C   0  0  0  0  0  0  0  0  0  0  0  0
    3.6575   -0.4997    0.2743 C   0  0  0  0  0  0  0  0  0  0  0  0
    2.3468    0.1053    0.1920 C   0  0  0  0  0  0  0  0  0  0  0  0
    1.2501    0.6035    0.1415 C   0  0  0  0  0  0  0  0  0  0  0  0
    4.6426    0.3496   -0.1069 N   0  0  0  0  0  0  0  0  0  0  0  0
   -3.5013   -1.1016   -0.0268 N   0  0  0  0  0  0  0  0  0  0  0  0
   -4.5901   -1.9164   -0.0688 N   0  0  0  0  0  0  0  0  0  0  0  0
    8.5433   -2.3217    0.5666 O   0  0  0  0  0  0  0  0  0  0  0  0
    3.8121   -1.6466    0.6525 O   0  0  0  0  0  0  0  0  0  0  0  0
    1.0130    3.2733   -0.1014 O   0  0  0  0  0  0  0  0  0  0  0  0
   -6.7307   -2.3865    0.4927 O   0  0  0  0  0  0  0  0  0  0  0  0
   10.3148   -2.4479   -0.5246 H   0  0  0  0  0  0  0  0  0  0  0  0
   10.4843   -1.7977    1.1211 H   0  0  0  0  0  0  0  0  0  0  0  0
   10.1331   -3.5175    0.8771 H   0  0  0  0  0  0  0  0  0  0  0  0
    0.4704    4.9955   -1.1439 H   0  0  0  0  0  0  0  0  0  0  0  0
    0.4848    5.1536    0.6290 H   0  0  0  0  0  0  0  0  0  0  0  0
    2.0108    5.0147   -0.2645 H   0  0  0  0  0  0  0  0  0  0  0  0
   -1.5219    4.2516   -0.1757 H   0  0  0  0  0  0  0  0  0  0  0  0
   -3.4928    2.8775   -0.0586 H   0  0  0  0  0  0  0  0  0  0  0  0
   -1.0803   -0.6515    0.2306 H   0  0  0  0  0  0  0  0  0  0  0  0
   -5.2481   -3.7667   -0.6568 H   0  0  0  0  0  0  0  0  0  0  0  0
   -2.6053   -2.7900   -1.8294 H   0  0  0  0  0  0  0  0  0  0  0  0
   -3.5002   -4.2373   -2.2893 H   0  0  0  0  0  0  0  0  0  0  0  0
   -4.1826   -2.6446   -2.6170 H   0  0  0  0  0  0  0  0  0  0  0  0
   -3.9960   -4.1154    1.4381 H   0  0  0  0  0  0  0  0  0  0  0  0
   -3.2502   -5.0365    0.1327 H   0  0  0  0  0  0  0  0  0  0  0  0
   -2.5109   -3.5299    0.6762 H   0  0  0  0  0  0  0  0  0  0  0  0
   -5.3891   -0.3105    2.0681 H   0  0  0  0  0  0  0  0  0  0  0  0
   -7.9205   -0.5006    1.6616 H   0  0  0  0  0  0  0  0  0  0  0  0
   -7.2846    1.0753    2.0340 H   0  0  0  0  0  0  0  0  0  0  0  0
   -8.9371    0.9948   -0.0224 H   0  0  0  0  0  0  0  0  0  0  0  0
   -7.6293    1.5152   -1.9638 H   0  0  0  0  0  0  0  0  0  0  0  0
   -5.4055    0.1581   -1.8276 H   0  0  0  0  0  0  0  0  0  0  0  0
   -5.2076    1.8694   -1.5960 H   0  0  0  0  0  0  0  0  0  0  0  0
   -4.9911    1.7013    0.7738 H   0  0  0  0  0  0  0  0  0  0  0  0
    6.0840   -1.8718    0.6194 H   0  0  0  0  0  0  0  0  0  0  0  0
    9.8825   -0.1559   -0.4051 H   0  0  0  0  0  0  0  0  0  0  0  0
    8.7511    1.9039   -1.0990 H   0  0  0  0  0  0  0  0  0  0  0  0
    6.3114    2.1246   -0.9604 H   0  0  0  0  0  0  0  0  0  0  0  0
    4.3377    1.2610   -0.4160 H   0  0  0  0  0  0  0  0  0  0  0  0
   -4.2864   -3.2708   -0.5406 C   0  0  1  0  0  0  0  0  0  0  0  0
 10 64  1  0
 34 13  2  0
 64 30  1  0
 64 12  1  0
 13 30  1  0
 13 14  1  0
 30 29  1  0
  1 31  1  0
 31 11  1  0
 21 11  2  0
 21 22  1  0
 15 14  1  0
 15 16  1  0
 14 19  1  0
 11 20  1  0
 22 23  2  0
 29  9  2  0
 20 24  2  0
 23 24  1  0
 16 17  2  0
 24 28  1  0
 28 25  1  0
  9 19  1  0
  9  7  1  0
 19 18  1  0
 17 18  1  0
 25 26  1  0
 25 32  2  0
  8  7  2  0
  8  2  1  0
 26 27  3  0
  7  6  1  0
 27  2  1  0
  2  3  2  0
  6  5  2  0
  3  5  1  0
  3 33  1  0
 33  4  1  0
  1 35  1  0
  1 36  1  0
  1 37  1  0
  4 38  1  0
  4 39  1  0
  4 40  1  0
  5 41  1  0
  6 42  1  0
  8 43  1  0
 64 44  1  6
 10 45  1  0
 10 46  1  0
 10 47  1  0
 12 48  1  0
 12 49  1  0
 12 50  1  0
 14 51  1  1
 15 52  1  0
 15 53  1  0
 16 54  1  0
 17 55  1  0
 18 56  1  0
 18 57  1  0
 19 58  1  1
 20 59  1  0
 21 60  1  0
 22 61  1  0
 23 62  1  0
 28 63  1  0
M  END
