
     RDKit          3D

 23 22  0  0  0  0  0  0  0  0999 V2000
   -2.9856   -0.3114   -0.0600 C   0  0  0  0  0  0  0  0  0  0  0  0
   -1.9984    1.8600   -0.7533 N   0  0  0  0  0  0  0  0  0  0  0  0
   -3.7837    0.1659    0.7824 O   0  0  0  0  0  0  0  0  0  0  0  0
   -1.7954    0.4347   -0.6562 C   0  0  1  0  0  0  0  0  0  0  0  0
   -0.5501    0.0488    0.1579 C   0  0  0  0  0  0  0  0  0  0  0  0
    1.9732   -0.0135    0.1856 C   0  0  1  0  0  0  0  0  0  0  0  0
    3.2260    0.5731   -0.4728 C   0  0  0  0  0  0  0  0  0  0  0  0
    0.7179    0.4624   -0.5530 C   0  0  0  0  0  0  0  0  0  0  0  0
    4.1483   -0.1561   -0.8272 O   0  0  0  0  0  0  0  0  0  0  0  0
   -3.0737   -1.5779   -0.5640 O   0  0  0  0  0  0  0  0  0  0  0  0
   -2.8738    2.0637   -1.1963 H   0  0  0  0  0  0  0  0  0  0  0  0
   -1.9786    2.2910    0.1499 H   0  0  0  0  0  0  0  0  0  0  0  0
   -4.2167   -1.3347    0.4429 H   0  0  0  0  0  0  0  0  0  0  0  0
   -1.6682    0.0378   -1.7108 H   0  0  0  0  0  0  0  0  0  0  0  0
   -0.5919    0.5255    1.1716 H   0  0  0  0  0  0  0  0  0  0  0  0
   -0.5597   -1.0664    0.2977 H   0  0  0  0  0  0  0  0  0  0  0  0
    1.9725   -1.4218    0.2339 O   0  0  0  0  0  0  0  0  0  0  0  0
    2.0136    0.3922    1.5396 O   0  0  0  0  0  0  0  0  0  0  0  0
    3.2285    1.6755   -0.5838 H   0  0  0  0  0  0  0  0  0  0  0  0
    0.7335    0.0271   -1.5859 H   0  0  0  0  0  0  0  0  0  0  0  0
    0.7700    1.5790   -0.6371 H   0  0  0  0  0  0  0  0  0  0  0  0
    2.8904   -1.7264    0.1924 H   0  0  0  0  0  0  0  0  0  0  0  0
    2.0140   -0.4106    2.0787 H   0  0  0  0  0  0  0  0  0  0  0  0
  1  3  1  0
  1  4  1  0
  2  4  1  0
  2 11  1  0
  2 12  1  0
  3 13  1  0
  4  5  1  0
  4 14  1  6
  5  8  1  0
  5 15  1  0
  5 16  1  0
  6  7  1  0
  6 17  1  1
  6 18  1  0
  7  9  2  0
  7 19  1  0
  8  6  1  0
  8 20  1  0
  8 21  1  0
 10  1  2  0
 17 22  1  0
 18 23  1  0
M  END
