
     RDKit          3D

 46 48  0  0  0  0  0  0  0  0999 V2000
   -3.2452    0.3825    0.3338 C   0  0  0  0  0  0  0  0  0  0  0  0
   -5.2364   -2.7762   -0.4684 C   0  0  0  0  0  0  0  0  0  0  0  0
    0.5593    0.3398    0.6182 C   0  0  0  0  0  0  0  0  0  0  0  0
    1.2295    0.6090   -0.7384 C   0  0  0  0  0  0  0  0  0  0  0  0
    2.6618    1.0346   -0.5755 C   0  0  0  0  0  0  0  0  0  0  0  0
    2.9886    2.3806   -0.4162 C   0  0  0  0  0  0  0  0  0  0  0  0
    4.3060    2.7649   -0.2184 C   0  0  0  0  0  0  0  0  0  0  0  0
    5.3132    1.8087   -0.1740 C   0  0  0  0  0  0  0  0  0  0  0  0
    5.0112    0.4606   -0.3358 C   0  0  0  0  0  0  0  0  0  0  0  0
    3.6821    0.0904   -0.5311 C   0  0  0  0  0  0  0  0  0  0  0  0
    6.1001   -0.5800   -0.3204 C   0  0  0  0  0  0  0  0  0  0  0  0
    6.7632   -2.7500    0.4908 C   0  0  0  0  0  0  0  0  0  0  0  0
   -6.4375    1.8863    0.3775 N   0  0  0  0  0  0  0  0  0  0  0  0
   -5.4606    0.9519    0.2419 C   0  0  0  0  0  0  0  0  0  0  0  0
   -4.2164    1.3230    0.4245 N   0  0  0  0  0  0  0  0  0  0  0  0
   -5.8311   -0.3954   -0.0529 C   0  0  0  0  0  0  0  0  0  0  0  0
   -4.8753   -1.3587   -0.1546 C   0  0  0  0  0  0  0  0  0  0  0  0
   -3.5124   -0.9778    0.0468 C   0  0  0  0  0  0  0  0  0  0  0  0
   -2.4356   -1.8828   -0.0281 C   0  0  0  0  0  0  0  0  0  0  0  0
   -1.1457   -1.4616    0.1693 C   0  0  0  0  0  0  0  0  0  0  0  0
   -0.8645   -0.1092    0.4547 C   0  0  0  0  0  0  0  0  0  0  0  0
   -1.9065    0.7844    0.5325 C   0  0  0  0  0  0  0  0  0  0  0  0
    5.7412   -1.7238    0.4935 N   0  0  0  0  0  0  0  0  0  0  0  0
   -4.7311   -3.1210   -1.3717 H   0  0  0  0  0  0  0  0  0  0  0  0
   -4.9395   -3.4469    0.3398 H   0  0  0  0  0  0  0  0  0  0  0  0
   -6.3088   -2.8850   -0.6186 H   0  0  0  0  0  0  0  0  0  0  0  0
    1.1319   -0.4238    1.1517 H   0  0  0  0  0  0  0  0  0  0  0  0
    0.6018    1.2469    1.2253 H   0  0  0  0  0  0  0  0  0  0  0  0
    1.1739   -0.2930   -1.3529 H   0  0  0  0  0  0  0  0  0  0  0  0
    0.6656    1.3826   -1.2654 H   0  0  0  0  0  0  0  0  0  0  0  0
    2.2058    3.1296   -0.4464 H   0  0  0  0  0  0  0  0  0  0  0  0
    4.5505    3.8122   -0.0939 H   0  0  0  0  0  0  0  0  0  0  0  0
    6.3400    2.1142   -0.0102 H   0  0  0  0  0  0  0  0  0  0  0  0
    3.4422   -0.9601   -0.6526 H   0  0  0  0  0  0  0  0  0  0  0  0
    6.2683   -0.9386   -1.3422 H   0  0  0  0  0  0  0  0  0  0  0  0
    7.0466   -0.1099   -0.0095 H   0  0  0  0  0  0  0  0  0  0  0  0
    6.8670   -3.1668   -0.5130 H   0  0  0  0  0  0  0  0  0  0  0  0
    7.7562   -2.3997    0.8049 H   0  0  0  0  0  0  0  0  0  0  0  0
    6.4702   -3.5632    1.1547 H   0  0  0  0  0  0  0  0  0  0  0  0
   -6.1537    2.8519    0.3568 H   0  0  0  0  0  0  0  0  0  0  0  0
   -7.3401    1.7000   -0.0254 H   0  0  0  0  0  0  0  0  0  0  0  0
   -6.8769   -0.6395   -0.1964 H   0  0  0  0  0  0  0  0  0  0  0  0
   -2.6245   -2.9277   -0.2405 H   0  0  0  0  0  0  0  0  0  0  0  0
   -0.3317   -2.1744    0.1128 H   0  0  0  0  0  0  0  0  0  0  0  0
   -1.7174    1.8294    0.7519 H   0  0  0  0  0  0  0  0  0  0  0  0
    5.5851   -1.4120    1.4439 H   0  0  0  0  0  0  0  0  0  0  0  0
  2 17  1  0
 17 16  1  0
 17 18  2  0
 16 14  2  0
 19 18  1  0
 19 20  2  0
 18  1  1  0
 14 13  1  0
 14 15  1  0
 20 21  1  0
  1 15  2  0
  1 22  1  0
 21 22  2  0
 21  3  1  0
  4  3  1  0
  4  5  1  0
  6  5  2  0
  6  7  1  0
  5 10  1  0
  7  8  2  0
 10  9  2  0
  8  9  1  0
  9 11  1  0
 23 11  1  0
 23 12  1  0
  2 24  1  0
  2 25  1  0
  2 26  1  0
  3 27  1  0
  3 28  1  0
  4 29  1  0
  4 30  1  0
  6 31  1  0
  7 32  1  0
  8 33  1  0
 10 34  1  0
 11 35  1  0
 11 36  1  0
 12 37  1  0
 12 38  1  0
 12 39  1  0
 13 40  1  0
 13 41  1  0
 16 42  1  0
 19 43  1  0
 20 44  1  0
 22 45  1  0
 23 46  1  0
M  END
