
     RDKit          3D

 74 78  0  0  0  0  0  0  0  0999 V2000
   -3.7533   -8.7552   -3.1583 O   0  0  0  0  0  0  0  0  0  0  0  0
   -2.9054   -8.9790   -2.3229 C   0  0  0  0  0  0  0  0  0  0  0  0
   -2.3146  -10.1674   -2.2031 O   0  0  0  0  0  0  0  0  0  0  0  0
   -2.6840  -11.1802   -3.1348 C   0  0  0  0  0  0  0  0  0  0  0  0
   -2.4223   -7.9843   -1.3606 C   0  0  0  0  0  0  0  0  0  0  0  0
   -1.3106   -8.2235   -0.6454 C   0  0  0  0  0  0  0  0  0  0  0  0
   -0.7357   -7.3610    0.1870 O   0  0  0  0  0  0  0  0  0  0  0  0
   -1.2934   -6.0517    0.3417 C   0  0  1  0  0  0  0  0  0  0  0  0
   -0.2275   -5.2080    0.6038 O   0  0  0  0  0  0  0  0  0  0  0  0
    0.2308   -5.1895    1.9130 C   0  0  2  0  0  0  0  0  0  0  0  0
   -0.6990   -4.4749    2.6802 O   0  0  0  0  0  0  0  0  0  0  0  0
   -0.3837   -4.4537    4.0601 C   0  0  2  0  0  0  0  0  0  0  0  0
   -1.5493   -3.7952    4.7759 C   0  0  0  0  0  0  0  0  0  0  0  0
   -2.7497   -4.5108    4.6170 O   0  0  0  0  0  0  0  0  0  0  0  0
    0.9333   -3.7020    4.2483 C   0  0  1  0  0  0  0  0  0  0  0  0
    1.3189   -3.6217    5.6003 O   0  0  0  0  0  0  0  0  0  0  0  0
    2.0306   -4.3489    3.3988 C   0  0  2  0  0  0  0  0  0  0  0  0
    3.2185   -3.6042    3.4293 O   0  0  0  0  0  0  0  0  0  0  0  0
    1.5886   -4.4870    1.9442 C   0  0  1  0  0  0  0  0  0  0  0  0
    2.5382   -5.1415    1.1498 O   0  0  0  0  0  0  0  0  0  0  0  0
   -2.0250   -5.5980   -0.9105 C   0  0  2  0  0  0  0  0  0  0  0  0
   -2.5515   -4.1702   -0.7499 C   0  0  0  0  0  0  0  0  0  0  0  0
   -3.3304   -3.6845   -1.9639 C   0  0  0  0  0  0  0  0  0  0  0  0
   -3.1012   -6.6433   -1.2573 C   0  0  2  0  0  0  0  0  0  0  0  0
   -4.2653   -6.6580   -0.2524 C   0  0  0  0  0  0  0  0  0  0  0  0
   -5.5454   -7.3188   -0.7819 C   0  0  2  0  0  0  0  0  0  0  0  0
   -6.0638   -6.5994   -1.9387 N   0  0  0  0  0  0  0  0  0  0  0  0
   -6.9195   -5.4662   -1.6206 C   0  0  0  0  0  0  0  0  0  0  0  0
   -8.1748   -5.8284   -0.8213 C   0  0  0  0  0  0  0  0  0  0  0  0
   -7.7788   -6.7430    0.2881 C   0  0  0  0  0  0  0  0  0  0  0  0
   -6.5850   -7.4046    0.2934 C   0  0  0  0  0  0  0  0  0  0  0  0
   -8.4580   -7.1084    1.4927 C   0  0  0  0  0  0  0  0  0  0  0  0
   -7.6053   -7.9979    2.1882 C   0  0  0  0  0  0  0  0  0  0  0  0
   -6.4740   -8.1528    1.4368 N   0  0  0  0  0  0  0  0  0  0  0  0
   -9.6934   -6.7713    2.0545 C   0  0  0  0  0  0  0  0  0  0  0  0
  -10.0500   -7.3228    3.2716 C   0  0  0  0  0  0  0  0  0  0  0  0
   -9.1917   -8.2078    3.9427 C   0  0  0  0  0  0  0  0  0  0  0  0
   -7.9617   -8.5565    3.4130 C   0  0  0  0  0  0  0  0  0  0  0  0
   -2.1011  -12.0568   -2.8669 H   0  0  0  0  0  0  0  0  0  0  0  0
   -2.4479  -10.8906   -4.1588 H   0  0  0  0  0  0  0  0  0  0  0  0
   -3.7451  -11.4205   -3.0673 H   0  0  0  0  0  0  0  0  0  0  0  0
   -0.7555   -9.1519   -0.6907 H   0  0  0  0  0  0  0  0  0  0  0  0
   -3.5131   -6.3879   -2.2350 H   0  0  0  0  0  0  0  0  0  0  0  0
   -1.9837   -6.0937    1.1940 H   0  0  0  0  0  0  0  0  0  0  0  0
   -1.3023   -5.5933   -1.7370 H   0  0  0  0  0  0  0  0  0  0  0  0
    0.3353   -6.2134    2.3159 H   0  0  0  0  0  0  0  0  0  0  0  0
    1.4599   -3.4864    1.5153 H   0  0  0  0  0  0  0  0  0  0  0  0
   -0.2713   -5.4867    4.4334 H   0  0  0  0  0  0  0  0  0  0  0  0
   -1.6443   -2.7565    4.4304 H   0  0  0  0  0  0  0  0  0  0  0  0
   -1.3346   -3.7626    5.8442 H   0  0  0  0  0  0  0  0  0  0  0  0
    0.7965   -2.6676    3.9121 H   0  0  0  0  0  0  0  0  0  0  0  0
   -2.9692   -4.5211    3.6803 H   0  0  0  0  0  0  0  0  0  0  0  0
    1.4097   -4.5147    5.9532 H   0  0  0  0  0  0  0  0  0  0  0  0
    2.1971   -5.3678    3.7977 H   0  0  0  0  0  0  0  0  0  0  0  0
    3.4882   -3.5140    4.3496 H   0  0  0  0  0  0  0  0  0  0  0  0
    2.7516   -5.9934    1.5469 H   0  0  0  0  0  0  0  0  0  0  0  0
   -1.7053   -3.5019   -0.5852 H   0  0  0  0  0  0  0  0  0  0  0  0
   -3.1737   -4.0891    0.1458 H   0  0  0  0  0  0  0  0  0  0  0  0
   -2.7150   -3.7194   -2.8651 H   0  0  0  0  0  0  0  0  0  0  0  0
   -4.2217   -4.2836   -2.1524 H   0  0  0  0  0  0  0  0  0  0  0  0
   -3.6535   -2.6525   -1.8258 H   0  0  0  0  0  0  0  0  0  0  0  0
   -4.5240   -5.6369    0.0396 H   0  0  0  0  0  0  0  0  0  0  0  0
   -3.9581   -7.1637    0.6676 H   0  0  0  0  0  0  0  0  0  0  0  0
   -5.3064   -8.3325   -1.1144 H   0  0  0  0  0  0  0  0  0  0  0  0
   -6.5657   -7.2443   -2.5351 H   0  0  0  0  0  0  0  0  0  0  0  0
   -7.1948   -4.9762   -2.5560 H   0  0  0  0  0  0  0  0  0  0  0  0
   -6.3341   -4.7386   -1.0511 H   0  0  0  0  0  0  0  0  0  0  0  0
   -8.9147   -6.3023   -1.4763 H   0  0  0  0  0  0  0  0  0  0  0  0
   -8.6451   -4.9179   -0.4382 H   0  0  0  0  0  0  0  0  0  0  0  0
   -5.7017   -8.7554    1.6680 H   0  0  0  0  0  0  0  0  0  0  0  0
  -10.3620   -6.0887    1.5436 H   0  0  0  0  0  0  0  0  0  0  0  0
   -7.3022   -9.2390    3.9342 H   0  0  0  0  0  0  0  0  0  0  0  0
  -11.0047   -7.0711    3.7158 H   0  0  0  0  0  0  0  0  0  0  0  0
   -9.4962   -8.6255    4.8936 H   0  0  0  0  0  0  0  0  0  0  0  0
  1  2  2  0
  2  3  1  0
  2  5  1  0
  3  4  1  0
  4 39  1  0
  4 40  1  0
  4 41  1  0
  5 24  1  0
  5  6  2  0
  6 42  1  0
  6  7  1  0
  7  8  1  0
  8 44  1  1
  8  9  1  0
  8 21  1  0
  9 10  1  0
 10 46  1  1
 10 11  1  0
 10 19  1  0
 11 12  1  0
 12 48  1  1
 12 13  1  0
 12 15  1  0
 13 49  1  0
 13 50  1  0
 13 14  1  0
 14 52  1  0
 15 51  1  6
 15 16  1  0
 15 17  1  0
 16 53  1  0
 17 54  1  1
 17 18  1  0
 17 19  1  0
 18 55  1  0
 19 47  1  6
 19 20  1  0
 20 56  1  0
 21 24  1  0
 21 45  1  6
 21 22  1  0
 22 57  1  0
 22 58  1  0
 22 23  1  0
 23 59  1  0
 23 60  1  0
 23 61  1  0
 24 25  1  0
 24 43  1  6
 25 26  1  0
 25 62  1  0
 25 63  1  0
 26 27  1  0
 26 31  1  0
 26 64  1  6
 27 28  1  0
 27 65  1  0
 28 29  1  0
 28 66  1  0
 28 67  1  0
 29 30  1  0
 29 68  1  0
 29 69  1  0
 30 31  2  0
 30 32  1  0
 31 34  1  0
 32 33  2  0
 32 35  1  0
 33 34  1  0
 33 38  1  0
 34 70  1  0
 35 36  2  0
 35 71  1  0
 36 37  1  0
 36 73  1  0
 37 38  2  0
 37 74  1  0
 38 72  1  0
M  END
