
     RDKit          3D

 49 51  0  0  0  0  0  0  0  0999 V2000
    5.5989    1.2726    1.1695 N   0  0  0  0  0  0  0  0  0  0  0  0
    4.6827   -0.0258   -0.6258 C   0  0  0  0  0  0  0  0  0  0  0  0
    4.8250    0.2741    0.7518 C   0  0  0  0  0  0  0  0  0  0  0  0
    5.3998    0.7906   -1.4662 C   0  0  0  0  0  0  0  0  0  0  0  0
    6.2352    1.9888    0.2438 C   0  0  0  0  0  0  0  0  0  0  0  0
    6.1783    1.7987   -1.0734 N   0  0  0  0  0  0  0  0  0  0  0  0
    3.8198   -1.1451   -1.1227 C   0  0  0  0  0  0  0  0  0  0  0  0
    2.3388   -0.9220   -0.9040 C   0  0  0  0  0  0  0  0  0  0  0  0
    0.3733    0.4744   -1.0067 C   0  0  0  0  0  0  0  0  0  0  0  0
    1.7425    0.2917   -1.1914 C   0  0  0  0  0  0  0  0  0  0  0  0
   -0.4193   -0.5543   -0.5246 C   0  0  0  0  0  0  0  0  0  0  0  0
    1.5400   -1.9621   -0.4212 C   0  0  0  0  0  0  0  0  0  0  0  0
    0.1777   -1.7951   -0.2275 C   0  0  0  0  0  0  0  0  0  0  0  0
   -0.6546   -2.7447    0.2402 O   0  0  0  0  0  0  0  0  0  0  0  0
   -0.1103   -4.0052    0.5728 C   0  0  0  0  0  0  0  0  0  0  0  0
   -1.7480   -0.4761   -0.3035 O   0  0  0  0  0  0  0  0  0  0  0  0
   -2.3813    0.7813   -0.4985 C   0  0  0  0  0  0  0  0  0  0  0  0
   -3.8215    0.6353   -0.1205 C   0  0  0  0  0  0  0  0  0  0  0  0
   -5.5178    0.3483    1.5788 C   0  0  0  0  0  0  0  0  0  0  0  0
   -4.1937    0.4948    1.2176 C   0  0  0  0  0  0  0  0  0  0  0  0
   -6.5169    0.3394    0.5997 C   0  0  0  0  0  0  0  0  0  0  0  0
   -4.8201    0.6209   -1.0815 C   0  0  0  0  0  0  0  0  0  0  0  0
   -6.1609    0.4795   -0.7384 C   0  0  0  0  0  0  0  0  0  0  0  0
   -7.7798    0.1953    1.0406 O   0  0  0  0  0  0  0  0  0  0  0  0
   -8.8297    0.1879    0.0930 C   0  0  0  0  0  0  0  0  0  0  0  0
    4.1865   -0.4376    1.6922 N   0  0  0  0  0  0  0  0  0  0  0  0
    6.9831    3.0303    0.6889 N   0  0  0  0  0  0  0  0  0  0  0  0
    5.3465    0.6198   -2.5388 H   0  0  0  0  0  0  0  0  0  0  0  0
    4.0112   -1.2812   -2.1914 H   0  0  0  0  0  0  0  0  0  0  0  0
    4.1122   -2.0906   -0.6535 H   0  0  0  0  0  0  0  0  0  0  0  0
    4.3353   -0.2290    2.6642 H   0  0  0  0  0  0  0  0  0  0  0  0
    3.5964   -1.2179    1.4676 H   0  0  0  0  0  0  0  0  0  0  0  0
    7.2489    3.0285    1.6589 H   0  0  0  0  0  0  0  0  0  0  0  0
    7.6620    3.4144    0.0541 H   0  0  0  0  0  0  0  0  0  0  0  0
    2.3345    1.1194   -1.5620 H   0  0  0  0  0  0  0  0  0  0  0  0
    2.0083   -2.9118   -0.1927 H   0  0  0  0  0  0  0  0  0  0  0  0
   -0.0585    1.4363   -1.2487 H   0  0  0  0  0  0  0  0  0  0  0  0
    0.6503   -3.9293    1.3543 H   0  0  0  0  0  0  0  0  0  0  0  0
   -0.9347   -4.6090    0.9442 H   0  0  0  0  0  0  0  0  0  0  0  0
    0.3277   -4.5049   -0.2955 H   0  0  0  0  0  0  0  0  0  0  0  0
   -1.8939    1.5429    0.1210 H   0  0  0  0  0  0  0  0  0  0  0  0
   -2.2925    1.0985   -1.5430 H   0  0  0  0  0  0  0  0  0  0  0  0
   -3.4360    0.5068    1.9920 H   0  0  0  0  0  0  0  0  0  0  0  0
   -4.5605    0.7269   -2.1283 H   0  0  0  0  0  0  0  0  0  0  0  0
   -5.7926    0.2436    2.6212 H   0  0  0  0  0  0  0  0  0  0  0  0
   -6.9021    0.4808   -1.5252 H   0  0  0  0  0  0  0  0  0  0  0  0
   -8.8838    1.1275   -0.4626 H   0  0  0  0  0  0  0  0  0  0  0  0
   -8.7330   -0.6369   -0.6176 H   0  0  0  0  0  0  0  0  0  0  0  0
   -9.7522    0.0609    0.6540 H   0  0  0  0  0  0  0  0  0  0  0  0
  1  3  2  0
  1  5  1  0
  2  3  1  0
  2  4  2  0
  2  7  1  0
  3 26  1  0
  4  6  1  0
  5  6  2  0
  5 27  1  0
  7  8  1  0
  8 10  1  0
  8 12  2  0
  9 10  2  0
  9 11  1  0
 11 13  2  0
 11 16  1  0
 12 13  1  0
 13 14  1  0
 14 15  1  0
 16 17  1  0
 17 18  1  0
 18 20  1  0
 18 22  2  0
 19 20  2  0
 19 21  1  0
 21 23  2  0
 21 24  1  0
 22 23  1  0
 24 25  1  0
  4 28  1  0
  7 29  1  0
  7 30  1  0
 26 31  1  0
 26 32  1  0
 27 33  1  0
 27 34  1  0
 10 35  1  0
 12 36  1  0
  9 37  1  0
 15 38  1  0
 15 39  1  0
 15 40  1  0
 17 41  1  0
 17 42  1  0
 20 43  1  0
 22 44  1  0
 19 45  1  0
 23 46  1  0
 25 47  1  0
 25 48  1  0
 25 49  1  0
M  END
