
     RDKit          3D

 59 61  0  0  0  0  0  0  0  0999 V2000
    0.3586   -4.0012   -0.2418 C   0  0  0  0  0  0  0  0  0  0  0  0
    4.9970    1.1749   -0.1557 C   0  0  0  0  0  0  0  0  0  0  0  0
    6.0610    1.9978   -0.8027 C   0  0  0  0  0  0  0  0  0  0  0  0
    3.6743    1.5257   -0.3760 C   0  0  0  0  0  0  0  0  0  0  0  0
   -0.3125    2.3906   -0.0648 C   0  0  0  0  0  0  0  0  0  0  0  0
   -4.5552    0.5740    0.3388 C   0  0  0  0  0  0  0  0  0  0  0  0
   -2.6740    0.7653    2.9774 C   0  0  0  0  0  0  0  0  0  0  0  0
   -2.9265    1.7066    1.8119 C   0  0  0  0  0  0  0  0  0  0  0  0
   -0.8398    1.0833   -0.0717 C   0  0  0  0  0  0  0  0  0  0  0  0
    0.2624    0.2568   -0.0097 C   0  0  0  0  0  0  0  0  0  0  0  0
    0.3264   -1.2034   -0.0771 C   0  0  0  0  0  0  0  0  0  0  0  0
    1.1468   -1.8545   -1.0008 C   0  0  0  0  0  0  0  0  0  0  0  0
    1.1667   -3.2307   -1.0841 C   0  0  0  0  0  0  0  0  0  0  0  0
   -0.4712   -3.3629    0.6761 C   0  0  0  0  0  0  0  0  0  0  0  0
   -0.4788   -1.9766    0.7475 C   0  0  0  0  0  0  0  0  0  0  0  0
    2.6964    0.7554    0.2379 C   0  0  0  0  0  0  0  0  0  0  0  0
    4.2168   -0.6185    1.1998 C   0  0  0  0  0  0  0  0  0  0  0  0
    5.2808    0.0734    0.6443 C   0  0  0  0  0  0  0  0  0  0  0  0
   -5.3168    1.5607   -0.5415 C   0  0  0  0  0  0  0  0  0  0  0  0
   -7.5000    1.4337    0.4670 C   0  0  0  0  0  0  0  0  0  0  0  0
   -7.2871    1.8306   -1.8711 C   0  0  0  0  0  0  0  0  0  0  0  0
   -3.1839    1.0043    0.5605 N   0  0  0  0  0  0  0  0  0  0  0  0
    1.3387    1.0866    0.0534 N   0  0  0  0  0  0  0  0  0  0  0  0
    2.9494   -0.2778    1.0136 N   0  0  0  0  0  0  0  0  0  0  0  0
    0.9962    2.3794    0.0043 N   0  0  0  0  0  0  0  0  0  0  0  0
   -6.7042    1.1804   -0.7163 N   0  0  0  0  0  0  0  0  0  0  0  0
    0.4453   -5.3337   -0.3905 O   0  0  0  0  0  0  0  0  0  0  0  0
    7.2767    1.5770   -0.5078 O   0  0  0  0  0  0  0  0  0  0  0  0
    5.8225    2.9424   -1.5113 O   0  0  0  0  0  0  0  0  0  0  0  0
   -2.4778   -0.0512   -1.3065 O   0  0  0  0  0  0  0  0  0  0  0  0
    3.4102    2.3650   -1.0027 H   0  0  0  0  0  0  0  0  0  0  0  0
   -0.8471    3.3268   -0.1279 H   0  0  0  0  0  0  0  0  0  0  0  0
   -5.0272    0.4762    1.3171 H   0  0  0  0  0  0  0  0  0  0  0  0
   -4.5700   -0.4138   -0.1194 H   0  0  0  0  0  0  0  0  0  0  0  0
   -2.5808    1.3313    3.9042 H   0  0  0  0  0  0  0  0  0  0  0  0
   -3.4880    0.0498    3.1028 H   0  0  0  0  0  0  0  0  0  0  0  0
   -1.7496    0.2050    2.8345 H   0  0  0  0  0  0  0  0  0  0  0  0
   -3.7959    2.3336    2.0159 H   0  0  0  0  0  0  0  0  0  0  0  0
   -2.0881    2.3883    1.6993 H   0  0  0  0  0  0  0  0  0  0  0  0
    1.7682   -1.2812   -1.6776 H   0  0  0  0  0  0  0  0  0  0  0  0
    1.8027   -3.7235   -1.8088 H   0  0  0  0  0  0  0  0  0  0  0  0
   -1.1128   -3.9203    1.3445 H   0  0  0  0  0  0  0  0  0  0  0  0
   -1.1242   -1.5004    1.4753 H   0  0  0  0  0  0  0  0  0  0  0  0
   -0.1383   -6.0352    1.4857 H   0  0  0  0  0  0  0  0  0  0  0  0
   -1.4280   -5.9761    0.2636 H   0  0  0  0  0  0  0  0  0  0  0  0
   -0.1396   -7.1864    0.1394 H   0  0  0  0  0  0  0  0  0  0  0  0
    4.3964   -1.4789    1.8324 H   0  0  0  0  0  0  0  0  0  0  0  0
    6.2913   -0.2514    0.8428 H   0  0  0  0  0  0  0  0  0  0  0  0
   -5.2166    2.5808   -0.1310 H   0  0  0  0  0  0  0  0  0  0  0  0
   -4.8382    1.5740   -1.5229 H   0  0  0  0  0  0  0  0  0  0  0  0
   -8.5253    1.1004    0.3017 H   0  0  0  0  0  0  0  0  0  0  0  0
   -7.1188    0.8826    1.3271 H   0  0  0  0  0  0  0  0  0  0  0  0
   -7.5337    2.5001    0.7414 H   0  0  0  0  0  0  0  0  0  0  0  0
   -7.3109    2.9285   -1.7889 H   0  0  0  0  0  0  0  0  0  0  0  0
   -6.7244    1.5758   -2.7702 H   0  0  0  0  0  0  0  0  0  0  0  0
   -8.3135    1.4887   -2.0115 H   0  0  0  0  0  0  0  0  0  0  0  0
    7.9410    2.1355   -0.9395 H   0  0  0  0  0  0  0  0  0  0  0  0
   -2.2345    0.6332   -0.3207 C   0  0  0  0  0  0  0  0  0  0  0  0
   -0.3630   -6.1614    0.4237 C   0  0  0  0  0  0  0  0  0  0  0  0
 20 26  1  0
 26 21  1  0
 26 19  1  0
 19  6  1  0
  6 22  1  0
  8 22  1  0
  8  7  1  0
 22 58  1  0
 58 30  2  0
 58  9  1  0
  5  9  1  0
  5 25  2  0
  9 10  2  0
 25 23  1  0
 10 23  1  0
 10 11  1  0
 23 16  1  0
 11 12  2  0
 11 15  1  0
 24 16  2  0
 24 17  1  0
 12 13  1  0
 16  4  1  0
 15 14  2  0
 17 18  2  0
 13  1  2  0
 14  1  1  0
  4  2  2  0
  1 27  1  0
 18  2  1  0
  2  3  1  0
 27 59  1  0
  3 29  2  0
  3 28  1  0
  4 31  1  0
  5 32  1  0
  6 33  1  0
  6 34  1  0
  7 35  1  0
  7 36  1  0
  7 37  1  0
  8 38  1  0
  8 39  1  0
 12 40  1  0
 13 41  1  0
 14 42  1  0
 15 43  1  0
 59 44  1  0
 59 45  1  0
 59 46  1  0
 17 47  1  0
 18 48  1  0
 19 49  1  0
 19 50  1  0
 20 51  1  0
 20 52  1  0
 20 53  1  0
 21 54  1  0
 21 55  1  0
 21 56  1  0
 28 57  1  0
M  END
