
     RDKit          3D

 16 16  0  0  0  0  0  0  0  0999 V2000
   -0.7070   -1.1484   -0.0839 N   0  0  0  0  0  0  0  0  0  0  0  0
    0.6243   -1.1257   -0.0644 C   0  0  0  0  0  0  0  0  0  0  0  0
    1.3968    0.0208    0.0002 C   0  0  0  0  0  0  0  0  0  0  0  0
    0.6907    1.2279    0.0465 C   0  0  0  0  0  0  0  0  0  0  0  0
   -0.6847    1.2352    0.0232 C   0  0  0  0  0  0  0  0  0  0  0  0
   -1.3630    0.0052   -0.0433 C   0  0  0  0  0  0  0  0  0  0  0  0
   -2.7288   -0.0427   -0.1166 N   0  0  0  0  0  0  0  0  0  0  0  0
    2.8949   -0.0270    0.0268 C   0  0  0  0  0  0  0  0  0  0  0  0
    1.1095   -2.0975   -0.1025 H   0  0  0  0  0  0  0  0  0  0  0  0
    1.2285    2.1677    0.1017 H   0  0  0  0  0  0  0  0  0  0  0  0
   -1.2381    2.1653    0.0578 H   0  0  0  0  0  0  0  0  0  0  0  0
   -3.2338    0.7547    0.2330 H   0  0  0  0  0  0  0  0  0  0  0  0
   -3.1488   -0.9239    0.1312 H   0  0  0  0  0  0  0  0  0  0  0  0
    3.2938    0.3483    0.9710 H   0  0  0  0  0  0  0  0  0  0  0  0
    3.2591   -1.0462   -0.1018 H   0  0  0  0  0  0  0  0  0  0  0  0
    3.3285    0.5807   -0.7690 H   0  0  0  0  0  0  0  0  0  0  0  0
  1  2  2  0
  1  6  1  0
  2  3  1  0
  2  9  1  0
  3  4  2  0
  3  8  1  0
  4  5  1  0
  4 10  1  0
  5  6  2  0
  5 11  1  0
  6  7  1  0
  7 12  1  0
  7 13  1  0
  8 14  1  0
  8 15  1  0
  8 16  1  0
M  END
