
     RDKit          3D

 54 57  0  0  0  0  0  0  0  0999 V2000
   -0.6984    0.3546    0.1447 C   0  0  0  0  0  0  0  0  0  0  0  0
   -2.0226    0.3198    0.2245 N   0  0  0  0  0  0  0  0  0  0  0  0
   -2.6927    1.4697    0.2513 C   0  0  0  0  0  0  0  0  0  0  0  0
   -2.1534    2.7005    0.1956 N   0  0  0  0  0  0  0  0  0  0  0  0
   -0.8397    2.7310    0.1162 C   0  0  0  0  0  0  0  0  0  0  0  0
   -0.0126    1.6156    0.0876 C   0  0  0  0  0  0  0  0  0  0  0  0
   -0.0236   -0.7965    0.1341 N   0  0  0  0  0  0  0  0  0  0  0  0
   -4.0242    1.3845    0.3382 N   0  0  0  0  0  0  0  0  0  0  0  0
    1.4200    1.7362   -0.0044 C   0  0  0  0  0  0  0  0  0  0  0  0
   -0.6141   -2.1069    0.1008 C   0  0  1  0  0  0  0  0  0  0  0  0
   -0.5018   -2.7987   -1.2536 C   0  0  1  0  0  0  0  0  0  0  0  0
   -0.9151   -4.2382   -0.9292 C   0  0  1  0  0  0  0  0  0  0  0  0
   -0.3024   -4.4970    0.4602 C   0  0  2  0  0  0  0  0  0  0  0  0
    0.0789   -3.1095    1.0221 C   0  0  0  0  0  0  0  0  0  0  0  0
   -1.2955   -2.1698   -2.2227 O   0  0  0  0  0  0  0  0  0  0  0  0
   -2.3184   -4.3458   -0.8393 O   0  0  0  0  0  0  0  0  0  0  0  0
    0.8775   -5.4469    0.3825 C   0  0  0  0  0  0  0  0  0  0  0  0
    1.3945   -5.6304    1.6805 O   0  0  0  0  0  0  0  0  0  0  0  0
   -4.9294    2.5110    0.3859 C   0  0  0  0  0  0  0  0  0  0  0  0
   -6.3677    2.0183    0.4271 C   0  0  0  0  0  0  0  0  0  0  0  0
   -7.3637    3.1662    0.4663 C   0  0  0  0  0  0  0  0  0  0  0  0
    2.1963    3.3155   -0.0997 S   0  0  0  0  0  0  0  0  0  0  0  0
    3.7376    2.5291   -0.1769 C   0  0  0  0  0  0  0  0  0  0  0  0
    3.5524    1.1394   -0.1245 C   0  0  0  0  0  0  0  0  0  0  0  0
    2.2455    0.7363   -0.0284 N   0  0  0  0  0  0  0  0  0  0  0  0
    5.0010    3.0958   -0.2756 C   0  0  0  0  0  0  0  0  0  0  0  0
    6.0918    2.2427   -0.3227 C   0  0  0  0  0  0  0  0  0  0  0  0
    5.9215    0.8560   -0.2710 C   0  0  0  0  0  0  0  0  0  0  0  0
    4.6612    0.2953   -0.1722 C   0  0  0  0  0  0  0  0  0  0  0  0
   -0.4037    3.7265    0.0718 H   0  0  0  0  0  0  0  0  0  0  0  0
    0.9859   -0.7128    0.0569 H   0  0  0  0  0  0  0  0  0  0  0  0
   -4.4085    0.4551    0.3977 H   0  0  0  0  0  0  0  0  0  0  0  0
   -1.6671   -2.0117    0.3657 H   0  0  0  0  0  0  0  0  0  0  0  0
    0.5585   -2.8036   -1.5483 H   0  0  0  0  0  0  0  0  0  0  0  0
   -0.5248   -4.9382   -1.6831 H   0  0  0  0  0  0  0  0  0  0  0  0
   -1.0706   -4.9595    1.0859 H   0  0  0  0  0  0  0  0  0  0  0  0
    1.1628   -2.9633    0.9661 H   0  0  0  0  0  0  0  0  0  0  0  0
   -0.2053   -2.9795    2.0654 H   0  0  0  0  0  0  0  0  0  0  0  0
   -1.0129   -2.4671   -3.0936 H   0  0  0  0  0  0  0  0  0  0  0  0
   -2.6923   -3.8780   -1.5953 H   0  0  0  0  0  0  0  0  0  0  0  0
    0.5474   -6.3978   -0.0575 H   0  0  0  0  0  0  0  0  0  0  0  0
    1.6366   -5.0295   -0.2948 H   0  0  0  0  0  0  0  0  0  0  0  0
    2.1920   -6.1630    1.6155 H   0  0  0  0  0  0  0  0  0  0  0  0
   -4.7254    3.1301    1.2651 H   0  0  0  0  0  0  0  0  0  0  0  0
   -4.7823    3.1506   -0.4890 H   0  0  0  0  0  0  0  0  0  0  0  0
   -6.5578    1.3925   -0.4492 H   0  0  0  0  0  0  0  0  0  0  0  0
   -6.5044    1.3782    1.3033 H   0  0  0  0  0  0  0  0  0  0  0  0
   -8.3871    2.7928    0.4899 H   0  0  0  0  0  0  0  0  0  0  0  0
   -7.2196    3.7898    1.3499 H   0  0  0  0  0  0  0  0  0  0  0  0
   -7.2657    3.8067   -0.4114 H   0  0  0  0  0  0  0  0  0  0  0  0
    5.1326    4.1687   -0.3158 H   0  0  0  0  0  0  0  0  0  0  0  0
    7.0880    2.6574   -0.4007 H   0  0  0  0  0  0  0  0  0  0  0  0
    6.7891    0.2112   -0.3090 H   0  0  0  0  0  0  0  0  0  0  0  0
    4.5257   -0.7777   -0.1336 H   0  0  0  0  0  0  0  0  0  0  0  0
 27 28  2  0
 27 26  1  0
 28 29  1  0
 26 23  2  0
 29 24  2  0
 23 24  1  0
 23 22  1  0
 24 25  1  0
 22  9  1  0
 25  9  2  0
  9  6  1  0
 18 17  1  0
  6  5  2  0
  6  1  1  0
 17 13  1  0
  5  4  1  0
  7  1  1  0
  7 10  1  0
  1  2  2  0
 14 13  1  0
 14 10  1  0
  4  3  2  0
 13 12  1  0
 10 11  1  0
  2  3  1  0
  3  8  1  0
 12 11  1  0
 12 16  1  0
 11 15  1  0
  8 19  1  0
 19 20  1  0
 20 21  1  0
  5 30  1  0
  7 31  1  0
  8 32  1  0
 10 33  1  1
 11 34  1  6
 12 35  1  6
 13 36  1  1
 14 37  1  0
 14 38  1  0
 15 39  1  0
 16 40  1  0
 17 41  1  0
 17 42  1  0
 18 43  1  0
 19 44  1  0
 19 45  1  0
 20 46  1  0
 20 47  1  0
 21 48  1  0
 21 49  1  0
 21 50  1  0
 26 51  1  0
 27 52  1  0
 28 53  1  0
 29 54  1  0
M  END
