
     RDKit          3D

 42 44  0  0  0  0  0  0  0  0999 V2000
   32.3634    9.4670   64.8594 C   0  0  0  0  0  0  0  0  0  0  0  0
   31.5616    8.1986   64.5702 C   0  0  0  0  0  0  0  0  0  0  0  0
   30.4196    8.0535   65.5756 C   0  0  1  0  0  0  0  0  0  0  0  0
   29.6712    6.8270   65.3796 N   0  0  0  0  0  0  0  0  0  0  0  0
   28.6563    6.7028   64.5208 C   0  0  0  0  0  0  0  0  0  0  0  0
   28.2214    7.6237   63.8287 O   0  0  0  0  0  0  0  0  0  0  0  0
   28.0408    5.3644   64.4361 C   0  0  0  0  0  0  0  0  0  0  0  0
   28.4616    4.3327   65.1523 N   0  0  0  0  0  0  0  0  0  0  0  0
   27.6825    3.3350   64.8122 N   0  0  0  0  0  0  0  0  0  0  0  0
   26.7498    3.6557   63.8929 C   0  0  0  0  0  0  0  0  0  0  0  0
   26.9533    4.9915   63.6167 C   0  0  0  0  0  0  0  0  0  0  0  0
   26.2858    5.8421   62.7486 N   0  0  0  0  0  0  0  0  0  0  0  0
   25.2443    5.4992   61.9732 C   0  0  0  0  0  0  0  0  0  0  0  0
   24.7481    4.3903   61.9303 O   0  0  0  0  0  0  0  0  0  0  0  0
   24.7239    6.6312   61.1343 C   0  0  0  0  0  0  0  0  0  0  0  0
   23.7354    7.4820   61.6126 C   0  0  0  0  0  0  0  0  0  0  0  0
   23.2053    8.4933   60.8290 C   0  0  0  0  0  0  0  0  0  0  0  0
   23.6739    8.6539   59.5342 C   0  0  0  0  0  0  0  0  0  0  0  0
   24.6599    7.8220   59.0264 C   0  0  0  0  0  0  0  0  0  0  0  0
   25.1705    6.8185   59.8322 C   0  0  0  0  0  0  0  0  0  0  0  0
   30.9625    8.1144   66.9988 C   0  0  0  0  0  0  0  0  0  0  0  0
   32.8606    9.5506   66.2227 N   0  0  0  0  0  0  0  0  0  0  0  0
   31.7933    9.3829   67.1947 C   0  0  0  0  0  0  0  0  0  0  0  0
   26.4066    5.7786   59.2161 Cl  0  0  0  0  0  0  0  0  0  0  0  0
   23.1652    7.2743   63.2316 Cl  0  0  0  0  0  0  0  0  0  0  0  0
   33.2063    9.5430   64.1702 H   0  0  0  0  0  0  0  0  0  0  0  0
   31.7304   10.3421   64.6743 H   0  0  0  0  0  0  0  0  0  0  0  0
   31.1666    8.2250   63.5516 H   0  0  0  0  0  0  0  0  0  0  0  0
   32.2164    7.3237   64.6418 H   0  0  0  0  0  0  0  0  0  0  0  0
   33.5537    8.8246   66.3661 H   0  0  0  0  0  0  0  0  0  0  0  0
   29.7249    8.8869   65.4362 H   0  0  0  0  0  0  0  0  0  0  0  0
   29.9798    6.0000   65.8694 H   0  0  0  0  0  0  0  0  0  0  0  0
   30.1411    8.0869   67.7189 H   0  0  0  0  0  0  0  0  0  0  0  0
   31.5929    7.2379   67.1900 H   0  0  0  0  0  0  0  0  0  0  0  0
   27.8126    2.4302   65.2379 H   0  0  0  0  0  0  0  0  0  0  0  0
   26.0441    2.9343   63.5244 H   0  0  0  0  0  0  0  0  0  0  0  0
   26.6431    6.7893   62.7230 H   0  0  0  0  0  0  0  0  0  0  0  0
   22.4379    9.1446   61.2230 H   0  0  0  0  0  0  0  0  0  0  0  0
   23.2661    9.4391   58.9128 H   0  0  0  0  0  0  0  0  0  0  0  0
   25.0254    7.9534   58.0177 H   0  0  0  0  0  0  0  0  0  0  0  0
   31.1357   10.2566   67.1308 H   0  0  0  0  0  0  0  0  0  0  0  0
   32.2244    9.3931   68.1974 H   0  0  0  0  0  0  0  0  0  0  0  0
  1  2  1  0
  1 22  1  0
  2  3  1  0
  3  4  1  0
  3 21  1  0
  4  5  1  0
  5  6  2  0
  5  7  1  0
  7  8  2  0
  7 11  1  0
  8  9  1  0
  9 10  1  0
 10 11  2  0
 11 12  1  0
 12 13  1  0
 13 14  2  0
 13 15  1  0
 15 16  2  0
 15 20  1  0
 16 17  1  0
 16 25  1  0
 17 18  2  0
 18 19  1  0
 19 20  2  0
 20 24  1  0
 21 23  1  0
 22 23  1  0
  1 26  1  0
  1 27  1  0
  2 28  1  0
  2 29  1  0
 22 30  1  0
  3 31  1  1
  4 32  1  0
 21 33  1  0
 21 34  1  0
  9 35  1  0
 10 36  1  0
 12 37  1  0
 17 38  1  0
 18 39  1  0
 19 40  1  0
 23 41  1  0
 23 42  1  0
M  END
