
     RDKit          3D

 59 62  0  0  0  0  0  0  0  0999 V2000
    5.9062    1.6106    0.7432 C   0  0  0  0  0  0  0  0  0  0  0  0
    5.4346    2.3064   -0.3933 C   0  0  0  0  0  0  0  0  0  0  0  0
    4.4664    1.7224   -1.1932 C   0  0  0  0  0  0  0  0  0  0  0  0
    3.9693    0.4574   -0.8924 C   0  0  0  0  0  0  0  0  0  0  0  0
    4.4330   -0.2325    0.2145 C   0  0  0  0  0  0  0  0  0  0  0  0
    5.3942    0.3632    1.0400 C   0  0  0  0  0  0  0  0  0  0  0  0
    3.9128   -1.5734    0.6076 C   0  0  0  0  0  0  0  0  0  0  0  0
    3.4396   -2.3331   -0.3999 N   0  0  0  0  0  0  0  0  0  0  0  0
    2.8097   -3.6169   -0.2211 C   0  0  0  0  0  0  0  0  0  0  0  0
    1.3774   -3.6279   -0.6973 C   0  0  0  0  0  0  0  0  0  0  0  0
    0.8883   -4.7043   -1.4297 C   0  0  0  0  0  0  0  0  0  0  0  0
   -0.4331   -4.7299   -1.8536 C   0  0  0  0  0  0  0  0  0  0  0  0
   -1.2839   -3.6804   -1.5490 C   0  0  0  0  0  0  0  0  0  0  0  0
   -0.8085   -2.5966   -0.8115 C   0  0  0  0  0  0  0  0  0  0  0  0
    0.5213   -2.5757   -0.4006 C   0  0  0  0  0  0  0  0  0  0  0  0
   -1.6511   -1.4224   -0.4638 C   0  0  0  0  0  0  0  0  0  0  0  0
   -1.1762   -0.3482   -0.1369 O   0  0  0  0  0  0  0  0  0  0  0  0
    6.8436    2.2515    1.4621 O   0  0  0  0  0  0  0  0  0  0  0  0
    7.3700    1.6015    2.6017 C   0  0  0  0  0  0  0  0  0  0  0  0
    5.9814    3.5117   -0.6003 O   0  0  0  0  0  0  0  0  0  0  0  0
    5.5478    4.2626   -1.7186 C   0  0  0  0  0  0  0  0  0  0  0  0
    3.9252   -1.9438    1.7744 O   0  0  0  0  0  0  0  0  0  0  0  0
   -5.9028    0.3024   -0.1007 C   0  0  0  0  0  0  0  0  0  0  0  0
   -5.1660    1.3932    0.2123 C   0  0  0  0  0  0  0  0  0  0  0  0
   -5.7349    2.7333    0.5374 C   0  0  0  0  0  0  0  0  0  0  0  0
   -7.1538    2.6016    0.8146 N   0  0  0  0  0  0  0  0  0  0  0  0
   -7.8331    1.8185   -0.2046 C   0  0  0  0  0  0  0  0  0  0  0  0
   -7.3914    0.3602   -0.1533 C   0  0  0  0  0  0  0  0  0  0  0  0
   -2.9982   -1.5997   -0.5181 N   0  0  0  0  0  0  0  0  0  0  0  0
   -3.9223   -0.6102   -0.2766 C   0  0  0  0  0  0  0  0  0  0  0  0
   -3.4827    1.0074    0.1660 S   0  0  0  0  0  0  0  0  0  0  0  0
   -5.1909   -0.8363   -0.3723 N   0  0  0  0  0  0  0  0  0  0  0  0
    4.0775    2.2425   -2.0577 H   0  0  0  0  0  0  0  0  0  0  0  0
    3.1943    0.0492   -1.5280 H   0  0  0  0  0  0  0  0  0  0  0  0
    5.7361   -0.1767    1.9124 H   0  0  0  0  0  0  0  0  0  0  0  0
    3.5727   -2.0236   -1.3487 H   0  0  0  0  0  0  0  0  0  0  0  0
    3.3767   -4.3852   -0.7509 H   0  0  0  0  0  0  0  0  0  0  0  0
    2.8511   -3.8706    0.8381 H   0  0  0  0  0  0  0  0  0  0  0  0
    1.5479   -5.5259   -1.6820 H   0  0  0  0  0  0  0  0  0  0  0  0
   -0.7977   -5.5653   -2.4358 H   0  0  0  0  0  0  0  0  0  0  0  0
   -2.2998   -3.7136   -1.9214 H   0  0  0  0  0  0  0  0  0  0  0  0
    0.8873   -1.7243    0.1593 H   0  0  0  0  0  0  0  0  0  0  0  0
    6.5993    1.4070    3.3523 H   0  0  0  0  0  0  0  0  0  0  0  0
    7.8555    0.6567    2.3434 H   0  0  0  0  0  0  0  0  0  0  0  0
    8.1117    2.2737    3.0253 H   0  0  0  0  0  0  0  0  0  0  0  0
    4.4789    4.4851   -1.6689 H   0  0  0  0  0  0  0  0  0  0  0  0
    6.1031    5.1967   -1.6958 H   0  0  0  0  0  0  0  0  0  0  0  0
    5.7587    3.7483   -2.6597 H   0  0  0  0  0  0  0  0  0  0  0  0
   -5.2408    3.1619    1.4144 H   0  0  0  0  0  0  0  0  0  0  0  0
   -5.5420    3.4303   -0.2976 H   0  0  0  0  0  0  0  0  0  0  0  0
   -8.9083    1.8812   -0.0291 H   0  0  0  0  0  0  0  0  0  0  0  0
   -7.6509    2.2204   -1.2158 H   0  0  0  0  0  0  0  0  0  0  0  0
   -7.7632   -0.1711   -1.0323 H   0  0  0  0  0  0  0  0  0  0  0  0
   -7.8212   -0.1352    0.7224 H   0  0  0  0  0  0  0  0  0  0  0  0
   -3.3931   -2.5057   -0.7258 H   0  0  0  0  0  0  0  0  0  0  0  0
   -7.7031    4.5358    0.0947 H   0  0  0  0  0  0  0  0  0  0  0  0
   -8.8084    3.7930    1.2635 H   0  0  0  0  0  0  0  0  0  0  0  0
   -7.2606    4.4373    1.8051 H   0  0  0  0  0  0  0  0  0  0  0  0
   -7.7576    3.9028    0.9935 C   0  0  0  0  0  0  0  0  0  0  0  0
 21 20  1  0
  3  4  2  0
  3  2  1  0
 20  2  1  0
 13 12  1  0
 13 14  2  0
 12 11  2  0
  4  5  1  0
  2  1  2  0
 17 16  2  0
 16 14  1  0
 16 29  1  0
 14 15  1  0
 31 30  1  0
 31 24  1  0
 29 30  1  0
 30 32  2  0
 24 25  1  0
 24 23  2  0
 25 26  1  0
 22  7  2  0
 11 10  1  0
  5  7  1  0
  5  6  2  0
 32 23  1  0
 23 28  1  0
  1  6  1  0
  1 18  1  0
 28 27  1  0
  7  8  1  0
 15 10  2  0
 18 19  1  0
 10  9  1  0
 26 27  1  0
 26 59  1  0
  8  9  1  0
  3 33  1  0
  4 34  1  0
  6 35  1  0
  8 36  1  0
  9 37  1  0
  9 38  1  0
 11 39  1  0
 12 40  1  0
 13 41  1  0
 15 42  1  0
 19 43  1  0
 19 44  1  0
 19 45  1  0
 21 46  1  0
 21 47  1  0
 21 48  1  0
 25 49  1  0
 25 50  1  0
 27 51  1  0
 27 52  1  0
 28 53  1  0
 28 54  1  0
 29 55  1  0
 59 56  1  0
 59 57  1  0
 59 58  1  0
M  END
