
     RDKit          3D

 33 32  0  0  0  0  0  0  0  0999 V2000
    0.3231    0.6455    1.6063 N   0  0  0  0  0  0  0  0  0  0  0  0
   -0.6766   -1.3362   -1.3450 O   0  0  0  0  0  0  0  0  0  0  0  0
   -3.6985    1.4271    0.1162 O   0  0  0  0  0  0  0  0  0  0  0  0
    0.4568    0.0988    0.2634 C   0  0  2  0  0  0  0  0  0  0  0  0
   -0.7106   -0.8671   -0.0096 C   0  0  1  0  0  0  0  0  0  0  0  0
    4.3023   -0.5552    0.0047 C   0  0  0  0  0  0  0  0  0  0  0  0
    3.0481    1.4266   -0.8690 C   0  0  0  0  0  0  0  0  0  0  0  0
    1.8004   -0.5970    0.0064 C   0  0  0  0  0  0  0  0  0  0  0  0
   -2.4284    0.9832   -0.3151 C   0  0  0  0  0  0  0  0  0  0  0  0
   -3.1684   -1.3906    0.1351 C   0  0  0  0  0  0  0  0  0  0  0  0
   -2.0975   -0.3298    0.3803 C   0  0  1  0  0  0  0  0  0  0  0  0
    0.5065   -0.0832    2.2880 H   0  0  0  0  0  0  0  0  0  0  0  0
   -0.6799   -0.5791   -1.9392 H   0  0  0  0  0  0  0  0  0  0  0  0
   -3.8986    2.2462   -0.3450 H   0  0  0  0  0  0  0  0  0  0  0  0
    0.3623    0.9422   -0.4321 H   0  0  0  0  0  0  0  0  0  0  0  0
   -0.5428   -1.7610    0.6061 H   0  0  0  0  0  0  0  0  0  0  0  0
    3.0478    0.7272    1.1534 H   0  0  0  0  0  0  0  0  0  0  0  0
    5.2024    0.0502    0.1274 H   0  0  0  0  0  0  0  0  0  0  0  0
    4.3361   -1.3560    0.7457 H   0  0  0  0  0  0  0  0  0  0  0  0
    4.3491   -1.0178   -0.9846 H   0  0  0  0  0  0  0  0  0  0  0  0
    3.0284    1.0316   -1.8880 H   0  0  0  0  0  0  0  0  0  0  0  0
    2.1921    2.0935   -0.7579 H   0  0  0  0  0  0  0  0  0  0  0  0
    3.9475    2.0365   -0.7690 H   0  0  0  0  0  0  0  0  0  0  0  0
    1.8820   -1.4376    0.7073 H   0  0  0  0  0  0  0  0  0  0  0  0
    1.8047   -1.0328   -0.9973 H   0  0  0  0  0  0  0  0  0  0  0  0
   -2.4176    0.8429   -1.4062 H   0  0  0  0  0  0  0  0  0  0  0  0
   -1.6594    1.7282   -0.0786 H   0  0  0  0  0  0  0  0  0  0  0  0
   -2.8856   -2.3379    0.5991 H   0  0  0  0  0  0  0  0  0  0  0  0
   -4.1259   -1.0941    0.5604 H   0  0  0  0  0  0  0  0  0  0  0  0
   -3.3189   -1.5773   -0.9289 H   0  0  0  0  0  0  0  0  0  0  0  0
   -2.0549   -0.1280    1.4539 H   0  0  0  0  0  0  0  0  0  0  0  0
    1.0280    1.3537    1.7663 H   0  0  0  0  0  0  0  0  0  0  0  0
    3.0397    0.2896    0.1483 C   0  0  1  0  0  0  0  0  0  0  0  0
  4  1  1  0
  1 12  1  0
  5  2  1  0
  2 13  1  0
  3  9  1  0
  3 14  1  0
  5  4  1  0
  8  4  1  0
  4 15  1  6
 11  5  1  0
  5 16  1  1
  8 33  1  0
 33  7  1  0
 33  6  1  0
 33 17  1  1
  6 18  1  0
  6 19  1  0
  6 20  1  0
  7 21  1  0
  7 22  1  0
  7 23  1  0
  8 24  1  0
  8 25  1  0
 11  9  1  0
  9 26  1  0
  9 27  1  0
 11 10  1  0
 10 28  1  0
 10 29  1  0
 10 30  1  0
 11 31  1  1
  1 32  1  0
M  END
