
     RDKit          3D

 29 31  0  0  0  0  0  0  0  0999 V2000
   -2.4100    0.9304   -0.3415 C   0  0  0  0  0  0  0  0  0  0  0  0
   -3.7680    1.2345   -0.3422 C   0  0  0  0  0  0  0  0  0  0  0  0
   -4.1181    2.4974   -0.6481 O   0  0  0  0  0  0  0  0  0  0  0  0
   -4.7010    0.2476   -0.0357 C   0  0  0  0  0  0  0  0  0  0  0  0
   -4.2676   -1.0344    0.2685 C   0  0  0  0  0  0  0  0  0  0  0  0
   -2.9198   -1.3491    0.2684 C   0  0  0  0  0  0  0  0  0  0  0  0
   -1.9835   -0.3621   -0.0446 C   0  0  0  0  0  0  0  0  0  0  0  0
   -0.5515   -0.6899   -0.0684 C   0  0  0  0  0  0  0  0  0  0  0  0
    0.2281    0.3861    0.1099 O   0  0  0  0  0  0  0  0  0  0  0  0
    1.5742    0.2740    0.0883 C   0  0  0  0  0  0  0  0  0  0  0  0
    2.2924    1.4494    0.2630 C   0  0  0  0  0  0  0  0  0  0  0  0
    3.6774    1.3904    0.2560 C   0  0  0  0  0  0  0  0  0  0  0  0
    4.4444    2.4731    0.4203 O   0  0  0  0  0  0  0  0  0  0  0  0
    4.3332    0.1608    0.0725 C   0  0  0  0  0  0  0  0  0  0  0  0
    3.5973   -0.9846   -0.0965 C   0  0  0  0  0  0  0  0  0  0  0  0
    2.1965   -0.9579   -0.0922 C   0  0  0  0  0  0  0  0  0  0  0  0
    1.3892   -2.1625   -0.2737 C   0  0  0  0  0  0  0  0  0  0  0  0
    1.8795   -3.2747   -0.4314 O   0  0  0  0  0  0  0  0  0  0  0  0
   -0.0388   -1.9231   -0.2629 C   0  0  0  0  0  0  0  0  0  0  0  0
   -1.7027    1.7110   -0.5897 H   0  0  0  0  0  0  0  0  0  0  0  0
   -5.0762    2.5985   -0.6252 H   0  0  0  0  0  0  0  0  0  0  0  0
   -5.7606    0.4766   -0.0321 H   0  0  0  0  0  0  0  0  0  0  0  0
   -4.9956   -1.7952    0.5170 H   0  0  0  0  0  0  0  0  0  0  0  0
   -2.6032   -2.3481    0.5338 H   0  0  0  0  0  0  0  0  0  0  0  0
    1.7681    2.3869    0.4087 H   0  0  0  0  0  0  0  0  0  0  0  0
    3.9058    3.2658    0.5286 H   0  0  0  0  0  0  0  0  0  0  0  0
    5.4147    0.1288    0.0670 H   0  0  0  0  0  0  0  0  0  0  0  0
    4.1019   -1.9308   -0.2401 H   0  0  0  0  0  0  0  0  0  0  0  0
   -0.7049   -2.7574   -0.4311 H   0  0  0  0  0  0  0  0  0  0  0  0
 14 15  1  0
 14 12  2  0
 15 16  2  0
 13 12  1  0
 12 11  1  0
 18 17  2  0
 16 17  1  0
 16 10  1  0
 17 19  1  0
 11 10  2  0
 10  9  1  0
 19  8  2  0
  9  8  1  0
  8  7  1  0
  7  1  2  0
  7  6  1  0
  1  2  1  0
  6  5  2  0
  2  3  1  0
  2  4  2  0
  5  4  1  0
  1 20  1  0
  3 21  1  0
  4 22  1  0
  5 23  1  0
  6 24  1  0
 11 25  1  0
 13 26  1  0
 14 27  1  0
 15 28  1  0
 19 29  1  0
M  END
