
     RDKit          3D

 56 58  0  0  0  0  0  0  0  0999 V2000
    5.2201   -4.2602    0.6508 O   0  0  0  0  0  0  0  0  0  0  0  0
    4.9784   -3.6015   -0.3409 N   0  0  0  0  0  0  0  0  0  0  0  0
    5.2996   -3.9489   -1.4598 O   0  0  0  0  0  0  0  0  0  0  0  0
    4.2843   -2.3616   -0.1844 C   0  0  0  0  0  0  0  0  0  0  0  0
    3.9040   -1.9243    1.0811 C   0  0  0  0  0  0  0  0  0  0  0  0
    3.2305   -0.7359    1.2314 C   0  0  0  0  0  0  0  0  0  0  0  0
    3.9771   -1.5845   -1.2981 C   0  0  0  0  0  0  0  0  0  0  0  0
    3.3028   -0.3976   -1.1499 C   0  0  0  0  0  0  0  0  0  0  0  0
    2.9030    0.0782    0.1216 C   0  0  0  0  0  0  0  0  0  0  0  0
    2.2595    1.2667    0.2693 N   0  0  0  0  0  0  0  0  0  0  0  0
    1.7041    2.0266   -0.8340 C   0  0  0  0  0  0  0  0  0  0  0  0
    0.1929    1.8055   -0.9459 C   0  0  1  0  0  0  0  0  0  0  0  0
   -0.1452    0.3773   -1.3606 C   0  0  0  0  0  0  0  0  0  0  0  0
    1.6761    1.7157    1.5194 C   0  0  0  0  0  0  0  0  0  0  0  0
    0.1667    1.5181    1.5129 C   0  0  0  0  0  0  0  0  0  0  0  0
   -0.3875    2.2030    0.3473 N   0  0  0  0  0  0  0  0  0  0  0  0
   -1.9314    2.7760    0.4108 S   0  0  1  0  0  0  0  0  0  0  0  0
   -2.1243    3.3040    1.7521 O   0  0  0  0  0  0  0  0  0  0  0  0
   -2.1058    3.6506   -0.7376 O   0  0  0  0  0  0  0  0  0  0  0  0
   -3.0228    1.3984    0.2123 C   0  0  0  0  0  0  0  0  0  0  0  0
   -3.1842    0.4998    1.2615 C   0  0  0  0  0  0  0  0  0  0  0  0
   -3.9724   -0.6200    1.0747 C   0  0  0  0  0  0  0  0  0  0  0  0
   -3.6680    1.1906   -0.9953 C   0  0  0  0  0  0  0  0  0  0  0  0
   -4.4650    0.0656   -1.1588 C   0  0  0  0  0  0  0  0  0  0  0  0
   -4.6245   -0.8676   -0.1381 C   0  0  0  0  0  0  0  0  0  0  0  0
   -5.4669   -2.1264   -0.2963 C   0  0  1  0  0  0  0  0  0  0  0  0
   -6.5720   -2.1308    0.7682 C   0  0  0  0  0  0  0  0  0  0  0  0
   -6.1251   -2.2187   -1.6732 C   0  0  0  0  0  0  0  0  0  0  0  0
   -4.5639   -3.3531   -0.1072 C   0  0  0  0  0  0  0  0  0  0  0  0
    4.1270   -2.5088    1.9621 H   0  0  0  0  0  0  0  0  0  0  0  0
    2.9598   -0.4496    2.2356 H   0  0  0  0  0  0  0  0  0  0  0  0
    4.2563   -1.9019   -2.2924 H   0  0  0  0  0  0  0  0  0  0  0  0
    3.0866    0.1576   -2.0488 H   0  0  0  0  0  0  0  0  0  0  0  0
    1.8986    3.0859   -0.6495 H   0  0  0  0  0  0  0  0  0  0  0  0
    2.1781    1.7824   -1.7793 H   0  0  0  0  0  0  0  0  0  0  0  0
   -0.1676    2.4997   -1.7050 H   0  0  0  0  0  0  0  0  0  0  0  0
    0.2023   -0.3592   -0.6360 H   0  0  0  0  0  0  0  0  0  0  0  0
   -1.2170    0.2364   -1.4865 H   0  0  0  0  0  0  0  0  0  0  0  0
    0.3291    0.1487   -2.3150 H   0  0  0  0  0  0  0  0  0  0  0  0
    2.1034    1.2101    2.3784 H   0  0  0  0  0  0  0  0  0  0  0  0
    1.8982    2.7792    1.6357 H   0  0  0  0  0  0  0  0  0  0  0  0
   -0.0762    0.4496    1.5081 H   0  0  0  0  0  0  0  0  0  0  0  0
   -0.2437    1.9465    2.4243 H   0  0  0  0  0  0  0  0  0  0  0  0
   -2.7104    0.6623    2.2207 H   0  0  0  0  0  0  0  0  0  0  0  0
   -4.0774   -1.3116    1.9008 H   0  0  0  0  0  0  0  0  0  0  0  0
   -3.5555    1.8882   -1.8136 H   0  0  0  0  0  0  0  0  0  0  0  0
   -4.9585   -0.0692   -2.1110 H   0  0  0  0  0  0  0  0  0  0  0  0
   -7.2201   -1.2591    0.6655 H   0  0  0  0  0  0  0  0  0  0  0  0
   -7.1917   -3.0229    0.6618 H   0  0  0  0  0  0  0  0  0  0  0  0
   -6.1683   -2.1307    1.7812 H   0  0  0  0  0  0  0  0  0  0  0  0
   -5.3923   -2.2485   -2.4813 H   0  0  0  0  0  0  0  0  0  0  0  0
   -6.7121   -3.1367   -1.7325 H   0  0  0  0  0  0  0  0  0  0  0  0
   -6.8060   -1.3859   -1.8600 H   0  0  0  0  0  0  0  0  0  0  0  0
   -4.0887   -3.3662    0.8745 H   0  0  0  0  0  0  0  0  0  0  0  0
   -5.1496   -4.2698   -0.1986 H   0  0  0  0  0  0  0  0  0  0  0  0
   -3.7739   -3.3812   -0.8598 H   0  0  0  0  0  0  0  0  0  0  0  0
  1  2  1  0
  2  3  2  0
  2  4  1  0
  4  5  2  0
  4  7  1  0
  5  6  1  0
  5 30  1  0
  6  9  2  0
  6 31  1  0
  7  8  2  0
  7 32  1  0
  8  9  1  0
  8 33  1  0
  9 10  1  0
 10 11  1  0
 10 14  1  0
 11 12  1  0
 11 34  1  0
 11 35  1  0
 12 13  1  0
 12 16  1  0
 12 36  1  6
 13 37  1  0
 13 38  1  0
 13 39  1  0
 14 15  1  0
 14 40  1  0
 14 41  1  0
 15 16  1  0
 15 42  1  0
 15 43  1  0
 16 17  1  0
 17 18  2  0
 17 19  2  0
 17 20  1  6
 20 21  2  0
 20 23  1  0
 21 22  1  0
 21 44  1  0
 22 25  2  0
 22 45  1  0
 23 24  2  0
 23 46  1  0
 24 25  1  0
 24 47  1  0
 25 26  1  0
 26 27  1  1
 26 28  1  0
 26 29  1  0
 27 48  1  0
 27 49  1  0
 27 50  1  0
 28 51  1  0
 28 52  1  0
 28 53  1  0
 29 54  1  0
 29 55  1  0
 29 56  1  0
M  CHG  2   1  -1   2   1
M  END
