
     RDKit          3D

 24 24  0  0  0  0  0  0  0  0999 V2000
   -0.9512   -0.0971    2.5428 C   0  0  0  0  0  0  0  0  0  0  0  0
   -1.9016   -0.0947    1.5312 C   0  0  0  0  0  0  0  0  0  0  0  0
   -1.5231   -0.0684    0.1994 C   0  0  0  0  0  0  0  0  0  0  0  0
    0.4156   -0.0710    2.2092 C   0  0  0  0  0  0  0  0  0  0  0  0
    0.7837   -0.0452    0.8761 C   0  0  0  0  0  0  0  0  0  0  0  0
   -0.1754   -0.0440   -0.1485 C   0  0  0  0  0  0  0  0  0  0  0  0
    2.6537   -0.0455    2.9767 C   0  0  0  0  0  0  0  0  0  0  0  0
    0.2915   -0.0178   -1.5251 C   0  0  0  0  0  0  0  0  0  0  0  0
   -0.4663   -0.0178   -2.6306 C   0  0  0  0  0  0  0  0  0  0  0  0
    0.1517    0.0101   -3.9606 C   0  0  0  0  0  0  0  0  0  0  0  0
    1.3415    0.0343   -4.1860 O   0  0  0  0  0  0  0  0  0  0  0  0
   -0.7656    0.0057   -4.9261 O   0  0  0  0  0  0  0  0  0  0  0  0
   -1.2589   -0.1232    3.8484 O   0  0  0  0  0  0  0  0  0  0  0  0
    1.2675   -0.0740    3.2502 O   0  0  0  0  0  0  0  0  0  0  0  0
   -2.9543   -0.1139    1.7887 H   0  0  0  0  0  0  0  0  0  0  0  0
   -2.2930   -0.0668   -0.5602 H   0  0  0  0  0  0  0  0  0  0  0  0
    1.8305   -0.0255    0.6004 H   0  0  0  0  0  0  0  0  0  0  0  0
    3.1582   -0.0524    3.9397 H   0  0  0  0  0  0  0  0  0  0  0  0
    2.9751   -0.9201    2.4046 H   0  0  0  0  0  0  0  0  0  0  0  0
    2.9441    0.8578    2.4334 H   0  0  0  0  0  0  0  0  0  0  0  0
    1.3704    0.0033   -1.6486 H   0  0  0  0  0  0  0  0  0  0  0  0
   -1.5480   -0.0387   -2.5837 H   0  0  0  0  0  0  0  0  0  0  0  0
   -0.3316    0.0221   -5.7917 H   0  0  0  0  0  0  0  0  0  0  0  0
   -2.2159   -0.1406    3.9647 H   0  0  0  0  0  0  0  0  0  0  0  0
  1  2  2  0
  1  4  1  0
  1 13  1  0
  2  3  1  0
  2 15  1  0
  3  6  2  0
  3 16  1  0
  4  5  2  0
  4 14  1  0
  5  6  1  0
  5 17  1  0
  6  8  1  0
  7 14  1  0
  7 18  1  0
  7 19  1  0
  7 20  1  0
  8  9  2  0
  8 21  1  0
  9 10  1  0
  9 22  1  0
 10 11  2  0
 10 12  1  0
 12 23  1  0
 13 24  1  0
M  END
