
     RDKit          3D

 55 58  0  0  0  0  0  0  0  0999 V2000
    2.1234    0.1484   -2.8692 C   0  0  0  0  0  0  0  0  0  0  0  0
    1.8183   -0.0768   -1.3861 C   0  0  2  0  0  0  0  0  0  0  0  0
    0.5298   -0.8869   -1.2098 C   0  0  0  0  0  0  0  0  0  0  0  0
   -0.6396   -0.2389   -1.0470 C   0  0  0  0  0  0  0  0  0  0  0  0
   -0.6380    1.1294   -0.9233 N   0  0  0  0  0  0  0  0  0  0  0  0
    0.5409    1.7597   -0.6427 C   0  0  0  0  0  0  0  0  0  0  0  0
    1.6937    1.2505   -0.7831 N   0  0  0  0  0  0  0  0  0  0  0  0
    0.4279    3.1219   -0.1162 C   0  0  0  0  0  0  0  0  0  0  0  0
   -0.6934    3.7256    0.1173 N   0  0  0  0  0  0  0  0  0  0  0  0
   -0.4765    4.9784    0.6031 C   0  0  0  0  0  0  0  0  0  0  0  0
    0.8320    5.3271    0.7392 C   0  0  0  0  0  0  0  0  0  0  0  0
    1.8386    4.0393    0.2378 S   0  0  0  0  0  0  0  0  0  0  0  0
   -2.0270   -0.8209   -1.0310 C   0  0  0  0  0  0  0  0  0  0  0  0
   -2.7344   -0.3823    0.1476 N   0  0  0  0  0  0  0  0  0  0  0  0
   -2.3558   -1.0260    1.3981 C   0  0  0  0  0  0  0  0  0  0  0  0
   -3.6783   -1.4688    1.9927 C   0  0  1  0  0  0  0  0  0  0  0  0
   -4.6861   -0.4756    1.4650 C   0  0  0  0  0  0  0  0  0  0  0  0
   -4.1725   -0.2700    0.0358 C   0  0  1  0  0  0  0  0  0  0  0  0
   -4.5818    1.0742   -0.5307 C   0  0  0  0  0  0  0  0  0  0  0  0
   -3.8199    1.9440   -0.8680 O   0  0  0  0  0  0  0  0  0  0  0  0
   -5.8993    1.1724   -0.6117 O   0  0  0  0  0  0  0  0  0  0  0  0
   -3.9953   -2.7257    1.5492 F   0  0  0  0  0  0  0  0  0  0  0  0
   -3.6560   -1.5520    3.3474 F   0  0  0  0  0  0  0  0  0  0  0  0
    0.5996   -2.3607   -1.2114 C   0  0  0  0  0  0  0  0  0  0  0  0
   -0.0625   -3.1037   -0.5211 O   0  0  0  0  0  0  0  0  0  0  0  0
    1.5198   -2.8043   -2.0569 O   0  0  0  0  0  0  0  0  0  0  0  0
    1.8231   -4.1962   -2.0402 C   0  0  0  0  0  0  0  0  0  0  0  0
    2.9531   -0.7634   -0.6301 C   0  0  0  0  0  0  0  0  0  0  0  0
    4.1458   -1.1544   -1.2247 C   0  0  0  0  0  0  0  0  0  0  0  0
    5.1525   -1.7636   -0.4859 C   0  0  0  0  0  0  0  0  0  0  0  0
    4.9481   -1.9794    0.8611 C   0  0  0  0  0  0  0  0  0  0  0  0
    3.7765   -1.6052    1.4905 C   0  0  0  0  0  0  0  0  0  0  0  0
    2.7873   -0.9967    0.7337 C   0  0  0  0  0  0  0  0  0  0  0  0
    5.9164   -2.5706    1.5824 F   0  0  0  0  0  0  0  0  0  0  0  0
    2.3107   -0.7850   -3.3960 H   0  0  0  0  0  0  0  0  0  0  0  0
    1.2723    0.6370   -3.3439 H   0  0  0  0  0  0  0  0  0  0  0  0
    2.9918    0.7985   -2.9883 H   0  0  0  0  0  0  0  0  0  0  0  0
   -1.5118    1.5841   -0.6800 H   0  0  0  0  0  0  0  0  0  0  0  0
   -1.3145    5.6139    0.8494 H   0  0  0  0  0  0  0  0  0  0  0  0
    1.2387    6.2569    1.1034 H   0  0  0  0  0  0  0  0  0  0  0  0
   -2.5389   -0.4248   -1.9129 H   0  0  0  0  0  0  0  0  0  0  0  0
   -2.0079   -1.9058   -1.1420 H   0  0  0  0  0  0  0  0  0  0  0  0
   -1.6795   -1.8690    1.2394 H   0  0  0  0  0  0  0  0  0  0  0  0
   -1.8601   -0.3271    2.0784 H   0  0  0  0  0  0  0  0  0  0  0  0
   -5.7118   -0.8369    1.5072 H   0  0  0  0  0  0  0  0  0  0  0  0
   -4.6147    0.4445    2.0492 H   0  0  0  0  0  0  0  0  0  0  0  0
   -4.6068   -1.0444   -0.6140 H   0  0  0  0  0  0  0  0  0  0  0  0
   -6.1551    2.0381   -0.9649 H   0  0  0  0  0  0  0  0  0  0  0  0
    2.6302   -4.3336   -2.7537 H   0  0  0  0  0  0  0  0  0  0  0  0
    2.1566   -4.5181   -1.0535 H   0  0  0  0  0  0  0  0  0  0  0  0
    0.9664   -4.7978   -2.3435 H   0  0  0  0  0  0  0  0  0  0  0  0
    4.3133   -0.9966   -2.2812 H   0  0  0  0  0  0  0  0  0  0  0  0
    6.0780   -2.0689   -0.9566 H   0  0  0  0  0  0  0  0  0  0  0  0
    3.6377   -1.7829    2.5488 H   0  0  0  0  0  0  0  0  0  0  0  0
    1.8675   -0.7001    1.2234 H   0  0  0  0  0  0  0  0  0  0  0  0
 16 23  1  1
 10 11  2  0
 10  9  1  0
 17 16  1  0
 17 18  1  0
 20 19  2  0
 22 16  1  0
 16 15  1  0
 11 12  1  0
 19 21  1  0
 19 18  1  0
  9  8  2  0
 18 14  1  0
 15 14  1  0
 14 13  1  0
  8 12  1  0
  8  6  1  0
  5  6  1  0
  5  4  1  0
  6  7  2  0
 13  4  1  0
  4  3  2  0
  7  2  1  0
  3  2  1  0
  3 24  1  0
 33 32  2  0
 33 28  1  0
  2 28  1  0
  2  1  1  6
 32 31  1  0
 25 24  2  0
 24 26  1  0
 28 29  2  0
 31 34  1  0
 31 30  2  0
 26 27  1  0
 29 30  1  0
  1 35  1  0
  1 36  1  0
  1 37  1  0
  5 38  1  0
 10 39  1  0
 11 40  1  0
 13 41  1  0
 13 42  1  0
 15 43  1  0
 15 44  1  0
 17 45  1  0
 17 46  1  0
 18 47  1  6
 21 48  1  0
 27 49  1  0
 27 50  1  0
 27 51  1  0
 29 52  1  0
 30 53  1  0
 32 54  1  0
 33 55  1  0
M  END
