
     RDKit          3D

 33 34  0  0  0  0  0  0  0  0999 V2000
    4.2101    0.2636    0.0409 C   0  0  0  0  0  0  0  0  0  0  0  0
    3.5211   -0.2067    1.1671 C   0  0  0  0  0  0  0  0  0  0  0  0
    2.2059   -0.6232    1.0660 C   0  0  0  0  0  0  0  0  0  0  0  0
    2.2110   -0.1193   -1.2673 C   0  0  0  0  0  0  0  0  0  0  0  0
    3.5264    0.3002   -1.1820 C   0  0  0  0  0  0  0  0  0  0  0  0
    1.5271   -0.5896   -0.1494 C   0  0  0  0  0  0  0  0  0  0  0  0
    0.0892   -1.0004   -0.2399 C   0  0  0  0  0  0  0  0  0  0  0  0
    5.5327    0.6252    0.1210 N   0  0  0  0  0  0  0  0  0  0  0  0
   -0.7783    0.1512   -0.0017 N   0  0  0  0  0  0  0  0  0  0  0  0
   -2.0927    0.1245    0.0126 C   0  0  0  0  0  0  0  0  0  0  0  0
   -2.7516   -0.9847   -0.2181 N   0  0  0  0  0  0  0  0  0  0  0  0
   -2.8184    1.3933    0.3348 C   0  0  0  0  0  0  0  0  0  0  0  0
   -4.2835    1.3542   -0.0710 C   0  0  0  0  0  0  0  0  0  0  0  0
   -4.9013    0.0462    0.3939 C   0  0  0  0  0  0  0  0  0  0  0  0
   -4.2056   -1.1200   -0.2753 C   0  0  0  0  0  0  0  0  0  0  0  0
    4.0247   -0.2446    2.1259 H   0  0  0  0  0  0  0  0  0  0  0  0
    1.6995   -0.9820    1.9546 H   0  0  0  0  0  0  0  0  0  0  0  0
    1.7089   -0.0823   -2.2275 H   0  0  0  0  0  0  0  0  0  0  0  0
    4.0352    0.6553   -2.0702 H   0  0  0  0  0  0  0  0  0  0  0  0
   -0.1308   -1.4137   -1.2279 H   0  0  0  0  0  0  0  0  0  0  0  0
   -0.1325   -1.7737    0.5006 H   0  0  0  0  0  0  0  0  0  0  0  0
    5.8743    0.8708    1.0359 H   0  0  0  0  0  0  0  0  0  0  0  0
    5.8675    1.2521   -0.5924 H   0  0  0  0  0  0  0  0  0  0  0  0
   -0.3335    1.0360    0.1927 H   0  0  0  0  0  0  0  0  0  0  0  0
   -2.2308   -1.8208   -0.4443 H   0  0  0  0  0  0  0  0  0  0  0  0
   -2.7291    1.5403    1.4151 H   0  0  0  0  0  0  0  0  0  0  0  0
   -2.2916    2.2239   -0.1364 H   0  0  0  0  0  0  0  0  0  0  0  0
   -4.3767    1.4499   -1.1556 H   0  0  0  0  0  0  0  0  0  0  0  0
   -4.7968    2.2075    0.3706 H   0  0  0  0  0  0  0  0  0  0  0  0
   -5.9625    0.0014    0.1504 H   0  0  0  0  0  0  0  0  0  0  0  0
   -4.8157   -0.0396    1.4803 H   0  0  0  0  0  0  0  0  0  0  0  0
   -4.4998   -1.1945   -1.3243 H   0  0  0  0  0  0  0  0  0  0  0  0
   -4.4618   -2.0625    0.2057 H   0  0  0  0  0  0  0  0  0  0  0  0
  1  2  2  0
  1  5  1  0
  1  8  1  0
  2  3  1  0
  2 16  1  0
  3  6  2  0
  3 17  1  0
  4  5  2  0
  4  6  1  0
  4 18  1  0
  5 19  1  0
  6  7  1  0
  7  9  1  0
  7 20  1  0
  7 21  1  0
  8 22  1  0
  8 23  1  0
  9 10  1  0
  9 24  1  0
 10 11  2  0
 10 12  1  0
 11 15  1  0
 11 25  1  0
 12 13  1  0
 12 26  1  0
 12 27  1  0
 13 14  1  0
 13 28  1  0
 13 29  1  0
 14 15  1  0
 14 30  1  0
 14 31  1  0
 15 32  1  0
 15 33  1  0
M  CHG  1  11   1
M  END
