
     RDKit          3D

 23 25  0  0  0  0  0  0  0  0999 V2000
    3.7337   -0.5651   -0.2664 C   0  0  0  0  0  0  0  0  0  0  0  0
    2.4387   -1.0462   -0.2441 C   0  0  0  0  0  0  0  0  0  0  0  0
    4.0537    0.7101   -0.0649 N   0  0  0  0  0  0  0  0  0  0  0  0
    3.0510    1.5460    0.1709 C   0  0  0  0  0  0  0  0  0  0  0  0
    1.7166    1.1724    0.2181 C   0  0  0  0  0  0  0  0  0  0  0  0
    1.3798   -0.1667    0.0076 C   0  0  0  0  0  0  0  0  0  0  0  0
    0.0281   -0.6943    0.0586 C   0  0  0  0  0  0  0  0  0  0  0  0
   -1.1419    0.0203   -0.0004 N   0  0  0  0  0  0  0  0  0  0  0  0
   -1.2696    1.3346   -0.1436 N   0  0  0  0  0  0  0  0  0  0  0  0
   -2.4882    1.7823   -0.1933 C   0  0  0  0  0  0  0  0  0  0  0  0
   -3.6459    0.9712   -0.1096 C   0  0  0  0  0  0  0  0  0  0  0  0
   -0.3947   -2.0065    0.1875 C   0  0  0  0  0  0  0  0  0  0  0  0
   -1.7332   -2.1169    0.2063 N   0  0  0  0  0  0  0  0  0  0  0  0
   -2.1857   -0.8813    0.0869 C   0  0  0  0  0  0  0  0  0  0  0  0
   -3.4941   -0.3745    0.0319 C   0  0  0  0  0  0  0  0  0  0  0  0
    4.5535   -1.2468   -0.4636 H   0  0  0  0  0  0  0  0  0  0  0  0
    2.2658   -2.0970   -0.4320 H   0  0  0  0  0  0  0  0  0  0  0  0
    3.3147    2.5849    0.3364 H   0  0  0  0  0  0  0  0  0  0  0  0
    0.9673    1.9217    0.4173 H   0  0  0  0  0  0  0  0  0  0  0  0
   -2.5766    2.8540   -0.3068 H   0  0  0  0  0  0  0  0  0  0  0  0
   -4.6219    1.4305   -0.1609 H   0  0  0  0  0  0  0  0  0  0  0  0
    0.2398   -2.8754    0.2821 H   0  0  0  0  0  0  0  0  0  0  0  0
   -4.3311   -1.0552    0.0992 H   0  0  0  0  0  0  0  0  0  0  0  0
  1  2  2  0
  1  3  1  0
  2  6  1  0
  3  4  2  0
 12  7  2  0
 12 13  1  0
  6  7  1  0
  6  5  2  0
  7  8  1  0
  4  5  1  0
 13 14  2  0
  8 14  1  0
  8  9  1  0
 14 15  1  0
  9 10  2  0
 15 11  2  0
 10 11  1  0
  1 16  1  0
  2 17  1  0
  4 18  1  0
  5 19  1  0
 10 20  1  0
 11 21  1  0
 12 22  1  0
 15 23  1  0
M  END
