
     RDKit          3D

 18 18  0  0  0  0  0  0  0  0999 V2000
   -2.4991   -0.5471   -0.7935 C   0  0  0  0  0  0  0  0  0  0  0  0
   -3.4172   -1.0380    0.4918 S   0  0  0  0  0  0  0  0  0  0  0  0
   -1.3296    0.0590   -0.7563 N   0  0  0  0  0  0  0  0  0  0  0  0
   -0.6042    0.4211    0.4437 C   0  0  0  0  0  0  0  0  0  0  0  0
    0.8692    0.1973    0.2676 C   0  0  0  0  0  0  0  0  0  0  0  0
    1.3850   -1.0660   -0.0038 C   0  0  0  0  0  0  0  0  0  0  0  0
    2.7531   -1.2172   -0.1466 C   0  0  0  0  0  0  0  0  0  0  0  0
    3.5614   -0.0962   -0.0114 C   0  0  0  0  0  0  0  0  0  0  0  0
    3.0849    1.1148    0.2460 N   0  0  0  0  0  0  0  0  0  0  0  0
    1.7705    1.2486    0.3776 C   0  0  0  0  0  0  0  0  0  0  0  0
   -2.8421   -0.7135   -1.8119 H   0  0  0  0  0  0  0  0  0  0  0  0
   -0.8041    1.4652    0.6971 H   0  0  0  0  0  0  0  0  0  0  0  0
   -0.9932   -0.1871    1.2615 H   0  0  0  0  0  0  0  0  0  0  0  0
    0.7254   -1.9203   -0.0987 H   0  0  0  0  0  0  0  0  0  0  0  0
    3.1909   -2.1832   -0.3570 H   0  0  0  0  0  0  0  0  0  0  0  0
    4.6371   -0.1835   -0.1165 H   0  0  0  0  0  0  0  0  0  0  0  0
    1.4056    2.2502    0.5844 H   0  0  0  0  0  0  0  0  0  0  0  0
   -0.9180    0.3242   -1.6395 H   0  0  0  0  0  0  0  0  0  0  0  0
  1  2  2  0
  1  3  1  0
  3  4  1  0
  4  5  1  0
  6  5  2  0
  6  7  1  0
  5 10  1  0
  7  8  2  0
 10  9  2  0
  8  9  1  0
  1 11  1  0
  4 12  1  0
  4 13  1  0
  6 14  1  0
  7 15  1  0
  8 16  1  0
 10 17  1  0
  3 18  1  0
M  END
