
     RDKit          3D

 36 36  0  0  0  0  0  0  0  0999 V2000
    1.9865   -1.9976    5.7946 O   0  0  0  0  0  0  0  0  0  0  0  0
    0.8735   -1.8772    4.6756 P   0  0  2  0  0  0  0  0  0  0  0  0
   -0.2496   -1.2079    5.5733 O   0  0  0  0  0  0  0  0  0  0  0  0
    0.5126   -3.0611    3.8800 O   0  0  0  0  0  0  0  0  0  0  0  0
    1.4167   -0.6417    3.7510 O   0  0  0  0  0  0  0  0  0  0  0  0
    1.5061   -0.7132    2.3998 C   0  0  0  0  0  0  0  0  0  0  0  0
    2.4470   -1.5335    1.7963 C   0  0  0  0  0  0  0  0  0  0  0  0
    3.1883   -2.3650    2.5790 O   0  0  0  0  0  0  0  0  0  0  0  0
    4.7277   -2.0453    2.9701 P   0  0  1  0  0  0  0  0  0  0  0  0
    4.6273   -1.8736    4.5634 O   0  0  0  0  0  0  0  0  0  0  0  0
    5.2859   -3.5134    2.7861 O   0  0  0  0  0  0  0  0  0  0  0  0
    5.3457   -0.9244    2.2494 O   0  0  0  0  0  0  0  0  0  0  0  0
    2.5914   -1.5393    0.4136 C   0  0  0  0  0  0  0  0  0  0  0  0
    3.5338   -2.3931   -0.0748 O   0  0  0  0  0  0  0  0  0  0  0  0
    4.4262   -2.0987   -1.3910 P   0  0  1  0  0  0  0  0  0  0  0  0
    4.9915   -0.6406   -1.0949 O   0  0  0  0  0  0  0  0  0  0  0  0
    5.5852   -3.1212   -1.0385 O   0  0  0  0  0  0  0  0  0  0  0  0
    3.7440   -2.2602   -2.6869 O   0  0  0  0  0  0  0  0  0  0  0  0
    1.7777   -0.7345   -0.3670 C   0  0  0  0  0  0  0  0  0  0  0  0
    0.8361    0.0859    0.2361 C   0  0  0  0  0  0  0  0  0  0  0  0
    0.6966    0.0971    1.6117 C   0  0  0  0  0  0  0  0  0  0  0  0
   -0.1950    0.9246    2.2442 O   0  0  0  0  0  0  0  0  0  0  0  0
   -1.7727    0.5682    2.2319 P   0  0  1  0  0  0  0  0  0  0  0  0
   -1.7887   -0.7854    3.0790 O   0  0  0  0  0  0  0  0  0  0  0  0
   -2.3124    1.6299    3.2762 O   0  0  0  0  0  0  0  0  0  0  0  0
   -2.3970    0.5168    0.9004 O   0  0  0  0  0  0  0  0  0  0  0  0
    2.8821   -2.2048    5.4789 H   0  0  0  0  0  0  0  0  0  0  0  0
   -1.1083   -1.1448    5.1285 H   0  0  0  0  0  0  0  0  0  0  0  0
    4.9122   -1.0049    4.8824 H   0  0  0  0  0  0  0  0  0  0  0  0
    6.2265   -3.6172    2.9893 H   0  0  0  0  0  0  0  0  0  0  0  0
    1.8541   -0.7456   -1.4455 H   0  0  0  0  0  0  0  0  0  0  0  0
    4.9913   -0.0554   -1.8643 H   0  0  0  0  0  0  0  0  0  0  0  0
    6.0872   -3.4251   -1.8068 H   0  0  0  0  0  0  0  0  0  0  0  0
    0.2116    0.7228   -0.3752 H   0  0  0  0  0  0  0  0  0  0  0  0
   -2.4288   -1.4423    2.7708 H   0  0  0  0  0  0  0  0  0  0  0  0
   -2.6842    2.4333    2.8875 H   0  0  0  0  0  0  0  0  0  0  0  0
  2  1  1  1
  2  3  1  0
  2  4  2  0
  2  5  1  0
  5  6  1  0
  6  7  2  0
  7  8  1  0
  9  8  1  6
  9 10  1  0
  9 11  1  0
  9 12  2  0
  7 13  1  0
 13 14  1  0
 15 14  1  1
 15 16  1  0
 15 17  1  0
 15 18  2  0
 13 19  2  0
 19 20  1  0
  6 21  1  0
 20 21  2  0
 21 22  1  0
 23 22  1  6
 23 24  1  0
 23 25  1  0
 23 26  2  0
  1 27  1  0
  3 28  1  0
 10 29  1  0
 11 30  1  0
 19 31  1  0
 16 32  1  0
 17 33  1  0
 20 34  1  0
 24 35  1  0
 25 36  1  0
M  END
