
     RDKit          3D

 12 11  0  0  0  0  0  0  0  0999 V2000
    0.9372   -0.1842    0.5072 C   0  0  0  0  0  0  0  0  0  0  0  0
    0.7036   -0.8753    1.8276 C   0  0  0  0  0  0  0  0  0  0  0  0
    0.0277   -1.8939    1.9157 O   0  0  0  0  0  0  0  0  0  0  0  0
    1.2853   -0.3081    2.8932 N   0  0  0  0  0  0  0  0  0  0  0  0
    1.1592   -0.8481    4.2257 C   0  0  0  0  0  0  0  0  0  0  0  0
    1.8265    0.5297    2.7678 H   0  0  0  0  0  0  0  0  0  0  0  0
    1.4518   -0.8652   -0.1709 H   0  0  0  0  0  0  0  0  0  0  0  0
   -0.0216    0.0627    0.0518 H   0  0  0  0  0  0  0  0  0  0  0  0
    1.5255    0.7279    0.5892 H   0  0  0  0  0  0  0  0  0  0  0  0
    0.1231   -0.8468    4.5662 H   0  0  0  0  0  0  0  0  0  0  0  0
    1.7421   -0.2315    4.9037 H   0  0  0  0  0  0  0  0  0  0  0  0
    1.5354   -1.8699    4.2831 H   0  0  0  0  0  0  0  0  0  0  0  0
  1  2  1  0
  1  7  1  0
  1  8  1  0
  1  9  1  0
  2  4  1  0
  2  3  2  0
  4  6  1  0
  4  5  1  0
  5 10  1  0
  5 11  1  0
  5 12  1  0
M  END
