
     RDKit          3D

 16 16  0  0  0  0  0  0  0  0999 V2000
   -0.1045    1.7031    0.0774 C   0  0  0  0  0  0  0  0  0  0  0  0
    1.1477    1.1268    0.0838 C   0  0  0  0  0  0  0  0  0  0  0  0
    1.2355   -0.2690   -0.0007 C   0  0  0  0  0  0  0  0  0  0  0  0
    0.0594   -0.9851   -0.0907 C   0  0  0  0  0  0  0  0  0  0  0  0
   -1.1710   -0.3026   -0.0943 C   0  0  0  0  0  0  0  0  0  0  0  0
   -1.2460    1.0228   -0.0076 N   0  0  0  0  0  0  0  0  0  0  0  0
   -2.3440   -0.9856   -0.2348 N   0  0  0  0  0  0  0  0  0  0  0  0
    2.5666   -0.9552    0.0137 C   0  0  0  0  0  0  0  0  0  0  0  0
   -0.2028    2.7818    0.1454 H   0  0  0  0  0  0  0  0  0  0  0  0
    2.0338    1.7434    0.1571 H   0  0  0  0  0  0  0  0  0  0  0  0
    0.0769   -2.0667   -0.1571 H   0  0  0  0  0  0  0  0  0  0  0  0
   -3.1810   -0.4984    0.0401 H   0  0  0  0  0  0  0  0  0  0  0  0
   -2.3435   -1.9664   -0.0113 H   0  0  0  0  0  0  0  0  0  0  0  0
    3.0870   -0.7687    0.9542 H   0  0  0  0  0  0  0  0  0  0  0  0
    2.4670   -2.0323   -0.1098 H   0  0  0  0  0  0  0  0  0  0  0  0
    3.2073   -0.5773   -0.7840 H   0  0  0  0  0  0  0  0  0  0  0  0
  1  2  2  0
  1  6  1  0
  1  9  1  0
  2  3  1  0
  2 10  1  0
  3  4  2  0
  3  8  1  0
  4  5  1  0
  4 11  1  0
  5  6  2  0
  5  7  1  0
  7 12  1  0
  7 13  1  0
  8 14  1  0
  8 15  1  0
  8 16  1  0
M  END
