
     RDKit          3D

 18 18  0  0  0  0  0  0  0  0999 V2000
   -2.1234    0.1241    0.1253 C   0  0  0  0  0  0  0  0  0  0  0  0
   -1.4795   -1.1152    0.1091 C   0  0  0  0  0  0  0  0  0  0  0  0
   -0.1011   -1.1740    0.0689 C   0  0  0  0  0  0  0  0  0  0  0  0
    0.6727   -0.0113    0.0428 C   0  0  0  0  0  0  0  0  0  0  0  0
    0.0127    1.2200    0.0604 C   0  0  0  0  0  0  0  0  0  0  0  0
   -1.3660    1.2953    0.1024 C   0  0  0  0  0  0  0  0  0  0  0  0
   -3.4569    0.2437    0.1615 O   0  0  0  0  0  0  0  0  0  0  0  0
    2.6948   -1.2047   -0.0073 O   0  0  0  0  0  0  0  0  0  0  0  0
    2.1491   -0.1178   -0.0046 C   0  0  0  0  0  0  0  0  0  0  0  0
    2.9532    1.1539   -0.0541 C   0  0  0  0  0  0  0  0  0  0  0  0
   -2.0599   -2.0307    0.1280 H   0  0  0  0  0  0  0  0  0  0  0  0
    0.3821   -2.1421    0.0557 H   0  0  0  0  0  0  0  0  0  0  0  0
    0.5760    2.1439    0.0406 H   0  0  0  0  0  0  0  0  0  0  0  0
   -1.8623    2.2572    0.1158 H   0  0  0  0  0  0  0  0  0  0  0  0
   -3.8779   -0.6240    0.1663 H   0  0  0  0  0  0  0  0  0  0  0  0
    4.0168    0.9285   -0.0816 H   0  0  0  0  0  0  0  0  0  0  0  0
    2.6966    1.7418   -0.9371 H   0  0  0  0  0  0  0  0  0  0  0  0
    2.7504    1.7823    0.8146 H   0  0  0  0  0  0  0  0  0  0  0  0
  1  2  2  0
  1  6  1  0
  1  7  1  0
  2  3  1  0
  2 11  1  0
  3  4  2  0
  3 12  1  0
  4  5  1  0
  4  9  1  0
  5  6  2  0
  5 13  1  0
  6 14  1  0
  7 15  1  0
  8  9  2  0
  9 10  1  0
 10 16  1  0
 10 17  1  0
 10 18  1  0
M  END
