
     RDKit          3D

 42 41  0  0  0  0  0  0  0  0999 V2000
   -0.5850    1.0611   -6.8172 O   0  0  0  0  0  0  0  0  0  0  0  0
   -1.0394    1.5940   -5.6888 C   0  0  0  0  0  0  0  0  0  0  0  0
   -1.4648    2.7183   -5.6144 O   0  0  0  0  0  0  0  0  0  0  0  0
   -0.9760    0.5935   -4.5628 C   0  0  0  0  0  0  0  0  0  0  0  0
   -1.0806    1.1711   -3.1572 C   0  0  1  0  0  0  0  0  0  0  0  0
    0.0428    2.1251   -2.8055 C   0  0  0  0  0  0  0  0  0  0  0  0
   -2.3154    1.8841   -2.9741 O   0  0  0  0  0  0  0  0  0  0  0  0
   -3.4312    1.2023   -2.7721 C   0  0  0  0  0  0  0  0  0  0  0  0
   -3.4892   -0.0011   -2.7099 O   0  0  0  0  0  0  0  0  0  0  0  0
   -4.6229    2.1114   -2.6127 C   0  0  0  0  0  0  0  0  0  0  0  0
   -5.8434    1.5588   -3.3287 C   0  0  1  0  0  0  0  0  0  0  0  0
   -7.0107    2.5234   -3.2660 C   0  0  0  0  0  0  0  0  0  0  0  0
   -5.4117    1.3588   -4.6874 O   0  0  0  0  0  0  0  0  0  0  0  0
   -6.0672    0.5145   -5.4697 C   0  0  0  0  0  0  0  0  0  0  0  0
   -7.0461   -0.1002   -5.1244 O   0  0  0  0  0  0  0  0  0  0  0  0
   -5.4147    0.3829   -6.8203 C   0  0  0  0  0  0  0  0  0  0  0  0
   -4.9956    1.7136   -7.4467 C   0  0  1  0  0  0  0  0  0  0  0  0
   -4.4522    1.4929   -8.8497 C   0  0  0  0  0  0  0  0  0  0  0  0
   -6.0640    2.6370   -7.4313 O   0  0  0  0  0  0  0  0  0  0  0  0
   -0.5958    1.8834   -7.9843 C   0  0  0  0  0  0  0  0  0  0  0  0
   -0.0418    0.0314   -4.6304 H   0  0  0  0  0  0  0  0  0  0  0  0
   -1.7659   -0.1456   -4.7283 H   0  0  0  0  0  0  0  0  0  0  0  0
   -1.0532    0.3286   -2.4620 H   0  0  0  0  0  0  0  0  0  0  0  0
    0.0739    2.9940   -3.4613 H   0  0  0  0  0  0  0  0  0  0  0  0
    0.9960    1.6029   -2.8866 H   0  0  0  0  0  0  0  0  0  0  0  0
   -0.0544    2.4735   -1.7774 H   0  0  0  0  0  0  0  0  0  0  0  0
   -4.3925    3.1178   -2.9654 H   0  0  0  0  0  0  0  0  0  0  0  0
   -4.8487    2.1900   -1.5454 H   0  0  0  0  0  0  0  0  0  0  0  0
   -6.1225    0.5972   -2.8937 H   0  0  0  0  0  0  0  0  0  0  0  0
   -6.7493    3.4812   -3.7173 H   0  0  0  0  0  0  0  0  0  0  0  0
   -7.2826    2.7027   -2.2257 H   0  0  0  0  0  0  0  0  0  0  0  0
   -7.8886    2.1268   -3.7725 H   0  0  0  0  0  0  0  0  0  0  0  0
   -6.1047   -0.1467   -7.4815 H   0  0  0  0  0  0  0  0  0  0  0  0
   -4.5371   -0.2628   -6.7089 H   0  0  0  0  0  0  0  0  0  0  0  0
   -4.2124    2.1645   -6.8325 H   0  0  0  0  0  0  0  0  0  0  0  0
   -5.2139    1.0588   -9.5021 H   0  0  0  0  0  0  0  0  0  0  0  0
   -3.6019    0.8096   -8.8388 H   0  0  0  0  0  0  0  0  0  0  0  0
   -4.1208    2.4334   -9.2907 H   0  0  0  0  0  0  0  0  0  0  0  0
   -6.7465    2.3218   -8.0343 H   0  0  0  0  0  0  0  0  0  0  0  0
   -0.2124    1.2639   -8.7895 H   0  0  0  0  0  0  0  0  0  0  0  0
    0.0466    2.7549   -7.8613 H   0  0  0  0  0  0  0  0  0  0  0  0
   -1.6030    2.2163   -8.2343 H   0  0  0  0  0  0  0  0  0  0  0  0
  1  2  1  0
  1 20  1  0
  2  3  2  0
  2  4  1  0
  4  5  1  0
  4 21  1  0
  4 22  1  0
  5  6  1  0
  5  7  1  0
  5 23  1  1
  6 24  1  0
  6 25  1  0
  6 26  1  0
  7  8  1  0
  8  9  2  0
  8 10  1  0
 10 11  1  0
 10 27  1  0
 10 28  1  0
 11 12  1  0
 11 13  1  0
 11 29  1  1
 12 30  1  0
 12 31  1  0
 12 32  1  0
 13 14  1  0
 14 15  2  0
 14 16  1  0
 16 17  1  0
 16 33  1  0
 16 34  1  0
 17 18  1  0
 17 19  1  0
 17 35  1  1
 18 36  1  0
 18 37  1  0
 18 38  1  0
 19 39  1  0
 20 40  1  0
 20 41  1  0
 20 42  1  0
M  END
