
     RDKit          3D

 61 66  0  0  0  0  0  0  0  0999 V2000
   -7.9987    2.0825    1.3202 C   0  0  0  0  0  0  0  0  0  0  0  0
   -9.0900    1.9750    0.4687 C   0  0  0  0  0  0  0  0  0  0  0  0
   -9.1272    0.9696   -0.4870 C   0  0  0  0  0  0  0  0  0  0  0  0
   -8.0681    0.0872   -0.5669 C   0  0  0  0  0  0  0  0  0  0  0  0
   -6.9630    0.1523    0.2734 C   0  0  0  0  0  0  0  0  0  0  0  0
   -6.9520    1.1785    1.2198 C   0  0  0  0  0  0  0  0  0  0  0  0
   -5.8354   -0.7937    0.1654 C   0  0  0  0  0  0  0  0  0  0  0  0
   -4.5300   -0.3257    0.0971 C   0  0  0  0  0  0  0  0  0  0  0  0
   -3.5017   -1.2585    0.0338 C   0  0  0  0  0  0  0  0  0  0  0  0
   -2.0741   -1.2122   -0.0482 C   0  0  0  0  0  0  0  0  0  0  0  0
   -1.6402   -2.5117   -0.0821 C   0  0  0  0  0  0  0  0  0  0  0  0
   -2.7276   -3.3528   -0.0276 N   0  0  0  0  0  0  0  0  0  0  0  0
   -3.8640   -2.6241    0.0427 C   0  0  0  0  0  0  0  0  0  0  0  0
   -5.0998   -3.0946    0.1132 N   0  0  0  0  0  0  0  0  0  0  0  0
   -6.0553   -2.1848    0.1720 C   0  0  0  0  0  0  0  0  0  0  0  0
   -1.3575   -0.0217   -0.0842 N   0  0  0  0  0  0  0  0  0  0  0  0
   -0.0013    0.0854   -0.0896 C   0  0  0  0  0  0  0  0  0  0  0  0
    0.7199   -0.9023   -0.0591 O   0  0  0  0  0  0  0  0  0  0  0  0
    0.5219    1.4451   -0.1387 C   0  0  0  0  0  0  0  0  0  0  0  0
   -0.1562    2.6824   -0.1837 C   0  0  0  0  0  0  0  0  0  0  0  0
    0.6500    3.7154   -0.2362 N   0  0  0  0  0  0  0  0  0  0  0  0
    1.8827    3.1719   -0.2259 N   0  0  0  0  0  0  0  0  0  0  0  0
    1.8771    1.7997   -0.1665 C   0  0  0  0  0  0  0  0  0  0  0  0
    3.0033    1.0897   -0.1503 N   0  0  0  0  0  0  0  0  0  0  0  0
    4.1480    1.7486   -0.1898 C   0  0  0  0  0  0  0  0  0  0  0  0
    4.2040    3.1830   -0.2664 C   0  0  0  0  0  0  0  0  0  0  0  0
    3.0438    3.8689   -0.2804 C   0  0  0  0  0  0  0  0  0  0  0  0
    5.2914    1.0578   -0.1473 N   0  0  0  0  0  0  0  0  0  0  0  0
    5.3438   -0.3860   -0.0764 C   0  0  0  0  0  0  0  0  0  0  0  0
    6.7044   -0.9003    0.3845 C   0  0  1  0  0  0  0  0  0  0  0  0
    6.5946   -2.3846    0.7511 C   0  0  0  0  0  0  0  0  0  0  0  0
    7.9457   -2.9526    1.1744 C   0  0  0  0  0  0  0  0  0  0  0  0
    8.9968   -2.7548    0.1898 N   0  0  0  0  0  0  0  0  0  0  0  0
    9.1168   -1.3620   -0.1909 C   0  0  0  0  0  0  0  0  0  0  0  0
    7.7986   -0.7588   -0.6602 C   0  0  2  0  0  0  0  0  0  0  0  0
    8.0216    0.5993   -0.9497 F   0  0  0  0  0  0  0  0  0  0  0  0
   -8.1043   -0.8638   -1.5158 F   0  0  0  0  0  0  0  0  0  0  0  0
   -7.9648    2.8635    2.0674 H   0  0  0  0  0  0  0  0  0  0  0  0
   -9.9147    2.6710    0.5441 H   0  0  0  0  0  0  0  0  0  0  0  0
   -9.9625    0.8740   -1.1684 H   0  0  0  0  0  0  0  0  0  0  0  0
   -6.1100    1.2552    1.8964 H   0  0  0  0  0  0  0  0  0  0  0  0
   -4.3371    0.7410    0.0828 H   0  0  0  0  0  0  0  0  0  0  0  0
   -0.6467   -2.9153   -0.1410 H   0  0  0  0  0  0  0  0  0  0  0  0
   -2.6757   -4.3581   -0.0330 H   0  0  0  0  0  0  0  0  0  0  0  0
   -7.0672   -2.5656    0.2525 H   0  0  0  0  0  0  0  0  0  0  0  0
   -1.9102    0.8188   -0.1149 H   0  0  0  0  0  0  0  0  0  0  0  0
   -1.2227    2.8582   -0.1790 H   0  0  0  0  0  0  0  0  0  0  0  0
    5.1471    3.7080   -0.3059 H   0  0  0  0  0  0  0  0  0  0  0  0
    2.9691    4.9450   -0.3310 H   0  0  0  0  0  0  0  0  0  0  0  0
    6.1526    1.5623   -0.2744 H   0  0  0  0  0  0  0  0  0  0  0  0
    4.5817   -0.7211    0.6292 H   0  0  0  0  0  0  0  0  0  0  0  0
    5.0874   -0.8347   -1.0439 H   0  0  0  0  0  0  0  0  0  0  0  0
    7.0059   -0.3485    1.2847 H   0  0  0  0  0  0  0  0  0  0  0  0
    5.8689   -2.5062    1.5588 H   0  0  0  0  0  0  0  0  0  0  0  0
    6.2097   -2.9506   -0.1048 H   0  0  0  0  0  0  0  0  0  0  0  0
    8.2590   -2.4730    2.1074 H   0  0  0  0  0  0  0  0  0  0  0  0
    7.8566   -4.0198    1.3831 H   0  0  0  0  0  0  0  0  0  0  0  0
    8.8008   -3.3155   -0.6309 H   0  0  0  0  0  0  0  0  0  0  0  0
    9.4766   -0.7908    0.6718 H   0  0  0  0  0  0  0  0  0  0  0  0
    9.8674   -1.2665   -0.9779 H   0  0  0  0  0  0  0  0  0  0  0  0
    7.4784   -1.2330   -1.5949 H   0  0  0  0  0  0  0  0  0  0  0  0
 18 17  2  0
 11 12  1  0
 11 10  2  0
 12 13  1  0
 20 21  2  0
 20 19  1  0
 17 19  1  0
 17 16  1  0
 21 22  1  0
 19 23  2  0
 10 16  1  0
 10  9  1  0
 13 14  2  0
 13  9  1  0
 14 15  1  0
  9  8  2  0
 22 23  1  0
 22 27  1  0
 23 24  1  0
 15  7  2  0
  8  7  1  0
 27 26  2  0
 24 25  2  0
  7  5  1  0
 25 26  1  0
 25 28  1  0
 37  4  1  0
  5  4  2  0
  5  6  1  0
 28 29  1  0
 36 35  1  0
  4  3  1  0
 29 30  1  0
  6  1  2  0
 35 30  1  0
 35 34  1  0
 30 31  1  0
  3  2  2  0
  1  2  1  0
 34 33  1  0
 31 32  1  0
 33 32  1  0
  1 38  1  0
  2 39  1  0
  3 40  1  0
  6 41  1  0
  8 42  1  0
 11 43  1  0
 12 44  1  0
 15 45  1  0
 16 46  1  0
 20 47  1  0
 26 48  1  0
 27 49  1  0
 28 50  1  0
 29 51  1  0
 29 52  1  0
 30 53  1  1
 31 54  1  0
 31 55  1  0
 32 56  1  0
 32 57  1  0
 33 58  1  0
 34 59  1  0
 34 60  1  0
 35 61  1  6
M  END
