
     RDKit          3D

 46 48  0  0  0  0  0  0  0  0999 V2000
   -6.8407    0.4941   -1.6020 C   0  0  0  0  0  0  0  0  0  0  0  0
   -7.9853   -0.2359   -1.4526 N   0  0  0  0  0  0  0  0  0  0  0  0
   -7.6940   -1.2884   -0.6665 C   0  0  0  0  0  0  0  0  0  0  0  0
   -6.4360   -1.2813   -0.3034 N   0  0  0  0  0  0  0  0  0  0  0  0
    1.8639    0.1196    1.4445 C   0  0  0  0  0  0  0  0  0  0  0  0
    0.5085    0.0038    1.7312 C   0  0  0  0  0  0  0  0  0  0  0  0
   -4.4556    0.1901   -0.6935 C   0  0  0  0  0  0  0  0  0  0  0  0
   -4.1265    0.5407    0.7696 C   0  0  1  0  0  0  0  0  0  0  0  0
   -2.6130    0.6739    0.8839 C   0  0  0  0  0  0  0  0  0  0  0  0
   -0.3900   -0.5245    0.8148 C   0  0  0  0  0  0  0  0  0  0  0  0
    1.4523   -0.8276   -0.7268 C   0  0  0  0  0  0  0  0  0  0  0  0
    0.1079   -0.9345   -0.4209 C   0  0  0  0  0  0  0  0  0  0  0  0
   -1.8520   -0.6129    1.1228 C   0  0  0  0  0  0  0  0  0  0  0  0
    2.3446   -0.2971    0.2060 C   0  0  0  0  0  0  0  0  0  0  0  0
    7.8755    1.1957   -0.8870 C   0  0  0  0  0  0  0  0  0  0  0  0
    8.4394   -0.0487   -1.1284 C   0  0  0  0  0  0  0  0  0  0  0  0
    7.7585   -1.2005   -0.7498 C   0  0  0  0  0  0  0  0  0  0  0  0
    6.6315    1.2875   -0.2738 C   0  0  0  0  0  0  0  0  0  0  0  0
    6.5195   -1.1052   -0.1344 C   0  0  0  0  0  0  0  0  0  0  0  0
    5.9454    0.1409    0.1095 C   0  0  0  0  0  0  0  0  0  0  0  0
    4.5985    0.2335    0.7610 C   0  0  0  0  0  0  0  0  0  0  0  0
   -4.8696    1.7067    1.1808 N   0  0  0  0  0  0  0  0  0  0  0  0
   -5.8877   -0.1689   -0.8815 C   0  0  0  0  0  0  0  0  0  0  0  0
   -2.0614    1.7454    0.7963 O   0  0  0  0  0  0  0  0  0  0  0  0
    3.6374   -0.2308   -0.1760 O   0  0  0  0  0  0  0  0  0  0  0  0
   -6.8017    1.3965   -2.1885 H   0  0  0  0  0  0  0  0  0  0  0  0
   -8.8807   -0.0328   -1.8669 H   0  0  0  0  0  0  0  0  0  0  0  0
   -8.4308   -2.0277   -0.3923 H   0  0  0  0  0  0  0  0  0  0  0  0
    2.5199    0.5375    2.1964 H   0  0  0  0  0  0  0  0  0  0  0  0
    0.1563    0.3302    2.7024 H   0  0  0  0  0  0  0  0  0  0  0  0
   -4.2016    1.0426   -1.3291 H   0  0  0  0  0  0  0  0  0  0  0  0
   -3.8246   -0.6402   -1.0242 H   0  0  0  0  0  0  0  0  0  0  0  0
   -4.4384   -0.3066    1.3896 H   0  0  0  0  0  0  0  0  0  0  0  0
    1.8214   -1.1593   -1.6893 H   0  0  0  0  0  0  0  0  0  0  0  0
   -0.5644   -1.3539   -1.1607 H   0  0  0  0  0  0  0  0  0  0  0  0
   -2.0178   -0.8586    2.1789 H   0  0  0  0  0  0  0  0  0  0  0  0
   -2.3289   -1.4264    0.5696 H   0  0  0  0  0  0  0  0  0  0  0  0
    9.4073   -0.1238   -1.6071 H   0  0  0  0  0  0  0  0  0  0  0  0
    8.1960   -2.1734   -0.9321 H   0  0  0  0  0  0  0  0  0  0  0  0
    6.1937    2.2614   -0.0901 H   0  0  0  0  0  0  0  0  0  0  0  0
    5.9984   -2.0075    0.1631 H   0  0  0  0  0  0  0  0  0  0  0  0
    4.5686   -0.3829    1.6667 H   0  0  0  0  0  0  0  0  0  0  0  0
    4.3853    1.2669    1.0537 H   0  0  0  0  0  0  0  0  0  0  0  0
   -4.6907    1.9073    2.1568 H   0  0  0  0  0  0  0  0  0  0  0  0
   -4.5535    2.5180    0.6630 H   0  0  0  0  0  0  0  0  0  0  0  0
    8.4006    2.0970   -1.1755 H   0  0  0  0  0  0  0  0  0  0  0  0
 18 15  2  0
 18 20  1  0
 15 16  1  0
 25 21  1  0
 25 14  1  0
 21 20  1  0
 20 19  2  0
 16 17  2  0
 11 14  1  0
 11 12  2  0
 14  5  2  0
  1  2  1  0
  1 23  2  0
 19 17  1  0
 12 10  1  0
  2  3  1  0
  5  6  1  0
 23  7  1  0
 23  4  1  0
  7  8  1  0
  3  4  2  0
 10  6  2  0
 10 13  1  0
 13  9  1  0
 24  9  2  0
  9  8  1  0
  8 22  1  0
  1 26  1  0
  2 27  1  0
  3 28  1  0
  5 29  1  0
  6 30  1  0
  7 31  1  0
  7 32  1  0
  8 33  1  1
 11 34  1  0
 12 35  1  0
 13 36  1  0
 13 37  1  0
 15 46  1  0
 16 38  1  0
 17 39  1  0
 18 40  1  0
 19 41  1  0
 21 42  1  0
 21 43  1  0
 22 44  1  0
 22 45  1  0
M  END
