
     RDKit          3D

 27 27  0  0  0  0  0  0  0  0999 V2000
   -3.3086    1.2099    0.7101 O   0  0  0  0  0  0  0  0  0  0  0  0
   -2.9208   -0.0468    0.2369 C   0  0  1  0  0  0  0  0  0  0  0  0
   -3.6779   -0.4552   -0.8652 O   0  0  0  0  0  0  0  0  0  0  0  0
   -5.0373   -0.7020   -0.5811 C   0  0  0  0  0  0  0  0  0  0  0  0
   -1.4582   -0.0965   -0.1763 C   0  0  0  0  0  0  0  0  0  0  0  0
   -0.5115    0.2946    0.9593 C   0  0  0  0  0  0  0  0  0  0  0  0
    0.9291    0.1452    0.5571 C   0  0  0  0  0  0  0  0  0  0  0  0
    1.5849    1.1574   -0.1398 C   0  0  0  0  0  0  0  0  0  0  0  0
    2.9030    1.0133   -0.5489 C   0  0  0  0  0  0  0  0  0  0  0  0
    3.5943   -0.1599   -0.2683 C   0  0  0  0  0  0  0  0  0  0  0  0
    4.8813   -0.3256   -0.7070 O   0  0  0  0  0  0  0  0  0  0  0  0
    2.9545   -1.1796    0.4259 C   0  0  0  0  0  0  0  0  0  0  0  0
    1.6351   -1.0237    0.8283 C   0  0  0  0  0  0  0  0  0  0  0  0
   -3.0432    1.8806    0.0687 H   0  0  0  0  0  0  0  0  0  0  0  0
   -3.0927   -0.7299    1.0815 H   0  0  0  0  0  0  0  0  0  0  0  0
   -1.2235   -1.1107   -0.5088 H   0  0  0  0  0  0  0  0  0  0  0  0
   -1.2993    0.5637   -1.0368 H   0  0  0  0  0  0  0  0  0  0  0  0
   -5.1579   -1.4483    0.2130 H   0  0  0  0  0  0  0  0  0  0  0  0
   -5.5765    0.2013   -0.2840 H   0  0  0  0  0  0  0  0  0  0  0  0
   -5.4969   -1.0912   -1.4884 H   0  0  0  0  0  0  0  0  0  0  0  0
   -0.7041    1.3257    1.2625 H   0  0  0  0  0  0  0  0  0  0  0  0
   -0.7160   -0.3320    1.8320 H   0  0  0  0  0  0  0  0  0  0  0  0
    1.0598    2.0784   -0.3668 H   0  0  0  0  0  0  0  0  0  0  0  0
    1.1482   -1.8277    1.3683 H   0  0  0  0  0  0  0  0  0  0  0  0
    3.3954    1.8110   -1.0916 H   0  0  0  0  0  0  0  0  0  0  0  0
    5.4984   -0.0127   -0.0365 H   0  0  0  0  0  0  0  0  0  0  0  0
    3.4864   -2.0971    0.6482 H   0  0  0  0  0  0  0  0  0  0  0  0
  1  2  1  0
  2  3  1  0
  2  5  1  0
  3  4  1  0
  5  6  1  0
  6  7  1  0
  7  8  2  0
  7 13  1  0
  8  9  1  0
  9 10  2  0
 10 11  1  0
 10 12  1  0
 12 13  2  0
  1 14  1  0
  2 15  1  1
  5 16  1  0
  5 17  1  0
  4 18  1  0
  4 19  1  0
  4 20  1  0
  6 21  1  0
  6 22  1  0
  8 23  1  0
 13 24  1  0
  9 25  1  0
 11 26  1  0
 12 27  1  0
M  END
