
     RDKit          3D

 22 22  0  0  0  0  0  0  0  0999 V2000
   -0.0132   -0.1963    2.9491 B   0  0  0  0  0  0  0  0  0  0  0  0
   -0.0931   -1.2774    3.7818 O   0  0  0  0  0  0  0  0  0  0  0  0
    0.0670    1.0936    3.3828 O   0  0  0  0  0  0  0  0  0  0  0  0
   -0.0139   -0.4852    1.3943 C   0  0  0  0  0  0  0  0  0  0  0  0
    0.0017    0.7415    0.4786 C   0  0  0  0  0  0  0  0  0  0  0  0
   -0.0074    0.3616   -0.9770 C   0  0  0  0  0  0  0  0  0  0  0  0
   -1.2083    0.1622   -1.6560 C   0  0  0  0  0  0  0  0  0  0  0  0
    1.1838    0.1559   -1.6706 C   0  0  0  0  0  0  0  0  0  0  0  0
   -1.2208   -0.2313   -2.9880 C   0  0  0  0  0  0  0  0  0  0  0  0
    1.1780   -0.2379   -3.0026 C   0  0  0  0  0  0  0  0  0  0  0  0
   -0.0260   -0.4340   -3.6669 C   0  0  0  0  0  0  0  0  0  0  0  0
   -0.0845   -1.0821    4.7241 H   0  0  0  0  0  0  0  0  0  0  0  0
    0.0672    1.2175    4.3373 H   0  0  0  0  0  0  0  0  0  0  0  0
    0.8477   -1.1233    1.1634 H   0  0  0  0  0  0  0  0  0  0  0  0
   -0.8842   -1.1079    1.1562 H   0  0  0  0  0  0  0  0  0  0  0  0
   -0.8634    1.3743    0.6922 H   0  0  0  0  0  0  0  0  0  0  0  0
    0.8852    1.3494    0.6881 H   0  0  0  0  0  0  0  0  0  0  0  0
   -2.1468    0.3214   -1.1370 H   0  0  0  0  0  0  0  0  0  0  0  0
    2.1295    0.3111   -1.1634 H   0  0  0  0  0  0  0  0  0  0  0  0
   -2.1652   -0.3776   -3.4971 H   0  0  0  0  0  0  0  0  0  0  0  0
    2.1153   -0.3893   -3.5230 H   0  0  0  0  0  0  0  0  0  0  0  0
   -0.0333   -0.7369   -4.7061 H   0  0  0  0  0  0  0  0  0  0  0  0
  1  2  1  0
  1  3  1  0
  1  4  1  0
  2 12  1  0
  3 13  1  0
  4  5  1  0
  4 14  1  0
  4 15  1  0
  5  6  1  0
  5 16  1  0
  5 17  1  0
  6  7  2  0
  6  8  1  0
  7  9  1  0
  7 18  1  0
  8 10  2  0
  8 19  1  0
  9 11  2  0
  9 20  1  0
 10 11  1  0
 10 21  1  0
 11 22  1  0
M  END
