
     RDKit          3D

 48 50  0  0  0  0  0  0  0  0999 V2000
   -5.7638   -2.9389   -0.5843 O   0  0  0  0  0  0  0  0  0  0  0  0
   -4.7381   -2.1089   -0.6288 C   0  0  0  0  0  0  0  0  0  0  0  0
   -3.6395   -2.3992   -1.0172 O   0  0  0  0  0  0  0  0  0  0  0  0
   -5.1225   -0.7429   -0.1461 C   0  0  0  0  0  0  0  0  0  0  0  0
   -6.4572   -0.4435   -0.2547 N   0  0  0  0  0  0  0  0  0  0  0  0
   -7.0067    0.7520    0.1054 C   0  0  0  0  0  0  0  0  0  0  0  0
   -8.1878    1.0031   -0.0056 O   0  0  0  0  0  0  0  0  0  0  0  0
   -6.0940    1.6455    0.6021 N   0  0  0  0  0  0  0  0  0  0  0  0
   -4.7385    1.4535    0.7594 C   0  0  0  0  0  0  0  0  0  0  0  0
   -4.0395    2.3420    1.2057 O   0  0  0  0  0  0  0  0  0  0  0  0
   -4.2303    0.1384    0.3565 C   0  0  0  0  0  0  0  0  0  0  0  0
   -2.7606   -0.0885    0.5356 C   0  0  0  0  0  0  0  0  0  0  0  0
   -1.9443    0.4193   -0.6639 C   0  0  0  0  0  0  0  0  0  0  0  0
   -0.4839    0.1180   -0.4930 C   0  0  0  0  0  0  0  0  0  0  0  0
    0.4143    1.0854   -0.1242 C   0  0  0  0  0  0  0  0  0  0  0  0
   -0.0235   -1.2092   -0.6831 C   0  0  0  0  0  0  0  0  0  0  0  0
    1.2904   -1.5344   -0.5040 C   0  0  0  0  0  0  0  0  0  0  0  0
    2.2306   -0.5475   -0.1216 C   0  0  0  0  0  0  0  0  0  0  0  0
    3.5922   -0.8531    0.0807 C   0  0  0  0  0  0  0  0  0  0  0  0
    1.7828    0.7840    0.0668 C   0  0  0  0  0  0  0  0  0  0  0  0
    2.7248    1.7678    0.4457 C   0  0  0  0  0  0  0  0  0  0  0  0
    4.0428    1.4491    0.6186 C   0  0  0  0  0  0  0  0  0  0  0  0
    4.4945    0.1205    0.4312 C   0  0  0  0  0  0  0  0  0  0  0  0
    5.9212   -0.2806    0.6332 C   0  0  0  0  0  0  0  0  0  0  0  0
    6.2186   -1.4309    0.9311 O   0  0  0  0  0  0  0  0  0  0  0  0
    6.8364    0.6893    0.4720 N   0  0  0  0  0  0  0  0  0  0  0  0
    8.2567    0.4584    0.6142 C   0  0  0  0  0  0  0  0  0  0  0  0
    8.9157   -0.0659   -0.6468 C   0  0  0  0  0  0  0  0  0  0  0  0
    8.7780    0.9018   -1.6623 O   0  0  0  0  0  0  0  0  0  0  0  0
   -5.5203   -3.8068   -0.9433 H   0  0  0  0  0  0  0  0  0  0  0  0
   -7.0949   -1.1291   -0.6350 H   0  0  0  0  0  0  0  0  0  0  0  0
   -6.4613    2.5474    0.8807 H   0  0  0  0  0  0  0  0  0  0  0  0
   -2.4357    0.4455    1.4298 H   0  0  0  0  0  0  0  0  0  0  0  0
   -2.5469   -1.1409    0.7095 H   0  0  0  0  0  0  0  0  0  0  0  0
   -2.3132   -0.0553   -1.5752 H   0  0  0  0  0  0  0  0  0  0  0  0
   -2.0929    1.4944   -0.7785 H   0  0  0  0  0  0  0  0  0  0  0  0
    0.0782    2.1059    0.0260 H   0  0  0  0  0  0  0  0  0  0  0  0
   -0.7334   -1.9738   -0.9764 H   0  0  0  0  0  0  0  0  0  0  0  0
    1.6273   -2.5525   -0.6569 H   0  0  0  0  0  0  0  0  0  0  0  0
    3.9243   -1.8756   -0.0544 H   0  0  0  0  0  0  0  0  0  0  0  0
    2.3893    2.7848    0.6079 H   0  0  0  0  0  0  0  0  0  0  0  0
    4.7294    2.2264    0.9296 H   0  0  0  0  0  0  0  0  0  0  0  0
    6.5522    1.5690    0.0752 H   0  0  0  0  0  0  0  0  0  0  0  0
    8.7197    1.4006    0.9110 H   0  0  0  0  0  0  0  0  0  0  0  0
    8.4264   -0.2516    1.4229 H   0  0  0  0  0  0  0  0  0  0  0  0
    9.9688   -0.2729   -0.4170 H   0  0  0  0  0  0  0  0  0  0  0  0
    8.4539   -1.0195   -0.9277 H   0  0  0  0  0  0  0  0  0  0  0  0
    9.1510    0.5445   -2.4729 H   0  0  0  0  0  0  0  0  0  0  0  0
 29 28  1  0
 25 24  2  0
 22 21  2  0
 22 23  1  0
 21 20  1  0
 28 27  1  0
 24 23  1  0
 24 26  1  0
 23 19  2  0
 20 15  2  0
 20 18  1  0
 15 14  1  0
 19 18  1  0
 26 27  1  0
 18 17  2  0
 14 13  1  0
 14 16  2  0
 13 12  1  0
 17 16  1  0
 12 11  1  0
 10  9  2  0
 11  9  1  0
 11  4  2  0
  9  8  1  0
  3  2  2  0
  4  2  1  0
  4  5  1  0
  2  1  1  0
  8  6  1  0
  5  6  1  0
  6  7  2  0
  1 30  1  0
  5 31  1  0
  8 32  1  0
 12 33  1  0
 12 34  1  0
 13 35  1  0
 13 36  1  0
 15 37  1  0
 16 38  1  0
 17 39  1  0
 19 40  1  0
 21 41  1  0
 22 42  1  0
 26 43  1  0
 27 44  1  0
 27 45  1  0
 28 46  1  0
 28 47  1  0
 29 48  1  0
M  END
