
     RDKit          3D

 31 32  0  0  0  0  0  0  0  0999 V2000
    4.1409    0.6598    0.0576 N   0  0  0  0  0  0  0  0  0  0  0  0
   -4.5080   -0.8379   -0.0618 C   0  0  0  0  0  0  0  0  0  0  0  0
   -4.2682    0.5225    0.0635 C   0  0  0  0  0  0  0  0  0  0  0  0
   -2.9623    0.9715    0.1016 C   0  0  0  0  0  0  0  0  0  0  0  0
   -2.6492    2.6616    0.2595 Cl  0  0  0  0  0  0  0  0  0  0  0  0
   -1.8791    0.0890    0.0162 C   0  0  0  0  0  0  0  0  0  0  0  0
   -0.6569    0.6273    0.0625 O   0  0  0  0  0  0  0  0  0  0  0  0
    0.4759   -0.2260   -0.0218 C   0  0  0  0  0  0  0  0  0  0  0  0
    1.7105    0.6466    0.0568 C   0  0  0  0  0  0  0  0  0  0  0  0
    2.9740   -0.1941   -0.0364 C   0  0  0  0  0  0  0  0  0  0  0  0
    5.3961    0.1127   -0.0116 C   0  0  0  0  0  0  0  0  0  0  0  0
    5.6648   -1.1787    0.2812 N   0  0  0  0  0  0  0  0  0  0  0  0
    7.0284   -1.3534    0.1612 C   0  0  0  0  0  0  0  0  0  0  0  0
    7.5073   -0.1376   -0.2063 C   0  0  0  0  0  0  0  0  0  0  0  0
    6.4864    0.7754   -0.3155 N   0  0  0  0  0  0  0  0  0  0  0  0
   -2.1516   -1.2702   -0.1097 C   0  0  0  0  0  0  0  0  0  0  0  0
   -3.4592   -1.7340   -0.1484 C   0  0  0  0  0  0  0  0  0  0  0  0
    4.0763    1.5077   -0.4871 H   0  0  0  0  0  0  0  0  0  0  0  0
   -5.0846    1.2281    0.1309 H   0  0  0  0  0  0  0  0  0  0  0  0
    0.4667   -0.9512    0.7993 H   0  0  0  0  0  0  0  0  0  0  0  0
    0.4601   -0.7852   -0.9636 H   0  0  0  0  0  0  0  0  0  0  0  0
    1.6927    1.3747   -0.7592 H   0  0  0  0  0  0  0  0  0  0  0  0
    1.7139    1.2031    0.9970 H   0  0  0  0  0  0  0  0  0  0  0  0
    2.9647   -0.7831   -0.9633 H   0  0  0  0  0  0  0  0  0  0  0  0
    2.9842   -0.9059    0.7940 H   0  0  0  0  0  0  0  0  0  0  0  0
    5.0067   -1.8951    0.5408 H   0  0  0  0  0  0  0  0  0  0  0  0
    7.5017   -2.3028    0.3421 H   0  0  0  0  0  0  0  0  0  0  0  0
    8.5326    0.1373   -0.4005 H   0  0  0  0  0  0  0  0  0  0  0  0
   -1.3505   -1.9926   -0.1778 H   0  0  0  0  0  0  0  0  0  0  0  0
   -3.6451   -2.7946   -0.2448 H   0  0  0  0  0  0  0  0  0  0  0  0
   -6.1426   -1.4095   -0.1082 Cl  0  0  0  0  0  0  0  0  0  0  0  0
 14 15  1  0
 14 13  2  0
 15 11  2  0
 13 12  1  0
 11 12  1  0
 11  1  1  0
  1 10  1  0
 10  9  1  0
  9  8  1  0
  8  7  1  0
  7  6  1  0
  5  4  1  0
  6  4  2  0
  6 16  1  0
  4  3  1  0
 16 17  2  0
  3  2  2  0
 17  2  1  0
  2 31  1  0
  1 18  1  0
  3 19  1  0
  8 20  1  0
  8 21  1  0
  9 22  1  0
  9 23  1  0
 10 24  1  0
 10 25  1  0
 12 26  1  0
 13 27  1  0
 14 28  1  0
 16 29  1  0
 17 30  1  0
M  END
