
     RDKit          3D

 40 40  0  0  0  0  0  0  0  0999 V2000
   -3.6004    2.3613   -1.5609 O   0  0  0  0  0  0  0  0  0  0  0  0
   -3.1889    1.8743   -0.2549 S   0  0  1  0  0  0  0  0  0  0  0  0
   -2.4109    2.7455    0.6118 O   0  0  0  0  0  0  0  0  0  0  0  0
   -4.5452    1.2841    0.4636 N   0  0  0  0  0  0  0  0  0  0  0  0
   -2.2454    0.3833   -0.4772 C   0  0  0  0  0  0  0  0  0  0  0  0
   -2.5656   -0.4670   -1.5211 C   0  0  0  0  0  0  0  0  0  0  0  0
   -1.8168   -1.6171   -1.7075 C   0  0  0  0  0  0  0  0  0  0  0  0
   -0.7456   -1.9099   -0.8719 C   0  0  0  0  0  0  0  0  0  0  0  0
    0.1068   -3.0917   -1.2123 C   0  0  0  0  0  0  0  0  0  0  0  0
    1.2979   -3.0186   -1.3718 O   0  0  0  0  0  0  0  0  0  0  0  0
   -0.6125   -4.1800   -1.3813 O   0  0  0  0  0  0  0  0  0  0  0  0
   -1.2036    0.0999    0.3899 C   0  0  0  0  0  0  0  0  0  0  0  0
   -0.4544   -1.0473    0.1854 C   0  0  0  0  0  0  0  0  0  0  0  0
    0.8390   -1.4112    1.3690 S   0  0  1  0  0  0  0  0  0  0  0  0
    0.6025   -0.5537    2.5163 O   0  0  0  0  0  0  0  0  0  0  0  0
    0.8713   -2.8518    1.5401 O   0  0  0  0  0  0  0  0  0  0  0  0
    2.2609   -0.9528    0.7043 N   0  0  0  0  0  0  0  0  0  0  0  0
    2.4883    0.4642    0.4124 C   0  0  0  0  0  0  0  0  0  0  0  0
    3.9484    0.6812    0.0527 C   0  0  0  0  0  0  0  0  0  0  0  0
    4.2410    2.1402   -0.2711 C   0  0  0  0  0  0  0  0  0  0  0  0
    5.7052    2.3856   -0.6125 C   0  0  0  0  0  0  0  0  0  0  0  0
    5.9987    3.8436   -0.9357 C   0  0  0  0  0  0  0  0  0  0  0  0
   -4.4245    1.0867    1.4516 H   0  0  0  0  0  0  0  0  0  0  0  0
   -5.3475    1.8883    0.3121 H   0  0  0  0  0  0  0  0  0  0  0  0
   -3.3852   -0.2515   -2.1928 H   0  0  0  0  0  0  0  0  0  0  0  0
   -0.9848    0.7598    1.2180 H   0  0  0  0  0  0  0  0  0  0  0  0
   -2.0644   -2.2771   -2.5275 H   0  0  0  0  0  0  0  0  0  0  0  0
   -0.0504   -4.9197   -1.6622 H   0  0  0  0  0  0  0  0  0  0  0  0
    2.5281   -1.5722   -0.0556 H   0  0  0  0  0  0  0  0  0  0  0  0
    1.8458    0.8120   -0.4049 H   0  0  0  0  0  0  0  0  0  0  0  0
    2.2378    1.0454    1.2991 H   0  0  0  0  0  0  0  0  0  0  0  0
    4.5748    0.3496    0.8852 H   0  0  0  0  0  0  0  0  0  0  0  0
    4.2117    0.0570   -0.8074 H   0  0  0  0  0  0  0  0  0  0  0  0
    3.6135    2.4632   -1.1085 H   0  0  0  0  0  0  0  0  0  0  0  0
    3.9564    2.7668    0.5808 H   0  0  0  0  0  0  0  0  0  0  0  0
    6.3305    2.0612    0.2248 H   0  0  0  0  0  0  0  0  0  0  0  0
    5.9885    1.7575   -1.4626 H   0  0  0  0  0  0  0  0  0  0  0  0
    7.0499    3.9938   -1.1840 H   0  0  0  0  0  0  0  0  0  0  0  0
    5.4057    4.1862   -1.7855 H   0  0  0  0  0  0  0  0  0  0  0  0
    5.7630    4.4915   -0.0894 H   0  0  0  0  0  0  0  0  0  0  0  0
  1  2  2  0
  2  3  2  0
  2  4  1  1
  2  5  1  0
  5  6  2  0
  5 12  1  0
  6  7  1  0
  7  8  2  0
  8  9  1  0
  8 13  1  0
  9 10  2  0
  9 11  1  0
 12 13  2  0
 13 14  1  0
 14 15  2  0
 14 16  2  0
 14 17  1  6
 17 18  1  0
 18 19  1  0
 19 20  1  0
 20 21  1  0
 21 22  1  0
  4 23  1  0
  4 24  1  0
  6 25  1  0
 12 26  1  0
  7 27  1  0
 11 28  1  0
 17 29  1  0
 18 30  1  0
 18 31  1  0
 19 32  1  0
 19 33  1  0
 20 34  1  0
 20 35  1  0
 21 36  1  0
 21 37  1  0
 22 38  1  0
 22 39  1  0
 22 40  1  0
M  END
