
     RDKit          3D

 49 52  0  0  0  0  0  0  0  0999 V2000
   -4.3780   -0.9198   -1.8967 C   0  0  0  0  0  0  0  0  0  0  0  0
   -5.7741   -0.3882   -1.5882 C   0  0  0  0  0  0  0  0  0  0  0  0
   -6.5398   -1.2186   -0.5612 C   0  0  0  0  0  0  0  0  0  0  0  0
   -5.8606   -1.5320    0.6833 N   0  0  0  0  0  0  0  0  0  0  0  0
   -4.7142   -2.4044    0.5539 C   0  0  0  0  0  0  0  0  0  0  0  0
   -3.3694   -1.7403    0.2412 C   0  0  0  0  0  0  0  0  0  0  0  0
   -3.4535   -0.7158   -0.7897 N   0  0  0  0  0  0  0  0  0  0  0  0
   -2.7917    0.4525   -0.7238 C   0  0  0  0  0  0  0  0  0  0  0  0
   -2.9553    1.3689   -1.5182 O   0  0  0  0  0  0  0  0  0  0  0  0
   -1.7631    0.6057    0.3567 C   0  0  0  0  0  0  0  0  0  0  0  0
   -0.5748   -0.1162    0.3293 C   0  0  0  0  0  0  0  0  0  0  0  0
   -1.9212    1.5632    1.3429 C   0  0  0  0  0  0  0  0  0  0  0  0
   -3.0713    2.2531    1.3927 F   0  0  0  0  0  0  0  0  0  0  0  0
   -0.9497    1.8071    2.2916 C   0  0  0  0  0  0  0  0  0  0  0  0
    0.2302    1.0806    2.2356 C   0  0  0  0  0  0  0  0  0  0  0  0
    0.4328    0.1134    1.2570 C   0  0  0  0  0  0  0  0  0  0  0  0
    1.7202   -0.6544    1.1968 C   0  0  0  0  0  0  0  0  0  0  0  0
    2.7698   -0.0118    0.3294 C   0  0  0  0  0  0  0  0  0  0  0  0
    4.0815   -0.6150    0.2062 C   0  0  0  0  0  0  0  0  0  0  0  0
    4.4425   -1.7950    0.8682 C   0  0  0  0  0  0  0  0  0  0  0  0
    5.7100   -2.3163    0.7116 C   0  0  0  0  0  0  0  0  0  0  0  0
    6.6453   -1.6774   -0.1055 C   0  0  0  0  0  0  0  0  0  0  0  0
    6.3051   -0.5160   -0.7663 C   0  0  0  0  0  0  0  0  0  0  0  0
    5.0255    0.0188   -0.6130 C   0  0  0  0  0  0  0  0  0  0  0  0
    4.6584    1.2520   -1.3081 C   0  0  0  0  0  0  0  0  0  0  0  0
    5.3995    1.8877   -2.0449 O   0  0  0  0  0  0  0  0  0  0  0  0
    3.3814    1.6563   -1.0640 N   0  0  0  0  0  0  0  0  0  0  0  0
    2.4637    1.0709   -0.2873 N   0  0  0  0  0  0  0  0  0  0  0  0
   -4.4073   -1.9870   -2.1268 H   0  0  0  0  0  0  0  0  0  0  0  0
   -3.9774   -0.4245   -2.7792 H   0  0  0  0  0  0  0  0  0  0  0  0
   -5.6881    0.6482   -1.2517 H   0  0  0  0  0  0  0  0  0  0  0  0
   -6.3545   -0.3630   -2.5150 H   0  0  0  0  0  0  0  0  0  0  0  0
   -7.4744   -0.7069   -0.3188 H   0  0  0  0  0  0  0  0  0  0  0  0
   -6.8261   -2.1701   -1.0197 H   0  0  0  0  0  0  0  0  0  0  0  0
   -5.6272   -0.6908    1.1958 H   0  0  0  0  0  0  0  0  0  0  0  0
   -4.5633   -2.9618    1.4835 H   0  0  0  0  0  0  0  0  0  0  0  0
   -4.9498   -3.1555   -0.2032 H   0  0  0  0  0  0  0  0  0  0  0  0
   -2.9907   -1.2820    1.1533 H   0  0  0  0  0  0  0  0  0  0  0  0
   -2.6539   -2.5195   -0.0410 H   0  0  0  0  0  0  0  0  0  0  0  0
   -0.4360   -0.8739   -0.4337 H   0  0  0  0  0  0  0  0  0  0  0  0
   -1.1112    2.5503    3.0611 H   0  0  0  0  0  0  0  0  0  0  0  0
    1.0001    1.2703    2.9733 H   0  0  0  0  0  0  0  0  0  0  0  0
    2.1242   -0.7729    2.2062 H   0  0  0  0  0  0  0  0  0  0  0  0
    1.5374   -1.6688    0.8301 H   0  0  0  0  0  0  0  0  0  0  0  0
    3.7348   -2.3059    1.5063 H   0  0  0  0  0  0  0  0  0  0  0  0
    5.9808   -3.2285    1.2261 H   0  0  0  0  0  0  0  0  0  0  0  0
    7.6368   -2.0944   -0.2191 H   0  0  0  0  0  0  0  0  0  0  0  0
    7.0225   -0.0167   -1.4031 H   0  0  0  0  0  0  0  0  0  0  0  0
    3.0614    2.5039   -1.5117 H   0  0  0  0  0  0  0  0  0  0  0  0
  1  2  1  0
  1  7  1  0
  2  3  1  0
  3  4  1  0
  4  5  1  0
  5  6  1  0
  6  7  1  0
  7  8  1  0
  8  9  2  0
  8 10  1  0
 10 11  2  0
 10 12  1  0
 11 16  1  0
 12 13  1  0
 12 14  2  0
 14 15  1  0
 15 16  2  0
 16 17  1  0
 17 18  1  0
 18 19  1  0
 18 28  2  0
 19 20  2  0
 19 24  1  0
 20 21  1  0
 21 22  2  0
 22 23  1  0
 23 24  2  0
 24 25  1  0
 25 26  2  0
 25 27  1  0
 27 28  1  0
  1 29  1  0
  1 30  1  0
  2 31  1  0
  2 32  1  0
  3 33  1  0
  3 34  1  0
  4 35  1  0
  5 36  1  0
  5 37  1  0
  6 38  1  0
  6 39  1  0
 11 40  1  0
 14 41  1  0
 15 42  1  0
 17 43  1  0
 17 44  1  0
 20 45  1  0
 21 46  1  0
 22 47  1  0
 23 48  1  0
 27 49  1  0
M  END
