
     RDKit          3D

 22 21  0  0  0  0  0  0  0  0999 V2000
    0.4340    0.3117   -0.8883 N   0  0  0  0  0  0  0  0  0  0  0  0
   -0.1212   -0.0017   -2.1224 C   0  0  0  0  0  0  0  0  0  0  0  0
   -0.9157   -0.9523   -2.2454 O   0  0  0  0  0  0  0  0  0  0  0  0
    0.2832    0.8589   -3.2928 C   0  0  0  0  0  0  0  0  0  0  0  0
    0.1395   -0.4208    0.3101 C   0  0  1  0  0  0  0  0  0  0  0  0
    1.1284   -0.1207    1.4801 C   0  0  2  0  0  0  0  0  0  0  0  0
    1.2639    1.2686    1.7066 O   0  0  0  0  0  0  0  0  0  0  0  0
    2.4629   -0.7927    1.2294 C   0  0  0  0  0  0  0  0  0  0  0  0
   -1.2677   -0.2121    0.8568 C   0  0  0  0  0  0  0  0  0  0  0  0
   -2.0314   -1.0944    1.2582 O   0  0  0  0  0  0  0  0  0  0  0  0
   -1.7286    1.0675    0.9086 O   0  0  0  0  0  0  0  0  0  0  0  0
    1.0659    1.0735   -0.8089 H   0  0  0  0  0  0  0  0  0  0  0  0
   -0.2070    0.4610   -4.2154 H   0  0  0  0  0  0  0  0  0  0  0  0
   -0.0471    1.9136   -3.1309 H   0  0  0  0  0  0  0  0  0  0  0  0
    1.3912    0.8402   -3.4328 H   0  0  0  0  0  0  0  0  0  0  0  0
    0.2177   -1.5320    0.0825 H   0  0  0  0  0  0  0  0  0  0  0  0
    0.6611   -0.5119    2.4317 H   0  0  0  0  0  0  0  0  0  0  0  0
    2.0472    1.5725    1.2319 H   0  0  0  0  0  0  0  0  0  0  0  0
    3.1636   -0.5536    2.0658 H   0  0  0  0  0  0  0  0  0  0  0  0
    2.3321   -1.8995    1.1728 H   0  0  0  0  0  0  0  0  0  0  0  0
    2.9161   -0.4380    0.2732 H   0  0  0  0  0  0  0  0  0  0  0  0
   -2.6300    1.0722    1.2723 H   0  0  0  0  0  0  0  0  0  0  0  0
  1  2  1  0
  1  5  1  0
  1 12  1  0
  2  3  2  0
  2  4  1  0
  4 13  1  0
  4 14  1  0
  4 15  1  0
  5  6  1  0
  5  9  1  0
  5 16  1  6
  6  7  1  0
  6  8  1  0
  6 17  1  1
  7 18  1  0
  8 19  1  0
  8 20  1  0
  8 21  1  0
  9 10  2  0
  9 11  1  0
 11 22  1  0
M  END
