
     RDKit          3D

 19 20  0  0  0  0  0  0  0  0999 V2000
   -2.6777    0.0390    0.0282 C   0  0  0  0  0  0  0  0  0  0  0  0
    3.3098    0.6434   -0.0061 C   0  0  0  0  0  0  0  0  0  0  0  0
    3.2467   -0.7649   -0.0138 C   0  0  0  0  0  0  0  0  0  0  0  0
    2.0429   -1.4345   -0.0113 C   0  0  0  0  0  0  0  0  0  0  0  0
    0.8795   -0.6595   -0.0010 C   0  0  0  0  0  0  0  0  0  0  0  0
    0.9202    0.7542    0.0072 C   0  0  0  0  0  0  0  0  0  0  0  0
    2.1637    1.4053    0.0042 C   0  0  0  0  0  0  0  0  0  0  0  0
   -0.4270    1.2036    0.0179 C   0  0  0  0  0  0  0  0  0  0  0  0
   -1.2164    0.0832    0.0150 C   0  0  0  0  0  0  0  0  0  0  0  0
   -0.4247   -1.0373    0.0034 N   0  0  0  0  0  0  0  0  0  0  0  0
   -3.3741    1.0256    0.0403 O   0  0  0  0  0  0  0  0  0  0  0  0
   -3.1450   -1.2030    0.0243 O   0  0  0  0  0  0  0  0  0  0  0  0
    4.1672   -1.3343   -0.0208 H   0  0  0  0  0  0  0  0  0  0  0  0
    1.9998   -2.5158   -0.0171 H   0  0  0  0  0  0  0  0  0  0  0  0
    2.2177    2.4866    0.0105 H   0  0  0  0  0  0  0  0  0  0  0  0
   -0.7754    2.2243    0.0226 H   0  0  0  0  0  0  0  0  0  0  0  0
   -0.7548   -1.9891    0.0027 H   0  0  0  0  0  0  0  0  0  0  0  0
   -4.1139   -1.1977    0.0313 H   0  0  0  0  0  0  0  0  0  0  0  0
    4.2779    1.1271   -0.0084 H   0  0  0  0  0  0  0  0  0  0  0  0
  3  4  1  0
  3  2  2  0
  4  5  2  0
  2  7  1  0
  5 10  1  0
  5  6  1  0
 10  9  1  0
  7  6  2  0
  6  8  1  0
  9  8  2  0
  9  1  1  0
 11  1  2  0
  1 12  1  0
  2 19  1  0
  3 13  1  0
  4 14  1  0
  7 15  1  0
  8 16  1  0
 10 17  1  0
 12 18  1  0
M  END
