
     RDKit          3D

 57 59  0  0  0  0  0  0  0  0999 V2000
    4.9676    2.2791    2.0918 N   0  0  0  0  0  0  0  0  0  0  0  0
    4.1782    2.2130    0.9769 C   0  0  0  0  0  0  0  0  0  0  0  0
    4.2696    3.1934   -0.0254 C   0  0  0  0  0  0  0  0  0  0  0  0
    3.4210    3.1210   -1.1118 C   0  0  0  0  0  0  0  0  0  0  0  0
    3.4585    4.1501   -2.2000 C   0  0  0  0  0  0  0  0  0  0  0  0
    2.5075    2.0634   -1.1639 C   0  0  0  0  0  0  0  0  0  0  0  0
    3.3047    1.2135    0.9171 N   0  0  0  0  0  0  0  0  0  0  0  0
    2.4871    1.1370   -0.1350 C   0  0  0  0  0  0  0  0  0  0  0  0
    1.5554   -0.0411   -0.1802 C   0  0  0  0  0  0  0  0  0  0  0  0
    2.2801   -1.3162   -0.6098 C   0  0  1  0  0  0  0  0  0  0  0  0
    3.2185   -1.9495    0.4186 C   0  0  0  0  0  0  0  0  0  0  0  0
    3.4851   -3.2952   -0.0799 N   0  0  0  0  0  0  0  0  0  0  0  0
    2.3067   -3.7098   -0.8548 C   0  0  0  0  0  0  0  0  0  0  0  0
    1.3655   -2.4917   -0.9558 C   0  0  1  0  0  0  0  0  0  0  0  0
    0.3232   -2.5411   -0.0075 O   0  0  0  0  0  0  0  0  0  0  0  0
   -0.7634   -3.3642   -0.3584 C   0  0  0  0  0  0  0  0  0  0  0  0
   -1.9127   -3.0675    0.5787 C   0  0  0  0  0  0  0  0  0  0  0  0
   -2.3787   -1.7048    0.4159 N   0  0  0  0  0  0  0  0  0  0  0  0
   -3.4534   -1.3675    1.3331 C   0  0  0  0  0  0  0  0  0  0  0  0
   -3.8576    0.0707    1.1708 C   0  0  0  0  0  0  0  0  0  0  0  0
   -4.6186    0.4927    0.0683 C   0  0  0  0  0  0  0  0  0  0  0  0
   -5.0035   -0.4687   -0.7917 O   0  0  0  0  0  0  0  0  0  0  0  0
   -5.8157   -0.1142   -1.8917 C   0  0  0  0  0  0  0  0  0  0  0  0
   -3.4431    1.0216    2.0917 C   0  0  0  0  0  0  0  0  0  0  0  0
   -3.7630    2.3682    1.9515 C   0  0  0  0  0  0  0  0  0  0  0  0
   -4.5146    2.7675    0.8607 C   0  0  0  0  0  0  0  0  0  0  0  0
   -4.9465    1.8380   -0.0800 C   0  0  0  0  0  0  0  0  0  0  0  0
    5.0672    1.4180    2.6047 H   0  0  0  0  0  0  0  0  0  0  0  0
    5.8227    2.8052    2.0181 H   0  0  0  0  0  0  0  0  0  0  0  0
    4.9982    3.9906    0.0596 H   0  0  0  0  0  0  0  0  0  0  0  0
    3.4647    3.6820   -3.1848 H   0  0  0  0  0  0  0  0  0  0  0  0
    2.5734    4.7869   -2.1546 H   0  0  0  0  0  0  0  0  0  0  0  0
    4.3349    4.7912   -2.1210 H   0  0  0  0  0  0  0  0  0  0  0  0
    1.8253    1.9658   -1.9994 H   0  0  0  0  0  0  0  0  0  0  0  0
    1.1055   -0.1816    0.8050 H   0  0  0  0  0  0  0  0  0  0  0  0
    0.7427    0.1704   -0.8791 H   0  0  0  0  0  0  0  0  0  0  0  0
    2.8657   -1.0969   -1.5111 H   0  0  0  0  0  0  0  0  0  0  0  0
    4.1480   -1.3995    0.5554 H   0  0  0  0  0  0  0  0  0  0  0  0
    2.7247   -1.9920    1.3962 H   0  0  0  0  0  0  0  0  0  0  0  0
    4.2804   -3.2505   -0.7017 H   0  0  0  0  0  0  0  0  0  0  0  0
    2.6039   -4.0573   -1.8455 H   0  0  0  0  0  0  0  0  0  0  0  0
    1.7909   -4.5451   -0.3714 H   0  0  0  0  0  0  0  0  0  0  0  0
    0.9409   -2.3923   -1.9638 H   0  0  0  0  0  0  0  0  0  0  0  0
   -1.0767   -3.1698   -1.3936 H   0  0  0  0  0  0  0  0  0  0  0  0
   -0.5034   -4.4289   -0.2909 H   0  0  0  0  0  0  0  0  0  0  0  0
   -2.7299   -3.7526    0.3349 H   0  0  0  0  0  0  0  0  0  0  0  0
   -1.6135   -3.2994    1.6140 H   0  0  0  0  0  0  0  0  0  0  0  0
   -1.6030   -1.0751    0.5831 H   0  0  0  0  0  0  0  0  0  0  0  0
   -4.2993   -2.0305    1.1313 H   0  0  0  0  0  0  0  0  0  0  0  0
   -3.1761   -1.5381    2.3849 H   0  0  0  0  0  0  0  0  0  0  0  0
   -5.3118    0.5834   -2.5661 H   0  0  0  0  0  0  0  0  0  0  0  0
   -6.0215   -1.0350   -2.4323 H   0  0  0  0  0  0  0  0  0  0  0  0
   -6.7644    0.3276   -1.5759 H   0  0  0  0  0  0  0  0  0  0  0  0
   -2.8571    0.6964    2.9440 H   0  0  0  0  0  0  0  0  0  0  0  0
   -3.4284    3.0892    2.6854 H   0  0  0  0  0  0  0  0  0  0  0  0
   -4.7773    3.8094    0.7287 H   0  0  0  0  0  0  0  0  0  0  0  0
   -5.5332    2.1812   -0.9213 H   0  0  0  0  0  0  0  0  0  0  0  0
  5  4  1  0
  4  3  1  0
  4  6  2  0
  3  2  2  0
  6  8  1  0
  2  1  1  0
  2  7  1  0
  8  7  2  0
  8  9  1  0
 10 11  1  0
 10  9  1  0
 10 14  1  0
 11 12  1  0
 16 15  1  0
 16 17  1  0
 14 15  1  0
 14 13  1  0
 12 13  1  0
 17 18  1  0
 18 19  1  0
 19 20  1  0
 22 21  1  0
 22 23  1  0
 20 21  2  0
 20 24  1  0
 21 27  1  0
 24 25  2  0
 27 26  2  0
 25 26  1  0
  1 28  1  0
  1 29  1  0
  3 30  1  0
  5 31  1  0
  5 32  1  0
  5 33  1  0
  6 34  1  0
  9 35  1  0
  9 36  1  0
 10 37  1  6
 11 38  1  0
 11 39  1  0
 12 40  1  0
 13 41  1  0
 13 42  1  0
 14 43  1  6
 16 44  1  0
 16 45  1  0
 17 46  1  0
 17 47  1  0
 18 48  1  0
 19 49  1  0
 19 50  1  0
 23 51  1  0
 23 52  1  0
 23 53  1  0
 24 54  1  0
 25 55  1  0
 26 56  1  0
 27 57  1  0
M  END
