
     RDKit          3D

 59 63  0  0  0  0  0  0  0  0999 V2000
    4.9505   -2.2188   -2.4633 C   0  0  0  0  0  0  0  0  0  0  0  0
    4.0995   -2.8545   -1.3949 C   0  0  0  0  0  0  0  0  0  0  0  0
    4.3075   -4.0024   -1.0551 O   0  0  0  0  0  0  0  0  0  0  0  0
    2.9992   -2.0660   -0.7888 C   0  0  0  0  0  0  0  0  0  0  0  0
    3.1285   -0.6464   -0.5870 C   0  0  0  0  0  0  0  0  0  0  0  0
    2.1122   -0.0022    0.3297 C   0  0  2  0  0  0  0  0  0  0  0  0
    0.7907   -0.6814    0.3046 C   0  0  0  0  0  0  0  0  0  0  0  0
    0.6416   -1.9835    0.0480 C   0  0  0  0  0  0  0  0  0  0  0  0
    1.8090   -2.6920   -0.4134 C   0  0  0  0  0  0  0  0  0  0  0  0
   -0.2010    0.1926    0.5065 O   0  0  0  0  0  0  0  0  0  0  0  0
    0.3136    1.4543    0.3121 C   0  0  0  0  0  0  0  0  0  0  0  0
    1.6762    1.4126    0.0835 C   0  0  0  0  0  0  0  0  0  0  0  0
   -0.4504    2.5948    0.3624 C   0  0  0  0  0  0  0  0  0  0  0  0
    0.2545    3.7986    0.1597 C   0  0  0  0  0  0  0  0  0  0  0  0
    1.6220    3.8000   -0.0979 C   0  0  0  0  0  0  0  0  0  0  0  0
    2.3510    2.6038   -0.1314 C   0  0  0  0  0  0  0  0  0  0  0  0
    2.7035   -0.1321    1.7665 C   0  0  0  0  0  0  0  0  0  0  0  0
    4.0653    0.0451   -0.9805 O   0  0  0  0  0  0  0  0  0  0  0  0
    1.6859   -3.9857   -0.6024 O   0  0  0  0  0  0  0  0  0  0  0  0
    3.6604    2.6587   -0.3722 O   0  0  0  0  0  0  0  0  0  0  0  0
   -0.4935    4.9058    0.1890 O   0  0  0  0  0  0  0  0  0  0  0  0
    0.1243    6.1609   -0.0368 C   0  0  0  0  0  0  0  0  0  0  0  0
   -1.9123    2.5491    0.6709 C   0  0  0  0  0  0  0  0  0  0  0  0
   -2.3908    3.0919    1.6542 O   0  0  0  0  0  0  0  0  0  0  0  0
   -2.6225    1.8247   -0.2070 N   0  0  0  0  0  0  0  0  0  0  0  0
   -4.0111    1.4460   -0.0369 C   0  0  0  0  0  0  0  0  0  0  0  0
   -4.2065    0.0193   -0.4779 C   0  0  0  0  0  0  0  0  0  0  0  0
   -3.6786   -1.0673    0.2808 C   0  0  0  0  0  0  0  0  0  0  0  0
   -3.8059   -2.3875   -0.2296 C   0  0  0  0  0  0  0  0  0  0  0  0
   -4.4751   -2.6000   -1.4588 C   0  0  0  0  0  0  0  0  0  0  0  0
   -4.9952   -1.5473   -2.1551 C   0  0  0  0  0  0  0  0  0  0  0  0
   -4.8498   -0.2347   -1.6613 C   0  0  0  0  0  0  0  0  0  0  0  0
   -3.2661   -3.4720    0.5011 C   0  0  0  0  0  0  0  0  0  0  0  0
   -2.6375   -3.2667    1.6988 C   0  0  0  0  0  0  0  0  0  0  0  0
   -2.5280   -1.9618    2.2186 C   0  0  0  0  0  0  0  0  0  0  0  0
   -3.0313   -0.8928    1.5276 C   0  0  0  0  0  0  0  0  0  0  0  0
    5.4437   -3.0020   -3.0366 H   0  0  0  0  0  0  0  0  0  0  0  0
    4.3720   -1.5872   -3.1351 H   0  0  0  0  0  0  0  0  0  0  0  0
    5.7209   -1.5917   -2.0139 H   0  0  0  0  0  0  0  0  0  0  0  0
    2.1520    4.7224   -0.2926 H   0  0  0  0  0  0  0  0  0  0  0  0
    3.6191    0.4537    1.8311 H   0  0  0  0  0  0  0  0  0  0  0  0
    1.9959    0.2577    2.4965 H   0  0  0  0  0  0  0  0  0  0  0  0
    2.9271   -1.1700    2.0094 H   0  0  0  0  0  0  0  0  0  0  0  0
    0.8037   -4.2973   -0.3614 H   0  0  0  0  0  0  0  0  0  0  0  0
    3.9869    1.7530   -0.5746 H   0  0  0  0  0  0  0  0  0  0  0  0
    0.8925    6.3738    0.7096 H   0  0  0  0  0  0  0  0  0  0  0  0
    0.5685    6.2184   -1.0330 H   0  0  0  0  0  0  0  0  0  0  0  0
   -0.6621    6.9060    0.0441 H   0  0  0  0  0  0  0  0  0  0  0  0
   -2.1585    1.4877   -1.0358 H   0  0  0  0  0  0  0  0  0  0  0  0
   -4.2848    1.5898    1.0087 H   0  0  0  0  0  0  0  0  0  0  0  0
   -4.6606    2.1008   -0.6225 H   0  0  0  0  0  0  0  0  0  0  0  0
   -4.5723   -3.6111   -1.8352 H   0  0  0  0  0  0  0  0  0  0  0  0
   -5.5119   -1.7114   -3.0914 H   0  0  0  0  0  0  0  0  0  0  0  0
   -5.2500    0.5917   -2.2365 H   0  0  0  0  0  0  0  0  0  0  0  0
   -3.3652   -4.4729    0.0985 H   0  0  0  0  0  0  0  0  0  0  0  0
   -2.2285   -4.1033    2.2502 H   0  0  0  0  0  0  0  0  0  0  0  0
   -2.0375   -1.8025    3.1698 H   0  0  0  0  0  0  0  0  0  0  0  0
   -2.9292    0.0954    1.9542 H   0  0  0  0  0  0  0  0  0  0  0  0
   -0.3270   -2.4707    0.0673 H   0  0  0  0  0  0  0  0  0  0  0  0
  1  2  1  0
  2  3  2  0
  2  4  1  0
  4  5  1  0
  4  9  2  0
  5  6  1  0
  5 18  2  0
  6  7  1  0
  6 12  1  0
  6 17  1  1
  7  8  2  0
  7 10  1  0
  8  9  1  0
  9 19  1  0
 10 11  1  0
 11 12  2  0
 11 13  1  0
 12 16  1  0
 13 14  2  0
 13 23  1  0
 14 15  1  0
 14 21  1  0
 15 16  2  0
 16 20  1  0
 21 22  1  0
 23 24  2  0
 23 25  1  0
 25 26  1  0
 26 27  1  0
 27 28  2  0
 27 32  1  0
 28 29  1  0
 28 36  1  0
 29 30  2  0
 29 33  1  0
 30 31  1  0
 31 32  2  0
 33 34  2  0
 34 35  1  0
 35 36  2  0
  1 37  1  0
  1 38  1  0
  1 39  1  0
 15 40  1  0
 17 41  1  0
 17 42  1  0
 17 43  1  0
 19 44  1  0
 20 45  1  0
 22 46  1  0
 22 47  1  0
 22 48  1  0
 25 49  1  0
 26 50  1  0
 26 51  1  0
 30 52  1  0
 31 53  1  0
 32 54  1  0
 33 55  1  0
 34 56  1  0
 35 57  1  0
 36 58  1  0
  8 59  1  0
M  END
