
     RDKit          3D

 56 61  0  0  0  0  0  0  0  0999 V2000
   -4.9463    0.0448    0.6676 C   0  0  2  0  0  0  0  0  0  0  0  0
   -5.4088   -1.0492   -0.2893 C   0  0  0  0  0  0  0  0  0  0  0  0
   -6.9163   -0.9705   -0.3999 C   0  0  0  0  0  0  0  0  0  0  0  0
   -7.3542    0.2648    0.0063 N   0  0  0  0  0  0  0  0  0  0  0  0
   -6.1451    1.3714    0.3708 S   0  0  1  0  0  0  0  0  0  0  0  0
   -6.4940    2.0978    1.5755 O   0  0  0  0  0  0  0  0  0  0  0  0
   -5.7922    2.1309   -0.8141 O   0  0  0  0  0  0  0  0  0  0  0  0
   -7.6430   -1.8481   -0.7932 O   0  0  0  0  0  0  0  0  0  0  0  0
   -3.5435    0.5519    0.5539 C   0  0  0  0  0  0  0  0  0  0  0  0
   -2.8349    0.8326    1.7157 C   0  0  0  0  0  0  0  0  0  0  0  0
   -1.5366    1.3188    1.6518 C   0  0  0  0  0  0  0  0  0  0  0  0
   -0.9199    1.5376    0.4255 C   0  0  0  0  0  0  0  0  0  0  0  0
   -1.6383    1.2637   -0.7378 C   0  0  0  0  0  0  0  0  0  0  0  0
   -2.9336    0.7811   -0.6782 C   0  0  0  0  0  0  0  0  0  0  0  0
    0.5002    2.0241    0.3522 C   0  0  0  0  0  0  0  0  0  0  0  0
    1.4606    0.9328   -0.1451 C   0  0  2  0  0  0  0  0  0  0  0  0
    1.4050   -0.2101    0.7394 N   0  0  0  0  0  0  0  0  0  0  0  0
    7.0351    2.9791    0.3606 C   0  0  0  0  0  0  0  0  0  0  0  0
    6.0780    2.2776    1.0738 C   0  0  0  0  0  0  0  0  0  0  0  0
    4.8678    2.0460    0.4310 C   0  0  0  0  0  0  0  0  0  0  0  0
    4.6080    2.4873   -0.8780 C   0  0  0  0  0  0  0  0  0  0  0  0
    5.5858    3.1916   -1.5795 C   0  0  0  0  0  0  0  0  0  0  0  0
    6.7926    3.4300   -0.9459 C   0  0  0  0  0  0  0  0  0  0  0  0
    3.7185    1.4068    0.8135 N   0  0  0  0  0  0  0  0  0  0  0  0
    2.8551    1.4738   -0.2291 C   0  0  0  0  0  0  0  0  0  0  0  0
    3.3399    2.1099   -1.2570 N   0  0  0  0  0  0  0  0  0  0  0  0
    3.7553   -5.5501   -0.8217 C   0  0  0  0  0  0  0  0  0  0  0  0
    2.9751   -5.0613    0.2165 C   0  0  0  0  0  0  0  0  0  0  0  0
    2.6389   -3.7171    0.1994 C   0  0  0  0  0  0  0  0  0  0  0  0
    3.0592   -2.8528   -0.8258 C   0  0  0  0  0  0  0  0  0  0  0  0
    3.8429   -3.3634   -1.8583 C   0  0  0  0  0  0  0  0  0  0  0  0
    4.1829   -4.7063   -1.8475 C   0  0  0  0  0  0  0  0  0  0  0  0
    1.6860   -2.8215    1.3488 S   0  0  0  0  0  0  0  0  0  0  0  0
    1.9316   -1.3885    0.3566 C   0  0  0  0  0  0  0  0  0  0  0  0
    2.6432   -1.5479   -0.7080 N   0  0  0  0  0  0  0  0  0  0  0  0
   -5.1479   -0.2695    1.6947 H   0  0  0  0  0  0  0  0  0  0  0  0
   -5.1090   -2.0312    0.0725 H   0  0  0  0  0  0  0  0  0  0  0  0
   -4.9928   -0.9275   -1.2920 H   0  0  0  0  0  0  0  0  0  0  0  0
   -8.3226    0.5567   -0.0820 H   0  0  0  0  0  0  0  0  0  0  0  0
   -3.2931    0.6635    2.6822 H   0  0  0  0  0  0  0  0  0  0  0  0
   -1.0039    1.5332    2.5707 H   0  0  0  0  0  0  0  0  0  0  0  0
   -1.1836    1.4369   -1.7059 H   0  0  0  0  0  0  0  0  0  0  0  0
   -3.4593    0.5836   -1.6029 H   0  0  0  0  0  0  0  0  0  0  0  0
    0.5764    2.8649   -0.3390 H   0  0  0  0  0  0  0  0  0  0  0  0
    0.8281    2.3820    1.3312 H   0  0  0  0  0  0  0  0  0  0  0  0
    1.1673    0.6398   -1.1584 H   0  0  0  0  0  0  0  0  0  0  0  0
    0.7257   -0.2064    1.4834 H   0  0  0  0  0  0  0  0  0  0  0  0
    6.2666    1.9303    2.0810 H   0  0  0  0  0  0  0  0  0  0  0  0
    5.4016    3.5407   -2.5874 H   0  0  0  0  0  0  0  0  0  0  0  0
    7.5687    3.9768   -1.4653 H   0  0  0  0  0  0  0  0  0  0  0  0
    3.5459    0.9481    1.6944 H   0  0  0  0  0  0  0  0  0  0  0  0
    4.0331   -6.5955   -0.8323 H   0  0  0  0  0  0  0  0  0  0  0  0
    2.6413   -5.7131    1.0129 H   0  0  0  0  0  0  0  0  0  0  0  0
    4.1769   -2.7105   -2.6543 H   0  0  0  0  0  0  0  0  0  0  0  0
    4.7900   -5.1072   -2.6485 H   0  0  0  0  0  0  0  0  0  0  0  0
    7.9929    3.1848    0.8207 H   0  0  0  0  0  0  0  0  0  0  0  0
  1  2  1  0
  1  5  1  0
  1  9  1  0
  1 36  1  1
  2  3  1  0
  2 37  1  0
  2 38  1  0
  3  4  1  0
  3  8  2  0
  5  4  1  6
  4 39  1  0
  5  6  2  0
  5  7  2  0
  9 10  2  0
  9 14  1  0
 10 11  1  0
 10 40  1  0
 11 12  2  0
 11 41  1  0
 12 13  1  0
 12 15  1  0
 13 14  2  0
 13 42  1  0
 14 43  1  0
 15 16  1  0
 15 44  1  0
 15 45  1  0
 16 17  1  0
 16 25  1  0
 16 46  1  6
 17 34  1  0
 17 47  1  0
 18 19  2  0
 18 23  1  0
 18 56  1  0
 19 20  1  0
 19 48  1  0
 20 21  2  0
 20 24  1  0
 21 22  1  0
 21 26  1  0
 22 23  2  0
 22 49  1  0
 23 50  1  0
 24 25  1  0
 24 51  1  0
 25 26  2  0
 27 28  2  0
 27 32  1  0
 27 52  1  0
 28 29  1  0
 28 53  1  0
 29 30  2  0
 29 33  1  0
 30 31  1  0
 30 35  1  0
 31 32  2  0
 31 54  1  0
 32 55  1  0
 33 34  1  0
 34 35  2  0
M  END
