
     RDKit          3D

 64 67  0  0  0  0  0  0  0  0999 V2000
   -3.3493    1.2366   -1.1151 F   0  0  0  0  0  0  0  0  0  0  0  0
   -4.0907    0.7981   -0.0918 C   0  0  0  0  0  0  0  0  0  0  0  0
   -4.6669    1.7342    0.7638 C   0  0  0  0  0  0  0  0  0  0  0  0
   -4.4293    3.0297    0.4920 O   0  0  0  0  0  0  0  0  0  0  0  0
   -4.9876    3.9965    1.3599 C   0  0  0  0  0  0  0  0  0  0  0  0
   -5.4282    1.2397    1.8143 C   0  0  0  0  0  0  0  0  0  0  0  0
   -5.6040   -0.1286    1.9946 C   0  0  0  0  0  0  0  0  0  0  0  0
   -5.0239   -1.0380    1.1248 C   0  0  0  0  0  0  0  0  0  0  0  0
   -5.1362   -2.3736    1.2546 O   0  0  0  0  0  0  0  0  0  0  0  0
   -4.2470   -0.5625    0.0647 C   0  0  0  0  0  0  0  0  0  0  0  0
   -3.5967   -1.5026   -0.9036 C   0  0  0  0  0  0  0  0  0  0  0  0
   -4.2629   -2.1537   -1.6753 O   0  0  0  0  0  0  0  0  0  0  0  0
   -2.1178   -1.5926   -0.8681 C   0  0  0  0  0  0  0  0  0  0  0  0
   -1.4296   -2.1705   -1.9363 C   0  0  0  0  0  0  0  0  0  0  0  0
   -0.0495   -2.2188   -1.9302 C   0  0  0  0  0  0  0  0  0  0  0  0
   -1.3992   -1.1088    0.2198 C   0  0  0  0  0  0  0  0  0  0  0  0
   -0.0178   -1.1938    0.2419 C   0  0  0  0  0  0  0  0  0  0  0  0
    0.6712   -1.7337   -0.8391 C   0  0  0  0  0  0  0  0  0  0  0  0
    2.1672   -1.7097   -0.9286 C   0  0  0  0  0  0  0  0  0  0  0  0
    2.7191   -1.6809   -2.0208 O   0  0  0  0  0  0  0  0  0  0  0  0
    2.8356   -1.6971    0.2351 N   0  0  0  0  0  0  0  0  0  0  0  0
    4.2543   -1.4297    0.3331 C   0  0  2  0  0  0  0  0  0  0  0  0
    4.7903   -2.1249    1.5873 C   0  0  0  0  0  0  0  0  0  0  0  0
    6.3086   -2.1964    1.7075 C   0  0  0  0  0  0  0  0  0  0  0  0
    7.0604   -0.8932    1.4698 C   0  0  0  0  0  0  0  0  0  0  0  0
    6.9207   -0.4624    0.0872 N   0  0  0  0  0  0  0  0  0  0  0  0
    5.8853    0.5091   -0.1769 C   0  0  0  0  0  0  0  0  0  0  0  0
    4.5285    0.1062    0.4064 C   0  0  1  0  0  0  0  0  0  0  0  0
    3.5088    0.8927   -0.2461 N   0  0  0  0  0  0  0  0  0  0  0  0
    2.3952    1.3104    0.3780 C   0  0  0  0  0  0  0  0  0  0  0  0
    2.2289    1.2225    1.5862 O   0  0  0  0  0  0  0  0  0  0  0  0
    1.3190    1.8922   -0.4910 C   0  0  0  0  0  0  0  0  0  0  0  0
    0.3342    2.6704    0.1059 C   0  0  0  0  0  0  0  0  0  0  0  0
   -0.6976    3.1622   -0.6762 C   0  0  0  0  0  0  0  0  0  0  0  0
   -0.8014    2.9326   -1.9796 N   0  0  0  0  0  0  0  0  0  0  0  0
    0.1306    2.1781   -2.5439 C   0  0  0  0  0  0  0  0  0  0  0  0
    1.2019    1.6328   -1.8513 C   0  0  0  0  0  0  0  0  0  0  0  0
   -4.6236    3.8843    2.3846 H   0  0  0  0  0  0  0  0  0  0  0  0
   -4.6748    4.9665    0.9826 H   0  0  0  0  0  0  0  0  0  0  0  0
   -6.0801    3.9558    1.3668 H   0  0  0  0  0  0  0  0  0  0  0  0
   -5.9013    1.9117    2.5169 H   0  0  0  0  0  0  0  0  0  0  0  0
   -6.1972   -0.4762    2.8320 H   0  0  0  0  0  0  0  0  0  0  0  0
   -5.6504   -2.5917    2.0400 H   0  0  0  0  0  0  0  0  0  0  0  0
   -1.9739   -2.5560   -2.7881 H   0  0  0  0  0  0  0  0  0  0  0  0
    0.4749   -2.6307   -2.7814 H   0  0  0  0  0  0  0  0  0  0  0  0
   -1.9064   -0.6588    1.0625 H   0  0  0  0  0  0  0  0  0  0  0  0
    0.5006   -0.7837    1.0975 H   0  0  0  0  0  0  0  0  0  0  0  0
    2.3175   -1.7694    1.0965 H   0  0  0  0  0  0  0  0  0  0  0  0
    4.7326   -1.8421   -0.5565 H   0  0  0  0  0  0  0  0  0  0  0  0
    4.3756   -1.6147    2.4643 H   0  0  0  0  0  0  0  0  0  0  0  0
    4.4024   -3.1460    1.6110 H   0  0  0  0  0  0  0  0  0  0  0  0
    6.5502   -2.5754    2.7040 H   0  0  0  0  0  0  0  0  0  0  0  0
    6.6912   -2.9306    0.9936 H   0  0  0  0  0  0  0  0  0  0  0  0
    6.7494   -0.1226    2.1909 H   0  0  0  0  0  0  0  0  0  0  0  0
    8.1189   -1.0734    1.6646 H   0  0  0  0  0  0  0  0  0  0  0  0
    7.7979   -0.1055   -0.2615 H   0  0  0  0  0  0  0  0  0  0  0  0
    6.1144    1.5125    0.2086 H   0  0  0  0  0  0  0  0  0  0  0  0
    5.7904    0.6018   -1.2640 H   0  0  0  0  0  0  0  0  0  0  0  0
    4.5018    0.3844    1.4616 H   0  0  0  0  0  0  0  0  0  0  0  0
    3.5898    1.0198   -1.2424 H   0  0  0  0  0  0  0  0  0  0  0  0
    0.3616    2.8898    1.1639 H   0  0  0  0  0  0  0  0  0  0  0  0
   -1.4781    3.7636   -0.2245 H   0  0  0  0  0  0  0  0  0  0  0  0
    0.0253    1.9851   -3.6054 H   0  0  0  0  0  0  0  0  0  0  0  0
    1.8913    0.9965   -2.3898 H   0  0  0  0  0  0  0  0  0  0  0  0
  1  2  1  0
  2  3  2  0
  2 10  1  0
  3  4  1  0
  3  6  1  0
  4  5  1  0
  5 38  1  0
  5 39  1  0
  5 40  1  0
  6  7  2  0
  6 41  1  0
  7  8  1  0
  7 42  1  0
  8  9  1  0
  8 10  2  0
  9 43  1  0
 10 11  1  0
 11 12  2  0
 11 13  1  0
 13 14  2  0
 13 16  1  0
 14 15  1  0
 14 44  1  0
 15 18  2  0
 15 45  1  0
 16 17  2  0
 16 46  1  0
 17 18  1  0
 17 47  1  0
 18 19  1  0
 19 20  2  0
 19 21  1  0
 21 22  1  0
 21 48  1  0
 22 23  1  0
 22 28  1  0
 22 49  1  6
 23 24  1  0
 23 50  1  0
 23 51  1  0
 24 25  1  0
 24 52  1  0
 24 53  1  0
 25 26  1  0
 25 54  1  0
 25 55  1  0
 26 27  1  0
 26 56  1  0
 27 28  1  0
 27 57  1  0
 27 58  1  0
 28 29  1  0
 28 59  1  1
 29 30  1  0
 29 60  1  0
 30 31  2  0
 30 32  1  0
 32 33  2  0
 32 37  1  0
 33 34  1  0
 33 61  1  0
 34 35  2  0
 34 62  1  0
 35 36  1  0
 36 37  2  0
 36 63  1  0
 37 64  1  0
M  END
