
     RDKit          3D

 13 12  0  0  0  0  0  0  0  0999 V2000
   -0.0007    0.0075    0.3530 C   0  0  2  0  0  0  0  0  0  0  0  0
    0.7597   -1.2282    0.8263 C   0  0  0  0  0  0  0  0  0  0  0  0
   -1.4374    0.0072    0.8618 C   0  0  0  0  0  0  0  0  0  0  0  0
   -0.0328   -0.0015   -1.1332 C   0  0  0  0  0  0  0  0  0  0  0  0
    0.6023    1.2009    0.7808 O   0  0  0  0  0  0  0  0  0  0  0  0
   -0.0498   -0.0048   -2.2833 N   0  0  0  0  0  0  0  0  0  0  0  0
    0.7592   -1.2543    1.9161 H   0  0  0  0  0  0  0  0  0  0  0  0
    0.2936   -2.1415    0.4596 H   0  0  0  0  0  0  0  0  0  0  0  0
    1.7935   -1.2112    0.4790 H   0  0  0  0  0  0  0  0  0  0  0  0
   -1.9689   -0.8759    0.5114 H   0  0  0  0  0  0  0  0  0  0  0  0
   -1.4327   -0.0042    1.9519 H   0  0  0  0  0  0  0  0  0  0  0  0
   -1.9762    0.8917    0.5233 H   0  0  0  0  0  0  0  0  0  0  0  0
    1.5544    1.1446    0.6392 H   0  0  0  0  0  0  0  0  0  0  0  0
  1  2  1  0
  1  3  1  0
  1  4  1  6
  1  5  1  0
  2  7  1  0
  2  8  1  0
  2  9  1  0
  3 10  1  0
  3 11  1  0
  3 12  1  0
  4  6  3  0
  5 13  1  0
M  END
