
     RDKit          3D

 34 35  0  0  0  0  0  0  0  0999 V2000
    0.6829   -0.0733   -2.1585 C   0  0  0  0  0  0  0  0  0  0  0  0
   -0.2256    0.1358   -3.2048 C   0  0  0  0  0  0  0  0  0  0  0  0
    0.2206    0.0886   -4.5232 C   0  0  0  0  0  0  0  0  0  0  0  0
    1.5569   -0.1455   -4.8058 C   0  0  0  0  0  0  0  0  0  0  0  0
    2.4557   -0.3552   -3.7672 C   0  0  0  0  0  0  0  0  0  0  0  0
    2.0218   -0.3265   -2.4535 C   0  0  0  0  0  0  0  0  0  0  0  0
    0.5178    0.0282    1.3501 C   0  0  0  0  0  0  0  0  0  0  0  0
    1.4721    0.1494    2.3570 C   0  0  0  0  0  0  0  0  0  0  0  0
    1.1248    0.0814    3.6957 C   0  0  0  0  0  0  0  0  0  0  0  0
   -0.2263   -0.0961    4.0144 C   0  0  0  0  0  0  0  0  0  0  0  0
   -1.2125   -0.2053    3.0184 C   0  0  0  0  0  0  0  0  0  0  0  0
   -0.8242   -0.1448    1.6936 C   0  0  0  0  0  0  0  0  0  0  0  0
   -1.6438    0.4817   -2.9186 C   0  0  0  0  0  0  0  0  0  0  0  0
    2.1536    0.1896    4.7813 C   0  0  0  0  0  0  0  0  0  0  0  0
   -2.6534   -0.3869    3.3992 C   0  0  0  0  0  0  0  0  0  0  0  0
    0.1708   -0.1211   -0.8515 N   0  0  0  0  0  0  0  0  0  0  0  0
    1.0005    0.1080    0.0404 N   0  0  0  0  0  0  0  0  0  0  0  0
   -2.0044    1.1975   -2.0193 O   0  0  0  0  0  0  0  0  0  0  0  0
   -2.4738   -0.0713   -3.7945 O   0  0  0  0  0  0  0  0  0  0  0  0
   -0.5328   -0.1525    5.3205 O   0  0  0  0  0  0  0  0  0  0  0  0
   -0.4715    0.2556   -5.3373 H   0  0  0  0  0  0  0  0  0  0  0  0
    1.8928   -0.1728   -5.8335 H   0  0  0  0  0  0  0  0  0  0  0  0
    3.4973   -0.5538   -3.9822 H   0  0  0  0  0  0  0  0  0  0  0  0
    2.7146   -0.5201   -1.6459 H   0  0  0  0  0  0  0  0  0  0  0  0
    2.5089    0.2932    2.0761 H   0  0  0  0  0  0  0  0  0  0  0  0
   -1.5712   -0.2201    0.9140 H   0  0  0  0  0  0  0  0  0  0  0  0
    1.9639    1.0396    5.4389 H   0  0  0  0  0  0  0  0  0  0  0  0
    2.1704   -0.7027    5.4092 H   0  0  0  0  0  0  0  0  0  0  0  0
    3.1482    0.3146    4.3569 H   0  0  0  0  0  0  0  0  0  0  0  0
   -2.8183   -1.3222    3.9404 H   0  0  0  0  0  0  0  0  0  0  0  0
   -3.0210    0.4279    4.0283 H   0  0  0  0  0  0  0  0  0  0  0  0
   -3.2852   -0.4137    2.5141 H   0  0  0  0  0  0  0  0  0  0  0  0
   -3.3806    0.2245   -3.6224 H   0  0  0  0  0  0  0  0  0  0  0  0
   -1.4786   -0.2802    5.4570 H   0  0  0  0  0  0  0  0  0  0  0  0
  1  2  2  0
  1  6  1  0
  1 16  1  0
  2  3  1  0
  2 13  1  0
  3  4  2  0
  3 21  1  0
  4  5  1  0
  4 22  1  0
  5  6  2  0
  5 23  1  0
  6 24  1  0
  7  8  2  0
  7 12  1  0
  7 17  1  0
  8  9  1  0
  8 25  1  0
  9 10  2  0
  9 14  1  0
 10 11  1  0
 10 20  1  0
 11 12  2  0
 11 15  1  0
 12 26  1  0
 13 18  2  0
 13 19  1  0
 14 27  1  0
 14 28  1  0
 14 29  1  0
 15 30  1  0
 15 31  1  0
 15 32  1  0
 16 17  2  0
 19 33  1  0
 20 34  1  0
M  END
