
     RDKit          3D

 76 81  0  0  0  0  0  0  0  0999 V2000
   15.8307   -3.3394   27.4248 C   0  0  0  0  0  0  0  0  0  0  0  0
   17.0546   -3.7012   28.2768 C   0  0  0  0  0  0  0  0  0  0  0  0
   17.1496   -2.7973   29.4964 C   0  0  0  0  0  0  0  0  0  0  0  0
   17.3462   -1.3464   29.0432 C   0  0  0  0  0  0  0  0  0  0  0  0
   16.6506   -1.0986   27.6990 C   0  0  0  0  0  0  0  0  0  0  0  0
   15.4699   -1.9375   27.5932 N   0  0  0  0  0  0  0  0  0  0  0  0
   14.4713   -1.4342   26.6688 C   0  0  1  0  0  0  0  0  0  0  0  0
   14.8215   -1.4885   25.1758 C   0  0  0  0  0  0  0  0  0  0  0  0
   13.8682   -0.5676   24.4105 C   0  0  0  0  0  0  0  0  0  0  0  0
   13.1013   -2.0942   26.8776 C   0  0  0  0  0  0  0  0  0  0  0  0
   12.2366   -1.9212   25.6225 C   0  0  0  0  0  0  0  0  0  0  0  0
   12.4997   -0.6869   24.9119 N   0  0  0  0  0  0  0  0  0  0  0  0
   11.7684    0.4494   25.1936 C   0  0  0  0  0  0  0  0  0  0  0  0
   10.9666    0.5748   26.3390 C   0  0  0  0  0  0  0  0  0  0  0  0
   10.1715    1.6828   26.5959 C   0  0  0  0  0  0  0  0  0  0  0  0
   11.7386    1.5460   24.3268 C   0  0  0  0  0  0  0  0  0  0  0  0
   12.3769    1.7293   22.9812 C   0  0  0  0  0  0  0  0  0  0  0  0
   11.8857    3.0217   22.5621 N   0  0  0  0  0  0  0  0  0  0  0  0
   12.2893    3.6037   21.3113 C   0  0  0  0  0  0  0  0  0  0  0  0
   11.0757    3.6048   23.4661 C   0  0  0  0  0  0  0  0  0  0  0  0
   10.5513    4.7103   23.3739 O   0  0  0  0  0  0  0  0  0  0  0  0
   10.9475    2.6528   24.5874 C   0  0  0  0  0  0  0  0  0  0  0  0
   10.1269    2.7559   25.7092 C   0  0  0  0  0  0  0  0  0  0  0  0
    9.3600    3.9115   25.8775 N   0  0  0  0  0  0  0  0  0  0  0  0
    8.1786    4.0432   26.5187 C   0  0  0  0  0  0  0  0  0  0  0  0
    7.6279    2.9980   27.1191 N   0  0  0  0  0  0  0  0  0  0  0  0
    7.5166    5.2883   26.5510 C   0  0  0  0  0  0  0  0  0  0  0  0
    8.1799    6.6880   25.7866 Cl  0  0  0  0  0  0  0  0  0  0  0  0
    6.3159    5.3450   27.2185 C   0  0  0  0  0  0  0  0  0  0  0  0
    5.7683    4.2955   27.8138 N   0  0  0  0  0  0  0  0  0  0  0  0
    6.4617    3.1567   27.7293 C   0  0  0  0  0  0  0  0  0  0  0  0
    5.8823    2.0943   28.3458 N   0  0  0  0  0  0  0  0  0  0  0  0
    6.3162    0.7727   28.4500 C   0  0  0  0  0  0  0  0  0  0  0  0
    7.1364    0.1388   27.5241 C   0  0  0  0  0  0  0  0  0  0  0  0
    7.5059   -1.1910   27.6952 C   0  0  0  0  0  0  0  0  0  0  0  0
    7.0411   -1.9083   28.7818 C   0  0  0  0  0  0  0  0  0  0  0  0
    6.1997   -1.2985   29.7078 C   0  0  0  0  0  0  0  0  0  0  0  0
    5.8403    0.0325   29.5533 C   0  0  0  0  0  0  0  0  0  0  0  0
    5.0364    0.7080   30.3994 O   0  0  0  0  0  0  0  0  0  0  0  0
    4.4508    0.0113   31.4822 C   0  0  0  0  0  0  0  0  0  0  0  0
   16.0426   -3.5948   26.3756 H   0  0  0  0  0  0  0  0  0  0  0  0
   14.9872   -3.9627   27.7321 H   0  0  0  0  0  0  0  0  0  0  0  0
   16.9945   -4.7520   28.5665 H   0  0  0  0  0  0  0  0  0  0  0  0
   17.9702   -3.6019   27.6860 H   0  0  0  0  0  0  0  0  0  0  0  0
   16.2348   -2.8856   30.0878 H   0  0  0  0  0  0  0  0  0  0  0  0
   17.9685   -3.1098   30.1471 H   0  0  0  0  0  0  0  0  0  0  0  0
   16.9550   -0.6638   29.8005 H   0  0  0  0  0  0  0  0  0  0  0  0
   18.4106   -1.1233   28.9385 H   0  0  0  0  0  0  0  0  0  0  0  0
   16.3477   -0.0520   27.6252 H   0  0  0  0  0  0  0  0  0  0  0  0
   17.3574   -1.2672   26.8704 H   0  0  0  0  0  0  0  0  0  0  0  0
   14.3536   -0.3722   26.9190 H   0  0  0  0  0  0  0  0  0  0  0  0
   15.8433   -1.1501   24.9905 H   0  0  0  0  0  0  0  0  0  0  0  0
   14.7607   -2.5126   24.7988 H   0  0  0  0  0  0  0  0  0  0  0  0
   13.2056   -3.1636   27.0695 H   0  0  0  0  0  0  0  0  0  0  0  0
   12.6227   -1.6656   27.7607 H   0  0  0  0  0  0  0  0  0  0  0  0
   14.2076    0.4589   24.5616 H   0  0  0  0  0  0  0  0  0  0  0  0
   13.9245   -0.7751   23.3366 H   0  0  0  0  0  0  0  0  0  0  0  0
   12.4357   -2.7427   24.9296 H   0  0  0  0  0  0  0  0  0  0  0  0
   11.1738   -1.9911   25.8560 H   0  0  0  0  0  0  0  0  0  0  0  0
   10.9594   -0.2137   27.0795 H   0  0  0  0  0  0  0  0  0  0  0  0
    9.5839    1.6911   27.4996 H   0  0  0  0  0  0  0  0  0  0  0  0
   13.4692    1.7374   23.0093 H   0  0  0  0  0  0  0  0  0  0  0  0
   12.0755    0.9421   22.2813 H   0  0  0  0  0  0  0  0  0  0  0  0
   11.8749    4.6043   21.2216 H   0  0  0  0  0  0  0  0  0  0  0  0
   13.3765    3.6723   21.2511 H   0  0  0  0  0  0  0  0  0  0  0  0
   11.9350    3.0048   20.4709 H   0  0  0  0  0  0  0  0  0  0  0  0
    9.6267    4.6756   25.2676 H   0  0  0  0  0  0  0  0  0  0  0  0
    5.7729    6.2823   27.2752 H   0  0  0  0  0  0  0  0  0  0  0  0
    5.0468    2.3320   28.8588 H   0  0  0  0  0  0  0  0  0  0  0  0
    7.5013    0.6847   26.6692 H   0  0  0  0  0  0  0  0  0  0  0  0
    8.1522   -1.6586   26.9641 H   0  0  0  0  0  0  0  0  0  0  0  0
    7.3224   -2.9436   28.9207 H   0  0  0  0  0  0  0  0  0  0  0  0
    5.8387   -1.8722   30.5506 H   0  0  0  0  0  0  0  0  0  0  0  0
    3.8305   -0.8201   31.1387 H   0  0  0  0  0  0  0  0  0  0  0  0
    5.2053   -0.3711   32.1738 H   0  0  0  0  0  0  0  0  0  0  0  0
    3.8240    0.7277   32.0067 H   0  0  0  0  0  0  0  0  0  0  0  0
  1  2  1  0
  1  6  1  0
  2  3  1  0
  3  4  1  0
  4  5  1  0
  5  6  1  0
  6  7  1  0
  7  8  1  0
  7 10  1  0
  8  9  1  0
  9 12  1  0
 10 11  1  0
 11 12  1  0
 12 13  1  0
 13 14  2  0
 13 16  1  0
 14 15  1  0
 15 23  2  0
 16 17  1  0
 16 22  2  0
 17 18  1  0
 18 19  1  0
 18 20  1  0
 20 21  2  0
 20 22  1  0
 22 23  1  0
 23 24  1  0
 24 25  1  0
 25 26  2  0
 25 27  1  0
 26 31  1  0
 27 28  1  0
 27 29  2  0
 29 30  1  0
 30 31  2  0
 31 32  1  0
 32 33  1  0
 33 34  2  0
 33 38  1  0
 34 35  1  0
 35 36  2  0
 36 37  1  0
 37 38  2  0
 38 39  1  0
 39 40  1  0
  1 41  1  0
  1 42  1  0
  2 43  1  0
  2 44  1  0
  3 45  1  0
  3 46  1  0
  4 47  1  0
  4 48  1  0
  5 49  1  0
  5 50  1  0
  7 51  1  1
  8 52  1  0
  8 53  1  0
 10 54  1  0
 10 55  1  0
  9 56  1  0
  9 57  1  0
 11 58  1  0
 11 59  1  0
 14 60  1  0
 15 61  1  0
 17 62  1  0
 17 63  1  0
 19 64  1  0
 19 65  1  0
 19 66  1  0
 24 67  1  0
 29 68  1  0
 32 69  1  0
 34 70  1  0
 35 71  1  0
 36 72  1  0
 37 73  1  0
 40 74  1  0
 40 75  1  0
 40 76  1  0
M  END
