
     RDKit          3D

 34 35  0  0  0  0  0  0  0  0999 V2000
   -0.2358    0.4256   -1.9951 N   0  0  0  0  0  0  0  0  0  0  0  0
    0.4467   -0.5784   -2.6620 C   0  0  0  0  0  0  0  0  0  0  0  0
    0.2285   -0.6171   -4.0134 N   0  0  0  0  0  0  0  0  0  0  0  0
   -0.5704    0.2177   -4.7804 C   0  0  0  0  0  0  0  0  0  0  0  0
   -1.2265    1.2450   -4.0097 C   0  0  0  0  0  0  0  0  0  0  0  0
   -1.0271    1.3057   -2.6852 C   0  0  0  0  0  0  0  0  0  0  0  0
    1.1746   -1.3714   -2.1072 O   0  0  0  0  0  0  0  0  0  0  0  0
   -0.6647    0.0525   -5.9814 O   0  0  0  0  0  0  0  0  0  0  0  0
   -2.0884    1.5269    3.7164 O   0  0  0  0  0  0  0  0  0  0  0  0
   -0.3293    0.0119    4.8936 O   0  0  0  0  0  0  0  0  0  0  0  0
   -1.9417   -1.0072    3.2230 O   0  0  0  0  0  0  0  0  0  0  0  0
    3.8737    0.1073    0.2010 O   0  0  0  0  0  0  0  0  0  0  0  0
    2.8012   -0.5683    0.8057 C   0  0  0  0  0  0  0  0  0  0  0  0
    1.6611    0.4156    0.9776 C   0  0  1  0  0  0  0  0  0  0  0  0
    1.2579    0.9653   -0.2772 O   0  0  0  0  0  0  0  0  0  0  0  0
    0.4208   -0.2437    1.5745 C   0  0  1  0  0  0  0  0  0  0  0  0
   -0.2794    0.7160    2.3631 O   0  0  0  0  0  0  0  0  0  0  0  0
   -0.3970   -0.5820    0.3289 C   0  0  1  0  0  0  0  0  0  0  0  0
   -1.7757   -0.6799    0.5856 O   0  0  0  0  0  0  0  0  0  0  0  0
   -0.0615    0.6169   -0.5655 C   0  0  2  0  0  0  0  0  0  0  0  0
    0.7179   -1.3568   -4.5034 H   0  0  0  0  0  0  0  0  0  0  0  0
   -1.8634    1.9626   -4.5029 H   0  0  0  0  0  0  0  0  0  0  0  0
   -1.4946    2.0729   -2.0849 H   0  0  0  0  0  0  0  0  0  0  0  0
   -2.4227    1.7222    4.6020 H   0  0  0  0  0  0  0  0  0  0  0  0
   -2.1308   -1.0197    2.2554 H   0  0  0  0  0  0  0  0  0  0  0  0
    4.5715   -0.5316    0.0312 H   0  0  0  0  0  0  0  0  0  0  0  0
    2.4735   -1.4301    0.2137 H   0  0  0  0  0  0  0  0  0  0  0  0
    3.0631   -0.9418    1.8046 H   0  0  0  0  0  0  0  0  0  0  0  0
    1.9955    1.2342    1.6229 H   0  0  0  0  0  0  0  0  0  0  0  0
    0.6773   -1.1325    2.1581 H   0  0  0  0  0  0  0  0  0  0  0  0
   -0.0093   -1.5127   -0.0871 H   0  0  0  0  0  0  0  0  0  0  0  0
   -2.1623   -1.3461    0.0074 H   0  0  0  0  0  0  0  0  0  0  0  0
   -0.7484    1.4315   -0.3068 H   0  0  0  0  0  0  0  0  0  0  0  0
   -1.1077    0.2701    3.6678 P   0  0  1  0  0  0  0  0  0  0  0  0
  1  2  1  0
  1  6  1  0
  1 20  1  0
  2  3  1  0
  2  7  2  0
  3  4  1  0
  3 21  1  0
  4  5  1  0
  4  8  2  0
  5  6  2  0
  5 22  1  0
  6 23  1  0
 34  9  1  1
 34 10  2  0
 34 11  1  0
 34 17  1  0
  9 24  1  0
 11 25  1  0
 12 13  1  0
 12 26  1  0
 13 14  1  0
 13 27  1  0
 13 28  1  0
 14 15  1  0
 14 16  1  0
 14 29  1  1
 15 20  1  0
 16 17  1  0
 16 18  1  0
 16 30  1  1
 18 19  1  0
 18 20  1  0
 18 31  1  6
 19 32  1  0
 20 33  1  1
M  END
