
     RDKit          3D

 74 77  0  0  0  0  0  0  0  0999 V2000
   -5.8405   -1.0415    1.6868 C   0  0  0  0  0  0  0  0  0  0  0  0
    6.1658   -5.7815   -0.3286 F   0  0  0  0  0  0  0  0  0  0  0  0
   -3.3761    0.4116   -0.6290 N   0  0  0  0  0  0  0  0  0  0  0  0
   -3.4574    0.6257    2.9501 O   0  0  0  0  0  0  0  0  0  0  0  0
   -4.9326   -0.5370    0.6293 C   0  0  0  0  0  0  0  0  0  0  0  0
   -4.1818   -0.1863   -1.4227 N   0  0  0  0  0  0  0  0  0  0  0  0
    4.1394    0.9183    2.0951 O   0  0  0  0  0  0  0  0  0  0  0  0
   -3.7875    0.2319    0.6459 C   0  0  0  0  0  0  0  0  0  0  0  0
   -5.1224   -0.7646   -0.6829 N   0  0  0  0  0  0  0  0  0  0  0  0
    5.5987    2.6718   -1.1981 O   0  0  0  0  0  0  0  0  0  0  0  0
   -6.2173   -1.4737   -1.3179 C   0  0  0  0  0  0  0  0  0  0  0  0
   -1.9971    1.5403    1.4780 N   0  0  0  0  0  0  0  0  0  0  0  0
   -7.5036   -0.6941   -1.2520 C   0  0  0  0  0  0  0  0  0  0  0  0
    4.7490    0.3566   -0.0001 N   0  0  0  0  0  0  0  0  0  0  0  0
   -7.5915    0.5658   -1.8397 C   0  0  0  0  0  0  0  0  0  0  0  0
    5.3716    1.8322   -3.2771 N   0  0  0  0  0  0  0  0  0  0  0  0
   -8.7765    1.2831   -1.7832 C   0  0  0  0  0  0  0  0  0  0  0  0
   -9.8867    0.7473   -1.1397 C   0  0  0  0  0  0  0  0  0  0  0  0
   -9.8045   -0.5070   -0.5527 C   0  0  0  0  0  0  0  0  0  0  0  0
   -8.6147   -1.2232   -0.6073 C   0  0  0  0  0  0  0  0  0  0  0  0
   -3.0710    0.8081    1.8012 C   0  0  0  0  0  0  0  0  0  0  0  0
   -1.1451    2.1984    2.4548 C   0  0  2  0  0  0  0  0  0  0  0  0
   -0.4445    3.3855    1.7975 C   0  0  0  0  0  0  0  0  0  0  0  0
    0.6111    2.9558    0.7829 C   0  0  0  0  0  0  0  0  0  0  0  0
    1.6417    2.0095    1.4000 C   0  0  1  0  0  0  0  0  0  0  0  0
    0.9359    0.8092    2.0312 C   0  0  0  0  0  0  0  0  0  0  0  0
   -0.1140    1.2373    3.0503 C   0  0  0  0  0  0  0  0  0  0  0  0
    2.6546    1.5898    0.3414 C   0  0  0  0  0  0  0  0  0  0  0  0
    3.9037    0.9328    0.8958 C   0  0  0  0  0  0  0  0  0  0  0  0
    6.0070   -0.2199    0.4428 C   0  0  0  0  0  0  0  0  0  0  0  0
    6.0509   -1.7106    0.2261 C   0  0  0  0  0  0  0  0  0  0  0  0
    7.0484   -2.2926   -0.5468 C   0  0  0  0  0  0  0  0  0  0  0  0
    7.0996   -3.6682   -0.7406 C   0  0  0  0  0  0  0  0  0  0  0  0
    6.1292   -4.4504   -0.1501 C   0  0  0  0  0  0  0  0  0  0  0  0
    5.1173   -3.9081    0.6220 C   0  0  0  0  0  0  0  0  0  0  0  0
    5.0873   -2.5351    0.8045 C   0  0  0  0  0  0  0  0  0  0  0  0
    4.6093    0.4877   -1.4230 C   0  0  0  0  0  0  0  0  0  0  0  0
    5.2515    1.7723   -1.9476 C   0  0  0  0  0  0  0  0  0  0  0  0
    5.9066    2.9890   -3.9575 C   0  0  0  0  0  0  0  0  0  0  0  0
   -6.7162   -0.3981    1.7819 H   0  0  0  0  0  0  0  0  0  0  0  0
   -6.1953   -2.0466    1.4612 H   0  0  0  0  0  0  0  0  0  0  0  0
   -5.3307   -1.0617    2.6443 H   0  0  0  0  0  0  0  0  0  0  0  0
   -5.9114   -1.6479   -2.3488 H   0  0  0  0  0  0  0  0  0  0  0  0
   -6.3283   -2.4483   -0.8425 H   0  0  0  0  0  0  0  0  0  0  0  0
   -1.7598    1.6101    0.5001 H   0  0  0  0  0  0  0  0  0  0  0  0
   -6.7317    0.9891   -2.3458 H   0  0  0  0  0  0  0  0  0  0  0  0
    5.0845    1.0431   -3.8322 H   0  0  0  0  0  0  0  0  0  0  0  0
   -8.8373    2.2596   -2.2458 H   0  0  0  0  0  0  0  0  0  0  0  0
  -10.8119    1.3074   -1.0994 H   0  0  0  0  0  0  0  0  0  0  0  0
  -10.6634   -0.9290   -0.0477 H   0  0  0  0  0  0  0  0  0  0  0  0
   -8.5520   -2.2006   -0.1431 H   0  0  0  0  0  0  0  0  0  0  0  0
   -1.7882    2.5694    3.2555 H   0  0  0  0  0  0  0  0  0  0  0  0
   -1.1827    4.0410    1.3291 H   0  0  0  0  0  0  0  0  0  0  0  0
    0.0363    3.9700    2.5867 H   0  0  0  0  0  0  0  0  0  0  0  0
    0.1417    2.4708   -0.0825 H   0  0  0  0  0  0  0  0  0  0  0  0
    1.1115    3.8428    0.3858 H   0  0  0  0  0  0  0  0  0  0  0  0
    2.1659    2.5567    2.1919 H   0  0  0  0  0  0  0  0  0  0  0  0
    0.4662    0.2120    1.2404 H   0  0  0  0  0  0  0  0  0  0  0  0
    1.6617    0.1551    2.5168 H   0  0  0  0  0  0  0  0  0  0  0  0
    0.3757    1.7425    3.8890 H   0  0  0  0  0  0  0  0  0  0  0  0
   -0.6198    0.3640    3.4669 H   0  0  0  0  0  0  0  0  0  0  0  0
    2.1612    0.9271   -0.3766 H   0  0  0  0  0  0  0  0  0  0  0  0
    2.9701    2.4689   -0.2312 H   0  0  0  0  0  0  0  0  0  0  0  0
    6.8323    0.2568   -0.0922 H   0  0  0  0  0  0  0  0  0  0  0  0
    6.1428    0.0109    1.4973 H   0  0  0  0  0  0  0  0  0  0  0  0
    7.8039   -1.6693   -1.0098 H   0  0  0  0  0  0  0  0  0  0  0  0
    7.8787   -4.1177   -1.3422 H   0  0  0  0  0  0  0  0  0  0  0  0
    4.3690   -4.5459    1.0740 H   0  0  0  0  0  0  0  0  0  0  0  0
    4.3008   -2.1041    1.4120 H   0  0  0  0  0  0  0  0  0  0  0  0
    5.0622   -0.3821   -1.9058 H   0  0  0  0  0  0  0  0  0  0  0  0
    3.5629    0.4704   -1.7283 H   0  0  0  0  0  0  0  0  0  0  0  0
    5.8264    2.8261   -5.0283 H   0  0  0  0  0  0  0  0  0  0  0  0
    5.3507    3.8919   -3.7045 H   0  0  0  0  0  0  0  0  0  0  0  0
    6.9566    3.1523   -3.7121 H   0  0  0  0  0  0  0  0  0  0  0  0
  1  5  1  0
  2 34  1  0
  3  6  2  0
  3  8  1  0
  4 21  2  0
  5  8  2  0
  5  9  1  0
  6  9  1  0
  7 29  2  0
  8 21  1  0
  9 11  1  0
 10 38  2  0
 11 13  1  0
 12 21  1  0
 12 22  1  0
 13 15  2  0
 13 20  1  0
 14 29  1  0
 14 30  1  0
 14 37  1  0
 15 17  1  0
 16 38  1  0
 16 39  1  0
 17 18  2  0
 18 19  1  0
 19 20  2  0
 22 23  1  0
 22 27  1  0
 23 24  1  0
 24 25  1  0
 25 26  1  0
 25 28  1  0
 26 27  1  0
 28 29  1  0
 30 31  1  0
 31 32  2  0
 31 36  1  0
 32 33  1  0
 33 34  2  0
 34 35  1  0
 35 36  2  0
 37 38  1  0
  1 40  1  0
  1 41  1  0
  1 42  1  0
 11 43  1  0
 11 44  1  0
 12 45  1  0
 15 46  1  0
 16 47  1  0
 17 48  1  0
 18 49  1  0
 19 50  1  0
 20 51  1  0
 22 52  1  1
 23 53  1  0
 23 54  1  0
 24 55  1  0
 24 56  1  0
 25 57  1  1
 26 58  1  0
 26 59  1  0
 27 60  1  0
 27 61  1  0
 28 62  1  0
 28 63  1  0
 30 64  1  0
 30 65  1  0
 32 66  1  0
 33 67  1  0
 35 68  1  0
 36 69  1  0
 37 70  1  0
 37 71  1  0
 39 72  1  0
 39 73  1  0
 39 74  1  0
M  END
