
     RDKit          3D

 56 59  0  0  0  0  0  0  0  0999 V2000
    1.9057    3.5844    0.1589 C   0  0  0  0  0  0  0  0  0  0  0  0
    1.7882    1.3906    0.4080 C   0  0  0  0  0  0  0  0  0  0  0  0
    2.7131   -4.4153    0.5362 N   0  0  0  0  0  0  0  0  0  0  0  0
    0.0578   -0.2871    1.1369 C   0  0  0  0  0  0  0  0  0  0  0  0
   -0.8581   -0.6257   -0.0409 C   0  0  0  0  0  0  0  0  0  0  0  0
   -2.2893   -0.9190    0.3682 C   0  0  2  0  0  0  0  0  0  0  0  0
   -6.5893   -0.9702    0.4955 C   0  0  0  0  0  0  0  0  0  0  0  0
    2.4160   -0.8866    0.3901 C   0  0  0  0  0  0  0  0  0  0  0  0
    2.9895   -3.1005    0.3743 C   0  0  0  0  0  0  0  0  0  0  0  0
    4.6650   -1.5238   -0.3869 C   0  0  0  0  0  0  0  0  0  0  0  0
    3.6786   -0.4931   -0.1138 C   0  0  0  0  0  0  0  0  0  0  0  0
    4.0006    0.8472   -0.3624 C   0  0  0  0  0  0  0  0  0  0  0  0
    3.0449    1.8014   -0.0983 C   0  0  0  0  0  0  0  0  0  0  0  0
    5.7902   -1.3334   -0.8227 O   0  0  0  0  0  0  0  0  0  0  0  0
    4.2323   -2.8023   -0.1151 N   0  0  0  0  0  0  0  0  0  0  0  0
    2.1002   -2.2003    0.6284 N   0  0  0  0  0  0  0  0  0  0  0  0
    1.0812    2.5609    0.5508 N   0  0  0  0  0  0  0  0  0  0  0  0
    3.0825    3.1700   -0.2427 N   0  0  0  0  0  0  0  0  0  0  0  0
    1.4963    4.8587    0.1832 N   0  0  0  0  0  0  0  0  0  0  0  0
    0.2094    5.2808    0.6763 C   0  0  0  0  0  0  0  0  0  0  0  0
    1.4317    0.0843    0.6654 C   0  0  0  0  0  0  0  0  0  0  0  0
   -3.1828   -1.3162   -0.8156 C   0  0  1  0  0  0  0  0  0  0  0  0
   -3.2595   -2.7048   -0.9061 O   0  0  0  0  0  0  0  0  0  0  0  0
   -3.9134   -3.1576   -2.0673 C   0  0  0  0  0  0  0  0  0  0  0  0
   -4.5028   -0.5929   -0.5157 C   0  0  1  0  0  0  0  0  0  0  0  0
   -5.2438   -1.3685    0.3814 O   0  0  0  0  0  0  0  0  0  0  0  0
   -3.9642    0.6709    0.1551 C   0  0  1  0  0  0  0  0  0  0  0  0
   -2.9062    0.2262    0.9543 O   0  0  0  0  0  0  0  0  0  0  0  0
   -3.5513    1.5364   -0.8569 O   0  0  0  0  0  0  0  0  0  0  0  0
   -3.0135    2.7555   -0.4003 C   0  0  0  0  0  0  0  0  0  0  0  0
    3.4717   -5.0632    0.6730 H   0  0  0  0  0  0  0  0  0  0  0  0
    1.8864   -4.6228    1.0718 H   0  0  0  0  0  0  0  0  0  0  0  0
   -0.3753    0.5306    1.7190 H   0  0  0  0  0  0  0  0  0  0  0  0
    0.1170   -1.1454    1.8083 H   0  0  0  0  0  0  0  0  0  0  0  0
   -0.8512    0.1918   -0.7694 H   0  0  0  0  0  0  0  0  0  0  0  0
   -0.4618   -1.5067   -0.5539 H   0  0  0  0  0  0  0  0  0  0  0  0
   -2.2993   -1.7229    1.1148 H   0  0  0  0  0  0  0  0  0  0  0  0
   -6.6998    0.0569    0.8591 H   0  0  0  0  0  0  0  0  0  0  0  0
   -7.1182   -1.0481   -0.4612 H   0  0  0  0  0  0  0  0  0  0  0  0
   -7.0705   -1.6357    1.2107 H   0  0  0  0  0  0  0  0  0  0  0  0
    4.9736    1.1177   -0.7506 H   0  0  0  0  0  0  0  0  0  0  0  0
    4.8828   -3.5516   -0.3130 H   0  0  0  0  0  0  0  0  0  0  0  0
    0.1772    2.6573    0.9830 H   0  0  0  0  0  0  0  0  0  0  0  0
    2.1854    5.5552   -0.0426 H   0  0  0  0  0  0  0  0  0  0  0  0
   -0.6084    4.8443    0.0981 H   0  0  0  0  0  0  0  0  0  0  0  0
    0.0611    5.0356    1.7308 H   0  0  0  0  0  0  0  0  0  0  0  0
    0.1393    6.3590    0.5716 H   0  0  0  0  0  0  0  0  0  0  0  0
   -2.7757   -0.8961   -1.7482 H   0  0  0  0  0  0  0  0  0  0  0  0
   -4.9785   -2.9039   -2.0749 H   0  0  0  0  0  0  0  0  0  0  0  0
   -3.4592   -2.7477   -2.9767 H   0  0  0  0  0  0  0  0  0  0  0  0
   -3.8223   -4.2426   -2.0957 H   0  0  0  0  0  0  0  0  0  0  0  0
   -5.0810   -0.3605   -1.4195 H   0  0  0  0  0  0  0  0  0  0  0  0
   -4.6825    1.1727    0.8185 H   0  0  0  0  0  0  0  0  0  0  0  0
   -2.8855    3.4045   -1.2647 H   0  0  0  0  0  0  0  0  0  0  0  0
   -3.6781    3.2528    0.3143 H   0  0  0  0  0  0  0  0  0  0  0  0
   -2.0379    2.6233    0.0764 H   0  0  0  0  0  0  0  0  0  0  0  0
 20 19  1  0
 30 29  1  0
 29 27  1  0
 19  1  1  0
  7 26  1  0
 27 25  1  0
 27 28  1  0
 25 26  1  0
 25 22  1  0
  1 17  1  0
  1 18  2  0
 28  6  1  0
 17  2  1  0
 22  6  1  0
 22 23  1  0
 18 13  1  0
  6  5  1  0
  2 13  2  0
  2 21  1  0
  5  4  1  0
 23 24  1  0
 13 12  1  0
  4 21  1  0
 21  8  2  0
 12 11  2  0
  8 11  1  0
  8 16  1  0
 11 10  1  0
 16  9  2  0
 10 14  2  0
 10 15  1  0
  9 15  1  0
  9  3  1  0
  3 31  1  0
  3 32  1  0
  4 33  1  0
  4 34  1  0
  5 35  1  0
  5 36  1  0
  6 37  1  1
  7 38  1  0
  7 39  1  0
  7 40  1  0
 12 41  1  0
 15 42  1  0
 17 43  1  0
 19 44  1  0
 20 45  1  0
 20 46  1  0
 20 47  1  0
 22 48  1  6
 24 49  1  0
 24 50  1  0
 24 51  1  0
 25 52  1  6
 27 53  1  1
 30 54  1  0
 30 55  1  0
 30 56  1  0
M  END
