
     RDKit          3D

 17 17  0  0  0  0  0  0  0  0999 V2000
    2.5500    0.6966    0.0488 C   0  0  0  0  0  0  0  0  0  0  0  0
    0.2062   -0.3083    0.0132 C   0  0  0  0  0  0  0  0  0  0  0  0
   -0.6418   -1.4163   -0.0055 C   0  0  0  0  0  0  0  0  0  0  0  0
   -2.0155   -1.2577   -0.0121 C   0  0  0  0  0  0  0  0  0  0  0  0
   -0.3527    0.9685    0.0245 C   0  0  0  0  0  0  0  0  0  0  0  0
   -1.7272    1.1438    0.0174 C   0  0  0  0  0  0  0  0  0  0  0  0
   -2.5475    0.0257   -0.0009 C   0  0  0  0  0  0  0  0  0  0  0  0
   -4.4161    0.2507   -0.0102 Br  0  0  0  0  0  0  0  0  0  0  0  0
    1.6762   -0.5395    0.0201 C   0  0  0  0  0  0  0  0  0  0  0  0
    2.1371   -1.6542    0.0049 O   0  0  0  0  0  0  0  0  0  0  0  0
    2.3505    1.3263   -0.8203 H   0  0  0  0  0  0  0  0  0  0  0  0
    2.3405    1.2898    0.9410 H   0  0  0  0  0  0  0  0  0  0  0  0
   -0.2298   -2.4162   -0.0147 H   0  0  0  0  0  0  0  0  0  0  0  0
   -2.6575   -2.1277   -0.0267 H   0  0  0  0  0  0  0  0  0  0  0  0
    0.2688    1.8538    0.0386 H   0  0  0  0  0  0  0  0  0  0  0  0
   -2.1403    2.1430    0.0261 H   0  0  0  0  0  0  0  0  0  0  0  0
    4.4350    0.2626    0.0497 Br  0  0  0  0  0  0  0  0  0  0  0  0
  1  9  1  0
  1 11  1  0
  1 12  1  0
  2  3  2  0
  2  5  1  0
  2  9  1  0
  3  4  1  0
  3 13  1  0
  4  7  2  0
  4 14  1  0
  5  6  2  0
  5 15  1  0
  6  7  1  0
  6 16  1  0
  7  8  1  0
  9 10  2  0
  1 17  1  0
M  END
