
     RDKit          3D

 69 71  0  0  0  0  0  0  0  0999 V2000
    3.2046    1.7838    0.4057 C   0  0  2  0  0  0  0  0  0  0  0  0
    4.3547    1.7103   -0.5883 C   0  0  2  0  0  0  0  0  0  0  0  0
    5.5135    0.9280    0.0132 C   0  0  1  0  0  0  0  0  0  0  0  0
    5.0163   -0.4527    0.4476 C   0  0  1  0  0  0  0  0  0  0  0  0
    6.0953   -1.2525    1.1435 C   0  0  0  0  0  0  0  0  0  0  0  0
   -1.3324   -2.5706   -0.7650 C   0  0  1  0  0  0  0  0  0  0  0  0
   -1.4077   -1.3841    0.1856 C   0  0  1  0  0  0  0  0  0  0  0  0
   -0.2125   -0.4437    0.0437 C   0  0  2  0  0  0  0  0  0  0  0  0
    1.1173   -1.1820    0.1924 C   0  0  1  0  0  0  0  0  0  0  0  0
    1.1963   -2.3922   -0.7364 C   0  0  2  0  0  0  0  0  0  0  0  0
   -0.0139   -3.2992   -0.5424 C   0  0  0  0  0  0  0  0  0  0  0  0
   -3.4574   -0.3218    0.9308 C   0  0  1  0  0  0  0  0  0  0  0  0
   -4.8711   -0.7352    0.5266 C   0  0  1  0  0  0  0  0  0  0  0  0
   -5.4003    0.1246   -0.6348 C   0  0  2  0  0  0  0  0  0  0  0  0
   -5.2185    1.6079   -0.3095 C   0  0  1  0  0  0  0  0  0  0  0  0
   -3.7590    1.8637    0.0802 C   0  0  1  0  0  0  0  0  0  0  0  0
   -3.4561    3.2892    0.4824 C   0  0  0  0  0  0  0  0  0  0  0  0
    2.4012   -3.1511   -0.4480 N   0  0  0  0  0  0  0  0  0  0  0  0
   -2.5186   -3.4018   -0.5883 N   0  0  0  0  0  0  0  0  0  0  0  0
   -6.7867   -0.1569   -0.9637 N   0  0  0  0  0  0  0  0  0  0  0  0
    2.8176    0.3800    0.8839 C   0  0  2  0  0  0  0  0  0  0  0  0
    3.9379   -0.3151    1.3562 O   0  0  0  0  0  0  0  0  0  0  0  0
    4.7325    3.0280   -0.9109 O   0  0  0  0  0  0  0  0  0  0  0  0
    6.5215    0.8334   -0.9708 O   0  0  0  0  0  0  0  0  0  0  0  0
    2.1813   -0.3077   -0.1473 O   0  0  0  0  0  0  0  0  0  0  0  0
    5.6156   -2.5488    1.4054 O   0  0  0  0  0  0  0  0  0  0  0  0
   -0.2596    0.5637    1.0299 O   0  0  0  0  0  0  0  0  0  0  0  0
   -2.5907   -0.6744   -0.1013 O   0  0  0  0  0  0  0  0  0  0  0  0
   -3.3949    1.0482    1.1847 O   0  0  0  0  0  0  0  0  0  0  0  0
   -4.9488   -2.1078    0.2540 O   0  0  0  0  0  0  0  0  0  0  0  0
   -5.5718    2.3651   -1.4431 O   0  0  0  0  0  0  0  0  0  0  0  0
   -2.0607    3.3923    0.6617 O   0  0  0  0  0  0  0  0  0  0  0  0
    2.0686    2.4630   -0.1893 N   0  0  0  0  0  0  0  0  0  0  0  0
   -4.1183   -2.4310   -0.1673 H   0  0  0  0  0  0  0  0  0  0  0  0
   -5.5191   -0.5416    1.3928 H   0  0  0  0  0  0  0  0  0  0  0  0
   -4.8027   -0.0972   -1.5283 H   0  0  0  0  0  0  0  0  0  0  0  0
   -3.1692   -0.8169    1.8662 H   0  0  0  0  0  0  0  0  0  0  0  0
   -6.8719   -1.1388   -1.1957 H   0  0  0  0  0  0  0  0  0  0  0  0
   -7.3622   -0.0232   -0.1386 H   0  0  0  0  0  0  0  0  0  0  0  0
   -5.8629    1.8594    0.5478 H   0  0  0  0  0  0  0  0  0  0  0  0
   -5.8479    3.2407   -1.1597 H   0  0  0  0  0  0  0  0  0  0  0  0
   -3.1348    1.6283   -0.7934 H   0  0  0  0  0  0  0  0  0  0  0  0
   -3.8067    3.9640   -0.3067 H   0  0  0  0  0  0  0  0  0  0  0  0
   -4.0070    3.5437    1.3980 H   0  0  0  0  0  0  0  0  0  0  0  0
   -1.8453    4.3013    0.8884 H   0  0  0  0  0  0  0  0  0  0  0  0
   -1.4303   -1.7653    1.2187 H   0  0  0  0  0  0  0  0  0  0  0  0
   -0.2403   -0.0062   -0.9658 H   0  0  0  0  0  0  0  0  0  0  0  0
   -1.3585   -2.1869   -1.7908 H   0  0  0  0  0  0  0  0  0  0  0  0
   -0.9866    1.1713    0.8481 H   0  0  0  0  0  0  0  0  0  0  0  0
    1.2234   -1.5382    1.2280 H   0  0  0  0  0  0  0  0  0  0  0  0
   -2.6118   -4.0369   -1.3716 H   0  0  0  0  0  0  0  0  0  0  0  0
   -2.4080   -3.9904    0.2312 H   0  0  0  0  0  0  0  0  0  0  0  0
    0.0081   -3.7157    0.4716 H   0  0  0  0  0  0  0  0  0  0  0  0
    0.0544   -4.1458   -1.2315 H   0  0  0  0  0  0  0  0  0  0  0  0
    1.1668   -2.0076   -1.7697 H   0  0  0  0  0  0  0  0  0  0  0  0
    2.5159   -3.8746   -1.1466 H   0  0  0  0  0  0  0  0  0  0  0  0
    3.2186   -2.5611   -0.5242 H   0  0  0  0  0  0  0  0  0  0  0  0
    2.1606    0.4654    1.7540 H   0  0  0  0  0  0  0  0  0  0  0  0
    3.5822    2.2980    1.3050 H   0  0  0  0  0  0  0  0  0  0  0  0
    4.7027   -0.9992   -0.4541 H   0  0  0  0  0  0  0  0  0  0  0  0
    6.9778   -1.2784    0.4938 H   0  0  0  0  0  0  0  0  0  0  0  0
    6.3893   -0.7284    2.0641 H   0  0  0  0  0  0  0  0  0  0  0  0
    5.8782    1.4691    0.8989 H   0  0  0  0  0  0  0  0  0  0  0  0
    6.3368   -3.0571    1.7873 H   0  0  0  0  0  0  0  0  0  0  0  0
    7.3802    0.8036   -0.5405 H   0  0  0  0  0  0  0  0  0  0  0  0
    4.0084    1.1762   -1.4873 H   0  0  0  0  0  0  0  0  0  0  0  0
    5.4597    2.9809   -1.5402 H   0  0  0  0  0  0  0  0  0  0  0  0
    1.2503    2.3365    0.3922 H   0  0  0  0  0  0  0  0  0  0  0  0
    2.2528    3.4570   -0.2126 H   0  0  0  0  0  0  0  0  0  0  0  0
 30 13  1  0
 13 14  1  0
 13 12  1  0
 14 20  1  0
 14 15  1  0
 15 31  1  0
 15 16  1  0
 16 17  1  0
 16 29  1  0
 17 32  1  0
 29 12  1  0
 12 28  1  0
 28  7  1  0
  7  8  1  0
  7  6  1  0
  8 27  1  0
  8  9  1  0
  6 19  1  0
  6 11  1  0
 11 10  1  0
 10 18  1  0
 10  9  1  0
  9 25  1  0
 25 21  1  0
 21 22  1  0
 21  1  1  0
 22  4  1  0
  4  5  1  0
  4  3  1  0
  5 26  1  0
  3 24  1  0
  3  2  1  0
  2 23  1  0
  2  1  1  0
  1 33  1  0
 30 34  1  0
 13 35  1  1
 14 36  1  6
 12 37  1  1
 20 38  1  0
 20 39  1  0
 15 40  1  1
 31 41  1  0
 16 42  1  6
 17 43  1  0
 17 44  1  0
 32 45  1  0
  7 46  1  1
  8 47  1  6
  6 48  1  6
 27 49  1  0
  9 50  1  1
 19 51  1  0
 19 52  1  0
 11 53  1  0
 11 54  1  0
 10 55  1  6
 18 56  1  0
 18 57  1  0
 21 58  1  1
  1 59  1  1
  4 60  1  6
  5 61  1  0
  5 62  1  0
  3 63  1  1
 26 64  1  0
 24 65  1  0
  2 66  1  6
 23 67  1  0
 33 68  1  0
 33 69  1  0
M  END
