
     RDKit          3D

 31 32  0  0  0  0  0  0  0  0999 V2000
    5.8543    0.8181    0.0830 C   0  0  0  0  0  0  0  0  0  0  0  0
    4.9189   -0.3600    0.2044 C   0  0  0  0  0  0  0  0  0  0  0  0
    3.5783    0.1239    0.0374 O   0  0  0  0  0  0  0  0  0  0  0  0
    2.5880   -0.7541    0.0932 C   0  0  0  0  0  0  0  0  0  0  0  0
    2.7602   -1.9386    0.2772 O   0  0  0  0  0  0  0  0  0  0  0  0
    1.2613   -0.1350   -0.0915 C   0  0  0  0  0  0  0  0  0  0  0  0
    0.1386   -0.9651   -0.0555 C   0  0  0  0  0  0  0  0  0  0  0  0
   -1.1248   -0.4425   -0.2252 C   0  0  0  0  0  0  0  0  0  0  0  0
   -2.2553   -1.2596   -0.2575 N   0  0  0  0  0  0  0  0  0  0  0  0
   -3.5290   -0.8107   -0.1865 C   0  0  0  0  0  0  0  0  0  0  0  0
   -4.4913   -1.5539   -0.2363 O   0  0  0  0  0  0  0  0  0  0  0  0
   -3.6704    0.6840    0.0374 C   0  0  1  0  0  0  0  0  0  0  0  0
   -3.7591    0.9718    1.5379 C   0  0  0  0  0  0  0  0  0  0  0  0
   -2.5831    1.3826   -0.6214 N   0  0  0  0  0  0  0  0  0  0  0  0
   -1.3074    0.9362   -0.4236 C   0  0  0  0  0  0  0  0  0  0  0  0
   -0.1833    1.7609   -0.4556 C   0  0  0  0  0  0  0  0  0  0  0  0
    1.0853    1.2326   -0.2994 C   0  0  0  0  0  0  0  0  0  0  0  0
    5.7776    1.2945   -0.8943 H   0  0  0  0  0  0  0  0  0  0  0  0
    5.6613    1.5657    0.8522 H   0  0  0  0  0  0  0  0  0  0  0  0
    6.8800    0.4709    0.2048 H   0  0  0  0  0  0  0  0  0  0  0  0
    5.1371   -1.1112   -0.5572 H   0  0  0  0  0  0  0  0  0  0  0  0
    5.0183   -0.8352    1.1826 H   0  0  0  0  0  0  0  0  0  0  0  0
    0.2563   -2.0312    0.0940 H   0  0  0  0  0  0  0  0  0  0  0  0
   -2.1195   -2.2596   -0.3223 H   0  0  0  0  0  0  0  0  0  0  0  0
   -4.5998    0.9923   -0.4418 H   0  0  0  0  0  0  0  0  0  0  0  0
   -2.8462    0.6753    2.0563 H   0  0  0  0  0  0  0  0  0  0  0  0
   -3.9130    2.0386    1.7003 H   0  0  0  0  0  0  0  0  0  0  0  0
   -4.5977    0.4392    1.9863 H   0  0  0  0  0  0  0  0  0  0  0  0
   -2.6977    2.3842   -0.6677 H   0  0  0  0  0  0  0  0  0  0  0  0
   -0.3113    2.8253   -0.6084 H   0  0  0  0  0  0  0  0  0  0  0  0
    1.9331    1.9022   -0.3296 H   0  0  0  0  0  0  0  0  0  0  0  0
 11 10  2  0
 13 12  1  0
 10 12  1  0
 10  9  1  0
 12 14  1  0
  9  8  1  0
 14 15  1  0
  8 15  2  0
  8  7  1  0
 15 16  1  0
  7  6  2  0
 16 17  2  0
  6 17  1  0
  6  4  1  0
  5  4  2  0
  4  3  1  0
  3  2  1  0
  2  1  1  0
  1 18  1  0
  1 19  1  0
  1 20  1  0
  2 21  1  0
  2 22  1  0
  7 23  1  0
  9 24  1  0
 12 25  1  6
 13 26  1  0
 13 27  1  0
 13 28  1  0
 14 29  1  0
 16 30  1  0
 17 31  1  0
M  END
