
     RDKit          3D

 66 69  0  0  0  0  0  0  0  0999 V2000
    7.6886    1.0616    0.0807 N   0  0  0  0  0  0  0  0  0  0  0  0
    0.7304   -3.6526   -0.5422 O   0  0  0  0  0  0  0  0  0  0  0  0
    8.7421    0.9979   -0.9282 C   0  0  0  0  0  0  0  0  0  0  0  0
    0.8561   -2.4612   -0.2920 C   0  0  0  0  0  0  0  0  0  0  0  0
    2.0568   -1.8597   -0.2732 N   0  0  0  0  0  0  0  0  0  0  0  0
    4.4679   -1.6474   -0.3694 C   0  0  0  0  0  0  0  0  0  0  0  0
    5.1011   -1.4915    0.8557 C   0  0  0  0  0  0  0  0  0  0  0  0
    6.1697   -0.6202    1.0184 C   0  0  0  0  0  0  0  0  0  0  0  0
    4.9337   -0.8808   -1.4362 C   0  0  0  0  0  0  0  0  0  0  0  0
    5.9879   -0.0001   -1.2857 C   0  0  0  0  0  0  0  0  0  0  0  0
    6.6400    0.1534   -0.0507 C   0  0  0  0  0  0  0  0  0  0  0  0
    8.1964    1.3136    1.4176 C   0  0  0  0  0  0  0  0  0  0  0  0
    9.0380    2.5815    1.4601 C   0  0  0  0  0  0  0  0  0  0  0  0
   10.1596    2.5467    0.4340 C   0  0  0  0  0  0  0  0  0  0  0  0
    9.5821    2.2638   -0.9447 C   0  0  0  0  0  0  0  0  0  0  0  0
   -0.3138   -1.5504    0.0262 C   0  0  0  0  0  0  0  0  0  0  0  0
   -1.6614   -2.2537    0.0028 C   0  0  0  0  0  0  0  0  0  0  0  0
   -2.8135   -1.3554    0.4452 C   0  0  2  0  0  0  0  0  0  0  0  0
   -4.1112   -2.1449    0.5499 C   0  0  0  0  0  0  0  0  0  0  0  0
   -5.2848   -1.2853    0.9938 C   0  0  0  0  0  0  0  0  0  0  0  0
   -5.4494   -0.1215    0.1382 N   0  0  0  0  0  0  0  0  0  0  0  0
   -4.2317    0.6667   -0.0228 C   0  0  0  0  0  0  0  0  0  0  0  0
   -3.0555   -0.1752   -0.4882 C   0  0  0  0  0  0  0  0  0  0  0  0
   -6.6728    0.4911    0.0554 C   0  0  0  0  0  0  0  0  0  0  0  0
   -7.7730    0.0690    0.8312 C   0  0  0  0  0  0  0  0  0  0  0  0
   -9.0103    0.6651    0.7109 C   0  0  0  0  0  0  0  0  0  0  0  0
   -9.2110    1.7186   -0.1812 C   0  0  0  0  0  0  0  0  0  0  0  0
  -10.4841    2.3362   -0.2983 C   0  0  0  0  0  0  0  0  0  0  0  0
  -11.5189    2.8395   -0.3921 N   0  0  0  0  0  0  0  0  0  0  0  0
   -8.1306    2.1583   -0.9524 C   0  0  0  0  0  0  0  0  0  0  0  0
   -6.8964    1.5629   -0.8372 C   0  0  0  0  0  0  0  0  0  0  0  0
    9.3961    0.1320   -0.7390 H   0  0  0  0  0  0  0  0  0  0  0  0
    8.3023    0.8478   -1.9114 H   0  0  0  0  0  0  0  0  0  0  0  0
    2.1111   -0.8746   -0.0705 H   0  0  0  0  0  0  0  0  0  0  0  0
    3.3857   -3.4135    0.1637 H   0  0  0  0  0  0  0  0  0  0  0  0
    3.2823   -2.9941   -1.5378 H   0  0  0  0  0  0  0  0  0  0  0  0
    4.7726   -2.0770    1.7071 H   0  0  0  0  0  0  0  0  0  0  0  0
    6.6393   -0.5673    1.9904 H   0  0  0  0  0  0  0  0  0  0  0  0
    4.4600   -0.9673   -2.4074 H   0  0  0  0  0  0  0  0  0  0  0  0
    6.2925    0.5907   -2.1398 H   0  0  0  0  0  0  0  0  0  0  0  0
    7.3536    1.4338    2.0999 H   0  0  0  0  0  0  0  0  0  0  0  0
    8.7913    0.4646    1.7911 H   0  0  0  0  0  0  0  0  0  0  0  0
    8.3904    3.4428    1.2709 H   0  0  0  0  0  0  0  0  0  0  0  0
    9.4356    2.6998    2.4703 H   0  0  0  0  0  0  0  0  0  0  0  0
   10.7143    3.4874    0.4371 H   0  0  0  0  0  0  0  0  0  0  0  0
   10.8743    1.7587    0.6955 H   0  0  0  0  0  0  0  0  0  0  0  0
   10.3765    2.1465   -1.6848 H   0  0  0  0  0  0  0  0  0  0  0  0
    8.9638    3.1049   -1.2715 H   0  0  0  0  0  0  0  0  0  0  0  0
   -0.1421   -1.1051    1.0122 H   0  0  0  0  0  0  0  0  0  0  0  0
   -0.2971   -0.7156   -0.6802 H   0  0  0  0  0  0  0  0  0  0  0  0
   -1.8688   -2.6372   -1.0008 H   0  0  0  0  0  0  0  0  0  0  0  0
   -1.6271   -3.1235    0.6641 H   0  0  0  0  0  0  0  0  0  0  0  0
   -2.5759   -0.9576    1.4417 H   0  0  0  0  0  0  0  0  0  0  0  0
   -4.3444   -2.5921   -0.4220 H   0  0  0  0  0  0  0  0  0  0  0  0
   -4.0054   -2.9665    1.2624 H   0  0  0  0  0  0  0  0  0  0  0  0
   -6.1845   -1.8962    0.9462 H   0  0  0  0  0  0  0  0  0  0  0  0
   -5.1516   -0.9836    2.0426 H   0  0  0  0  0  0  0  0  0  0  0  0
   -4.3946    1.4674   -0.7376 H   0  0  0  0  0  0  0  0  0  0  0  0
   -3.9770    1.1422    0.9348 H   0  0  0  0  0  0  0  0  0  0  0  0
   -2.1816    0.4779   -0.5395 H   0  0  0  0  0  0  0  0  0  0  0  0
   -3.2433   -0.5419   -1.5029 H   0  0  0  0  0  0  0  0  0  0  0  0
   -7.6667   -0.7207    1.5594 H   0  0  0  0  0  0  0  0  0  0  0  0
   -9.8259    0.3172    1.3310 H   0  0  0  0  0  0  0  0  0  0  0  0
   -8.2615    2.9697   -1.6561 H   0  0  0  0  0  0  0  0  0  0  0  0
   -6.1032    1.9261   -1.4739 H   0  0  0  0  0  0  0  0  0  0  0  0
    3.2968   -2.5728   -0.5290 C   0  0  0  0  0  0  0  0  0  0  0  0
  2  4  2  0
 23 22  1  0
 23 18  1  0
 22 21  1  0
 17 18  1  0
 17 16  1  0
  4 16  1  0
  4  5  1  0
 18 19  1  0
 25 26  2  0
 25 24  1  0
 66  5  1  0
 66  6  1  0
 26 27  1  0
  9  6  1  0
  9 10  2  0
 21 24  1  0
 21 20  1  0
  6  7  2  0
 10 11  1  0
 24 31  2  0
 19 20  1  0
  3  1  1  0
  3 15  1  0
  7  8  1  0
 11  1  1  0
 11  8  2  0
 27 28  1  0
 27 30  2  0
 13 14  1  0
 13 12  1  0
 28 29  3  0
 14 15  1  0
  1 12  1  0
 31 30  1  0
  3 32  1  0
  3 33  1  0
  5 34  1  0
 66 35  1  0
 66 36  1  0
  7 37  1  0
  8 38  1  0
  9 39  1  0
 10 40  1  0
 12 41  1  0
 12 42  1  0
 13 43  1  0
 13 44  1  0
 14 45  1  0
 14 46  1  0
 15 47  1  0
 15 48  1  0
 16 49  1  0
 16 50  1  0
 17 51  1  0
 17 52  1  0
 18 53  1  1
 19 54  1  0
 19 55  1  0
 20 56  1  0
 20 57  1  0
 22 58  1  0
 22 59  1  0
 23 60  1  0
 23 61  1  0
 25 62  1  0
 26 63  1  0
 30 64  1  0
 31 65  1  0
M  END
