
     RDKit          3D

 37 39  0  0  0  0  0  0  0  0999 V2000
    3.0348   -1.4202    1.8869 O   0  0  0  0  0  0  0  0  0  0  0  0
    2.3300   -0.2504    1.3903 S   0  0  1  0  0  0  0  0  0  0  0  0
    1.7558    0.6897    2.3397 O   0  0  0  0  0  0  0  0  0  0  0  0
    3.3922    0.6061    0.4739 N   0  0  0  0  0  0  0  0  0  0  0  0
    2.8981    1.7953   -0.2056 C   0  0  1  0  0  0  0  0  0  0  0  0
    3.2797    2.0201   -1.6154 C   0  0  0  0  0  0  0  0  0  0  0  0
    2.0433    1.7032   -1.4244 C   0  0  0  0  0  0  0  0  0  0  0  0
    1.0169   -0.7607    0.2965 C   0  0  0  0  0  0  0  0  0  0  0  0
    1.2381   -1.6946   -0.7232 C   0  0  0  0  0  0  0  0  0  0  0  0
    2.5348   -2.4125   -0.9547 C   0  0  0  0  0  0  0  0  0  0  0  0
    0.1595   -1.9616   -1.5627 C   0  0  0  0  0  0  0  0  0  0  0  0
   -1.0659   -1.3358   -1.4119 C   0  0  0  0  0  0  0  0  0  0  0  0
   -0.2148   -0.1457    0.4721 C   0  0  0  0  0  0  0  0  0  0  0  0
   -1.2763   -0.4169   -0.3867 C   0  0  0  0  0  0  0  0  0  0  0  0
   -2.5629    0.2577   -0.2185 C   0  0  0  0  0  0  0  0  0  0  0  0
   -3.8718   -0.3109   -0.2560 C   0  0  0  0  0  0  0  0  0  0  0  0
   -4.2542   -1.7309   -0.4768 C   0  0  0  0  0  0  0  0  0  0  0  0
   -2.7951    1.5761    0.0270 C   0  0  0  0  0  0  0  0  0  0  0  0
   -1.9055    2.7495    0.1789 C   0  0  0  0  0  0  0  0  0  0  0  0
   -4.1088    1.7763    0.1294 O   0  0  0  0  0  0  0  0  0  0  0  0
   -4.7765    0.5979   -0.0429 N   0  0  0  0  0  0  0  0  0  0  0  0
    4.0290    0.0260   -0.0616 H   0  0  0  0  0  0  0  0  0  0  0  0
    2.7985    2.6274    0.4851 H   0  0  0  0  0  0  0  0  0  0  0  0
    4.0950    2.2848   -2.2670 H   0  0  0  0  0  0  0  0  0  0  0  0
    1.0579    1.5098   -1.8126 H   0  0  0  0  0  0  0  0  0  0  0  0
   -0.3556    0.5480    1.2893 H   0  0  0  0  0  0  0  0  0  0  0  0
    2.7818   -3.0738   -0.1258 H   0  0  0  0  0  0  0  0  0  0  0  0
    2.4700   -3.0154   -1.8575 H   0  0  0  0  0  0  0  0  0  0  0  0
    3.3732   -1.7294   -1.0875 H   0  0  0  0  0  0  0  0  0  0  0  0
    0.2893   -2.6743   -2.3671 H   0  0  0  0  0  0  0  0  0  0  0  0
   -1.8580   -1.5563   -2.1152 H   0  0  0  0  0  0  0  0  0  0  0  0
   -3.6589   -2.3939    0.1505 H   0  0  0  0  0  0  0  0  0  0  0  0
   -5.3061   -1.8869   -0.2466 H   0  0  0  0  0  0  0  0  0  0  0  0
   -4.0890   -2.0267   -1.5133 H   0  0  0  0  0  0  0  0  0  0  0  0
   -2.3198    3.6254   -0.3189 H   0  0  0  0  0  0  0  0  0  0  0  0
   -1.7563    3.0004    1.2303 H   0  0  0  0  0  0  0  0  0  0  0  0
   -0.9291    2.5425   -0.2550 H   0  0  0  0  0  0  0  0  0  0  0  0
  1  2  2  0
  2  3  2  0
  2  4  1  6
  2  8  1  0
  4  5  1  0
  5  6  1  0
  5  7  1  0
  6  7  2  0
  8  9  2  0
  8 13  1  0
  9 10  1  0
  9 11  1  0
 11 12  2  0
 12 14  1  0
 13 14  2  0
 14 15  1  0
 15 16  1  0
 15 18  2  0
 16 17  1  0
 16 21  2  0
 18 19  1  0
 18 20  1  0
 20 21  1  0
  4 22  1  0
  5 23  1  1
  6 24  1  0
  7 25  1  0
 13 26  1  0
 10 27  1  0
 10 28  1  0
 10 29  1  0
 11 30  1  0
 12 31  1  0
 17 32  1  0
 17 33  1  0
 17 34  1  0
 19 35  1  0
 19 36  1  0
 19 37  1  0
M  END
