
     RDKit          3D

 71 75  0  0  0  0  0  0  0  0999 V2000
   -7.0889   -1.2982   -0.6560 O   0  0  0  0  0  0  0  0  0  0  0  0
   -7.5197   -0.1647   -0.4197 C   0  0  0  0  0  0  0  0  0  0  0  0
   -8.8346    0.0926   -0.3818 N   0  0  0  0  0  0  0  0  0  0  0  0
   -6.5982    0.9467   -0.1730 C   0  0  0  0  0  0  0  0  0  0  0  0
   -7.1210    2.5571    0.1768 S   0  0  0  0  0  0  0  0  0  0  0  0
   -5.5164    3.1103    0.2931 C   0  0  0  0  0  0  0  0  0  0  0  0
   -4.6005    2.1294    0.0796 C   0  0  0  0  0  0  0  0  0  0  0  0
   -5.2122    0.8688   -0.1908 C   0  0  0  0  0  0  0  0  0  0  0  0
   -4.5713   -0.3201   -0.4445 N   0  0  0  0  0  0  0  0  0  0  0  0
   -3.2434   -0.6065   -0.5045 C   0  0  0  0  0  0  0  0  0  0  0  0
   -2.3390    0.3377   -0.3354 N   0  0  0  0  0  0  0  0  0  0  0  0
   -2.8438   -1.9339   -0.7513 C   0  0  0  0  0  0  0  0  0  0  0  0
   -3.4612   -3.2024   -0.9769 C   0  0  0  0  0  0  0  0  0  0  0  0
   -2.4434   -4.0927   -1.1439 C   0  0  0  0  0  0  0  0  0  0  0  0
   -1.2374   -3.4383   -1.0327 N   0  0  0  0  0  0  0  0  0  0  0  0
   -1.4596   -2.1271   -0.7946 C   0  0  0  0  0  0  0  0  0  0  0  0
   -0.5272   -1.1860   -0.6306 N   0  0  0  0  0  0  0  0  0  0  0  0
   -1.0336    0.0103   -0.4052 C   0  0  0  0  0  0  0  0  0  0  0  0
   -0.2140    1.0850   -0.2164 N   0  0  0  0  0  0  0  0  0  0  0  0
    1.1690    1.1887   -0.1825 C   0  0  0  0  0  0  0  0  0  0  0  0
    1.6927    2.4932   -0.0360 C   0  0  0  0  0  0  0  0  0  0  0  0
    0.7737    3.4790    0.0591 O   0  0  0  0  0  0  0  0  0  0  0  0
    1.2182    4.8092    0.2295 C   0  0  0  0  0  0  0  0  0  0  0  0
    2.0599    0.1327   -0.2787 C   0  0  0  0  0  0  0  0  0  0  0  0
    3.4409    0.3458   -0.2160 C   0  0  0  0  0  0  0  0  0  0  0  0
    3.9639    1.6283   -0.1016 C   0  0  0  0  0  0  0  0  0  0  0  0
    3.0562    2.6902   -0.0137 C   0  0  0  0  0  0  0  0  0  0  0  0
    4.3302   -0.7551   -0.3301 N   0  0  0  0  0  0  0  0  0  0  0  0
    4.2028   -1.8436    0.4861 C   0  0  0  0  0  0  0  0  0  0  0  0
    5.3308   -2.8707    0.4312 C   0  0  0  0  0  0  0  0  0  0  0  0
    5.1253   -3.9614    1.3502 N   0  0  0  0  0  0  0  0  0  0  0  0
    5.8878   -5.1270    0.9522 C   0  0  0  0  0  0  0  0  0  0  0  0
    5.4428   -3.5856    2.7128 C   0  0  0  0  0  0  0  0  0  0  0  0
    3.2354   -2.0077    1.2048 O   0  0  0  0  0  0  0  0  0  0  0  0
    5.5706   -0.4142   -1.0122 C   0  0  0  0  0  0  0  0  0  0  0  0
    6.2842    0.6475   -0.1993 C   0  0  0  0  0  0  0  0  0  0  0  0
    5.4562    1.9402   -0.1254 C   0  0  2  0  0  0  0  0  0  0  0  0
    5.8634    2.7145    1.1319 C   0  0  0  0  0  0  0  0  0  0  0  0
    5.7578    2.7898   -1.3685 C   0  0  0  0  0  0  0  0  0  0  0  0
   -9.4880   -0.6524   -0.5609 H   0  0  0  0  0  0  0  0  0  0  0  0
   -9.2268    1.0001   -0.1971 H   0  0  0  0  0  0  0  0  0  0  0  0
   -5.3163    4.1471    0.5156 H   0  0  0  0  0  0  0  0  0  0  0  0
   -3.5368    2.2869    0.1114 H   0  0  0  0  0  0  0  0  0  0  0  0
   -5.2198   -1.0876   -0.5980 H   0  0  0  0  0  0  0  0  0  0  0  0
   -4.5139   -3.4349   -1.0128 H   0  0  0  0  0  0  0  0  0  0  0  0
   -2.4742   -5.1526   -1.3338 H   0  0  0  0  0  0  0  0  0  0  0  0
   -0.3310   -3.8680   -1.1232 H   0  0  0  0  0  0  0  0  0  0  0  0
   -0.7177    1.9464   -0.0751 H   0  0  0  0  0  0  0  0  0  0  0  0
    1.8062    4.9249    1.1436 H   0  0  0  0  0  0  0  0  0  0  0  0
    1.8150    5.1502   -0.6205 H   0  0  0  0  0  0  0  0  0  0  0  0
    0.3265    5.4262    0.3032 H   0  0  0  0  0  0  0  0  0  0  0  0
    1.6754   -0.8632   -0.4114 H   0  0  0  0  0  0  0  0  0  0  0  0
    3.4451    3.6964    0.0738 H   0  0  0  0  0  0  0  0  0  0  0  0
    5.3727   -3.2674   -0.5883 H   0  0  0  0  0  0  0  0  0  0  0  0
    6.3025   -2.3768    0.6014 H   0  0  0  0  0  0  0  0  0  0  0  0
    6.9764   -4.9609    0.9475 H   0  0  0  0  0  0  0  0  0  0  0  0
    5.6845   -5.9492    1.6398 H   0  0  0  0  0  0  0  0  0  0  0  0
    5.5944   -5.4498   -0.0478 H   0  0  0  0  0  0  0  0  0  0  0  0
    6.4989   -3.2979    2.8392 H   0  0  0  0  0  0  0  0  0  0  0  0
    4.8263   -2.7507    3.0398 H   0  0  0  0  0  0  0  0  0  0  0  0
    5.2448   -4.4229    3.3833 H   0  0  0  0  0  0  0  0  0  0  0  0
    6.1904   -1.2934   -1.1558 H   0  0  0  0  0  0  0  0  0  0  0  0
    5.3229   -0.0504   -2.0127 H   0  0  0  0  0  0  0  0  0  0  0  0
    6.4616    0.2482    0.8049 H   0  0  0  0  0  0  0  0  0  0  0  0
    7.2662    0.8663   -0.6248 H   0  0  0  0  0  0  0  0  0  0  0  0
    6.9401    2.8967    1.1305 H   0  0  0  0  0  0  0  0  0  0  0  0
    5.3678    3.6840    1.1967 H   0  0  0  0  0  0  0  0  0  0  0  0
    5.6201    2.1514    2.0343 H   0  0  0  0  0  0  0  0  0  0  0  0
    5.5236    2.2499   -2.2877 H   0  0  0  0  0  0  0  0  0  0  0  0
    5.1780    3.7135   -1.3764 H   0  0  0  0  0  0  0  0  0  0  0  0
    6.8153    3.0599   -1.3970 H   0  0  0  0  0  0  0  0  0  0  0  0
 33 31  1  0
 31 32  1  0
 31 30  1  0
 30 29  1  0
 34 29  2  0
  3  2  1  0
 29 28  1  0
  2  1  2  0
  2  4  1  0
  5  4  1  0
  5  6  1  0
  4  8  2  0
 28 35  1  0
 28 25  1  0
 35 36  1  0
  8  9  1  0
  8  7  1  0
 36 37  1  0
  6  7  2  0
  9 10  1  0
 25 24  2  0
 25 26  1  0
 24 20  1  0
 10 12  1  0
 10 11  2  0
 13 12  1  0
 13 14  2  0
 12 16  2  0
 11 18  1  0
 37 38  1  1
 37 26  1  0
 37 39  1  0
 14 15  1  0
 26 27  2  0
 20 19  1  0
 20 21  2  0
 18 17  2  0
 18 19  1  0
 16 15  1  0
 16 17  1  0
 27 21  1  0
 21 22  1  0
 22 23  1  0
  3 40  1  0
  3 41  1  0
  6 42  1  0
  7 43  1  0
  9 44  1  0
 13 45  1  0
 14 46  1  0
 15 47  1  0
 19 48  1  0
 23 49  1  0
 23 50  1  0
 23 51  1  0
 24 52  1  0
 27 53  1  0
 30 54  1  0
 30 55  1  0
 32 56  1  0
 32 57  1  0
 32 58  1  0
 33 59  1  0
 33 60  1  0
 33 61  1  0
 35 62  1  0
 35 63  1  0
 36 64  1  0
 36 65  1  0
 38 66  1  0
 38 67  1  0
 38 68  1  0
 39 69  1  0
 39 70  1  0
 39 71  1  0
M  END
