
     RDKit          3D

 23 23  0  0  0  0  0  0  0  0999 V2000
    1.3321    0.5700   -0.0291 C   0  0  1  0  0  0  0  0  0  0  0  0
    0.7882   -0.8419    0.1723 C   0  0  1  0  0  0  0  0  0  0  0  0
   -0.6001   -0.9579   -0.4425 C   0  0  2  0  0  0  0  0  0  0  0  0
   -1.5598    0.0793    0.1452 C   0  0  2  0  0  0  0  0  0  0  0  0
   -1.0140    1.4990   -0.0350 C   0  0  1  0  0  0  0  0  0  0  0  0
    0.3868    1.6123    0.5546 C   0  0  0  0  0  0  0  0  0  0  0  0
    2.6058    0.6057    0.5882 O   0  0  0  0  0  0  0  0  0  0  0  0
   -1.0622   -2.2715   -0.2374 O   0  0  0  0  0  0  0  0  0  0  0  0
    1.6194   -1.7972   -0.4452 O   0  0  0  0  0  0  0  0  0  0  0  0
   -1.0402    1.7745   -1.4209 O   0  0  0  0  0  0  0  0  0  0  0  0
   -1.7405   -0.2117    1.5107 O   0  0  0  0  0  0  0  0  0  0  0  0
    1.4341    0.7414   -1.1095 H   0  0  0  0  0  0  0  0  0  0  0  0
    0.7192   -1.0307    1.2551 H   0  0  0  0  0  0  0  0  0  0  0  0
   -0.5072   -0.7443   -1.5169 H   0  0  0  0  0  0  0  0  0  0  0  0
   -2.5153    0.0079   -0.3978 H   0  0  0  0  0  0  0  0  0  0  0  0
   -1.6805    2.1910    0.5014 H   0  0  0  0  0  0  0  0  0  0  0  0
    0.3282    1.4880    1.6393 H   0  0  0  0  0  0  0  0  0  0  0  0
    0.7814    2.6184    0.3774 H   0  0  0  0  0  0  0  0  0  0  0  0
    3.1074    1.3344    0.2114 H   0  0  0  0  0  0  0  0  0  0  0  0
   -1.8750   -2.3847   -0.7398 H   0  0  0  0  0  0  0  0  0  0  0  0
    2.5156   -1.6435   -0.1276 H   0  0  0  0  0  0  0  0  0  0  0  0
   -0.7092    2.6675   -1.5582 H   0  0  0  0  0  0  0  0  0  0  0  0
   -2.4075    0.3869    1.8613 H   0  0  0  0  0  0  0  0  0  0  0  0
  5  4  1  0
  5  6  1  0
  5 10  1  0
  4  3  1  0
  6  1  1  0
  3  8  1  0
  3  2  1  0
  1  2  1  0
  1  7  1  0
  2  9  1  0
  4 11  1  0
  1 12  1  6
  2 13  1  1
  3 14  1  6
  4 15  1  6
  5 16  1  1
  6 17  1  0
  6 18  1  0
  7 19  1  0
  8 20  1  0
  9 21  1  0
 10 22  1  0
 11 23  1  0
M  END
