
     RDKit          3D

 20 21  0  0  0  0  0  0  0  0999 V2000
   -1.9763    1.7345    0.0678 C   0  0  0  0  0  0  0  0  0  0  0  0
   -3.3489    1.6792    0.0863 C   0  0  0  0  0  0  0  0  0  0  0  0
   -3.6837    0.3813    0.1040 N   0  0  0  0  0  0  0  0  0  0  0  0
   -2.6272   -0.4139    0.0987 N   0  0  0  0  0  0  0  0  0  0  0  0
   -1.5663    0.3852    0.0776 C   0  0  0  0  0  0  0  0  0  0  0  0
   -0.2174   -0.1791    0.0663 C   0  0  0  0  0  0  0  0  0  0  0  0
    0.8890    0.6702    0.0385 C   0  0  0  0  0  0  0  0  0  0  0  0
    2.1711    0.1594    0.0270 C   0  0  0  0  0  0  0  0  0  0  0  0
    3.5261    1.2440   -0.0062 Cl  0  0  0  0  0  0  0  0  0  0  0  0
    2.3870   -1.2114    0.0422 C   0  0  0  0  0  0  0  0  0  0  0  0
    1.2998   -2.0641    0.0700 C   0  0  0  0  0  0  0  0  0  0  0  0
   -0.0044   -1.5704    0.0827 C   0  0  0  0  0  0  0  0  0  0  0  0
   -1.0035   -2.4609    0.1095 O   0  0  0  0  0  0  0  0  0  0  0  0
   -1.3661    2.6216    0.0542 H   0  0  0  0  0  0  0  0  0  0  0  0
   -4.0933    2.4574    0.0861 H   0  0  0  0  0  0  0  0  0  0  0  0
   -4.6112   -0.0126    0.1182 H   0  0  0  0  0  0  0  0  0  0  0  0
    0.7402    1.7418    0.0262 H   0  0  0  0  0  0  0  0  0  0  0  0
    3.3909   -1.6135    0.0320 H   0  0  0  0  0  0  0  0  0  0  0  0
    1.4560   -3.1353    0.0807 H   0  0  0  0  0  0  0  0  0  0  0  0
   -1.8651   -1.9887    0.1157 H   0  0  0  0  0  0  0  0  0  0  0  0
 11 10  2  0
 11 12  1  0
 13 12  1  0
 10  8  1  0
 12  6  2  0
  8  7  2  0
  8  9  1  0
  6  7  1  0
  6  5  1  0
  4  5  2  0
  4  3  1  0
  5  1  1  0
  3  2  1  0
  1  2  2  0
  1 14  1  0
  2 15  1  0
  3 16  1  0
  7 17  1  0
 10 18  1  0
 11 19  1  0
 13 20  1  0
M  END
