
     RDKit          3D

 42 44  0  0  0  0  0  0  0  0999 V2000
   -3.2335    1.4713   -0.2879 C   0  0  0  0  0  0  0  0  0  0  0  0
   -2.1772    1.7210   -1.1219 N   0  0  0  0  0  0  0  0  0  0  0  0
   -0.8732    1.3616   -0.8581 C   0  0  0  0  0  0  0  0  0  0  0  0
   -0.6179    0.5103    0.2090 C   0  0  0  0  0  0  0  0  0  0  0  0
   -1.7609   -0.0537    1.0014 C   0  0  1  0  0  0  0  0  0  0  0  0
    0.6866    0.1336    0.4892 C   0  0  0  0  0  0  0  0  0  0  0  0
    1.7543    0.5940   -0.2755 C   0  0  0  0  0  0  0  0  0  0  0  0
    3.1299    0.1941    0.0231 C   0  0  0  0  0  0  0  0  0  0  0  0
    4.0859   -0.2460   -0.8389 C   0  0  0  0  0  0  0  0  0  0  0  0
    5.2145   -0.4737   -0.1642 O   0  0  0  0  0  0  0  0  0  0  0  0
    4.0870   -0.5037   -2.2969 C   0  0  0  0  0  0  0  0  0  0  0  0
    3.7994    0.2042    1.2837 C   0  0  0  0  0  0  0  0  0  0  0  0
    5.0325   -0.1896    1.1586 N   0  0  0  0  0  0  0  0  0  0  0  0
    3.2573    0.6142    2.6063 C   0  0  0  0  0  0  0  0  0  0  0  0
    0.1801    1.8303   -1.6411 C   0  0  0  0  0  0  0  0  0  0  0  0
    1.4742    1.4498   -1.3452 C   0  0  0  0  0  0  0  0  0  0  0  0
   -2.9575    0.7351    0.8256 N   0  0  0  0  0  0  0  0  0  0  0  0
   -4.0672    0.4088    1.7043 C   0  0  0  0  0  0  0  0  0  0  0  0
   -4.3451    1.9142   -0.5334 O   0  0  0  0  0  0  0  0  0  0  0  0
   -1.9786   -1.4177    0.7410 O   0  0  0  0  0  0  0  0  0  0  0  0
   -2.3010   -1.7584   -0.5919 C   0  0  0  0  0  0  0  0  0  0  0  0
   -2.5887   -3.2363   -0.6626 C   0  0  0  0  0  0  0  0  0  0  0  0
   -3.7494   -3.5224    0.0819 O   0  0  0  0  0  0  0  0  0  0  0  0
   -2.3712    2.3137   -1.9148 H   0  0  0  0  0  0  0  0  0  0  0  0
   -1.5083   -0.0320    2.0646 H   0  0  0  0  0  0  0  0  0  0  0  0
    0.8651   -0.5536    1.3079 H   0  0  0  0  0  0  0  0  0  0  0  0
    4.4893    0.3465   -2.8508 H   0  0  0  0  0  0  0  0  0  0  0  0
    4.6907   -1.3768   -2.5425 H   0  0  0  0  0  0  0  0  0  0  0  0
    3.0717   -0.6793   -2.6475 H   0  0  0  0  0  0  0  0  0  0  0  0
    2.5269   -0.1061    2.9755 H   0  0  0  0  0  0  0  0  0  0  0  0
    4.0537    0.6937    3.3434 H   0  0  0  0  0  0  0  0  0  0  0  0
    2.7541    1.5784    2.5326 H   0  0  0  0  0  0  0  0  0  0  0  0
   -0.0149    2.4962   -2.4722 H   0  0  0  0  0  0  0  0  0  0  0  0
    2.2847    1.8413   -1.9467 H   0  0  0  0  0  0  0  0  0  0  0  0
   -4.6740    1.2886    1.9002 H   0  0  0  0  0  0  0  0  0  0  0  0
   -4.7059   -0.3733    1.2906 H   0  0  0  0  0  0  0  0  0  0  0  0
   -3.6669    0.0563    2.6525 H   0  0  0  0  0  0  0  0  0  0  0  0
   -3.1782   -1.2025   -0.9472 H   0  0  0  0  0  0  0  0  0  0  0  0
   -1.4702   -1.5371   -1.2731 H   0  0  0  0  0  0  0  0  0  0  0  0
   -2.7072   -3.4936   -1.7227 H   0  0  0  0  0  0  0  0  0  0  0  0
   -1.7176   -3.7946   -0.2952 H   0  0  0  0  0  0  0  0  0  0  0  0
   -3.9298   -4.4632    0.0028 H   0  0  0  0  0  0  0  0  0  0  0  0
  2  1  1  0
  1 19  2  0
  1 17  1  0
  3  2  1  0
  2 24  1  0
 15  3  1  0
  3  4  2  0
  6  4  1  0
  4  5  1  0
  5 17  1  0
  5 20  1  0
  5 25  1  1
  7  6  2  0
  6 26  1  0
 16  7  1  0
  8  7  1  0
 12  8  1  0
  8  9  2  0
 10  9  1  0
  9 11  1  0
 13 10  1  0
 11 27  1  0
 11 28  1  0
 11 29  1  0
 14 12  1  0
 12 13  2  0
 14 30  1  0
 14 31  1  0
 14 32  1  0
 16 15  2  0
 15 33  1  0
 16 34  1  0
 17 18  1  0
 18 35  1  0
 18 36  1  0
 18 37  1  0
 21 20  1  0
 21 22  1  0
 21 38  1  0
 21 39  1  0
 22 23  1  0
 22 40  1  0
 22 41  1  0
 23 42  1  0
M  END
