
     RDKit          3D

 29 30  0  0  0  0  0  0  0  0999 V2000
    0.4070    0.1460    0.0996 C   0  0  0  0  0  0  0  0  0  0  0  0
    1.4333    1.1176    0.0228 C   0  0  0  0  0  0  0  0  0  0  0  0
    2.8755    0.6906    0.0935 C   0  0  0  0  0  0  0  0  0  0  0  0
    1.1051    2.4531   -0.1026 C   0  0  0  0  0  0  0  0  0  0  0  0
   -1.2277    1.9686   -0.0728 C   0  0  0  0  0  0  0  0  0  0  0  0
    3.0785   -0.7588   -0.3304 C   0  0  2  0  0  0  0  0  0  0  0  0
    2.0813   -1.6206    0.4245 C   0  0  0  0  0  0  0  0  0  0  0  0
    0.7277   -1.1684    0.1893 N   0  0  0  0  0  0  0  0  0  0  0  0
   -0.2136    2.8985   -0.1447 C   0  0  0  0  0  0  0  0  0  0  0  0
   -0.9281    0.6116    0.0400 C   0  0  0  0  0  0  0  0  0  0  0  0
   -2.2832   -0.5073    0.0986 S   0  0  1  0  0  0  0  0  0  0  0  0
   -2.1482   -1.2634   -1.3654 N   0  0  0  0  0  0  0  0  0  0  0  0
   -2.0451   -1.5530    1.0932 O   0  0  0  0  0  0  0  0  0  0  0  0
   -3.5145    0.2608    0.2304 O   0  0  0  0  0  0  0  0  0  0  0  0
    3.4829    1.3555   -0.5249 H   0  0  0  0  0  0  0  0  0  0  0  0
    3.2396    0.8120    1.1204 H   0  0  0  0  0  0  0  0  0  0  0  0
    1.9113    3.1753   -0.1627 H   0  0  0  0  0  0  0  0  0  0  0  0
   -2.2589    2.2910   -0.1087 H   0  0  0  0  0  0  0  0  0  0  0  0
    2.8625   -0.8470   -1.4011 H   0  0  0  0  0  0  0  0  0  0  0  0
    2.1451   -2.6591    0.0969 H   0  0  0  0  0  0  0  0  0  0  0  0
    2.3266   -1.6065    1.4952 H   0  0  0  0  0  0  0  0  0  0  0  0
    0.0023   -1.8156    0.4484 H   0  0  0  0  0  0  0  0  0  0  0  0
   -0.4389    3.9518   -0.2354 H   0  0  0  0  0  0  0  0  0  0  0  0
   -2.3953   -0.6567   -2.1407 H   0  0  0  0  0  0  0  0  0  0  0  0
   -2.7011   -2.1156   -1.3969 H   0  0  0  0  0  0  0  0  0  0  0  0
    4.5033   -1.2225   -0.0737 C   0  0  0  0  0  0  0  0  0  0  0  0
    4.7529   -1.1547    0.9878 H   0  0  0  0  0  0  0  0  0  0  0  0
    4.6474   -2.2582   -0.3845 H   0  0  0  0  0  0  0  0  0  0  0  0
    5.2202   -0.6106   -0.6223 H   0  0  0  0  0  0  0  0  0  0  0  0
 11 12  1  6
 13 11  2  0
 11 14  2  0
 11 10  1  0
  5 10  1  0
  5  9  2  0
 10  1  2  0
  9  4  1  0
  1  8  1  0
  1  2  1  0
  8  7  1  0
  4  2  2  0
  2  3  1  0
  7  6  1  0
  3  6  1  0
  6 26  1  0
  3 15  1  0
  3 16  1  0
  4 17  1  0
  5 18  1  0
 26 27  1  0
 26 28  1  0
 26 29  1  0
  6 19  1  6
  7 20  1  0
  7 21  1  0
  8 22  1  0
  9 23  1  0
 12 24  1  0
 12 25  1  0
M  END
