
     RDKit          3D

 30 30  0  0  0  0  0  0  0  0999 V2000
   -0.5619    2.2620   -0.2775 N   0  0  0  0  0  0  0  0  0  0  0  0
    0.3720    1.3037   -0.8262 C   0  0  0  0  0  0  0  0  0  0  0  0
    2.0190   -0.4422   -0.3469 N   0  0  0  0  0  0  0  0  0  0  0  0
    0.7081    0.0574    0.0190 C   0  0  2  0  0  0  0  0  0  0  0  0
   -0.3018   -1.0636   -0.2188 C   0  0  1  0  0  0  0  0  0  0  0  0
    0.1771   -2.2210    0.4270 O   0  0  0  0  0  0  0  0  0  0  0  0
   -1.7224   -0.7717    0.2640 C   0  0  2  0  0  0  0  0  0  0  0  0
   -2.4718   -1.8904   -0.1586 O   0  0  0  0  0  0  0  0  0  0  0  0
   -2.3632    0.5278   -0.2306 C   0  0  1  0  0  0  0  0  0  0  0  0
   -3.7178    0.4223    0.1697 O   0  0  0  0  0  0  0  0  0  0  0  0
   -1.7357    1.7617    0.4154 C   0  0  0  0  0  0  0  0  0  0  0  0
    3.1615    0.0519    0.1546 C   0  0  0  0  0  0  0  0  0  0  0  0
    3.1864    0.9436    0.9948 O   0  0  0  0  0  0  0  0  0  0  0  0
    4.4273   -0.5684   -0.3830 C   0  0  0  0  0  0  0  0  0  0  0  0
   -0.0695    2.8930    0.3385 H   0  0  0  0  0  0  0  0  0  0  0  0
    0.0259    0.9639   -1.8095 H   0  0  0  0  0  0  0  0  0  0  0  0
    1.2976    1.8475   -1.0144 H   0  0  0  0  0  0  0  0  0  0  0  0
    2.0750   -1.1580   -1.0529 H   0  0  0  0  0  0  0  0  0  0  0  0
    0.7325    0.3252    1.0800 H   0  0  0  0  0  0  0  0  0  0  0  0
   -0.3546   -1.2243   -1.3093 H   0  0  0  0  0  0  0  0  0  0  0  0
   -0.4584   -2.9289    0.2746 H   0  0  0  0  0  0  0  0  0  0  0  0
   -1.6966   -0.7177    1.3657 H   0  0  0  0  0  0  0  0  0  0  0  0
   -3.3889   -1.7458    0.0980 H   0  0  0  0  0  0  0  0  0  0  0  0
   -2.2899    0.5951   -1.3255 H   0  0  0  0  0  0  0  0  0  0  0  0
   -4.2249    1.1108   -0.2710 H   0  0  0  0  0  0  0  0  0  0  0  0
   -1.5458    1.5303    1.4747 H   0  0  0  0  0  0  0  0  0  0  0  0
   -2.4857    2.5586    0.4141 H   0  0  0  0  0  0  0  0  0  0  0  0
    4.2542   -1.3569   -1.1130 H   0  0  0  0  0  0  0  0  0  0  0  0
    5.0376    0.2046   -0.8501 H   0  0  0  0  0  0  0  0  0  0  0  0
    5.0061   -0.9835    0.4420 H   0  0  0  0  0  0  0  0  0  0  0  0
  2  1  1  0
  2  4  1  0
  1 11  1  0
 14 12  1  0
 13 12  2  0
 12  3  1  0
  3  4  1  0
 10  9  1  0
 11  9  1  0
  4  5  1  0
  9  7  1  0
  5  7  1  0
  5  6  1  0
  7  8  1  0
  1 15  1  0
  2 16  1  0
  2 17  1  0
  3 18  1  0
  4 19  1  1
  5 20  1  6
  6 21  1  0
  7 22  1  1
  8 23  1  0
  9 24  1  6
 10 25  1  0
 11 26  1  0
 11 27  1  0
 14 28  1  0
 14 29  1  0
 14 30  1  0
M  END
