
     RDKit          3D

 22 21  0  0  0  0  0  0  0  0999 V2000
    2.4262    1.6101   -0.4893 N   0  0  0  0  0  0  0  0  0  0  0  0
    2.3323    0.3639    0.2282 C   0  0  2  0  0  0  0  0  0  0  0  0
    3.2525   -0.7291   -0.3048 C   0  0  0  0  0  0  0  0  0  0  0  0
    3.5328   -0.9839   -1.4792 O   0  0  0  0  0  0  0  0  0  0  0  0
    0.8997   -0.1926    0.2574 C   0  0  0  0  0  0  0  0  0  0  0  0
   -0.0652    0.8950    0.6145 C   0  0  0  0  0  0  0  0  0  0  0  0
   -0.0161    1.6922    1.5512 O   0  0  0  0  0  0  0  0  0  0  0  0
   -1.1291    0.9556   -0.2434 O   0  0  0  0  0  0  0  0  0  0  0  0
   -2.4315    0.7597    0.3341 C   0  0  0  0  0  0  0  0  0  0  0  0
   -3.4110    0.7104   -0.8194 C   0  0  0  0  0  0  0  0  0  0  0  0
   -3.5298   -0.8849   -1.5364 Cl  0  0  0  0  0  0  0  0  0  0  0  0
    3.8225   -1.5056    0.6539 O   0  0  0  0  0  0  0  0  0  0  0  0
    3.3011    2.0609   -0.3063 H   0  0  0  0  0  0  0  0  0  0  0  0
    2.3196    1.4755   -1.4755 H   0  0  0  0  0  0  0  0  0  0  0  0
    2.6520    0.5582    1.3008 H   0  0  0  0  0  0  0  0  0  0  0  0
    0.6206   -0.6493   -0.7276 H   0  0  0  0  0  0  0  0  0  0  0  0
    0.8350   -0.9864    1.0506 H   0  0  0  0  0  0  0  0  0  0  0  0
    4.3919   -2.1754    0.2393 H   0  0  0  0  0  0  0  0  0  0  0  0
   -2.4304   -0.1818    0.9426 H   0  0  0  0  0  0  0  0  0  0  0  0
   -2.6541    1.6339    1.0031 H   0  0  0  0  0  0  0  0  0  0  0  0
   -4.4328    0.9727   -0.4522 H   0  0  0  0  0  0  0  0  0  0  0  0
   -3.1001    1.4080   -1.6346 H   0  0  0  0  0  0  0  0  0  0  0  0
  1  2  1  0
  1 13  1  0
  1 14  1  0
  2  3  1  0
  2  5  1  0
  2 15  1  1
  3  4  2  0
  3 12  1  0
  5  6  1  0
  5 16  1  0
  5 17  1  0
  6  7  2  0
  6  8  1  0
  8  9  1  0
  9 10  1  0
  9 19  1  0
  9 20  1  0
 10 11  1  0
 10 21  1  0
 10 22  1  0
 12 18  1  0
M  END
