
     RDKit          3D

 15 15  0  0  0  0  0  0  0  0999 V2000
    2.0050    0.1428    0.6353 C   0  0  0  0  0  0  0  0  0  0  0  0
    0.5524   -0.0270    0.3492 C   0  0  0  0  0  0  0  0  0  0  0  0
   -1.3932   -1.1576   -0.1991 C   0  0  0  0  0  0  0  0  0  0  0  0
   -0.3421    1.0031    0.3404 C   0  0  0  0  0  0  0  0  0  0  0  0
    2.8018    0.1238   -0.6273 N   0  0  0  0  0  0  0  0  0  0  0  0
   -0.0599   -1.2765    0.0374 C   0  0  0  0  0  0  0  0  0  0  0  0
   -1.9175    0.4667   -0.0414 S   0  0  0  0  0  0  0  0  0  0  0  0
    2.2158    1.0928    1.1185 H   0  0  0  0  0  0  0  0  0  0  0  0
    2.3960   -0.6590    1.2578 H   0  0  0  0  0  0  0  0  0  0  0  0
   -2.0958   -1.9371   -0.4492 H   0  0  0  0  0  0  0  0  0  0  0  0
   -0.1486    2.0458    0.5437 H   0  0  0  0  0  0  0  0  0  0  0  0
    2.6878   -0.7487   -1.1426 H   0  0  0  0  0  0  0  0  0  0  0  0
    2.5343    0.8823   -1.2538 H   0  0  0  0  0  0  0  0  0  0  0  0
    3.7987    0.2276   -0.4372 H   0  0  0  0  0  0  0  0  0  0  0  0
    0.4708   -2.2184    0.0008 H   0  0  0  0  0  0  0  0  0  0  0  0
  5  1  1  0
  1  2  1  0
  2  6  1  0
  2  4  2  0
  6  3  2  0
  4  7  1  0
  3  7  1  0
  1  8  1  0
  1  9  1  0
  3 10  1  0
  4 11  1  0
  5 12  1  0
  5 13  1  0
  5 14  1  0
  6 15  1  0
M  CHG  1   5   1
M  END
