
     RDKit          3D

 15 16  0  0  0  0  0  0  0  0999 V2000
    1.0627   -0.0388   -1.5069 O   0  0  0  0  0  0  0  0  0  0  0  0
   -0.0344   -0.0353   -2.3091 C   0  0  0  0  0  0  0  0  0  0  0  0
   -1.1803   -0.0024   -1.6013 C   0  0  0  0  0  0  0  0  0  0  0  0
   -0.7854    0.0167   -0.2190 C   0  0  0  0  0  0  0  0  0  0  0  0
   -1.4520    0.0507    1.0070 C   0  0  0  0  0  0  0  0  0  0  0  0
   -0.6945    0.0594    2.1652 C   0  0  0  0  0  0  0  0  0  0  0  0
    0.7057    0.0347    2.1191 C   0  0  0  0  0  0  0  0  0  0  0  0
    1.3881    0.0008    0.9131 C   0  0  0  0  0  0  0  0  0  0  0  0
    0.6114   -0.0074   -0.2330 C   0  0  0  0  0  0  0  0  0  0  0  0
    0.1570   -0.0583   -3.3701 H   0  0  0  0  0  0  0  0  0  0  0  0
   -2.1799    0.0069   -2.0045 H   0  0  0  0  0  0  0  0  0  0  0  0
   -2.5332    0.0695    1.0526 H   0  0  0  0  0  0  0  0  0  0  0  0
   -1.1897    0.0853    3.1272 H   0  0  0  0  0  0  0  0  0  0  0  0
    1.2681    0.0429    3.0434 H   0  0  0  0  0  0  0  0  0  0  0  0
    2.4691   -0.0181    0.8722 H   0  0  0  0  0  0  0  0  0  0  0  0
  1  2  1  0
  1  9  1  0
  2  3  2  0
  2 10  1  0
  3  4  1  0
  3 11  1  0
  4  5  1  0
  4  9  2  0
  5  6  2  0
  5 12  1  0
  6  7  1  0
  6 13  1  0
  7  8  2  0
  7 14  1  0
  8  9  1  0
  8 15  1  0
M  END
