
     RDKit          3D

100103  0  0  0  0  0  0  0  0999 V2000
    0.5678    2.8864   -2.9144 C   0  0  0  0  0  0  0  0  0  0  0  0
   -0.1123    2.2858   -1.6916 C   0  0  0  0  0  0  0  0  0  0  0  0
   -1.6212    2.5378   -1.6493 C   0  0  2  0  0  0  0  0  0  0  0  0
   -1.9203    4.0144   -1.3907 C   0  0  0  0  0  0  0  0  0  0  0  0
   -2.3016    1.6835   -0.5642 C   0  0  2  0  0  0  0  0  0  0  0  0
   -2.0643    0.2527   -0.6495 N   0  0  0  0  0  0  0  0  0  0  0  0
   -2.0689   -0.5475   -1.7268 C   0  0  0  0  0  0  0  0  0  0  0  0
   -2.3209   -0.2026   -2.8676 O   0  0  0  0  0  0  0  0  0  0  0  0
   -3.8025    1.9926   -0.5204 C   0  0  0  0  0  0  0  0  0  0  0  0
   -4.5221    1.8024   -1.4862 O   0  0  0  0  0  0  0  0  0  0  0  0
   -4.2342    2.5284    0.6329 N   0  0  0  0  0  0  0  0  0  0  0  0
   -5.5754    3.0469    0.8231 C   0  0  0  0  0  0  0  0  0  0  0  0
   -6.6449    1.9667    0.9346 C   0  0  0  0  0  0  0  0  0  0  0  0
   -6.4664    1.0722    2.1600 C   0  0  0  0  0  0  0  0  0  0  0  0
   -6.8756   -0.2792    1.9236 O   0  0  0  0  0  0  0  0  0  0  0  0
   -5.9833   -0.9760    1.1621 C   0  0  0  0  0  0  0  0  0  0  0  0
   -4.8313   -1.5009    1.7396 C   0  0  0  0  0  0  0  0  0  0  0  0
   -3.8975   -2.1542    0.9528 C   0  0  0  0  0  0  0  0  0  0  0  0
   -6.2079   -1.1511   -0.1956 C   0  0  0  0  0  0  0  0  0  0  0  0
   -5.2517   -1.7819   -0.9772 C   0  0  0  0  0  0  0  0  0  0  0  0
   -4.0732   -2.2709   -0.4260 C   0  0  0  0  0  0  0  0  0  0  0  0
   -3.0213   -2.8587   -1.3257 C   0  0  0  0  0  0  0  0  0  0  0  0
   -1.7360   -2.0213   -1.4530 C   0  0  2  0  0  0  0  0  0  0  0  0
   -0.8814   -2.2277   -0.2963 N   0  0  0  0  0  0  0  0  0  0  0  0
    0.4264   -1.8852   -0.3413 C   0  0  0  0  0  0  0  0  0  0  0  0
    0.8840   -1.1661   -1.2095 O   0  0  0  0  0  0  0  0  0  0  0  0
    1.2991   -2.4902    0.7693 C   0  0  2  0  0  0  0  0  0  0  0  0
    0.9326   -1.9847    2.1836 C   0  0  0  0  0  0  0  0  0  0  0  0
    1.4027   -0.5784    2.4193 C   0  0  0  0  0  0  0  0  0  0  0  0
    0.6954    0.5140    1.9269 C   0  0  0  0  0  0  0  0  0  0  0  0
    1.2449    1.7840    1.9286 C   0  0  0  0  0  0  0  0  0  0  0  0
    2.6376   -0.3408    3.0202 C   0  0  0  0  0  0  0  0  0  0  0  0
    3.2049    0.9256    3.0213 C   0  0  0  0  0  0  0  0  0  0  0  0
    2.5306    1.9794    2.4173 C   0  0  0  0  0  0  0  0  0  0  0  0
    3.1297    3.1873    2.2258 O   0  0  0  0  0  0  0  0  0  0  0  0
    4.1844    3.1531    1.2543 C   0  0  0  0  0  0  0  0  0  0  0  0
    3.8116    2.3939   -0.0104 C   0  0  0  0  0  0  0  0  0  0  0  0
    4.8748    2.4913   -1.0969 C   0  0  0  0  0  0  0  0  0  0  0  0
    4.6248    1.4952   -2.2417 C   0  0  0  0  0  0  0  0  0  0  0  0
    5.1519    0.1115   -1.9181 C   0  0  0  0  0  0  0  0  0  0  0  0
    6.3161   -0.1859   -2.1354 O   0  0  0  0  0  0  0  0  0  0  0  0
    4.2726   -0.7397   -1.3385 N   0  0  0  0  0  0  0  0  0  0  0  0
    4.5690   -2.1441   -1.0741 C   0  0  1  0  0  0  0  0  0  0  0  0
    5.7529   -2.3794   -0.1059 C   0  0  1  0  0  0  0  0  0  0  0  0
    5.7018   -1.5768    1.1873 C   0  0  0  0  0  0  0  0  0  0  0  0
    5.9103   -3.8703    0.1785 C   0  0  0  0  0  0  0  0  0  0  0  0
    3.2825   -2.8155   -0.5947 C   0  0  0  0  0  0  0  0  0  0  0  0
    2.8435   -3.8162   -1.1310 O   0  0  0  0  0  0  0  0  0  0  0  0
    2.6793   -2.2309    0.4657 N   0  0  0  0  0  0  0  0  0  0  0  0
    0.1455    2.4811   -3.8355 H   0  0  0  0  0  0  0  0  0  0  0  0
    0.4775    3.9719   -2.9552 H   0  0  0  0  0  0  0  0  0  0  0  0
    1.6343    2.6559   -2.9148 H   0  0  0  0  0  0  0  0  0  0  0  0
    0.0913    1.2158   -1.6746 H   0  0  0  0  0  0  0  0  0  0  0  0
    0.3476    2.6911   -0.7834 H   0  0  0  0  0  0  0  0  0  0  0  0
   -2.0473    2.2636   -2.6157 H   0  0  0  0  0  0  0  0  0  0  0  0
   -1.5788    4.3210   -0.3988 H   0  0  0  0  0  0  0  0  0  0  0  0
   -1.4128    4.6448   -2.1201 H   0  0  0  0  0  0  0  0  0  0  0  0
   -2.9824    4.2480   -1.4672 H   0  0  0  0  0  0  0  0  0  0  0  0
   -1.8535    1.9787    0.3915 H   0  0  0  0  0  0  0  0  0  0  0  0
   -1.9263   -0.2105    0.2333 H   0  0  0  0  0  0  0  0  0  0  0  0
   -3.5762    2.6462    1.3843 H   0  0  0  0  0  0  0  0  0  0  0  0
   -5.5521    3.6587    1.7250 H   0  0  0  0  0  0  0  0  0  0  0  0
   -5.8237    3.7160   -0.0034 H   0  0  0  0  0  0  0  0  0  0  0  0
   -7.6240    2.4500    0.9594 H   0  0  0  0  0  0  0  0  0  0  0  0
   -6.6184    1.3741    0.0211 H   0  0  0  0  0  0  0  0  0  0  0  0
   -5.4237    1.0803    2.4968 H   0  0  0  0  0  0  0  0  0  0  0  0
   -7.0751    1.4284    2.9914 H   0  0  0  0  0  0  0  0  0  0  0  0
   -4.6641   -1.3967    2.8050 H   0  0  0  0  0  0  0  0  0  0  0  0
   -3.0196   -2.5677    1.4344 H   0  0  0  0  0  0  0  0  0  0  0  0
   -7.1168   -0.7747   -0.6473 H   0  0  0  0  0  0  0  0  0  0  0  0
   -5.4218   -1.8772   -2.0427 H   0  0  0  0  0  0  0  0  0  0  0  0
   -2.7366   -3.8642   -1.0022 H   0  0  0  0  0  0  0  0  0  0  0  0
   -3.4329   -2.9730   -2.3285 H   0  0  0  0  0  0  0  0  0  0  0  0
   -1.2117   -2.3687   -2.3479 H   0  0  0  0  0  0  0  0  0  0  0  0
   -1.1224   -2.9966    0.3115 H   0  0  0  0  0  0  0  0  0  0  0  0
    1.1308   -3.5701    0.7602 H   0  0  0  0  0  0  0  0  0  0  0  0
   -0.1470   -2.0715    2.3194 H   0  0  0  0  0  0  0  0  0  0  0  0
    1.3944   -2.6607    2.9041 H   0  0  0  0  0  0  0  0  0  0  0  0
   -0.2844    0.3665    1.4931 H   0  0  0  0  0  0  0  0  0  0  0  0
    0.7060    2.6176    1.4957 H   0  0  0  0  0  0  0  0  0  0  0  0
    3.1839   -1.1652    3.4635 H   0  0  0  0  0  0  0  0  0  0  0  0
    4.1895    1.0770    3.4467 H   0  0  0  0  0  0  0  0  0  0  0  0
    4.4038    4.1975    1.0277 H   0  0  0  0  0  0  0  0  0  0  0  0
    5.0887    2.7176    1.6954 H   0  0  0  0  0  0  0  0  0  0  0  0
    3.6477    1.3410    0.2330 H   0  0  0  0  0  0  0  0  0  0  0  0
    2.8615    2.7715   -0.4014 H   0  0  0  0  0  0  0  0  0  0  0  0
    4.8853    3.5015   -1.5107 H   0  0  0  0  0  0  0  0  0  0  0  0
    5.8730    2.3243   -0.6810 H   0  0  0  0  0  0  0  0  0  0  0  0
    3.5598    1.4708   -2.4875 H   0  0  0  0  0  0  0  0  0  0  0  0
    5.1483    1.8318   -3.1367 H   0  0  0  0  0  0  0  0  0  0  0  0
    3.2957   -0.4854   -1.3880 H   0  0  0  0  0  0  0  0  0  0  0  0
    4.8280   -2.6443   -2.0127 H   0  0  0  0  0  0  0  0  0  0  0  0
    6.6378   -2.0570   -0.6531 H   0  0  0  0  0  0  0  0  0  0  0  0
    4.9512   -1.9568    1.8809 H   0  0  0  0  0  0  0  0  0  0  0  0
    6.6635   -1.6429    1.6973 H   0  0  0  0  0  0  0  0  0  0  0  0
    5.5033   -0.5176    1.0136 H   0  0  0  0  0  0  0  0  0  0  0  0
    5.9206   -4.4577   -0.7411 H   0  0  0  0  0  0  0  0  0  0  0  0
    6.8521   -4.0548    0.6957 H   0  0  0  0  0  0  0  0  0  0  0  0
    5.1102   -4.2553    0.8143 H   0  0  0  0  0  0  0  0  0  0  0  0
    3.0490   -1.3454    0.7796 H   0  0  0  0  0  0  0  0  0  0  0  0
  1  2  1  0
  2  3  1  0
  3  4  1  0
  3  5  1  0
  5  6  1  0
  5  9  1  0
  6  7  1  0
  7  8  2  0
  7 23  1  0
  9 10  2  0
  9 11  1  0
 11 12  1  0
 12 13  1  0
 13 14  1  0
 14 15  1  0
 15 16  1  0
 16 17  2  0
 16 19  1  0
 17 18  1  0
 18 21  2  0
 19 20  2  0
 20 21  1  0
 21 22  1  0
 22 23  1  0
 23 24  1  0
 24 25  1  0
 25 26  2  0
 25 27  1  0
 27 28  1  0
 27 49  1  0
 28 29  1  0
 29 30  2  0
 29 32  1  0
 30 31  1  0
 31 34  2  0
 32 33  2  0
 33 34  1  0
 34 35  1  0
 35 36  1  0
 36 37  1  0
 37 38  1  0
 38 39  1  0
 39 40  1  0
 40 41  2  0
 40 42  1  0
 42 43  1  0
 43 44  1  0
 43 47  1  0
 44 45  1  0
 44 46  1  0
 47 48  2  0
 47 49  1  0
  1 50  1  0
  1 51  1  0
  1 52  1  0
  2 53  1  0
  2 54  1  0
  3 55  1  6
  4 56  1  0
  4 57  1  0
  4 58  1  0
  5 59  1  1
  6 60  1  0
 11 61  1  0
 12 62  1  0
 12 63  1  0
 13 64  1  0
 13 65  1  0
 14 66  1  0
 14 67  1  0
 17 68  1  0
 18 69  1  0
 19 70  1  0
 20 71  1  0
 22 72  1  0
 22 73  1  0
 23 74  1  6
 24 75  1  0
 27 76  1  1
 28 77  1  0
 28 78  1  0
 30 79  1  0
 31 80  1  0
 32 81  1  0
 33 82  1  0
 36 83  1  0
 36 84  1  0
 37 85  1  0
 37 86  1  0
 38 87  1  0
 38 88  1  0
 39 89  1  0
 39 90  1  0
 42 91  1  0
 43 92  1  6
 44 93  1  6
 45 94  1  0
 45 95  1  0
 45 96  1  0
 46 97  1  0
 46 98  1  0
 46 99  1  0
 49100  1  0
M  END
