
     RDKit          3D

102105  0  0  0  0  0  0  0  0999 V2000
    5.0593    1.0093   -1.9051 C   0  0  2  0  0  0  0  0  0  0  0  0
    4.2691   -0.0369   -1.0949 C   0  0  1  0  0  0  0  0  0  0  0  0
    4.0418   -1.2967   -1.9340 C   0  0  0  0  0  0  0  0  0  0  0  0
    4.9720   -0.3702    0.2259 C   0  0  0  0  0  0  0  0  0  0  0  0
    4.2432   -1.3764    1.1182 C   0  0  1  0  0  0  0  0  0  0  0  0
    0.4610   -0.8748    1.2766 C   0  0  2  0  0  0  0  0  0  0  0  0
    5.2949    2.3120   -1.1343 C   0  0  0  0  0  0  0  0  0  0  0  0
    6.0615    3.3447   -1.9536 C   0  0  0  0  0  0  0  0  0  0  0  0
    5.3714    3.6347   -3.2791 C   0  0  0  0  0  0  0  0  0  0  0  0
    5.1428    2.3442   -4.0540 C   0  0  0  0  0  0  0  0  0  0  0  0
    4.3624    1.3136   -3.2414 C   0  0  1  0  0  0  0  0  0  0  0  0
    4.1285    0.0435   -4.0514 C   0  0  0  0  0  0  0  0  0  0  0  0
    3.3512   -0.9926   -3.2559 C   0  0  0  0  0  0  0  0  0  0  0  0
    4.9098   -1.6008    2.4978 C   0  0  1  0  0  0  0  0  0  0  0  0
    4.0608   -2.3730    3.3130 O   0  0  0  0  0  0  0  0  0  0  0  0
    2.8808   -0.9137    1.3406 N   0  0  0  0  0  0  0  0  0  0  0  0
    1.7752   -1.6100    1.0363 C   0  0  0  0  0  0  0  0  0  0  0  0
    1.7701   -2.7563    0.6143 O   0  0  0  0  0  0  0  0  0  0  0  0
   -0.2666   -1.4814    2.4895 C   0  0  0  0  0  0  0  0  0  0  0  0
   -1.6286   -0.8775    2.6697 C   0  0  0  0  0  0  0  0  0  0  0  0
   -2.7643   -1.5190    2.1772 C   0  0  0  0  0  0  0  0  0  0  0  0
   -4.0191   -0.9479    2.2829 C   0  0  0  0  0  0  0  0  0  0  0  0
   -4.1721    0.2988    2.8901 C   0  0  0  0  0  0  0  0  0  0  0  0
   -5.4285    0.7833    2.9547 O   0  0  0  0  0  0  0  0  0  0  0  0
   -5.6282    2.0745    3.4900 C   0  0  0  0  0  0  0  0  0  0  0  0
   -3.0490    0.9542    3.3889 C   0  0  0  0  0  0  0  0  0  0  0  0
   -1.7973    0.3619    3.2716 C   0  0  0  0  0  0  0  0  0  0  0  0
   -0.3442   -0.9773    0.0855 N   0  0  0  0  0  0  0  0  0  0  0  0
   -0.7907    1.2311   -0.1530 O   0  0  0  0  0  0  0  0  0  0  0  0
   -1.7988   -0.2906   -1.7091 C   0  0  2  0  0  0  0  0  0  0  0  0
   -0.9250   -0.3439   -2.9638 C   0  0  0  0  0  0  0  0  0  0  0  0
   -2.8553    0.6834   -1.8155 N   0  0  0  0  0  0  0  0  0  0  0  0
   -4.1000    0.3897   -2.2186 C   0  0  0  0  0  0  0  0  0  0  0  0
   -4.4539   -0.7298   -2.5552 O   0  0  0  0  0  0  0  0  0  0  0  0
   -5.0476    1.5804   -2.2521 C   0  0  0  0  0  0  0  0  0  0  0  0
   -6.3468    1.2258   -1.7430 N   0  0  0  0  0  0  0  0  0  0  0  0
   -6.3225    0.9783   -0.3123 C   0  0  0  0  0  0  0  0  0  0  0  0
   -7.7016    0.5677    0.1644 C   0  0  0  0  0  0  0  0  0  0  0  0
   -8.6720    1.5415   -0.1526 O   0  0  0  0  0  0  0  0  0  0  0  0
   -8.7001    1.7894   -1.5410 C   0  0  0  0  0  0  0  0  0  0  0  0
   -7.3440    2.2332   -2.0557 C   0  0  0  0  0  0  0  0  0  0  0  0
    6.0442    0.5724   -2.1380 H   0  0  0  0  0  0  0  0  0  0  0  0
    3.2869    0.4041   -0.8743 H   0  0  0  0  0  0  0  0  0  0  0  0
    5.0117   -1.7710   -2.1308 H   0  0  0  0  0  0  0  0  0  0  0  0
    3.4490   -2.0259   -1.3789 H   0  0  0  0  0  0  0  0  0  0  0  0
    5.9700   -0.7504    0.0054 H   0  0  0  0  0  0  0  0  0  0  0  0
    5.1208    0.5417    0.8114 H   0  0  0  0  0  0  0  0  0  0  0  0
    4.1583   -2.3402    0.6172 H   0  0  0  0  0  0  0  0  0  0  0  0
    0.6353    0.1852    1.4626 H   0  0  0  0  0  0  0  0  0  0  0  0
    4.3247    2.7277   -0.8346 H   0  0  0  0  0  0  0  0  0  0  0  0
    5.8451    2.1201   -0.2115 H   0  0  0  0  0  0  0  0  0  0  0  0
    6.1813    4.2641   -1.3747 H   0  0  0  0  0  0  0  0  0  0  0  0
    7.0718    2.9679   -2.1488 H   0  0  0  0  0  0  0  0  0  0  0  0
    4.4079    4.1210   -3.0899 H   0  0  0  0  0  0  0  0  0  0  0  0
    5.9637    4.3358   -3.8728 H   0  0  0  0  0  0  0  0  0  0  0  0
    4.6124    2.5506   -4.9887 H   0  0  0  0  0  0  0  0  0  0  0  0
    6.1107    1.9134   -4.3380 H   0  0  0  0  0  0  0  0  0  0  0  0
    3.3788    1.7494   -3.0051 H   0  0  0  0  0  0  0  0  0  0  0  0
    3.6034    0.2903   -4.9792 H   0  0  0  0  0  0  0  0  0  0  0  0
    5.0979   -0.3758   -4.3467 H   0  0  0  0  0  0  0  0  0  0  0  0
    3.2287   -1.9099   -3.8372 H   0  0  0  0  0  0  0  0  0  0  0  0
    2.3417   -0.6156   -3.0551 H   0  0  0  0  0  0  0  0  0  0  0  0
    5.0826   -0.6106    2.9527 H   0  0  0  0  0  0  0  0  0  0  0  0
    3.2335   -1.8928    3.4145 H   0  0  0  0  0  0  0  0  0  0  0  0
    6.0909   -3.4506    4.3493 H   0  0  0  0  0  0  0  0  0  0  0  0
    7.7350   -3.0216    3.9029 H   0  0  0  0  0  0  0  0  0  0  0  0
    6.6522   -1.7879    4.5543 H   0  0  0  0  0  0  0  0  0  0  0  0
    6.0632   -3.3961    0.5811 H   0  0  0  0  0  0  0  0  0  0  0  0
    7.1777   -4.1421    1.7200 H   0  0  0  0  0  0  0  0  0  0  0  0
    5.4457   -4.2776    1.9809 H   0  0  0  0  0  0  0  0  0  0  0  0
    8.0503   -1.8388    1.8612 H   0  0  0  0  0  0  0  0  0  0  0  0
    2.7665    0.0516    1.6131 H   0  0  0  0  0  0  0  0  0  0  0  0
   -0.3534   -2.5612    2.3487 H   0  0  0  0  0  0  0  0  0  0  0  0
    0.3529   -1.3246    3.3764 H   0  0  0  0  0  0  0  0  0  0  0  0
   -2.6697   -2.4894    1.7033 H   0  0  0  0  0  0  0  0  0  0  0  0
   -4.8902   -1.4635    1.8970 H   0  0  0  0  0  0  0  0  0  0  0  0
   -5.3463    2.1306    4.5449 H   0  0  0  0  0  0  0  0  0  0  0  0
   -5.0732    2.8373    2.9375 H   0  0  0  0  0  0  0  0  0  0  0  0
   -6.6914    2.2846    3.4026 H   0  0  0  0  0  0  0  0  0  0  0  0
   -3.1271    1.9187    3.8727 H   0  0  0  0  0  0  0  0  0  0  0  0
   -0.9355    0.8889    3.6653 H   0  0  0  0  0  0  0  0  0  0  0  0
   -0.5725   -1.9070   -0.2329 H   0  0  0  0  0  0  0  0  0  0  0  0
   -2.2551   -1.2698   -1.5528 H   0  0  0  0  0  0  0  0  0  0  0  0
   -0.4585    0.6228   -3.1549 H   0  0  0  0  0  0  0  0  0  0  0  0
   -0.1390   -1.0922   -2.8595 H   0  0  0  0  0  0  0  0  0  0  0  0
   -1.5305   -0.6110   -3.8288 H   0  0  0  0  0  0  0  0  0  0  0  0
   -2.6376    1.6260   -1.5300 H   0  0  0  0  0  0  0  0  0  0  0  0
   -4.6095    2.4435   -1.7241 H   0  0  0  0  0  0  0  0  0  0  0  0
   -5.1488    1.8789   -3.3004 H   0  0  0  0  0  0  0  0  0  0  0  0
   -5.6222    0.1719   -0.0830 H   0  0  0  0  0  0  0  0  0  0  0  0
   -5.9823    1.8672    0.2462 H   0  0  0  0  0  0  0  0  0  0  0  0
   -7.9666   -0.3984   -0.2879 H   0  0  0  0  0  0  0  0  0  0  0  0
   -7.6981    0.4443    1.2478 H   0  0  0  0  0  0  0  0  0  0  0  0
   -9.0170    0.8888   -2.0859 H   0  0  0  0  0  0  0  0  0  0  0  0
   -9.4426    2.5686   -1.7195 H   0  0  0  0  0  0  0  0  0  0  0  0
   -7.0881    3.2153   -1.6221 H   0  0  0  0  0  0  0  0  0  0  0  0
   -7.4006    2.3636   -3.1393 H   0  0  0  0  0  0  0  0  0  0  0  0
    6.2719   -2.3271    2.4774 C   0  0  1  0  0  0  0  0  0  0  0  0
    6.7016   -2.6659    3.9077 C   0  0  0  0  0  0  0  0  0  0  0  0
    6.2308   -3.6029    1.6392 C   0  0  0  0  0  0  0  0  0  0  0  0
    7.1966   -1.3987    1.9321 O   0  0  0  0  0  0  0  0  0  0  0  0
   -0.9419    0.0712   -0.5007 C   0  0  0  0  0  0  0  0  0  0  0  0
 35 36  1  0
 35 33  1  0
 37 38  1  0
 37 36  1  0
 38 39  1  0
 36 41  1  0
 33 34  2  0
 33 32  1  0
 32 30  1  0
 39 40  1  0
 41 40  1  0
 31 30  1  0
 30102  1  0
102 29  2  0
102 28  1  0
 26 27  2  0
 26 23  1  0
 27 20  1  0
 24 23  1  0
 24 25  1  0
 28  6  1  0
 23 22  2  0
 20 19  1  0
 20 21  2  0
  6 19  1  0
  6 17  1  0
 18 17  2  0
 22 21  1  0
 13 12  1  0
 13  3  1  0
 17 16  1  0
 12 11  1  0
  3  2  1  0
100 98  1  0
 16  5  1  0
 11 10  1  0
 11  1  1  0
  2  1  1  0
  2  4  1  0
  5  4  1  0
  5 14  1  0
 10  9  1  0
 98101  1  6
  1  7  1  0
 98 14  1  0
 98 99  1  0
 14 15  1  0
  9  8  1  0
  7  8  1  0
  1 42  1  6
  2 43  1  1
  3 44  1  0
  3 45  1  0
  4 46  1  0
  4 47  1  0
  5 48  1  6
  6 49  1  1
  7 50  1  0
  7 51  1  0
  8 52  1  0
  8 53  1  0
  9 54  1  0
  9 55  1  0
 10 56  1  0
 10 57  1  0
 11 58  1  1
 12 59  1  0
 12 60  1  0
 13 61  1  0
 13 62  1  0
 14 63  1  1
 15 64  1  0
 99 65  1  0
 99 66  1  0
 99 67  1  0
100 68  1  0
100 69  1  0
100 70  1  0
101 71  1  0
 16 72  1  0
 19 73  1  0
 19 74  1  0
 21 75  1  0
 22 76  1  0
 25 77  1  0
 25 78  1  0
 25 79  1  0
 26 80  1  0
 27 81  1  0
 28 82  1  0
 30 83  1  1
 31 84  1  0
 31 85  1  0
 31 86  1  0
 32 87  1  0
 35 88  1  0
 35 89  1  0
 37 90  1  0
 37 91  1  0
 38 92  1  0
 38 93  1  0
 40 94  1  0
 40 95  1  0
 41 96  1  0
 41 97  1  0
M  END
