
     RDKit          3D

 17 17  0  0  0  0  0  0  0  0999 V2000
   -3.1130    0.0168   -0.0966 C   0  0  0  0  0  0  0  0  0  0  0  0
   -2.4565   -1.2022   -0.0095 C   0  0  0  0  0  0  0  0  0  0  0  0
   -1.0697   -1.2452    0.0447 C   0  0  0  0  0  0  0  0  0  0  0  0
   -0.3612   -0.0539    0.0054 C   0  0  0  0  0  0  0  0  0  0  0  0
   -1.0054    1.1748   -0.0814 C   0  0  0  0  0  0  0  0  0  0  0  0
   -2.3890    1.2035   -0.1325 C   0  0  0  0  0  0  0  0  0  0  0  0
    1.4069   -0.0806    0.0913 S   0  0  1  0  0  0  0  0  0  0  0  0
    1.8711    1.0395    0.8974 O   0  0  0  0  0  0  0  0  0  0  0  0
    1.8169   -1.4239    0.4785 O   0  0  0  0  0  0  0  0  0  0  0  0
    1.8063    0.2924   -1.4673 N   0  0  0  0  0  0  0  0  0  0  0  0
   -4.1938    0.0451   -0.1338 H   0  0  0  0  0  0  0  0  0  0  0  0
   -3.0218   -2.1238    0.0207 H   0  0  0  0  0  0  0  0  0  0  0  0
   -2.9033    2.1527   -0.1987 H   0  0  0  0  0  0  0  0  0  0  0  0
   -0.5584   -2.1951    0.1188 H   0  0  0  0  0  0  0  0  0  0  0  0
   -0.4414    2.0978   -0.1091 H   0  0  0  0  0  0  0  0  0  0  0  0
    1.6466   -0.4765   -2.1101 H   0  0  0  0  0  0  0  0  0  0  0  0
    2.7673    0.6144   -1.5372 H   0  0  0  0  0  0  0  0  0  0  0  0
  1  2  2  0
  1  6  1  0
  2  3  1  0
  3  4  2  0
  4  5  1  0
  4  7  1  0
  5  6  2  0
  7  9  2  0
  7  8  2  0
  7 10  1  6
  1 11  1  0
  2 12  1  0
  6 13  1  0
  3 14  1  0
  5 15  1  0
 10 16  1  0
 10 17  1  0
M  END
