
     RDKit          3D

 46 48  0  0  0  0  0  0  0  0999 V2000
   -0.8742    0.4795   -1.2238 C   0  0  0  0  0  0  0  0  0  0  0  0
   -2.5344    1.5675   -0.5096 C   0  0  0  0  0  0  0  0  0  0  0  0
   -3.5327    2.4952   -0.1616 C   0  0  0  0  0  0  0  0  0  0  0  0
    2.0469    2.1106    0.1864 C   0  0  0  0  0  0  0  0  0  0  0  0
   -4.4337    0.8666    1.1908 C   0  0  0  0  0  0  0  0  0  0  0  0
   -2.6157    0.3214    0.0895 C   0  0  0  0  0  0  0  0  0  0  0  0
   -0.7979   -2.6186   -1.1683 C   0  0  2  0  0  0  0  0  0  0  0  0
    0.2213   -3.5634   -0.5266 C   0  0  1  0  0  0  0  0  0  0  0  0
    1.4573    3.2770   -0.5605 C   0  0  0  0  0  0  0  0  0  0  0  0
    0.5210    4.1255    0.2773 C   0  0  0  0  0  0  0  0  0  0  0  0
    2.8667    1.2972   -0.5546 N   0  0  0  0  0  0  0  0  0  0  0  0
   -1.5424   -0.3770   -0.3897 N   0  0  0  0  0  0  0  0  0  0  0  0
   -1.1367   -1.6993    0.0070 C   0  0  2  0  0  0  0  0  0  0  0  0
   -1.4373    1.6439   -1.3289 N   0  0  0  0  0  0  0  0  0  0  0  0
    4.4025    0.5774    1.4708 O   0  0  0  0  0  0  0  0  0  0  0  0
    3.7960    0.0445    0.1059 P   0  0  2  0  0  0  0  0  0  0  0  0
    4.8066   -0.4169   -0.8616 O   0  0  0  0  0  0  0  0  0  0  0  0
    2.7602   -1.0582    0.6171 O   0  0  0  0  0  0  0  0  0  0  0  0
    0.9746   -2.6042    0.3858 C   0  0  2  0  0  0  0  0  0  0  0  0
    0.0259   -1.6192    0.7874 O   0  0  0  0  0  0  0  0  0  0  0  0
   -4.4779    2.1021    0.6995 N   0  0  0  0  0  0  0  0  0  0  0  0
   -3.5475   -0.0840    0.9472 N   0  0  0  0  0  0  0  0  0  0  0  0
   -3.5673    3.7334   -0.6544 N   0  0  0  0  0  0  0  0  0  0  0  0
   -1.9580   -3.2351   -1.6376 O   0  0  0  0  0  0  0  0  0  0  0  0
   -0.4191   -4.5249    0.2683 O   0  0  0  0  0  0  0  0  0  0  0  0
    1.8567    1.8922    1.3677 O   0  0  0  0  0  0  0  0  0  0  0  0
    0.0330    0.1885   -1.7320 H   0  0  0  0  0  0  0  0  0  0  0  0
   -5.2300    0.6119    1.8821 H   0  0  0  0  0  0  0  0  0  0  0  0
   -0.2998   -2.0501   -1.9631 H   0  0  0  0  0  0  0  0  0  0  0  0
    0.8803   -4.0247   -1.2739 H   0  0  0  0  0  0  0  0  0  0  0  0
    2.2928    3.8773   -0.9343 H   0  0  0  0  0  0  0  0  0  0  0  0
    0.9417    2.9042   -1.4486 H   0  0  0  0  0  0  0  0  0  0  0  0
    1.0174    4.5211    1.1623 H   0  0  0  0  0  0  0  0  0  0  0  0
    0.1662    4.9715   -0.3099 H   0  0  0  0  0  0  0  0  0  0  0  0
   -0.3509    3.5586    0.6003 H   0  0  0  0  0  0  0  0  0  0  0  0
    3.0531    1.5488   -1.5168 H   0  0  0  0  0  0  0  0  0  0  0  0
   -1.9695   -2.1148    0.5834 H   0  0  0  0  0  0  0  0  0  0  0  0
    3.7599    1.0075    2.0573 H   0  0  0  0  0  0  0  0  0  0  0  0
    1.8389   -1.4306   -1.2184 H   0  0  0  0  0  0  0  0  0  0  0  0
    2.8688   -2.7283   -0.6033 H   0  0  0  0  0  0  0  0  0  0  0  0
    1.3363   -3.1241    1.2783 H   0  0  0  0  0  0  0  0  0  0  0  0
   -2.8509    4.0648   -1.2760 H   0  0  0  0  0  0  0  0  0  0  0  0
   -4.2685    4.3842   -0.3454 H   0  0  0  0  0  0  0  0  0  0  0  0
   -1.7931   -3.5722   -2.5243 H   0  0  0  0  0  0  0  0  0  0  0  0
   -1.1563   -4.8848   -0.2392 H   0  0  0  0  0  0  0  0  0  0  0  0
    2.1534   -1.9568   -0.3105 C   0  0  0  0  0  0  0  0  0  0  0  0
 23  3  1  0
 14  2  1  0
 14  1  2  0
  3  2  2  0
  3 21  1  0
  2  6  1  0
  1 12  1  0
 24  7  1  0
  7  8  1  0
  7 13  1  0
 21  5  2  0
 12  6  1  0
 12 13  1  0
  6 22  2  0
  8 25  1  0
  8 19  1  0
  5 22  1  0
 13 20  1  0
 46 19  1  0
 46 18  1  0
 19 20  1  0
 16 18  1  1
 17 16  2  0
 16 11  1  0
 16 15  1  0
 11  4  1  0
  4 26  2  0
  4  9  1  0
  9 10  1  0
  1 27  1  0
  5 28  1  0
  7 29  1  6
  8 30  1  6
  9 31  1  0
  9 32  1  0
 10 33  1  0
 10 34  1  0
 10 35  1  0
 11 36  1  0
 13 37  1  1
 15 38  1  0
 46 39  1  0
 46 40  1  0
 19 41  1  1
 23 42  1  0
 23 43  1  0
 24 44  1  0
 25 45  1  0
M  END
