
     RDKit          3D

 32 34  0  0  0  0  0  0  0  0999 V2000
    3.3120   -0.0142    0.0547 C   0  0  0  0  0  0  0  0  0  0  0  0
    3.0538    1.3634    0.1837 C   0  0  0  0  0  0  0  0  0  0  0  0
    1.7639    1.8498    0.2267 C   0  0  0  0  0  0  0  0  0  0  0  0
    0.7192    0.9338    0.1282 C   0  0  0  0  0  0  0  0  0  0  0  0
    0.9930   -0.4389   -0.0045 C   0  0  0  0  0  0  0  0  0  0  0  0
    2.2792   -0.9426   -0.0399 C   0  0  0  0  0  0  0  0  0  0  0  0
    4.7022   -0.4863    0.0208 C   0  0  0  0  0  0  0  0  0  0  0  0
    5.0085   -1.6230    0.5997 N   0  0  0  0  0  0  0  0  0  0  0  0
    5.6132    0.2347   -0.5872 N   0  0  0  0  0  0  0  0  0  0  0  0
   -0.6313    1.1257    0.1302 N   0  0  0  0  0  0  0  0  0  0  0  0
   -0.2332   -1.0403   -0.0866 N   0  0  0  0  0  0  0  0  0  0  0  0
   -1.1739   -0.0697    0.0016 C   0  0  0  0  0  0  0  0  0  0  0  0
   -2.6067   -0.2911   -0.0414 C   0  0  0  0  0  0  0  0  0  0  0  0
   -3.1460   -1.5741   -0.1888 C   0  0  0  0  0  0  0  0  0  0  0  0
   -4.5090   -1.7785   -0.2300 C   0  0  0  0  0  0  0  0  0  0  0  0
   -5.3632   -0.6825   -0.1200 C   0  0  0  0  0  0  0  0  0  0  0  0
   -4.8582    0.5943    0.0266 C   0  0  0  0  0  0  0  0  0  0  0  0
   -3.4790    0.8132    0.0661 C   0  0  0  0  0  0  0  0  0  0  0  0
   -3.0504    2.0669    0.2029 O   0  0  0  0  0  0  0  0  0  0  0  0
    3.8769    2.0582    0.2831 H   0  0  0  0  0  0  0  0  0  0  0  0
    1.5721    2.9081    0.3382 H   0  0  0  0  0  0  0  0  0  0  0  0
    2.4659   -2.0012   -0.1654 H   0  0  0  0  0  0  0  0  0  0  0  0
    5.9379   -2.0136    0.5580 H   0  0  0  0  0  0  0  0  0  0  0  0
    4.3438   -2.0943    1.1913 H   0  0  0  0  0  0  0  0  0  0  0  0
    5.3536    1.0322   -1.1443 H   0  0  0  0  0  0  0  0  0  0  0  0
    6.5900   -0.0186   -0.5814 H   0  0  0  0  0  0  0  0  0  0  0  0
   -0.3944   -2.0310   -0.1779 H   0  0  0  0  0  0  0  0  0  0  0  0
   -2.4909   -2.4322   -0.2737 H   0  0  0  0  0  0  0  0  0  0  0  0
   -4.9058   -2.7773   -0.3467 H   0  0  0  0  0  0  0  0  0  0  0  0
   -6.4353   -0.8272   -0.1492 H   0  0  0  0  0  0  0  0  0  0  0  0
   -5.5249    1.4429    0.1111 H   0  0  0  0  0  0  0  0  0  0  0  0
   -2.0610    2.0732    0.2101 H   0  0  0  0  0  0  0  0  0  0  0  0
  1  2  2  0
  1  6  1  0
  1  7  1  0
  2  3  1  0
  2 20  1  0
  3  4  2  0
  3 21  1  0
  4  5  1  0
  4 10  1  0
  5  6  2  0
  5 11  1  0
  6 22  1  0
  7  8  1  0
  7  9  2  0
  8 23  1  0
  8 24  1  0
  9 25  1  0
  9 26  1  0
 10 12  2  0
 11 12  1  0
 11 27  1  0
 12 13  1  0
 13 14  2  0
 13 18  1  0
 14 15  1  0
 14 28  1  0
 15 16  2  0
 15 29  1  0
 16 17  1  0
 16 30  1  0
 17 18  2  0
 17 31  1  0
 18 19  1  0
 19 32  1  0
M  CHG  1   9   1
M  END
