
     RDKit          3D

 58 60  0  0  0  0  0  0  0  0999 V2000
   -0.1063    2.2112   -0.5333 C   0  0  0  0  0  0  0  0  0  0  0  0
   -2.2523    0.9709   -0.3985 C   0  0  0  0  0  0  0  0  0  0  0  0
   -3.7037    1.1312   -0.8388 C   0  0  0  0  0  0  0  0  0  0  0  0
   -4.5527   -3.2159    0.4894 C   0  0  0  0  0  0  0  0  0  0  0  0
   -6.7932   -2.4165   -0.3577 C   0  0  0  0  0  0  0  0  0  0  0  0
    4.1140    3.0974   -0.0678 C   0  0  0  0  0  0  0  0  0  0  0  0
    2.6588    2.7567   -0.1957 C   0  0  0  0  0  0  0  0  0  0  0  0
    1.7970    3.6645   -0.8063 C   0  0  0  0  0  0  0  0  0  0  0  0
    0.4498    3.4088   -0.9759 C   0  0  0  0  0  0  0  0  0  0  0  0
   -1.4754    2.0237   -0.7397 N   0  0  0  0  0  0  0  0  0  0  0  0
   -1.8725   -0.0234    0.1852 O   0  0  0  0  0  0  0  0  0  0  0  0
   -4.5059    0.0873   -0.2855 N   0  0  0  0  0  0  0  0  0  0  0  0
   -4.9339    0.1009    1.0483 C   0  0  0  0  0  0  0  0  0  0  0  0
   -4.7922    1.0429    1.7965 O   0  0  0  0  0  0  0  0  0  0  0  0
   -5.5090   -1.0890    1.2761 N   0  0  0  0  0  0  0  0  0  0  0  0
   -5.4181   -2.0030    0.1560 C   0  0  1  0  0  0  0  0  0  0  0  0
   -4.7042   -1.1296   -0.8665 C   0  0  0  0  0  0  0  0  0  0  0  0
   -4.3746   -1.4497   -1.9829 O   0  0  0  0  0  0  0  0  0  0  0  0
    0.7252    1.2803    0.0828 C   0  0  0  0  0  0  0  0  0  0  0  0
    2.0765    1.5623    0.2402 C   0  0  0  0  0  0  0  0  0  0  0  0
    3.0519    0.3133    1.0650 S   0  0  1  0  0  0  0  0  0  0  0  0
    3.7629    0.9169    2.1843 O   0  0  0  0  0  0  0  0  0  0  0  0
    2.1495   -0.7934    1.3599 O   0  0  0  0  0  0  0  0  0  0  0  0
    4.1529   -0.1151   -0.0588 N   0  0  0  0  0  0  0  0  0  0  0  0
    5.5854   -0.1258    0.2245 C   0  0  0  0  0  0  0  0  0  0  0  0
    6.1147   -1.4454    0.7576 C   0  0  0  0  0  0  0  0  0  0  0  0
    5.7860   -2.6639   -0.1024 C   0  0  0  0  0  0  0  0  0  0  0  0
    4.3009   -3.0367   -0.0959 C   0  0  0  0  0  0  0  0  0  0  0  0
    3.4231   -2.3079   -1.1114 C   0  0  0  0  0  0  0  0  0  0  0  0
    3.6870   -0.8066   -1.2541 C   0  0  0  0  0  0  0  0  0  0  0  0
   -4.0960    2.1025   -0.5351 H   0  0  0  0  0  0  0  0  0  0  0  0
   -3.7617    1.0871   -1.9279 H   0  0  0  0  0  0  0  0  0  0  0  0
   -4.4552   -3.8665   -0.3787 H   0  0  0  0  0  0  0  0  0  0  0  0
   -3.5564   -2.9143    0.8133 H   0  0  0  0  0  0  0  0  0  0  0  0
   -5.0154   -3.7908    1.2921 H   0  0  0  0  0  0  0  0  0  0  0  0
   -7.3174   -2.9916    0.4059 H   0  0  0  0  0  0  0  0  0  0  0  0
   -7.4015   -1.5481   -0.6107 H   0  0  0  0  0  0  0  0  0  0  0  0
   -6.6970   -3.0426   -1.2439 H   0  0  0  0  0  0  0  0  0  0  0  0
    4.7345    2.4346   -0.6720 H   0  0  0  0  0  0  0  0  0  0  0  0
    4.2909    4.1145   -0.4118 H   0  0  0  0  0  0  0  0  0  0  0  0
    4.4660    3.0262    0.9599 H   0  0  0  0  0  0  0  0  0  0  0  0
    2.1953    4.6053   -1.1644 H   0  0  0  0  0  0  0  0  0  0  0  0
   -0.1739    4.1505   -1.4608 H   0  0  0  0  0  0  0  0  0  0  0  0
   -1.9396    2.7862   -1.2118 H   0  0  0  0  0  0  0  0  0  0  0  0
   -5.8629   -1.3516    2.1822 H   0  0  0  0  0  0  0  0  0  0  0  0
    0.3304    0.3429    0.4353 H   0  0  0  0  0  0  0  0  0  0  0  0
    6.0775    0.1182   -0.7208 H   0  0  0  0  0  0  0  0  0  0  0  0
    5.8233    0.6822    0.9138 H   0  0  0  0  0  0  0  0  0  0  0  0
    7.1995   -1.3436    0.8522 H   0  0  0  0  0  0  0  0  0  0  0  0
    5.7316   -1.6082    1.7702 H   0  0  0  0  0  0  0  0  0  0  0  0
    6.1413   -2.5110   -1.1278 H   0  0  0  0  0  0  0  0  0  0  0  0
    6.3584   -3.5092    0.2866 H   0  0  0  0  0  0  0  0  0  0  0  0
    4.1939   -4.1084   -0.2795 H   0  0  0  0  0  0  0  0  0  0  0  0
    3.9079   -2.8701    0.9106 H   0  0  0  0  0  0  0  0  0  0  0  0
    3.5675   -2.7468   -2.1022 H   0  0  0  0  0  0  0  0  0  0  0  0
    2.3771   -2.4795   -0.8535 H   0  0  0  0  0  0  0  0  0  0  0  0
    2.7961   -0.3035   -1.6390 H   0  0  0  0  0  0  0  0  0  0  0  0
    4.4637   -0.6357   -2.0010 H   0  0  0  0  0  0  0  0  0  0  0  0
 18 17  2  0
 16  5  1  6
 17 16  1  0
 17 12  1  0
 16  4  1  0
 16 15  1  0
  3 12  1  0
  3  2  1  0
 12 13  1  0
 10  2  1  0
 10  1  1  0
  2 11  2  0
  9  1  2  0
  9  8  1  0
 15 13  1  0
  1 19  1  0
  8  7  2  0
 13 14  2  0
 19 20  2  0
  7 20  1  0
  7  6  1  0
 21 20  1  6
 23 21  2  0
 30 29  1  0
 30 24  1  0
 29 28  1  0
 21 24  1  0
 21 22  2  0
 24 25  1  0
 28 27  1  0
 25 26  1  0
 26 27  1  0
  3 31  1  0
  3 32  1  0
  4 33  1  0
  4 34  1  0
  4 35  1  0
  5 36  1  0
  5 37  1  0
  5 38  1  0
  6 39  1  0
  6 40  1  0
  6 41  1  0
  8 42  1  0
  9 43  1  0
 10 44  1  0
 15 45  1  0
 19 46  1  0
 25 47  1  0
 25 48  1  0
 26 49  1  0
 26 50  1  0
 27 51  1  0
 27 52  1  0
 28 53  1  0
 28 54  1  0
 29 55  1  0
 29 56  1  0
 30 57  1  0
 30 58  1  0
M  END
