
     RDKit          3D

 35 38  0  0  0  0  0  0  0  0999 V2000
    2.7197    1.3162   -0.5256 C   0  0  0  0  0  0  0  0  0  0  0  0
    3.3031    0.1084   -0.2043 C   0  0  0  0  0  0  0  0  0  0  0  0
    2.5517   -1.0137    0.0740 C   0  0  0  0  0  0  0  0  0  0  0  0
    1.1466   -0.8600   -0.0128 C   0  0  0  0  0  0  0  0  0  0  0  0
    0.5680    0.3823   -0.3275 C   0  0  0  0  0  0  0  0  0  0  0  0
    1.3554    1.5003   -0.5938 C   0  0  0  0  0  0  0  0  0  0  0  0
   -0.8981    0.4493   -0.2974 C   0  0  0  0  0  0  0  0  0  0  0  0
   -1.5776    1.4993    0.1604 C   0  0  0  0  0  0  0  0  0  0  0  0
   -3.0671    1.5013    0.3389 C   0  0  1  0  0  0  0  0  0  0  0  0
    4.6566    0.2221   -0.2459 O   0  0  0  0  0  0  0  0  0  0  0  0
   -3.5549    0.0694    0.5311 C   0  0  2  0  0  0  0  0  0  0  0  0
   -3.0897   -0.7951   -0.6312 C   0  0  2  0  0  0  0  0  0  0  0  0
   -1.5642   -0.8262   -0.7265 C   0  0  2  0  0  0  0  0  0  0  0  0
    0.3020   -2.0231    0.3035 C   0  0  0  0  0  0  0  0  0  0  0  0
   -3.5562   -0.3005   -1.8629 O   0  0  0  0  0  0  0  0  0  0  0  0
   -4.9571   -0.0116    0.5838 O   0  0  0  0  0  0  0  0  0  0  0  0
   -3.4430    2.2307    1.4893 O   0  0  0  0  0  0  0  0  0  0  0  0
    3.1508   -2.1556    0.3985 O   0  0  0  0  0  0  0  0  0  0  0  0
    4.9105    1.6139   -0.3562 C   0  0  0  0  0  0  0  0  0  0  0  0
   -1.0142   -1.9050    0.0808 N   0  0  0  0  0  0  0  0  0  0  0  0
    3.6880    2.2219   -0.7676 O   0  0  0  0  0  0  0  0  0  0  0  0
    0.9203    2.4537   -0.8589 H   0  0  0  0  0  0  0  0  0  0  0  0
   -1.0459    2.3952    0.4657 H   0  0  0  0  0  0  0  0  0  0  0  0
   -3.5470    1.9254   -0.5533 H   0  0  0  0  0  0  0  0  0  0  0  0
   -3.0980   -0.3230    1.4529 H   0  0  0  0  0  0  0  0  0  0  0  0
   -3.4486   -1.8226   -0.4674 H   0  0  0  0  0  0  0  0  0  0  0  0
   -1.3145   -1.0131   -1.7801 H   0  0  0  0  0  0  0  0  0  0  0  0
   -4.5119   -0.1944   -1.8018 H   0  0  0  0  0  0  0  0  0  0  0  0
   -5.2717    0.6275    1.2324 H   0  0  0  0  0  0  0  0  0  0  0  0
   -3.4675    3.1661    1.2663 H   0  0  0  0  0  0  0  0  0  0  0  0
    2.4270   -2.7900    0.6305 H   0  0  0  0  0  0  0  0  0  0  0  0
    5.2104    2.0215    0.6153 H   0  0  0  0  0  0  0  0  0  0  0  0
    5.6803    1.7936   -1.1050 H   0  0  0  0  0  0  0  0  0  0  0  0
   -1.5622   -2.7493    0.1780 H   0  0  0  0  0  0  0  0  0  0  0  0
    0.7911   -3.0678    0.7603 O   0  0  0  0  0  0  0  0  0  0  0  0
 35 14  2  0
 18  3  1  0
 17  9  1  0
 14 20  1  0
 14  4  1  0
  3  4  2  0
  3  2  1  0
 20 13  1  0
  4  5  1  0
  2 10  1  0
  2  1  2  0
 12 15  1  0
 12 13  1  0
 12 11  1  0
 10 19  1  0
  5  7  1  0
  5  6  2  0
  8  7  2  0
  8  9  1  0
  1  6  1  0
  1 21  1  0
  7 13  1  0
  9 11  1  0
 19 21  1  0
 11 16  1  0
  6 22  1  0
  8 23  1  0
  9 24  1  6
 11 25  1  1
 12 26  1  1
 13 27  1  6
 15 28  1  0
 16 29  1  0
 17 30  1  0
 18 31  1  0
 19 32  1  0
 19 33  1  0
 20 34  1  0
M  END
