
     RDKit          3D

 61 65  0  0  0  0  0  0  0  0999 V2000
   -2.9986   -2.2987   -0.7480 C   0  0  0  0  0  0  0  0  0  0  0  0
   -2.1847   -1.1816   -0.3762 C   0  0  0  0  0  0  0  0  0  0  0  0
   -1.0284   -1.3872    0.3237 C   0  0  0  0  0  0  0  0  0  0  0  0
   -2.6413   -3.5624   -0.3559 C   0  0  0  0  0  0  0  0  0  0  0  0
   -1.4569   -3.7802    0.3831 C   0  0  0  0  0  0  0  0  0  0  0  0
   -0.6134   -2.6932    0.6709 C   0  0  0  0  0  0  0  0  0  0  0  0
    0.5916   -3.0012    1.3794 C   0  0  0  0  0  0  0  0  0  0  0  0
    0.7790   -4.2139    1.8678 N   0  0  0  0  0  0  0  0  0  0  0  0
   -0.1289   -5.1532    1.5803 C   0  0  0  0  0  0  0  0  0  0  0  0
   -1.1915   -5.0324    0.8343 N   0  0  0  0  0  0  0  0  0  0  0  0
   -4.0908   -1.9856   -1.4478 O   0  0  0  0  0  0  0  0  0  0  0  0
   -2.6579    0.0156   -0.7548 O   0  0  0  0  0  0  0  0  0  0  0  0
   -4.9540   -3.0338   -1.8508 C   0  0  0  0  0  0  0  0  0  0  0  0
    1.5414   -2.0512    1.6122 N   0  0  0  0  0  0  0  0  0  0  0  0
    2.5249   -2.2509    2.6650 C   0  0  0  0  0  0  0  0  0  0  0  0
    2.8987   -0.8993    3.2594 C   0  0  0  0  0  0  0  0  0  0  0  0
    3.3821    0.0821    2.1989 C   0  0  0  0  0  0  0  0  0  0  0  0
    2.3672    0.1937    1.0573 C   0  0  2  0  0  0  0  0  0  0  0  0
    2.0435   -1.2075    0.5356 C   0  0  0  0  0  0  0  0  0  0  0  0
    2.8294    1.0957   -0.0562 C   0  0  0  0  0  0  0  0  0  0  0  0
    4.0094    0.8364   -0.7542 C   0  0  0  0  0  0  0  0  0  0  0  0
    4.4238    1.6659   -1.7867 C   0  0  0  0  0  0  0  0  0  0  0  0
    3.6651    2.7747   -2.1404 C   0  0  0  0  0  0  0  0  0  0  0  0
    2.4901    3.0442   -1.4536 C   0  0  0  0  0  0  0  0  0  0  0  0
    2.0781    2.2101   -0.4221 C   0  0  0  0  0  0  0  0  0  0  0  0
   -1.8563    1.1563   -0.5029 C   0  0  0  0  0  0  0  0  0  0  0  0
   -2.5564    2.3650   -1.0972 C   0  0  0  0  0  0  0  0  0  0  0  0
   -1.7565    3.6115   -0.8401 C   0  0  0  0  0  0  0  0  0  0  0  0
   -1.6292    3.9869    0.4319 N   0  0  0  0  0  0  0  0  0  0  0  0
   -0.9176    5.0724    0.7062 C   0  0  0  0  0  0  0  0  0  0  0  0
   -0.3000    5.8479   -0.2642 C   0  0  0  0  0  0  0  0  0  0  0  0
   -0.4322    5.4603   -1.5882 C   0  0  0  0  0  0  0  0  0  0  0  0
   -1.1660    4.3209   -1.8810 C   0  0  0  0  0  0  0  0  0  0  0  0
   -0.4459   -0.5426    0.6612 H   0  0  0  0  0  0  0  0  0  0  0  0
   -3.2575   -4.4225   -0.5803 H   0  0  0  0  0  0  0  0  0  0  0  0
    0.0656   -6.1344    2.0023 H   0  0  0  0  0  0  0  0  0  0  0  0
   -4.4425   -3.7522   -2.4957 H   0  0  0  0  0  0  0  0  0  0  0  0
   -5.3737   -3.5634   -0.9925 H   0  0  0  0  0  0  0  0  0  0  0  0
   -5.7611   -2.5687   -2.4101 H   0  0  0  0  0  0  0  0  0  0  0  0
    2.1037   -2.8942    3.4342 H   0  0  0  0  0  0  0  0  0  0  0  0
    3.4174   -2.7567    2.2726 H   0  0  0  0  0  0  0  0  0  0  0  0
    2.0239   -0.4865    3.7700 H   0  0  0  0  0  0  0  0  0  0  0  0
    3.6705   -1.0458    4.0177 H   0  0  0  0  0  0  0  0  0  0  0  0
    3.5546    1.0655    2.6415 H   0  0  0  0  0  0  0  0  0  0  0  0
    4.3449   -0.2554    1.8007 H   0  0  0  0  0  0  0  0  0  0  0  0
    1.4402    0.6095    1.4713 H   0  0  0  0  0  0  0  0  0  0  0  0
    2.9536   -1.6667    0.1243 H   0  0  0  0  0  0  0  0  0  0  0  0
    1.3312   -1.1618   -0.2845 H   0  0  0  0  0  0  0  0  0  0  0  0
    4.6191   -0.0196   -0.4891 H   0  0  0  0  0  0  0  0  0  0  0  0
    5.3433    1.4463   -2.3140 H   0  0  0  0  0  0  0  0  0  0  0  0
    3.9895    3.4233   -2.9439 H   0  0  0  0  0  0  0  0  0  0  0  0
    1.8895    3.9040   -1.7197 H   0  0  0  0  0  0  0  0  0  0  0  0
    1.1592    2.4362    0.1085 H   0  0  0  0  0  0  0  0  0  0  0  0
   -1.7156    1.2971    0.5744 H   0  0  0  0  0  0  0  0  0  0  0  0
   -0.8672    1.0274   -0.9599 H   0  0  0  0  0  0  0  0  0  0  0  0
   -2.6942    2.2238   -2.1703 H   0  0  0  0  0  0  0  0  0  0  0  0
   -3.5463    2.4691   -0.6457 H   0  0  0  0  0  0  0  0  0  0  0  0
   -0.8367    5.3436    1.7532 H   0  0  0  0  0  0  0  0  0  0  0  0
    0.2641    6.7269    0.0147 H   0  0  0  0  0  0  0  0  0  0  0  0
    0.0313    6.0328   -2.3813 H   0  0  0  0  0  0  0  0  0  0  0  0
   -1.2840    3.9858   -2.9030 H   0  0  0  0  0  0  0  0  0  0  0  0
  2  1  2  0
 11  1  1  0
  1  4  1  0
 12  2  1  0
  2  3  1  0
  3  6  2  0
  3 34  1  0
  4  5  2  0
  4 35  1  0
  6  5  1  0
  5 10  1  0
  6  7  1  0
 14  7  1  0
  7  8  2  0
  8  9  1  0
 10  9  2  0
  9 36  1  0
 11 13  1  0
 26 12  1  0
 13 37  1  0
 13 38  1  0
 13 39  1  0
 19 14  1  0
 14 15  1  0
 16 15  1  0
 15 40  1  0
 15 41  1  0
 17 16  1  0
 16 42  1  0
 16 43  1  0
 18 17  1  0
 17 44  1  0
 17 45  1  0
 20 18  1  0
 18 19  1  0
 18 46  1  1
 19 47  1  0
 19 48  1  0
 21 20  2  0
 20 25  1  0
 22 21  1  0
 21 49  1  0
 22 23  2  0
 22 50  1  0
 23 24  1  0
 23 51  1  0
 24 25  2  0
 24 52  1  0
 25 53  1  0
 27 26  1  0
 26 54  1  0
 26 55  1  0
 28 27  1  0
 27 56  1  0
 27 57  1  0
 33 28  1  0
 29 28  2  0
 30 29  1  0
 31 30  2  0
 30 58  1  0
 31 32  1  0
 31 59  1  0
 32 33  2  0
 32 60  1  0
 33 61  1  0
M  END
