
     RDKit          3D

 48 49  0  0  0  0  0  0  0  0999 V2000
    7.0987   -0.0313    0.0143 C   0  0  0  0  0  0  0  0  0  0  0  0
    5.8455   -0.6343    0.0552 C   0  0  0  0  0  0  0  0  0  0  0  0
    4.6965    0.1325   -0.1003 C   0  0  0  0  0  0  0  0  0  0  0  0
    4.8131    1.5114   -0.2912 C   0  0  0  0  0  0  0  0  0  0  0  0
    6.0607    2.1061   -0.3334 C   0  0  0  0  0  0  0  0  0  0  0  0
    7.2096    1.3409   -0.1875 C   0  0  0  0  0  0  0  0  0  0  0  0
    3.4040   -0.5444   -0.0642 C   0  0  0  0  0  0  0  0  0  0  0  0
    2.3225    0.1196   -0.1080 N   0  0  0  0  0  0  0  0  0  0  0  0
    8.3093   -0.8495    0.1995 C   0  0  0  0  0  0  0  0  0  0  0  0
    8.2981   -1.8048    1.0952 N   0  0  0  0  0  0  0  0  0  0  0  0
    9.3678   -0.5992   -0.5292 N   0  0  0  0  0  0  0  0  0  0  0  0
    1.1649   -0.5642   -0.0827 N   0  0  0  0  0  0  0  0  0  0  0  0
    0.0189    0.1245   -0.0741 C   0  0  0  0  0  0  0  0  0  0  0  0
    0.0144    1.4339   -0.0615 N   0  0  0  0  0  0  0  0  0  0  0  0
   -1.1224   -0.5727   -0.0791 N   0  0  0  0  0  0  0  0  0  0  0  0
   -2.2822    0.1050   -0.0238 N   0  0  0  0  0  0  0  0  0  0  0  0
   -3.3638   -0.5592   -0.0573 C   0  0  0  0  0  0  0  0  0  0  0  0
   -4.6539    0.1196    0.0202 C   0  0  0  0  0  0  0  0  0  0  0  0
   -4.7597    1.4979    0.2223 C   0  0  0  0  0  0  0  0  0  0  0  0
   -6.0029    2.0959    0.3135 C   0  0  0  0  0  0  0  0  0  0  0  0
   -7.1583    1.3340    0.2086 C   0  0  0  0  0  0  0  0  0  0  0  0
   -7.0588   -0.0371   -0.0052 C   0  0  0  0  0  0  0  0  0  0  0  0
   -5.8099   -0.6434   -0.0986 C   0  0  0  0  0  0  0  0  0  0  0  0
   -8.2798   -0.8496   -0.1429 C   0  0  0  0  0  0  0  0  0  0  0  0
   -9.2991   -0.6070    0.6421 N   0  0  0  0  0  0  0  0  0  0  0  0
   -8.3162   -1.7921   -1.0512 N   0  0  0  0  0  0  0  0  0  0  0  0
    5.7559   -1.7062    0.1856 H   0  0  0  0  0  0  0  0  0  0  0  0
    3.9251    2.1172   -0.4120 H   0  0  0  0  0  0  0  0  0  0  0  0
    6.1450    3.1742   -0.4769 H   0  0  0  0  0  0  0  0  0  0  0  0
    8.1787    1.8222   -0.2066 H   0  0  0  0  0  0  0  0  0  0  0  0
    3.4153   -1.6331    0.0015 H   0  0  0  0  0  0  0  0  0  0  0  0
    9.0843   -2.4226    1.2316 H   0  0  0  0  0  0  0  0  0  0  0  0
    7.5246   -1.9057    1.7326 H   0  0  0  0  0  0  0  0  0  0  0  0
    9.3231    0.0452   -1.3019 H   0  0  0  0  0  0  0  0  0  0  0  0
   10.2376   -1.0946   -0.3993 H   0  0  0  0  0  0  0  0  0  0  0  0
    1.1518   -1.5786   -0.0583 H   0  0  0  0  0  0  0  0  0  0  0  0
   -0.8578    1.9382   -0.0639 H   0  0  0  0  0  0  0  0  0  0  0  0
    0.8833    1.9437   -0.0423 H   0  0  0  0  0  0  0  0  0  0  0  0
   -1.1032   -1.5874   -0.1135 H   0  0  0  0  0  0  0  0  0  0  0  0
   -3.3774   -1.6467   -0.1392 H   0  0  0  0  0  0  0  0  0  0  0  0
   -3.8663    2.1007    0.3146 H   0  0  0  0  0  0  0  0  0  0  0  0
   -6.0787    3.1634    0.4654 H   0  0  0  0  0  0  0  0  0  0  0  0
   -8.1249    1.8170    0.2697 H   0  0  0  0  0  0  0  0  0  0  0  0
   -5.7282   -1.7148   -0.2387 H   0  0  0  0  0  0  0  0  0  0  0  0
  -10.1774   -1.0950    0.5480 H   0  0  0  0  0  0  0  0  0  0  0  0
   -9.2136    0.0305    1.4171 H   0  0  0  0  0  0  0  0  0  0  0  0
   -7.5773   -1.8842   -1.7295 H   0  0  0  0  0  0  0  0  0  0  0  0
   -9.1127   -2.4022   -1.1602 H   0  0  0  0  0  0  0  0  0  0  0  0
  1  2  2  0
  1  6  1  0
  1  9  1  0
  2  3  1  0
  2 27  1  0
  3  4  2  0
  3  7  1  0
  4  5  1  0
  4 28  1  0
  5  6  2  0
  5 29  1  0
  6 30  1  0
  7  8  2  0
  7 31  1  0
  8 12  1  0
  9 10  2  0
  9 11  1  0
 10 32  1  0
 10 33  1  0
 11 34  1  0
 11 35  1  0
 12 13  1  0
 12 36  1  0
 13 14  1  0
 13 15  2  0
 14 37  1  0
 14 38  1  0
 15 16  1  0
 15 39  1  0
 16 17  2  0
 17 18  1  0
 17 40  1  0
 18 19  2  0
 18 23  1  0
 19 20  1  0
 19 41  1  0
 20 21  2  0
 20 42  1  0
 21 22  1  0
 21 43  1  0
 22 23  2  0
 22 24  1  0
 23 44  1  0
 24 25  2  0
 24 26  1  0
 25 45  1  0
 25 46  1  0
 26 47  1  0
 26 48  1  0
M  CHG  3  10   1  15   1  25   1
M  END
