
     RDKit          3D

 22 22  0  0  0  0  0  0  0  0999 V2000
   -1.9599    0.6956   -1.0656 C   0  0  0  0  0  0  0  0  0  0  0  0
   -3.2089    1.1633   -0.6772 C   0  0  0  0  0  0  0  0  0  0  0  0
   -3.7779    0.7217    0.5096 C   0  0  0  0  0  0  0  0  0  0  0  0
   -3.0889   -0.1865    1.3034 C   0  0  0  0  0  0  0  0  0  0  0  0
   -1.8401   -0.6500    0.9126 C   0  0  0  0  0  0  0  0  0  0  0  0
   -1.2626   -0.2138   -0.2769 C   0  0  0  0  0  0  0  0  0  0  0  0
    0.1144   -0.6821   -0.6965 C   0  0  2  0  0  0  0  0  0  0  0  0
    0.3055   -2.0655   -0.5012 O   0  0  0  0  0  0  0  0  0  0  0  0
    1.1865    0.1536    0.0088 C   0  0  0  0  0  0  0  0  0  0  0  0
    2.5828   -0.2241   -0.4411 C   0  0  0  0  0  0  0  0  0  0  0  0
    3.8081    0.8257    0.3643 Cl  0  0  0  0  0  0  0  0  0  0  0  0
   -1.5246    1.0389   -1.9972 H   0  0  0  0  0  0  0  0  0  0  0  0
   -3.7390    1.8678   -1.3050 H   0  0  0  0  0  0  0  0  0  0  0  0
   -4.7530    1.0804    0.8122 H   0  0  0  0  0  0  0  0  0  0  0  0
   -3.5251   -0.5373    2.2299 H   0  0  0  0  0  0  0  0  0  0  0  0
   -1.3240   -1.3565    1.5527 H   0  0  0  0  0  0  0  0  0  0  0  0
    0.2113   -0.5244   -1.7754 H   0  0  0  0  0  0  0  0  0  0  0  0
    0.4141   -2.2419    0.4396 H   0  0  0  0  0  0  0  0  0  0  0  0
    1.0068    1.2082   -0.2084 H   0  0  0  0  0  0  0  0  0  0  0  0
    1.0962    0.0323    1.0929 H   0  0  0  0  0  0  0  0  0  0  0  0
    2.8373   -1.2489   -0.1844 H   0  0  0  0  0  0  0  0  0  0  0  0
    2.7092   -0.0865   -1.5135 H   0  0  0  0  0  0  0  0  0  0  0  0
  1  2  2  0
  1  6  1  0
  2  3  1  0
  3  4  2  0
  4  5  1  0
  5  6  2  0
  6  7  1  0
  7  8  1  0
  7  9  1  0
  9 10  1  0
 10 11  1  0
  1 12  1  0
  2 13  1  0
  3 14  1  0
  4 15  1  0
  5 16  1  0
  7 17  1  6
  8 18  1  0
  9 19  1  0
  9 20  1  0
 10 21  1  0
 10 22  1  0
M  END
