
     RDKit          3D

 54 56  0  0  0  0  0  0  0  0999 V2000
    2.3719   -1.4789    1.5208 N   0  0  0  0  0  0  0  0  0  0  0  0
    1.8745   -1.0003    2.7916 C   0  0  1  0  0  0  0  0  0  0  0  0
    2.9319   -0.5489    3.8339 C   0  0  1  0  0  0  0  0  0  0  0  0
    3.7520   -1.7537    4.2840 C   0  0  0  0  0  0  0  0  0  0  0  0
    3.8362    0.5676    3.3237 C   0  0  0  0  0  0  0  0  0  0  0  0
    0.9062    0.1330    2.5148 C   0  0  0  0  0  0  0  0  0  0  0  0
    1.0283    0.9179    1.5998 O   0  0  0  0  0  0  0  0  0  0  0  0
   -1.3732    1.3566    3.2318 S   0  0  1  0  0  0  0  0  0  0  0  0
   -2.3724    0.9065    4.1733 O   0  0  0  0  0  0  0  0  0  0  0  0
   -0.8082    2.6806    3.3201 O   0  0  0  0  0  0  0  0  0  0  0  0
   -0.1410    0.2186    3.3953 N   0  0  0  0  0  0  0  0  0  0  0  0
   -1.9576    1.1845    1.7188 N   0  0  0  0  0  0  0  0  0  0  0  0
   -2.4406   -0.1236    1.2955 C   0  0  0  0  0  0  0  0  0  0  0  0
   -3.0025   -0.0091   -0.1130 C   0  0  1  0  0  0  0  0  0  0  0  0
   -2.0227    0.5600   -0.9854 O   0  0  0  0  0  0  0  0  0  0  0  0
   -1.5816   -0.3921   -1.9233 C   0  0  1  0  0  0  0  0  0  0  0  0
   -0.1699   -0.2563   -2.1428 N   0  0  0  0  0  0  0  0  0  0  0  0
    0.4042    0.3815   -3.2097 C   0  0  0  0  0  0  0  0  0  0  0  0
   -0.1968    0.9288   -4.2624 N   0  0  0  0  0  0  0  0  0  0  0  0
    0.6764    1.4487   -5.1081 C   0  0  0  0  0  0  0  0  0  0  0  0
    2.0028    1.4757   -5.0138 N   0  0  0  0  0  0  0  0  0  0  0  0
    2.5915    0.9229   -3.9468 C   0  0  0  0  0  0  0  0  0  0  0  0
    3.9207    0.9543   -3.8436 N   0  0  0  0  0  0  0  0  0  0  0  0
    1.7664    0.3352   -2.9708 C   0  0  0  0  0  0  0  0  0  0  0  0
    2.0318   -0.3040   -1.7860 N   0  0  0  0  0  0  0  0  0  0  0  0
    0.8647   -0.6335   -1.3238 C   0  0  0  0  0  0  0  0  0  0  0  0
   -2.0138   -1.7455   -1.3661 C   0  0  2  0  0  0  0  0  0  0  0  0
   -2.1090   -2.6747   -2.4007 O   0  0  0  0  0  0  0  0  0  0  0  0
   -3.3426   -1.3739   -0.6987 C   0  0  2  0  0  0  0  0  0  0  0  0
   -4.3581   -1.2122   -1.6509 O   0  0  0  0  0  0  0  0  0  0  0  0
    3.0332   -2.2305    1.6642 H   0  0  0  0  0  0  0  0  0  0  0  0
    2.8549   -0.7485    1.0133 H   0  0  0  0  0  0  0  0  0  0  0  0
    1.3097   -1.8184    3.2524 H   0  0  0  0  0  0  0  0  0  0  0  0
    2.3849   -0.1777    4.7078 H   0  0  0  0  0  0  0  0  0  0  0  0
    4.4703   -1.4646    5.0516 H   0  0  0  0  0  0  0  0  0  0  0  0
    3.1160   -2.5359    4.7020 H   0  0  0  0  0  0  0  0  0  0  0  0
    4.3204   -2.1883    3.4590 H   0  0  0  0  0  0  0  0  0  0  0  0
    4.3611    0.2734    2.4130 H   0  0  0  0  0  0  0  0  0  0  0  0
    3.2906    1.4877    3.1152 H   0  0  0  0  0  0  0  0  0  0  0  0
    4.5955    0.8025    4.0701 H   0  0  0  0  0  0  0  0  0  0  0  0
   -0.2751   -0.4872    4.1093 H   0  0  0  0  0  0  0  0  0  0  0  0
   -1.3546    1.6358    1.0365 H   0  0  0  0  0  0  0  0  0  0  0  0
   -1.6487   -0.8824    1.3332 H   0  0  0  0  0  0  0  0  0  0  0  0
   -3.2404   -0.4469    1.9612 H   0  0  0  0  0  0  0  0  0  0  0  0
   -3.8779    0.6458   -0.0978 H   0  0  0  0  0  0  0  0  0  0  0  0
   -2.0551   -0.2190   -2.8946 H   0  0  0  0  0  0  0  0  0  0  0  0
    0.2623    1.9148   -5.9957 H   0  0  0  0  0  0  0  0  0  0  0  0
    4.4789    1.3412   -4.5849 H   0  0  0  0  0  0  0  0  0  0  0  0
    4.3913    0.5147   -3.0724 H   0  0  0  0  0  0  0  0  0  0  0  0
    0.7147   -1.1580   -0.3920 H   0  0  0  0  0  0  0  0  0  0  0  0
   -1.3178   -2.0778   -0.5853 H   0  0  0  0  0  0  0  0  0  0  0  0
   -2.0961   -3.5616   -2.0267 H   0  0  0  0  0  0  0  0  0  0  0  0
   -3.6216   -2.0941    0.0815 H   0  0  0  0  0  0  0  0  0  0  0  0
   -4.3539   -1.9859   -2.2267 H   0  0  0  0  0  0  0  0  0  0  0  0
  1  2  1  0
  1 31  1  0
  1 32  1  0
  2  3  1  0
  2  6  1  0
  2 33  1  1
  3  4  1  0
  3  5  1  0
  3 34  1  1
  4 35  1  0
  4 36  1  0
  4 37  1  0
  5 38  1  0
  5 39  1  0
  5 40  1  0
  6  7  2  0
  6 11  1  0
  8  9  2  0
  8 10  2  0
  8 11  1  6
  8 12  1  0
 11 41  1  0
 12 13  1  0
 12 42  1  0
 13 14  1  0
 13 43  1  0
 13 44  1  0
 14 15  1  0
 14 29  1  0
 14 45  1  1
 15 16  1  0
 16 17  1  0
 16 27  1  0
 16 46  1  6
 17 18  1  0
 17 26  1  0
 18 19  2  0
 18 24  1  0
 19 20  1  0
 20 21  2  0
 20 47  1  0
 21 22  1  0
 22 23  1  0
 22 24  2  0
 23 48  1  0
 23 49  1  0
 24 25  1  0
 25 26  2  0
 26 50  1  0
 27 28  1  0
 27 29  1  0
 27 51  1  1
 28 52  1  0
 29 30  1  0
 29 53  1  1
 30 54  1  0
M  END
