
     RDKit          3D

 66 69  0  0  0  0  0  0  0  0999 V2000
    0.4514    1.5931   -1.5199 N   0  0  0  0  0  0  0  0  0  0  0  0
   -0.9317    1.1725   -1.6982 C   0  0  2  0  0  0  0  0  0  0  0  0
   -1.6847    2.1494   -2.5923 C   0  0  0  0  0  0  0  0  0  0  0  0
   -1.6359    1.0164   -0.3502 C   0  0  0  0  0  0  0  0  0  0  0  0
   -0.6534   -0.2540   -2.3594 C   0  0  2  0  0  0  0  0  0  0  0  0
   -0.5415   -0.1701   -3.8847 C   0  0  0  0  0  0  0  0  0  0  0  0
   -1.6748   -1.2867   -1.9333 C   0  0  0  0  0  0  0  0  0  0  0  0
    0.6737   -0.6132   -1.8618 N   0  0  0  0  0  0  0  0  0  0  0  0
    1.2171    0.4568   -1.4342 C   0  0  0  0  0  0  0  0  0  0  0  0
    2.5886    0.5530   -0.9034 C   0  0  0  0  0  0  0  0  0  0  0  0
   -0.9284    0.8846    0.8404 C   0  0  0  0  0  0  0  0  0  0  0  0
   -1.5711    0.6621    2.0506 C   0  0  0  0  0  0  0  0  0  0  0  0
   -2.9501    0.5707    2.0767 C   0  0  0  0  0  0  0  0  0  0  0  0
   -3.7669    0.2828    3.5800 Cl  0  0  0  0  0  0  0  0  0  0  0  0
   -3.6880    0.7128    0.9130 C   0  0  0  0  0  0  0  0  0  0  0  0
   -3.0273    0.9362   -0.2826 C   0  0  0  0  0  0  0  0  0  0  0  0
   -2.8891   -1.4370   -2.5948 C   0  0  0  0  0  0  0  0  0  0  0  0
   -3.8554   -2.3237   -2.1395 C   0  0  0  0  0  0  0  0  0  0  0  0
   -3.5983   -3.0768   -1.0077 C   0  0  0  0  0  0  0  0  0  0  0  0
   -4.7996   -4.1868   -0.4250 Cl  0  0  0  0  0  0  0  0  0  0  0  0
   -2.3917   -2.9608   -0.3363 C   0  0  0  0  0  0  0  0  0  0  0  0
   -1.4407   -2.0707   -0.8062 C   0  0  0  0  0  0  0  0  0  0  0  0
    3.4817    1.4688   -1.4361 C   0  0  0  0  0  0  0  0  0  0  0  0
    4.7792    1.5819   -0.9537 C   0  0  0  0  0  0  0  0  0  0  0  0
    5.2093    0.7854    0.1012 C   0  0  0  0  0  0  0  0  0  0  0  0
    6.6198    0.8642    0.6763 C   0  0  1  0  0  0  0  0  0  0  0  0
    7.2811   -0.5186    0.5930 C   0  0  0  0  0  0  0  0  0  0  0  0
    7.4987    1.8569   -0.0848 C   0  0  0  0  0  0  0  0  0  0  0  0
    4.3024   -0.1214    0.6570 C   0  0  0  0  0  0  0  0  0  0  0  0
    3.0089   -0.2534    0.1670 C   0  0  0  0  0  0  0  0  0  0  0  0
    2.0995   -1.0996    0.6730 O   0  0  0  0  0  0  0  0  0  0  0  0
    2.3721   -1.7894    1.8841 C   0  0  0  0  0  0  0  0  0  0  0  0
    1.1387   -2.5812    2.2491 C   0  0  0  0  0  0  0  0  0  0  0  0
    6.5433    1.3080    2.1433 C   0  0  0  0  0  0  0  0  0  0  0  0
    0.6498    2.3675   -0.9030 H   0  0  0  0  0  0  0  0  0  0  0  0
   -1.8637    3.0860   -2.0627 H   0  0  0  0  0  0  0  0  0  0  0  0
   -1.1123    2.3771   -3.4888 H   0  0  0  0  0  0  0  0  0  0  0  0
   -2.6528    1.7602   -2.9041 H   0  0  0  0  0  0  0  0  0  0  0  0
    0.2185    0.5547   -4.1766 H   0  0  0  0  0  0  0  0  0  0  0  0
   -0.2497   -1.1435   -4.2795 H   0  0  0  0  0  0  0  0  0  0  0  0
   -1.4722    0.1197   -4.3699 H   0  0  0  0  0  0  0  0  0  0  0  0
    0.1500    0.9453    0.8612 H   0  0  0  0  0  0  0  0  0  0  0  0
   -0.9915    0.5598    2.9583 H   0  0  0  0  0  0  0  0  0  0  0  0
   -4.7674    0.6480    0.9316 H   0  0  0  0  0  0  0  0  0  0  0  0
   -3.6292    1.0291   -1.1754 H   0  0  0  0  0  0  0  0  0  0  0  0
   -3.1169   -0.8554   -3.4786 H   0  0  0  0  0  0  0  0  0  0  0  0
   -4.7958   -2.4181   -2.6655 H   0  0  0  0  0  0  0  0  0  0  0  0
   -2.1934   -3.5540    0.5463 H   0  0  0  0  0  0  0  0  0  0  0  0
   -0.5018   -1.9748   -0.2775 H   0  0  0  0  0  0  0  0  0  0  0  0
    3.1659    2.0982   -2.2591 H   0  0  0  0  0  0  0  0  0  0  0  0
    5.4401    2.2990   -1.4177 H   0  0  0  0  0  0  0  0  0  0  0  0
    7.3508   -0.8584   -0.4421 H   0  0  0  0  0  0  0  0  0  0  0  0
    8.2930   -0.4756    1.0006 H   0  0  0  0  0  0  0  0  0  0  0  0
    6.7330   -1.2744    1.1566 H   0  0  0  0  0  0  0  0  0  0  0  0
    7.1076    2.8748   -0.0401 H   0  0  0  0  0  0  0  0  0  0  0  0
    8.4965    1.8732    0.3556 H   0  0  0  0  0  0  0  0  0  0  0  0
    7.6099    1.5805   -1.1352 H   0  0  0  0  0  0  0  0  0  0  0  0
    4.6210   -0.7334    1.4905 H   0  0  0  0  0  0  0  0  0  0  0  0
    3.2298   -2.4590    1.7605 H   0  0  0  0  0  0  0  0  0  0  0  0
    2.6206   -1.0742    2.6757 H   0  0  0  0  0  0  0  0  0  0  0  0
    0.2670   -1.9336    2.3466 H   0  0  0  0  0  0  0  0  0  0  0  0
    0.9213   -3.3439    1.5009 H   0  0  0  0  0  0  0  0  0  0  0  0
    1.2964   -3.0833    3.2030 H   0  0  0  0  0  0  0  0  0  0  0  0
    5.9582    0.6178    2.7527 H   0  0  0  0  0  0  0  0  0  0  0  0
    7.5458    1.3587    2.5732 H   0  0  0  0  0  0  0  0  0  0  0  0
    6.0918    2.2977    2.2324 H   0  0  0  0  0  0  0  0  0  0  0  0
  2  3  1  6
 16 15  2  0
 16  4  1  0
 15 13  1  0
 18 17  2  0
 18 19  1  0
 17  7  1  0
  5  6  1  6
  2  4  1  0
  2  5  1  0
  2  1  1  0
  4 11  2  0
 20 19  1  0
 19 21  2  0
 13 14  1  0
 13 12  2  0
  7  5  1  0
  7 22  2  0
  5  8  1  0
  1  9  1  0
 11 12  1  0
 21 22  1  0
  8  9  2  0
  9 10  1  0
 33 32  1  0
 31 32  1  0
 31 30  1  0
 10 30  1  0
 10 23  2  0
 30 29  2  0
 23 24  1  0
 29 25  1  0
 24 25  2  0
 25 26  1  0
 26 34  1  1
 26 28  1  0
 26 27  1  0
  1 35  1  0
  3 36  1  0
  3 37  1  0
  3 38  1  0
  6 39  1  0
  6 40  1  0
  6 41  1  0
 11 42  1  0
 12 43  1  0
 15 44  1  0
 16 45  1  0
 17 46  1  0
 18 47  1  0
 21 48  1  0
 22 49  1  0
 23 50  1  0
 24 51  1  0
 27 52  1  0
 27 53  1  0
 27 54  1  0
 28 55  1  0
 28 56  1  0
 28 57  1  0
 29 58  1  0
 32 59  1  0
 32 60  1  0
 33 61  1  0
 33 62  1  0
 33 63  1  0
 34 64  1  0
 34 65  1  0
 34 66  1  0
M  END
