
     RDKit          3D

 17 17  0  0  0  0  0  0  0  0999 V2000
    0.6920    0.0155    0.0082 C   0  0  0  0  0  0  0  0  0  0  0  0
    0.0401    0.0165    1.2571 C   0  0  0  0  0  0  0  0  0  0  0  0
   -0.1090   -0.0045   -1.1208 C   0  0  0  0  0  0  0  0  0  0  0  0
    2.1898    0.0434   -0.0662 C   0  0  0  0  0  0  0  0  0  0  0  0
   -1.3589    0.0058    1.3105 C   0  0  0  0  0  0  0  0  0  0  0  0
    0.7806    0.0864    2.4161 N   0  0  0  0  0  0  0  0  0  0  0  0
   -1.4913   -0.0137   -1.0958 C   0  0  0  0  0  0  0  0  0  0  0  0
    0.4927   -0.0125   -2.3272 F   0  0  0  0  0  0  0  0  0  0  0  0
   -2.1079   -0.0058    0.1470 C   0  0  0  0  0  0  0  0  0  0  0  0
    2.6294   -0.8829    0.3135 H   0  0  0  0  0  0  0  0  0  0  0  0
    2.5505    0.1755   -1.0828 H   0  0  0  0  0  0  0  0  0  0  0  0
    2.5952    0.8604    0.5340 H   0  0  0  0  0  0  0  0  0  0  0  0
   -1.8549    0.0062    2.2737 H   0  0  0  0  0  0  0  0  0  0  0  0
    0.2907   -0.1694    3.2583 H   0  0  0  0  0  0  0  0  0  0  0  0
    1.7038   -0.3151    2.3892 H   0  0  0  0  0  0  0  0  0  0  0  0
   -2.0612   -0.0282   -2.0148 H   0  0  0  0  0  0  0  0  0  0  0  0
   -3.1883   -0.0145    0.2083 H   0  0  0  0  0  0  0  0  0  0  0  0
  1  2  2  0
  1  3  1  0
  1  4  1  0
  2  5  1  0
  2  6  1  0
  3  7  2  0
  3  8  1  0
  4 10  1  0
  4 11  1  0
  4 12  1  0
  5  9  2  0
  5 13  1  0
  6 14  1  0
  6 15  1  0
  7  9  1  0
  7 16  1  0
  9 17  1  0
M  END
