
     RDKit          3D

 53 52  0  0  0  0  0  0  0  0999 V2000
    0.7769    0.0084   -6.4822 C   0  0  0  0  0  0  0  0  0  0  0  0
   -0.1660    0.0100   -5.2843 C   0  0  0  0  0  0  0  0  0  0  0  0
    0.6394   -0.0030   -3.9893 C   0  0  0  0  0  0  0  0  0  0  0  0
   -0.2472   -0.0011   -2.7506 C   0  0  0  0  0  0  0  0  0  0  0  0
    0.5576   -0.0146   -1.4571 C   0  0  0  0  0  0  0  0  0  0  0  0
   -0.3103   -0.0126   -0.2047 C   0  0  0  0  0  0  0  0  0  0  0  0
    0.5043   -0.0289    1.0828 C   0  0  0  0  0  0  0  0  0  0  0  0
   -0.3524   -0.0119    2.3427 C   0  0  0  0  0  0  0  0  0  0  0  0
    0.4698   -0.0281    3.6255 C   0  0  0  0  0  0  0  0  0  0  0  0
   -0.3808   -0.0121    4.8893 C   0  0  0  0  0  0  0  0  0  0  0  0
    0.4452   -0.0239    6.1697 C   0  0  0  0  0  0  0  0  0  0  0  0
   -0.4041   -0.0094    7.4347 C   0  0  0  0  0  0  0  0  0  0  0  0
    0.4212   -0.0195    8.7155 C   0  0  0  0  0  0  0  0  0  0  0  0
   -0.4302   -0.0040    9.9789 C   0  0  0  0  0  0  0  0  0  0  0  0
    0.3907   -0.0127   11.2630 C   0  0  0  0  0  0  0  0  0  0  0  0
   -0.4761    0.0026   12.5147 C   0  0  0  0  0  0  0  0  0  0  0  0
   -0.1343    0.0264   -8.0055 S   0  0  1  0  0  0  0  0  0  0  0  0
   -0.8356   -1.2139   -8.2172 O   0  0  0  0  0  0  0  0  0  0  0  0
   -0.8099    1.2827   -8.2054 O   0  0  0  0  0  0  0  0  0  0  0  0
    1.0975    0.0187   -9.0346 F   0  0  0  0  0  0  0  0  0  0  0  0
    1.4191    0.8903   -6.4921 H   0  0  0  0  0  0  0  0  0  0  0  0
    1.4009   -0.8863   -6.5030 H   0  0  0  0  0  0  0  0  0  0  0  0
   -0.8194   -0.8645   -5.3200 H   0  0  0  0  0  0  0  0  0  0  0  0
   -0.8041    0.8963   -5.3110 H   0  0  0  0  0  0  0  0  0  0  0  0
    1.3022    0.8679   -3.9648 H   0  0  0  0  0  0  0  0  0  0  0  0
    1.2874   -0.8851   -3.9733 H   0  0  0  0  0  0  0  0  0  0  0  0
   -0.9126   -0.8707   -2.7772 H   0  0  0  0  0  0  0  0  0  0  0  0
   -0.8959    0.8813   -2.7684 H   0  0  0  0  0  0  0  0  0  0  0  0
    1.2245    0.8545   -1.4365 H   0  0  0  0  0  0  0  0  0  0  0  0
    1.2086   -0.8960   -1.4451 H   0  0  0  0  0  0  0  0  0  0  0  0
   -0.9786   -0.8807   -0.2239 H   0  0  0  0  0  0  0  0  0  0  0  0
   -0.9596    0.8702   -0.2139 H   0  0  0  0  0  0  0  0  0  0  0  0
    1.1816    0.8327    1.0940 H   0  0  0  0  0  0  0  0  0  0  0  0
    1.1465   -0.9169    1.0937 H   0  0  0  0  0  0  0  0  0  0  0  0
   -1.0295   -0.8734    2.3334 H   0  0  0  0  0  0  0  0  0  0  0  0
   -0.9937    0.8769    2.3338 H   0  0  0  0  0  0  0  0  0  0  0  0
    1.1453    0.8349    3.6331 H   0  0  0  0  0  0  0  0  0  0  0  0
    1.1135   -0.9153    3.6325 H   0  0  0  0  0  0  0  0  0  0  0  0
   -1.0553   -0.8758    4.8842 H   0  0  0  0  0  0  0  0  0  0  0  0
   -1.0252    0.8743    4.8816 H   0  0  0  0  0  0  0  0  0  0  0  0
    1.1175    0.8416    6.1748 H   0  0  0  0  0  0  0  0  0  0  0  0
    1.0919   -0.9087    6.1766 H   0  0  0  0  0  0  0  0  0  0  0  0
   -1.0772   -0.8742    7.4299 H   0  0  0  0  0  0  0  0  0  0  0  0
   -1.0501    0.8760    7.4267 H   0  0  0  0  0  0  0  0  0  0  0  0
    1.0938    0.8459    8.7205 H   0  0  0  0  0  0  0  0  0  0  0  0
    1.0677   -0.9045    8.7242 H   0  0  0  0  0  0  0  0  0  0  0  0
   -1.1031   -0.8692    9.9742 H   0  0  0  0  0  0  0  0  0  0  0  0
   -1.0769    0.8810    9.9698 H   0  0  0  0  0  0  0  0  0  0  0  0
    1.0613    0.8524   11.2695 H   0  0  0  0  0  0  0  0  0  0  0  0
    1.0365   -0.8965   11.2735 H   0  0  0  0  0  0  0  0  0  0  0  0
    0.1261   -0.0037   13.4241 H   0  0  0  0  0  0  0  0  0  0  0  0
   -1.1078    0.8925   12.5435 H   0  0  0  0  0  0  0  0  0  0  0  0
   -1.1338   -0.8684   12.5475 H   0  0  0  0  0  0  0  0  0  0  0  0
  1  2  1  0
  1 17  1  0
  1 21  1  0
  1 22  1  0
  2  3  1  0
  2 23  1  0
  2 24  1  0
  3  4  1  0
  3 25  1  0
  3 26  1  0
  4  5  1  0
  4 27  1  0
  4 28  1  0
  5  6  1  0
  5 29  1  0
  5 30  1  0
  6  7  1  0
  6 31  1  0
  6 32  1  0
  7  8  1  0
  7 33  1  0
  7 34  1  0
  8  9  1  0
  8 35  1  0
  8 36  1  0
  9 10  1  0
  9 37  1  0
  9 38  1  0
 10 11  1  0
 10 39  1  0
 10 40  1  0
 11 12  1  0
 11 41  1  0
 11 42  1  0
 12 13  1  0
 12 43  1  0
 12 44  1  0
 13 14  1  0
 13 45  1  0
 13 46  1  0
 14 15  1  0
 14 47  1  0
 14 48  1  0
 15 16  1  0
 15 49  1  0
 15 50  1  0
 16 51  1  0
 16 52  1  0
 16 53  1  0
 17 18  2  0
 17 19  2  0
 17 20  1  6
M  END
