
     RDKit          3D

 37 39  0  0  0  0  0  0  0  0999 V2000
    4.9422   -1.6060    1.0000 F   0  0  0  0  0  0  0  0  0  0  0  0
    4.9375   -0.3686    0.4767 C   0  0  0  0  0  0  0  0  0  0  0  0
    6.1236    0.1798    0.0372 C   0  0  0  0  0  0  0  0  0  0  0  0
    6.1088    1.4534   -0.5137 C   0  0  0  0  0  0  0  0  0  0  0  0
    4.9143    2.1551   -0.5964 C   0  0  0  0  0  0  0  0  0  0  0  0
    3.7342    1.5965   -0.1276 C   0  0  0  0  0  0  0  0  0  0  0  0
    3.7264    0.3125    0.4116 C   0  0  0  0  0  0  0  0  0  0  0  0
    2.5721   -0.2968    0.9171 N   0  0  0  0  0  0  0  0  0  0  0  0
    1.3684   -0.2903    0.2814 C   0  0  0  0  0  0  0  0  0  0  0  0
    1.1294    0.2894   -0.7556 O   0  0  0  0  0  0  0  0  0  0  0  0
    0.4178   -1.0503    0.9371 N   0  0  0  0  0  0  0  0  0  0  0  0
   -0.8655   -0.9665    0.5162 N   0  0  0  0  0  0  0  0  0  0  0  0
   -1.7596    0.0608    0.7574 C   0  0  0  0  0  0  0  0  0  0  0  0
   -1.4757   -1.8659   -0.3032 C   0  0  0  0  0  0  0  0  0  0  0  0
   -0.8747   -3.0274   -0.6787 N   0  0  0  0  0  0  0  0  0  0  0  0
   -2.6925   -1.4894   -0.5811 N   0  0  0  0  0  0  0  0  0  0  0  0
   -2.8834   -0.2900    0.0762 C   0  0  0  0  0  0  0  0  0  0  0  0
   -4.1530    0.4279   -0.0120 C   0  0  0  0  0  0  0  0  0  0  0  0
   -5.1974   -0.0792   -0.7870 C   0  0  0  0  0  0  0  0  0  0  0  0
   -6.4065    0.5961   -0.8791 C   0  0  0  0  0  0  0  0  0  0  0  0
   -6.5975    1.7906   -0.1982 C   0  0  0  0  0  0  0  0  0  0  0  0
   -5.5636    2.3043    0.5769 C   0  0  0  0  0  0  0  0  0  0  0  0
   -4.3564    1.6316    0.6696 C   0  0  0  0  0  0  0  0  0  0  0  0
    7.0410   -0.3886    0.1187 H   0  0  0  0  0  0  0  0  0  0  0  0
    7.0305    1.8939   -0.8682 H   0  0  0  0  0  0  0  0  0  0  0  0
    4.8974    3.1515   -1.0170 H   0  0  0  0  0  0  0  0  0  0  0  0
    2.8177    2.1659   -0.1741 H   0  0  0  0  0  0  0  0  0  0  0  0
    2.6897   -0.9188    1.7024 H   0  0  0  0  0  0  0  0  0  0  0  0
    0.5506   -1.3452    1.8948 H   0  0  0  0  0  0  0  0  0  0  0  0
   -1.4974    0.9018    1.3767 H   0  0  0  0  0  0  0  0  0  0  0  0
    0.1326   -3.0194   -0.7194 H   0  0  0  0  0  0  0  0  0  0  0  0
   -1.2902   -3.4636   -1.4863 H   0  0  0  0  0  0  0  0  0  0  0  0
   -5.0600   -1.0095   -1.3221 H   0  0  0  0  0  0  0  0  0  0  0  0
   -3.5677    2.0505    1.2824 H   0  0  0  0  0  0  0  0  0  0  0  0
   -7.2020    0.1850   -1.4874 H   0  0  0  0  0  0  0  0  0  0  0  0
   -7.5408    2.3164   -0.2677 H   0  0  0  0  0  0  0  0  0  0  0  0
   -5.6987    3.2347    1.1135 H   0  0  0  0  0  0  0  0  0  0  0  0
  1  2  1  0
  2  3  2  0
  2  7  1  0
  3  4  1  0
  4  5  2  0
  5  6  1  0
  6  7  2  0
  7  8  1  0
  8  9  1  0
  9 10  2  0
  9 11  1  0
 11 12  1  0
 12 13  1  0
 12 14  1  0
 13 17  2  0
 14 15  1  0
 14 16  2  0
 16 17  1  0
 17 18  1  0
 18 19  2  0
 18 23  1  0
 19 20  1  0
 20 21  2  0
 21 22  1  0
 22 23  2  0
  3 24  1  0
  4 25  1  0
  5 26  1  0
  6 27  1  0
  8 28  1  0
 11 29  1  0
 13 30  1  0
 15 31  1  0
 15 32  1  0
 19 33  1  0
 23 34  1  0
 20 35  1  0
 21 36  1  0
 22 37  1  0
M  END
