
     RDKit          3D

 29 28  0  0  0  0  0  0  0  0999 V2000
    3.0176    1.8299   -0.1703 N   0  0  0  0  0  0  0  0  0  0  0  0
    2.8408    0.4699    0.2752 C   0  0  1  0  0  0  0  0  0  0  0  0
    1.6180   -0.2253   -0.3445 C   0  0  0  0  0  0  0  0  0  0  0  0
   -0.8609   -0.4480   -0.3214 C   0  0  0  0  0  0  0  0  0  0  0  0
    0.3252    0.3216    0.2200 C   0  0  0  0  0  0  0  0  0  0  0  0
   -2.1572    0.1245    0.2530 C   0  0  0  0  0  0  0  0  0  0  0  0
   -3.3395   -0.6112   -0.1643 N   0  0  0  0  0  0  0  0  0  0  0  0
   -4.7024   -0.1224   -0.0667 C   0  0  0  0  0  0  0  0  0  0  0  0
   -5.6562   -0.9157   -0.4904 N   0  0  0  0  0  0  0  0  0  0  0  0
   -4.9388    1.1838    0.4809 N   0  0  0  0  0  0  0  0  0  0  0  0
    4.0584   -0.4164    0.0227 C   0  0  0  0  0  0  0  0  0  0  0  0
    4.6514   -0.6217   -1.0410 O   0  0  0  0  0  0  0  0  0  0  0  0
    4.5335   -1.0516    1.1274 O   0  0  0  0  0  0  0  0  0  0  0  0
    3.9513    2.1443    0.0121 H   0  0  0  0  0  0  0  0  0  0  0  0
    2.8249    1.9192   -1.1485 H   0  0  0  0  0  0  0  0  0  0  0  0
    2.7019    0.4997    1.4003 H   0  0  0  0  0  0  0  0  0  0  0  0
    1.6298   -0.1041   -1.4589 H   0  0  0  0  0  0  0  0  0  0  0  0
    1.6982   -1.3226   -0.1195 H   0  0  0  0  0  0  0  0  0  0  0  0
   -0.8747   -0.3808   -1.4413 H   0  0  0  0  0  0  0  0  0  0  0  0
   -0.7647   -1.5325   -0.0504 H   0  0  0  0  0  0  0  0  0  0  0  0
    0.3427    0.2497    1.3395 H   0  0  0  0  0  0  0  0  0  0  0  0
    0.2221    1.4081   -0.0407 H   0  0  0  0  0  0  0  0  0  0  0  0
   -2.1085    0.0678    1.3785 H   0  0  0  0  0  0  0  0  0  0  0  0
   -2.2152    1.2165   -0.0272 H   0  0  0  0  0  0  0  0  0  0  0  0
   -3.2088   -1.5290   -0.5523 H   0  0  0  0  0  0  0  0  0  0  0  0
   -6.5835   -0.5604   -0.4136 H   0  0  0  0  0  0  0  0  0  0  0  0
   -5.8760    1.5175    0.5475 H   0  0  0  0  0  0  0  0  0  0  0  0
   -4.2105    1.7814    0.8012 H   0  0  0  0  0  0  0  0  0  0  0  0
    5.3042   -1.5934    0.8879 H   0  0  0  0  0  0  0  0  0  0  0  0
  1  2  1  0
  1 14  1  0
  1 15  1  0
  2  3  1  0
  2 11  1  0
  2 16  1  1
  3  5  1  0
  3 17  1  0
  3 18  1  0
  4  5  1  0
  4  6  1  0
  4 19  1  0
  4 20  1  0
  5 21  1  0
  5 22  1  0
  6  7  1  0
  6 23  1  0
  6 24  1  0
  7  8  1  0
  7 25  1  0
  8  9  2  0
  8 10  1  0
  9 26  1  0
 10 27  1  0
 10 28  1  0
 11 12  2  0
 11 13  1  0
 13 29  1  0
M  END
