
     RDKit          3D

 23 23  0  0  0  0  0  0  0  0999 V2000
    0.2241    0.0111   -0.5829 N   0  0  0  0  0  0  0  0  0  0  0  0
    0.7705   -1.2504   -0.5798 C   0  0  0  0  0  0  0  0  0  0  0  0
    0.1639   -2.2481   -0.9041 O   0  0  0  0  0  0  0  0  0  0  0  0
    2.0919   -1.2979   -0.1970 N   0  0  0  0  0  0  0  0  0  0  0  0
    2.9132   -0.2613    0.1956 C   0  0  0  0  0  0  0  0  0  0  0  0
    4.0707   -0.4339    0.5162 O   0  0  0  0  0  0  0  0  0  0  0  0
    2.2307    1.0117    0.1696 C   0  0  0  0  0  0  0  0  0  0  0  0
    2.9373    2.0886    0.5214 F   0  0  0  0  0  0  0  0  0  0  0  0
    0.9500    1.1045   -0.2011 C   0  0  0  0  0  0  0  0  0  0  0  0
   -1.1965    0.1773   -0.8358 C   0  0  0  0  0  0  0  0  0  0  0  0
   -1.9810    0.2696    0.4850 C   0  0  2  0  0  0  0  0  0  0  0  0
   -1.6591   -0.8368    1.3415 N   0  0  0  0  0  0  0  0  0  0  0  0
   -3.4663    0.4165    0.1716 C   0  0  0  0  0  0  0  0  0  0  0  0
   -4.3124   -0.3699    0.5098 O   0  0  0  0  0  0  0  0  0  0  0  0
   -3.7173    1.5197   -0.5205 O   0  0  0  0  0  0  0  0  0  0  0  0
    2.5065   -2.2222   -0.2026 H   0  0  0  0  0  0  0  0  0  0  0  0
    0.4369    2.0567   -0.2294 H   0  0  0  0  0  0  0  0  0  0  0  0
   -1.3306    1.0755   -1.4362 H   0  0  0  0  0  0  0  0  0  0  0  0
   -1.5405   -0.6660   -1.4305 H   0  0  0  0  0  0  0  0  0  0  0  0
   -1.6758    1.1918    0.9924 H   0  0  0  0  0  0  0  0  0  0  0  0
   -2.0506   -0.6950    2.2627 H   0  0  0  0  0  0  0  0  0  0  0  0
   -2.0512   -1.6988    0.9846 H   0  0  0  0  0  0  0  0  0  0  0  0
   -4.6639    1.5852   -0.7197 H   0  0  0  0  0  0  0  0  0  0  0  0
  1  2  1  0
  1  9  1  0
  1 10  1  0
  2  3  2  0
  2  4  1  0
  4  5  1  0
  4 16  1  0
  5  6  2  0
  5  7  1  0
  7  8  1  0
  7  9  2  0
  9 17  1  0
 10 11  1  0
 10 18  1  0
 10 19  1  0
 11 12  1  0
 11 13  1  0
 11 20  1  1
 12 21  1  0
 12 22  1  0
 13 14  2  0
 13 15  1  0
 15 23  1  0
M  END
