
     RDKit          3D

 38 40  0  0  0  0  0  0  0  0999 V2000
   -1.8981   -0.1760    0.2125 C   0  0  0  0  0  0  0  0  0  0  0  0
   -3.0622    0.2513   -0.4275 C   0  0  0  0  0  0  0  0  0  0  0  0
   -4.2135   -0.5362   -0.2023 C   0  0  0  0  0  0  0  0  0  0  0  0
   -4.1091   -1.6096    0.5853 N   0  0  0  0  0  0  0  0  0  0  0  0
   -2.9250   -1.8941    1.1280 C   0  0  0  0  0  0  0  0  0  0  0  0
    2.9709   -1.7115   -0.9720 O   0  0  0  0  0  0  0  0  0  0  0  0
    3.4406   -0.6872   -0.4956 C   0  0  0  0  0  0  0  0  0  0  0  0
    4.8339   -0.6733    0.1058 C   0  0  0  0  0  0  0  0  0  0  0  0
    5.5288   -2.0212    0.0262 C   0  0  0  0  0  0  0  0  0  0  0  0
   -2.6721    1.4107   -1.1366 C   0  0  0  0  0  0  0  0  0  0  0  0
    0.4565    0.6811    0.2834 C   0  0  2  0  0  0  0  0  0  0  0  0
    0.8278    1.9294    1.0797 C   0  0  0  0  0  0  0  0  0  0  0  0
    2.3122    1.9179    1.4304 C   0  0  0  0  0  0  0  0  0  0  0  0
    3.1661    1.6954    0.1887 C   0  0  0  0  0  0  0  0  0  0  0  0
    1.3718    0.5169   -0.9339 C   0  0  0  0  0  0  0  0  0  0  0  0
   -1.7841   -1.2480    1.0036 N   0  0  0  0  0  0  0  0  0  0  0  0
   -0.9312    0.6991   -0.1246 N   0  0  0  0  0  0  0  0  0  0  0  0
   -1.4017    1.6575   -0.9414 N   0  0  0  0  0  0  0  0  0  0  0  0
   -5.3965   -0.2557   -0.7444 N   0  0  0  0  0  0  0  0  0  0  0  0
    2.7522    0.4814   -0.4963 N   0  0  0  0  0  0  0  0  0  0  0  0
   -2.9062   -2.7782    1.7566 H   0  0  0  0  0  0  0  0  0  0  0  0
    5.4376    0.0853   -0.3997 H   0  0  0  0  0  0  0  0  0  0  0  0
    4.7703   -0.3518    1.1492 H   0  0  0  0  0  0  0  0  0  0  0  0
    5.6537   -2.3525   -1.0039 H   0  0  0  0  0  0  0  0  0  0  0  0
    6.5199   -1.9479    0.4734 H   0  0  0  0  0  0  0  0  0  0  0  0
    4.9791   -2.7928    0.5634 H   0  0  0  0  0  0  0  0  0  0  0  0
   -3.2625    2.0566   -1.7685 H   0  0  0  0  0  0  0  0  0  0  0  0
    0.5651   -0.2008    0.9197 H   0  0  0  0  0  0  0  0  0  0  0  0
    0.5966    2.8176    0.4849 H   0  0  0  0  0  0  0  0  0  0  0  0
    0.2204    1.9826    1.9852 H   0  0  0  0  0  0  0  0  0  0  0  0
    2.5923    2.8639    1.8968 H   0  0  0  0  0  0  0  0  0  0  0  0
    2.5211    1.1267    2.1569 H   0  0  0  0  0  0  0  0  0  0  0  0
    3.0453    2.5349   -0.5026 H   0  0  0  0  0  0  0  0  0  0  0  0
    4.2198    1.6535    0.4478 H   0  0  0  0  0  0  0  0  0  0  0  0
    1.1300   -0.3940   -1.4747 H   0  0  0  0  0  0  0  0  0  0  0  0
    1.2350    1.3616   -1.6156 H   0  0  0  0  0  0  0  0  0  0  0  0
   -5.5379    0.5537   -1.3223 H   0  0  0  0  0  0  0  0  0  0  0  0
   -6.1933   -0.8346   -0.5404 H   0  0  0  0  0  0  0  0  0  0  0  0
  5 16  2  0
  5  4  1  0
 16  1  1  0
  4  3  2  0
  1  2  2  0
  1 17  1  0
  3 19  1  0
  3  2  1  0
  6  7  2  0
  2 10  1  0
 11 17  1  0
 11 12  1  0
 11 15  1  0
 17 18  1  0
 13 12  1  0
 13 14  1  0
  7  8  1  0
  7 20  1  0
  8  9  1  0
 20 15  1  0
 20 14  1  0
 10 18  2  0
  5 21  1  0
  8 22  1  0
  8 23  1  0
  9 24  1  0
  9 25  1  0
  9 26  1  0
 10 27  1  0
 11 28  1  1
 12 29  1  0
 12 30  1  0
 13 31  1  0
 13 32  1  0
 14 33  1  0
 14 34  1  0
 15 35  1  0
 15 36  1  0
 19 37  1  0
 19 38  1  0
M  END
