
     RDKit          3D

 29 29  0  0  0  0  0  0  0  0999 V2000
    2.6556    3.1305   -0.0643 C   0  0  0  0  0  0  0  0  0  0  0  0
    2.8453    1.7304   -0.0576 O   0  0  0  0  0  0  0  0  0  0  0  0
    1.7563    0.9397    0.0104 C   0  0  0  0  0  0  0  0  0  0  0  0
    0.4435    1.3959    0.0679 C   0  0  0  0  0  0  0  0  0  0  0  0
    2.0139   -0.4310    0.0216 C   0  0  0  0  0  0  0  0  0  0  0  0
    3.2959   -0.8455   -0.0340 O   0  0  0  0  0  0  0  0  0  0  0  0
    0.9428   -1.3285    0.0913 C   0  0  0  0  0  0  0  0  0  0  0  0
    1.3137   -2.6272    0.0966 O   0  0  0  0  0  0  0  0  0  0  0  0
    0.3104   -3.6228    0.1390 C   0  0  0  0  0  0  0  0  0  0  0  0
   -0.3637   -0.8708    0.1515 C   0  0  0  0  0  0  0  0  0  0  0  0
   -0.6235    0.5007    0.1380 C   0  0  0  0  0  0  0  0  0  0  0  0
   -1.9810    1.0476    0.1909 C   0  0  0  0  0  0  0  0  0  0  0  0
   -3.1283    0.3677    0.2162 C   0  0  0  0  0  0  0  0  0  0  0  0
   -4.4651    1.0242    0.3124 C   0  0  0  0  0  0  0  0  0  0  0  0
   -5.2525    0.6241   -0.7929 O   0  0  0  0  0  0  0  0  0  0  0  0
    3.6466    3.5757   -0.1068 H   0  0  0  0  0  0  0  0  0  0  0  0
    2.0840    3.4621   -0.9355 H   0  0  0  0  0  0  0  0  0  0  0  0
    2.1514    3.4800    0.8405 H   0  0  0  0  0  0  0  0  0  0  0  0
    0.2343    2.4576    0.0587 H   0  0  0  0  0  0  0  0  0  0  0  0
    3.3260   -1.8099   -0.0128 H   0  0  0  0  0  0  0  0  0  0  0  0
   -0.2793   -3.5670    1.0574 H   0  0  0  0  0  0  0  0  0  0  0  0
   -0.3618   -3.5572   -0.7199 H   0  0  0  0  0  0  0  0  0  0  0  0
    0.8242   -4.5802    0.1111 H   0  0  0  0  0  0  0  0  0  0  0  0
   -1.1824   -1.5739    0.2087 H   0  0  0  0  0  0  0  0  0  0  0  0
   -2.0341    2.1336    0.2094 H   0  0  0  0  0  0  0  0  0  0  0  0
   -3.1353   -0.7186    0.1917 H   0  0  0  0  0  0  0  0  0  0  0  0
   -4.9407    0.7262    1.2560 H   0  0  0  0  0  0  0  0  0  0  0  0
   -4.3395    2.1140    0.3513 H   0  0  0  0  0  0  0  0  0  0  0  0
   -6.1629    0.8769   -0.6146 H   0  0  0  0  0  0  0  0  0  0  0  0
  6  5  1  0
  1  2  1  0
  2  3  1  0
  5  3  2  0
  5  7  1  0
  3  4  1  0
  7  8  1  0
  7 10  2  0
  4 11  2  0
  8  9  1  0
 11 10  1  0
 11 12  1  0
 12 13  2  0
 13 14  1  0
 14 15  1  0
  1 16  1  0
  1 17  1  0
  1 18  1  0
  4 19  1  0
  6 20  1  0
  9 21  1  0
  9 22  1  0
  9 23  1  0
 10 24  1  0
 12 25  1  0
 13 26  1  0
 14 27  1  0
 14 28  1  0
 15 29  1  0
M  END
