
     RDKit          3D

 30 30  0  0  0  0  0  0  0  0999 V2000
   -1.6667   -0.6198   -0.5843 N   0  0  0  0  0  0  0  0  0  0  0  0
    0.3181    0.6113   -1.3396 C   0  0  2  0  0  0  0  0  0  0  0  0
   -0.1720   -0.6057   -0.5652 C   0  0  1  0  0  0  0  0  0  0  0  0
    0.2889   -0.5911    0.8455 C   0  0  2  0  0  0  0  0  0  0  0  0
    1.7729   -0.4150    0.9501 C   0  0  1  0  0  0  0  0  0  0  0  0
    2.2634    0.8061    0.1683 C   0  0  2  0  0  0  0  0  0  0  0  0
    1.7478    2.0456    0.8314 C   0  0  0  0  0  0  0  0  0  0  0  0
   -2.3738   -1.6222   -1.3626 C   0  0  0  0  0  0  0  0  0  0  0  0
   -3.9009   -1.6443   -1.3720 C   0  0  0  0  0  0  0  0  0  0  0  0
   -0.0793   -1.8502    1.4720 O   0  0  0  0  0  0  0  0  0  0  0  0
    2.1226   -0.2529    2.3265 O   0  0  0  0  0  0  0  0  0  0  0  0
    1.8062    0.7884   -1.2317 O   0  0  0  0  0  0  0  0  0  0  0  0
    2.7629    2.6141    1.6131 O   0  0  0  0  0  0  0  0  0  0  0  0
   -1.7663   -2.4279   -1.9817 O   0  0  0  0  0  0  0  0  0  0  0  0
    3.6280    0.8216    0.1860 F   0  0  0  0  0  0  0  0  0  0  0  0
   -2.1806    0.0548   -0.0517 H   0  0  0  0  0  0  0  0  0  0  0  0
    0.0547    0.4905   -2.3847 H   0  0  0  0  0  0  0  0  0  0  0  0
    0.2005   -1.5016   -1.0470 H   0  0  0  0  0  0  0  0  0  0  0  0
   -0.1989    0.2236    1.3658 H   0  0  0  0  0  0  0  0  0  0  0  0
    2.2597   -1.3006    0.5594 H   0  0  0  0  0  0  0  0  0  0  0  0
    1.4331    2.7567    0.0744 H   0  0  0  0  0  0  0  0  0  0  0  0
    0.9034    1.7930    1.4634 H   0  0  0  0  0  0  0  0  0  0  0  0
   -4.2664   -1.8199   -0.3651 H   0  0  0  0  0  0  0  0  0  0  0  0
   -4.2474   -2.4386   -2.0267 H   0  0  0  0  0  0  0  0  0  0  0  0
   -4.2746   -0.6897   -1.7317 H   0  0  0  0  0  0  0  0  0  0  0  0
   -0.6506   -1.6821    2.2042 H   0  0  0  0  0  0  0  0  0  0  0  0
    2.6636   -0.9764    2.6012 H   0  0  0  0  0  0  0  0  0  0  0  0
    2.5564    3.5195    1.7877 H   0  0  0  0  0  0  0  0  0  0  0  0
   -0.2948    1.7221   -0.8489 O   0  0  0  0  0  0  0  0  0  0  0  0
   -0.7099    2.1907   -1.5558 H   0  0  0  0  0  0  0  0  0  0  0  0
 11  5  1  0
 13  7  1  0
  7  6  1  0
 10  4  1  0
  5  6  1  0
  5  4  1  0
  6 15  1  6
  6 12  1  0
  4  3  1  0
 14  8  2  0
  3  2  1  0
  3  1  1  0
 12  2  1  0
  8  1  1  0
  8  9  1  0
  1 16  1  0
  2 17  1  6
  3 18  1  6
  4 19  1  1
  5 20  1  6
  7 21  1  0
  7 22  1  0
  9 23  1  0
  9 24  1  0
  9 25  1  0
 10 26  1  0
 11 27  1  0
 13 28  1  0
  2 29  1  0
 29 30  1  0
M  END
