
     RDKit          3D

 33 35  0  0  0  0  0  0  0  0999 V2000
   -2.4510    1.7290   -0.2202 C   0  0  0  0  0  0  0  0  0  0  0  0
    2.3226   -0.0439   -0.0187 C   0  0  0  0  0  0  0  0  0  0  0  0
    0.0110   -3.8689   -0.1008 O   0  0  0  0  0  0  0  0  0  0  0  0
   -0.1468   -2.5611   -0.0736 C   0  0  0  0  0  0  0  0  0  0  0  0
   -1.3256   -1.8736   -0.0737 C   0  0  0  0  0  0  0  0  0  0  0  0
   -1.2845   -0.4571   -0.0399 C   0  0  0  0  0  0  0  0  0  0  0  0
   -2.5261    0.3461   -0.0303 C   0  0  0  0  0  0  0  0  0  0  0  0
   -3.7802   -0.2319    0.1706 C   0  0  0  0  0  0  0  0  0  0  0  0
   -4.9274    0.5484    0.1778 C   0  0  0  0  0  0  0  0  0  0  0  0
   -4.8415    1.9194   -0.0186 C   0  0  0  0  0  0  0  0  0  0  0  0
   -3.5971    2.5061   -0.2166 C   0  0  0  0  0  0  0  0  0  0  0  0
   -0.1548    0.2075   -0.0231 N   0  0  0  0  0  0  0  0  0  0  0  0
    0.9940   -0.4671   -0.0325 C   0  0  0  0  0  0  0  0  0  0  0  0
    4.0859    1.5659    0.0790 N   0  0  0  0  0  0  0  0  0  0  0  0
    4.6523    2.8922    0.0931 C   0  0  0  0  0  0  0  0  0  0  0  0
    1.9684    2.2965   -0.0825 O   0  0  0  0  0  0  0  0  0  0  0  0
    3.1214   -1.2180   -0.0266 C   0  0  0  0  0  0  0  0  0  0  0  0
    2.3138   -2.3171   -0.0443 C   0  0  0  0  0  0  0  0  0  0  0  0
    1.0157   -1.8643   -0.0479 N   0  0  0  0  0  0  0  0  0  0  0  0
   -1.4838    2.1891   -0.3727 H   0  0  0  0  0  0  0  0  0  0  0  0
   -0.8431   -4.3213   -0.1098 H   0  0  0  0  0  0  0  0  0  0  0  0
   -2.2520   -2.4270   -0.1129 H   0  0  0  0  0  0  0  0  0  0  0  0
   -3.8818   -1.2961    0.3358 H   0  0  0  0  0  0  0  0  0  0  0  0
   -5.8897    0.0812    0.3406 H   0  0  0  0  0  0  0  0  0  0  0  0
   -5.7363    2.5281   -0.0169 H   0  0  0  0  0  0  0  0  0  0  0  0
   -3.5196    3.5748   -0.3683 H   0  0  0  0  0  0  0  0  0  0  0  0
    4.7159    0.7888    0.1679 H   0  0  0  0  0  0  0  0  0  0  0  0
    5.7332    2.8019    0.1544 H   0  0  0  0  0  0  0  0  0  0  0  0
    4.4076    3.4471   -0.8135 H   0  0  0  0  0  0  0  0  0  0  0  0
    4.3089    3.4747    0.9497 H   0  0  0  0  0  0  0  0  0  0  0  0
    4.1992   -1.2732   -0.0264 H   0  0  0  0  0  0  0  0  0  0  0  0
    2.5559   -3.3651   -0.0591 H   0  0  0  0  0  0  0  0  0  0  0  0
    2.7564    1.3583   -0.0103 C   0  0  0  0  0  0  0  0  0  0  0  0
 15 14  1  0
 16 33  2  0
 14 33  1  0
 33  2  1  0
  2 17  1  0
  2 13  2  0
 17 18  2  0
 11  1  2  0
 11 10  1  0
  1  7  1  0
 13 12  1  0
 13 19  1  0
 12  6  2  0
 18 19  1  0
 10  9  2  0
  7  6  1  0
  7  8  2  0
 19  4  1  0
  6  5  1  0
  9  8  1  0
  4  5  2  0
  4  3  1  0
  1 20  1  0
  3 21  1  0
  5 22  1  0
  8 23  1  0
  9 24  1  0
 10 25  1  0
 11 26  1  0
 14 27  1  0
 15 28  1  0
 15 29  1  0
 15 30  1  0
 17 31  1  0
 18 32  1  0
M  END
