
     RDKit          3D

 72 76  0  0  0  0  0  0  0  0999 V2000
    1.4220    0.3080    0.1537 N   0  0  0  0  0  0  0  0  0  0  0  0
    3.1318   -0.9337   -0.5654 N   0  0  0  0  0  0  0  0  0  0  0  0
    2.0784    1.0703   -0.7904 C   0  0  0  0  0  0  0  0  0  0  0  0
    3.1412    0.2660   -1.2254 C   0  0  0  0  0  0  0  0  0  0  0  0
   -0.9672    0.8374    0.0814 C   0  0  0  0  0  0  0  0  0  0  0  0
    0.2745    0.6841    0.9659 C   0  0  2  0  0  0  0  0  0  0  0  0
    1.8868    2.3591   -1.2835 C   0  0  0  0  0  0  0  0  0  0  0  0
    4.0416    0.7236   -2.1874 C   0  0  0  0  0  0  0  0  0  0  0  0
    3.8487    1.9927   -2.6697 C   0  0  0  0  0  0  0  0  0  0  0  0
    0.4166   -2.6102    0.8510 C   0  0  0  0  0  0  0  0  0  0  0  0
   -3.2443    0.0240   -0.3506 C   0  0  1  0  0  0  0  0  0  0  0  0
   -5.6063   -1.3348   -1.4819 C   0  0  1  0  0  0  0  0  0  0  0  0
   -4.2966   -0.6273    0.5413 C   0  0  0  0  0  0  0  0  0  0  0  0
   -5.6649   -0.6452   -0.1280 C   0  0  0  0  0  0  0  0  0  0  0  0
   -0.5378   -2.8242    1.8394 C   0  0  0  0  0  0  0  0  0  0  0  0
    2.7930   -2.8973    1.1622 O   0  0  0  0  0  0  0  0  0  0  0  0
    1.7470   -1.9718    1.1998 C   0  0  1  0  0  0  0  0  0  0  0  0
    2.1173   -0.8704    0.2429 C   0  0  0  0  0  0  0  0  0  0  0  0
    4.6784    2.5007   -3.5915 F   0  0  0  0  0  0  0  0  0  0  0  0
    2.7937    2.7926   -2.2205 C   0  0  0  0  0  0  0  0  0  0  0  0
    2.6759    4.0236   -2.7367 F   0  0  0  0  0  0  0  0  0  0  0  0
    0.5120    1.9417    1.8119 C   0  0  1  0  0  0  0  0  0  0  0  0
   -0.6848    2.1666    2.7399 C   0  0  0  0  0  0  0  0  0  0  0  0
   -0.4816    3.3854    3.6332 C   0  0  0  0  0  0  0  0  0  0  0  0
    0.8063    3.2709    4.4398 C   0  0  0  0  0  0  0  0  0  0  0  0
    2.0015    3.0449    3.5223 C   0  0  0  0  0  0  0  0  0  0  0  0
    1.8003    1.8260    2.6268 C   0  0  0  0  0  0  0  0  0  0  0  0
   -1.9593   -0.0213    0.3259 N   0  0  0  0  0  0  0  0  0  0  0  0
   -6.9034   -1.3065   -2.0406 O   0  0  0  0  0  0  0  0  0  0  0  0
   -4.5754   -0.6529   -2.3748 C   0  0  0  0  0  0  0  0  0  0  0  0
   -3.1979   -0.6513   -1.7208 C   0  0  0  0  0  0  0  0  0  0  0  0
    0.1687   -3.0528   -0.4450 C   0  0  0  0  0  0  0  0  0  0  0  0
   -1.0267   -3.6854   -0.7492 C   0  0  0  0  0  0  0  0  0  0  0  0
   -1.9835   -3.8856    0.2390 C   0  0  0  0  0  0  0  0  0  0  0  0
   -1.7386   -3.4557    1.5356 C   0  0  0  0  0  0  0  0  0  0  0  0
    0.1187   -0.1333    1.6713 H   0  0  0  0  0  0  0  0  0  0  0  0
    1.0723    2.9982   -0.9810 H   0  0  0  0  0  0  0  0  0  0  0  0
    4.8615    0.1105   -2.5381 H   0  0  0  0  0  0  0  0  0  0  0  0
   -3.5076    1.0774   -0.4904 H   0  0  0  0  0  0  0  0  0  0  0  0
   -3.9878   -1.6544    0.7673 H   0  0  0  0  0  0  0  0  0  0  0  0
   -4.3537   -0.0974    1.4947 H   0  0  0  0  0  0  0  0  0  0  0  0
   -6.0235    0.3813   -0.2630 H   0  0  0  0  0  0  0  0  0  0  0  0
   -6.3827   -1.1518    0.5214 H   0  0  0  0  0  0  0  0  0  0  0  0
   -0.3432   -2.4974    2.8551 H   0  0  0  0  0  0  0  0  0  0  0  0
    3.6319   -4.4653    2.1198 H   0  0  0  0  0  0  0  0  0  0  0  0
    2.6735   -3.4113    3.1757 H   0  0  0  0  0  0  0  0  0  0  0  0
    1.8631   -4.5361    2.0691 H   0  0  0  0  0  0  0  0  0  0  0  0
    1.6639   -1.5422    2.2138 H   0  0  0  0  0  0  0  0  0  0  0  0
    0.5988    2.8127    1.1543 H   0  0  0  0  0  0  0  0  0  0  0  0
   -1.6074    2.2810    2.1656 H   0  0  0  0  0  0  0  0  0  0  0  0
   -0.8163    1.2784    3.3701 H   0  0  0  0  0  0  0  0  0  0  0  0
   -0.4472    4.2887    3.0145 H   0  0  0  0  0  0  0  0  0  0  0  0
   -1.3405    3.4976    4.2989 H   0  0  0  0  0  0  0  0  0  0  0  0
    0.9553    4.1680    5.0454 H   0  0  0  0  0  0  0  0  0  0  0  0
    0.7202    2.4321    5.1389 H   0  0  0  0  0  0  0  0  0  0  0  0
    2.1468    3.9302    2.8936 H   0  0  0  0  0  0  0  0  0  0  0  0
    2.9165    2.9255    4.1068 H   0  0  0  0  0  0  0  0  0  0  0  0
    1.7566    0.9209    3.2459 H   0  0  0  0  0  0  0  0  0  0  0  0
    2.6643    1.7146    1.9677 H   0  0  0  0  0  0  0  0  0  0  0  0
   -1.8171   -0.7579    1.0005 H   0  0  0  0  0  0  0  0  0  0  0  0
   -6.8764   -1.7636   -2.8871 H   0  0  0  0  0  0  0  0  0  0  0  0
   -4.5200   -1.1580   -3.3434 H   0  0  0  0  0  0  0  0  0  0  0  0
   -4.8990    0.3757   -2.5694 H   0  0  0  0  0  0  0  0  0  0  0  0
   -2.4779   -0.1411   -2.3630 H   0  0  0  0  0  0  0  0  0  0  0  0
   -2.8402   -1.6782   -1.5968 H   0  0  0  0  0  0  0  0  0  0  0  0
    0.9086   -2.8999   -1.2220 H   0  0  0  0  0  0  0  0  0  0  0  0
   -1.2165   -4.0195   -1.7609 H   0  0  0  0  0  0  0  0  0  0  0  0
   -2.9175   -4.3761   -0.0033 H   0  0  0  0  0  0  0  0  0  0  0  0
   -2.4769   -3.6128    2.3113 H   0  0  0  0  0  0  0  0  0  0  0  0
   -1.0275    1.7204   -0.7615 O   0  0  0  0  0  0  0  0  0  0  0  0
    2.7233   -3.8694    2.1814 C   0  0  0  0  0  0  0  0  0  0  0  0
   -5.2817   -2.3762   -1.3204 H   0  0  0  0  0  0  0  0  0  0  0  0
 29 12  1  0
 71 16  1  0
 12 14  1  0
 12 30  1  0
 14 13  1  0
 13 11  1  0
 30 31  1  0
  2  4  1  0
  2 18  2  0
 16 17  1  0
 31 11  1  0
 17 18  1  0
 17 10  1  0
  8  4  2  0
  8  9  1  0
  4  3  1  0
 18  1  1  0
 11 28  1  0
 19  9  1  0
  9 20  2  0
 28  5  1  0
 10 15  2  0
 10 32  1  0
  3  1  1  0
  3  7  2  0
  1  6  1  0
 15 35  1  0
 32 33  2  0
 20  7  1  0
 20 21  1  0
  5  6  1  0
  5 70  2  0
  6 22  1  0
 35 34  2  0
 33 34  1  0
 22 23  1  0
 22 27  1  0
 23 24  1  0
 27 26  1  0
 24 25  1  0
 26 25  1  0
  6 36  1  1
  7 37  1  0
  8 38  1  0
 11 39  1  6
 12 72  1  1
 13 40  1  0
 13 41  1  0
 14 42  1  0
 14 43  1  0
 15 44  1  0
 71 45  1  0
 71 46  1  0
 71 47  1  0
 17 48  1  1
 22 49  1  6
 23 50  1  0
 23 51  1  0
 24 52  1  0
 24 53  1  0
 25 54  1  0
 25 55  1  0
 26 56  1  0
 26 57  1  0
 27 58  1  0
 27 59  1  0
 28 60  1  0
 29 61  1  0
 30 62  1  0
 30 63  1  0
 31 64  1  0
 31 65  1  0
 32 66  1  0
 33 67  1  0
 34 68  1  0
 35 69  1  0
M  END
