
     RDKit          3D

 49 53  0  0  0  0  0  0  0  0999 V2000
   -6.9098   -3.9631    0.0313 N   0  0  0  0  0  0  0  0  0  0  0  0
   -6.4875   -2.8938   -0.0373 C   0  0  0  0  0  0  0  0  0  0  0  0
   -5.9559   -1.5647   -0.1224 C   0  0  0  0  0  0  0  0  0  0  0  0
   -6.8516   -0.5997   -0.3756 N   0  0  0  0  0  0  0  0  0  0  0  0
   -6.4395    0.6449   -0.4700 C   0  0  0  0  0  0  0  0  0  0  0  0
   -5.0909    0.9637   -0.3085 C   0  0  0  0  0  0  0  0  0  0  0  0
   -4.5963   -1.3595    0.0549 C   0  0  0  0  0  0  0  0  0  0  0  0
   -4.1494   -0.0509   -0.0405 C   0  0  0  0  0  0  0  0  0  0  0  0
   -2.8759    0.6002    0.0669 C   0  0  0  0  0  0  0  0  0  0  0  0
   -1.5735    0.2015    0.3214 C   0  0  0  0  0  0  0  0  0  0  0  0
   -0.5845    1.1794    0.3506 C   0  0  0  0  0  0  0  0  0  0  0  0
   -0.9667    2.5123    0.1123 C   0  0  0  0  0  0  0  0  0  0  0  0
   -2.2025    2.9213   -0.1267 N   0  0  0  0  0  0  0  0  0  0  0  0
   -3.1190    1.9722   -0.1415 C   0  0  0  0  0  0  0  0  0  0  0  0
   -4.4544    2.1656   -0.3647 N   0  0  0  0  0  0  0  0  0  0  0  0
    0.8280    0.8466    0.6099 C   0  0  0  0  0  0  0  0  0  0  0  0
    1.3895   -0.3333    0.1158 C   0  0  0  0  0  0  0  0  0  0  0  0
    2.7177   -0.6452    0.3521 C   0  0  0  0  0  0  0  0  0  0  0  0
    1.6450    1.7013    1.3484 C   0  0  0  0  0  0  0  0  0  0  0  0
    2.9786    1.3911    1.5717 C   0  0  0  0  0  0  0  0  0  0  0  0
    3.5350    0.2154    1.0821 C   0  0  0  0  0  0  0  0  0  0  0  0
    4.9735   -0.1302    1.3647 C   0  0  0  0  0  0  0  0  0  0  0  0
    5.6563   -0.6999    0.2230 N   0  0  0  0  0  0  0  0  0  0  0  0
    5.7947    0.2641   -0.8567 C   0  0  0  0  0  0  0  0  0  0  0  0
    6.4389   -0.3652   -2.0814 C   0  0  0  0  0  0  0  0  0  0  0  0
    7.7919   -0.9694   -1.7306 C   0  0  0  0  0  0  0  0  0  0  0  0
    7.6406   -1.9276   -0.5564 C   0  0  0  0  0  0  0  0  0  0  0  0
    6.9460   -1.2470    0.6126 C   0  0  0  0  0  0  0  0  0  0  0  0
   -7.1815    1.4075   -0.6762 H   0  0  0  0  0  0  0  0  0  0  0  0
   -3.9287   -2.1864    0.2561 H   0  0  0  0  0  0  0  0  0  0  0  0
   -1.3364   -0.8384    0.5104 H   0  0  0  0  0  0  0  0  0  0  0  0
   -0.2074    3.2862    0.1011 H   0  0  0  0  0  0  0  0  0  0  0  0
   -4.8876    3.0586   -0.5425 H   0  0  0  0  0  0  0  0  0  0  0  0
    0.7881   -1.0089   -0.4801 H   0  0  0  0  0  0  0  0  0  0  0  0
    3.1353   -1.5576   -0.0550 H   0  0  0  0  0  0  0  0  0  0  0  0
    1.2419    2.6150    1.7674 H   0  0  0  0  0  0  0  0  0  0  0  0
    3.5932    2.0776    2.1421 H   0  0  0  0  0  0  0  0  0  0  0  0
    5.4902    0.7650    1.7516 H   0  0  0  0  0  0  0  0  0  0  0  0
    4.9995   -0.8676    2.1740 H   0  0  0  0  0  0  0  0  0  0  0  0
    4.8066    0.6461   -1.1204 H   0  0  0  0  0  0  0  0  0  0  0  0
    6.3930    1.1361   -0.5336 H   0  0  0  0  0  0  0  0  0  0  0  0
    5.7770   -1.1429   -2.4745 H   0  0  0  0  0  0  0  0  0  0  0  0
    6.5415    0.3915   -2.8623 H   0  0  0  0  0  0  0  0  0  0  0  0
    8.2246   -1.4806   -2.5932 H   0  0  0  0  0  0  0  0  0  0  0  0
    8.4877   -0.1676   -1.4601 H   0  0  0  0  0  0  0  0  0  0  0  0
    7.0555   -2.7993   -0.8644 H   0  0  0  0  0  0  0  0  0  0  0  0
    8.6142   -2.2982   -0.2281 H   0  0  0  0  0  0  0  0  0  0  0  0
    7.6073   -0.4600    1.0188 H   0  0  0  0  0  0  0  0  0  0  0  0
    6.7868   -1.9672    1.4194 H   0  0  0  0  0  0  0  0  0  0  0  0
  1  2  3  0
  2  3  1  0
  3  7  2  0
  3  4  1  0
  7  8  1  0
  4  5  2  0
  8  6  2  0
  8  9  1  0
 18 17  2  0
 18 21  1  0
  5  6  1  0
 17 16  1  0
  6 15  1  0
 10  9  2  0
 10 11  1  0
  9 14  1  0
 24 25  1  0
 24 23  1  0
 22 21  1  0
 22 23  1  0
 25 26  1  0
 21 20  2  0
 16 11  1  0
 16 19  2  0
 11 12  2  0
 15 14  1  0
 14 13  2  0
 23 28  1  0
 12 13  1  0
 20 19  1  0
 26 27  1  0
 28 27  1  0
  5 29  1  0
  7 30  1  0
 10 31  1  0
 12 32  1  0
 15 33  1  0
 17 34  1  0
 18 35  1  0
 19 36  1  0
 20 37  1  0
 22 38  1  0
 22 39  1  0
 24 40  1  0
 24 41  1  0
 25 42  1  0
 25 43  1  0
 26 44  1  0
 26 45  1  0
 27 46  1  0
 27 47  1  0
 28 48  1  0
 28 49  1  0
M  END
