
     RDKit          3D

 29 30  0  0  0  0  0  0  0  0999 V2000
    0.0651   -1.3849   -0.4616 C   0  0  2  0  0  0  0  0  0  0  0  0
   -0.8589   -2.3164    0.0219 O   0  0  0  0  0  0  0  0  0  0  0  0
    1.4541   -1.5480    0.1400 C   0  0  1  0  0  0  0  0  0  0  0  0
    1.9410   -2.7820   -0.3297 O   0  0  0  0  0  0  0  0  0  0  0  0
    2.3355   -0.3859   -0.2957 C   0  0  2  0  0  0  0  0  0  0  0  0
   -0.5266   -0.0056   -0.1600 C   0  0  1  0  0  0  0  0  0  0  0  0
    3.5904   -0.5435    0.3252 O   0  0  0  0  0  0  0  0  0  0  0  0
    1.6884    0.9384    0.1162 C   0  0  1  0  0  0  0  0  0  0  0  0
    2.4434    2.1292   -0.4321 C   0  0  0  0  0  0  0  0  0  0  0  0
    1.8822    3.3081    0.0905 O   0  0  0  0  0  0  0  0  0  0  0  0
    0.3602    1.0356   -0.4051 O   0  0  0  0  0  0  0  0  0  0  0  0
   -3.0940    0.4676    0.0973 C   0  0  0  0  0  0  0  0  0  0  0  0
   -1.9660    0.2781   -1.2456 S   0  0  0  0  0  0  0  0  0  0  0  0
   -2.4166    0.3176    1.2895 N   0  0  0  0  0  0  0  0  0  0  0  0
   -1.0876    0.0641    1.2764 C   0  0  0  0  0  0  0  0  0  0  0  0
   -0.4003   -0.0548    2.2626 O   0  0  0  0  0  0  0  0  0  0  0  0
   -2.9196    0.4216    2.1621 H   0  0  0  0  0  0  0  0  0  0  0  0
   -4.6758    0.7966   -0.8930 H   0  0  0  0  0  0  0  0  0  0  0  0
    0.1799   -1.4608   -1.5548 H   0  0  0  0  0  0  0  0  0  0  0  0
    1.6765    1.0008    1.2108 H   0  0  0  0  0  0  0  0  0  0  0  0
    3.4960    2.0234   -0.1464 H   0  0  0  0  0  0  0  0  0  0  0  0
    2.4025    2.1041   -1.5298 H   0  0  0  0  0  0  0  0  0  0  0  0
    2.4290   -0.4129   -1.3909 H   0  0  0  0  0  0  0  0  0  0  0  0
    2.4278    4.0473   -0.1922 H   0  0  0  0  0  0  0  0  0  0  0  0
    4.2783   -0.2404   -0.2735 H   0  0  0  0  0  0  0  0  0  0  0  0
    1.3877   -1.5493    1.2354 H   0  0  0  0  0  0  0  0  0  0  0  0
    2.7391   -3.0005    0.1618 H   0  0  0  0  0  0  0  0  0  0  0  0
   -0.5277   -3.2028   -0.1593 H   0  0  0  0  0  0  0  0  0  0  0  0
   -4.3283    0.7017    0.0536 N   0  0  0  0  0  0  0  0  0  0  0  0
 16 15  2  0
 15 14  1  0
 15  6  1  0
 14 12  1  0
 12 29  2  0
 12 13  1  0
 13  6  1  0
  6 11  1  1
  6  1  1  0
 11  8  1  0
  8  9  1  0
  8  5  1  0
  9 10  1  0
  5  7  1  0
  5  3  1  0
  3  4  1  0
  3  1  1  0
  1  2  1  0
 14 17  1  0
 29 18  1  0
  1 19  1  6
  8 20  1  1
  9 21  1  0
  9 22  1  0
  5 23  1  6
 10 24  1  0
  7 25  1  0
  3 26  1  1
  4 27  1  0
  2 28  1  0
M  END
