
     RDKit          3D

 43 45  0  0  0  0  0  0  0  0999 V2000
    0.7482    0.1052    0.2554 N   0  0  0  0  0  0  0  0  0  0  0  0
    1.2971   -1.1644    0.6316 C   0  0  2  0  0  0  0  0  0  0  0  0
    0.4237   -1.8431    1.6857 C   0  0  0  0  0  0  0  0  0  0  0  0
   -0.1899   -1.3410    2.6287 O   0  0  0  0  0  0  0  0  0  0  0  0
    2.7175   -1.1006    1.2313 C   0  0  0  0  0  0  0  0  0  0  0  0
    3.7266   -0.5798    0.3051 C   0  0  0  0  0  0  0  0  0  0  0  0
    3.8146   -0.7585   -1.0779 C   0  0  0  0  0  0  0  0  0  0  0  0
    4.8521    0.2467    0.6972 C   0  0  0  0  0  0  0  0  0  0  0  0
    4.9320   -0.0912   -1.5767 N   0  0  0  0  0  0  0  0  0  0  0  0
    5.5887    0.5349   -0.5134 C   0  0  0  0  0  0  0  0  0  0  0  0
    5.3059    0.7621    1.9128 C   0  0  0  0  0  0  0  0  0  0  0  0
    6.7503    1.3230   -0.4851 C   0  0  0  0  0  0  0  0  0  0  0  0
    6.4548    1.5391    1.9256 C   0  0  0  0  0  0  0  0  0  0  0  0
    7.1652    1.8143    0.7427 C   0  0  0  0  0  0  0  0  0  0  0  0
    0.3374   -3.1908    1.5247 O   0  0  0  0  0  0  0  0  0  0  0  0
    0.1330    0.4683   -1.1958 S   0  0  1  0  0  0  0  0  0  0  0  0
   -3.7954    0.2809   -0.4736 C   0  0  0  0  0  0  0  0  0  0  0  0
   -4.8578    1.2165    0.1082 C   0  0  1  0  0  0  0  0  0  0  0  0
   -1.4665   -0.0909   -1.0912 C   0  0  0  0  0  0  0  0  0  0  0  0
   -2.4726    0.7254   -0.5672 C   0  0  0  0  0  0  0  0  0  0  0  0
    0.0964    1.8664   -1.3404 O   0  0  0  0  0  0  0  0  0  0  0  0
    0.7876   -0.2787   -2.2010 O   0  0  0  0  0  0  0  0  0  0  0  0
   -4.1168   -1.0127   -0.9152 C   0  0  0  0  0  0  0  0  0  0  0  0
   -1.8059   -1.3779   -1.5264 C   0  0  0  0  0  0  0  0  0  0  0  0
   -4.3813    2.4287    0.5489 F   0  0  0  0  0  0  0  0  0  0  0  0
   -5.8535    1.5601   -0.7724 F   0  0  0  0  0  0  0  0  0  0  0  0
   -5.5183    0.7129    1.2015 F   0  0  0  0  0  0  0  0  0  0  0  0
   -3.1142   -1.8387   -1.4419 C   0  0  0  0  0  0  0  0  0  0  0  0
   -5.6923   -1.6246   -0.8358 Cl  0  0  0  0  0  0  0  0  0  0  0  0
    0.7853    0.7785    0.9884 H   0  0  0  0  0  0  0  0  0  0  0  0
    1.3282   -1.8354   -0.2831 H   0  0  0  0  0  0  0  0  0  0  0  0
    2.7009   -0.4733    2.1638 H   0  0  0  0  0  0  0  0  0  0  0  0
    2.9912   -2.1497    1.5354 H   0  0  0  0  0  0  0  0  0  0  0  0
    3.1573   -1.3184   -1.7530 H   0  0  0  0  0  0  0  0  0  0  0  0
    5.2128   -0.0644   -2.5204 H   0  0  0  0  0  0  0  0  0  0  0  0
    4.7560    0.5513    2.8407 H   0  0  0  0  0  0  0  0  0  0  0  0
    7.3092    1.5415   -1.4046 H   0  0  0  0  0  0  0  0  0  0  0  0
    6.8240    1.9518    2.8760 H   0  0  0  0  0  0  0  0  0  0  0  0
    8.0716    2.4351    0.7977 H   0  0  0  0  0  0  0  0  0  0  0  0
   -2.2119    1.7448   -0.2208 H   0  0  0  0  0  0  0  0  0  0  0  0
   -1.0213   -2.0365   -1.9432 H   0  0  0  0  0  0  0  0  0  0  0  0
   -3.3652   -2.8541   -1.7889 H   0  0  0  0  0  0  0  0  0  0  0  0
   -0.2276   -3.5699    2.2189 H   0  0  0  0  0  0  0  0  0  0  0  0
  1  2  1  0
 16  1  1  1
  2  3  1  0
  2  5  1  0
  3  4  2  0
  3 15  1  0
  5  6  1  0
  6  7  2  0
  6  8  1  0
  7  9  1  0
  8 10  2  0
  8 11  1  0
  9 10  1  0
 10 12  1  0
 11 13  2  0
 12 14  2  0
 13 14  1  0
 16 19  1  0
 16 21  2  0
 16 22  2  0
 17 18  1  0
 17 20  2  0
 17 23  1  0
 18 25  1  1
 18 26  1  0
 18 27  1  0
 19 20  1  0
 19 24  2  0
 23 28  2  0
 23 29  1  0
 24 28  1  0
 15 43  1  0
  1 30  1  0
  2 31  1  6
  5 32  1  0
  5 33  1  0
  7 34  1  0
  9 35  1  0
 11 36  1  0
 12 37  1  0
 13 38  1  0
 14 39  1  0
 20 40  1  0
 24 41  1  0
 28 42  1  0
M  END
