
     RDKit          3D

 26 25  0  0  0  0  0  0  0  0999 V2000
    1.0482   -1.9573    0.9191 O   0  0  0  0  0  0  0  0  0  0  0  0
   -0.0322   -1.5000    0.6422 C   0  0  0  0  0  0  0  0  0  0  0  0
   -0.2290   -0.2254   -0.1425 C   0  0  1  0  0  0  0  0  0  0  0  0
   -1.6145    0.3907    0.1587 C   0  0  2  0  0  0  0  0  0  0  0  0
   -2.7004   -0.4546   -0.5216 C   0  0  0  0  0  0  0  0  0  0  0  0
   -4.1193   -0.1211   -0.0808 C   0  0  0  0  0  0  0  0  0  0  0  0
   -1.7156    1.8484   -0.2793 C   0  0  0  0  0  0  0  0  0  0  0  0
    0.9528    0.7134    0.0879 C   0  0  1  0  0  0  0  0  0  0  0  0
    0.9495    1.0906    1.4318 O   0  0  0  0  0  0  0  0  0  0  0  0
    2.2974    0.1207   -0.3102 C   0  0  0  0  0  0  0  0  0  0  0  0
    3.2967    0.2326    0.3532 O   0  0  0  0  0  0  0  0  0  0  0  0
   -0.9514   -2.0201    0.9618 H   0  0  0  0  0  0  0  0  0  0  0  0
   -0.2279   -0.5122   -1.2026 H   0  0  0  0  0  0  0  0  0  0  0  0
   -1.7806    0.3518    1.2423 H   0  0  0  0  0  0  0  0  0  0  0  0
   -2.6071   -0.3332   -1.6062 H   0  0  0  0  0  0  0  0  0  0  0  0
   -2.5272   -1.5171   -0.3289 H   0  0  0  0  0  0  0  0  0  0  0  0
   -4.8371   -0.7943   -0.5502 H   0  0  0  0  0  0  0  0  0  0  0  0
   -4.2280   -0.2263    1.0002 H   0  0  0  0  0  0  0  0  0  0  0  0
   -4.4081    0.8954   -0.3469 H   0  0  0  0  0  0  0  0  0  0  0  0
   -1.5053    1.9571   -1.3459 H   0  0  0  0  0  0  0  0  0  0  0  0
   -2.7189    2.2343   -0.1018 H   0  0  0  0  0  0  0  0  0  0  0  0
   -1.0296    2.4922    0.2699 H   0  0  0  0  0  0  0  0  0  0  0  0
    0.8258    1.5803   -0.5799 H   0  0  0  0  0  0  0  0  0  0  0  0
    1.7046    1.6631    1.6029 H   0  0  0  0  0  0  0  0  0  0  0  0
    2.2673   -0.4230   -1.5181 O   0  0  0  0  0  0  0  0  0  0  0  0
    3.1537   -0.7192   -1.7745 H   0  0  0  0  0  0  0  0  0  0  0  0
  1  2  2  0
  2  3  1  0
  5  4  1  0
  5  6  1  0
  9  8  1  0
  4  3  1  0
  4  7  1  0
  3  8  1  0
  8 10  1  0
 10 11  2  0
  2 12  1  0
  3 13  1  6
  4 14  1  1
  5 15  1  0
  5 16  1  0
  6 17  1  0
  6 18  1  0
  6 19  1  0
  7 20  1  0
  7 21  1  0
  7 22  1  0
  8 23  1  6
  9 24  1  0
 10 25  1  0
 25 26  1  0
M  END
