
     RDKit          3D

 20 20  0  0  0  0  0  0  0  0999 V2000
    2.5774    0.0528    0.1637 S   0  0  1  0  0  0  0  0  0  0  0  0
   -2.4542    2.0093    0.0606 Cl  0  0  0  0  0  0  0  0  0  0  0  0
    0.8455   -0.2071    0.0938 C   0  0  0  0  0  0  0  0  0  0  0  0
   -3.8073   -2.0256   -0.0734 C   0  0  0  0  0  0  0  0  0  0  0  0
   -3.2208   -0.7320   -0.0304 O   0  0  0  0  0  0  0  0  0  0  0  0
   -1.8989   -0.6283    0.0035 C   0  0  0  0  0  0  0  0  0  0  0  0
    2.8565    1.3856    0.6596 O   0  0  0  0  0  0  0  0  0  0  0  0
    3.2202   -1.0771    0.8051 O   0  0  0  0  0  0  0  0  0  0  0  0
    0.3500   -1.5005    0.0468 C   0  0  0  0  0  0  0  0  0  0  0  0
   -0.0095    0.8890    0.0958 C   0  0  0  0  0  0  0  0  0  0  0  0
   -1.0164   -1.7091    0.0003 C   0  0  0  0  0  0  0  0  0  0  0  0
   -1.3686    0.6708    0.0510 C   0  0  0  0  0  0  0  0  0  0  0  0
    2.8861    0.0023   -1.4069 O   0  0  0  0  0  0  0  0  0  0  0  0
   -3.5090   -2.5690   -0.9718 H   0  0  0  0  0  0  0  0  0  0  0  0
   -3.5451   -2.6129    0.8085 H   0  0  0  0  0  0  0  0  0  0  0  0
   -4.8819   -1.8699   -0.0911 H   0  0  0  0  0  0  0  0  0  0  0  0
    1.0131   -2.3545    0.0511 H   0  0  0  0  0  0  0  0  0  0  0  0
    0.3700    1.9009    0.1384 H   0  0  0  0  0  0  0  0  0  0  0  0
   -1.3856   -2.7244   -0.0341 H   0  0  0  0  0  0  0  0  0  0  0  0
    3.8429    0.0575   -1.5810 H   0  0  0  0  0  0  0  0  0  0  0  0
  1  3  1  0
  1  7  2  0
  1  8  2  0
  1 13  1  6
  2 12  1  0
  3  9  2  0
  3 10  1  0
  4  5  1  0
  5  6  1  0
  6 11  2  0
  6 12  1  0
  9 11  1  0
 10 12  2  0
  4 14  1  0
  4 15  1  0
  4 16  1  0
  9 17  1  0
 10 18  1  0
 11 19  1  0
 13 20  1  0
M  END
