
     RDKit          3D

 57 61  0  0  0  0  0  0  0  0999 V2000
   -8.1394   -0.6801   -0.5318 F   0  0  0  0  0  0  0  0  0  0  0  0
   -7.0471   -0.0011   -0.8903 C   0  0  1  0  0  0  0  0  0  0  0  0
   -6.5465   -0.6071   -1.9763 F   0  0  0  0  0  0  0  0  0  0  0  0
   -7.4540    1.2139   -1.2875 F   0  0  0  0  0  0  0  0  0  0  0  0
   -6.0355    0.0916    0.2094 C   0  0  0  0  0  0  0  0  0  0  0  0
   -4.8065    0.6678   -0.0814 C   0  0  0  0  0  0  0  0  0  0  0  0
   -6.3135   -0.3683    1.4881 C   0  0  0  0  0  0  0  0  0  0  0  0
   -5.3446   -0.2301    2.4716 C   0  0  0  0  0  0  0  0  0  0  0  0
   -4.1169    0.3503    2.2008 C   0  0  0  0  0  0  0  0  0  0  0  0
   -3.8375    0.8006    0.9090 C   0  0  0  0  0  0  0  0  0  0  0  0
   -2.6391    1.4239    0.5509 N   0  0  0  0  0  0  0  0  0  0  0  0
   -1.4160    1.2497    1.1204 C   0  0  0  0  0  0  0  0  0  0  0  0
   -1.2068    0.4857    2.0447 O   0  0  0  0  0  0  0  0  0  0  0  0
   -0.3213    2.0609    0.5118 C   0  0  0  0  0  0  0  0  0  0  0  0
    0.9764    1.5751    0.6249 C   0  0  0  0  0  0  0  0  0  0  0  0
   -0.5430    3.2851   -0.1115 C   0  0  0  0  0  0  0  0  0  0  0  0
    0.5289    3.9972   -0.6236 C   0  0  0  0  0  0  0  0  0  0  0  0
    1.8284    3.5084   -0.5613 C   0  0  0  0  0  0  0  0  0  0  0  0
    2.9666    4.2821   -1.1546 C   0  0  0  0  0  0  0  0  0  0  0  0
    2.0404    2.2738    0.0700 C   0  0  0  0  0  0  0  0  0  0  0  0
    3.3567    1.7946    0.1562 N   0  0  0  0  0  0  0  0  0  0  0  0
    3.7786    0.5185    0.0244 C   0  0  0  0  0  0  0  0  0  0  0  0
    2.9223   -0.4513   -0.2048 N   0  0  0  0  0  0  0  0  0  0  0  0
    5.1573    0.2022    0.1170 C   0  0  0  0  0  0  0  0  0  0  0  0
    6.3673    0.8475    0.3280 C   0  0  0  0  0  0  0  0  0  0  0  0
    7.2950   -0.1082    0.2799 N   0  0  0  0  0  0  0  0  0  0  0  0
    8.7202    0.0713    0.4396 C   0  0  0  0  0  0  0  0  0  0  0  0
    6.8162   -1.3334    0.0558 N   0  0  0  0  0  0  0  0  0  0  0  0
    5.5056   -1.1585   -0.0463 C   0  0  0  0  0  0  0  0  0  0  0  0
    4.6059   -2.1372   -0.2732 N   0  0  0  0  0  0  0  0  0  0  0  0
    3.3682   -1.7191   -0.3377 C   0  0  0  0  0  0  0  0  0  0  0  0
    2.3195   -2.7340   -0.5795 C   0  0  0  0  0  0  0  0  0  0  0  0
    2.6390   -4.0795   -0.7462 C   0  0  0  0  0  0  0  0  0  0  0  0
    1.6225   -4.9916   -0.9646 C   0  0  0  0  0  0  0  0  0  0  0  0
    0.3150   -4.5296   -1.0098 C   0  0  0  0  0  0  0  0  0  0  0  0
   -0.0083   -3.2511   -0.8530 N   0  0  0  0  0  0  0  0  0  0  0  0
    0.9716   -2.3818   -0.6440 C   0  0  0  0  0  0  0  0  0  0  0  0
   -4.5850    1.0167   -1.0834 H   0  0  0  0  0  0  0  0  0  0  0  0
   -7.2626   -0.8230    1.7337 H   0  0  0  0  0  0  0  0  0  0  0  0
   -5.5531   -0.5750    3.4753 H   0  0  0  0  0  0  0  0  0  0  0  0
   -3.3972    0.4580    2.9959 H   0  0  0  0  0  0  0  0  0  0  0  0
   -2.6671    1.9364   -0.3174 H   0  0  0  0  0  0  0  0  0  0  0  0
    1.1545    0.6463    1.1442 H   0  0  0  0  0  0  0  0  0  0  0  0
   -1.5348    3.7134   -0.1824 H   0  0  0  0  0  0  0  0  0  0  0  0
    0.3495    4.9550   -1.0953 H   0  0  0  0  0  0  0  0  0  0  0  0
    3.6774    4.6116   -0.3922 H   0  0  0  0  0  0  0  0  0  0  0  0
    3.5222    3.6849   -1.8801 H   0  0  0  0  0  0  0  0  0  0  0  0
    2.6059    5.1740   -1.6630 H   0  0  0  0  0  0  0  0  0  0  0  0
    4.0787    2.4913    0.2530 H   0  0  0  0  0  0  0  0  0  0  0  0
    6.6229    1.8799    0.5037 H   0  0  0  0  0  0  0  0  0  0  0  0
    9.0762   -0.5386    1.2662 H   0  0  0  0  0  0  0  0  0  0  0  0
    9.2351   -0.2215   -0.4726 H   0  0  0  0  0  0  0  0  0  0  0  0
    8.9245    1.1163    0.6496 H   0  0  0  0  0  0  0  0  0  0  0  0
    3.6707   -4.4019   -0.7044 H   0  0  0  0  0  0  0  0  0  0  0  0
    1.8342   -6.0435   -1.0975 H   0  0  0  0  0  0  0  0  0  0  0  0
   -0.5036   -5.2200   -1.1798 H   0  0  0  0  0  0  0  0  0  0  0  0
    0.6811   -1.3454   -0.5211 H   0  0  0  0  0  0  0  0  0  0  0  0
 35 36  2  0
 35 34  1  0
 36 37  1  0
 34 33  2  0
 37 32  2  0
 33 32  1  0
 32 31  1  0
 23 31  1  0
 23 22  2  0
 31 30  2  0
 21 22  1  0
 21 20  1  0
 22 24  1  0
 30 29  1  0
 19 18  1  0
 20 18  1  0
 20 15  2  0
 18 17  2  0
 24 29  1  0
 24 25  2  0
 29 28  2  0
 15 14  1  0
 17 16  1  0
 28 26  1  0
 25 26  1  0
 14 16  2  0
 14 12  1  0
 13 12  2  0
  2  1  1  1
 26 27  1  0
 12 11  1  0
 11 10  1  0
  6 10  1  0
  6  5  2  0
  2  3  1  0
  2  4  1  0
  2  5  1  0
 10  9  2  0
  5  7  1  0
  9  8  1  0
  7  8  2  0
  6 38  1  0
  7 39  1  0
  8 40  1  0
  9 41  1  0
 11 42  1  0
 15 43  1  0
 16 44  1  0
 17 45  1  0
 19 46  1  0
 19 47  1  0
 19 48  1  0
 21 49  1  0
 25 50  1  0
 27 51  1  0
 27 52  1  0
 27 53  1  0
 33 54  1  0
 34 55  1  0
 35 56  1  0
 37 57  1  0
M  END
