
     RDKit          3D

 34 36  0  0  0  0  0  0  0  0999 V2000
   -3.3958   -0.3296    0.2314 C   0  0  0  0  0  0  0  0  0  0  0  0
   -4.0831    0.7272   -0.3596 C   0  0  0  0  0  0  0  0  0  0  0  0
   -3.3986    1.8670   -0.7420 C   0  0  0  0  0  0  0  0  0  0  0  0
   -2.0295    1.9430   -0.5524 C   0  0  0  0  0  0  0  0  0  0  0  0
   -1.3219    0.8994    0.0491 C   0  0  0  0  0  0  0  0  0  0  0  0
    0.9649    0.0388    0.0615 C   0  0  0  0  0  0  0  0  0  0  0  0
    2.3817    0.3748    0.3481 C   0  0  0  0  0  0  0  0  0  0  0  0
    0.0521    1.0255    0.2667 N   0  0  0  0  0  0  0  0  0  0  0  0
    2.7868    1.5024    1.0494 C   0  0  0  0  0  0  0  0  0  0  0  0
   -5.2099   -1.8687    0.0281 N   0  0  0  0  0  0  0  0  0  0  0  0
   -4.0759   -1.5762    0.6991 C   0  0  0  0  0  0  0  0  0  0  0  0
   -3.6445   -2.2458    1.6189 O   0  0  0  0  0  0  0  0  0  0  0  0
    5.1113    0.9145    0.8057 C   0  0  0  0  0  0  0  0  0  0  0  0
    4.7389   -0.2398    0.1117 C   0  0  0  0  0  0  0  0  0  0  0  0
    5.5834   -1.2556   -0.4458 C   0  0  0  0  0  0  0  0  0  0  0  0
    4.8733   -2.2361   -1.0411 C   0  0  0  0  0  0  0  0  0  0  0  0
    3.3735   -0.5085   -0.1004 C   0  0  0  0  0  0  0  0  0  0  0  0
   -2.0290   -0.2272    0.4534 C   0  0  0  0  0  0  0  0  0  0  0  0
    4.1373    1.7706    1.2761 C   0  0  0  0  0  0  0  0  0  0  0  0
   -5.8287   -3.0569    0.2740 O   0  0  0  0  0  0  0  0  0  0  0  0
    0.6628   -1.0669   -0.3527 O   0  0  0  0  0  0  0  0  0  0  0  0
    3.1598   -1.9986   -0.9576 S   0  0  0  0  0  0  0  0  0  0  0  0
   -1.1885    3.3629   -1.0645 Cl  0  0  0  0  0  0  0  0  0  0  0  0
   -5.1543    0.6934   -0.5046 H   0  0  0  0  0  0  0  0  0  0  0  0
   -3.9275    2.6960   -1.1907 H   0  0  0  0  0  0  0  0  0  0  0  0
    0.3923    1.9593    0.4353 H   0  0  0  0  0  0  0  0  0  0  0  0
    2.0609    2.1938    1.4583 H   0  0  0  0  0  0  0  0  0  0  0  0
   -5.3936   -1.4949   -0.8924 H   0  0  0  0  0  0  0  0  0  0  0  0
    6.1588    1.1290    0.9749 H   0  0  0  0  0  0  0  0  0  0  0  0
    6.6624   -1.2342   -0.3902 H   0  0  0  0  0  0  0  0  0  0  0  0
    5.2616   -3.1171   -1.5299 H   0  0  0  0  0  0  0  0  0  0  0  0
   -1.5119   -1.0312    0.9551 H   0  0  0  0  0  0  0  0  0  0  0  0
    4.4151    2.6592    1.8259 H   0  0  0  0  0  0  0  0  0  0  0  0
   -6.5821   -2.8519    0.8425 H   0  0  0  0  0  0  0  0  0  0  0  0
  3  2  1  0
  3  4  2  0
  2  1  2  0
 23  4  1  0
  4  5  1  0
 10 20  1  0
 10 11  1  0
  1 11  1  0
  1 18  1  0
 11 12  2  0
  5 18  2  0
  5  8  1  0
 21  6  2  0
  8  6  1  0
  6  7  1  0
  7  9  2  0
  7 17  1  0
 22 17  1  0
 22 16  1  0
  9 19  1  0
 17 14  2  0
 19 13  2  0
 16 15  2  0
 14 13  1  0
 14 15  1  0
  2 24  1  0
  3 25  1  0
  8 26  1  0
  9 27  1  0
 10 28  1  0
 13 29  1  0
 15 30  1  0
 16 31  1  0
 18 32  1  0
 19 33  1  0
 20 34  1  0
M  END
