
     RDKit          3D

 29 30  0  0  0  0  0  0  0  0999 V2000
    3.7727    1.2535    0.3082 N   0  0  0  0  0  0  0  0  0  0  0  0
   -0.2637   -0.4167   -0.9845 N   0  0  0  0  0  0  0  0  0  0  0  0
    0.7668   -0.7201   -0.1703 C   0  0  0  0  0  0  0  0  0  0  0  0
   -1.4459   -1.2297   -1.1229 C   0  0  0  0  0  0  0  0  0  0  0  0
   -2.6642   -0.6401   -0.4521 C   0  0  0  0  0  0  0  0  0  0  0  0
   -2.5789   -0.0139    0.7884 C   0  0  0  0  0  0  0  0  0  0  0  0
   -3.7081    0.4958    1.4124 C   0  0  0  0  0  0  0  0  0  0  0  0
   -5.0550   -0.2460   -0.4504 C   0  0  0  0  0  0  0  0  0  0  0  0
    5.0928    1.5701    0.8068 C   0  0  0  0  0  0  0  0  0  0  0  0
   -3.9112   -0.7449   -1.0594 C   0  0  0  0  0  0  0  0  0  0  0  0
    3.0501    0.1526    0.5473 C   0  0  0  0  0  0  0  0  0  0  0  0
    1.9923    1.5064   -0.8001 C   0  0  0  0  0  0  0  0  0  0  0  0
    1.8635    0.2604   -0.1554 C   0  0  0  0  0  0  0  0  0  0  0  0
   -4.9298    0.3685    0.7792 C   0  0  0  0  0  0  0  0  0  0  0  0
   -6.0266    0.8642    1.3769 F   0  0  0  0  0  0  0  0  0  0  0  0
    3.1353    2.0877   -0.5157 N   0  0  0  0  0  0  0  0  0  0  0  0
    0.8067   -1.7320    0.5154 O   0  0  0  0  0  0  0  0  0  0  0  0
    3.6388   -1.0733    1.5552 Cl  0  0  0  0  0  0  0  0  0  0  0  0
   -0.2393    0.4360   -1.5192 H   0  0  0  0  0  0  0  0  0  0  0  0
   -1.6505   -1.3769   -2.1848 H   0  0  0  0  0  0  0  0  0  0  0  0
   -1.2325   -2.2145   -0.7074 H   0  0  0  0  0  0  0  0  0  0  0  0
   -1.6229    0.0883    1.2860 H   0  0  0  0  0  0  0  0  0  0  0  0
   -3.6367    0.9859    2.3748 H   0  0  0  0  0  0  0  0  0  0  0  0
   -6.0215   -0.3298   -0.9299 H   0  0  0  0  0  0  0  0  0  0  0  0
    5.8403    0.9137    0.3651 H   0  0  0  0  0  0  0  0  0  0  0  0
    5.3098    2.5970    0.5335 H   0  0  0  0  0  0  0  0  0  0  0  0
    5.1254    1.4750    1.8895 H   0  0  0  0  0  0  0  0  0  0  0  0
   -3.9994   -1.2220   -2.0280 H   0  0  0  0  0  0  0  0  0  0  0  0
    1.2925    2.0034   -1.4554 H   0  0  0  0  0  0  0  0  0  0  0  0
  9  1  1  0
 16  1  1  0
 16 12  2  0
  1 11  1  0
 12 13  1  0
 11 13  2  0
 11 18  1  0
 13  3  1  0
  3  2  1  0
  3 17  2  0
  2  4  1  0
  4  5  1  0
  5 10  1  0
  5  6  2  0
 10  8  2  0
  6  7  1  0
  8 14  1  0
  7 14  2  0
 14 15  1  0
  2 19  1  0
  4 20  1  0
  4 21  1  0
  6 22  1  0
  7 23  1  0
  8 24  1  0
  9 25  1  0
  9 26  1  0
  9 27  1  0
 10 28  1  0
 12 29  1  0
M  END
