
     RDKit          3D

 67 70  0  0  0  0  0  0  0  0999 V2000
   -0.9277   -2.2616   -0.4107 C   0  0  0  0  0  0  0  0  0  0  0  0
   -1.6513   -3.4193    0.2649 C   0  0  2  0  0  0  0  0  0  0  0  0
   -1.7576   -4.6218   -0.6677 C   0  0  0  0  0  0  0  0  0  0  0  0
    3.9591   -0.6036   -0.1965 N   0  0  0  0  0  0  0  0  0  0  0  0
   -3.8703   -5.3378    0.5073 C   0  0  0  0  0  0  0  0  0  0  0  0
   -3.7618   -4.1276    1.4299 C   0  0  0  0  0  0  0  0  0  0  0  0
   -2.1122   -0.6147    0.9978 C   0  0  1  0  0  0  0  0  0  0  0  0
   -2.8472    2.1617   -1.4097 C   0  0  2  0  0  0  0  0  0  0  0  0
   -1.3740    3.9857   -0.4666 C   0  0  0  0  0  0  0  0  0  0  0  0
   -1.3224    5.3001   -0.0855 C   0  0  0  0  0  0  0  0  0  0  0  0
   -0.3989    4.2043    1.4850 C   0  0  0  0  0  0  0  0  0  0  0  0
   -3.5439    1.7812   -2.6964 C   0  0  0  0  0  0  0  0  0  0  0  0
   -1.9026    3.3421   -1.6997 C   0  0  0  0  0  0  0  0  0  0  0  0
   -0.7730    3.3056    0.5548 N   0  0  0  0  0  0  0  0  0  0  0  0
   -0.7124    5.4258    1.1316 N   0  0  0  0  0  0  0  0  0  0  0  0
   -2.1295    1.0946   -0.7623 N   0  0  0  0  0  0  0  0  0  0  0  0
   -2.9341    0.0997   -0.0791 C   0  0  0  0  0  0  0  0  0  0  0  0
   -2.8866   -1.7582    1.6521 C   0  0  0  0  0  0  0  0  0  0  0  0
   -3.0305   -2.9765    0.7478 C   0  0  1  0  0  0  0  0  0  0  0  0
   -2.4979   -5.7744    0.0036 C   0  0  0  0  0  0  0  0  0  0  0  0
   -0.8408   -1.1000    0.4623 N   0  0  0  0  0  0  0  0  0  0  0  0
    0.3017   -0.4312    0.7278 C   0  0  0  0  0  0  0  0  0  0  0  0
    0.3335    0.5555    1.4589 O   0  0  0  0  0  0  0  0  0  0  0  0
    1.5817   -0.9381    0.0903 C   0  0  0  0  0  0  0  0  0  0  0  0
    2.7711   -0.0507    0.4142 C   0  0  0  0  0  0  0  0  0  0  0  0
    5.1687    0.0464   -0.1117 C   0  0  0  0  0  0  0  0  0  0  0  0
    6.2223   -0.3349   -0.9583 C   0  0  0  0  0  0  0  0  0  0  0  0
    7.4595    0.2768   -0.8721 C   0  0  0  0  0  0  0  0  0  0  0  0
    7.6941    1.2866    0.0568 C   0  0  0  0  0  0  0  0  0  0  0  0
    6.6570    1.6711    0.8936 C   0  0  0  0  0  0  0  0  0  0  0  0
    5.4076    1.0691    0.8159 C   0  0  0  0  0  0  0  0  0  0  0  0
    0.0665   -2.5854   -0.7061 H   0  0  0  0  0  0  0  0  0  0  0  0
   -1.4520   -1.9932   -1.3365 H   0  0  0  0  0  0  0  0  0  0  0  0
   -1.0607   -3.7158    1.1437 H   0  0  0  0  0  0  0  0  0  0  0  0
   -2.2885   -4.3260   -1.5802 H   0  0  0  0  0  0  0  0  0  0  0  0
   -0.7601   -4.9448   -0.9795 H   0  0  0  0  0  0  0  0  0  0  0  0
    3.8020   -1.0659   -1.0792 H   0  0  0  0  0  0  0  0  0  0  0  0
   -4.3636   -6.1642    1.0245 H   0  0  0  0  0  0  0  0  0  0  0  0
   -4.5071   -5.0828   -0.3469 H   0  0  0  0  0  0  0  0  0  0  0  0
   -4.7559   -3.7991    1.7462 H   0  0  0  0  0  0  0  0  0  0  0  0
   -3.2214   -4.4071    2.3420 H   0  0  0  0  0  0  0  0  0  0  0  0
   -1.8785    0.1239    1.7616 H   0  0  0  0  0  0  0  0  0  0  0  0
   -3.6335    2.5258   -0.7359 H   0  0  0  0  0  0  0  0  0  0  0  0
   -1.6918    6.1554   -0.6322 H   0  0  0  0  0  0  0  0  0  0  0  0
    0.0936    3.9157    2.4012 H   0  0  0  0  0  0  0  0  0  0  0  0
   -4.1557    2.5876   -3.1420 H   0  0  0  0  0  0  0  0  0  0  0  0
   -1.0811    2.9810   -2.3284 H   0  0  0  0  0  0  0  0  0  0  0  0
   -2.4232    4.1035   -2.2839 H   0  0  0  0  0  0  0  0  0  0  0  0
   -0.6901    2.2960    0.6123 H   0  0  0  0  0  0  0  0  0  0  0  0
   -1.5089    0.6493   -1.4284 H   0  0  0  0  0  0  0  0  0  0  0  0
   -3.4035   -0.6181   -0.7619 H   0  0  0  0  0  0  0  0  0  0  0  0
   -3.7524    0.6104    0.4340 H   0  0  0  0  0  0  0  0  0  0  0  0
   -2.3689   -2.0519    2.5709 H   0  0  0  0  0  0  0  0  0  0  0  0
   -3.8714   -1.3883    1.9527 H   0  0  0  0  0  0  0  0  0  0  0  0
   -3.6157   -2.6895   -0.1374 H   0  0  0  0  0  0  0  0  0  0  0  0
   -2.5970   -6.6117   -0.6911 H   0  0  0  0  0  0  0  0  0  0  0  0
   -1.9026   -6.1386    0.8478 H   0  0  0  0  0  0  0  0  0  0  0  0
    1.7853   -1.9601    0.4234 H   0  0  0  0  0  0  0  0  0  0  0  0
    1.4535   -0.9900   -0.9953 H   0  0  0  0  0  0  0  0  0  0  0  0
    2.9100   -0.0052    1.4961 H   0  0  0  0  0  0  0  0  0  0  0  0
    2.5790    0.9753    0.0763 H   0  0  0  0  0  0  0  0  0  0  0  0
    6.0602   -1.1200   -1.6883 H   0  0  0  0  0  0  0  0  0  0  0  0
    8.2502   -0.0384   -1.5417 H   0  0  0  0  0  0  0  0  0  0  0  0
    8.6629    1.7636    0.1208 H   0  0  0  0  0  0  0  0  0  0  0  0
    6.8111    2.4591    1.6205 H   0  0  0  0  0  0  0  0  0  0  0  0
    4.6232    1.4023    1.4823 H   0  0  0  0  0  0  0  0  0  0  0  0
   -3.4499    0.7046   -3.2283 O   0  0  0  0  0  0  0  0  0  0  0  0
 29 30  2  0
 29 28  1  0
 30 31  1  0
 28 27  2  0
 31 26  2  0
 27 26  1  0
 26  4  1  0
  4 25  1  0
 25 24  1  0
 15 10  1  0
 15 11  2  0
 10  9  2  0
 23 22  2  0
 24 22  1  0
 11 14  1  0
 22 21  1  0
 67 12  2  0
  9 14  1  0
  9 13  1  0
  8 12  1  0
  8 16  1  0
  8 13  1  0
 16 17  1  0
 21  7  1  0
 21  1  1  0
 17  7  1  0
  7 18  1  0
  1  2  1  0
 18 19  1  0
  2 19  1  0
  2  3  1  0
 19  6  1  0
  3 20  1  0
  6  5  1  0
 20  5  1  0
  1 32  1  0
  1 33  1  0
  2 34  1  1
  3 35  1  0
  3 36  1  0
  4 37  1  0
  5 38  1  0
  5 39  1  0
  6 40  1  0
  6 41  1  0
  7 42  1  1
  8 43  1  1
 10 44  1  0
 11 45  1  0
 12 46  1  0
 13 47  1  0
 13 48  1  0
 14 49  1  0
 16 50  1  0
 17 51  1  0
 17 52  1  0
 18 53  1  0
 18 54  1  0
 19 55  1  6
 20 56  1  0
 20 57  1  0
 24 58  1  0
 24 59  1  0
 25 60  1  0
 25 61  1  0
 27 62  1  0
 28 63  1  0
 29 64  1  0
 30 65  1  0
 31 66  1  0
M  END
