
     RDKit          3D

 38 38  0  0  0  0  0  0  0  0999 V2000
   -0.3105    0.3900   -2.3176 O   0  0  0  0  0  0  0  0  0  0  0  0
   -0.6153   -0.4246   -1.1325 P   0  0  1  0  0  0  0  0  0  0  0  0
   -0.2320   -1.9461   -1.3793 O   0  0  0  0  0  0  0  0  0  0  0  0
    0.1069    0.0060    0.2457 O   0  0  0  0  0  0  0  0  0  0  0  0
   -2.1039   -0.3765   -0.5718 O   0  0  0  0  0  0  0  0  0  0  0  0
   -3.2103   -0.2784   -1.4737 C   0  0  0  0  0  0  0  0  0  0  0  0
   -4.4991   -0.5528   -0.7427 C   0  0  0  0  0  0  0  0  0  0  0  0
   -4.9979    0.4968    0.2135 N   0  0  2  0  0  0  0  0  0  0  0  0
   -5.1645    1.8105   -0.4663 C   0  0  0  0  0  0  0  0  0  0  0  0
   -4.1001    0.6620    1.3942 C   0  0  0  0  0  0  0  0  0  0  0  0
   -6.3321    0.0355    0.6984 C   0  0  0  0  0  0  0  0  0  0  0  0
    4.2008    0.1190    0.5827 C   0  0  0  0  0  0  0  0  0  0  0  0
    5.6480    0.1605    0.7155 N   0  0  0  0  0  0  0  0  0  0  0  0
    6.2362    1.0952    0.2251 O   0  0  0  0  0  0  0  0  0  0  0  0
    6.1900   -0.7423    1.3082 O   0  0  0  0  0  0  0  0  0  0  0  0
    3.5546    1.1430   -0.0952 C   0  0  0  0  0  0  0  0  0  0  0  0
    2.1784    1.1015   -0.2241 C   0  0  0  0  0  0  0  0  0  0  0  0
    1.4763    0.0401    0.3292 C   0  0  0  0  0  0  0  0  0  0  0  0
    2.1252   -0.9819    1.0063 C   0  0  0  0  0  0  0  0  0  0  0  0
    3.5011   -0.9426    1.1385 C   0  0  0  0  0  0  0  0  0  0  0  0
   -0.4692   -2.5768   -0.6845 H   0  0  0  0  0  0  0  0  0  0  0  0
   -3.1467   -1.0457   -2.2484 H   0  0  0  0  0  0  0  0  0  0  0  0
   -3.2078    0.6912   -1.9728 H   0  0  0  0  0  0  0  0  0  0  0  0
   -4.4308   -1.4856   -0.1835 H   0  0  0  0  0  0  0  0  0  0  0  0
   -5.2776   -0.6691   -1.4968 H   0  0  0  0  0  0  0  0  0  0  0  0
   -4.1964    2.2063   -0.7565 H   0  0  0  0  0  0  0  0  0  0  0  0
   -5.7938    1.6853   -1.3435 H   0  0  0  0  0  0  0  0  0  0  0  0
   -5.6372    2.5011    0.2269 H   0  0  0  0  0  0  0  0  0  0  0  0
   -4.5929    1.3183    2.1062 H   0  0  0  0  0  0  0  0  0  0  0  0
   -3.9266   -0.3085    1.8501 H   0  0  0  0  0  0  0  0  0  0  0  0
   -3.1594    1.1057    1.0892 H   0  0  0  0  0  0  0  0  0  0  0  0
   -7.0130   -0.0446   -0.1445 H   0  0  0  0  0  0  0  0  0  0  0  0
   -6.2214   -0.9348    1.1749 H   0  0  0  0  0  0  0  0  0  0  0  0
   -6.7171    0.7558    1.4142 H   0  0  0  0  0  0  0  0  0  0  0  0
    4.1034    1.9689   -0.5226 H   0  0  0  0  0  0  0  0  0  0  0  0
    1.6590    1.8979   -0.7384 H   0  0  0  0  0  0  0  0  0  0  0  0
    1.5613   -1.7981    1.4369 H   0  0  0  0  0  0  0  0  0  0  0  0
    4.0090   -1.7367    1.6651 H   0  0  0  0  0  0  0  0  0  0  0  0
  1  2  2  0
  2  3  1  6
  2  4  1  0
  2  5  1  0
  3 21  1  0
  4 18  1  0
  5  6  1  0
  6  7  1  0
  6 22  1  0
  6 23  1  0
  8  7  1  6
  7 24  1  0
  7 25  1  0
  8  9  1  0
  8 10  1  0
  8 11  1  0
  9 26  1  0
  9 27  1  0
  9 28  1  0
 10 29  1  0
 10 30  1  0
 10 31  1  0
 11 32  1  0
 11 33  1  0
 11 34  1  0
 12 13  1  0
 12 16  2  0
 12 20  1  0
 13 14  1  0
 13 15  2  0
 16 17  1  0
 16 35  1  0
 17 18  2  0
 17 36  1  0
 18 19  1  0
 19 20  2  0
 19 37  1  0
 20 38  1  0
M  CHG  3   8   1  13   1  14  -1
M  END
