
     RDKit          3D

 46 48  0  0  0  0  0  0  0  0999 V2000
   -1.6059    1.7360   -2.2550 C   0  0  0  0  0  0  0  0  0  0  0  0
   -0.9314    2.4411   -3.4288 C   0  0  0  0  0  0  0  0  0  0  0  0
    0.5861    2.2893   -3.3503 C   0  0  2  0  0  0  0  0  0  0  0  0
    1.1231    2.8076   -2.0153 C   0  0  0  0  0  0  0  0  0  0  0  0
    0.4426    2.1062   -0.8438 C   0  0  0  0  0  0  0  0  0  0  0  0
   -1.0745    2.2414   -0.9175 C   0  0  0  0  0  0  0  0  0  0  0  0
    2.1969    2.3344   -5.2220 C   0  0  0  0  0  0  0  0  0  0  0  0
    2.6618    3.3367   -6.2558 C   0  0  0  0  0  0  0  0  0  0  0  0
    2.2338    4.6781   -5.6761 C   0  0  1  0  0  0  0  0  0  0  0  0
    0.9891    4.2995   -4.8499 C   0  0  0  0  0  0  0  0  0  0  0  0
    1.2504    2.9273   -4.4691 N   0  0  0  0  0  0  0  0  0  0  0  0
    3.2903    5.2194   -4.7326 C   0  0  0  0  0  0  0  0  0  0  0  0
    3.3242    6.5749   -4.6574 N   0  0  0  0  0  0  0  0  0  0  0  0
    4.0028    4.4892   -4.0705 O   0  0  0  0  0  0  0  0  0  0  0  0
    2.5859    1.1827   -5.1103 O   0  0  0  0  0  0  0  0  0  0  0  0
    4.1077    7.3385   -3.7772 C   0  0  0  0  0  0  0  0  0  0  0  0
    3.5292    8.4644   -3.1757 C   0  0  0  0  0  0  0  0  0  0  0  0
    2.0947    8.8238   -3.4252 C   0  0  0  0  0  0  0  0  0  0  0  0
    4.3207    9.2342   -2.3314 C   0  0  0  0  0  0  0  0  0  0  0  0
    5.6411    8.9086   -2.0609 C   0  0  0  0  0  0  0  0  0  0  0  0
    6.1805    7.7891   -2.6692 C   0  0  0  0  0  0  0  0  0  0  0  0
    7.8339    7.3622   -2.3624 Cl  0  0  0  0  0  0  0  0  0  0  0  0
    5.4356    7.0028   -3.5310 C   0  0  0  0  0  0  0  0  0  0  0  0
    2.6623    7.0807   -5.2262 H   0  0  0  0  0  0  0  0  0  0  0  0
    1.9834    5.4112   -6.4431 H   0  0  0  0  0  0  0  0  0  0  0  0
    0.8525    4.9372   -3.9742 H   0  0  0  0  0  0  0  0  0  0  0  0
    0.0847    4.3824   -5.4593 H   0  0  0  0  0  0  0  0  0  0  0  0
    3.7293    3.2462   -6.4498 H   0  0  0  0  0  0  0  0  0  0  0  0
    2.1390    3.1362   -7.1952 H   0  0  0  0  0  0  0  0  0  0  0  0
    0.8245    1.2244   -3.4240 H   0  0  0  0  0  0  0  0  0  0  0  0
    0.9499    3.8874   -1.9433 H   0  0  0  0  0  0  0  0  0  0  0  0
    2.2051    2.6608   -1.9764 H   0  0  0  0  0  0  0  0  0  0  0  0
    0.8174    2.5113    0.0987 H   0  0  0  0  0  0  0  0  0  0  0  0
    0.7113    1.0441   -0.8530 H   0  0  0  0  0  0  0  0  0  0  0  0
   -1.5424    1.6944   -0.0955 H   0  0  0  0  0  0  0  0  0  0  0  0
   -1.3522    3.2932   -0.7889 H   0  0  0  0  0  0  0  0  0  0  0  0
   -1.4306    0.6575   -2.3300 H   0  0  0  0  0  0  0  0  0  0  0  0
   -2.6874    1.8775   -2.3122 H   0  0  0  0  0  0  0  0  0  0  0  0
   -1.2952    2.0378   -4.3771 H   0  0  0  0  0  0  0  0  0  0  0  0
   -1.2025    3.5029   -3.4099 H   0  0  0  0  0  0  0  0  0  0  0  0
    3.8908   10.1092   -1.8603 H   0  0  0  0  0  0  0  0  0  0  0  0
    6.2320    9.5168   -1.3902 H   0  0  0  0  0  0  0  0  0  0  0  0
    5.8891    6.1518   -4.0157 H   0  0  0  0  0  0  0  0  0  0  0  0
    1.4239    8.0050   -3.1576 H   0  0  0  0  0  0  0  0  0  0  0  0
    1.8058    9.6933   -2.8383 H   0  0  0  0  0  0  0  0  0  0  0  0
    1.9053    9.0660   -4.4737 H   0  0  0  0  0  0  0  0  0  0  0  0
  1  6  1  0
  1 37  1  0
  1 38  1  0
  1  2  1  0
  2  3  1  0
  2 39  1  0
  2 40  1  0
  3 11  1  0
  3 30  1  1
  3  4  1  0
  4 31  1  0
  4 32  1  0
  4  5  1  0
  5 33  1  0
  5 34  1  0
  5  6  1  0
  6 35  1  0
  6 36  1  0
  7 11  1  0
  7 15  2  0
  7  8  1  0
  8  9  1  0
  8 28  1  0
  8 29  1  0
  9 12  1  0
  9 25  1  6
  9 10  1  0
 10 26  1  0
 10 27  1  0
 10 11  1  0
 12 13  1  0
 12 14  2  0
 13 24  1  0
 13 16  1  0
 16 17  2  0
 16 23  1  0
 17 19  1  0
 17 18  1  0
 18 44  1  0
 18 45  1  0
 18 46  1  0
 19 41  1  0
 19 20  2  0
 20 42  1  0
 20 21  1  0
 21 22  1  0
 21 23  2  0
 23 43  1  0
M  END
