
     RDKit          3D

 33 35  0  0  0  0  0  0  0  0999 V2000
    4.2170   -1.8566    0.3155 O   0  0  0  0  0  0  0  0  0  0  0  0
    3.4415   -0.9124    0.2552 C   0  0  0  0  0  0  0  0  0  0  0  0
    3.8875    0.4016    0.4596 N   0  0  0  0  0  0  0  0  0  0  0  0
    3.1150    1.5199    0.4121 C   0  0  0  0  0  0  0  0  0  0  0  0
    3.7099    2.6924    0.6649 N   0  0  0  0  0  0  0  0  0  0  0  0
    1.8260    1.4821    0.1610 N   0  0  0  0  0  0  0  0  0  0  0  0
    1.3496    0.2518   -0.0386 C   0  0  0  0  0  0  0  0  0  0  0  0
    2.0565   -0.9212   -0.0069 C   0  0  0  0  0  0  0  0  0  0  0  0
    1.1623   -1.9473   -0.2714 N   0  0  0  0  0  0  0  0  0  0  0  0
   -0.0842   -1.4428   -0.4662 C   0  0  0  0  0  0  0  0  0  0  0  0
   -1.1097   -2.0522   -0.7116 O   0  0  0  0  0  0  0  0  0  0  0  0
    0.0459   -0.0598   -0.3302 N   0  0  0  0  0  0  0  0  0  0  0  0
   -1.0372    0.8942   -0.4010 C   0  0  2  0  0  0  0  0  0  0  0  0
   -1.9223    0.6698    0.6679 O   0  0  0  0  0  0  0  0  0  0  0  0
   -1.8653    0.8508   -1.6880 C   0  0  0  0  0  0  0  0  0  0  0  0
   -3.2038    0.2473   -1.2677 C   0  0  2  0  0  0  0  0  0  0  0  0
   -4.3264    0.7940   -1.9124 O   0  0  0  0  0  0  0  0  0  0  0  0
   -3.2661    0.5917    0.2198 C   0  0  1  0  0  0  0  0  0  0  0  0
   -4.0213   -0.4351    1.0268 C   0  0  0  0  0  0  0  0  0  0  0  0
   -4.1297    0.0056    2.3598 O   0  0  0  0  0  0  0  0  0  0  0  0
    4.8761    0.5034    0.6516 H   0  0  0  0  0  0  0  0  0  0  0  0
    4.7120    2.7783    0.6626 H   0  0  0  0  0  0  0  0  0  0  0  0
    3.1849    3.5325    0.4910 H   0  0  0  0  0  0  0  0  0  0  0  0
   -0.5553    1.8682   -0.2913 H   0  0  0  0  0  0  0  0  0  0  0  0
   -2.0282    1.8732   -2.0344 H   0  0  0  0  0  0  0  0  0  0  0  0
   -1.3712    0.3040   -2.4898 H   0  0  0  0  0  0  0  0  0  0  0  0
   -3.1715   -0.8392   -1.3922 H   0  0  0  0  0  0  0  0  0  0  0  0
   -4.3691    0.4314   -2.8020 H   0  0  0  0  0  0  0  0  0  0  0  0
   -3.7506    1.5735    0.3309 H   0  0  0  0  0  0  0  0  0  0  0  0
   -5.0060   -0.5669    0.5588 H   0  0  0  0  0  0  0  0  0  0  0  0
   -3.4964   -1.3967    0.9547 H   0  0  0  0  0  0  0  0  0  0  0  0
   -4.6172   -0.6586    2.8550 H   0  0  0  0  0  0  0  0  0  0  0  0
    1.3774   -2.9305   -0.3102 H   0  0  0  0  0  0  0  0  0  0  0  0
  1  2  2  0
  2  3  1  0
  2  8  1  0
  3  4  1  0
  3 21  1  0
  4  5  1  0
  4  6  2  0
  5 22  1  0
  5 23  1  0
  6  7  1  0
  7  8  2  0
  7 12  1  0
  8  9  1  0
  9 10  1  0
 10 11  2  0
 10 12  1  0
 12 13  1  0
 13 14  1  0
 13 15  1  0
 13 24  1  1
 14 18  1  0
 15 16  1  0
 15 25  1  0
 15 26  1  0
 16 17  1  0
 16 18  1  0
 16 27  1  1
 17 28  1  0
 18 19  1  0
 18 29  1  6
 19 20  1  0
 19 30  1  0
 19 31  1  0
 20 32  1  0
  9 33  1  0
M  END
