
     RDKit          3D

 33 34  0  0  0  0  0  0  0  0999 V2000
    4.2102    1.4702   -0.8937 O   0  0  0  0  0  0  0  0  0  0  0  0
    3.8544    0.6647   -0.0555 C   0  0  0  0  0  0  0  0  0  0  0  0
    4.8471    0.1066    0.9354 C   0  0  0  0  0  0  0  0  0  0  0  0
    4.5518   -1.3270    1.3404 C   0  0  0  0  0  0  0  0  0  0  0  0
    3.1366   -1.4353    1.8853 C   0  0  0  0  0  0  0  0  0  0  0  0
    2.1111   -0.9673    0.8889 C   0  0  0  0  0  0  0  0  0  0  0  0
    1.0440   -1.5424    0.7725 O   0  0  0  0  0  0  0  0  0  0  0  0
    2.4533    0.2125    0.0716 C   0  0  0  0  0  0  0  0  0  0  0  0
    1.4398    0.8714   -0.5693 C   0  0  0  0  0  0  0  0  0  0  0  0
    1.6649    1.9175   -1.3280 O   0  0  0  0  0  0  0  0  0  0  0  0
   -0.0062    0.6046   -0.3144 C   0  0  0  0  0  0  0  0  0  0  0  0
   -0.6080    1.3416    0.6924 C   0  0  0  0  0  0  0  0  0  0  0  0
   -1.9665    1.2196    0.9511 C   0  0  0  0  0  0  0  0  0  0  0  0
   -2.7387    0.3562    0.1933 C   0  0  0  0  0  0  0  0  0  0  0  0
   -4.2098    0.1972    0.4382 C   0  0  1  0  0  0  0  0  0  0  0  0
   -4.6633    1.0388    1.3665 F   0  0  0  0  0  0  0  0  0  0  0  0
   -4.9140    0.4148   -0.6782 F   0  0  0  0  0  0  0  0  0  0  0  0
   -4.5039   -1.0434    0.8447 F   0  0  0  0  0  0  0  0  0  0  0  0
   -2.1546   -0.3988   -0.8156 C   0  0  0  0  0  0  0  0  0  0  0  0
   -0.8055   -0.2578   -1.0596 C   0  0  0  0  0  0  0  0  0  0  0  0
   -0.2045   -1.0641   -2.1071 N   0  0  0  0  0  0  0  0  0  0  0  0
   -0.8121   -2.0255   -2.5062 O   0  0  0  0  0  0  0  0  0  0  0  0
    0.8771   -0.7177   -2.5196 O   0  0  0  0  0  0  0  0  0  0  0  0
    5.8496    0.2118    0.5198 H   0  0  0  0  0  0  0  0  0  0  0  0
    4.8020    0.7485    1.8236 H   0  0  0  0  0  0  0  0  0  0  0  0
    4.6764   -1.9950    0.4844 H   0  0  0  0  0  0  0  0  0  0  0  0
    5.2641   -1.6515    2.0988 H   0  0  0  0  0  0  0  0  0  0  0  0
    2.8949   -2.4534    2.1904 H   0  0  0  0  0  0  0  0  0  0  0  0
    3.0420   -0.7977    2.7727 H   0  0  0  0  0  0  0  0  0  0  0  0
    0.8403    2.3189   -1.6362 H   0  0  0  0  0  0  0  0  0  0  0  0
   -0.0109    2.0116    1.2958 H   0  0  0  0  0  0  0  0  0  0  0  0
   -2.3983    1.8093    1.7472 H   0  0  0  0  0  0  0  0  0  0  0  0
   -2.7432   -1.0855   -1.4084 H   0  0  0  0  0  0  0  0  0  0  0  0
  1  2  2  0
  2  3  1  0
  2  8  1  0
  3  4  1  0
  3 24  1  0
  3 25  1  0
  4  5  1  0
  4 26  1  0
  4 27  1  0
  5  6  1  0
  5 28  1  0
  5 29  1  0
  6  7  2  0
  6  8  1  0
  8  9  2  0
  9 10  1  0
  9 11  1  0
 10 30  1  0
 11 12  2  0
 11 20  1  0
 12 13  1  0
 12 31  1  0
 13 14  2  0
 13 32  1  0
 14 15  1  0
 14 19  1  0
 15 16  1  1
 15 17  1  0
 15 18  1  0
 19 20  2  0
 19 33  1  0
 20 21  1  0
 21 22  2  0
 21 23  1  0
M  CHG  2  21   1  23  -1
M  END
