
     RDKit          3D

 26 26  0  0  0  0  0  0  0  0999 V2000
    2.1857   -1.9022    0.3033 O   0  0  0  0  0  0  0  0  0  0  0  0
    1.7226   -0.7952    0.1550 C   0  0  0  0  0  0  0  0  0  0  0  0
    2.4610    0.2884   -0.0184 O   0  0  0  0  0  0  0  0  0  0  0  0
    4.4897    1.5085   -0.2512 C   0  0  0  0  0  0  0  0  0  0  0  0
    3.8894    0.1414   -0.0328 C   0  0  0  0  0  0  0  0  0  0  0  0
    0.2680   -0.5060    0.1474 C   0  0  0  0  0  0  0  0  0  0  0  0
   -0.2426    0.7748   -0.0511 C   0  0  0  0  0  0  0  0  0  0  0  0
   -1.6123    0.9920   -0.0531 C   0  0  0  0  0  0  0  0  0  0  0  0
   -2.5021   -0.0602    0.1390 C   0  0  0  0  0  0  0  0  0  0  0  0
   -3.9946    0.1474    0.1646 C   0  0  0  0  0  0  0  0  0  0  0  0
   -4.3985    1.4166   -0.4058 N   0  0  0  0  0  0  0  0  0  0  0  0
   -1.9843   -1.3412    0.3313 C   0  0  0  0  0  0  0  0  0  0  0  0
   -0.6204   -1.5640    0.3401 C   0  0  0  0  0  0  0  0  0  0  0  0
    4.2230   -0.2853    0.9152 H   0  0  0  0  0  0  0  0  0  0  0  0
    4.1798   -0.5444   -0.8311 H   0  0  0  0  0  0  0  0  0  0  0  0
    0.4200    1.6152   -0.2062 H   0  0  0  0  0  0  0  0  0  0  0  0
   -1.9956    1.9912   -0.2100 H   0  0  0  0  0  0  0  0  0  0  0  0
   -4.4690   -0.7253   -0.3046 H   0  0  0  0  0  0  0  0  0  0  0  0
   -4.3174    0.1284    1.2101 H   0  0  0  0  0  0  0  0  0  0  0  0
   -4.2842    1.3918   -1.4113 H   0  0  0  0  0  0  0  0  0  0  0  0
   -5.3868    1.5535   -0.2410 H   0  0  0  0  0  0  0  0  0  0  0  0
   -2.6600   -2.1766    0.4732 H   0  0  0  0  0  0  0  0  0  0  0  0
   -0.2430   -2.5665    0.4924 H   0  0  0  0  0  0  0  0  0  0  0  0
    4.1740    1.9387   -1.2018 H   0  0  0  0  0  0  0  0  0  0  0  0
    4.2224    2.1977    0.5498 H   0  0  0  0  0  0  0  0  0  0  0  0
    5.5757    1.4221   -0.2687 H   0  0  0  0  0  0  0  0  0  0  0  0
 11 10  1  0
  8  7  1  0
  8  9  2  0
  7  6  2  0
 10  9  1  0
  9 12  1  0
  1  2  2  0
  6  2  1  0
  6 13  1  0
  2  3  1  0
 12 13  2  0
  3  5  1  0
  5 14  1  0
  5 15  1  0
  5  4  1  0
  7 16  1  0
  8 17  1  0
 10 18  1  0
 10 19  1  0
 11 20  1  0
 11 21  1  0
 12 22  1  0
 13 23  1  0
  4 24  1  0
  4 25  1  0
  4 26  1  0
M  END
