
     RDKit          3D

 46 49  0  0  0  0  0  0  0  0999 V2000
   -3.2680   -1.7376    0.3734 N   0  0  0  0  0  0  0  0  0  0  0  0
   -3.1160   -3.0352    0.3644 C   0  0  0  0  0  0  0  0  0  0  0  0
   -1.7788   -3.4249    0.1110 C   0  0  0  0  0  0  0  0  0  0  0  0
   -1.0757   -2.2259   -0.0459 C   0  0  0  0  0  0  0  0  0  0  0  0
   -2.0275   -1.2582    0.1246 N   0  0  0  0  0  0  0  0  0  0  0  0
    0.1873   -1.9391   -0.2999 N   0  0  0  0  0  0  0  0  0  0  0  0
    0.4640   -0.6366   -0.3851 C   0  0  0  0  0  0  0  0  0  0  0  0
   -0.4377    0.3624   -0.2252 N   0  0  0  0  0  0  0  0  0  0  0  0
   -1.6736    0.0560    0.0318 C   0  0  0  0  0  0  0  0  0  0  0  0
   -2.6522    0.9447    0.2131 N   0  0  0  0  0  0  0  0  0  0  0  0
   -2.5632    2.3461    0.1484 C   0  0  0  0  0  0  0  0  0  0  0  0
   -3.6931    3.0341   -0.2885 C   0  0  0  0  0  0  0  0  0  0  0  0
   -3.6893    4.4189   -0.3378 C   0  0  0  0  0  0  0  0  0  0  0  0
   -2.5578    5.1304    0.0381 C   0  0  0  0  0  0  0  0  0  0  0  0
   -1.4368    4.4406    0.4782 C   0  0  0  0  0  0  0  0  0  0  0  0
   -1.4314    3.0544    0.5445 C   0  0  0  0  0  0  0  0  0  0  0  0
    1.7206   -0.2703   -0.6561 N   0  0  0  0  0  0  0  0  0  0  0  0
    2.1517    1.1092   -0.7824 C   0  0  0  0  0  0  0  0  0  0  0  0
    3.2945    1.3863    0.1786 C   0  0  0  0  0  0  0  0  0  0  0  0
    4.3921    0.4665   -0.0474 N   0  0  0  0  0  0  0  0  0  0  0  0
    3.9390   -0.8993    0.1316 C   0  0  0  0  0  0  0  0  0  0  0  0
    2.8010   -1.2239   -0.8219 C   0  0  0  0  0  0  0  0  0  0  0  0
    5.5400    0.7937    0.7822 C   0  0  0  0  0  0  0  0  0  0  0  0
    6.8101    0.0728    0.3621 C   0  0  0  0  0  0  0  0  0  0  0  0
   -1.2466   -4.7190    0.0236 C   0  0  0  0  0  0  0  0  0  0  0  0
   -0.8078   -5.7850   -0.0499 N   0  0  0  0  0  0  0  0  0  0  0  0
   -3.9585   -3.6866    0.5393 H   0  0  0  0  0  0  0  0  0  0  0  0
   -3.5816    0.5570    0.3118 H   0  0  0  0  0  0  0  0  0  0  0  0
   -4.5751    2.4838   -0.5937 H   0  0  0  0  0  0  0  0  0  0  0  0
   -4.5745    4.9394   -0.6786 H   0  0  0  0  0  0  0  0  0  0  0  0
   -2.5518    6.2112   -0.0062 H   0  0  0  0  0  0  0  0  0  0  0  0
   -0.5522    4.9828    0.7862 H   0  0  0  0  0  0  0  0  0  0  0  0
   -0.5573    2.5391    0.9107 H   0  0  0  0  0  0  0  0  0  0  0  0
    2.4886    1.2787   -1.8100 H   0  0  0  0  0  0  0  0  0  0  0  0
    1.3206    1.7796   -0.5883 H   0  0  0  0  0  0  0  0  0  0  0  0
    3.6437    2.4079    0.0130 H   0  0  0  0  0  0  0  0  0  0  0  0
    2.9148    1.3341    1.2140 H   0  0  0  0  0  0  0  0  0  0  0  0
    4.7545   -1.5944   -0.0747 H   0  0  0  0  0  0  0  0  0  0  0  0
    3.6087   -1.0857    1.1686 H   0  0  0  0  0  0  0  0  0  0  0  0
    2.4353   -2.2298   -0.6410 H   0  0  0  0  0  0  0  0  0  0  0  0
    3.1613   -1.1733   -1.8544 H   0  0  0  0  0  0  0  0  0  0  0  0
    5.7046    1.8706    0.6971 H   0  0  0  0  0  0  0  0  0  0  0  0
    5.3378    0.5962    1.8487 H   0  0  0  0  0  0  0  0  0  0  0  0
    6.7615   -1.0015    0.5394 H   0  0  0  0  0  0  0  0  0  0  0  0
    7.0132    0.2331   -0.6973 H   0  0  0  0  0  0  0  0  0  0  0  0
    7.6581    0.4545    0.9308 H   0  0  0  0  0  0  0  0  0  0  0  0
  1  2  2  0
  1  5  1  0
  2  3  1  0
  2 27  1  0
  3 25  1  0
  3  4  2  0
  4  6  1  0
  4  5  1  0
  5  9  1  0
  6  7  2  0
  7 17  1  0
  7  8  1  0
  8  9  2  0
  9 10  1  0
 10 11  1  0
 10 28  1  0
 11 12  2  0
 11 16  1  0
 12 13  1  0
 12 29  1  0
 13 14  2  0
 13 30  1  0
 14 15  1  0
 14 31  1  0
 15 16  2  0
 15 32  1  0
 16 33  1  0
 17 22  1  0
 17 18  1  0
 18 19  1  0
 18 34  1  0
 18 35  1  0
 19 20  1  0
 19 36  1  0
 19 37  1  0
 20 21  1  0
 20 23  1  0
 21 22  1  0
 21 38  1  0
 21 39  1  0
 22 40  1  0
 22 41  1  0
 23 24  1  0
 23 42  1  0
 23 43  1  0
 24 44  1  0
 24 45  1  0
 24 46  1  0
 25 26  3  0
M  END
