
     RDKit          3D

 41 44  0  0  0  0  0  0  0  0999 V2000
    6.0929    1.5740    1.1146 C   0  0  0  0  0  0  0  0  0  0  0  0
    6.5237    0.4137    0.5404 C   0  0  0  0  0  0  0  0  0  0  0  0
   -5.0840    0.2182   -0.9002 C   0  0  0  0  0  0  0  0  0  0  0  0
   -2.6258    1.0764   -1.0580 C   0  0  0  0  0  0  0  0  0  0  0  0
    1.9910    1.2798    0.8020 C   0  0  0  0  0  0  0  0  0  0  0  0
   -3.2909   -0.2235    0.6561 C   0  0  0  0  0  0  0  0  0  0  0  0
    4.3462    0.5387    0.4659 C   0  0  0  0  0  0  0  0  0  0  0  0
    1.8583   -1.8005   -0.3555 C   0  0  0  0  0  0  0  0  0  0  0  0
    2.9166    0.2034    0.1791 C   0  0  2  0  0  0  0  0  0  0  0  0
   -5.4073   -1.1562    1.0889 C   0  0  0  0  0  0  0  0  0  0  0  0
   -4.0903   -0.9976    1.4788 C   0  0  0  0  0  0  0  0  0  0  0  0
   -5.8838   -0.5528   -0.0829 C   0  0  0  0  0  0  0  0  0  0  0  0
   -3.7529    0.3829   -0.5139 C   0  0  0  0  0  0  0  0  0  0  0  0
   -1.6048    0.8437   -0.2033 C   0  0  0  0  0  0  0  0  0  0  0  0
    2.6519    0.1165   -1.3315 C   0  0  0  0  0  0  0  0  0  0  0  0
   -0.2060    1.3039   -0.2847 C   0  0  0  0  0  0  0  0  0  0  0  0
    4.7339    1.6381    1.0611 N   0  0  0  0  0  0  0  0  0  0  0  0
    1.9586   -1.0369   -1.5184 N   0  0  0  0  0  0  0  0  0  0  0  0
    2.5336   -1.1215    0.6028 N   0  0  0  0  0  0  0  0  0  0  0  0
    0.6038    0.9114    0.7163 N   0  0  0  0  0  0  0  0  0  0  0  0
    5.4010   -0.2416    0.1245 N   0  0  0  0  0  0  0  0  0  0  0  0
    3.0052    0.9128   -2.1614 O   0  0  0  0  0  0  0  0  0  0  0  0
    1.2962   -2.8655   -0.2645 O   0  0  0  0  0  0  0  0  0  0  0  0
    0.1525    1.9905   -1.2270 O   0  0  0  0  0  0  0  0  0  0  0  0
   -1.9861    0.0591    0.8406 O   0  0  0  0  0  0  0  0  0  0  0  0
    6.6863    2.3570    1.5596 H   0  0  0  0  0  0  0  0  0  0  0  0
    7.5082    0.0023    0.3932 H   0  0  0  0  0  0  0  0  0  0  0  0
   -5.4693    0.6751   -1.8012 H   0  0  0  0  0  0  0  0  0  0  0  0
   -2.5866    1.6647   -1.9600 H   0  0  0  0  0  0  0  0  0  0  0  0
    2.2510    1.3837    1.8539 H   0  0  0  0  0  0  0  0  0  0  0  0
    2.1649    2.2418    0.3245 H   0  0  0  0  0  0  0  0  0  0  0  0
    4.8378   -1.5013   -1.4653 H   0  0  0  0  0  0  0  0  0  0  0  0
    6.4199   -1.8045   -0.7678 H   0  0  0  0  0  0  0  0  0  0  0  0
    4.9738   -2.2998    0.1151 H   0  0  0  0  0  0  0  0  0  0  0  0
   -6.0750   -1.7532    1.6940 H   0  0  0  0  0  0  0  0  0  0  0  0
   -3.7138   -1.4591    2.3812 H   0  0  0  0  0  0  0  0  0  0  0  0
    1.6254   -1.3651   -2.4145 H   0  0  0  0  0  0  0  0  0  0  0  0
    2.4599   -1.3792    1.5756 H   0  0  0  0  0  0  0  0  0  0  0  0
    0.2194    0.3861    1.4855 H   0  0  0  0  0  0  0  0  0  0  0  0
    5.3952   -1.5339   -0.5311 C   0  0  0  0  0  0  0  0  0  0  0  0
   -7.5475   -0.7922   -0.5122 Cl  0  0  0  0  0  0  0  0  0  0  0  0
 41 12  1  0
 10 11  2  0
 10 12  1  0
 11  6  1  0
 12  3  2  0
  6 13  2  0
  6 25  1  0
  3 13  1  0
 13  4  1  0
 25 14  1  0
 14  4  2  0
 14 16  1  0
 22 15  2  0
 20 16  1  0
 20  5  1  0
 16 24  2  0
  9  5  1  1
 15 18  1  0
 15  9  1  0
 18  8  1  0
  9  7  1  0
  9 19  1  0
  8 19  1  0
  8 23  2  0
 17  7  2  0
 17  1  1  0
  7 21  1  0
  1  2  2  0
 21 40  1  0
 21  2  1  0
  1 26  1  0
  2 27  1  0
  3 28  1  0
  4 29  1  0
  5 30  1  0
  5 31  1  0
 40 32  1  0
 40 33  1  0
 40 34  1  0
 10 35  1  0
 11 36  1  0
 18 37  1  0
 19 38  1  0
 20 39  1  0
M  END
