
     RDKit          3D

 33 34  0  0  0  0  0  0  0  0999 V2000
    0.9076   -0.0542    0.0840 N   0  0  0  0  0  0  0  0  0  0  0  0
   -1.0776   -3.7083   -0.2932 N   0  0  0  0  0  0  0  0  0  0  0  0
    5.1037    0.1070   -1.1579 N   0  0  0  0  0  0  0  0  0  0  0  0
    5.2201    0.6321    1.1588 N   0  0  0  0  0  0  0  0  0  0  0  0
   -4.6806   -0.2129    0.0387 N   0  0  0  0  0  0  0  0  0  0  0  0
    7.0600   -0.1168    0.0154 N   0  0  0  0  0  0  0  0  0  0  0  0
   -2.5218   -1.2981    0.1148 C   0  0  0  0  0  0  0  0  0  0  0  0
   -1.1445   -1.3311    0.0978 C   0  0  0  0  0  0  0  0  0  0  0  0
   -0.4273   -0.0983    0.0534 C   0  0  0  0  0  0  0  0  0  0  0  0
   -1.1743    1.0948   -0.0434 C   0  0  0  0  0  0  0  0  0  0  0  0
   -2.5478    1.0960   -0.0630 C   0  0  0  0  0  0  0  0  0  0  0  0
   -3.2484   -0.1156    0.0301 C   0  0  0  0  0  0  0  0  0  0  0  0
    1.6889    1.1640   -0.0051 C   0  0  0  0  0  0  0  0  0  0  0  0
    3.1482    0.8405   -0.0052 C   0  0  0  0  0  0  0  0  0  0  0  0
    3.8211    0.4139   -1.1442 C   0  0  0  0  0  0  0  0  0  0  0  0
    5.7602    0.2236    0.0043 C   0  0  0  0  0  0  0  0  0  0  0  0
    3.9339    0.9287    1.1356 C   0  0  0  0  0  0  0  0  0  0  0  0
    0.7238   -2.7071    0.6019 O   0  0  0  0  0  0  0  0  0  0  0  0
   -5.1760   -1.2114    0.5196 O   0  0  0  0  0  0  0  0  0  0  0  0
   -5.3294    0.6867   -0.4434 O   0  0  0  0  0  0  0  0  0  0  0  0
   -3.3117    2.6351   -0.1109 Cl  0  0  0  0  0  0  0  0  0  0  0  0
    1.3811   -0.9202    0.3035 H   0  0  0  0  0  0  0  0  0  0  0  0
   -1.9322   -3.6476   -0.8183 H   0  0  0  0  0  0  0  0  0  0  0  0
   -0.6223   -4.6067   -0.2704 H   0  0  0  0  0  0  0  0  0  0  0  0
    7.6235    0.1220    0.8125 H   0  0  0  0  0  0  0  0  0  0  0  0
    7.5339   -0.2747   -0.8567 H   0  0  0  0  0  0  0  0  0  0  0  0
   -3.0760   -2.2227    0.1962 H   0  0  0  0  0  0  0  0  0  0  0  0
   -0.6609    2.0446   -0.0785 H   0  0  0  0  0  0  0  0  0  0  0  0
    1.4243    1.7034   -0.9191 H   0  0  0  0  0  0  0  0  0  0  0  0
    1.4614    1.8324    0.8322 H   0  0  0  0  0  0  0  0  0  0  0  0
    3.2937    0.3232   -2.0901 H   0  0  0  0  0  0  0  0  0  0  0  0
    3.4986    1.2626    2.0733 H   0  0  0  0  0  0  0  0  0  0  0  0
   -0.4198   -2.6327    0.1563 C   0  0  0  0  0  0  0  0  0  0  0  0
  1  9  1  0
  1 13  1  0
  1 22  1  0
  2 33  1  0
  2 23  1  0
  2 24  1  0
  4 16  2  0
  5 19  2  0
  6 25  1  0
  6 26  1  0
  7 12  2  0
  7 27  1  0
  8  7  1  0
  8  9  2  0
  9 10  1  0
 10 11  2  0
 10 28  1  0
 11 21  1  0
 12  5  1  0
 12 11  1  0
 33  8  1  0
 13 14  1  0
 13 29  1  0
 13 30  1  0
 14 15  1  0
 15  3  2  0
 15 31  1  0
 16  3  1  0
 16  6  1  0
 17 14  2  0
 17  4  1  0
 17 32  1  0
 18 33  2  0
 20  5  1  0
M  CHG  2   5   1  20  -1
M  END
