
     RDKit          3D

 32 32  0  0  0  0  0  0  0  0999 V2000
   -4.4775   -0.5047   -0.7448 C   0  0  0  0  0  0  0  0  0  0  0  0
   -0.0350    2.3577    1.1730 O   0  0  0  0  0  0  0  0  0  0  0  0
    2.9249    1.6752   -0.9548 O   0  0  0  0  0  0  0  0  0  0  0  0
   -3.4408   -0.5671    0.3692 C   0  0  0  0  0  0  0  0  0  0  0  0
   -2.0072   -0.4875   -0.1396 C   0  0  0  0  0  0  0  0  0  0  0  0
   -0.9876   -0.5374    1.0003 C   0  0  0  0  0  0  0  0  0  0  0  0
    0.4359   -0.5242    0.5075 C   0  0  0  0  0  0  0  0  0  0  0  0
    1.1151   -1.7324    0.4657 C   0  0  0  0  0  0  0  0  0  0  0  0
    2.4094   -1.8057   -0.0434 C   0  0  0  0  0  0  0  0  0  0  0  0
    3.0331   -0.6643   -0.5281 C   0  0  0  0  0  0  0  0  0  0  0  0
    2.3515    0.5464   -0.5088 C   0  0  0  0  0  0  0  0  0  0  0  0
    1.0559    0.6349    0.0144 C   0  0  0  0  0  0  0  0  0  0  0  0
    0.3776    1.9568   -0.0242 C   0  0  0  0  0  0  0  0  0  0  0  0
    0.2242    2.6146   -1.0240 O   0  0  0  0  0  0  0  0  0  0  0  0
    3.0102   -3.0057   -0.0430 O   0  0  0  0  0  0  0  0  0  0  0  0
   -5.9060   -0.6188   -0.2309 C   0  0  0  0  0  0  0  0  0  0  0  0
   -4.3604    0.4333   -1.2962 H   0  0  0  0  0  0  0  0  0  0  0  0
   -4.2851   -1.3051   -1.4657 H   0  0  0  0  0  0  0  0  0  0  0  0
   -0.5188    3.1945    1.0931 H   0  0  0  0  0  0  0  0  0  0  0  0
    3.8195    1.4978   -1.2675 H   0  0  0  0  0  0  0  0  0  0  0  0
   -3.6193    0.2481    1.0788 H   0  0  0  0  0  0  0  0  0  0  0  0
   -3.5701   -1.4951    0.9371 H   0  0  0  0  0  0  0  0  0  0  0  0
   -1.8177   -1.3155   -0.8301 H   0  0  0  0  0  0  0  0  0  0  0  0
   -1.8811    0.4286   -0.7255 H   0  0  0  0  0  0  0  0  0  0  0  0
   -1.1731    0.2816    1.6952 H   0  0  0  0  0  0  0  0  0  0  0  0
   -1.1454   -1.4571    1.5681 H   0  0  0  0  0  0  0  0  0  0  0  0
    0.6349   -2.6339    0.8255 H   0  0  0  0  0  0  0  0  0  0  0  0
    4.0446   -0.7103   -0.9194 H   0  0  0  0  0  0  0  0  0  0  0  0
    3.8957   -2.9448   -0.4191 H   0  0  0  0  0  0  0  0  0  0  0  0
   -6.6298   -0.5479   -1.0434 H   0  0  0  0  0  0  0  0  0  0  0  0
   -6.0681   -1.5731    0.2739 H   0  0  0  0  0  0  0  0  0  0  0  0
   -6.1339    0.1735    0.4848 H   0  0  0  0  0  0  0  0  0  0  0  0
 14 13  2  0
  3 11  1  0
 13 12  1  0
 13  2  1  0
 11 10  2  0
 11 12  1  0
 10  9  1  0
 12  7  2  0
  9 15  1  0
  9  8  2  0
  7  8  1  0
  7  6  1  0
  6  5  1  0
  5  4  1  0
  4  1  1  0
  1 16  1  0
  1 17  1  0
  1 18  1  0
  2 19  1  0
  3 20  1  0
  4 21  1  0
  4 22  1  0
  5 23  1  0
  5 24  1  0
  6 25  1  0
  6 26  1  0
  8 27  1  0
 10 28  1  0
 15 29  1  0
 16 30  1  0
 16 31  1  0
 16 32  1  0
M  END
