
     RDKit          3D

 24 23  0  0  0  0  0  0  0  0999 V2000
   -4.0519    0.4501    0.0306 C   0  0  0  0  0  0  0  0  0  0  0  0
   -2.7400   -0.3198    0.0359 C   0  0  0  0  0  0  0  0  0  0  0  0
   -1.5264    0.5866   -0.1202 C   0  0  0  0  0  0  0  0  0  0  0  0
   -0.2087   -0.1771   -0.1032 C   0  0  0  0  0  0  0  0  0  0  0  0
    0.9873    0.7517   -0.2821 C   0  0  0  0  0  0  0  0  0  0  0  0
    2.3016    0.0072   -0.3041 C   0  0  0  0  0  0  0  0  0  0  0  0
   -5.1879   -0.4504    0.1718 N   0  0  0  0  0  0  0  0  0  0  0  0
    3.2639    0.5926    0.4327 N   0  0  0  0  0  0  0  0  0  0  0  0
    2.4843   -1.0068   -0.9565 O   0  0  0  0  0  0  0  0  0  0  0  0
    4.4701   -0.0168    0.5994 O   0  0  0  0  0  0  0  0  0  0  0  0
   -4.0096    1.2270    0.8082 H   0  0  0  0  0  0  0  0  0  0  0  0
   -4.1497    0.9784   -0.9223 H   0  0  0  0  0  0  0  0  0  0  0  0
   -2.6556   -0.8826    0.9729 H   0  0  0  0  0  0  0  0  0  0  0  0
   -2.7566   -1.0613   -0.7690 H   0  0  0  0  0  0  0  0  0  0  0  0
   -1.6072    1.1465   -1.0586 H   0  0  0  0  0  0  0  0  0  0  0  0
   -1.5235    1.3347    0.6799 H   0  0  0  0  0  0  0  0  0  0  0  0
   -0.1149   -0.7212    0.8419 H   0  0  0  0  0  0  0  0  0  0  0  0
   -0.2106   -0.9294   -0.8954 H   0  0  0  0  0  0  0  0  0  0  0  0
    0.8995    1.2817   -1.2359 H   0  0  0  0  0  0  0  0  0  0  0  0
    0.9842    1.5209    0.4943 H   0  0  0  0  0  0  0  0  0  0  0  0
   -5.1632   -0.8718    1.0927 H   0  0  0  0  0  0  0  0  0  0  0  0
   -6.0468    0.0842    0.1435 H   0  0  0  0  0  0  0  0  0  0  0  0
    3.0771    1.3488    1.0748 H   0  0  0  0  0  0  0  0  0  0  0  0
    5.0575    0.3572   -0.0698 H   0  0  0  0  0  0  0  0  0  0  0  0
  9  6  2  0
 10  8  1  0
  6  8  1  0
  6  5  1  0
  5  4  1  0
  4  3  1  0
  2  3  1  0
  2  1  1  0
  1  7  1  0
  1 11  1  0
  1 12  1  0
  2 13  1  0
  2 14  1  0
  3 15  1  0
  3 16  1  0
  4 17  1  0
  4 18  1  0
  5 19  1  0
  5 20  1  0
  7 21  1  0
  7 22  1  0
  8 23  1  0
 10 24  1  0
M  END
