
     RDKit          3D

 37 39  0  0  0  0  0  0  0  0999 V2000
   -0.6893   -0.7247   -0.3591 C   0  0  0  0  0  0  0  0  0  0  0  0
   -0.3740   -1.4918    0.7585 C   0  0  0  0  0  0  0  0  0  0  0  0
    0.8821   -1.3938    1.3246 C   0  0  0  0  0  0  0  0  0  0  0  0
   -4.2214    1.2219    1.7148 C   0  0  0  0  0  0  0  0  0  0  0  0
    1.8225   -0.5224    0.7784 C   0  0  0  0  0  0  0  0  0  0  0  0
    4.1650    0.1321    0.6452 C   0  0  0  0  0  0  0  0  0  0  0  0
   -2.9637    1.7102   -0.2698 C   0  0  0  0  0  0  0  0  0  0  0  0
   -3.2418    2.2364    1.1360 C   0  0  0  0  0  0  0  0  0  0  0  0
   -3.6874   -0.1018    1.1887 C   0  0  0  0  0  0  0  0  0  0  0  0
    3.0811   -0.3911    1.3204 N   0  0  0  0  0  0  0  0  0  0  0  0
   -3.2265    0.2639   -0.1572 N   0  0  0  0  0  0  0  0  0  0  0  0
    0.2558    0.1310   -0.9162 C   0  0  0  0  0  0  0  0  0  0  0  0
   -2.2674   -0.2730   -2.3860 O   0  0  0  0  0  0  0  0  0  0  0  0
   -2.3235   -0.7856   -1.0253 S   0  0  1  0  0  0  0  0  0  0  0  0
   -2.8629   -2.1126   -0.7700 O   0  0  0  0  0  0  0  0  0  0  0  0
    1.5070    0.2442   -0.3415 C   0  0  0  0  0  0  0  0  0  0  0  0
    2.5403    1.2058   -0.8375 C   0  0  0  0  0  0  0  0  0  0  0  0
    5.2914    0.0102    1.0999 O   0  0  0  0  0  0  0  0  0  0  0  0
    3.8817    0.7371   -0.5342 N   0  0  0  0  0  0  0  0  0  0  0  0
    4.9527    1.3912   -1.2555 C   0  0  0  0  0  0  0  0  0  0  0  0
   -1.0896   -2.1816    1.1843 H   0  0  0  0  0  0  0  0  0  0  0  0
    1.1346   -1.9974    2.1869 H   0  0  0  0  0  0  0  0  0  0  0  0
   -5.2301    1.3994    1.3365 H   0  0  0  0  0  0  0  0  0  0  0  0
   -3.6333    2.1475   -1.0111 H   0  0  0  0  0  0  0  0  0  0  0  0
   -1.9390    1.9254   -0.5793 H   0  0  0  0  0  0  0  0  0  0  0  0
   -3.6293    3.2540    1.1207 H   0  0  0  0  0  0  0  0  0  0  0  0
   -2.3208    2.2393    1.7229 H   0  0  0  0  0  0  0  0  0  0  0  0
   -2.8663   -0.4570    1.8219 H   0  0  0  0  0  0  0  0  0  0  0  0
   -4.4467   -0.8793    1.1408 H   0  0  0  0  0  0  0  0  0  0  0  0
    3.3065   -0.9210    2.1490 H   0  0  0  0  0  0  0  0  0  0  0  0
    0.0249    0.7115   -1.8004 H   0  0  0  0  0  0  0  0  0  0  0  0
    2.4559    1.3201   -1.9189 H   0  0  0  0  0  0  0  0  0  0  0  0
    2.3693    2.1990   -0.4011 H   0  0  0  0  0  0  0  0  0  0  0  0
    5.1238    2.4110   -0.9002 H   0  0  0  0  0  0  0  0  0  0  0  0
    5.8773    0.8297   -1.1618 H   0  0  0  0  0  0  0  0  0  0  0  0
    4.6873    1.4364   -2.3105 H   0  0  0  0  0  0  0  0  0  0  0  0
   -4.2624    1.2366    2.8032 H   0  0  0  0  0  0  0  0  0  0  0  0
 20 19  1  0
 17 19  1  0
 17 16  1  0
 19  6  1  0
  6 18  2  0
  6 10  1  0
 16 12  2  0
 16  5  1  0
 12  1  1  0
 10  5  1  0
  5  3  2  0
 15 14  2  0
 14  1  1  1
  1  2  2  0
  3  2  1  0
 14 11  1  0
 14 13  2  0
  7 11  1  0
  7  8  1  0
 11  9  1  0
  8  4  1  0
  4  9  1  0
  2 21  1  0
  3 22  1  0
  4 37  1  0
  4 23  1  0
  7 24  1  0
  7 25  1  0
  8 26  1  0
  8 27  1  0
  9 28  1  0
  9 29  1  0
 10 30  1  0
 12 31  1  0
 17 32  1  0
 17 33  1  0
 20 34  1  0
 20 35  1  0
 20 36  1  0
M  END
