
     RDKit          3D

 57 60  0  0  0  0  0  0  0  0999 V2000
   -2.9348    1.5526    0.9548 C   0  0  0  0  0  0  0  0  0  0  0  0
   -4.7670    0.7835   -2.2406 O   0  0  0  0  0  0  0  0  0  0  0  0
   -3.4290    1.8007   -0.4635 C   0  0  0  0  0  0  0  0  0  0  0  0
    5.6150    0.2007   -0.1522 O   0  0  0  0  0  0  0  0  0  0  0  0
   -4.3148    0.6451   -0.9067 C   0  0  2  0  0  0  0  0  0  0  0  0
   -3.5638   -0.6700   -0.8013 C   0  0  0  0  0  0  0  0  0  0  0  0
   -3.0015   -0.9188    0.6034 C   0  0  1  0  0  0  0  0  0  0  0  0
   -2.2484   -2.2493    0.6558 C   0  0  0  0  0  0  0  0  0  0  0  0
   -0.9084   -2.1937   -0.0697 C   0  0  0  0  0  0  0  0  0  0  0  0
   -0.0345   -1.0435    0.4255 C   0  0  2  0  0  0  0  0  0  0  0  0
   -0.7978    0.2917    0.3306 C   0  0  1  0  0  0  0  0  0  0  0  0
   -2.1312    0.2527    1.1223 C   0  0  1  0  0  0  0  0  0  0  0  0
    0.0909    1.4890    0.6832 C   0  0  0  0  0  0  0  0  0  0  0  0
    1.4161    1.5173   -0.0834 C   0  0  0  0  0  0  0  0  0  0  0  0
    2.1786    0.2073    0.0741 C   0  0  1  0  0  0  0  0  0  0  0  0
    1.2511   -0.9340   -0.3788 C   0  0  1  0  0  0  0  0  0  0  0  0
    2.1729   -2.1464   -0.4659 C   0  0  0  0  0  0  0  0  0  0  0  0
    3.5166   -1.5607   -0.9517 C   0  0  0  0  0  0  0  0  0  0  0  0
    3.3588   -0.0284   -0.9106 C   0  0  2  0  0  0  0  0  0  0  0  0
    2.6749    0.0358    1.5136 C   0  0  0  0  0  0  0  0  0  0  0  0
   -1.8851    0.0726    2.6248 C   0  0  0  0  0  0  0  0  0  0  0  0
    4.6172    0.7373   -0.5850 C   0  0  0  0  0  0  0  0  0  0  0  0
    4.5829    2.2276   -0.8092 C   0  0  0  0  0  0  0  0  0  0  0  0
   -2.3610    2.4089    1.3158 H   0  0  0  0  0  0  0  0  0  0  0  0
   -3.8094    1.4915    1.6144 H   0  0  0  0  0  0  0  0  0  0  0  0
   -5.2622    1.6062   -2.3037 H   0  0  0  0  0  0  0  0  0  0  0  0
   -3.9943    2.7382   -0.4938 H   0  0  0  0  0  0  0  0  0  0  0  0
   -2.5956    1.9156   -1.1642 H   0  0  0  0  0  0  0  0  0  0  0  0
   -5.1745    0.6050   -0.2178 H   0  0  0  0  0  0  0  0  0  0  0  0
   -4.2371   -1.4947   -1.0557 H   0  0  0  0  0  0  0  0  0  0  0  0
   -2.7652   -0.6801   -1.5495 H   0  0  0  0  0  0  0  0  0  0  0  0
   -3.8630   -0.9921    1.2812 H   0  0  0  0  0  0  0  0  0  0  0  0
   -2.0795   -2.5354    1.6979 H   0  0  0  0  0  0  0  0  0  0  0  0
   -2.8726   -3.0388    0.2264 H   0  0  0  0  0  0  0  0  0  0  0  0
   -0.3851   -3.1447    0.0603 H   0  0  0  0  0  0  0  0  0  0  0  0
   -1.0660   -2.0818   -1.1491 H   0  0  0  0  0  0  0  0  0  0  0  0
    0.2218   -1.2457    1.4725 H   0  0  0  0  0  0  0  0  0  0  0  0
   -1.0502    0.4111   -0.7329 H   0  0  0  0  0  0  0  0  0  0  0  0
   -0.4391    2.4180    0.4616 H   0  0  0  0  0  0  0  0  0  0  0  0
    0.2936    1.5098    1.7577 H   0  0  0  0  0  0  0  0  0  0  0  0
    1.2191    1.6873   -1.1485 H   0  0  0  0  0  0  0  0  0  0  0  0
    1.9997    2.3716    0.2681 H   0  0  0  0  0  0  0  0  0  0  0  0
    0.9503   -0.6845   -1.4089 H   0  0  0  0  0  0  0  0  0  0  0  0
    2.2806   -2.6189    0.5140 H   0  0  0  0  0  0  0  0  0  0  0  0
    1.7881   -2.9119   -1.1405 H   0  0  0  0  0  0  0  0  0  0  0  0
    4.3419   -1.8887   -0.3202 H   0  0  0  0  0  0  0  0  0  0  0  0
    3.7541   -1.8860   -1.9650 H   0  0  0  0  0  0  0  0  0  0  0  0
    3.0212    0.3285   -1.8915 H   0  0  0  0  0  0  0  0  0  0  0  0
    1.8600   -0.0739    2.2276 H   0  0  0  0  0  0  0  0  0  0  0  0
    3.3238   -0.8329    1.6287 H   0  0  0  0  0  0  0  0  0  0  0  0
    3.2502    0.9092    1.8309 H   0  0  0  0  0  0  0  0  0  0  0  0
   -1.3736   -0.8563    2.8740 H   0  0  0  0  0  0  0  0  0  0  0  0
   -1.2939    0.8903    3.0393 H   0  0  0  0  0  0  0  0  0  0  0  0
   -2.8373    0.0661    3.1610 H   0  0  0  0  0  0  0  0  0  0  0  0
    4.2332    2.7215    0.1011 H   0  0  0  0  0  0  0  0  0  0  0  0
    5.5797    2.6099   -1.0243 H   0  0  0  0  0  0  0  0  0  0  0  0
    3.9022    2.5107   -1.6101 H   0  0  0  0  0  0  0  0  0  0  0  0
  8  7  1  0
  8  9  1  0
 12 21  1  1
  7 12  1  0
  7  6  1  0
  9 10  1  0
 12  1  1  0
 12 11  1  0
  6  5  1  0
  1  3  1  0
  5  3  1  0
  5  2  1  0
 10 11  1  0
 10 16  1  0
 11 13  1  0
 17 16  1  0
 17 18  1  0
 16 15  1  0
 15 20  1  1
 13 14  1  0
 15 14  1  0
 15 19  1  0
 18 19  1  0
 19 22  1  0
 22  4  2  0
 22 23  1  0
  1 24  1  0
  1 25  1  0
  2 26  1  0
  3 27  1  0
  3 28  1  0
  5 29  1  1
  6 30  1  0
  6 31  1  0
  7 32  1  1
  8 33  1  0
  8 34  1  0
  9 35  1  0
  9 36  1  0
 10 37  1  1
 11 38  1  6
 13 39  1  0
 13 40  1  0
 14 41  1  0
 14 42  1  0
 16 43  1  6
 17 44  1  0
 17 45  1  0
 18 46  1  0
 18 47  1  0
 19 48  1  6
 20 49  1  0
 20 50  1  0
 20 51  1  0
 21 52  1  0
 21 53  1  0
 21 54  1  0
 23 55  1  0
 23 56  1  0
 23 57  1  0
M  END
