
     RDKit          3D

 41 43  0  0  0  0  0  0  0  0999 V2000
   -3.8056    1.2392   -0.0037 C   0  0  0  0  0  0  0  0  0  0  0  0
   -6.1885    1.6159    0.1036 C   0  0  0  0  0  0  0  0  0  0  0  0
   -5.3419   -0.6204   -0.0704 C   0  0  0  0  0  0  0  0  0  0  0  0
   -4.0464   -0.1301   -0.0846 C   0  0  0  0  0  0  0  0  0  0  0  0
    3.8099   -0.6921    1.6784 C   0  0  0  0  0  0  0  0  0  0  0  0
   -5.5957   -2.3216   -0.1713 Cl  0  0  0  0  0  0  0  0  0  0  0  0
    5.1842   -2.4074    2.6544 C   0  0  0  0  0  0  0  0  0  0  0  0
    5.5068   -2.8514    1.3856 C   0  0  0  0  0  0  0  0  0  0  0  0
    4.9524   -2.2214    0.2797 C   0  0  0  0  0  0  0  0  0  0  0  0
    5.2912   -2.7885   -1.0169 N   0  0  0  0  0  0  0  0  0  0  0  0
    6.4094   -3.2187   -1.1695 O   0  0  0  0  0  0  0  0  0  0  0  0
    4.4304   -2.8223   -1.8657 O   0  0  0  0  0  0  0  0  0  0  0  0
    4.1007   -1.1186    0.3851 C   0  0  0  0  0  0  0  0  0  0  0  0
    3.5133   -0.3862   -0.8017 C   0  0  0  0  0  0  0  0  0  0  0  0
    3.1863    1.0464   -0.5001 C   0  0  0  0  0  0  0  0  0  0  0  0
    2.0293    1.5602   -0.3296 N   0  0  0  0  0  0  0  0  0  0  0  0
   -0.2639    1.4640   -0.1927 C   0  0  0  0  0  0  0  0  0  0  0  0
   -1.3971    0.8520   -0.2065 N   0  0  0  0  0  0  0  0  0  0  0  0
   -2.4276    1.7400   -0.0199 C   0  0  0  0  0  0  0  0  0  0  0  0
   -4.8967    2.1043    0.0893 C   0  0  0  0  0  0  0  0  0  0  0  0
   -6.4208    0.2496    0.0235 C   0  0  0  0  0  0  0  0  0  0  0  0
   -2.0450    3.0358    0.1374 C   0  0  0  0  0  0  0  0  0  0  0  0
   -0.3305    3.1753    0.0492 S   0  0  0  0  0  0  0  0  0  0  0  0
    4.3413    1.9746   -0.3977 C   0  0  0  0  0  0  0  0  0  0  0  0
    5.4784    1.5894   -0.5285 O   0  0  0  0  0  0  0  0  0  0  0  0
    4.0052    3.2272   -0.1469 O   0  0  0  0  0  0  0  0  0  0  0  0
    4.3299   -1.3250    2.7967 C   0  0  0  0  0  0  0  0  0  0  0  0
   -7.0242    2.2980    0.1733 H   0  0  0  0  0  0  0  0  0  0  0  0
   -3.2191   -0.8220   -0.1579 H   0  0  0  0  0  0  0  0  0  0  0  0
    3.1609    0.1613    1.8267 H   0  0  0  0  0  0  0  0  0  0  0  0
    5.5965   -2.9052    3.5208 H   0  0  0  0  0  0  0  0  0  0  0  0
    6.1678   -3.6971    1.2593 H   0  0  0  0  0  0  0  0  0  0  0  0
    4.2062   -0.3882   -1.6425 H   0  0  0  0  0  0  0  0  0  0  0  0
    2.6352   -0.9281   -1.1588 H   0  0  0  0  0  0  0  0  0  0  0  0
    0.9291   -0.1712   -0.5068 H   0  0  0  0  0  0  0  0  0  0  0  0
   -4.7514    3.1745    0.1459 H   0  0  0  0  0  0  0  0  0  0  0  0
   -2.6553    3.9093    0.3023 H   0  0  0  0  0  0  0  0  0  0  0  0
    4.8054    3.7706   -0.0894 H   0  0  0  0  0  0  0  0  0  0  0  0
    4.0691   -0.9633    3.7820 H   0  0  0  0  0  0  0  0  0  0  0  0
   -8.0361   -0.3426    0.0384 Cl  0  0  0  0  0  0  0  0  0  0  0  0
    0.9345    0.8324   -0.3591 N   0  0  0  0  0  0  0  0  0  0  0  0
  8  7  2  0
  8  9  1  0
  7 27  1  0
 12 10  2  0
 10 11  1  0
 10  9  1  0
  9 13  2  0
 27  5  2  0
 13  5  1  0
 13 14  1  0
 14 15  1  0
 25 24  2  0
 24 15  1  0
 24 26  1  0
 15 16  2  0
 16 41  1  0
 41 17  1  0
 17 18  2  0
 17 23  1  0
 18 19  1  0
 20  2  2  0
 20  1  1  0
 23 22  1  0
  2 21  1  0
 19  1  1  0
 19 22  2  0
  1  4  2  0
 21 40  1  0
 21  3  2  0
  4  3  1  0
  3  6  1  0
  2 28  1  0
  4 29  1  0
  5 30  1  0
  7 31  1  0
  8 32  1  0
 14 33  1  0
 14 34  1  0
 41 35  1  0
 20 36  1  0
 22 37  1  0
 26 38  1  0
 27 39  1  0
M  CHG  2  10   1  11  -1
M  END
