
     RDKit          3D

 60 64  0  0  0  0  0  0  0  0999 V2000
   -4.5674   -2.4840    0.1449 C   0  0  0  0  0  0  0  0  0  0  0  0
   -5.8248   -2.1380    0.6807 C   0  0  0  0  0  0  0  0  0  0  0  0
   -5.9075   -0.8444    0.8978 N   0  0  0  0  0  0  0  0  0  0  0  0
   -4.7320   -0.3256    0.4899 N   0  0  0  0  0  0  0  0  0  0  0  0
   -3.8817   -1.2940    0.0437 C   0  0  0  0  0  0  0  0  0  0  0  0
   -4.5452    1.0704    0.5515 C   0  0  0  0  0  0  0  0  0  0  0  0
   -3.8931    1.7481   -0.4744 C   0  0  0  0  0  0  0  0  0  0  0  0
   -3.7269    3.1227   -0.3891 C   0  0  0  0  0  0  0  0  0  0  0  0
   -4.2211    3.8288    0.6993 C   0  0  0  0  0  0  0  0  0  0  0  0
   -4.8841    3.1473    1.7115 C   0  0  0  0  0  0  0  0  0  0  0  0
   -5.0427    1.7712    1.6457 C   0  0  0  0  0  0  0  0  0  0  0  0
   -6.9613   -3.0491    0.9907 C   0  0  0  0  0  0  0  0  0  0  0  0
   -2.6064   -1.0198   -0.4092 N   0  0  0  0  0  0  0  0  0  0  0  0
   -1.9971   -2.0823   -1.1879 C   0  0  0  0  0  0  0  0  0  0  0  0
   -0.7245   -1.5800   -1.8392 C   0  0  0  0  0  0  0  0  0  0  0  0
    0.2172   -1.0918   -0.8453 N   0  0  0  0  0  0  0  0  0  0  0  0
   -0.4072   -0.0099   -0.1050 C   0  0  0  0  0  0  0  0  0  0  0  0
   -1.6709   -0.4899    0.5789 C   0  0  0  0  0  0  0  0  0  0  0  0
    1.4745   -0.7040   -1.4652 C   0  0  2  0  0  0  0  0  0  0  0  0
    2.2385   -1.9198   -2.0637 C   0  0  0  0  0  0  0  0  0  0  0  0
    3.5799   -1.9465   -1.4859 N   0  0  0  0  0  0  0  0  0  0  0  0
    3.8281   -0.5902   -1.0342 C   0  0  1  0  0  0  0  0  0  0  0  0
    2.4808   -0.1037   -0.4786 C   0  0  0  0  0  0  0  0  0  0  0  0
    4.9212   -0.5573    0.0183 C   0  0  0  0  0  0  0  0  0  0  0  0
    5.6398    0.5733    0.1349 N   0  0  0  0  0  0  0  0  0  0  0  0
    6.6928    0.6642    1.1432 C   0  0  0  0  0  0  0  0  0  0  0  0
    7.4573    1.9458    0.8623 C   0  0  0  0  0  0  0  0  0  0  0  0
    6.1982    3.1106    0.2755 S   0  0  0  0  0  0  0  0  0  0  0  0
    5.4371    1.7683   -0.6696 C   0  0  0  0  0  0  0  0  0  0  0  0
    5.1139   -1.5200    0.7498 O   0  0  0  0  0  0  0  0  0  0  0  0
   -4.2074   -3.4682   -0.1060 H   0  0  0  0  0  0  0  0  0  0  0  0
   -3.5061    1.2087   -1.3272 H   0  0  0  0  0  0  0  0  0  0  0  0
   -3.2152    3.6429   -1.1882 H   0  0  0  0  0  0  0  0  0  0  0  0
   -4.0913    4.9013    0.7583 H   0  0  0  0  0  0  0  0  0  0  0  0
   -5.2743    3.6858    2.5652 H   0  0  0  0  0  0  0  0  0  0  0  0
   -5.5493    1.2416    2.4409 H   0  0  0  0  0  0  0  0  0  0  0  0
   -6.6412   -3.8765    1.6248 H   0  0  0  0  0  0  0  0  0  0  0  0
   -7.7595   -2.5159    1.5042 H   0  0  0  0  0  0  0  0  0  0  0  0
   -7.3764   -3.4842    0.0803 H   0  0  0  0  0  0  0  0  0  0  0  0
   -1.7632   -2.9594   -0.5664 H   0  0  0  0  0  0  0  0  0  0  0  0
   -2.6911   -2.4025   -1.9661 H   0  0  0  0  0  0  0  0  0  0  0  0
   -0.2834   -2.4083   -2.3954 H   0  0  0  0  0  0  0  0  0  0  0  0
   -0.9740   -0.7947   -2.5736 H   0  0  0  0  0  0  0  0  0  0  0  0
    0.2683    0.3564    0.6686 H   0  0  0  0  0  0  0  0  0  0  0  0
   -0.6551    0.8468   -0.7558 H   0  0  0  0  0  0  0  0  0  0  0  0
   -2.1191    0.3484    1.1104 H   0  0  0  0  0  0  0  0  0  0  0  0
   -1.4208   -1.2584    1.3238 H   0  0  0  0  0  0  0  0  0  0  0  0
    1.2908    0.0342   -2.2647 H   0  0  0  0  0  0  0  0  0  0  0  0
    1.7343   -2.8623   -1.8488 H   0  0  0  0  0  0  0  0  0  0  0  0
    2.3009   -1.8226   -3.1498 H   0  0  0  0  0  0  0  0  0  0  0  0
    3.5785   -2.5497   -0.6716 H   0  0  0  0  0  0  0  0  0  0  0  0
    4.1111    0.0156   -1.9021 H   0  0  0  0  0  0  0  0  0  0  0  0
    2.4029    0.9809   -0.3952 H   0  0  0  0  0  0  0  0  0  0  0  0
    2.3320   -0.5327    0.5170 H   0  0  0  0  0  0  0  0  0  0  0  0
    6.2552    0.6867    2.1433 H   0  0  0  0  0  0  0  0  0  0  0  0
    7.3560   -0.1989    1.0823 H   0  0  0  0  0  0  0  0  0  0  0  0
    7.9329    2.3402    1.7579 H   0  0  0  0  0  0  0  0  0  0  0  0
    8.2179    1.8008    0.0947 H   0  0  0  0  0  0  0  0  0  0  0  0
    5.9116    1.6757   -1.6489 H   0  0  0  0  0  0  0  0  0  0  0  0
    4.3833    2.0015   -0.8083 H   0  0  0  0  0  0  0  0  0  0  0  0
  1  2  1  0
  1  5  2  0
  2  3  2  0
  2 12  1  0
  3  4  1  0
  4  5  1  0
  4  6  1  0
  5 13  1  0
  6  7  2  0
  6 11  1  0
  7  8  1  0
  8  9  2  0
  9 10  1  0
 10 11  2  0
 13 14  1  0
 13 18  1  0
 14 15  1  0
 15 16  1  0
 16 17  1  0
 16 19  1  0
 17 18  1  0
 19 20  1  0
 19 23  1  0
 20 21  1  0
 21 22  1  0
 22 23  1  0
 22 24  1  0
 24 25  1  0
 24 30  2  0
 25 26  1  0
 25 29  1  0
 26 27  1  0
 27 28  1  0
 28 29  1  0
  1 31  1  0
  7 32  1  0
  8 33  1  0
  9 34  1  0
 10 35  1  0
 11 36  1  0
 12 37  1  0
 12 38  1  0
 12 39  1  0
 14 40  1  0
 14 41  1  0
 15 42  1  0
 15 43  1  0
 17 44  1  0
 17 45  1  0
 18 46  1  0
 18 47  1  0
 19 48  1  6
 20 49  1  0
 20 50  1  0
 21 51  1  0
 22 52  1  6
 23 53  1  0
 23 54  1  0
 26 55  1  0
 26 56  1  0
 27 57  1  0
 27 58  1  0
 29 59  1  0
 29 60  1  0
M  END
