
     RDKit          3D

 17 18  0  0  0  0  0  0  0  0999 V2000
   -3.1906    0.5873   -0.1163 N   0  0  0  0  0  0  0  0  0  0  0  0
   -1.8535    0.2284   -0.0291 C   0  0  0  0  0  0  0  0  0  0  0  0
   -0.8432    1.1602   -0.0091 C   0  0  0  0  0  0  0  0  0  0  0  0
    0.4950    0.7035    0.0069 C   0  0  0  0  0  0  0  0  0  0  0  0
    1.7451    1.3136    0.0232 C   0  0  0  0  0  0  0  0  0  0  0  0
    2.6357    0.3114    0.0382 N   0  0  0  0  0  0  0  0  0  0  0  0
    2.1178   -0.9031    0.0336 N   0  0  0  0  0  0  0  0  0  0  0  0
    0.7975   -0.6857    0.0143 C   0  0  0  0  0  0  0  0  0  0  0  0
   -0.2533   -1.6319    0.0024 C   0  0  0  0  0  0  0  0  0  0  0  0
   -1.5352   -1.1705   -0.0218 C   0  0  0  0  0  0  0  0  0  0  0  0
   -3.8316   -0.0641    0.3091 H   0  0  0  0  0  0  0  0  0  0  0  0
   -3.3960    1.5299    0.1764 H   0  0  0  0  0  0  0  0  0  0  0  0
   -1.0664    2.2208   -0.0082 H   0  0  0  0  0  0  0  0  0  0  0  0
    2.0492    2.3469    0.0238 H   0  0  0  0  0  0  0  0  0  0  0  0
    3.6388    0.4171    0.0494 H   0  0  0  0  0  0  0  0  0  0  0  0
   -0.0469   -2.6946    0.0097 H   0  0  0  0  0  0  0  0  0  0  0  0
   -2.3537   -1.8807   -0.0376 H   0  0  0  0  0  0  0  0  0  0  0  0
  6  5  1  0
  6  7  1  0
  5  4  2  0
  7  8  2  0
  4  8  1  0
  4  3  1  0
  8  9  1  0
  3  2  2  0
  9 10  2  0
  2 10  1  0
  2  1  1  0
  1 11  1  0
  1 12  1  0
  3 13  1  0
  5 14  1  0
  6 15  1  0
  9 16  1  0
 10 17  1  0
M  END
