
     RDKit          3D

 52 55  0  0  0  0  0  0  0  0999 V2000
    3.0771   -0.3870   -7.3023 O   0  0  0  0  0  0  0  0  0  0  0  0
    2.7734    0.0462   -6.0031 C   0  0  0  0  0  0  0  0  0  0  0  0
    1.3064   -0.1329   -5.7964 C   0  0  0  0  0  0  0  0  0  0  0  0
    0.2722   -0.4228   -7.1456 S   0  0  0  0  0  0  0  0  0  0  0  0
   -1.0647   -0.4413   -6.0787 C   0  0  0  0  0  0  0  0  0  0  0  0
    0.7006   -0.0618   -4.6609 N   0  0  0  0  0  0  0  0  0  0  0  0
   -0.6532   -0.2291   -4.7945 C   0  0  0  0  0  0  0  0  0  0  0  0
   -1.5117   -0.1825   -3.6020 C   0  0  0  0  0  0  0  0  0  0  0  0
   -0.9146   -0.1453   -2.3411 C   0  0  0  0  0  0  0  0  0  0  0  0
   -2.9006   -0.1760   -3.7148 C   0  0  0  0  0  0  0  0  0  0  0  0
   -3.6786   -0.1377   -2.5688 C   0  0  0  0  0  0  0  0  0  0  0  0
   -3.0925   -0.1043   -1.3167 C   0  0  0  0  0  0  0  0  0  0  0  0
   -1.6998   -0.1079   -1.1896 C   0  0  0  0  0  0  0  0  0  0  0  0
   -1.2068   -0.0610    0.1155 N   0  0  0  0  0  0  0  0  0  0  0  0
    0.0570   -0.1424    0.5990 C   0  0  0  0  0  0  0  0  0  0  0  0
    1.0676   -0.2938   -0.2318 N   0  0  0  0  0  0  0  0  0  0  0  0
    2.2977   -0.3825    0.2878 C   0  0  0  0  0  0  0  0  0  0  0  0
    0.2762   -0.0676    2.0141 C   0  0  0  0  0  0  0  0  0  0  0  0
   -0.7373    0.1076    2.9843 C   0  0  0  0  0  0  0  0  0  0  0  0
   -0.4299    0.1622    4.3176 C   0  0  0  0  0  0  0  0  0  0  0  0
   -1.3095    0.3249    5.3129 O   0  0  0  0  0  0  0  0  0  0  0  0
   -2.6853    0.4865    4.9875 C   0  0  0  0  0  0  0  0  0  0  0  0
   -3.4520    0.6816    6.2727 C   0  0  0  0  0  0  0  0  0  0  0  0
    1.6142   -0.1793    2.4273 C   0  0  0  0  0  0  0  0  0  0  0  0
    2.6343   -0.3391    1.5440 N   0  0  0  0  0  0  0  0  0  0  0  0
    1.9221   -0.1248    3.8035 C   0  0  0  0  0  0  0  0  0  0  0  0
    0.9332    0.0389    4.7379 C   0  0  0  0  0  0  0  0  0  0  0  0
    1.1173    0.0990    6.0571 O   0  0  0  0  0  0  0  0  0  0  0  0
    2.4424   -0.0131    6.5688 C   0  0  0  0  0  0  0  0  0  0  0  0
    2.3717    0.0705    8.0739 C   0  0  0  0  0  0  0  0  0  0  0  0
    3.9055    0.0159   -7.5772 H   0  0  0  0  0  0  0  0  0  0  0  0
    3.0195    1.1037   -5.8511 H   0  0  0  0  0  0  0  0  0  0  0  0
    3.3085   -0.5203   -5.2318 H   0  0  0  0  0  0  0  0  0  0  0  0
   -2.0627   -0.6220   -6.4448 H   0  0  0  0  0  0  0  0  0  0  0  0
    0.1589   -0.1511   -2.2634 H   0  0  0  0  0  0  0  0  0  0  0  0
   -3.3809   -0.1917   -4.6841 H   0  0  0  0  0  0  0  0  0  0  0  0
   -4.7574   -0.1303   -2.6496 H   0  0  0  0  0  0  0  0  0  0  0  0
   -3.7178   -0.0749   -0.4322 H   0  0  0  0  0  0  0  0  0  0  0  0
   -1.9347    0.0184    0.8060 H   0  0  0  0  0  0  0  0  0  0  0  0
    3.0978   -0.5080   -0.4346 H   0  0  0  0  0  0  0  0  0  0  0  0
   -1.7716    0.2014    2.6846 H   0  0  0  0  0  0  0  0  0  0  0  0
   -2.8130    1.3515    4.3281 H   0  0  0  0  0  0  0  0  0  0  0  0
   -3.0490   -0.3963    4.4507 H   0  0  0  0  0  0  0  0  0  0  0  0
   -4.5100    0.8046    6.0438 H   0  0  0  0  0  0  0  0  0  0  0  0
   -3.3494   -0.1788    6.9335 H   0  0  0  0  0  0  0  0  0  0  0  0
   -3.1178    1.5728    6.8038 H   0  0  0  0  0  0  0  0  0  0  0  0
    2.9621   -0.2176    4.0852 H   0  0  0  0  0  0  0  0  0  0  0  0
    3.0651    0.7914    6.1651 H   0  0  0  0  0  0  0  0  0  0  0  0
    2.8827   -0.9648    6.2542 H   0  0  0  0  0  0  0  0  0  0  0  0
    3.3769   -0.0206    8.4842 H   0  0  0  0  0  0  0  0  0  0  0  0
    1.9603    1.0248    8.4019 H   0  0  0  0  0  0  0  0  0  0  0  0
    1.7655   -0.7341    8.4898 H   0  0  0  0  0  0  0  0  0  0  0  0
  1  2  1  0
  1 31  1  0
  2  3  1  0
  2 32  1  0
  2 33  1  0
  3  4  1  0
  3  6  2  0
  4  5  1  0
  5  7  2  0
  5 34  1  0
  6  7  1  0
  7  8  1  0
  8  9  2  0
  8 10  1  0
  9 13  1  0
  9 35  1  0
 10 11  2  0
 10 36  1  0
 11 12  1  0
 11 37  1  0
 12 13  2  0
 12 38  1  0
 13 14  1  0
 14 15  1  0
 14 39  1  0
 15 16  2  0
 15 18  1  0
 16 17  1  0
 17 25  2  0
 17 40  1  0
 18 19  2  0
 18 24  1  0
 19 20  1  0
 19 41  1  0
 20 21  1  0
 20 27  2  0
 21 22  1  0
 22 23  1  0
 22 42  1  0
 22 43  1  0
 23 44  1  0
 23 45  1  0
 23 46  1  0
 24 25  1  0
 24 26  2  0
 26 27  1  0
 26 47  1  0
 27 28  1  0
 28 29  1  0
 29 30  1  0
 29 48  1  0
 29 49  1  0
 30 50  1  0
 30 51  1  0
 30 52  1  0
M  END
