
     RDKit          3D

 34 36  0  0  0  0  0  0  0  0999 V2000
   -0.3121   -0.8523   -2.6972 C   0  0  0  0  0  0  0  0  0  0  0  0
    0.5709    0.2350   -2.7096 C   0  0  0  0  0  0  0  0  0  0  0  0
    1.4163    0.3992   -3.8103 C   0  0  0  0  0  0  0  0  0  0  0  0
    1.3788   -0.4958   -4.8648 C   0  0  0  0  0  0  0  0  0  0  0  0
    0.4942   -1.5753   -4.8399 C   0  0  0  0  0  0  0  0  0  0  0  0
   -0.3493   -1.7571   -3.7620 C   0  0  0  0  0  0  0  0  0  0  0  0
   -1.1845   -1.0233   -1.5584 C   0  0  0  0  0  0  0  0  0  0  0  0
   -1.2428   -0.2603   -0.5370 N   0  0  0  0  0  0  0  0  0  0  0  0
   -0.4181    0.8204   -0.4787 N   0  0  0  0  0  0  0  0  0  0  0  0
    0.5543    1.1917   -1.4992 B   0  0  0  0  0  0  0  0  0  0  0  0
    1.3802    2.2535   -1.4375 O   0  0  0  0  0  0  0  0  0  0  0  0
   -0.7077    1.6434    0.9730 S   0  0  2  0  0  0  0  0  0  0  0  0
   -2.1278    1.8972    1.0820 O   0  0  0  0  0  0  0  0  0  0  0  0
    0.2246    2.7648    0.9722 O   0  0  0  0  0  0  0  0  0  0  0  0
   -0.2284    0.4889    2.2085 C   0  0  0  0  0  0  0  0  0  0  0  0
    1.1026    0.4402    2.6061 C   0  0  0  0  0  0  0  0  0  0  0  0
    1.4784   -0.4736    3.5738 C   0  0  0  0  0  0  0  0  0  0  0  0
    0.5473   -1.3393    4.1493 C   0  0  0  0  0  0  0  0  0  0  0  0
   -0.7787   -1.2685    3.7270 C   0  0  0  0  0  0  0  0  0  0  0  0
   -1.1774   -0.3594    2.7607 C   0  0  0  0  0  0  0  0  0  0  0  0
    0.9654   -2.3032    5.2167 C   0  0  0  0  0  0  0  0  0  0  0  0
    2.1072    1.2319   -3.8416 H   0  0  0  0  0  0  0  0  0  0  0  0
    2.0362   -0.3601   -5.7136 H   0  0  0  0  0  0  0  0  0  0  0  0
    0.4701   -2.2708   -5.6683 H   0  0  0  0  0  0  0  0  0  0  0  0
   -1.0367   -2.5939   -3.7399 H   0  0  0  0  0  0  0  0  0  0  0  0
   -1.8653   -1.8669   -1.5389 H   0  0  0  0  0  0  0  0  0  0  0  0
    1.2884    2.7869   -0.6371 H   0  0  0  0  0  0  0  0  0  0  0  0
    1.8420    1.1036    2.1781 H   0  0  0  0  0  0  0  0  0  0  0  0
    2.5134   -0.5107    3.8893 H   0  0  0  0  0  0  0  0  0  0  0  0
   -1.5148   -1.9346    4.1590 H   0  0  0  0  0  0  0  0  0  0  0  0
   -2.2117   -0.3205    2.4497 H   0  0  0  0  0  0  0  0  0  0  0  0
    1.0615   -1.7902    6.1756 H   0  0  0  0  0  0  0  0  0  0  0  0
    0.2380   -3.1031    5.3424 H   0  0  0  0  0  0  0  0  0  0  0  0
    1.9337   -2.7496    4.9928 H   0  0  0  0  0  0  0  0  0  0  0  0
  1  2  1  0
  1  6  2  0
  1  7  1  0
  2  3  2  0
  2 10  1  0
  3  4  1  0
  3 22  1  0
  4  5  2  0
  4 23  1  0
  5  6  1  0
  5 24  1  0
  6 25  1  0
  7  8  2  0
  7 26  1  0
  8  9  1  0
  9 10  1  0
  9 12  1  0
 10 11  1  0
 11 27  1  0
 12 13  2  0
 12 14  2  0
 12 15  1  1
 15 16  2  0
 15 20  1  0
 16 17  1  0
 16 28  1  0
 17 18  2  0
 17 29  1  0
 18 19  1  0
 18 21  1  0
 19 20  2  0
 19 30  1  0
 20 31  1  0
 21 32  1  0
 21 33  1  0
 21 34  1  0
M  END
