
     RDKit          3D

 46 48  0  0  0  0  0  0  0  0999 V2000
   -3.4888    2.9633    1.6605 C   0  0  0  0  0  0  0  0  0  0  0  0
   -3.8402    1.6529    0.9968 C   0  0  0  0  0  0  0  0  0  0  0  0
   -2.6327    1.0400    0.5723 O   0  0  0  0  0  0  0  0  0  0  0  0
   -2.6976   -0.1463   -0.0581 C   0  0  0  0  0  0  0  0  0  0  0  0
   -3.8645   -0.8442   -0.3306 C   0  0  0  0  0  0  0  0  0  0  0  0
   -3.8167   -2.0658   -1.0017 C   0  0  0  0  0  0  0  0  0  0  0  0
   -2.6041   -2.5900   -1.4001 C   0  0  0  0  0  0  0  0  0  0  0  0
   -1.4227   -1.9000   -1.1277 C   0  0  0  0  0  0  0  0  0  0  0  0
   -1.4589   -0.6852   -0.4641 C   0  0  0  0  0  0  0  0  0  0  0  0
   -0.3828    0.0679   -0.1540 O   0  0  0  0  0  0  0  0  0  0  0  0
    0.8729   -0.2481   -0.7141 C   0  0  2  0  0  0  0  0  0  0  0  0
    1.5453   -1.4010   -0.0059 C   0  0  0  0  0  0  0  0  0  0  0  0
    1.2925   -1.6840    1.3320 C   0  0  0  0  0  0  0  0  0  0  0  0
    1.9532   -2.7298    1.9626 C   0  0  0  0  0  0  0  0  0  0  0  0
    2.8794   -3.4971    1.2679 C   0  0  0  0  0  0  0  0  0  0  0  0
    3.1390   -3.2154   -0.0668 C   0  0  0  0  0  0  0  0  0  0  0  0
    2.4708   -2.1751   -0.6984 C   0  0  0  0  0  0  0  0  0  0  0  0
    1.7273    1.0143   -0.6536 C   0  0  2  0  0  0  0  0  0  0  0  0
    1.9640    1.3297    0.6979 O   0  0  0  0  0  0  0  0  0  0  0  0
    2.8026    2.4586    0.8471 C   0  0  0  0  0  0  0  0  0  0  0  0
    2.2150    3.6720    0.1456 C   0  0  0  0  0  0  0  0  0  0  0  0
    1.9076    3.4106   -1.2529 N   0  0  0  0  0  0  0  0  0  0  0  0
    1.1057    2.2035   -1.3852 C   0  0  0  0  0  0  0  0  0  0  0  0
   -2.8541    2.8101    2.5332 H   0  0  0  0  0  0  0  0  0  0  0  0
   -2.9751    3.6325    0.9702 H   0  0  0  0  0  0  0  0  0  0  0  0
   -4.4010    3.4582    1.9924 H   0  0  0  0  0  0  0  0  0  0  0  0
   -4.3728    0.9994    1.6960 H   0  0  0  0  0  0  0  0  0  0  0  0
   -4.5016    1.8256    0.1407 H   0  0  0  0  0  0  0  0  0  0  0  0
   -4.8259   -0.4500   -0.0312 H   0  0  0  0  0  0  0  0  0  0  0  0
   -4.7386   -2.5947   -1.2041 H   0  0  0  0  0  0  0  0  0  0  0  0
   -2.5568   -3.5375   -1.9203 H   0  0  0  0  0  0  0  0  0  0  0  0
   -0.4812   -2.3348   -1.4348 H   0  0  0  0  0  0  0  0  0  0  0  0
    0.7605   -0.4976   -1.7787 H   0  0  0  0  0  0  0  0  0  0  0  0
    0.5745   -1.0965    1.8885 H   0  0  0  0  0  0  0  0  0  0  0  0
    1.7448   -2.9441    3.0030 H   0  0  0  0  0  0  0  0  0  0  0  0
    3.3920   -4.3116    1.7631 H   0  0  0  0  0  0  0  0  0  0  0  0
    3.8553   -3.8086   -0.6203 H   0  0  0  0  0  0  0  0  0  0  0  0
    2.6701   -1.9663   -1.7434 H   0  0  0  0  0  0  0  0  0  0  0  0
    2.6783    0.7686   -1.1573 H   0  0  0  0  0  0  0  0  0  0  0  0
    2.9126    2.6368    1.9187 H   0  0  0  0  0  0  0  0  0  0  0  0
    3.8022    2.2464    0.4390 H   0  0  0  0  0  0  0  0  0  0  0  0
    1.2934    3.9759    0.6524 H   0  0  0  0  0  0  0  0  0  0  0  0
    2.9106    4.5109    0.2135 H   0  0  0  0  0  0  0  0  0  0  0  0
    2.7742    3.2916   -1.7654 H   0  0  0  0  0  0  0  0  0  0  0  0
    0.9898    1.9652   -2.4451 H   0  0  0  0  0  0  0  0  0  0  0  0
    0.1095    2.4057   -0.9826 H   0  0  0  0  0  0  0  0  0  0  0  0
  7  6  2  0
  7  8  1  0
  6  5  1  0
  8  9  2  0
  5  4  2  0
  9  4  1  0
  9 10  1  0
 14 13  2  0
 14 15  1  0
  4  3  1  0
 13 12  1  0
 15 16  2  0
 10 11  1  0
 12 11  1  0
 12 17  2  0
 16 17  1  0
  3  2  1  0
 11 18  1  0
 23 18  1  0
 23 22  1  0
  2  1  1  0
 18 19  1  0
 22 21  1  0
 19 20  1  0
 21 20  1  0
  1 24  1  0
  1 25  1  0
  1 26  1  0
  2 27  1  0
  2 28  1  0
  5 29  1  0
  6 30  1  0
  7 31  1  0
  8 32  1  0
 11 33  1  6
 13 34  1  0
 14 35  1  0
 15 36  1  0
 16 37  1  0
 17 38  1  0
 18 39  1  6
 20 40  1  0
 20 41  1  0
 21 42  1  0
 21 43  1  0
 22 44  1  0
 23 45  1  0
 23 46  1  0
M  END
