
     RDKit          3D

 46 46  0  0  0  0  0  0  0  0999 V2000
   -2.1115    3.2159   -0.3908 O   0  0  0  0  0  0  0  0  0  0  0  0
   -1.0419    2.1901   -0.3877 P   0  0  1  0  0  0  0  0  0  0  0  0
    0.2298    2.5224   -1.3250 O   0  0  0  0  0  0  0  0  0  0  0  0
   -0.4466    2.0722    1.1081 O   0  0  0  0  0  0  0  0  0  0  0  0
   -1.5044    0.5431   -0.9921 C   0  0  0  0  0  0  0  0  0  0  0  0
   -1.5209   -0.6118    0.0359 C   0  0  1  0  0  0  0  0  0  0  0  0
   -2.8328   -1.3832   -0.0527 C   0  0  0  0  0  0  0  0  0  0  0  0
   -4.0149   -0.5477    0.3951 C   0  0  0  0  0  0  0  0  0  0  0  0
   -5.2428   -1.0620    0.1532 N   0  0  0  0  0  0  0  0  0  0  0  0
   -6.4783   -0.5098    0.6517 C   0  0  0  0  0  0  0  0  0  0  0  0
   -5.3288   -2.3669   -0.2594 O   0  0  0  0  0  0  0  0  0  0  0  0
   -3.8811    0.5396    0.9373 O   0  0  0  0  0  0  0  0  0  0  0  0
   -0.3440   -1.5636   -0.1848 C   0  0  0  0  0  0  0  0  0  0  0  0
    1.0258   -0.9183   -0.0155 C   0  0  0  0  0  0  0  0  0  0  0  0
    2.1661   -1.9002   -0.2881 C   0  0  0  0  0  0  0  0  0  0  0  0
    3.5211   -1.2656   -0.1428 C   0  0  0  0  0  0  0  0  0  0  0  0
    4.0079   -0.3886   -1.1121 C   0  0  0  0  0  0  0  0  0  0  0  0
    5.2449    0.2200   -0.9706 C   0  0  0  0  0  0  0  0  0  0  0  0
    6.0450   -0.0246    0.1460 C   0  0  0  0  0  0  0  0  0  0  0  0
    5.5609   -0.9026    1.1101 C   0  0  0  0  0  0  0  0  0  0  0  0
    4.3190   -1.5110    0.9690 C   0  0  0  0  0  0  0  0  0  0  0  0
    7.3764    0.6510    0.3023 C   0  0  0  0  0  0  0  0  0  0  0  0
    0.5786    3.4165   -1.2059 H   0  0  0  0  0  0  0  0  0  0  0  0
    0.3586    1.5485    1.2028 H   0  0  0  0  0  0  0  0  0  0  0  0
   -2.4920    0.6862   -1.4342 H   0  0  0  0  0  0  0  0  0  0  0  0
   -0.8498    0.2915   -1.8294 H   0  0  0  0  0  0  0  0  0  0  0  0
   -1.4419   -0.2156    1.0504 H   0  0  0  0  0  0  0  0  0  0  0  0
   -2.9834   -1.7553   -1.0697 H   0  0  0  0  0  0  0  0  0  0  0  0
   -2.7841   -2.2715    0.5853 H   0  0  0  0  0  0  0  0  0  0  0  0
   -6.3299    0.5340    0.9088 H   0  0  0  0  0  0  0  0  0  0  0  0
   -7.2461   -0.5683   -0.1191 H   0  0  0  0  0  0  0  0  0  0  0  0
   -6.8235   -1.0461    1.5376 H   0  0  0  0  0  0  0  0  0  0  0  0
   -5.5110   -2.3382   -1.2087 H   0  0  0  0  0  0  0  0  0  0  0  0
   -0.4274   -2.3982    0.5182 H   0  0  0  0  0  0  0  0  0  0  0  0
   -0.4152   -1.9971   -1.1889 H   0  0  0  0  0  0  0  0  0  0  0  0
    1.1330   -0.0675   -0.6956 H   0  0  0  0  0  0  0  0  0  0  0  0
    1.1301   -0.5321    1.0048 H   0  0  0  0  0  0  0  0  0  0  0  0
    2.0849   -2.7490    0.3959 H   0  0  0  0  0  0  0  0  0  0  0  0
    2.0505   -2.3011   -1.2994 H   0  0  0  0  0  0  0  0  0  0  0  0
    3.4128   -0.1821   -1.9952 H   0  0  0  0  0  0  0  0  0  0  0  0
    5.5984    0.8919   -1.7447 H   0  0  0  0  0  0  0  0  0  0  0  0
    6.1637   -1.1222    1.9841 H   0  0  0  0  0  0  0  0  0  0  0  0
    3.9707   -2.1934    1.7363 H   0  0  0  0  0  0  0  0  0  0  0  0
    7.2560    1.7035    0.5669 H   0  0  0  0  0  0  0  0  0  0  0  0
    7.9720    0.1831    1.0856 H   0  0  0  0  0  0  0  0  0  0  0  0
    7.9540    0.6189   -0.6221 H   0  0  0  0  0  0  0  0  0  0  0  0
 22 19  1  0
 18 19  2  0
 18 17  1  0
 19 20  1  0
 17 16  2  0
 20 21  2  0
 16 21  1  0
 16 15  1  0
 15 14  1  0
 10  9  1  0
 11  9  1  0
 13 14  1  0
 13  6  1  0
  9  8  1  0
  1  2  2  0
  8 12  2  0
  8  7  1  0
  6  7  1  0
  6  5  1  0
  5  2  1  0
  2  4  1  1
  2  3  1  0
  3 23  1  0
  4 24  1  0
  5 25  1  0
  5 26  1  0
  6 27  1  1
  7 28  1  0
  7 29  1  0
 10 30  1  0
 10 31  1  0
 10 32  1  0
 11 33  1  0
 13 34  1  0
 13 35  1  0
 14 36  1  0
 14 37  1  0
 15 38  1  0
 15 39  1  0
 17 40  1  0
 18 41  1  0
 20 42  1  0
 21 43  1  0
 22 44  1  0
 22 45  1  0
 22 46  1  0
M  END
