
     RDKit          3D

 88 93  0  0  0  0  0  0  0  0999 V2000
    3.4500    5.0619    2.1238 C   0  0  2  0  0  0  0  0  0  0  0  0
    4.0246    3.6383    2.0976 C   0  0  0  0  0  0  0  0  0  0  0  0
    4.2289    3.1152    3.5203 C   0  0  1  0  0  0  0  0  0  0  0  0
    5.1960    4.0288    4.2738 C   0  0  0  0  0  0  0  0  0  0  0  0
    4.6218    5.4452    4.3196 C   0  0  1  0  0  0  0  0  0  0  0  0
    4.4238    5.9660    2.8943 C   0  0  0  0  0  0  0  0  0  0  0  0
    2.1073    5.0338    2.8656 C   0  0  0  0  0  0  0  0  0  0  0  0
    2.8807    3.0923    4.2438 C   0  0  0  0  0  0  0  0  0  0  0  0
    3.2726    5.4268    5.0412 C   0  0  0  0  0  0  0  0  0  0  0  0
    2.3049    4.5088    4.2907 C   0  0  1  0  0  0  0  0  0  0  0  0
    3.2987    5.5866    0.6801 C   0  0  1  0  0  0  0  0  0  0  0  0
    2.4633    4.7027   -0.1422 C   0  0  0  0  0  0  0  0  0  0  0  0
    2.8365    6.9190    0.6140 O   0  0  0  0  0  0  0  0  0  0  0  0
    1.7719    3.9764   -0.8093 C   0  0  0  0  0  0  0  0  0  0  0  0
    0.9557    3.0664   -1.6014 C   0  0  0  0  0  0  0  0  0  0  0  0
    0.0809    2.1245   -0.7479 C   0  0  1  0  0  0  0  0  0  0  0  0
   -0.9075    2.9485    0.0683 C   0  0  0  0  0  0  0  0  0  0  0  0
   -0.5762    1.0970   -1.6759 C   0  0  2  0  0  0  0  0  0  0  0  0
   -1.5449    0.0524   -1.0717 C   0  0  2  0  0  0  0  0  0  0  0  0
   -1.5943   -0.9671   -2.2387 C   0  0  1  0  0  0  0  0  0  0  0  0
   -0.1356   -1.1643   -2.6183 C   0  0  0  0  0  0  0  0  0  0  0  0
    0.4765    0.2353   -2.4246 C   0  0  0  0  0  0  0  0  0  0  0  0
   -2.9761    0.5300   -0.8100 C   0  0  0  0  0  0  0  0  0  0  0  0
   -3.9236   -0.6396   -0.5381 C   0  0  0  0  0  0  0  0  0  0  0  0
   -3.8849   -1.7001   -1.6436 C   0  0  0  0  0  0  0  0  0  0  0  0
   -2.4769   -2.1386   -1.9419 C   0  0  0  0  0  0  0  0  0  0  0  0
   -0.9472   -0.5842    0.1849 C   0  0  0  0  0  0  0  0  0  0  0  0
   -2.0360   -3.4068   -1.9482 C   0  0  0  0  0  0  0  0  0  0  0  0
   -2.8276   -4.5938   -1.6800 C   0  0  0  0  0  0  0  0  0  0  0  0
   -2.3968   -5.8646   -1.6866 C   0  0  0  0  0  0  0  0  0  0  0  0
   -3.3322   -7.0052   -1.4105 C   0  0  0  0  0  0  0  0  0  0  0  0
   -3.3461   -7.9956   -2.5746 C   0  0  2  0  0  0  0  0  0  0  0  0
   -1.9315   -8.4235   -2.8821 C   0  0  0  0  0  0  0  0  0  0  0  0
   -0.9872   -7.2838   -3.1746 C   0  0  1  0  0  0  0  0  0  0  0  0
   -0.9951   -6.3065   -1.9924 C   0  0  0  0  0  0  0  0  0  0  0  0
   -1.5645   -9.6994   -2.8378 C   0  0  0  0  0  0  0  0  0  0  0  0
    0.3402   -7.6875   -3.3929 O   0  0  0  0  0  0  0  0  0  0  0  0
   -3.9438   -7.3428   -3.6773 O   0  0  0  0  0  0  0  0  0  0  0  0
    3.3472    2.9716    1.5548 H   0  0  0  0  0  0  0  0  0  0  0  0
    4.9748    3.6340    1.5503 H   0  0  0  0  0  0  0  0  0  0  0  0
    4.6386    2.1018    3.4721 H   0  0  0  0  0  0  0  0  0  0  0  0
    5.3566    3.6521    5.2892 H   0  0  0  0  0  0  0  0  0  0  0  0
    6.1738    4.0355    3.7814 H   0  0  0  0  0  0  0  0  0  0  0  0
    5.3137    6.1062    4.8505 H   0  0  0  0  0  0  0  0  0  0  0  0
    5.3859    6.0002    2.3695 H   0  0  0  0  0  0  0  0  0  0  0  0
    4.0437    6.9907    2.9264 H   0  0  0  0  0  0  0  0  0  0  0  0
    1.6715    6.0384    2.9172 H   0  0  0  0  0  0  0  0  0  0  0  0
    1.3929    4.4010    2.3270 H   0  0  0  0  0  0  0  0  0  0  0  0
    2.1870    2.4170    3.7313 H   0  0  0  0  0  0  0  0  0  0  0  0
    3.0052    2.7036    5.2600 H   0  0  0  0  0  0  0  0  0  0  0  0
    3.4003    5.0793    6.0718 H   0  0  0  0  0  0  0  0  0  0  0  0
    2.8624    6.4403    5.0985 H   0  0  0  0  0  0  0  0  0  0  0  0
    1.3388    4.4942    4.8039 H   0  0  0  0  0  0  0  0  0  0  0  0
    4.3039    5.6096    0.2416 H   0  0  0  0  0  0  0  0  0  0  0  0
    1.9208    6.9398    0.9109 H   0  0  0  0  0  0  0  0  0  0  0  0
    0.3092    3.6454   -2.2697 H   0  0  0  0  0  0  0  0  0  0  0  0
    1.6209    2.4899   -2.2486 H   0  0  0  0  0  0  0  0  0  0  0  0
    0.7473    1.5953   -0.0560 H   0  0  0  0  0  0  0  0  0  0  0  0
   -1.6431    3.4340   -0.5772 H   0  0  0  0  0  0  0  0  0  0  0  0
   -1.4474    2.3380    0.7887 H   0  0  0  0  0  0  0  0  0  0  0  0
   -0.3918    3.7275    0.6330 H   0  0  0  0  0  0  0  0  0  0  0  0
   -1.1527    1.6605   -2.4245 H   0  0  0  0  0  0  0  0  0  0  0  0
   -2.0714   -0.4251   -3.0709 H   0  0  0  0  0  0  0  0  0  0  0  0
    0.3459   -1.8901   -1.9594 H   0  0  0  0  0  0  0  0  0  0  0  0
   -0.0192   -1.5365   -3.6372 H   0  0  0  0  0  0  0  0  0  0  0  0
    0.7385    0.6876   -3.3818 H   0  0  0  0  0  0  0  0  0  0  0  0
    1.4035    0.1788   -1.8479 H   0  0  0  0  0  0  0  0  0  0  0  0
   -3.0212    1.2261    0.0293 H   0  0  0  0  0  0  0  0  0  0  0  0
   -3.3340    1.0778   -1.6892 H   0  0  0  0  0  0  0  0  0  0  0  0
   -3.6776   -1.1047    0.4197 H   0  0  0  0  0  0  0  0  0  0  0  0
   -4.9443   -0.2632   -0.4381 H   0  0  0  0  0  0  0  0  0  0  0  0
   -4.5354   -2.5330   -1.3773 H   0  0  0  0  0  0  0  0  0  0  0  0
   -4.3044   -1.2601   -2.5567 H   0  0  0  0  0  0  0  0  0  0  0  0
   -1.4954   -1.4778    0.4845 H   0  0  0  0  0  0  0  0  0  0  0  0
    0.0913   -0.8866    0.0415 H   0  0  0  0  0  0  0  0  0  0  0  0
   -0.9674    0.1091    1.0278 H   0  0  0  0  0  0  0  0  0  0  0  0
   -0.9896   -3.5634   -2.1864 H   0  0  0  0  0  0  0  0  0  0  0  0
   -3.8779   -4.4426   -1.4508 H   0  0  0  0  0  0  0  0  0  0  0  0
   -3.0037   -7.5506   -0.5189 H   0  0  0  0  0  0  0  0  0  0  0  0
   -4.3467   -6.6513   -1.2135 H   0  0  0  0  0  0  0  0  0  0  0  0
   -3.9285   -8.8788   -2.2800 H   0  0  0  0  0  0  0  0  0  0  0  0
   -1.3723   -6.7419   -4.0503 H   0  0  0  0  0  0  0  0  0  0  0  0
   -0.3315   -5.4710   -2.2141 H   0  0  0  0  0  0  0  0  0  0  0  0
   -0.5832   -6.8270   -1.1190 H   0  0  0  0  0  0  0  0  0  0  0  0
   -0.5484  -10.0252   -3.0181 H   0  0  0  0  0  0  0  0  0  0  0  0
   -2.2839  -10.4769   -2.6102 H   0  0  0  0  0  0  0  0  0  0  0  0
    0.3764   -8.1835   -4.2172 H   0  0  0  0  0  0  0  0  0  0  0  0
   -3.9940   -7.9723   -4.4038 H   0  0  0  0  0  0  0  0  0  0  0  0
 36 33  2  0
 37 34  1  0
 33 34  1  0
 33 32  1  0
 34 35  1  0
 32 38  1  0
 32 31  1  0
 35 30  1  0
 31 30  1  0
 30 29  2  0
 29 28  1  0
 28 26  2  0
 26 25  1  0
 26 20  1  0
 19 27  1  1
 21 20  1  0
 21 22  1  0
 25 24  1  0
 20 19  1  0
  8 10  1  0
  8  3  1  0
 10  7  1  0
 10  9  1  0
 24 23  1  0
 22 18  1  0
 19 23  1  0
 19 18  1  0
  1  7  1  1
 18 16  1  0
  3  2  1  0
  3  4  1  0
  2  1  1  0
  9  5  1  0
 16 15  1  0
 16 17  1  0
  1 11  1  0
  1  6  1  0
 11 12  1  0
 11 13  1  0
 12 14  3  0
 14 15  1  0
  4  5  1  0
  5  6  1  0
  2 39  1  0
  2 40  1  0
  3 41  1  6
  4 42  1  0
  4 43  1  0
  5 44  1  1
  6 45  1  0
  6 46  1  0
  7 47  1  0
  7 48  1  0
  8 49  1  0
  8 50  1  0
  9 51  1  0
  9 52  1  0
 10 53  1  1
 11 54  1  6
 13 55  1  0
 15 56  1  0
 15 57  1  0
 16 58  1  1
 17 59  1  0
 17 60  1  0
 17 61  1  0
 18 62  1  6
 20 63  1  6
 21 64  1  0
 21 65  1  0
 22 66  1  0
 22 67  1  0
 23 68  1  0
 23 69  1  0
 24 70  1  0
 24 71  1  0
 25 72  1  0
 25 73  1  0
 27 74  1  0
 27 75  1  0
 27 76  1  0
 28 77  1  0
 29 78  1  0
 31 79  1  0
 31 80  1  0
 32 81  1  1
 34 82  1  6
 35 83  1  0
 35 84  1  0
 36 85  1  0
 36 86  1  0
 37 87  1  0
 38 88  1  0
M  END
