
     RDKit          3D

 45 48  0  0  0  0  0  0  0  0999 V2000
   -4.3915   -0.4175   -0.8627 C   0  0  0  0  0  0  0  0  0  0  0  0
   -5.5079   -1.4573   -0.8714 C   0  0  0  0  0  0  0  0  0  0  0  0
   -5.8021   -1.9798    0.5312 C   0  0  0  0  0  0  0  0  0  0  0  0
   -4.5382   -2.5266    1.1867 C   0  0  0  0  0  0  0  0  0  0  0  0
   -3.4282   -1.4804    1.1999 C   0  0  0  0  0  0  0  0  0  0  0  0
   -3.1298   -0.9784   -0.2144 C   0  0  2  0  0  0  0  0  0  0  0  0
   -2.0936    0.0349   -0.2223 N   0  0  0  0  0  0  0  0  0  0  0  0
   -0.7845   -0.2195   -0.1559 C   0  0  0  0  0  0  0  0  0  0  0  0
   -0.2278   -1.4804   -0.1296 C   0  0  0  0  0  0  0  0  0  0  0  0
    1.1759   -1.6954   -0.0965 C   0  0  0  0  0  0  0  0  0  0  0  0
    1.7366   -2.7844   -0.0527 O   0  0  0  0  0  0  0  0  0  0  0  0
    1.9443   -0.5201   -0.1055 N   0  0  0  0  0  0  0  0  0  0  0  0
    3.3673   -0.5857   -0.0376 C   0  0  0  0  0  0  0  0  0  0  0  0
    4.0851   -1.1948   -1.0569 C   0  0  0  0  0  0  0  0  0  0  0  0
    5.4699   -1.2304   -0.9857 C   0  0  0  0  0  0  0  0  0  0  0  0
    6.1316   -0.6597    0.0944 C   0  0  0  0  0  0  0  0  0  0  0  0
    5.4041   -0.0482    1.1063 C   0  0  0  0  0  0  0  0  0  0  0  0
    4.0180   -0.0137    1.0454 C   0  0  0  0  0  0  0  0  0  0  0  0
    1.4397    0.6925   -0.0940 N   0  0  0  0  0  0  0  0  0  0  0  0
    0.1635    0.8799   -0.1175 C   0  0  0  0  0  0  0  0  0  0  0  0
   -0.2432    2.2793   -0.1046 C   0  0  0  0  0  0  0  0  0  0  0  0
    0.6243    3.3139   -0.0782 N   0  0  0  0  0  0  0  0  0  0  0  0
   -0.1422    4.4212   -0.0695 C   0  0  0  0  0  0  0  0  0  0  0  0
   -1.4031    4.0950   -0.0894 N   0  0  0  0  0  0  0  0  0  0  0  0
   -1.4656    2.7447   -0.1116 N   0  0  0  0  0  0  0  0  0  0  0  0
   -4.1693   -0.0885   -1.8805 H   0  0  0  0  0  0  0  0  0  0  0  0
   -4.7175    0.4675   -0.3036 H   0  0  0  0  0  0  0  0  0  0  0  0
   -6.4075   -1.0258   -1.3150 H   0  0  0  0  0  0  0  0  0  0  0  0
   -5.2151   -2.2931   -1.5157 H   0  0  0  0  0  0  0  0  0  0  0  0
   -2.7875   -1.8215   -0.8262 H   0  0  0  0  0  0  0  0  0  0  0  0
   -6.2063   -1.1673    1.1444 H   0  0  0  0  0  0  0  0  0  0  0  0
   -6.5728   -2.7527    0.4901 H   0  0  0  0  0  0  0  0  0  0  0  0
   -4.7483   -2.8563    2.2064 H   0  0  0  0  0  0  0  0  0  0  0  0
   -4.1986   -3.4126    0.6393 H   0  0  0  0  0  0  0  0  0  0  0  0
   -3.7333   -0.6253    1.8129 H   0  0  0  0  0  0  0  0  0  0  0  0
   -2.5228   -1.8894    1.6548 H   0  0  0  0  0  0  0  0  0  0  0  0
   -2.3796    1.0082   -0.1720 H   0  0  0  0  0  0  0  0  0  0  0  0
   -0.8458   -2.3669   -0.1192 H   0  0  0  0  0  0  0  0  0  0  0  0
    3.5728   -1.6232   -1.9074 H   0  0  0  0  0  0  0  0  0  0  0  0
    3.4471    0.4564    1.8357 H   0  0  0  0  0  0  0  0  0  0  0  0
    6.0322   -1.7008   -1.7813 H   0  0  0  0  0  0  0  0  0  0  0  0
    7.2121   -0.6889    0.1450 H   0  0  0  0  0  0  0  0  0  0  0  0
    5.9130    0.3987    1.9499 H   0  0  0  0  0  0  0  0  0  0  0  0
    1.6324    3.2625   -0.0681 H   0  0  0  0  0  0  0  0  0  0  0  0
    0.2559    5.4223   -0.0501 H   0  0  0  0  0  0  0  0  0  0  0  0
  1  2  1  0
  1  6  1  0
  2  3  1  0
  3  4  1  0
  4  5  1  0
  5  6  1  0
  6  7  1  0
  7  8  1  0
  8  9  2  0
  8 20  1  0
  9 10  1  0
 10 11  2  0
 10 12  1  0
 12 13  1  0
 12 19  1  0
 13 14  2  0
 13 18  1  0
 14 15  1  0
 15 16  2  0
 16 17  1  0
 17 18  2  0
 19 20  2  0
 20 21  1  0
 21 22  1  0
 21 25  2  0
 22 23  1  0
 23 24  2  0
 24 25  1  0
  1 26  1  0
  1 27  1  0
  2 28  1  0
  2 29  1  0
  6 30  1  6
  3 31  1  0
  3 32  1  0
  4 33  1  0
  4 34  1  0
  5 35  1  0
  5 36  1  0
  7 37  1  0
  9 38  1  0
 14 39  1  0
 18 40  1  0
 15 41  1  0
 16 42  1  0
 17 43  1  0
 22 44  1  0
 23 45  1  0
M  END
