
     RDKit          3D

 73 77  0  0  0  0  0  0  0  0999 V2000
   -1.4966   -0.4528    0.0060 C   0  0  1  0  0  0  0  0  0  0  0  0
   -3.5491   -1.1861   -0.8278 C   0  0  0  0  0  0  0  0  0  0  0  0
   -2.5423    0.6248   -0.2387 C   0  0  0  0  0  0  0  0  0  0  0  0
   -1.1129   -0.4884    1.4951 C   0  0  0  0  0  0  0  0  0  0  0  0
   -2.3003   -1.5892   -0.4195 N   0  0  0  0  0  0  0  0  0  0  0  0
   -3.6756    0.1829   -0.6936 N   0  0  0  0  0  0  0  0  0  0  0  0
    0.1252   -1.3225    1.7873 C   0  0  0  0  0  0  0  0  0  0  0  0
    1.2384   -0.8717    0.9764 N   0  0  0  0  0  0  0  0  0  0  0  0
    0.9493   -1.0623   -0.4320 C   0  0  0  0  0  0  0  0  0  0  0  0
   -0.2441   -0.2170   -0.8527 C   0  0  0  0  0  0  0  0  0  0  0  0
   -4.4115   -1.9366   -1.2421 O   0  0  0  0  0  0  0  0  0  0  0  0
   -2.2840    1.8961    0.0061 N   0  0  0  0  0  0  0  0  0  0  0  0
   -1.9001   -2.9384   -0.5107 C   0  0  0  0  0  0  0  0  0  0  0  0
   -3.2720    2.9605   -0.1003 C   0  0  1  0  0  0  0  0  0  0  0  0
   -4.1928    2.9850    1.1190 C   0  0  0  0  0  0  0  0  0  0  0  0
   -5.1966    4.1291    1.0253 C   0  0  0  0  0  0  0  0  0  0  0  0
   -4.4931    5.4695    0.8442 C   0  0  0  0  0  0  0  0  0  0  0  0
   -3.5635    5.4426   -0.3644 C   0  0  0  0  0  0  0  0  0  0  0  0
   -2.5606    4.2961   -0.2823 C   0  0  0  0  0  0  0  0  0  0  0  0
   -1.3596   -3.4292   -1.6934 C   0  0  0  0  0  0  0  0  0  0  0  0
   -0.9787   -4.7603   -1.7798 C   0  0  0  0  0  0  0  0  0  0  0  0
   -1.1387   -5.6142   -0.6973 C   0  0  0  0  0  0  0  0  0  0  0  0
   -1.6903   -5.1036    0.4617 C   0  0  0  0  0  0  0  0  0  0  0  0
   -2.0809   -3.7841    0.5775 C   0  0  0  0  0  0  0  0  0  0  0  0
   -1.8570   -5.9172    1.5157 F   0  0  0  0  0  0  0  0  0  0  0  0
    2.4832   -1.4929    1.3670 C   0  0  0  0  0  0  0  0  0  0  0  0
    3.6980   -0.7838    0.8217 C   0  0  0  0  0  0  0  0  0  0  0  0
    4.8573   -1.5037    0.5395 C   0  0  0  0  0  0  0  0  0  0  0  0
    5.9894   -0.8379    0.0996 C   0  0  0  0  0  0  0  0  0  0  0  0
    5.9913    0.5401   -0.0809 C   0  0  0  0  0  0  0  0  0  0  0  0
    4.8294    1.2624    0.1881 C   0  0  0  0  0  0  0  0  0  0  0  0
    3.6925    0.5914    0.6418 C   0  0  0  0  0  0  0  0  0  0  0  0
    4.7041    2.5986    0.0618 O   0  0  0  0  0  0  0  0  0  0  0  0
    5.7483    3.3809   -0.5224 C   0  0  1  0  0  0  0  0  0  0  0  0
    5.7802    3.2090   -2.0324 C   0  0  0  0  0  0  0  0  0  0  0  0
    5.4714    4.8175   -0.1238 C   0  0  0  0  0  0  0  0  0  0  0  0
   -0.9006    0.5326    1.8237 H   0  0  0  0  0  0  0  0  0  0  0  0
   -1.9617   -0.8409    2.0849 H   0  0  0  0  0  0  0  0  0  0  0  0
    0.3791   -1.1931    2.8416 H   0  0  0  0  0  0  0  0  0  0  0  0
   -0.0768   -2.3955    1.6427 H   0  0  0  0  0  0  0  0  0  0  0  0
    1.8117   -0.7458   -1.0221 H   0  0  0  0  0  0  0  0  0  0  0  0
    0.7846   -2.1264   -0.6655 H   0  0  0  0  0  0  0  0  0  0  0  0
   -0.4796   -0.3892   -1.9048 H   0  0  0  0  0  0  0  0  0  0  0  0
    0.0490    0.8321   -0.7625 H   0  0  0  0  0  0  0  0  0  0  0  0
   -1.3891    2.1374    0.4041 H   0  0  0  0  0  0  0  0  0  0  0  0
   -3.8725    2.7569   -0.9918 H   0  0  0  0  0  0  0  0  0  0  0  0
   -4.7108    2.0275    1.2062 H   0  0  0  0  0  0  0  0  0  0  0  0
   -3.5799    3.1021    2.0193 H   0  0  0  0  0  0  0  0  0  0  0  0
   -5.8702    3.9556    0.1791 H   0  0  0  0  0  0  0  0  0  0  0  0
   -5.8238    4.1435    1.9193 H   0  0  0  0  0  0  0  0  0  0  0  0
   -5.2276    6.2704    0.7332 H   0  0  0  0  0  0  0  0  0  0  0  0
   -3.9152    5.7004    1.7454 H   0  0  0  0  0  0  0  0  0  0  0  0
   -4.1599    5.3346   -1.2766 H   0  0  0  0  0  0  0  0  0  0  0  0
   -3.0286    6.3903   -0.4548 H   0  0  0  0  0  0  0  0  0  0  0  0
   -1.8843    4.4618    0.5647 H   0  0  0  0  0  0  0  0  0  0  0  0
   -1.9408    4.2681   -1.1820 H   0  0  0  0  0  0  0  0  0  0  0  0
   -1.2327   -2.7665   -2.5393 H   0  0  0  0  0  0  0  0  0  0  0  0
   -0.5538   -5.1405   -2.6987 H   0  0  0  0  0  0  0  0  0  0  0  0
   -0.8441   -6.6536   -0.7551 H   0  0  0  0  0  0  0  0  0  0  0  0
   -2.5135   -3.4155    1.4988 H   0  0  0  0  0  0  0  0  0  0  0  0
    2.5387   -1.4731    2.4604 H   0  0  0  0  0  0  0  0  0  0  0  0
    2.5281   -2.5581    1.0835 H   0  0  0  0  0  0  0  0  0  0  0  0
    4.8711   -2.5802    0.6614 H   0  0  0  0  0  0  0  0  0  0  0  0
    6.8908   -1.3955   -0.1209 H   0  0  0  0  0  0  0  0  0  0  0  0
    6.8947    1.0195   -0.4310 H   0  0  0  0  0  0  0  0  0  0  0  0
    2.7892    1.1543    0.8445 H   0  0  0  0  0  0  0  0  0  0  0  0
    6.7123    3.0833   -0.0952 H   0  0  0  0  0  0  0  0  0  0  0  0
    4.8347    3.5244   -2.4773 H   0  0  0  0  0  0  0  0  0  0  0  0
    6.5746    3.8242   -2.4557 H   0  0  0  0  0  0  0  0  0  0  0  0
    5.9706    2.1780   -2.3312 H   0  0  0  0  0  0  0  0  0  0  0  0
    5.4594    4.9339    0.9602 H   0  0  0  0  0  0  0  0  0  0  0  0
    6.2506    5.4674   -0.5211 H   0  0  0  0  0  0  0  0  0  0  0  0
    4.5142    5.1589   -0.5213 H   0  0  0  0  0  0  0  0  0  0  0  0
 25 23  1  0
 11  2  2  0
 23 22  2  0
 23 24  1  0
 22 21  1  0
 24 13  2  0
  2  6  1  0
  2  5  1  0
 21 20  2  0
 13 20  1  0
 13  5  1  0
  6  3  2  0
  5  1  1  0
  1  3  1  1
  3 12  1  0
 16 15  1  0
 16 17  1  0
 15 14  1  0
 29 30  1  0
 29 28  2  0
  1  4  1  0
  1 10  1  0
 30 31  2  0
  4  7  1  0
 14 12  1  0
 14 19  1  0
  7  8  1  0
 28 27  1  0
 17 18  1  0
 31 33  1  0
 31 32  1  0
 10  9  1  0
 33 34  1  0
 18 19  1  0
 36 34  1  0
 27 32  2  0
 27 26  1  0
  9  8  1  0
  8 26  1  0
 34 35  1  0
  4 37  1  0
  4 38  1  0
  7 39  1  0
  7 40  1  0
  9 41  1  0
  9 42  1  0
 10 43  1  0
 10 44  1  0
 12 45  1  0
 14 46  1  6
 15 47  1  0
 15 48  1  0
 16 49  1  0
 16 50  1  0
 17 51  1  0
 17 52  1  0
 18 53  1  0
 18 54  1  0
 19 55  1  0
 19 56  1  0
 20 57  1  0
 21 58  1  0
 22 59  1  0
 24 60  1  0
 26 61  1  0
 26 62  1  0
 28 63  1  0
 29 64  1  0
 30 65  1  0
 32 66  1  0
 34 67  1  1
 35 68  1  0
 35 69  1  0
 35 70  1  0
 36 71  1  0
 36 72  1  0
 36 73  1  0
M  END
