
     RDKit          3D

 13 13  0  0  0  0  0  0  0  0999 V2000
   15.0818   26.6662   28.8781 C   0  0  0  0  0  0  0  0  0  0  0  0
   13.9875   27.5105   28.9778 C   0  0  0  0  0  0  0  0  0  0  0  0
   13.9512   28.7064   28.2706 C   0  0  0  0  0  0  0  0  0  0  0  0
   15.0404   29.0344   27.4609 C   0  0  0  0  0  0  0  0  0  0  0  0
   16.1324   28.1945   27.3615 C   0  0  0  0  0  0  0  0  0  0  0  0
   16.1603   27.0035   28.0712 C   0  0  0  0  0  0  0  0  0  0  0  0
   15.0097   30.5140   26.5783 Cl  0  0  0  0  0  0  0  0  0  0  0  0
   17.5295   25.9690   27.9375 Cl  0  0  0  0  0  0  0  0  0  0  0  0
   12.9273   29.5610   28.3276 O   0  0  0  0  0  0  0  0  0  0  0  0
   15.0820   25.1959   29.7697 Cl  0  0  0  0  0  0  0  0  0  0  0  0
   16.9666   28.4664   26.7293 H   0  0  0  0  0  0  0  0  0  0  0  0
   13.1562   27.2325   29.6142 H   0  0  0  0  0  0  0  0  0  0  0  0
   12.2377   29.2323   28.9167 H   0  0  0  0  0  0  0  0  0  0  0  0
  4  5  2  0
  4  3  1  0
  4  7  1  0
  5  6  1  0
  6  1  2  0
  6  8  1  0
  1  2  1  0
  1 10  1  0
  2  3  2  0
  3  9  1  0
  5 11  1  0
  2 12  1  0
  9 13  1  0
M  END
