
     RDKit          3D

 34 36  0  0  0  0  0  0  0  0999 V2000
   -6.9682   -2.7473    0.4838 N   0  0  0  0  0  0  0  0  0  0  0  0
   -6.6004   -1.6783    0.2826 C   0  0  0  0  0  0  0  0  0  0  0  0
   -6.1668   -0.3099    0.0250 C   0  0  0  0  0  0  0  0  0  0  0  0
   -4.7494   -0.3268    0.0557 O   0  0  0  0  0  0  0  0  0  0  0  0
   -4.1381    0.8375   -0.1638 C   0  0  0  0  0  0  0  0  0  0  0  0
   -4.7351    1.8582   -0.3876 O   0  0  0  0  0  0  0  0  0  0  0  0
   -2.6623    0.7216   -0.0999 C   0  0  0  0  0  0  0  0  0  0  0  0
   -2.0197   -0.4707    0.2241 C   0  0  0  0  0  0  0  0  0  0  0  0
   -0.6378   -0.5273    0.2682 C   0  0  0  0  0  0  0  0  0  0  0  0
   -1.9033    1.8561   -0.3786 C   0  0  0  0  0  0  0  0  0  0  0  0
   -0.5241    1.8002   -0.3333 C   0  0  0  0  0  0  0  0  0  0  0  0
    0.1242    0.6095   -0.0037 C   0  0  0  0  0  0  0  0  0  0  0  0
    1.5911    0.5597    0.0558 C   0  0  0  0  0  0  0  0  0  0  0  0
    2.0696   -0.6741   -0.1358 O   0  0  0  0  0  0  0  0  0  0  0  0
    3.4011   -0.9107   -0.0972 C   0  0  0  0  0  0  0  0  0  0  0  0
    3.8090   -2.2256   -0.3003 C   0  0  0  0  0  0  0  0  0  0  0  0
    5.1584   -2.5109   -0.2728 C   0  0  0  0  0  0  0  0  0  0  0  0
    6.0987   -1.5014   -0.0463 C   0  0  0  0  0  0  0  0  0  0  0  0
    5.6792   -0.2044    0.1521 C   0  0  0  0  0  0  0  0  0  0  0  0
    4.3169    0.1128    0.1283 C   0  0  0  0  0  0  0  0  0  0  0  0
    3.8344    1.4834    0.3396 C   0  0  0  0  0  0  0  0  0  0  0  0
    4.5874    2.4253    0.5450 O   0  0  0  0  0  0  0  0  0  0  0  0
    2.3941    1.6182    0.2927 C   0  0  0  0  0  0  0  0  0  0  0  0
   -6.5528    0.0069   -0.9462 H   0  0  0  0  0  0  0  0  0  0  0  0
   -6.5846    0.3445    0.7930 H   0  0  0  0  0  0  0  0  0  0  0  0
   -2.5828   -1.3651    0.4500 H   0  0  0  0  0  0  0  0  0  0  0  0
   -0.1645   -1.4623    0.5330 H   0  0  0  0  0  0  0  0  0  0  0  0
   -2.3880    2.7850   -0.6452 H   0  0  0  0  0  0  0  0  0  0  0  0
    0.0457    2.6855   -0.5801 H   0  0  0  0  0  0  0  0  0  0  0  0
    3.0746   -3.0007   -0.4755 H   0  0  0  0  0  0  0  0  0  0  0  0
    5.4876   -3.5293   -0.4304 H   0  0  0  0  0  0  0  0  0  0  0  0
    7.1533   -1.7400   -0.0285 H   0  0  0  0  0  0  0  0  0  0  0  0
    6.3982    0.5847    0.3276 H   0  0  0  0  0  0  0  0  0  0  0  0
    1.9605    2.5921    0.4721 H   0  0  0  0  0  0  0  0  0  0  0  0
  1  2  3  0
  2  3  1  0
  3  4  1  0
  6  5  2  0
  4  5  1  0
  5  7  1  0
  7 10  2  0
  7  8  1  0
 10 11  1  0
  8  9  2  0
 11 12  2  0
  9 12  1  0
 12 13  1  0
 13 14  1  0
 13 23  2  0
 14 15  1  0
 23 21  1  0
 15 16  2  0
 15 20  1  0
 16 17  1  0
 21 20  1  0
 21 22  2  0
 20 19  2  0
 17 18  2  0
 19 18  1  0
  3 24  1  0
  3 25  1  0
  8 26  1  0
  9 27  1  0
 10 28  1  0
 11 29  1  0
 16 30  1  0
 17 31  1  0
 18 32  1  0
 19 33  1  0
 23 34  1  0
M  END
