
     RDKit          3D

 57 61  0  0  0  0  0  0  0  0999 V2000
   -2.9133   -3.6220    0.4775 O   0  0  0  0  0  0  0  0  0  0  0  0
   -2.3926   -2.6062    0.0338 C   0  0  0  0  0  0  0  0  0  0  0  0
   -3.1033   -1.5135   -0.3214 N   0  0  0  0  0  0  0  0  0  0  0  0
   -2.5564   -0.1824   -0.5309 C   0  0  0  0  0  0  0  0  0  0  0  0
   -3.1008    0.7891    0.5113 C   0  0  0  0  0  0  0  0  0  0  0  0
   -4.5459    0.7584    0.5418 N   0  0  0  0  0  0  0  0  0  0  0  0
   -5.3129    1.8077    0.1582 C   0  0  0  0  0  0  0  0  0  0  0  0
   -4.6912    2.9552   -0.1432 N   0  0  0  0  0  0  0  0  0  0  0  0
   -5.4537    3.9744   -0.4967 C   0  0  0  0  0  0  0  0  0  0  0  0
   -6.8356    3.8986   -0.5638 C   0  0  0  0  0  0  0  0  0  0  0  0
   -7.3756    2.6664   -0.2320 C   0  0  0  0  0  0  0  0  0  0  0  0
   -6.6397    1.6287    0.1244 N   0  0  0  0  0  0  0  0  0  0  0  0
   -5.0828   -0.5657    0.7749 C   0  0  0  0  0  0  0  0  0  0  0  0
   -4.5565   -1.5351   -0.2747 C   0  0  0  0  0  0  0  0  0  0  0  0
   -0.9100   -2.5780   -0.1618 C   0  0  0  0  0  0  0  0  0  0  0  0
   -0.0924   -3.0232    0.8743 C   0  0  0  0  0  0  0  0  0  0  0  0
    1.2800   -3.0877    0.7041 C   0  0  0  0  0  0  0  0  0  0  0  0
   -0.3320   -2.2388   -1.3807 C   0  0  0  0  0  0  0  0  0  0  0  0
    1.0422   -2.3267   -1.5531 C   0  0  0  0  0  0  0  0  0  0  0  0
    1.8634   -2.7450   -0.5131 C   0  0  0  0  0  0  0  0  0  0  0  0
    3.3631   -2.7976   -0.6802 C   0  0  0  0  0  0  0  0  0  0  0  0
    4.0199   -1.6242   -0.0563 C   0  0  0  0  0  0  0  0  0  0  0  0
    4.7832   -1.4906    1.0515 C   0  0  0  0  0  0  0  0  0  0  0  0
    5.1321   -2.4906    1.8837 O   0  0  0  0  0  0  0  0  0  0  0  0
    3.7944   -0.4018   -0.6334 O   0  0  0  0  0  0  0  0  0  0  0  0
    4.4396    0.5175    0.1031 C   0  0  0  0  0  0  0  0  0  0  0  0
    4.4619    1.8919   -0.1094 C   0  0  0  0  0  0  0  0  0  0  0  0
    3.8036    2.5015   -1.3024 C   0  0  0  0  0  0  0  0  0  0  0  0
    3.7541    1.9102   -2.3706 O   0  0  0  0  0  0  0  0  0  0  0  0
    3.2968    3.7284   -1.1139 N   0  0  0  0  0  0  0  0  0  0  0  0
    5.0781   -0.0906    1.1859 C   0  0  0  0  0  0  0  0  0  0  0  0
    5.7881    0.6807    2.1028 C   0  0  0  0  0  0  0  0  0  0  0  0
    5.8327    2.0489    1.9027 C   0  0  0  0  0  0  0  0  0  0  0  0
    5.1795    2.6414    0.8189 C   0  0  0  0  0  0  0  0  0  0  0  0
   -1.4730   -0.1936   -0.4565 H   0  0  0  0  0  0  0  0  0  0  0  0
   -2.8208    0.1650   -1.5343 H   0  0  0  0  0  0  0  0  0  0  0  0
   -2.7153    0.5115    1.4981 H   0  0  0  0  0  0  0  0  0  0  0  0
   -2.7537    1.7930    0.2867 H   0  0  0  0  0  0  0  0  0  0  0  0
   -4.9379    4.8974   -0.7404 H   0  0  0  0  0  0  0  0  0  0  0  0
   -7.4470    4.7388   -0.8551 H   0  0  0  0  0  0  0  0  0  0  0  0
   -8.4486    2.5074   -0.2556 H   0  0  0  0  0  0  0  0  0  0  0  0
   -4.7810   -0.9044    1.7715 H   0  0  0  0  0  0  0  0  0  0  0  0
   -6.1677   -0.5394    0.7434 H   0  0  0  0  0  0  0  0  0  0  0  0
   -4.9413   -1.2500   -1.2589 H   0  0  0  0  0  0  0  0  0  0  0  0
   -4.9015   -2.5422   -0.0582 H   0  0  0  0  0  0  0  0  0  0  0  0
   -0.5273   -3.3136    1.8219 H   0  0  0  0  0  0  0  0  0  0  0  0
    1.9022   -3.4199    1.5270 H   0  0  0  0  0  0  0  0  0  0  0  0
   -0.9491   -1.9149   -2.2101 H   0  0  0  0  0  0  0  0  0  0  0  0
    1.4755   -2.0677   -2.5112 H   0  0  0  0  0  0  0  0  0  0  0  0
    3.7624   -3.6995   -0.2136 H   0  0  0  0  0  0  0  0  0  0  0  0
    3.6201   -2.8524   -1.7418 H   0  0  0  0  0  0  0  0  0  0  0  0
    3.2320    4.1501   -0.2037 H   0  0  0  0  0  0  0  0  0  0  0  0
    2.8557    4.2129   -1.8789 H   0  0  0  0  0  0  0  0  0  0  0  0
    6.2878    0.2285    2.9499 H   0  0  0  0  0  0  0  0  0  0  0  0
    6.3815    2.6756    2.5923 H   0  0  0  0  0  0  0  0  0  0  0  0
    5.2590    3.7136    0.6919 H   0  0  0  0  0  0  0  0  0  0  0  0
    6.0026   -2.3212    2.2601 H   0  0  0  0  0  0  0  0  0  0  0  0
  1  2  2  0
 18 19  2  0
 18 15  1  0
  2 15  1  0
  2  3  1  0
 19 20  1  0
 15 16  2  0
  4  3  1  0
  4  5  1  0
  3 14  1  0
 20 21  1  0
 20 17  2  0
 24 23  1  0
 16 17  1  0
 21 22  1  0
  5  6  1  0
 23 22  2  0
 23 31  1  0
 22 25  1  0
 14 13  1  0
  6 13  1  0
  6  7  1  0
  8  7  2  0
  8  9  1  0
 31 32  2  0
 31 26  1  0
 25 26  1  0
  7 12  1  0
 32 33  1  0
  9 10  2  0
 26 27  2  0
 12 11  2  0
 33 34  2  0
 10 11  1  0
 27 34  1  0
 27 28  1  0
 30 28  1  0
 28 29  2  0
  4 35  1  0
  4 36  1  0
  5 37  1  0
  5 38  1  0
  9 39  1  0
 10 40  1  0
 11 41  1  0
 13 42  1  0
 13 43  1  0
 14 44  1  0
 14 45  1  0
 16 46  1  0
 17 47  1  0
 18 48  1  0
 19 49  1  0
 21 50  1  0
 21 51  1  0
 30 52  1  0
 30 53  1  0
 32 54  1  0
 33 55  1  0
 34 56  1  0
 24 57  1  0
M  END
