
     RDKit          3D

 45 47  0  0  0  0  0  0  0  0999 V2000
   -1.1762    2.7603    1.0683 C   0  0  0  0  0  0  0  0  0  0  0  0
   -1.6900    0.4209    0.6186 N   0  0  0  0  0  0  0  0  0  0  0  0
   -0.5213    3.5484    1.9013 O   0  0  0  0  0  0  0  0  0  0  0  0
   -1.2603    1.3617    1.6164 C   0  0  0  0  0  0  0  0  0  0  0  0
   -7.6104   -1.8071    0.1066 C   0  0  0  0  0  0  0  0  0  0  0  0
    1.0041    1.2395   -0.0331 O   0  0  0  0  0  0  0  0  0  0  0  0
    3.0930   -1.4949   -2.6264 O   0  0  0  0  0  0  0  0  0  0  0  0
    2.9545    0.9929   -2.3184 O   0  0  0  0  0  0  0  0  0  0  0  0
    4.9448    0.3966    1.5073 C   0  0  0  0  0  0  0  0  0  0  0  0
    4.2613    0.6155    0.3213 C   0  0  0  0  0  0  0  0  0  0  0  0
   -5.2778   -0.4515    0.8374 C   0  0  0  0  0  0  0  0  0  0  0  0
   -4.1168    0.1987    1.2064 C   0  0  0  0  0  0  0  0  0  0  0  0
    4.3389   -1.8924    1.3615 C   0  0  0  0  0  0  0  0  0  0  0  0
   -4.1505   -1.6147   -0.9609 C   0  0  0  0  0  0  0  0  0  0  0  0
   -1.6494   -0.9938   -1.1306 C   0  0  0  0  0  0  0  0  0  0  0  0
    3.6936   -1.7046    0.2220 N   0  0  0  0  0  0  0  0  0  0  0  0
    1.1767   -0.5755   -1.3906 N   0  0  0  0  0  0  0  0  0  0  0  0
    4.9915   -0.8757    2.0578 C   0  0  0  0  0  0  0  0  0  0  0  0
   -5.3019   -1.3668   -0.2404 C   0  0  0  0  0  0  0  0  0  0  0  0
    3.6669   -0.4849   -0.2617 C   0  0  0  0  0  0  0  0  0  0  0  0
   -0.9168   -0.1156   -0.3776 C   0  0  0  0  0  0  0  0  0  0  0  0
   -2.9691   -0.9637   -0.6109 C   0  0  0  0  0  0  0  0  0  0  0  0
   -2.9597   -0.0609    0.4754 C   0  0  0  0  0  0  0  0  0  0  0  0
    2.7825   -0.3461   -1.8003 S   0  0  1  0  0  0  0  0  0  0  0  0
   -1.5898    3.0957   -0.0093 O   0  0  0  0  0  0  0  0  0  0  0  0
   -0.4635    4.4498    1.5520 H   0  0  0  0  0  0  0  0  0  0  0  0
   -0.3127    1.0672    2.0608 H   0  0  0  0  0  0  0  0  0  0  0  0
   -1.9877    1.3646    2.4333 H   0  0  0  0  0  0  0  0  0  0  0  0
   -7.9565   -0.7734    0.0251 H   0  0  0  0  0  0  0  0  0  0  0  0
   -8.3652   -2.4531   -0.3345 H   0  0  0  0  0  0  0  0  0  0  0  0
   -7.5038   -2.0664    1.1626 H   0  0  0  0  0  0  0  0  0  0  0  0
    6.7865   -1.0054    3.2160 H   0  0  0  0  0  0  0  0  0  0  0  0
    5.3695   -0.5029    4.1347 H   0  0  0  0  0  0  0  0  0  0  0  0
    5.5512   -2.1932    3.6486 H   0  0  0  0  0  0  0  0  0  0  0  0
    5.4350    1.2260    1.9997 H   0  0  0  0  0  0  0  0  0  0  0  0
    4.1960    1.5974   -0.1234 H   0  0  0  0  0  0  0  0  0  0  0  0
   -6.1764   -0.2425    1.4023 H   0  0  0  0  0  0  0  0  0  0  0  0
   -4.1371    0.8914    2.0369 H   0  0  0  0  0  0  0  0  0  0  0  0
    4.3472   -2.9050    1.7477 H   0  0  0  0  0  0  0  0  0  0  0  0
   -4.1723   -2.3041   -1.7961 H   0  0  0  0  0  0  0  0  0  0  0  0
   -1.3012   -1.5731   -1.9715 H   0  0  0  0  0  0  0  0  0  0  0  0
    0.7607   -1.4401   -1.7134 H   0  0  0  0  0  0  0  0  0  0  0  0
   -6.4140   -2.0325   -0.6232 O   0  0  0  0  0  0  0  0  0  0  0  0
    0.4858    0.2823   -0.5634 C   0  0  0  0  0  0  0  0  0  0  0  0
    5.7138   -1.1611    3.3364 C   0  0  0  0  0  0  0  0  0  0  0  0
  4  1  1  0
  1 25  2  0
  1  3  1  0
 23  2  1  0
  4  2  1  0
  2 21  1  0
  3 26  1  0
  4 27  1  0
  4 28  1  0
 43  5  1  0
  5 29  1  0
  5 30  1  0
  5 31  1  0
 18 45  1  0
 45 32  1  0
 45 33  1  0
 45 34  1  0
 44  6  2  0
 24  7  2  0
 24  8  2  0
 10  9  2  0
 18  9  1  0
  9 35  1  0
 20 10  1  0
 10 36  1  0
 11 19  2  0
 11 12  1  0
 11 37  1  0
 12 23  2  0
 12 38  1  0
 16 13  1  0
 13 18  2  0
 13 39  1  0
 19 14  1  0
 14 22  2  0
 14 40  1  0
 22 15  1  0
 15 21  2  0
 15 41  1  0
 16 20  2  0
 44 17  1  0
 24 17  1  1
 17 42  1  0
 43 19  1  0
 21 44  1  0
 24 20  1  0
 23 22  1  0
M  END
