
     RDKit          3D

 49 50  0  0  0  0  0  0  0  0999 V2000
    6.3425   -0.3880   -0.0117 N   0  0  0  0  0  0  0  0  0  0  0  0
    7.4372   -1.0240   -0.5122 O   0  0  0  0  0  0  0  0  0  0  0  0
    5.3166   -0.0823   -0.8249 C   0  0  0  0  0  0  0  0  0  0  0  0
    5.2085   -0.5041   -1.9624 O   0  0  0  0  0  0  0  0  0  0  0  0
    4.2909    0.8304   -0.1879 C   0  0  0  0  0  0  0  0  0  0  0  0
    2.8763    0.2760   -0.3801 C   0  0  1  0  0  0  0  0  0  0  0  0
    2.6397   -0.9890    0.4621 C   0  0  0  0  0  0  0  0  0  0  0  0
    1.3097   -1.6783    0.1835 C   0  0  0  0  0  0  0  0  0  0  0  0
    1.0782   -2.8870    1.0816 C   0  0  0  0  0  0  0  0  0  0  0  0
   -0.2427   -3.5847    0.7887 C   0  0  0  0  0  0  0  0  0  0  0  0
    1.8468    1.2982   -0.0543 C   0  0  0  0  0  0  0  0  0  0  0  0
    1.9415    1.9748    1.0834 O   0  0  0  0  0  0  0  0  0  0  0  0
    0.7828    1.6033   -0.7183 N   0  0  0  0  0  0  0  0  0  0  0  0
    0.8373    2.7847    1.1711 N   0  0  0  0  0  0  0  0  0  0  0  0
    0.1792    2.5266    0.0855 C   0  0  0  0  0  0  0  0  0  0  0  0
    6.4890    0.0754    0.8737 H   0  0  0  0  0  0  0  0  0  0  0  0
    7.3287   -1.9588   -0.2947 H   0  0  0  0  0  0  0  0  0  0  0  0
    4.4999    0.9884    0.8724 H   0  0  0  0  0  0  0  0  0  0  0  0
    4.3880    1.8034   -0.6779 H   0  0  0  0  0  0  0  0  0  0  0  0
    2.7316    0.0315   -1.4347 H   0  0  0  0  0  0  0  0  0  0  0  0
    3.4520   -1.6930    0.2592 H   0  0  0  0  0  0  0  0  0  0  0  0
    2.7189   -0.7352    1.5238 H   0  0  0  0  0  0  0  0  0  0  0  0
    0.4786   -0.9781    0.3141 H   0  0  0  0  0  0  0  0  0  0  0  0
    1.2789   -1.9887   -0.8661 H   0  0  0  0  0  0  0  0  0  0  0  0
    1.9039   -3.5948    0.9632 H   0  0  0  0  0  0  0  0  0  0  0  0
    1.1006   -2.5656    2.1274 H   0  0  0  0  0  0  0  0  0  0  0  0
   -1.0847   -2.8993    0.9071 H   0  0  0  0  0  0  0  0  0  0  0  0
   -0.2697   -3.9638   -0.2345 H   0  0  0  0  0  0  0  0  0  0  0  0
   -0.4079   -4.4287    1.4589 H   0  0  0  0  0  0  0  0  0  0  0  0
   -1.1473    3.1248   -0.2269 C   0  0  0  0  0  0  0  0  0  0  0  0
   -2.2036    2.0504   -0.1639 C   0  0  0  0  0  0  0  0  0  0  0  0
   -2.8025    1.7292    1.0510 C   0  0  0  0  0  0  0  0  0  0  0  0
   -3.7341    0.7091    1.1290 C   0  0  0  0  0  0  0  0  0  0  0  0
   -4.0820   -0.0147   -0.0099 C   0  0  0  0  0  0  0  0  0  0  0  0
   -3.4857    0.3055   -1.2283 C   0  0  0  0  0  0  0  0  0  0  0  0
   -2.5557    1.3298   -1.2998 C   0  0  0  0  0  0  0  0  0  0  0  0
   -5.0856   -1.0998    0.1259 C   0  0  0  0  0  0  0  0  0  0  0  0
   -5.6373   -1.3778    1.1642 O   0  0  0  0  0  0  0  0  0  0  0  0
   -5.3121   -1.7336   -1.0128 O   0  0  0  0  0  0  0  0  0  0  0  0
   -6.2700   -2.7922   -1.0015 C   0  0  0  0  0  0  0  0  0  0  0  0
   -1.3622    3.9194    0.4873 H   0  0  0  0  0  0  0  0  0  0  0  0
   -1.1121    3.5694   -1.2229 H   0  0  0  0  0  0  0  0  0  0  0  0
   -2.5393    2.2823    1.9447 H   0  0  0  0  0  0  0  0  0  0  0  0
   -4.1918    0.4755    2.0809 H   0  0  0  0  0  0  0  0  0  0  0  0
   -3.7392   -0.2362   -2.1290 H   0  0  0  0  0  0  0  0  0  0  0  0
   -2.1000    1.5699   -2.2521 H   0  0  0  0  0  0  0  0  0  0  0  0
   -5.9696   -3.5936   -0.3269 H   0  0  0  0  0  0  0  0  0  0  0  0
   -7.2578   -2.4314   -0.7160 H   0  0  0  0  0  0  0  0  0  0  0  0
   -6.3051   -3.1721   -2.0181 H   0  0  0  0  0  0  0  0  0  0  0  0
 10  9  1  0
  9  8  1  0
  8  7  1  0
  7  6  1  0
 15 13  1  0
 15 14  2  0
 13 11  2  0
  6 11  1  0
  6  5  1  0
 14 12  1  0
 11 12  1  0
  2  1  1  0
  1  3  1  0
  3  5  1  0
  3  4  2  0
  1 16  1  0
  2 17  1  0
  5 18  1  0
  5 19  1  0
  6 20  1  6
  7 21  1  0
  7 22  1  0
  8 23  1  0
  8 24  1  0
  9 25  1  0
  9 26  1  0
 10 27  1  0
 10 28  1  0
 10 29  1  0
 15 30  1  0
 30 31  1  0
 31 32  2  0
 32 33  1  0
 33 34  2  0
 34 35  1  0
 35 36  2  0
 36 31  1  0
 34 37  1  0
 37 38  2  0
 37 39  1  0
 39 40  1  0
 30 41  1  0
 30 42  1  0
 32 43  1  0
 33 44  1  0
 35 45  1  0
 36 46  1  0
 40 47  1  0
 40 48  1  0
 40 49  1  0
M  END
