
     RDKit          3D

 36 38  0  0  0  0  0  0  0  0999 V2000
    3.0660    0.6029    2.0814 C   0  0  0  0  0  0  0  0  0  0  0  0
    3.1261   -0.4512    1.0141 C   0  0  0  0  0  0  0  0  0  0  0  0
    4.0348   -1.5025    1.1108 C   0  0  0  0  0  0  0  0  0  0  0  0
    3.2313   -2.4604   -0.9394 C   0  0  0  0  0  0  0  0  0  0  0  0
    2.3211   -1.4183   -1.0507 C   0  0  0  0  0  0  0  0  0  0  0  0
    2.2626   -0.4151   -0.0881 C   0  0  0  0  0  0  0  0  0  0  0  0
    1.2691    0.6786   -0.2442 C   0  0  0  0  0  0  0  0  0  0  0  0
   -1.0044    1.4687    0.0421 C   0  0  0  0  0  0  0  0  0  0  0  0
   -0.6396    2.6927   -0.5145 C   0  0  0  0  0  0  0  0  0  0  0  0
    0.6551    2.8909   -0.9573 C   0  0  0  0  0  0  0  0  0  0  0  0
    1.6262    1.8976   -0.8339 C   0  0  0  0  0  0  0  0  0  0  0  0
    3.0198    2.1348   -1.3321 C   0  0  0  0  0  0  0  0  0  0  0  0
   -2.3917    1.2854    0.5237 C   0  0  0  0  0  0  0  0  0  0  0  0
   -4.0908   -0.4033    1.0139 N   0  0  0  0  0  0  0  0  0  0  0  0
   -4.5416   -1.6111    0.6026 C   0  0  0  0  0  0  0  0  0  0  0  0
    4.0926   -2.4998    0.1466 C   0  0  0  0  0  0  0  0  0  0  0  0
   -0.0371    0.4741    0.1808 C   0  0  0  0  0  0  0  0  0  0  0  0
   -3.0248    2.1909    1.0198 O   0  0  0  0  0  0  0  0  0  0  0  0
   -3.0374   -0.0408    0.3442 C   0  0  0  0  0  0  0  0  0  0  0  0
   -3.8358   -2.1827   -0.4172 C   0  0  0  0  0  0  0  0  0  0  0  0
   -2.5452   -1.1717   -0.8635 S   0  0  0  0  0  0  0  0  0  0  0  0
    3.1526    1.6097    1.6697 H   0  0  0  0  0  0  0  0  0  0  0  0
    2.1210    0.5661    2.6270 H   0  0  0  0  0  0  0  0  0  0  0  0
    3.8698    0.4722    2.8040 H   0  0  0  0  0  0  0  0  0  0  0  0
    4.7079   -1.5410    1.9590 H   0  0  0  0  0  0  0  0  0  0  0  0
    3.2658   -3.2333   -1.6959 H   0  0  0  0  0  0  0  0  0  0  0  0
    1.6451   -1.3815   -1.8965 H   0  0  0  0  0  0  0  0  0  0  0  0
   -1.3737    3.4799   -0.6256 H   0  0  0  0  0  0  0  0  0  0  0  0
    0.9220    3.8367   -1.4124 H   0  0  0  0  0  0  0  0  0  0  0  0
    3.2878    1.4204   -2.1120 H   0  0  0  0  0  0  0  0  0  0  0  0
    3.1244    3.1373   -1.7429 H   0  0  0  0  0  0  0  0  0  0  0  0
    3.7563    2.0214   -0.5346 H   0  0  0  0  0  0  0  0  0  0  0  0
    4.8086   -3.3052    0.2474 H   0  0  0  0  0  0  0  0  0  0  0  0
   -0.2816   -0.4659    0.6595 H   0  0  0  0  0  0  0  0  0  0  0  0
   -4.0162   -3.1268   -0.9063 H   0  0  0  0  0  0  0  0  0  0  0  0
   -5.4050   -2.0571    1.0744 H   0  0  0  0  0  0  0  0  0  0  0  0
  1  2  1  0
  2  3  2  0
  2  6  1  0
  3 16  1  0
  4  5  1  0
  4 16  2  0
  5  6  2  0
  6  7  1  0
  7 11  1  0
  7 17  2  0
  8  9  2  0
  8 13  1  0
  8 17  1  0
  9 10  1  0
 10 11  2  0
 11 12  1  0
 13 18  2  0
 13 19  1  0
 14 15  1  0
 14 19  2  0
 15 20  2  0
 19 21  1  0
 20 21  1  0
  1 22  1  0
  1 23  1  0
  1 24  1  0
  3 25  1  0
  4 26  1  0
  5 27  1  0
  9 28  1  0
 10 29  1  0
 12 30  1  0
 12 31  1  0
 12 32  1  0
 15 36  1  0
 16 33  1  0
 17 34  1  0
 20 35  1  0
M  END
