
     RDKit          3D

 64 67  0  0  0  0  0  0  0  0999 V2000
    3.2254   -2.5977   -1.2747 F   0  0  0  0  0  0  0  0  0  0  0  0
    3.8940   -1.7511   -0.4838 C   0  0  0  0  0  0  0  0  0  0  0  0
    4.5055   -2.2515    0.6645 C   0  0  0  0  0  0  0  0  0  0  0  0
    4.3782   -3.5703    0.8926 O   0  0  0  0  0  0  0  0  0  0  0  0
    4.8948   -4.0780    2.1049 C   0  0  0  0  0  0  0  0  0  0  0  0
    5.1943   -1.3461    1.4585 C   0  0  0  0  0  0  0  0  0  0  0  0
    5.2688    0.0016    1.1161 C   0  0  0  0  0  0  0  0  0  0  0  0
    4.6461    0.4712   -0.0272 C   0  0  0  0  0  0  0  0  0  0  0  0
    4.6771    1.7582   -0.4297 O   0  0  0  0  0  0  0  0  0  0  0  0
    3.9352   -0.4208   -0.8337 C   0  0  0  0  0  0  0  0  0  0  0  0
    3.2518    0.0397   -2.0883 C   0  0  0  0  0  0  0  0  0  0  0  0
    3.7480   -0.1950   -3.1684 O   0  0  0  0  0  0  0  0  0  0  0  0
    1.9600    0.7404   -1.9465 C   0  0  0  0  0  0  0  0  0  0  0  0
    1.2361    1.0896   -3.0902 C   0  0  0  0  0  0  0  0  0  0  0  0
   -0.0003    1.6941   -2.9758 C   0  0  0  0  0  0  0  0  0  0  0  0
    1.4261    1.0455   -0.6973 C   0  0  0  0  0  0  0  0  0  0  0  0
    0.1978    1.6751   -0.5869 C   0  0  0  0  0  0  0  0  0  0  0  0
   -0.5420    1.9833   -1.7225 C   0  0  0  0  0  0  0  0  0  0  0  0
   -1.9097    2.6027   -1.6303 C   0  0  0  0  0  0  0  0  0  0  0  0
   -2.4702    2.3178   -0.3793 O   0  0  0  0  0  0  0  0  0  0  0  0
   -3.8786    2.2578   -0.3148 C   0  0  2  0  0  0  0  0  0  0  0  0
   -4.4345    3.6406    0.0351 C   0  0  0  0  0  0  0  0  0  0  0  0
   -5.9459    3.8099   -0.0763 C   0  0  0  0  0  0  0  0  0  0  0  0
   -6.7729    2.7382    0.6218 C   0  0  0  0  0  0  0  0  0  0  0  0
   -6.5903    1.4508   -0.0300 N   0  0  0  0  0  0  0  0  0  0  0  0
   -5.6124    0.5638    0.5565 C   0  0  0  0  0  0  0  0  0  0  0  0
   -4.2431    1.2172    0.7755 C   0  0  1  0  0  0  0  0  0  0  0  0
   -3.2620    0.1594    0.8639 N   0  0  0  0  0  0  0  0  0  0  0  0
   -2.1698    0.2367    1.6409 C   0  0  0  0  0  0  0  0  0  0  0  0
   -2.0335    1.0535    2.5390 O   0  0  0  0  0  0  0  0  0  0  0  0
   -1.0847   -0.7669    1.3732 C   0  0  0  0  0  0  0  0  0  0  0  0
   -0.1302   -0.9856    2.3598 C   0  0  0  0  0  0  0  0  0  0  0  0
    0.9158   -1.8566    2.0994 C   0  0  0  0  0  0  0  0  0  0  0  0
    1.0679   -2.4947    0.9459 N   0  0  0  0  0  0  0  0  0  0  0  0
    0.1643   -2.2744    0.0016 C   0  0  0  0  0  0  0  0  0  0  0  0
   -0.9239   -1.4294    0.1628 C   0  0  0  0  0  0  0  0  0  0  0  0
    5.9810   -3.9686    2.1668 H   0  0  0  0  0  0  0  0  0  0  0  0
    4.4426   -3.5930    2.9745 H   0  0  0  0  0  0  0  0  0  0  0  0
    4.6502   -5.1369    2.1269 H   0  0  0  0  0  0  0  0  0  0  0  0
    5.6918   -1.6698    2.3624 H   0  0  0  0  0  0  0  0  0  0  0  0
    5.8255    0.6781    1.7533 H   0  0  0  0  0  0  0  0  0  0  0  0
    5.1788    2.2949    0.1943 H   0  0  0  0  0  0  0  0  0  0  0  0
    1.6320    0.8647   -4.0716 H   0  0  0  0  0  0  0  0  0  0  0  0
   -0.5625    1.9273   -3.8724 H   0  0  0  0  0  0  0  0  0  0  0  0
    1.9533    0.7784    0.2090 H   0  0  0  0  0  0  0  0  0  0  0  0
   -0.1871    1.9023    0.3966 H   0  0  0  0  0  0  0  0  0  0  0  0
   -1.8346    3.6860   -1.8024 H   0  0  0  0  0  0  0  0  0  0  0  0
   -2.5302    2.2054   -2.4439 H   0  0  0  0  0  0  0  0  0  0  0  0
   -4.2777    1.9197   -1.2821 H   0  0  0  0  0  0  0  0  0  0  0  0
   -4.1108    3.8841    1.0528 H   0  0  0  0  0  0  0  0  0  0  0  0
   -3.9633    4.3786   -0.6206 H   0  0  0  0  0  0  0  0  0  0  0  0
   -6.2109    4.7924    0.3231 H   0  0  0  0  0  0  0  0  0  0  0  0
   -6.2351    3.8132   -1.1308 H   0  0  0  0  0  0  0  0  0  0  0  0
   -6.5454    2.7086    1.6978 H   0  0  0  0  0  0  0  0  0  0  0  0
   -7.8267    3.0121    0.5462 H   0  0  0  0  0  0  0  0  0  0  0  0
   -7.4701    0.9605   -0.0960 H   0  0  0  0  0  0  0  0  0  0  0  0
   -5.9280    0.1380    1.5206 H   0  0  0  0  0  0  0  0  0  0  0  0
   -5.4888   -0.2786   -0.1319 H   0  0  0  0  0  0  0  0  0  0  0  0
   -4.2405    1.7295    1.7394 H   0  0  0  0  0  0  0  0  0  0  0  0
   -3.2841   -0.5300    0.1296 H   0  0  0  0  0  0  0  0  0  0  0  0
   -0.1920   -0.4869    3.3168 H   0  0  0  0  0  0  0  0  0  0  0  0
    1.6668   -2.0433    2.8590 H   0  0  0  0  0  0  0  0  0  0  0  0
    0.3087   -2.7890   -0.9411 H   0  0  0  0  0  0  0  0  0  0  0  0
   -1.5931   -1.2875   -0.6747 H   0  0  0  0  0  0  0  0  0  0  0  0
  1  2  1  0
  2  3  2  0
  2 10  1  0
  3  4  1  0
  3  6  1  0
  4  5  1  0
  5 37  1  0
  5 38  1  0
  5 39  1  0
  6  7  2  0
  6 40  1  0
  7  8  1  0
  7 41  1  0
  8  9  1  0
  8 10  2  0
  9 42  1  0
 10 11  1  0
 11 12  2  0
 11 13  1  0
 13 14  2  0
 13 16  1  0
 14 15  1  0
 14 43  1  0
 15 18  2  0
 15 44  1  0
 16 17  2  0
 16 45  1  0
 17 18  1  0
 17 46  1  0
 18 19  1  0
 19 20  1  0
 19 47  1  0
 19 48  1  0
 20 21  1  0
 21 22  1  0
 21 27  1  0
 21 49  1  6
 22 23  1  0
 22 50  1  0
 22 51  1  0
 23 24  1  0
 23 52  1  0
 23 53  1  0
 24 25  1  0
 24 54  1  0
 24 55  1  0
 25 26  1  0
 25 56  1  0
 26 27  1  0
 26 57  1  0
 26 58  1  0
 27 28  1  0
 27 59  1  1
 28 29  1  0
 28 60  1  0
 29 30  2  0
 29 31  1  0
 31 32  2  0
 31 36  1  0
 32 33  1  0
 32 61  1  0
 33 34  2  0
 33 62  1  0
 34 35  1  0
 35 36  2  0
 35 63  1  0
 36 64  1  0
M  END
