
     RDKit          3D

 50 53  0  0  0  0  0  0  0  0999 V2000
    3.4272   -2.7193   -0.1000 C   0  0  1  0  0  0  0  0  0  0  0  0
    2.3772   -0.4591    0.3209 C   0  0  0  0  0  0  0  0  0  0  0  0
    2.5838    1.6230   -0.8960 C   0  0  0  0  0  0  0  0  0  0  0  0
    2.7702    2.2948    0.3017 C   0  0  0  0  0  0  0  0  0  0  0  0
    2.7743    1.6142    1.5083 C   0  0  0  0  0  0  0  0  0  0  0  0
    2.5800    0.2410    1.5063 C   0  0  0  0  0  0  0  0  0  0  0  0
   -4.4248    0.3407    0.3280 C   0  0  0  0  0  0  0  0  0  0  0  0
   -3.9476    1.4688   -0.3210 C   0  0  0  0  0  0  0  0  0  0  0  0
   -4.7799    2.4849   -0.7215 C   0  0  0  0  0  0  0  0  0  0  0  0
   -6.1438    2.3301   -0.4413 C   0  0  0  0  0  0  0  0  0  0  0  0
   -6.6211    1.2027    0.2078 C   0  0  0  0  0  0  0  0  0  0  0  0
   -5.7587    0.1739    0.6087 C   0  0  0  0  0  0  0  0  0  0  0  0
   -1.0623    0.0840    0.8910 C   0  0  0  0  0  0  0  0  0  0  0  0
   -2.2404    0.0486   -0.0618 C   0  0  1  0  0  0  0  0  0  0  0  0
   -1.9520   -0.7991   -1.2922 C   0  0  0  0  0  0  0  0  0  0  0  0
   -1.4439   -2.1791   -0.8862 C   0  0  0  0  0  0  0  0  0  0  0  0
   -0.2751   -2.0466   -0.0315 N   0  0  0  0  0  0  0  0  0  0  0  0
   -0.5668   -1.3286    1.1967 C   0  0  0  0  0  0  0  0  0  0  0  0
    1.1113   -2.7276   -1.6682 O   0  0  0  0  0  0  0  0  0  0  0  0
    2.1629   -1.9575    0.3417 C   0  0  1  0  0  0  0  0  0  0  0  0
    4.5411   -2.2651    0.7251 N   0  0  0  0  0  0  0  0  0  0  0  0
    3.2635   -4.2191    0.1042 C   0  0  0  0  0  0  0  0  0  0  0  0
    2.3896    0.2500   -0.8783 C   0  0  0  0  0  0  0  0  0  0  0  0
    3.0027    4.0128    0.2890 Cl  0  0  0  0  0  0  0  0  0  0  0  0
   -3.3879   -0.4804    0.6198 O   0  0  0  0  0  0  0  0  0  0  0  0
   -2.6016    1.3759   -0.4506 O   0  0  0  0  0  0  0  0  0  0  0  0
    3.5894   -2.5243   -1.1682 H   0  0  0  0  0  0  0  0  0  0  0  0
    2.5881    2.1598   -1.8349 H   0  0  0  0  0  0  0  0  0  0  0  0
    2.9267    2.1424    2.4397 H   0  0  0  0  0  0  0  0  0  0  0  0
    2.5826   -0.2908    2.4500 H   0  0  0  0  0  0  0  0  0  0  0  0
   -6.8335    3.1067   -0.7433 H   0  0  0  0  0  0  0  0  0  0  0  0
   -7.6797    1.1088    0.4095 H   0  0  0  0  0  0  0  0  0  0  0  0
   -6.1281   -0.7076    1.1149 H   0  0  0  0  0  0  0  0  0  0  0  0
   -0.2571    0.6602    0.4288 H   0  0  0  0  0  0  0  0  0  0  0  0
   -1.3447    0.5916    1.8156 H   0  0  0  0  0  0  0  0  0  0  0  0
   -2.8510   -0.8915   -1.9072 H   0  0  0  0  0  0  0  0  0  0  0  0
   -1.1927   -0.2953   -1.8964 H   0  0  0  0  0  0  0  0  0  0  0  0
   -2.2150   -2.7263   -0.3385 H   0  0  0  0  0  0  0  0  0  0  0  0
   -1.1932   -2.7648   -1.7649 H   0  0  0  0  0  0  0  0  0  0  0  0
    0.3009   -1.2832    1.8456 H   0  0  0  0  0  0  0  0  0  0  0  0
   -1.3289   -1.8860    1.7477 H   0  0  0  0  0  0  0  0  0  0  0  0
    1.9687   -2.2622    1.3744 H   0  0  0  0  0  0  0  0  0  0  0  0
    5.3657   -2.7993    0.4781 H   0  0  0  0  0  0  0  0  0  0  0  0
    4.7678   -1.3029    0.5053 H   0  0  0  0  0  0  0  0  0  0  0  0
    2.4654   -4.6285   -0.5110 H   0  0  0  0  0  0  0  0  0  0  0  0
    4.1831   -4.7436   -0.1629 H   0  0  0  0  0  0  0  0  0  0  0  0
    3.0432   -4.4413    1.1501 H   0  0  0  0  0  0  0  0  0  0  0  0
    2.2429   -0.2637   -1.8203 H   0  0  0  0  0  0  0  0  0  0  0  0
    0.9587   -2.2873   -0.5368 C   0  0  0  0  0  0  0  0  0  0  0  0
   -4.4031    3.3644   -1.2259 H   0  0  0  0  0  0  0  0  0  0  0  0
 12 11  2  0
 12  7  1  0
 18 17  1  0
 18 13  1  0
 25  7  1  0
 14 25  1  1
 11 10  1  0
 22  1  1  0
  7  8  2  0
 17 16  1  0
 17 49  1  0
 21  1  1  0
 13 14  1  0
 20  1  1  0
 20 49  1  0
 20  2  1  0
 16 15  1  0
 14 15  1  0
 14 26  1  0
 23  2  1  0
 23  3  2  0
 49 19  2  0
 10  9  2  0
  8 26  1  0
  8  9  1  0
  2  6  2  0
  3  4  1  0
  6  5  1  0
  4  5  2  0
  4 24  1  0
  1 27  1  6
  3 28  1  0
  5 29  1  0
  6 30  1  0
  9 50  1  0
 10 31  1  0
 11 32  1  0
 12 33  1  0
 13 34  1  0
 13 35  1  0
 15 36  1  0
 15 37  1  0
 16 38  1  0
 16 39  1  0
 18 40  1  0
 18 41  1  0
 20 42  1  1
 21 43  1  0
 21 44  1  0
 22 45  1  0
 22 46  1  0
 22 47  1  0
 23 48  1  0
M  END
