
     RDKit          3D

 46 49  0  0  0  0  0  0  0  0999 V2000
   -1.4645    0.7280   -0.1037 C   0  0  0  0  0  0  0  0  0  0  0  0
   -3.7039   -0.2155    0.0980 C   0  0  0  0  0  0  0  0  0  0  0  0
   -5.6538    1.2398    0.0318 C   0  0  0  0  0  0  0  0  0  0  0  0
   -7.1329    1.2088    0.3690 C   0  0  0  0  0  0  0  0  0  0  0  0
   -7.3182   -0.9868   -0.3476 C   0  0  0  0  0  0  0  0  0  0  0  0
    3.7749    1.6334   -0.2852 C   0  0  0  0  0  0  0  0  0  0  0  0
    2.4815    2.0974   -0.3571 C   0  0  0  0  0  0  0  0  0  0  0  0
    1.3959    1.3400   -0.2138 N   0  0  0  0  0  0  0  0  0  0  0  0
    1.5741    0.0455    0.0177 C   0  0  0  0  0  0  0  0  0  0  0  0
    2.8534   -0.5304    0.1215 C   0  0  0  0  0  0  0  0  0  0  0  0
    3.9761    0.2655   -0.0337 C   0  0  0  0  0  0  0  0  0  0  0  0
    5.3136   -0.2950    0.0529 C   0  0  0  0  0  0  0  0  0  0  0  0
    5.5787   -1.6249   -0.1636 N   0  0  0  0  0  0  0  0  0  0  0  0
    6.8916   -1.8177    0.0178 C   0  0  0  0  0  0  0  0  0  0  0  0
    7.4996   -0.7055    0.3521 N   0  0  0  0  0  0  0  0  0  0  0  0
    6.5360    0.2590    0.3784 C   0  0  0  0  0  0  0  0  0  0  0  0
    6.8682    1.6642    0.7482 C   0  0  0  0  0  0  0  0  0  0  0  0
    0.4916   -0.7746    0.1691 N   0  0  0  0  0  0  0  0  0  0  0  0
   -0.8756   -0.5124    0.1309 C   0  0  0  0  0  0  0  0  0  0  0  0
   -2.8495    0.8622   -0.1272 C   0  0  0  0  0  0  0  0  0  0  0  0
   -3.1014   -1.4574    0.3408 C   0  0  0  0  0  0  0  0  0  0  0  0
   -1.7306   -1.6014    0.3496 C   0  0  0  0  0  0  0  0  0  0  0  0
   -5.1000   -0.0961    0.1261 N   0  0  0  0  0  0  0  0  0  0  0  0
   -7.8446    0.3164   -0.4572 O   0  0  0  0  0  0  0  0  0  0  0  0
   -5.8464   -1.0308   -0.7070 C   0  0  0  0  0  0  0  0  0  0  0  0
   -0.8505    1.5954   -0.2812 H   0  0  0  0  0  0  0  0  0  0  0  0
   -5.5086    1.6747   -0.9697 H   0  0  0  0  0  0  0  0  0  0  0  0
   -5.1581    1.8971    0.7487 H   0  0  0  0  0  0  0  0  0  0  0  0
   -7.2551    0.9342    1.4263 H   0  0  0  0  0  0  0  0  0  0  0  0
   -7.5621    2.2017    0.2272 H   0  0  0  0  0  0  0  0  0  0  0  0
   -7.4530   -1.3706    0.6736 H   0  0  0  0  0  0  0  0  0  0  0  0
   -7.8825   -1.6278   -1.0263 H   0  0  0  0  0  0  0  0  0  0  0  0
    2.2991    3.1488   -0.5507 H   0  0  0  0  0  0  0  0  0  0  0  0
    2.9411   -1.5882    0.3378 H   0  0  0  0  0  0  0  0  0  0  0  0
    4.9199   -2.3304   -0.4551 H   0  0  0  0  0  0  0  0  0  0  0  0
    7.3567   -2.7830   -0.1095 H   0  0  0  0  0  0  0  0  0  0  0  0
    6.9782    2.3036   -0.1304 H   0  0  0  0  0  0  0  0  0  0  0  0
    6.1027    2.1128    1.3816 H   0  0  0  0  0  0  0  0  0  0  0  0
    7.8127    1.6907    1.2896 H   0  0  0  0  0  0  0  0  0  0  0  0
    0.7200   -1.7395    0.3483 H   0  0  0  0  0  0  0  0  0  0  0  0
   -3.2468    1.8466   -0.3355 H   0  0  0  0  0  0  0  0  0  0  0  0
   -3.7108   -2.3288    0.5445 H   0  0  0  0  0  0  0  0  0  0  0  0
   -1.3106   -2.5813    0.5484 H   0  0  0  0  0  0  0  0  0  0  0  0
   -5.4912   -2.0488   -0.5507 H   0  0  0  0  0  0  0  0  0  0  0  0
   -5.7149   -0.7965   -1.7746 H   0  0  0  0  0  0  0  0  0  0  0  0
    4.5981    2.3123   -0.4471 H   0  0  0  0  0  0  0  0  0  0  0  0
 14 15  2  0
 14 13  1  0
 15 16  1  0
  5 25  1  0
  5 24  1  0
 13 12  1  0
 25 23  1  0
 16 17  1  0
 16 12  2  0
 24  4  1  0
 12 11  1  0
  4  3  1  0
 23  3  1  0
 23  2  1  0
 20  2  1  0
 20  1  2  0
 11 10  1  0
 11  6  2  0
  2 21  2  0
  1 19  1  0
 10  9  2  0
  6  7  1  0
 21 22  1  0
 19 22  2  0
 19 18  1  0
  9 18  1  0
  9  8  1  0
  7  8  2  0
  1 26  1  0
  3 27  1  0
  3 28  1  0
  4 29  1  0
  4 30  1  0
  5 31  1  0
  5 32  1  0
  6 46  1  0
  7 33  1  0
 10 34  1  0
 13 35  1  0
 14 36  1  0
 17 37  1  0
 17 38  1  0
 17 39  1  0
 18 40  1  0
 20 41  1  0
 21 42  1  0
 22 43  1  0
 25 44  1  0
 25 45  1  0
M  END
