
     RDKit          3D

 31 33  0  0  0  0  0  0  0  0999 V2000
    3.4925    1.8120   -0.3601 C   0  0  0  0  0  0  0  0  0  0  0  0
    2.5687    2.8404   -0.2371 C   0  0  0  0  0  0  0  0  0  0  0  0
    0.6502   -1.7362    0.8544 C   0  0  0  0  0  0  0  0  0  0  0  0
    0.3744   -3.1670    0.4366 C   0  0  0  0  0  0  0  0  0  0  0  0
    0.9853   -3.2602   -0.9243 C   0  0  0  0  0  0  0  0  0  0  0  0
   -0.6910    0.9536   -0.0748 C   0  0  0  0  0  0  0  0  0  0  0  0
   -3.4152    0.4859    0.0499 C   0  0  0  0  0  0  0  0  0  0  0  0
   -1.3233    0.1738   -1.0423 C   0  0  0  0  0  0  0  0  0  0  0  0
   -4.7377    0.2598    0.1107 F   0  0  0  0  0  0  0  0  0  0  0  0
   -2.8260    1.2683    1.0233 C   0  0  0  0  0  0  0  0  0  0  0  0
   -1.4598    1.4945    0.9529 C   0  0  0  0  0  0  0  0  0  0  0  0
   -2.6880   -0.0664   -0.9869 C   0  0  0  0  0  0  0  0  0  0  0  0
    0.7591    1.2304   -0.1417 C   0  0  0  0  0  0  0  0  0  0  0  0
    1.7047    0.2041   -0.2370 C   0  0  0  0  0  0  0  0  0  0  0  0
    3.0589    0.4955   -0.3466 C   0  0  0  0  0  0  0  0  0  0  0  0
    1.2181    2.5466   -0.1264 C   0  0  0  0  0  0  0  0  0  0  0  0
    1.2930   -1.1442   -0.2053 N   0  0  0  0  0  0  0  0  0  0  0  0
    1.4992   -2.0743   -1.2383 C   0  0  0  0  0  0  0  0  0  0  0  0
    4.5483    2.0297   -0.4504 H   0  0  0  0  0  0  0  0  0  0  0  0
    2.8962    3.8717   -0.2384 H   0  0  0  0  0  0  0  0  0  0  0  0
    0.8081   -3.8615    1.1612 H   0  0  0  0  0  0  0  0  0  0  0  0
   -0.7046   -3.3506    0.4383 H   0  0  0  0  0  0  0  0  0  0  0  0
    0.9998   -4.1403   -1.5460 H   0  0  0  0  0  0  0  0  0  0  0  0
   -0.7561   -0.2406   -1.8658 H   0  0  0  0  0  0  0  0  0  0  0  0
   -3.4177    1.6889    1.8255 H   0  0  0  0  0  0  0  0  0  0  0  0
   -0.9849    2.0927    1.7201 H   0  0  0  0  0  0  0  0  0  0  0  0
   -3.1772   -0.6652   -1.7440 H   0  0  0  0  0  0  0  0  0  0  0  0
    3.7741   -0.3150   -0.4083 H   0  0  0  0  0  0  0  0  0  0  0  0
    0.4996    3.3533   -0.0549 H   0  0  0  0  0  0  0  0  0  0  0  0
    2.0112   -1.7602   -2.1353 H   0  0  0  0  0  0  0  0  0  0  0  0
    0.3869   -1.1938    1.9050 O   0  0  0  0  0  0  0  0  0  0  0  0
  2 16  1  0
  2  1  2  0
 16 13  2  0
  1 15  1  0
 13  6  1  0
 13 14  1  0
  8 12  1  0
  8  6  2  0
 12  7  2  0
  6 11  1  0
  7 10  1  0
  7  9  1  0
 11 10  2  0
 15 14  2  0
 14 17  1  0
 31  3  2  0
 17  3  1  0
 17 18  1  0
  3  4  1  0
 18  5  2  0
  4  5  1  0
  1 19  1  0
  2 20  1  0
  4 21  1  0
  4 22  1  0
  5 23  1  0
  8 24  1  0
 10 25  1  0
 11 26  1  0
 12 27  1  0
 15 28  1  0
 16 29  1  0
 18 30  1  0
M  END
