
     RDKit          3D

102101  0  0  0  0  0  0  0  0999 V2000
   -3.0100   -0.8590   14.7830 C   0  0  0  0  0  0  0  0  0  0  0  0
   -2.9380    0.1000   13.7270 O   0  0  0  0  0  0  0  0  0  0  0  0
   -3.8410   -0.3350   12.7100 C   0  0  1  0  0  0  0  0  0  0  0  0
   -3.3860   -1.6930   12.1700 C   0  0  0  0  0  0  0  0  0  0  0  0
   -5.2470   -0.4660   13.2990 C   0  0  0  0  0  0  0  0  0  0  0  0
   -3.8590    0.6860   11.5710 C   0  0  0  0  0  0  0  0  0  0  0  0
   -2.4740    0.8150   10.9910 C   0  0  0  0  0  0  0  0  0  0  0  0
   -2.2600    0.5320    9.7020 C   0  0  0  0  0  0  0  0  0  0  0  0
   -0.9580    0.6540    9.1560 C   0  0  0  0  0  0  0  0  0  0  0  0
    0.1850    1.1010   10.0290 C   0  0  0  0  0  0  0  0  0  0  0  0
   -0.7410    0.3670    7.8450 C   0  0  0  0  0  0  0  0  0  0  0  0
    0.5680    0.3640    7.3340 C   0  0  0  0  0  0  0  0  0  0  0  0
    0.7790    0.1800    5.9980 C   0  0  0  0  0  0  0  0  0  0  0  0
    2.0840    0.1780    5.4880 C   0  0  0  0  0  0  0  0  0  0  0  0
    3.2560    0.3770    6.4150 C   0  0  0  0  0  0  0  0  0  0  0  0
    2.2970   -0.0060    4.1400 C   0  0  0  0  0  0  0  0  0  0  0  0
    3.6030   -0.0690    3.6400 C   0  0  0  0  0  0  0  0  0  0  0  0
    3.8160   -0.1500    2.2810 C   0  0  0  0  0  0  0  0  0  0  0  0
    5.1220   -0.2120    1.7800 C   0  0  0  0  0  0  0  0  0  0  0  0
    6.2940   -0.1910    2.7270 C   0  0  0  0  0  0  0  0  0  0  0  0
    5.3350   -0.2940    0.4210 C   0  0  0  0  0  0  0  0  0  0  0  0
    4.2470   -0.3140   -0.4580 C   0  0  0  0  0  0  0  0  0  0  0  0
    4.4600   -0.3950   -1.8160 C   0  0  0  0  0  0  0  0  0  0  0  0
    3.3700   -0.4150   -2.6970 C   0  0  0  0  0  0  0  0  0  0  0  0
    3.5820   -0.4950   -4.0430 C   0  0  0  0  0  0  0  0  0  0  0  0
    4.9870   -0.5630   -4.5820 C   0  0  0  0  0  0  0  0  0  0  0  0
    2.4880   -0.5160   -4.9260 C   0  0  0  0  0  0  0  0  0  0  0  0
    2.6990   -0.4880   -6.2680 C   0  0  0  0  0  0  0  0  0  0  0  0
    1.5990   -0.3850   -7.1560 C   0  0  0  0  0  0  0  0  0  0  0  0
    1.8100   -0.2580   -8.4700 C   0  0  0  0  0  0  0  0  0  0  0  0
    3.2100   -0.0710   -8.9940 C   0  0  0  0  0  0  0  0  0  0  0  0
    0.6470   -0.3030   -9.4280 C   0  0  0  0  0  0  0  0  0  0  0  0
    0.1050    1.1110   -9.6380 C   0  0  0  0  0  0  0  0  0  0  0  0
   -1.0570    1.0660  -10.5960 C   0  0  0  0  0  0  0  0  0  0  0  0
   -2.1930    1.6350  -10.2750 C   0  0  0  0  0  0  0  0  0  0  0  0
   -2.2830    2.4920   -9.0380 C   0  0  0  0  0  0  0  0  0  0  0  0
   -3.4090    1.4320  -11.1410 C   0  0  0  0  0  0  0  0  0  0  0  0
   -4.1810    0.2030  -10.6560 C   0  0  0  0  0  0  0  0  0  0  0  0
   -5.3970    0.0000  -11.5230 C   0  0  0  0  0  0  0  0  0  0  0  0
   -5.5050   -1.0790  -12.2560 C   0  0  0  0  0  0  0  0  0  0  0  0
   -6.7980   -1.3770  -12.9720 C   0  0  0  0  0  0  0  0  0  0  0  0
   -4.3380   -2.0230  -12.3850 C   0  0  0  0  0  0  0  0  0  0  0  0
   -2.6710   -1.8280   14.4170 H   0  0  0  0  0  0  0  0  0  0  0  0
   -2.3740   -0.5400   15.6090 H   0  0  0  0  0  0  0  0  0  0  0  0
   -4.0400   -0.9420   15.1290 H   0  0  0  0  0  0  0  0  0  0  0  0
   -2.3210   -1.6530   11.9400 H   0  0  0  0  0  0  0  0  0  0  0  0
   -3.5670   -2.4610   12.9210 H   0  0  0  0  0  0  0  0  0  0  0  0
   -3.9450   -1.9300   11.2650 H   0  0  0  0  0  0  0  0  0  0  0  0
   -5.5140    0.4570   13.8120 H   0  0  0  0  0  0  0  0  0  0  0  0
   -5.9610   -0.6550   12.4970 H   0  0  0  0  0  0  0  0  0  0  0  0
   -5.2690   -1.2940   14.0070 H   0  0  0  0  0  0  0  0  0  0  0  0
   -4.5480    0.3530   10.7950 H   0  0  0  0  0  0  0  0  0  0  0  0
   -4.1830    1.6530   11.9550 H   0  0  0  0  0  0  0  0  0  0  0  0
   -1.6540    1.1350   11.6160 H   0  0  0  0  0  0  0  0  0  0  0  0
   -3.0800    0.2120    9.0760 H   0  0  0  0  0  0  0  0  0  0  0  0
    0.6790    0.2280   10.4570 H   0  0  0  0  0  0  0  0  0  0  0  0
    0.9000    1.6660    9.4300 H   0  0  0  0  0  0  0  0  0  0  0  0
   -0.1940    1.7330   10.8310 H   0  0  0  0  0  0  0  0  0  0  0  0
   -1.5740    0.1410    7.1970 H   0  0  0  0  0  0  0  0  0  0  0  0
    1.4070    0.5070    7.9980 H   0  0  0  0  0  0  0  0  0  0  0  0
   -0.0600    0.0380    5.3340 H   0  0  0  0  0  0  0  0  0  0  0  0
    3.4600    1.4430    6.5180 H   0  0  0  0  0  0  0  0  0  0  0  0
    3.0210   -0.0430    7.3930 H   0  0  0  0  0  0  0  0  0  0  0  0
    4.1330   -0.1230    6.0050 H   0  0  0  0  0  0  0  0  0  0  0  0
    1.4560   -0.1030    3.4690 H   0  0  0  0  0  0  0  0  0  0  0  0
    4.4430   -0.0530    4.3180 H   0  0  0  0  0  0  0  0  0  0  0  0
    2.9760   -0.1660    1.6020 H   0  0  0  0  0  0  0  0  0  0  0  0
    7.2220   -0.2470    2.1580 H   0  0  0  0  0  0  0  0  0  0  0  0
    6.2770    0.7330    3.3050 H   0  0  0  0  0  0  0  0  0  0  0  0
    6.2300   -1.0430    3.4040 H   0  0  0  0  0  0  0  0  0  0  0  0
    6.3430   -0.3420    0.0350 H   0  0  0  0  0  0  0  0  0  0  0  0
    3.2390   -0.2660   -0.0710 H   0  0  0  0  0  0  0  0  0  0  0  0
    5.4680   -0.4430   -2.2020 H   0  0  0  0  0  0  0  0  0  0  0  0
    2.3630   -0.3670   -2.3100 H   0  0  0  0  0  0  0  0  0  0  0  0
    4.9610   -0.5290   -5.6710 H   0  0  0  0  0  0  0  0  0  0  0  0
    5.5610    0.2840   -4.2060 H   0  0  0  0  0  0  0  0  0  0  0  0
    5.4570   -1.4920   -4.2580 H   0  0  0  0  0  0  0  0  0  0  0  0
    1.4810   -0.5530   -4.5380 H   0  0  0  0  0  0  0  0  0  0  0  0
    3.7040   -0.5440   -6.6590 H   0  0  0  0  0  0  0  0  0  0  0  0
    0.5900   -0.4080   -6.7710 H   0  0  0  0  0  0  0  0  0  0  0  0
    3.9020    0.0180   -8.1560 H   0  0  0  0  0  0  0  0  0  0  0  0
    3.4880   -0.9310   -9.6040 H   0  0  0  0  0  0  0  0  0  0  0  0
    3.2540    0.8330   -9.6000 H   0  0  0  0  0  0  0  0  0  0  0  0
    0.9780   -0.7110  -10.3830 H   0  0  0  0  0  0  0  0  0  0  0  0
   -0.1380   -0.9360   -9.0160 H   0  0  0  0  0  0  0  0  0  0  0  0
   -0.2260    1.5190   -8.6830 H   0  0  0  0  0  0  0  0  0  0  0  0
    0.8910    1.7440  -10.0500 H   0  0  0  0  0  0  0  0  0  0  0  0
   -0.9540    0.5650  -11.5470 H   0  0  0  0  0  0  0  0  0  0  0  0
   -1.2910    2.6020   -8.6000 H   0  0  0  0  0  0  0  0  0  0  0  0
   -2.6730    3.4740   -9.3050 H   0  0  0  0  0  0  0  0  0  0  0  0
   -2.9490    2.0200   -8.3170 H   0  0  0  0  0  0  0  0  0  0  0  0
   -4.0500    2.3110  -11.0800 H   0  0  0  0  0  0  0  0  0  0  0  0
   -3.0970    1.2800  -12.1750 H   0  0  0  0  0  0  0  0  0  0  0  0
   -3.5400   -0.6760  -10.7180 H   0  0  0  0  0  0  0  0  0  0  0  0
   -4.4920    0.3540   -9.6230 H   0  0  0  0  0  0  0  0  0  0  0  0
   -6.1790    0.7440  -11.5380 H   0  0  0  0  0  0  0  0  0  0  0  0
   -6.6990   -2.3100  -13.5270 H   0  0  0  0  0  0  0  0  0  0  0  0
   -7.6030   -1.4720  -12.2430 H   0  0  0  0  0  0  0  0  0  0  0  0
   -7.0270   -0.5660  -13.6620 H   0  0  0  0  0  0  0  0  0  0  0  0
   -3.4650   -1.5900  -11.8960 H   0  0  0  0  0  0  0  0  0  0  0  0
   -4.5850   -2.9740  -11.9120 H   0  0  0  0  0  0  0  0  0  0  0  0
   -4.1190   -2.1880  -13.4400 H   0  0  0  0  0  0  0  0  0  0  0  0
  1  2  1  0
  1 43  1  0
  1 44  1  0
  1 45  1  0
  3  2  1  1
  3  4  1  0
  3  5  1  0
  3  6  1  0
  4 46  1  0
  4 47  1  0
  4 48  1  0
  5 49  1  0
  5 50  1  0
  5 51  1  0
  6  7  1  0
  6 52  1  0
  6 53  1  0
  7  8  2  0
  7 54  1  0
  8  9  1  0
  8 55  1  0
  9 10  1  0
  9 11  2  0
 10 56  1  0
 10 57  1  0
 10 58  1  0
 11 12  1  0
 11 59  1  0
 12 13  2  0
 12 60  1  0
 13 14  1  0
 13 61  1  0
 14 15  1  0
 14 16  2  0
 15 62  1  0
 15 63  1  0
 15 64  1  0
 16 17  1  0
 16 65  1  0
 17 18  2  0
 17 66  1  0
 18 19  1  0
 18 67  1  0
 19 20  1  0
 19 21  2  0
 20 68  1  0
 20 69  1  0
 20 70  1  0
 21 22  1  0
 21 71  1  0
 22 23  2  0
 22 72  1  0
 23 24  1  0
 23 73  1  0
 24 25  2  0
 24 74  1  0
 25 26  1  0
 25 27  1  0
 26 75  1  0
 26 76  1  0
 26 77  1  0
 27 28  2  0
 27 78  1  0
 28 29  1  0
 28 79  1  0
 29 30  2  0
 29 80  1  0
 30 31  1  0
 30 32  1  0
 31 81  1  0
 31 82  1  0
 31 83  1  0
 32 33  1  0
 32 84  1  0
 32 85  1  0
 33 34  1  0
 33 86  1  0
 33 87  1  0
 34 35  2  0
 34 88  1  0
 35 36  1  0
 35 37  1  0
 36 89  1  0
 36 90  1  0
 36 91  1  0
 37 38  1  0
 37 92  1  0
 37 93  1  0
 38 39  1  0
 38 94  1  0
 38 95  1  0
 39 40  2  0
 39 96  1  0
 40 41  1  0
 40 42  1  0
 41 97  1  0
 41 98  1  0
 41 99  1  0
 42100  1  0
 42101  1  0
 42102  1  0
M  END
