
     RDKit          3D

 61 64  0  0  0  0  0  0  0  0999 V2000
    3.3762    1.1071    0.2307 C   0  0  0  0  0  0  0  0  0  0  0  0
    4.1355   -0.1760   -0.0543 C   0  0  0  0  0  0  0  0  0  0  0  0
    2.7226   -3.5043   -0.9444 C   0  0  0  0  0  0  0  0  0  0  0  0
    3.2220   -1.2973   -0.0839 N   0  0  0  0  0  0  0  0  0  0  0  0
    3.1055   -4.6725   -1.5795 C   0  0  0  0  0  0  0  0  0  0  0  0
    1.4775    1.9509    3.4500 O   0  0  0  0  0  0  0  0  0  0  0  0
    5.3378   -3.8461   -1.7703 C   0  0  0  0  0  0  0  0  0  0  0  0
    3.6475   -2.4789   -0.6986 C   0  0  0  0  0  0  0  0  0  0  0  0
    4.9662   -2.6749   -1.1203 C   0  0  0  0  0  0  0  0  0  0  0  0
    3.4917    3.0924    2.4862 O   0  0  0  0  0  0  0  0  0  0  0  0
    2.4857   -1.4242    1.1643 C   0  0  0  0  0  0  0  0  0  0  0  0
    0.1758    2.8735    0.6948 C   0  0  0  0  0  0  0  0  0  0  0  0
    1.7038   -0.1584    1.4548 C   0  0  0  0  0  0  0  0  0  0  0  0
    2.6424    0.9633    1.4854 N   0  0  0  0  0  0  0  0  0  0  0  0
    4.4179   -4.8560   -2.0018 C   0  0  0  0  0  0  0  0  0  0  0  0
   -0.8382    2.2907    1.4535 C   0  0  0  0  0  0  0  0  0  0  0  0
   -1.9940    1.8227    0.8616 C   0  0  0  0  0  0  0  0  0  0  0  0
   -2.1785    1.9246   -0.5153 C   0  0  0  0  0  0  0  0  0  0  0  0
   -4.0531   -0.1367   -0.3834 C   0  0  0  0  0  0  0  0  0  0  0  0
    2.0086    4.2034   -1.1286 O   0  0  0  0  0  0  0  0  0  0  0  0
    1.3434    3.3309    1.3248 N   0  0  0  0  0  0  0  0  0  0  0  0
   -4.9871   -1.0107   -1.2171 C   0  0  0  0  0  0  0  0  0  0  0  0
    0.7143    3.6204   -2.8357 O   0  0  0  0  0  0  0  0  0  0  0  0
   -1.1922    2.5353   -1.2735 C   0  0  0  0  0  0  0  0  0  0  0  0
   -0.0183    3.0191   -0.6928 C   0  0  0  0  0  0  0  0  0  0  0  0
   -5.3533   -2.2534   -0.4524 C   0  0  0  0  0  0  0  0  0  0  0  0
   -4.5621   -3.3966   -0.5408 C   0  0  0  0  0  0  0  0  0  0  0  0
   -4.8716   -4.5336    0.1934 C   0  0  0  0  0  0  0  0  0  0  0  0
   -5.9786   -4.5414    1.0323 C   0  0  0  0  0  0  0  0  0  0  0  0
   -6.7733   -3.4062    1.1292 C   0  0  0  0  0  0  0  0  0  0  0  0
   -6.4607   -2.2717    0.3922 C   0  0  0  0  0  0  0  0  0  0  0  0
    2.2696    2.3388    2.3026 S   0  0  1  0  0  0  0  0  0  0  0  0
   -3.6356    1.3619   -1.3311 S   0  0  0  0  0  0  0  0  0  0  0  0
    4.0864    1.9285    0.2975 H   0  0  0  0  0  0  0  0  0  0  0  0
    2.6855    1.3063   -0.5962 H   0  0  0  0  0  0  0  0  0  0  0  0
    4.6104   -0.0621   -1.0290 H   0  0  0  0  0  0  0  0  0  0  0  0
    4.9302   -0.3029    0.6950 H   0  0  0  0  0  0  0  0  0  0  0  0
    1.6858   -3.3791   -0.6586 H   0  0  0  0  0  0  0  0  0  0  0  0
    2.3642   -5.4406   -1.7602 H   0  0  0  0  0  0  0  0  0  0  0  0
    6.3666   -3.9665   -2.0858 H   0  0  0  0  0  0  0  0  0  0  0  0
    5.7235   -1.9239   -0.9408 H   0  0  0  0  0  0  0  0  0  0  0  0
    1.7777   -2.2473    1.1029 H   0  0  0  0  0  0  0  0  0  0  0  0
    3.1654   -1.6306    2.0032 H   0  0  0  0  0  0  0  0  0  0  0  0
    0.9443   -0.0146    0.6792 H   0  0  0  0  0  0  0  0  0  0  0  0
    1.2081   -0.2587    2.4167 H   0  0  0  0  0  0  0  0  0  0  0  0
    4.7133   -5.7671   -2.5047 H   0  0  0  0  0  0  0  0  0  0  0  0
   -0.7366    2.2168    2.5255 H   0  0  0  0  0  0  0  0  0  0  0  0
   -2.7593    1.3894    1.4919 H   0  0  0  0  0  0  0  0  0  0  0  0
   -4.5324    0.1353    0.5574 H   0  0  0  0  0  0  0  0  0  0  0  0
   -3.1296   -0.6731   -0.1597 H   0  0  0  0  0  0  0  0  0  0  0  0
    1.9303    3.8983    0.7137 H   0  0  0  0  0  0  0  0  0  0  0  0
   -5.8878   -0.4490   -1.4760 H   0  0  0  0  0  0  0  0  0  0  0  0
   -4.4930   -1.2766   -2.1535 H   0  0  0  0  0  0  0  0  0  0  0  0
    1.4078    4.0619   -3.3495 H   0  0  0  0  0  0  0  0  0  0  0  0
   -1.3349    2.6264   -2.3415 H   0  0  0  0  0  0  0  0  0  0  0  0
   -3.6975   -3.3995   -1.1947 H   0  0  0  0  0  0  0  0  0  0  0  0
   -4.2493   -5.4152    0.1076 H   0  0  0  0  0  0  0  0  0  0  0  0
   -6.2221   -5.4270    1.6051 H   0  0  0  0  0  0  0  0  0  0  0  0
   -7.6399   -3.4044    1.7779 H   0  0  0  0  0  0  0  0  0  0  0  0
   -7.0876   -1.3909    0.4700 H   0  0  0  0  0  0  0  0  0  0  0  0
    1.0017    3.6701   -1.5497 C   0  0  0  0  0  0  0  0  0  0  0  0
  6 32  2  0
 10 32  2  0
 32 14  1  0
 32 21  1  6
 14  1  1  0
 14 13  1  0
  1  2  1  0
 21 12  1  0
 13 11  1  0
 23 61  1  0
 12 16  2  0
 12 25  1  0
  2  4  1  0
 16 17  1  0
 11  4  1  0
 61 25  1  0
 61 20  2  0
  4  8  1  0
 25 24  2  0
 17 18  2  0
  8  3  2  0
  8  9  1  0
  3  5  1  0
 24 18  1  0
 18 33  1  0
  9  7  2  0
  5 15  2  0
 27 28  2  0
 27 26  1  0
 28 29  1  0
 33 19  1  0
  7 15  1  0
 19 22  1  0
 22 26  1  0
 26 31  2  0
 29 30  2  0
 31 30  1  0
  1 34  1  0
  1 35  1  0
  2 36  1  0
  2 37  1  0
  3 38  1  0
  5 39  1  0
  7 40  1  0
  9 41  1  0
 11 42  1  0
 11 43  1  0
 13 44  1  0
 13 45  1  0
 15 46  1  0
 16 47  1  0
 17 48  1  0
 19 49  1  0
 19 50  1  0
 21 51  1  0
 22 52  1  0
 22 53  1  0
 23 54  1  0
 24 55  1  0
 27 56  1  0
 28 57  1  0
 29 58  1  0
 30 59  1  0
 31 60  1  0
M  END
