
     RDKit          3D

 22 22  0  0  0  0  0  0  0  0999 V2000
   -3.1061   -1.1186   -0.4916 O   0  0  0  0  0  0  0  0  0  0  0  0
   -2.6606    0.1120   -0.3466 C   0  0  0  0  0  0  0  0  0  0  0  0
   -3.3257    1.0506    0.0062 O   0  0  0  0  0  0  0  0  0  0  0  0
   -1.1777    0.2440   -0.6868 C   0  0  1  0  0  0  0  0  0  0  0  0
   -0.8531    1.5633   -0.9707 O   0  0  0  0  0  0  0  0  0  0  0  0
   -0.3008   -0.2937    0.4600 C   0  0  1  0  0  0  0  0  0  0  0  0
   -0.6619    0.3494    1.6084 F   0  0  0  0  0  0  0  0  0  0  0  0
   -0.5884   -1.6080    0.6614 F   0  0  0  0  0  0  0  0  0  0  0  0
    1.1683   -0.1220    0.2042 C   0  0  0  0  0  0  0  0  0  0  0  0
    1.8587    0.9737    0.7089 C   0  0  0  0  0  0  0  0  0  0  0  0
    3.2118    1.1238    0.4384 C   0  0  0  0  0  0  0  0  0  0  0  0
    3.8774    0.1891   -0.3424 C   0  0  0  0  0  0  0  0  0  0  0  0
    3.1855   -0.9006   -0.8539 C   0  0  0  0  0  0  0  0  0  0  0  0
    1.8342   -1.0570   -0.5825 C   0  0  0  0  0  0  0  0  0  0  0  0
   -4.0453   -1.1711   -0.2543 H   0  0  0  0  0  0  0  0  0  0  0  0
   -0.9592   -0.3553   -1.5757 H   0  0  0  0  0  0  0  0  0  0  0  0
   -1.2865    2.1451   -0.3341 H   0  0  0  0  0  0  0  0  0  0  0  0
    1.3565    1.7144    1.3160 H   0  0  0  0  0  0  0  0  0  0  0  0
    3.7450    1.9761    0.8383 H   0  0  0  0  0  0  0  0  0  0  0  0
    4.9317    0.3104   -0.5536 H   0  0  0  0  0  0  0  0  0  0  0  0
    3.6974   -1.6332   -1.4635 H   0  0  0  0  0  0  0  0  0  0  0  0
    1.3088   -1.9110   -0.9903 H   0  0  0  0  0  0  0  0  0  0  0  0
  5  4  1  0
  6  8  1  1
  7  6  1  0
  4  6  1  0
  4  2  1  0
  6  9  1  0
  3  2  2  0
  2  1  1  0
  9 10  2  0
  9 14  1  0
 10 11  1  0
 14 13  2  0
 11 12  2  0
 13 12  1  0
  1 15  1  0
  4 16  1  6
  5 17  1  0
 10 18  1  0
 11 19  1  0
 12 20  1  0
 13 21  1  0
 14 22  1  0
M  END
