
     RDKit          3D

 59 62  0  0  0  0  0  0  0  0999 V2000
    1.9105   -1.3139    0.5794 C   0  0  0  0  0  0  0  0  0  0  0  0
    4.6879   -1.1325    1.0681 C   0  0  0  0  0  0  0  0  0  0  0  0
    6.0630   -1.0168    1.2704 C   0  0  0  0  0  0  0  0  0  0  0  0
    6.6600   -1.4315    2.5812 C   0  0  0  0  0  0  0  0  0  0  0  0
   -3.6975   -2.9302   -0.5480 C   0  0  0  0  0  0  0  0  0  0  0  0
   -4.4892   -3.9236   -1.1294 C   0  0  0  0  0  0  0  0  0  0  0  0
   -3.9564   -5.1925   -1.1980 C   0  0  0  0  0  0  0  0  0  0  0  0
   -2.6677   -5.4807   -0.7059 C   0  0  0  0  0  0  0  0  0  0  0  0
   -1.8873   -4.4965   -0.1421 C   0  0  0  0  0  0  0  0  0  0  0  0
   -2.3999   -3.1932   -0.0632 C   0  0  0  0  0  0  0  0  0  0  0  0
   -1.8699   -1.9658    0.4349 C   0  0  0  0  0  0  0  0  0  0  0  0
    0.5193   -1.3538   -0.0167 C   0  0  0  0  0  0  0  0  0  0  0  0
    2.8009   -0.8429   -0.4194 O   0  0  0  0  0  0  0  0  0  0  0  0
   -2.8549   -1.0235    0.2410 C   0  0  0  0  0  0  0  0  0  0  0  0
   -3.9603   -1.6154   -0.3338 N   0  0  0  0  0  0  0  0  0  0  0  0
    6.8410   -0.5138    0.2348 C   0  0  0  0  0  0  0  0  0  0  0  0
    8.5593   -0.3600    0.4702 Cl  0  0  0  0  0  0  0  0  0  0  0  0
    6.2945   -0.1245   -0.9896 C   0  0  0  0  0  0  0  0  0  0  0  0
    4.9249   -0.2540   -1.1583 C   0  0  0  0  0  0  0  0  0  0  0  0
    4.1147   -0.7567   -0.1411 C   0  0  0  0  0  0  0  0  0  0  0  0
   -2.8136    0.3885    0.6140 C   0  0  0  0  0  0  0  0  0  0  0  0
   -1.7823    0.9941    0.8196 O   0  0  0  0  0  0  0  0  0  0  0  0
   -4.0404    1.0113    0.7031 N   0  0  0  0  0  0  0  0  0  0  0  0
   -4.2097    2.6501    1.0351 S   0  0  1  0  0  0  0  0  0  0  0  0
   -5.6419    2.8652    0.9435 O   0  0  0  0  0  0  0  0  0  0  0  0
   -3.5111    2.9878    2.2566 O   0  0  0  0  0  0  0  0  0  0  0  0
   -2.1990    4.6357   -2.4853 C   0  0  0  0  0  0  0  0  0  0  0  0
   -3.4316    4.0136   -2.6468 C   0  0  0  0  0  0  0  0  0  0  0  0
   -4.0483    3.4025   -1.5676 C   0  0  0  0  0  0  0  0  0  0  0  0
   -3.4064    3.4169   -0.3350 C   0  0  0  0  0  0  0  0  0  0  0  0
   -2.1766    4.0322   -0.1564 C   0  0  0  0  0  0  0  0  0  0  0  0
   -1.5760    4.6475   -1.2451 C   0  0  0  0  0  0  0  0  0  0  0  0
    1.9366   -0.6525    1.4538 H   0  0  0  0  0  0  0  0  0  0  0  0
    2.2050   -2.3150    0.9146 H   0  0  0  0  0  0  0  0  0  0  0  0
    7.6571    1.3342   -1.7905 H   0  0  0  0  0  0  0  0  0  0  0  0
    7.9103   -0.2898   -2.4037 H   0  0  0  0  0  0  0  0  0  0  0  0
    6.5347    0.6563   -2.9686 H   0  0  0  0  0  0  0  0  0  0  0  0
    4.0883   -1.5251    1.8787 H   0  0  0  0  0  0  0  0  0  0  0  0
    7.4271   -2.1946    2.4459 H   0  0  0  0  0  0  0  0  0  0  0  0
    7.1330   -0.5897    3.0890 H   0  0  0  0  0  0  0  0  0  0  0  0
    5.8958   -1.8359    3.2419 H   0  0  0  0  0  0  0  0  0  0  0  0
   -4.5423   -5.9894   -1.6376 H   0  0  0  0  0  0  0  0  0  0  0  0
   -2.2914   -6.4928   -0.7762 H   0  0  0  0  0  0  0  0  0  0  0  0
   -0.8966   -4.7244    0.2312 H   0  0  0  0  0  0  0  0  0  0  0  0
    0.2464   -0.3669   -0.3944 H   0  0  0  0  0  0  0  0  0  0  0  0
    0.5067   -2.0444   -0.8641 H   0  0  0  0  0  0  0  0  0  0  0  0
   -4.7512   -1.1303   -0.7261 H   0  0  0  0  0  0  0  0  0  0  0  0
    4.4728    0.0440   -2.0968 H   0  0  0  0  0  0  0  0  0  0  0  0
   -4.9055    0.4840    0.7285 H   0  0  0  0  0  0  0  0  0  0  0  0
   -1.7245    5.1156   -3.3308 H   0  0  0  0  0  0  0  0  0  0  0  0
   -3.9162    4.0066   -3.6134 H   0  0  0  0  0  0  0  0  0  0  0  0
   -5.0102    2.9245   -1.6968 H   0  0  0  0  0  0  0  0  0  0  0  0
   -1.6905    4.0412    0.8086 H   0  0  0  0  0  0  0  0  0  0  0  0
   -0.6193    5.1358   -1.1204 H   0  0  0  0  0  0  0  0  0  0  0  0
    7.1428    0.4221   -2.0969 C   0  0  0  0  0  0  0  0  0  0  0  0
   -0.5104   -1.7950    1.0255 C   0  0  0  0  0  0  0  0  0  0  0  0
   -5.4803   -3.7056   -1.5055 H   0  0  0  0  0  0  0  0  0  0  0  0
   -0.5343   -1.0730    1.8434 H   0  0  0  0  0  0  0  0  0  0  0  0
   -0.1975   -2.7469    1.4643 H   0  0  0  0  0  0  0  0  0  0  0  0
 55 18  1  0
  8  7  1  0
  8  9  2  0
  7  6  2  0
 28 29  1  0
 28 27  2  0
  9 10  1  0
 18 19  2  0
 18 16  1  0
  6  5  1  0
 19 20  1  0
 10  5  2  0
 10 11  1  0
 29 30  2  0
  5 15  1  0
 17 16  1  0
 27 32  1  0
 16  3  2  0
 11 56  1  0
 11 14  2  0
 15 14  1  0
 56 12  1  0
 20 13  1  0
 20  2  2  0
 14 21  1  0
 13  1  1  0
  3  2  1  0
  3  4  1  0
 30 24  1  0
 30 31  1  0
 23 21  1  0
 24 23  1  6
 32 31  2  0
 21 22  2  0
  1 12  1  0
 25 24  2  0
 24 26  2  0
  1 33  1  0
  1 34  1  0
 55 35  1  0
 55 36  1  0
 55 37  1  0
  2 38  1  0
  4 39  1  0
  4 40  1  0
  4 41  1  0
  6 57  1  0
  7 42  1  0
  8 43  1  0
  9 44  1  0
 56 58  1  0
 56 59  1  0
 12 45  1  0
 12 46  1  0
 15 47  1  0
 19 48  1  0
 23 49  1  0
 27 50  1  0
 28 51  1  0
 29 52  1  0
 31 53  1  0
 32 54  1  0
M  END
