
     RDKit          3D

 38 40  0  0  0  0  0  0  0  0999 V2000
   -2.9948    0.7131    0.2381 C   0  0  0  0  0  0  0  0  0  0  0  0
   -3.2927   -1.6886    0.1945 C   0  0  0  0  0  0  0  0  0  0  0  0
   -1.6565    0.5436   -0.1713 C   0  0  0  0  0  0  0  0  0  0  0  0
   -1.9949   -1.8424   -0.1989 C   0  0  0  0  0  0  0  0  0  0  0  0
   -4.8342    2.0875    0.8961 C   0  0  0  0  0  0  0  0  0  0  0  0
   -3.5357    1.9990    0.4935 C   0  0  0  0  0  0  0  0  0  0  0  0
    6.8250    0.0721    0.2253 C   0  0  0  0  0  0  0  0  0  0  0  0
    5.0444    0.5573    1.7584 C   0  0  0  0  0  0  0  0  0  0  0  0
    6.4013    0.3940    1.5070 C   0  0  0  0  0  0  0  0  0  0  0  0
    1.1760   -0.1396   -1.0642 C   0  0  0  0  0  0  0  0  0  0  0  0
   -3.8360   -0.4069    0.4148 C   0  0  0  0  0  0  0  0  0  0  0  0
   -5.1936   -0.1731    0.8184 C   0  0  0  0  0  0  0  0  0  0  0  0
   -5.6610    1.0336    1.0527 N   0  0  0  0  0  0  0  0  0  0  0  0
    2.3431   -0.7648   -1.3473 N   0  0  0  0  0  0  0  0  0  0  0  0
   -1.1495   -0.7199   -0.3940 C   0  0  0  0  0  0  0  0  0  0  0  0
    1.0476    1.0754   -1.0638 O   0  0  0  0  0  0  0  0  0  0  0  0
    3.5497   -0.0561   -1.6910 C   0  0  0  0  0  0  0  0  0  0  0  0
    4.5356    0.0801   -0.5541 C   0  0  0  0  0  0  0  0  0  0  0  0
    4.1192    0.4028    0.7355 C   0  0  0  0  0  0  0  0  0  0  0  0
    5.8958   -0.0870   -0.7952 C   0  0  0  0  0  0  0  0  0  0  0  0
   -3.8875   -2.5807    0.3416 H   0  0  0  0  0  0  0  0  0  0  0  0
   -1.0458    1.4223   -0.2996 H   0  0  0  0  0  0  0  0  0  0  0  0
   -5.8858   -2.0762    0.5163 H   0  0  0  0  0  0  0  0  0  0  0  0
   -7.0158   -0.9739    1.1047 H   0  0  0  0  0  0  0  0  0  0  0  0
   -1.6022   -2.8389   -0.3611 H   0  0  0  0  0  0  0  0  0  0  0  0
   -5.2727    3.0565    1.1079 H   0  0  0  0  0  0  0  0  0  0  0  0
   -2.9286    2.8864    0.3734 H   0  0  0  0  0  0  0  0  0  0  0  0
    4.7043    0.8082    2.7549 H   0  0  0  0  0  0  0  0  0  0  0  0
    7.1220    0.5143    2.3053 H   0  0  0  0  0  0  0  0  0  0  0  0
    2.4160   -1.7641   -1.2410 H   0  0  0  0  0  0  0  0  0  0  0  0
    4.0280   -0.5725   -2.5250 H   0  0  0  0  0  0  0  0  0  0  0  0
    3.2727    0.9320   -2.0593 H   0  0  0  0  0  0  0  0  0  0  0  0
    3.0669    0.5397    0.9506 H   0  0  0  0  0  0  0  0  0  0  0  0
    6.2343   -0.3496   -1.7908 H   0  0  0  0  0  0  0  0  0  0  0  0
   -6.0426   -1.2181    1.0165 N   0  0  0  0  0  0  0  0  0  0  0  0
    0.1477   -1.0111   -0.7870 N   0  0  0  0  0  0  0  0  0  0  0  0
    7.8790   -0.0627    0.0185 H   0  0  0  0  0  0  0  0  0  0  0  0
    0.3464   -1.9947   -0.8872 H   0  0  0  0  0  0  0  0  0  0  0  0
  8  9  1  0
  8 19  2  0
  9  7  2  0
 19 18  1  0
  7 20  1  0
 18 20  2  0
 18 17  1  0
 17 14  1  0
 14 10  1  0
 10 36  1  0
 10 16  2  0
 36 15  1  0
  4 15  1  0
  4  2  2  0
 15  3  2  0
  2 11  1  0
  3  1  1  0
 11  1  2  0
 11 12  1  0
  1  6  1  0
 35 12  1  0
 12 13  2  0
  6  5  2  0
 13  5  1  0
  2 21  1  0
  3 22  1  0
 35 23  1  0
 35 24  1  0
  4 25  1  0
  5 26  1  0
  6 27  1  0
  7 37  1  0
  8 28  1  0
  9 29  1  0
 36 38  1  0
 14 30  1  0
 17 31  1  0
 17 32  1  0
 19 33  1  0
 20 34  1  0
M  END
