
     RDKit          3D

 69 73  0  0  0  0  0  0  0  0999 V2000
   -1.1201    0.0642    1.1412 C   0  0  0  0  0  0  0  0  0  0  0  0
    5.5620    2.4617    1.4700 O   0  0  0  0  0  0  0  0  0  0  0  0
   -1.7263    1.2942    0.9074 C   0  0  0  0  0  0  0  0  0  0  0  0
   -3.0616    1.3605    0.5462 C   0  0  0  0  0  0  0  0  0  0  0  0
   -3.8369    0.2044    0.4470 C   0  0  0  0  0  0  0  0  0  0  0  0
   -5.2670    0.2781    0.0879 C   0  0  0  0  0  0  0  0  0  0  0  0
   -6.0659    1.3256    0.5502 C   0  0  0  0  0  0  0  0  0  0  0  0
    5.2351    2.6947    0.3347 C   0  0  0  0  0  0  0  0  0  0  0  0
    3.9127    2.2838   -0.2757 C   0  0  2  0  0  0  0  0  0  0  0  0
    3.1454    3.5693   -0.6391 C   0  0  0  0  0  0  0  0  0  0  0  0
    1.9476    3.3147   -1.4848 C   0  0  0  0  0  0  0  0  0  0  0  0
    1.0459    2.3258   -1.2145 N   0  0  0  0  0  0  0  0  0  0  0  0
    0.0770    2.3763   -2.1504 C   0  0  0  0  0  0  0  0  0  0  0  0
    0.2893    3.3449   -3.0041 N   0  0  0  0  0  0  0  0  0  0  0  0
    1.4553    3.9367   -2.6002 C   0  0  0  0  0  0  0  0  0  0  0  0
    3.5625    0.0419    0.6331 C   0  0  0  0  0  0  0  0  0  0  0  0
    2.5628   -0.8226    1.4051 C   0  0  2  0  0  0  0  0  0  0  0  0
    2.9483   -2.3039    1.3970 C   0  0  0  0  0  0  0  0  0  0  0  0
    2.6923   -2.9922    0.0605 C   0  0  1  0  0  0  0  0  0  0  0  0
    3.0063   -4.4838    0.1071 C   0  0  0  0  0  0  0  0  0  0  0  0
    2.7312   -5.1507   -1.2375 C   0  0  0  0  0  0  0  0  0  0  0  0
    1.2993   -4.8973   -1.7002 C   0  0  0  0  0  0  0  0  0  0  0  0
    0.9749   -3.4069   -1.7322 C   0  0  0  0  0  0  0  0  0  0  0  0
    1.2473   -2.7580   -0.3803 C   0  0  2  0  0  0  0  0  0  0  0  0
    0.9556   -1.2660   -0.4006 C   0  0  0  0  0  0  0  0  0  0  0  0
    1.1999   -0.6669    0.9022 N   0  0  0  0  0  0  0  0  0  0  0  0
    0.2999    0.0407    1.6155 C   0  0  0  0  0  0  0  0  0  0  0  0
    0.5859    0.6614    2.6326 O   0  0  0  0  0  0  0  0  0  0  0  0
   -1.8839   -1.0948    1.0426 C   0  0  0  0  0  0  0  0  0  0  0  0
   -3.2258   -1.0234    0.7074 C   0  0  0  0  0  0  0  0  0  0  0  0
   -5.8533   -0.7008   -0.7165 C   0  0  0  0  0  0  0  0  0  0  0  0
   -7.1982   -0.6341   -1.0494 C   0  0  0  0  0  0  0  0  0  0  0  0
   -7.9827    0.4128   -0.5835 C   0  0  0  0  0  0  0  0  0  0  0  0
   -7.4111    1.3920    0.2184 C   0  0  0  0  0  0  0  0  0  0  0  0
   -1.1539    2.2095    0.9940 H   0  0  0  0  0  0  0  0  0  0  0  0
   -3.4996    2.3268    0.3307 H   0  0  0  0  0  0  0  0  0  0  0  0
   -5.6405    2.0862    1.1931 H   0  0  0  0  0  0  0  0  0  0  0  0
    4.1569    1.7637   -1.2106 H   0  0  0  0  0  0  0  0  0  0  0  0
    2.8573    4.0745    0.2894 H   0  0  0  0  0  0  0  0  0  0  0  0
    3.8030    4.2586   -1.1726 H   0  0  0  0  0  0  0  0  0  0  0  0
    1.1987    1.6494   -0.4755 H   0  0  0  0  0  0  0  0  0  0  0  0
   -0.7550    1.6881   -2.1652 H   0  0  0  0  0  0  0  0  0  0  0  0
    1.8821    4.7777   -3.1264 H   0  0  0  0  0  0  0  0  0  0  0  0
    2.9910    1.8110    1.4709 H   0  0  0  0  0  0  0  0  0  0  0  0
    3.7067   -0.3289   -0.3856 H   0  0  0  0  0  0  0  0  0  0  0  0
    4.5317   -0.0646    1.1355 H   0  0  0  0  0  0  0  0  0  0  0  0
    2.5635   -0.4781    2.4385 H   0  0  0  0  0  0  0  0  0  0  0  0
    4.0017   -2.3976    1.6761 H   0  0  0  0  0  0  0  0  0  0  0  0
    2.3747   -2.8141    2.1773 H   0  0  0  0  0  0  0  0  0  0  0  0
    3.3439   -2.5410   -0.7016 H   0  0  0  0  0  0  0  0  0  0  0  0
    4.0489   -4.6348    0.4010 H   0  0  0  0  0  0  0  0  0  0  0  0
    2.3927   -4.9549    0.8841 H   0  0  0  0  0  0  0  0  0  0  0  0
    3.4283   -4.7571   -1.9851 H   0  0  0  0  0  0  0  0  0  0  0  0
    2.9213   -6.2246   -1.1711 H   0  0  0  0  0  0  0  0  0  0  0  0
    1.1348   -5.3368   -2.6868 H   0  0  0  0  0  0  0  0  0  0  0  0
    0.6046   -5.3986   -1.0177 H   0  0  0  0  0  0  0  0  0  0  0  0
    1.5812   -2.9137   -2.5009 H   0  0  0  0  0  0  0  0  0  0  0  0
   -0.0702   -3.2543   -2.0180 H   0  0  0  0  0  0  0  0  0  0  0  0
    0.5836   -3.2202    0.3652 H   0  0  0  0  0  0  0  0  0  0  0  0
    1.5998   -0.7827   -1.1449 H   0  0  0  0  0  0  0  0  0  0  0  0
   -0.0665   -1.0753   -0.7196 H   0  0  0  0  0  0  0  0  0  0  0  0
   -1.4420   -2.0622    1.2488 H   0  0  0  0  0  0  0  0  0  0  0  0
   -3.8063   -1.9363    0.6695 H   0  0  0  0  0  0  0  0  0  0  0  0
   -5.2511   -1.5132   -1.1041 H   0  0  0  0  0  0  0  0  0  0  0  0
   -7.6326   -1.3996   -1.6793 H   0  0  0  0  0  0  0  0  0  0  0  0
   -9.0319    0.4653   -0.8432 H   0  0  0  0  0  0  0  0  0  0  0  0
   -8.0153    2.2070    0.5953 H   0  0  0  0  0  0  0  0  0  0  0  0
    3.1034    1.4149    0.5442 N   0  0  0  0  0  0  0  0  0  0  0  0
    5.8960    3.2603   -0.3475 H   0  0  0  0  0  0  0  0  0  0  0  0
 34  7  2  0
 34 33  1  0
  7  6  1  0
 33 32  2  0
  6  5  1  0
  6 31  2  0
 32 31  1  0
 14 15  1  0
 14 13  2  0
 30  5  2  0
 30 29  1  0
  5  4  1  0
 15 11  2  0
 29  1  2  0
 13 12  1  0
  4  3  2  0
 28 27  2  0
  1  3  1  0
  1 27  1  0
  2  8  2  0
 11 12  1  0
 11 10  1  0
 27 26  1  0
  9  8  1  0
  9 10  1  0
  9 68  1  0
 26 17  1  0
 26 25  1  0
 16 68  1  0
 16 17  1  0
 17 18  1  0
 25 24  1  0
 18 19  1  0
 24 19  1  0
 24 23  1  0
 19 20  1  0
 23 22  1  0
 20 21  1  0
 22 21  1  0
  3 35  1  0
  4 36  1  0
  7 37  1  0
  8 69  1  0
  9 38  1  6
 10 39  1  0
 10 40  1  0
 12 41  1  0
 13 42  1  0
 15 43  1  0
 68 44  1  0
 16 45  1  0
 16 46  1  0
 17 47  1  1
 18 48  1  0
 18 49  1  0
 19 50  1  6
 20 51  1  0
 20 52  1  0
 21 53  1  0
 21 54  1  0
 22 55  1  0
 22 56  1  0
 23 57  1  0
 23 58  1  0
 24 59  1  1
 25 60  1  0
 25 61  1  0
 29 62  1  0
 30 63  1  0
 31 64  1  0
 32 65  1  0
 33 66  1  0
 34 67  1  0
M  END
