
     RDKit          3D

 20 20  0  0  0  0  0  0  0  0999 V2000
    1.9737    1.1952   -0.1078 N   0  0  0  0  0  0  0  0  0  0  0  0
    3.3764    0.8937    0.0287 C   0  0  0  0  0  0  0  0  0  0  0  0
    1.0786    0.1936    0.4035 C   0  0  2  0  0  0  0  0  0  0  0  0
    1.0107   -1.2407   -0.1458 C   0  0  2  0  0  0  0  0  0  0  0  0
   -0.1045   -0.2779   -0.4266 C   0  0  0  0  0  0  0  0  0  0  0  0
    0.7867   -2.3943    0.7655 C   0  0  0  0  0  0  0  0  0  0  0  0
    0.8707    0.3367    1.8836 C   0  0  0  0  0  0  0  0  0  0  0  0
    1.6483    0.0782    2.8051 O   0  0  0  0  0  0  0  0  0  0  0  0
   -0.3535    0.8228    2.2419 O   0  0  0  0  0  0  0  0  0  0  0  0
    1.7370    1.4060   -1.0605 H   0  0  0  0  0  0  0  0  0  0  0  0
    3.9558    1.8019   -0.2851 H   0  0  0  0  0  0  0  0  0  0  0  0
    3.7116    0.0195   -0.5951 H   0  0  0  0  0  0  0  0  0  0  0  0
    3.6015    0.6692    1.1057 H   0  0  0  0  0  0  0  0  0  0  0  0
    1.7051   -1.4825   -0.9774 H   0  0  0  0  0  0  0  0  0  0  0  0
   -0.2317    0.1175   -1.4506 H   0  0  0  0  0  0  0  0  0  0  0  0
   -1.0732   -0.4121    0.0899 H   0  0  0  0  0  0  0  0  0  0  0  0
   -0.1926   -2.3026    1.2990 H   0  0  0  0  0  0  0  0  0  0  0  0
    0.7809   -3.3466    0.1799 H   0  0  0  0  0  0  0  0  0  0  0  0
    1.6018   -2.4521    1.5285 H   0  0  0  0  0  0  0  0  0  0  0  0
   -0.4033    0.8836    3.2107 H   0  0  0  0  0  0  0  0  0  0  0  0
  1  2  1  0
  1  3  1  0
  1 10  1  0
  2 11  1  0
  2 12  1  0
  2 13  1  0
  3  4  1  0
  3  5  1  0
  3  7  1  1
  4  5  1  0
  4  6  1  0
  4 14  1  6
  5 15  1  0
  5 16  1  0
  6 17  1  0
  6 18  1  0
  6 19  1  0
  7  8  2  0
  7  9  1  0
  9 20  1  0
M  END
