
     RDKit          3D

 19 20  0  0  0  0  0  0  0  0999 V2000
   -1.2890    0.6871   -0.2515 C   0  0  2  0  0  0  0  0  0  0  0  0
   -0.5556   -1.4824    0.1930 O   0  0  0  0  0  0  0  0  0  0  0  0
    0.0210    0.4701   -1.0223 C   0  0  2  0  0  0  0  0  0  0  0  0
    1.6668   -0.9261   -0.0246 O   0  0  0  0  0  0  0  0  0  0  0  0
    0.4388   -0.9771   -0.6686 C   0  0  1  0  0  0  0  0  0  0  0  0
   -1.0332    1.3511    0.9634 O   0  0  0  0  0  0  0  0  0  0  0  0
   -1.7428   -0.7522   -0.0427 C   0  0  0  0  0  0  0  0  0  0  0  0
    1.8919    0.3985    0.4507 C   0  0  0  0  0  0  0  0  0  0  0  0
    1.2326    1.2939   -0.5890 C   0  0  0  0  0  0  0  0  0  0  0  0
   -2.0169    1.2409   -0.8544 H   0  0  0  0  0  0  0  0  0  0  0  0
   -0.1734    0.5724   -2.0901 H   0  0  0  0  0  0  0  0  0  0  0  0
    0.5405   -1.6353   -1.5392 H   0  0  0  0  0  0  0  0  0  0  0  0
   -1.8691    1.4643    1.4266 H   0  0  0  0  0  0  0  0  0  0  0  0
   -2.4171   -0.8801    0.8071 H   0  0  0  0  0  0  0  0  0  0  0  0
   -2.2617   -1.1132   -0.9409 H   0  0  0  0  0  0  0  0  0  0  0  0
    1.4488    0.5420    1.4406 H   0  0  0  0  0  0  0  0  0  0  0  0
    2.9685    0.5502    0.5341 H   0  0  0  0  0  0  0  0  0  0  0  0
    1.9036    1.4352   -1.4384 H   0  0  0  0  0  0  0  0  0  0  0  0
    0.9811    2.2790   -0.2001 H   0  0  0  0  0  0  0  0  0  0  0  0
  7  1  1  0
  1  6  1  0
  1  3  1  0
  1 10  1  6
  7  2  1  0
  2  5  1  0
  3  5  1  0
  3  9  1  0
  3 11  1  6
  5  4  1  0
  4  8  1  0
  5 12  1  6
  6 13  1  0
  7 14  1  0
  7 15  1  0
  9  8  1  0
  8 16  1  0
  8 17  1  0
  9 18  1  0
  9 19  1  0
M  END
