
     RDKit          3D

  4  3  0  0  0  0  0  0  0  0999 V2000
   32.7474    4.0191   29.0549 Ca  0  0  0  0  0  0  0  0  0  0  0  0
   32.4167    3.0205   27.1258 O   0  0  0  0  0  0  0  0  0  0  0  0
   32.0822    2.1236   26.9890 H   0  0  0  0  0  0  0  0  0  0  0  0
   32.4967    3.4201   26.2489 H   0  0  0  0  0  0  0  0  0  0  0  0
  1  2  1  0
  2  3  1  0
  2  4  1  0
M  CHG  2   1   1   2   1
M  END
