
     RDKit          3D

 37 40  0  0  0  0  0  0  0  0999 V2000
    5.3795   -0.2668    0.0496 C   0  0  0  0  0  0  0  0  0  0  0  0
    6.7019    0.1355    0.0288 C   0  0  0  0  0  0  0  0  0  0  0  0
    7.6412   -0.8137    0.1792 F   0  0  0  0  0  0  0  0  0  0  0  0
    7.1034    1.4439   -0.1383 C   0  0  0  0  0  0  0  0  0  0  0  0
    6.1058    2.3984   -0.2911 C   0  0  0  0  0  0  0  0  0  0  0  0
    4.7700    2.0429   -0.2770 C   0  0  0  0  0  0  0  0  0  0  0  0
    4.3912    0.7061   -0.1069 C   0  0  0  0  0  0  0  0  0  0  0  0
    3.0226    0.4457   -0.0962 N   0  0  0  0  0  0  0  0  0  0  0  0
    2.3721   -0.7532   -0.0165 C   0  0  0  0  0  0  0  0  0  0  0  0
    2.9655   -1.8274    0.0199 O   0  0  0  0  0  0  0  0  0  0  0  0
    0.9208   -0.6932    0.0123 C   0  0  0  0  0  0  0  0  0  0  0  0
    0.0952   -1.8016   -0.0565 C   0  0  0  0  0  0  0  0  0  0  0  0
    0.4723   -3.0923   -0.0877 N   0  0  0  0  0  0  0  0  0  0  0  0
    0.0219    0.8192    0.1147 S   0  0  0  0  0  0  0  0  0  0  0  0
   -1.4805   -0.0345    0.0215 C   0  0  0  0  0  0  0  0  0  0  0  0
   -2.6427    0.5823    0.0443 N   0  0  0  0  0  0  0  0  0  0  0  0
   -1.2954   -1.4199   -0.0588 C   0  0  0  0  0  0  0  0  0  0  0  0
   -2.4466   -2.2028   -0.1188 C   0  0  0  0  0  0  0  0  0  0  0  0
   -3.6718   -1.5749   -0.1018 C   0  0  0  0  0  0  0  0  0  0  0  0
   -3.7364   -0.1720   -0.0189 C   0  0  0  0  0  0  0  0  0  0  0  0
   -5.0062    0.5441    0.0061 C   0  0  0  0  0  0  0  0  0  0  0  0
   -5.1869    1.8987    0.1056 C   0  0  0  0  0  0  0  0  0  0  0  0
   -6.5505    2.2759    0.1050 C   0  0  0  0  0  0  0  0  0  0  0  0
   -7.3886    1.2050    0.0047 C   0  0  0  0  0  0  0  0  0  0  0  0
   -6.5274   -0.2669   -0.0906 S   0  0  0  0  0  0  0  0  0  0  0  0
    5.1431   -1.3092    0.1838 H   0  0  0  0  0  0  0  0  0  0  0  0
    8.1516    1.7095   -0.1507 H   0  0  0  0  0  0  0  0  0  0  0  0
    6.3757    3.4372   -0.4252 H   0  0  0  0  0  0  0  0  0  0  0  0
    4.0112    2.8063   -0.3984 H   0  0  0  0  0  0  0  0  0  0  0  0
    2.4588    1.2730   -0.2181 H   0  0  0  0  0  0  0  0  0  0  0  0
    1.4482   -3.3029   -0.2129 H   0  0  0  0  0  0  0  0  0  0  0  0
   -0.1807   -3.7864   -0.4078 H   0  0  0  0  0  0  0  0  0  0  0  0
   -2.3975   -3.2827   -0.1754 H   0  0  0  0  0  0  0  0  0  0  0  0
   -4.5727   -2.1716   -0.1471 H   0  0  0  0  0  0  0  0  0  0  0  0
   -4.3659    2.5966    0.1769 H   0  0  0  0  0  0  0  0  0  0  0  0
   -6.8948    3.2972    0.1768 H   0  0  0  0  0  0  0  0  0  0  0  0
   -8.4673    1.2030   -0.0186 H   0  0  0  0  0  0  0  0  0  0  0  0
  2  1  2  0
  7  1  1  0
  1 26  1  0
  4  2  1  0
  2  3  1  0
  5  4  2  0
  4 27  1  0
  5  6  1  0
  5 28  1  0
  6  7  2  0
  6 29  1  0
  7  8  1  0
  8  9  1  0
  8 30  1  0
  9 10  2  0
  9 11  1  0
 11 12  2  0
 11 14  1  0
 13 12  1  0
 12 17  1  0
 13 31  1  0
 13 32  1  0
 14 15  1  0
 17 15  2  0
 15 16  1  0
 16 20  2  0
 17 18  1  0
 18 19  2  0
 18 33  1  0
 19 20  1  0
 19 34  1  0
 20 21  1  0
 22 21  2  0
 21 25  1  0
 22 23  1  0
 22 35  1  0
 23 24  2  0
 23 36  1  0
 25 24  1  0
 24 37  1  0
M  END
