
     RDKit          3D

 18 18  0  0  0  0  0  0  0  0999 V2000
   -3.3044   -0.4341    0.1065 O   0  0  0  0  0  0  0  0  0  0  0  0
   -2.1823   -0.9087    0.0637 C   0  0  0  0  0  0  0  0  0  0  0  0
   -1.9502   -2.2013    0.0336 O   0  0  0  0  0  0  0  0  0  0  0  0
   -0.9694   -0.0746    0.0452 C   0  0  0  0  0  0  0  0  0  0  0  0
    0.2997   -0.6408   -0.0016 C   0  0  0  0  0  0  0  0  0  0  0  0
    1.4133    0.1732   -0.0192 C   0  0  0  0  0  0  0  0  0  0  0  0
    2.7279   -0.4248   -0.0700 N   0  0  0  0  0  0  0  0  0  0  0  0
    2.8107   -1.6314   -0.0324 O   0  0  0  0  0  0  0  0  0  0  0  0
    3.6837    0.3126   -0.1484 O   0  0  0  0  0  0  0  0  0  0  0  0
    1.2904    1.5635    0.0109 C   0  0  0  0  0  0  0  0  0  0  0  0
    0.0434    2.1319    0.0624 C   0  0  0  0  0  0  0  0  0  0  0  0
   -1.1064    1.3300    0.0787 C   0  0  0  0  0  0  0  0  0  0  0  0
   -2.2763    1.9374    0.1276 O   0  0  0  0  0  0  0  0  0  0  0  0
   -2.7821   -2.6995    0.0561 H   0  0  0  0  0  0  0  0  0  0  0  0
    0.4093   -1.7151   -0.0265 H   0  0  0  0  0  0  0  0  0  0  0  0
    2.1644    2.1982   -0.0018 H   0  0  0  0  0  0  0  0  0  0  0  0
   -0.0684    3.2074    0.0878 H   0  0  0  0  0  0  0  0  0  0  0  0
   -2.9864    1.2577    0.1349 H   0  0  0  0  0  0  0  0  0  0  0  0
  1  2  2  0
  3  2  1  0
  2  4  1  0
 13 12  1  0
  4 12  2  0
  4  5  1  0
 12 11  1  0
  5  6  2  0
 11 10  2  0
  6 10  1  0
  6  7  1  0
  9  7  1  0
  7  8  2  0
  3 14  1  0
  5 15  1  0
 10 16  1  0
 11 17  1  0
 13 18  1  0
M  CHG  2   7   1   9  -1
M  END
