
     RDKit          3D

 87 91  0  0  0  0  0  0  0  0999 V2000
   -7.0951   -3.0781    0.8391 C   0  0  2  0  0  0  0  0  0  0  0  0
   -5.7769   -3.0659    0.0624 C   0  0  1  0  0  0  0  0  0  0  0  0
   -5.7521   -4.1074   -1.0348 C   0  0  0  0  0  0  0  0  0  0  0  0
    9.5478   -3.7899    0.2205 N   0  0  0  0  0  0  0  0  0  0  0  0
   -7.0981   -1.9454    1.8608 C   0  0  2  0  0  0  0  0  0  0  0  0
    8.0977   -2.3189   -0.9714 C   0  0  0  0  0  0  0  0  0  0  0  0
    8.8373   -2.5125   -2.1293 C   0  0  0  0  0  0  0  0  0  0  0  0
    9.9368   -3.3547   -2.0958 C   0  0  0  0  0  0  0  0  0  0  0  0
   10.2472   -3.9691   -0.8913 C   0  0  0  0  0  0  0  0  0  0  0  0
    8.4923   -2.9806    0.1851 C   0  0  0  0  0  0  0  0  0  0  0  0
    7.7653   -2.8447    1.4942 C   0  0  0  0  0  0  0  0  0  0  0  0
    6.7028   -1.9429    1.3685 O   0  0  0  0  0  0  0  0  0  0  0  0
    4.8767   -0.8095    2.2739 C   0  0  0  0  0  0  0  0  0  0  0  0
    4.5278   -0.2151    1.0928 C   0  0  0  0  0  0  0  0  0  0  0  0
    4.0146   -0.3861    3.2248 N   0  0  0  0  0  0  0  0  0  0  0  0
    3.1675    0.4262    2.6994 N   0  0  0  0  0  0  0  0  0  0  0  0
    3.4587    0.5391    1.4150 N   0  0  0  0  0  0  0  0  0  0  0  0
    2.7166    1.4219    0.5527 C   0  0  1  0  0  0  0  0  0  0  0  0
    1.2102    1.3310    0.8071 C   0  0  2  0  0  0  0  0  0  0  0  0
    0.7462    0.0335    0.5618 O   0  0  0  0  0  0  0  0  0  0  0  0
    3.1776    2.7184    0.7740 O   0  0  0  0  0  0  0  0  0  0  0  0
    2.6276    3.6475   -0.1444 C   0  0  2  0  0  0  0  0  0  0  0  0
    3.2730    4.9884    0.1241 C   0  0  0  0  0  0  0  0  0  0  0  0
    4.6515    4.8908   -0.1335 O   0  0  0  0  0  0  0  0  0  0  0  0
    1.0986    3.7047    0.0079 C   0  0  1  0  0  0  0  0  0  0  0  0
    0.5257    4.5234   -0.9768 O   0  0  0  0  0  0  0  0  0  0  0  0
    0.5152    2.3031   -0.1426 C   0  0  2  0  0  0  0  0  0  0  0  0
   -0.8642    2.3496    0.1520 O   0  0  0  0  0  0  0  0  0  0  0  0
   -1.7026    1.6346   -0.6832 C   0  0  1  0  0  0  0  0  0  0  0  0
   -2.9814    1.3168    0.0907 C   0  0  2  0  0  0  0  0  0  0  0  0
   -2.7192    0.5040    1.2032 O   0  0  0  0  0  0  0  0  0  0  0  0
   -2.0032    2.4283   -1.7962 O   0  0  0  0  0  0  0  0  0  0  0  0
   -2.7909    1.7396   -2.7436 C   0  0  2  0  0  0  0  0  0  0  0  0
   -2.9565    2.6350   -3.9524 C   0  0  0  0  0  0  0  0  0  0  0  0
   -1.6989    2.8499   -4.5432 O   0  0  0  0  0  0  0  0  0  0  0  0
   -4.1483    1.3653   -2.1267 C   0  0  1  0  0  0  0  0  0  0  0  0
   -4.9046    0.5689   -3.0029 O   0  0  0  0  0  0  0  0  0  0  0  0
   -3.9403    0.5780   -0.8361 C   0  0  2  0  0  0  0  0  0  0  0  0
   -5.2109    0.4157   -0.2349 O   0  0  0  0  0  0  0  0  0  0  0  0
   -5.4584   -0.7745    0.4215 C   0  0  2  0  0  0  0  0  0  0  0  0
   -5.6031   -1.7966   -0.5300 O   0  0  0  0  0  0  0  0  0  0  0  0
   -4.4846   -4.0931   -1.6466 O   0  0  0  0  0  0  0  0  0  0  0  0
   -7.2287   -4.3288    1.4666 O   0  0  0  0  0  0  0  0  0  0  0  0
   -8.3681   -1.9324    2.4679 O   0  0  0  0  0  0  0  0  0  0  0  0
   -6.7623   -0.6158    1.1986 C   0  0  2  0  0  0  0  0  0  0  0  0
   -6.6593    0.3525    2.2115 O   0  0  0  0  0  0  0  0  0  0  0  0
   -7.9149   -2.9049    0.1233 H   0  0  0  0  0  0  0  0  0  0  0  0
   -4.9544   -3.2710    0.7683 H   0  0  0  0  0  0  0  0  0  0  0  0
   -5.9743   -5.0823   -0.5896 H   0  0  0  0  0  0  0  0  0  0  0  0
   -6.5559   -3.8895   -1.7524 H   0  0  0  0  0  0  0  0  0  0  0  0
   -6.3124   -2.1630    2.6021 H   0  0  0  0  0  0  0  0  0  0  0  0
    8.5560   -2.0085   -3.0449 H   0  0  0  0  0  0  0  0  0  0  0  0
   10.5414   -3.5327   -2.9743 H   0  0  0  0  0  0  0  0  0  0  0  0
   11.1008   -4.6343   -0.8220 H   0  0  0  0  0  0  0  0  0  0  0  0
    7.4090   -3.8368    1.8063 H   0  0  0  0  0  0  0  0  0  0  0  0
    8.4786   -2.5144    2.2624 H   0  0  0  0  0  0  0  0  0  0  0  0
    5.5712   -2.7186    2.9194 H   0  0  0  0  0  0  0  0  0  0  0  0
    6.6206   -1.3728    3.3589 H   0  0  0  0  0  0  0  0  0  0  0  0
    4.9282   -0.2643    0.0953 H   0  0  0  0  0  0  0  0  0  0  0  0
    2.9301    1.0940   -0.4740 H   0  0  0  0  0  0  0  0  0  0  0  0
    1.0088    1.6509    1.8368 H   0  0  0  0  0  0  0  0  0  0  0  0
    0.7341   -0.4593    1.3871 H   0  0  0  0  0  0  0  0  0  0  0  0
    2.8598    3.3331   -1.1745 H   0  0  0  0  0  0  0  0  0  0  0  0
    2.7949    5.7346   -0.5206 H   0  0  0  0  0  0  0  0  0  0  0  0
    3.0690    5.2821    1.1633 H   0  0  0  0  0  0  0  0  0  0  0  0
    5.0480    5.7466    0.0524 H   0  0  0  0  0  0  0  0  0  0  0  0
    0.8659    4.0690    1.0192 H   0  0  0  0  0  0  0  0  0  0  0  0
    0.4727    5.4232   -0.6435 H   0  0  0  0  0  0  0  0  0  0  0  0
    0.6771    1.9701   -1.1782 H   0  0  0  0  0  0  0  0  0  0  0  0
   -1.2301    0.6943   -1.0129 H   0  0  0  0  0  0  0  0  0  0  0  0
   -3.4443    2.2711    0.3874 H   0  0  0  0  0  0  0  0  0  0  0  0
   -2.1213    0.9786    1.7900 H   0  0  0  0  0  0  0  0  0  0  0  0
   -2.2843    0.8099   -3.0535 H   0  0  0  0  0  0  0  0  0  0  0  0
   -3.6467    2.1477   -4.6505 H   0  0  0  0  0  0  0  0  0  0  0  0
   -3.4281    3.5759   -3.6357 H   0  0  0  0  0  0  0  0  0  0  0  0
   -1.8310    3.3775   -5.3357 H   0  0  0  0  0  0  0  0  0  0  0  0
   -4.6779    2.2961   -1.8745 H   0  0  0  0  0  0  0  0  0  0  0  0
   -5.4480    1.1390   -3.5530 H   0  0  0  0  0  0  0  0  0  0  0  0
   -3.5052   -0.3981   -1.0928 H   0  0  0  0  0  0  0  0  0  0  0  0
   -4.6430   -1.0299    1.1174 H   0  0  0  0  0  0  0  0  0  0  0  0
   -4.4378   -4.8425   -2.2465 H   0  0  0  0  0  0  0  0  0  0  0  0
   -8.0545   -4.3294    1.9622 H   0  0  0  0  0  0  0  0  0  0  0  0
   -8.3341   -1.3678    3.2464 H   0  0  0  0  0  0  0  0  0  0  0  0
   -7.5571   -0.3652    0.4790 H   0  0  0  0  0  0  0  0  0  0  0  0
   -6.5596    1.2159    1.7984 H   0  0  0  0  0  0  0  0  0  0  0  0
    5.9816   -1.7661    2.5563 C   0  0  0  0  0  0  0  0  0  0  0  0
    7.2371   -1.6662   -0.9746 H   0  0  0  0  0  0  0  0  0  0  0  0
 24 23  1  0
 23 22  1  0
 26 25  1  0
 22 25  1  0
 22 21  1  0
 25 27  1  0
 35 34  1  0
 21 18  1  0
 27 28  1  0
 27 19  1  0
 32 33  1  0
 32 29  1  0
 34 33  1  0
 28 29  1  0
 18 19  1  0
 18 17  1  0
 19 20  1  0
 17 16  1  0
 17 14  1  0
 33 36  1  0
 29 30  1  0
 16 15  2  0
 36 37  1  0
 36 38  1  0
 14 13  2  0
 30 38  1  0
 30 31  1  0
 15 13  1  0
 13 86  1  0
 38 39  1  0
 39 40  1  0
 86 12  1  0
 46 45  1  0
 45 40  1  0
 45  5  1  0
 40 41  1  0
 12 11  1  0
 11 10  1  0
 41  2  1  0
 44  5  1  0
  5  1  1  0
 10  6  1  0
 10  4  2  0
  2  1  1  0
  2  3  1  0
  1 43  1  0
  6  7  2  0
  4  9  1  0
 42  3  1  0
  7  8  1  0
  9  8  2  0
  1 47  1  6
  2 48  1  1
  3 49  1  0
  3 50  1  0
  5 51  1  1
  6 87  1  0
  7 52  1  0
  8 53  1  0
  9 54  1  0
 11 55  1  0
 11 56  1  0
 86 57  1  0
 86 58  1  0
 14 59  1  0
 18 60  1  6
 19 61  1  1
 20 62  1  0
 22 63  1  6
 23 64  1  0
 23 65  1  0
 24 66  1  0
 25 67  1  1
 26 68  1  0
 27 69  1  6
 29 70  1  6
 30 71  1  1
 31 72  1  0
 33 73  1  6
 34 74  1  0
 34 75  1  0
 35 76  1  0
 36 77  1  1
 37 78  1  0
 38 79  1  6
 40 80  1  1
 42 81  1  0
 43 82  1  0
 44 83  1  0
 45 84  1  6
 46 85  1  0
M  END
