
     RDKit          3D

 31 32  0  0  0  0  0  0  0  0999 V2000
    0.7606    2.4386   -0.2033 O   0  0  0  0  0  0  0  0  0  0  0  0
    1.8992    2.2043    0.0976 C   0  0  0  0  0  0  0  0  0  0  0  0
    2.7899    3.1140    0.4459 O   0  0  0  0  0  0  0  0  0  0  0  0
    2.4978    0.8299    0.1079 C   0  0  0  0  0  0  0  0  0  0  0  0
    3.8537    0.7871   -0.0958 N   0  0  0  0  0  0  0  0  0  0  0  0
    4.5840   -0.3638   -0.1523 C   0  0  0  0  0  0  0  0  0  0  0  0
    5.7811   -0.3841   -0.3444 O   0  0  0  0  0  0  0  0  0  0  0  0
    3.8336   -1.4968    0.0255 N   0  0  0  0  0  0  0  0  0  0  0  0
    2.4756   -1.5722    0.2497 C   0  0  0  0  0  0  0  0  0  0  0  0
    1.9339   -2.6512    0.3891 O   0  0  0  0  0  0  0  0  0  0  0  0
    1.7672   -0.2900    0.2987 C   0  0  0  0  0  0  0  0  0  0  0  0
    0.2921   -0.3531    0.5484 C   0  0  0  0  0  0  0  0  0  0  0  0
   -0.5054   -0.5916   -0.7430 C   0  0  0  0  0  0  0  0  0  0  0  0
   -1.9830   -0.5971   -0.4755 C   0  0  0  0  0  0  0  0  0  0  0  0
   -2.6713    0.6095   -0.3539 C   0  0  0  0  0  0  0  0  0  0  0  0
   -4.0197    0.6074   -0.0714 C   0  0  0  0  0  0  0  0  0  0  0  0
   -4.6882    1.7611    0.0423 F   0  0  0  0  0  0  0  0  0  0  0  0
   -4.7050   -0.5841    0.0974 C   0  0  0  0  0  0  0  0  0  0  0  0
   -6.0154   -0.5502    0.3689 F   0  0  0  0  0  0  0  0  0  0  0  0
   -4.0415   -1.7864   -0.0166 C   0  0  0  0  0  0  0  0  0  0  0  0
   -2.6818   -1.7867   -0.3026 C   0  0  0  0  0  0  0  0  0  0  0  0
    2.4099    4.0054    0.3957 H   0  0  0  0  0  0  0  0  0  0  0  0
    4.3369   -2.3745   -0.0228 H   0  0  0  0  0  0  0  0  0  0  0  0
    0.0940   -1.1709    1.2432 H   0  0  0  0  0  0  0  0  0  0  0  0
   -0.0601    0.5552    1.0320 H   0  0  0  0  0  0  0  0  0  0  0  0
   -0.2632    0.1887   -1.4657 H   0  0  0  0  0  0  0  0  0  0  0  0
   -0.2071   -1.5435   -1.1854 H   0  0  0  0  0  0  0  0  0  0  0  0
   -2.1567    1.5546   -0.4827 H   0  0  0  0  0  0  0  0  0  0  0  0
   -4.5836   -2.7136    0.1160 H   0  0  0  0  0  0  0  0  0  0  0  0
   -2.1637   -2.7327   -0.3971 H   0  0  0  0  0  0  0  0  0  0  0  0
    4.3667    1.6466   -0.2343 H   0  0  0  0  0  0  0  0  0  0  0  0
 21 14  1  0
 21 20  2  0
 13 14  1  0
 13 12  1  0
 14 15  2  0
 20 18  1  0
 15 16  1  0
 18 16  2  0
 18 19  1  0
 16 17  1  0
 12 11  1  0
 10  9  2  0
 11  9  1  0
 11  4  2  0
  9  8  1  0
  4  2  1  0
  4  5  1  0
  1  2  2  0
  8  6  1  0
  2  3  1  0
  6  5  1  0
  6  7  2  0
  3 22  1  0
  8 23  1  0
 12 24  1  0
 12 25  1  0
 13 26  1  0
 13 27  1  0
 15 28  1  0
 20 29  1  0
 21 30  1  0
  5 31  1  0
M  END
