
     RDKit          3D

 56 58  0  0  0  0  0  0  0  0999 V2000
   -8.3888    2.0152   -0.2664 C   0  0  0  0  0  0  0  0  0  0  0  0
   -7.4218    1.0632   -0.9242 C   0  0  0  0  0  0  0  0  0  0  0  0
   -7.7761    0.2812   -1.7975 O   0  0  0  0  0  0  0  0  0  0  0  0
   -6.1598    1.1276   -0.4693 N   0  0  0  0  0  0  0  0  0  0  0  0
   -5.0931    0.3007   -0.9743 C   0  0  1  0  0  0  0  0  0  0  0  0
   -4.4069    0.9342   -2.1882 C   0  0  0  0  0  0  0  0  0  0  0  0
   -4.0718    0.1025    0.1383 C   0  0  0  0  0  0  0  0  0  0  0  0
   -3.9780    0.9060    1.0587 O   0  0  0  0  0  0  0  0  0  0  0  0
   -3.2509   -0.9501    0.0389 N   0  0  0  0  0  0  0  0  0  0  0  0
   -3.2698   -2.0188   -0.9483 C   0  0  0  0  0  0  0  0  0  0  0  0
   -2.5325   -3.1467   -0.2344 C   0  0  2  0  0  0  0  0  0  0  0  0
   -3.3482   -3.7969    0.7105 O   0  0  0  0  0  0  0  0  0  0  0  0
   -1.4571   -2.3846    0.5224 C   0  0  0  0  0  0  0  0  0  0  0  0
   -2.1712   -1.1069    0.9937 C   0  0  1  0  0  0  0  0  0  0  0  0
   -1.2145    0.0752    0.9415 C   0  0  0  0  0  0  0  0  0  0  0  0
   -0.9950    0.6845   -0.0907 O   0  0  0  0  0  0  0  0  0  0  0  0
   -0.5804    0.3274    2.0965 N   0  0  0  0  0  0  0  0  0  0  0  0
    0.4965    1.2827    2.1824 C   0  0  0  0  0  0  0  0  0  0  0  0
    1.7523    0.8389    1.4719 C   0  0  0  0  0  0  0  0  0  0  0  0
    2.1565   -0.4931    1.4791 C   0  0  0  0  0  0  0  0  0  0  0  0
    3.3273   -0.8827    0.8509 C   0  0  0  0  0  0  0  0  0  0  0  0
    2.5510    1.7685    0.8164 C   0  0  0  0  0  0  0  0  0  0  0  0
    3.7235    1.3844    0.1841 C   0  0  0  0  0  0  0  0  0  0  0  0
    4.1334    0.0512    0.1961 C   0  0  0  0  0  0  0  0  0  0  0  0
    5.3698   -0.3594   -0.4716 C   0  0  0  0  0  0  0  0  0  0  0  0
    5.4136   -1.7608   -1.4793 S   0  0  0  0  0  0  0  0  0  0  0  0
    7.0744   -1.4731   -1.7801 C   0  0  0  0  0  0  0  0  0  0  0  0
    7.5600   -0.4309   -1.1901 N   0  0  0  0  0  0  0  0  0  0  0  0
    6.6130    0.2150   -0.4420 C   0  0  0  0  0  0  0  0  0  0  0  0
    7.0074    1.4247    0.3377 C   0  0  0  0  0  0  0  0  0  0  0  0
   -9.1323    1.4447    0.2908 H   0  0  0  0  0  0  0  0  0  0  0  0
   -7.9115    2.7157    0.4163 H   0  0  0  0  0  0  0  0  0  0  0  0
   -8.9203    2.5816   -1.0301 H   0  0  0  0  0  0  0  0  0  0  0  0
   -5.9205    1.8070    0.2361 H   0  0  0  0  0  0  0  0  0  0  0  0
   -5.5251   -0.6566   -1.2697 H   0  0  0  0  0  0  0  0  0  0  0  0
   -3.9989    1.9117   -1.9312 H   0  0  0  0  0  0  0  0  0  0  0  0
   -3.5916    0.3152   -2.5613 H   0  0  0  0  0  0  0  0  0  0  0  0
   -5.1270    1.0607   -2.9951 H   0  0  0  0  0  0  0  0  0  0  0  0
   -4.2838   -2.3030   -1.2286 H   0  0  0  0  0  0  0  0  0  0  0  0
   -2.7345   -1.7314   -1.8580 H   0  0  0  0  0  0  0  0  0  0  0  0
   -2.1043   -3.8505   -0.9563 H   0  0  0  0  0  0  0  0  0  0  0  0
   -4.0610   -4.2457    0.2450 H   0  0  0  0  0  0  0  0  0  0  0  0
   -1.0334   -2.9532    1.3492 H   0  0  0  0  0  0  0  0  0  0  0  0
   -0.6462   -2.1428   -0.1678 H   0  0  0  0  0  0  0  0  0  0  0  0
   -2.5696   -1.2324    2.0050 H   0  0  0  0  0  0  0  0  0  0  0  0
   -0.8176   -0.2051    2.9170 H   0  0  0  0  0  0  0  0  0  0  0  0
    0.1736    2.2486    1.7890 H   0  0  0  0  0  0  0  0  0  0  0  0
    0.7075    1.4328    3.2420 H   0  0  0  0  0  0  0  0  0  0  0  0
    1.5563   -1.2416    1.9820 H   0  0  0  0  0  0  0  0  0  0  0  0
    3.6244   -1.9241    0.8843 H   0  0  0  0  0  0  0  0  0  0  0  0
    2.2481    2.8082    0.7827 H   0  0  0  0  0  0  0  0  0  0  0  0
    4.3065    2.1254   -0.3475 H   0  0  0  0  0  0  0  0  0  0  0  0
    7.6479   -2.1313   -2.4181 H   0  0  0  0  0  0  0  0  0  0  0  0
    7.0308    2.3158   -0.2926 H   0  0  0  0  0  0  0  0  0  0  0  0
    6.3172    1.6177    1.1565 H   0  0  0  0  0  0  0  0  0  0  0  0
    8.0054    1.2951    0.7552 H   0  0  0  0  0  0  0  0  0  0  0  0
 28 27  2  0
 28 29  1  0
 27 26  1  0
 30 29  1  0
 29 25  2  0
 26 25  1  0
 25 24  1  0
 24 21  1  0
 24 23  2  0
 21 20  2  0
 23 22  1  0
 20 19  1  0
 22 19  2  0
 19 18  1  0
 18 17  1  0
 17 15  1  0
 13 14  1  0
 13 11  1  0
 15 16  2  0
 15 14  1  0
 14  9  1  0
 11 12  1  0
 11 10  1  0
  9 10  1  0
  9  7  1  0
  8  7  2  0
  7  5  1  0
  5  6  1  0
  5  4  1  0
  4  2  1  0
  3  2  2  0
  2  1  1  0
  1 31  1  0
  1 32  1  0
  1 33  1  0
  4 34  1  0
  5 35  1  6
  6 36  1  0
  6 37  1  0
  6 38  1  0
 10 39  1  0
 10 40  1  0
 11 41  1  6
 12 42  1  0
 13 43  1  0
 13 44  1  0
 14 45  1  1
 17 46  1  0
 18 47  1  0
 18 48  1  0
 20 49  1  0
 21 50  1  0
 22 51  1  0
 23 52  1  0
 27 53  1  0
 30 54  1  0
 30 55  1  0
 30 56  1  0
M  END
