
     RDKit          3D

 65 65  0  0  0  0  0  0  0  0999 V2000
   -0.0430    1.5548   -7.2958 C   0  0  0  0  0  0  0  0  0  0  0  0
    0.2765    0.7233   -6.2334 C   0  0  0  0  0  0  0  0  0  0  0  0
   -0.6908   -0.1080   -5.6713 C   0  0  0  0  0  0  0  0  0  0  0  0
   -1.9798   -0.0928   -6.1913 C   0  0  0  0  0  0  0  0  0  0  0  0
   -2.3018    0.7352   -7.2602 C   0  0  0  0  0  0  0  0  0  0  0  0
   -1.3339    1.5613   -7.8128 C   0  0  0  0  0  0  0  0  0  0  0  0
   -0.3423   -1.0005   -4.5185 C   0  0  0  0  0  0  0  0  0  0  0  0
   -0.1057   -0.1563   -3.3877 O   0  0  0  0  0  0  0  0  0  0  0  0
    0.3199   -0.7474   -2.2656 C   0  0  0  0  0  0  0  0  0  0  0  0
    0.4533   -1.9485   -2.1435 O   0  0  0  0  0  0  0  0  0  0  0  0
    0.5760    0.1724   -1.3185 N   0  0  0  0  0  0  0  0  0  0  0  0
    1.0280   -0.1517    0.0075 C   0  0  2  0  0  0  0  0  0  0  0  0
    0.0079    0.3267    1.0400 C   0  0  0  0  0  0  0  0  0  0  0  0
   -0.0248   -0.4078    2.1605 N   0  0  0  0  0  0  0  0  0  0  0  0
   -0.7328   -0.0499    3.3729 C   0  0  2  0  0  0  0  0  0  0  0  0
    0.2965    0.3538    4.4434 C   0  0  2  0  0  0  0  0  0  0  0  0
   -1.6628   -1.1816    3.8072 C   0  0  0  0  0  0  0  0  0  0  0  0
   -2.7308   -1.5720    2.7840 C   0  0  1  0  0  0  0  0  0  0  0  0
   -3.5398   -2.7513    3.3164 C   0  0  0  0  0  0  0  0  0  0  0  0
   -3.6501   -0.4041    2.4377 C   0  0  0  0  0  0  0  0  0  0  0  0
    2.3781    0.5104    0.3199 C   0  0  0  0  0  0  0  0  0  0  0  0
    3.5288    0.0764   -0.5879 C   0  0  1  0  0  0  0  0  0  0  0  0
    4.7655    0.9180   -0.2863 C   0  0  0  0  0  0  0  0  0  0  0  0
    3.8470   -1.4085   -0.4456 C   0  0  0  0  0  0  0  0  0  0  0  0
   -0.6659    1.3280    0.8472 O   0  0  0  0  0  0  0  0  0  0  0  0
    1.2298   -0.6729    4.6962 O   0  0  0  0  0  0  0  0  0  0  0  0
   -0.3708    0.8587    5.7108 C   0  0  0  0  0  0  0  0  0  0  0  0
    0.5941    1.4796    6.5173 O   0  0  0  0  0  0  0  0  0  0  0  0
    0.0575    1.9580    7.7240 C   0  0  0  0  0  0  0  0  0  0  0  0
    0.7152    2.1968   -7.7251 H   0  0  0  0  0  0  0  0  0  0  0  0
    1.2872    0.7172   -5.8427 H   0  0  0  0  0  0  0  0  0  0  0  0
   -2.7386   -0.7353   -5.7604 H   0  0  0  0  0  0  0  0  0  0  0  0
   -3.3084    0.7349   -7.6576 H   0  0  0  0  0  0  0  0  0  0  0  0
   -1.5808    2.2069   -8.6457 H   0  0  0  0  0  0  0  0  0  0  0  0
    0.5537   -1.5846   -4.7401 H   0  0  0  0  0  0  0  0  0  0  0  0
   -1.1577   -1.6970   -4.3117 H   0  0  0  0  0  0  0  0  0  0  0  0
    0.3996    1.1432   -1.5275 H   0  0  0  0  0  0  0  0  0  0  0  0
    1.1290   -1.2354    0.0727 H   0  0  0  0  0  0  0  0  0  0  0  0
    0.5925   -1.2033    2.2238 H   0  0  0  0  0  0  0  0  0  0  0  0
   -1.3252    0.8383    3.1503 H   0  0  0  0  0  0  0  0  0  0  0  0
    0.8766    1.1808    4.0204 H   0  0  0  0  0  0  0  0  0  0  0  0
   -1.0714   -2.0714    4.0523 H   0  0  0  0  0  0  0  0  0  0  0  0
   -2.1663   -0.8868    4.7335 H   0  0  0  0  0  0  0  0  0  0  0  0
   -2.2282   -1.8956    1.8668 H   0  0  0  0  0  0  0  0  0  0  0  0
   -4.2950   -3.0701    2.5961 H   0  0  0  0  0  0  0  0  0  0  0  0
   -2.9019   -3.6111    3.5289 H   0  0  0  0  0  0  0  0  0  0  0  0
   -4.0577   -2.4858    4.2413 H   0  0  0  0  0  0  0  0  0  0  0  0
   -4.0891    0.0290    3.3403 H   0  0  0  0  0  0  0  0  0  0  0  0
   -3.1287    0.3914    1.9051 H   0  0  0  0  0  0  0  0  0  0  0  0
   -4.4709   -0.7343    1.7986 H   0  0  0  0  0  0  0  0  0  0  0  0
    2.2526    1.5964    0.2551 H   0  0  0  0  0  0  0  0  0  0  0  0
    2.6414    0.2934    1.3611 H   0  0  0  0  0  0  0  0  0  0  0  0
    3.2390    0.2703   -1.6260 H   0  0  0  0  0  0  0  0  0  0  0  0
    5.5916    0.6490   -0.9467 H   0  0  0  0  0  0  0  0  0  0  0  0
    4.5679    1.9832   -0.4184 H   0  0  0  0  0  0  0  0  0  0  0  0
    5.1041    0.7663    0.7417 H   0  0  0  0  0  0  0  0  0  0  0  0
    4.0958   -1.6547    0.5896 H   0  0  0  0  0  0  0  0  0  0  0  0
    3.0167   -2.0455   -0.7513 H   0  0  0  0  0  0  0  0  0  0  0  0
    4.7031   -1.6813   -1.0649 H   0  0  0  0  0  0  0  0  0  0  0  0
    0.8060   -1.3613    5.2196 H   0  0  0  0  0  0  0  0  0  0  0  0
   -0.8481    0.0282    6.2540 H   0  0  0  0  0  0  0  0  0  0  0  0
   -1.1744    1.5621    5.4451 H   0  0  0  0  0  0  0  0  0  0  0  0
    0.8651    2.4135    8.2956 H   0  0  0  0  0  0  0  0  0  0  0  0
   -0.7189    2.7142    7.5574 H   0  0  0  0  0  0  0  0  0  0  0  0
   -0.3817    1.1536    8.3263 H   0  0  0  0  0  0  0  0  0  0  0  0
  1  2  2  0
  1  6  1  0
  1 30  1  0
  2  3  1  0
  2 31  1  0
  3  4  2  0
  3  7  1  0
  4  5  1  0
  4 32  1  0
  5  6  2  0
  5 33  1  0
  6 34  1  0
  7  8  1  0
  7 35  1  0
  7 36  1  0
  8  9  1  0
  9 10  2  0
  9 11  1  0
 11 12  1  0
 11 37  1  0
 12 13  1  0
 12 21  1  0
 12 38  1  6
 13 14  1  0
 13 25  2  0
 14 15  1  0
 14 39  1  0
 15 16  1  0
 15 17  1  0
 15 40  1  6
 16 26  1  0
 16 27  1  0
 16 41  1  6
 17 18  1  0
 17 42  1  0
 17 43  1  0
 18 19  1  0
 18 20  1  0
 18 44  1  6
 19 45  1  0
 19 46  1  0
 19 47  1  0
 20 48  1  0
 20 49  1  0
 20 50  1  0
 21 22  1  0
 21 51  1  0
 21 52  1  0
 22 23  1  0
 22 24  1  0
 22 53  1  6
 23 54  1  0
 23 55  1  0
 23 56  1  0
 24 57  1  0
 24 58  1  0
 24 59  1  0
 26 60  1  0
 27 28  1  0
 27 61  1  0
 27 62  1  0
 28 29  1  0
 29 63  1  0
 29 64  1  0
 29 65  1  0
M  END
