
     RDKit          3D

 15 14  0  0  0  0  0  0  0  0999 V2000
    0.4025   -0.0006   -2.2174 C   0  0  0  0  0  0  0  0  0  0  0  0
   -0.5940    0.0025   -1.0510 C   0  0  0  0  0  0  0  0  0  0  0  0
   -0.7465   -0.0054    1.3595 C   0  0  0  0  0  0  0  0  0  0  0  0
    0.1891   -0.0078    2.5413 C   0  0  0  0  0  0  0  0  0  0  0  0
    1.5951   -0.0180   -2.0616 O   0  0  0  0  0  0  0  0  0  0  0  0
   -0.2229    0.0177   -3.3695 O   0  0  0  0  0  0  0  0  0  0  0  0
   -1.7952    0.0121   -1.2365 O   0  0  0  0  0  0  0  0  0  0  0  0
   -0.4854   -0.0113    3.6759 O   0  0  0  0  0  0  0  0  0  0  0  0
    0.0061   -0.0071    0.1367 N   0  0  0  0  0  0  0  0  0  0  0  0
    1.3903   -0.0059    2.4579 O   0  0  0  0  0  0  0  0  0  0  0  0
   -1.3995   -0.8807    1.4244 H   0  0  0  0  0  0  0  0  0  0  0  0
   -1.3943    0.8737    1.4249 H   0  0  0  0  0  0  0  0  0  0  0  0
    0.4137    0.0133   -4.1011 H   0  0  0  0  0  0  0  0  0  0  0  0
    0.1207   -0.0115    4.4323 H   0  0  0  0  0  0  0  0  0  0  0  0
    1.0149   -0.0134    0.1895 H   0  0  0  0  0  0  0  0  0  0  0  0
  1  2  1  0
  1  5  2  0
  1  6  1  0
  2  7  2  0
  2  9  1  0
  3  4  1  0
  3  9  1  0
  3 11  1  0
  3 12  1  0
  4  8  1  0
  4 10  2  0
  6 13  1  0
  8 14  1  0
  9 15  1  0
M  END
