
     RDKit          3D

 14 13  0  0  0  0  0  0  0  0999 V2000
    0.0723   -0.2679    2.3804 O   0  0  0  0  0  0  0  0  0  0  0  0
   -1.3713    0.1964   -0.0186 O   0  0  0  0  0  0  0  0  0  0  0  0
    0.1213   -0.2915   -2.3808 O   0  0  0  0  0  0  0  0  0  0  0  0
    0.7057    0.2777    1.2482 C   0  0  0  0  0  0  0  0  0  0  0  0
   -0.0182   -0.1966   -0.0015 C   0  0  2  0  0  0  0  0  0  0  0  0
    0.7332    0.2624   -1.2409 C   0  0  0  0  0  0  0  0  0  0  0  0
    0.5409    0.0418    3.1602 H   0  0  0  0  0  0  0  0  0  0  0  0
   -1.4108    1.1593   -0.0243 H   0  0  0  0  0  0  0  0  0  0  0  0
    0.6076    0.0091   -3.1534 H   0  0  0  0  0  0  0  0  0  0  0  0
    0.7030    1.3777    1.2738 H   0  0  0  0  0  0  0  0  0  0  0  0
    1.7568   -0.0319    1.1830 H   0  0  0  0  0  0  0  0  0  0  0  0
   -0.0288   -1.2924    0.0055 H   0  0  0  0  0  0  0  0  0  0  0  0
    0.7360    1.3622   -1.2769 H   0  0  0  0  0  0  0  0  0  0  0  0
    1.7813   -0.0509   -1.1508 H   0  0  0  0  0  0  0  0  0  0  0  0
  1  4  1  0
  1  7  1  0
  2  5  1  0
  2  8  1  0
  3  6  1  0
  3  9  1  0
  4  5  1  0
  4 10  1  0
  4 11  1  0
  5  6  1  0
  5 12  1  1
  6 13  1  0
  6 14  1  0
M  END
