
     RDKit          3D

 36 37  0  0  0  0  0  0  0  0999 V2000
   -7.2583   -0.6355    0.2702 O   0  0  0  0  0  0  0  0  0  0  0  0
   -6.2471   -0.3339    1.2006 C   0  0  0  0  0  0  0  0  0  0  0  0
   -4.9048   -0.2424    0.4922 C   0  0  1  0  0  0  0  0  0  0  0  0
   -4.9164    0.8402   -0.4724 N   0  0  0  0  0  0  0  0  0  0  0  0
   -3.7934   -0.1479    1.5597 C   0  0  0  0  0  0  0  0  0  0  0  0
   -2.4244   -0.0671    0.9538 C   0  0  0  0  0  0  0  0  0  0  0  0
   -1.8399    1.1643    0.6744 C   0  0  0  0  0  0  0  0  0  0  0  0
   -0.5932    1.2300    0.0717 C   0  0  0  0  0  0  0  0  0  0  0  0
    0.2618    3.0971   -0.3483 I   0  0  0  0  0  0  0  0  0  0  0  0
    0.0988    0.0745   -0.2731 C   0  0  0  0  0  0  0  0  0  0  0  0
   -0.4935   -1.1542    0.0034 C   0  0  0  0  0  0  0  0  0  0  0  0
    0.5134   -2.9160   -0.5228 I   0  0  0  0  0  0  0  0  0  0  0  0
   -1.7395   -1.2277    0.6036 C   0  0  0  0  0  0  0  0  0  0  0  0
    1.2995    0.1444   -0.8957 O   0  0  0  0  0  0  0  0  0  0  0  0
    2.4451    0.1317   -0.1315 C   0  0  0  0  0  0  0  0  0  0  0  0
    3.6456    0.0915   -0.8275 C   0  0  0  0  0  0  0  0  0  0  0  0
    4.8468    0.0884   -0.1410 C   0  0  0  0  0  0  0  0  0  0  0  0
    4.8618    0.1240    1.2522 C   0  0  0  0  0  0  0  0  0  0  0  0
    6.0613    0.1195    1.8735 O   0  0  0  0  0  0  0  0  0  0  0  0
    3.6552    0.1617    1.9391 C   0  0  0  0  0  0  0  0  0  0  0  0
    2.4466    0.1666    1.2525 C   0  0  0  0  0  0  0  0  0  0  0  0
   -8.0922   -0.6843    0.7455 H   0  0  0  0  0  0  0  0  0  0  0  0
   -6.4403    0.6197    1.7148 H   0  0  0  0  0  0  0  0  0  0  0  0
   -6.1780   -1.1032    1.9806 H   0  0  0  0  0  0  0  0  0  0  0  0
   -4.7519   -1.1746   -0.0634 H   0  0  0  0  0  0  0  0  0  0  0  0
   -4.9500    1.7336    0.0065 H   0  0  0  0  0  0  0  0  0  0  0  0
   -4.0604    0.8409   -1.0127 H   0  0  0  0  0  0  0  0  0  0  0  0
   -3.9690    0.7312    2.1872 H   0  0  0  0  0  0  0  0  0  0  0  0
   -3.8504   -1.0199    2.2156 H   0  0  0  0  0  0  0  0  0  0  0  0
   -2.3590    2.0739    0.9458 H   0  0  0  0  0  0  0  0  0  0  0  0
   -2.1868   -2.1912    0.8111 H   0  0  0  0  0  0  0  0  0  0  0  0
    3.6431    0.0624   -1.9097 H   0  0  0  0  0  0  0  0  0  0  0  0
    5.7791    0.0561   -0.6907 H   0  0  0  0  0  0  0  0  0  0  0  0
    5.9420    0.1407    2.8293 H   0  0  0  0  0  0  0  0  0  0  0  0
    3.6421    0.1895    3.0224 H   0  0  0  0  0  0  0  0  0  0  0  0
    1.5275    0.1988    1.8233 H   0  0  0  0  0  0  0  0  0  0  0  0
 19 18  1  0
 18 17  1  0
 18 20  2  0
 17 16  2  0
 20 21  1  0
 16 15  1  0
 21 15  2  0
 15 14  1  0
  9  8  1  0
 14 10  1  0
 10  8  2  0
 10 11  1  0
  8  7  1  0
 12 11  1  0
 11 13  2  0
  7  6  2  0
 13  6  1  0
  3  4  1  0
  3  2  1  0
  3  5  1  0
  6  5  1  0
  2  1  1  0
  1 22  1  0
  2 23  1  0
  2 24  1  0
  3 25  1  6
  4 26  1  0
  4 27  1  0
  5 28  1  0
  5 29  1  0
  7 30  1  0
 13 31  1  0
 16 32  1  0
 17 33  1  0
 19 34  1  0
 20 35  1  0
 21 36  1  0
M  END
