
     RDKit          3D

 53 54  0  0  0  0  0  0  0  0999 V2000
   -3.5472   -0.1007   -0.1861 C   0  0  0  0  0  0  0  0  0  0  0  0
   -3.4302   -1.4493   -0.8802 C   0  0  0  0  0  0  0  0  0  0  0  0
   -4.5399   -2.4322   -0.5038 C   0  0  2  0  0  0  0  0  0  0  0  0
   -4.2648   -3.7941   -1.1341 C   0  0  0  0  0  0  0  0  0  0  0  0
   -5.9248   -1.9323   -0.9034 C   0  0  0  0  0  0  0  0  0  0  0  0
   -2.3692    0.8111   -0.4474 C   0  0  0  0  0  0  0  0  0  0  0  0
   -1.4112    0.4731   -1.1337 O   0  0  0  0  0  0  0  0  0  0  0  0
   -2.4229    2.0335    0.1125 N   0  0  0  0  0  0  0  0  0  0  0  0
   -1.3200    2.9555   -0.0495 C   0  0  2  0  0  0  0  0  0  0  0  0
   -0.0913    2.4487    0.6998 C   0  0  0  0  0  0  0  0  0  0  0  0
   -0.1829    1.8415    1.7538 O   0  0  0  0  0  0  0  0  0  0  0  0
   -1.8549    4.2539    0.5705 C   0  0  0  0  0  0  0  0  0  0  0  0
   -2.8368    3.7710    1.6327 C   0  0  0  0  0  0  0  0  0  0  0  0
   -3.4644    2.5317    1.0029 C   0  0  0  0  0  0  0  0  0  0  0  0
    1.0835    2.7765    0.1376 N   0  0  0  0  0  0  0  0  0  0  0  0
    2.3512    2.4125    0.7119 C   0  0  0  0  0  0  0  0  0  0  0  0
    2.7951    0.9953    0.4307 C   0  0  0  0  0  0  0  0  0  0  0  0
    2.0815    0.1298   -0.3858 C   0  0  0  0  0  0  0  0  0  0  0  0
    2.5443   -1.1581   -0.6269 C   0  0  0  0  0  0  0  0  0  0  0  0
    3.7280   -1.6131   -0.0540 C   0  0  0  0  0  0  0  0  0  0  0  0
    4.2372   -2.9927   -0.2827 C   0  0  0  0  0  0  0  0  0  0  0  0
    4.9973   -3.5193    0.5995 N   0  0  0  0  0  0  0  0  0  0  0  0
    3.7891   -3.6007   -1.4214 N   0  0  0  0  0  0  0  0  0  0  0  0
    4.4374   -0.7453    0.7766 C   0  0  0  0  0  0  0  0  0  0  0  0
    3.9789    0.5377    1.0097 C   0  0  0  0  0  0  0  0  0  0  0  0
   -3.6403   -0.2469    0.8961 H   0  0  0  0  0  0  0  0  0  0  0  0
   -4.4627    0.4175   -0.4876 H   0  0  0  0  0  0  0  0  0  0  0  0
   -3.4291   -1.3099   -1.9659 H   0  0  0  0  0  0  0  0  0  0  0  0
   -2.4656   -1.8961   -0.6276 H   0  0  0  0  0  0  0  0  0  0  0  0
   -4.5249   -2.5564    0.5860 H   0  0  0  0  0  0  0  0  0  0  0  0
   -3.2974   -4.1926   -0.8223 H   0  0  0  0  0  0  0  0  0  0  0  0
   -5.0282   -4.5226   -0.8553 H   0  0  0  0  0  0  0  0  0  0  0  0
   -4.2579   -3.7246   -2.2246 H   0  0  0  0  0  0  0  0  0  0  0  0
   -6.6904   -2.6706   -0.6577 H   0  0  0  0  0  0  0  0  0  0  0  0
   -6.1961   -1.0066   -0.3946 H   0  0  0  0  0  0  0  0  0  0  0  0
   -5.9789   -1.7478   -1.9796 H   0  0  0  0  0  0  0  0  0  0  0  0
   -1.0811    3.0956   -1.1069 H   0  0  0  0  0  0  0  0  0  0  0  0
   -1.0616    4.8866    0.9681 H   0  0  0  0  0  0  0  0  0  0  0  0
   -2.3755    4.8257   -0.1998 H   0  0  0  0  0  0  0  0  0  0  0  0
   -2.3100    3.5024    2.5483 H   0  0  0  0  0  0  0  0  0  0  0  0
   -3.5850    4.5211    1.8847 H   0  0  0  0  0  0  0  0  0  0  0  0
   -4.3665    2.7854    0.4386 H   0  0  0  0  0  0  0  0  0  0  0  0
   -3.7386    1.7888    1.7521 H   0  0  0  0  0  0  0  0  0  0  0  0
    1.0839    3.2142   -0.7693 H   0  0  0  0  0  0  0  0  0  0  0  0
    3.0998    3.1053    0.3241 H   0  0  0  0  0  0  0  0  0  0  0  0
    2.3176    2.5715    1.7913 H   0  0  0  0  0  0  0  0  0  0  0  0
    1.1493    0.4431   -0.8366 H   0  0  0  0  0  0  0  0  0  0  0  0
    1.9501   -1.8109   -1.2535 H   0  0  0  0  0  0  0  0  0  0  0  0
    5.3018   -4.4469    0.3159 H   0  0  0  0  0  0  0  0  0  0  0  0
    3.5582   -3.0228   -2.2127 H   0  0  0  0  0  0  0  0  0  0  0  0
    4.2234   -4.4735   -1.6764 H   0  0  0  0  0  0  0  0  0  0  0  0
    5.3577   -1.0811    1.2351 H   0  0  0  0  0  0  0  0  0  0  0  0
    4.5498    1.1964    1.6543 H   0  0  0  0  0  0  0  0  0  0  0  0
 14  8  1  0
  9  8  1  0
  8  6  1  0
 12  9  1  0
 10  9  1  0
  9 37  1  6
 11 10  2  0
 10 15  1  0
 16 15  1  0
 15 44  1  0
 16 17  1  0
 16 45  1  0
 16 46  1  0
 17 25  1  0
 17 18  2  0
 25 24  2  0
 25 53  1  0
 24 20  1  0
 24 52  1  0
 19 20  2  0
 20 21  1  0
 21 22  2  0
 21 23  1  0
 22 49  1  0
 23 50  1  0
 23 51  1  0
 18 19  1  0
 19 48  1  0
 18 47  1  0
 13 12  1  0
 12 38  1  0
 12 39  1  0
 13 14  1  0
 13 40  1  0
 14 42  1  0
  6  7  2  0
  6  1  1  0
  1  2  1  0
  1 26  1  0
  1 27  1  0
  2  3  1  0
  2 28  1  0
  2 29  1  0
  4  3  1  0
  3  5  1  0
  3 30  1  1
  5 34  1  0
  5 35  1  0
  5 36  1  0
  4 31  1  0
  4 32  1  0
  4 33  1  0
 13 41  1  0
 14 43  1  0
M  END
