
     RDKit          3D

 17 16  0  0  0  0  0  0  0  0999 V2000
   -1.6189    1.9292   -0.7813 N   0  0  0  0  0  0  0  0  0  0  0  0
   -0.7172   -0.6784    2.6818 C   0  0  0  0  0  0  0  0  0  0  0  0
   -1.4482   -0.5084    3.6218 O   0  0  0  0  0  0  0  0  0  0  0  0
    0.2814    0.3374    2.1646 C   0  0  2  0  0  0  0  0  0  0  0  0
    0.2843    1.3971    3.0812 O   0  0  0  0  0  0  0  0  0  0  0  0
   -0.0498    0.7839    0.7378 C   0  0  0  0  0  0  0  0  0  0  0  0
   -1.4335    1.4090    0.5759 C   0  0  0  0  0  0  0  0  0  0  0  0
   -2.0120    2.8587   -0.7590 H   0  0  0  0  0  0  0  0  0  0  0  0
   -2.2687    1.3596   -1.3022 H   0  0  0  0  0  0  0  0  0  0  0  0
    1.2600   -0.1665    2.1370 H   0  0  0  0  0  0  0  0  0  0  0  0
    0.7877    2.1211    2.6967 H   0  0  0  0  0  0  0  0  0  0  0  0
    0.7085    1.5091    0.4256 H   0  0  0  0  0  0  0  0  0  0  0  0
    0.0576   -0.0676    0.0626 H   0  0  0  0  0  0  0  0  0  0  0  0
   -1.5515    2.2153    1.3020 H   0  0  0  0  0  0  0  0  0  0  0  0
   -2.1999    0.6657    0.8258 H   0  0  0  0  0  0  0  0  0  0  0  0
   -1.3933   -2.3958    2.2482 H   0  0  0  0  0  0  0  0  0  0  0  0
   -0.7284   -1.7694    1.9253 O   0  0  0  0  0  0  0  0  0  0  0  0
  1  7  1  0
  1  8  1  0
  1  9  1  0
  2  3  2  0
  2  4  1  0
  2 17  1  0
  4  5  1  0
  4  6  1  0
  4 10  1  6
  5 11  1  0
  6  7  1  0
  6 12  1  0
  6 13  1  0
  7 14  1  0
  7 15  1  0
 17 16  1  0
M  END
