
     RDKit          3D

 54 54  0  0  0  0  0  0  0  0999 V2000
   -4.8388    0.1208    2.5798 O   0  0  0  0  0  0  0  0  0  0  0  0
   -4.7128   -0.1052    1.4034 C   0  0  0  0  0  0  0  0  0  0  0  0
   -3.4652   -0.7263    0.7917 C   0  0  2  0  0  0  0  0  0  0  0  0
   -2.6382   -1.2668    1.7777 O   0  0  0  0  0  0  0  0  0  0  0  0
   -2.7365    0.3082   -0.0683 C   0  0  0  0  0  0  0  0  0  0  0  0
   -1.5031   -0.3139   -0.6912 C   0  0  0  0  0  0  0  0  0  0  0  0
   -1.5665   -1.3666   -1.3080 O   0  0  0  0  0  0  0  0  0  0  0  0
   -6.8393    0.8081    0.8999 C   0  0  0  0  0  0  0  0  0  0  0  0
   -7.6968    1.0042   -0.3257 C   0  0  0  0  0  0  0  0  0  0  0  0
   -5.6179    0.1698    0.4837 O   0  0  0  0  0  0  0  0  0  0  0  0
   -0.3716    0.3913   -0.5282 N   0  0  0  0  0  0  0  0  0  0  0  0
    0.9180   -0.0221   -1.0118 C   0  0  2  0  0  0  0  0  0  0  0  0
    1.8885   -0.1284    0.1635 C   0  0  0  0  0  0  0  0  0  0  0  0
    1.6281    0.3348    1.2655 O   0  0  0  0  0  0  0  0  0  0  0  0
    1.4242    0.8662   -2.1790 C   0  0  2  0  0  0  0  0  0  0  0  0
    1.1766    2.3640   -1.9898 C   0  0  0  0  0  0  0  0  0  0  0  0
    0.7908    0.3935   -3.4849 C   0  0  0  0  0  0  0  0  0  0  0  0
    1.8681    3.0124   -0.7975 C   0  0  0  0  0  0  0  0  0  0  0  0
    3.0435   -0.7801   -0.0567 N   0  0  0  0  0  0  0  0  0  0  0  0
    3.9595   -0.9724    1.0523 C   0  0  2  0  0  0  0  0  0  0  0  0
    4.4672    0.3470    1.5906 C   0  0  0  0  0  0  0  0  0  0  0  0
    4.6671    1.3252    0.9191 O   0  0  0  0  0  0  0  0  0  0  0  0
    5.1027   -1.7983    0.4419 C   0  0  0  0  0  0  0  0  0  0  0  0
    4.4108   -2.5604   -0.6818 C   0  0  0  0  0  0  0  0  0  0  0  0
    3.4504   -1.5241   -1.2452 C   0  0  0  0  0  0  0  0  0  0  0  0
    4.7371    0.2664    2.8859 O   0  0  0  0  0  0  0  0  0  0  0  0
   -3.7763   -1.5571    0.1529 H   0  0  0  0  0  0  0  0  0  0  0  0
   -2.4170   -0.5805    2.4173 H   0  0  0  0  0  0  0  0  0  0  0  0
   -3.3823    0.6476   -0.8813 H   0  0  0  0  0  0  0  0  0  0  0  0
   -2.4887    1.1901    0.5288 H   0  0  0  0  0  0  0  0  0  0  0  0
   -6.6058    1.7638    1.3726 H   0  0  0  0  0  0  0  0  0  0  0  0
   -7.3454    0.1805    1.6356 H   0  0  0  0  0  0  0  0  0  0  0  0
   -7.2028    1.6342   -1.0652 H   0  0  0  0  0  0  0  0  0  0  0  0
   -7.9547    0.0533   -0.7917 H   0  0  0  0  0  0  0  0  0  0  0  0
   -8.6244    1.4965   -0.0349 H   0  0  0  0  0  0  0  0  0  0  0  0
   -0.4034    1.2114    0.0559 H   0  0  0  0  0  0  0  0  0  0  0  0
    0.7883   -1.0326   -1.4071 H   0  0  0  0  0  0  0  0  0  0  0  0
    2.5057    0.7238   -2.2657 H   0  0  0  0  0  0  0  0  0  0  0  0
    1.5198    2.8578   -2.9030 H   0  0  0  0  0  0  0  0  0  0  0  0
    0.0996    2.5510   -1.9432 H   0  0  0  0  0  0  0  0  0  0  0  0
   -0.2936    0.5193   -3.4704 H   0  0  0  0  0  0  0  0  0  0  0  0
    1.1787    0.9630   -4.3302 H   0  0  0  0  0  0  0  0  0  0  0  0
    1.0012   -0.6612   -3.6700 H   0  0  0  0  0  0  0  0  0  0  0  0
    1.7818    4.0979   -0.8557 H   0  0  0  0  0  0  0  0  0  0  0  0
    1.4387    2.7088    0.1565 H   0  0  0  0  0  0  0  0  0  0  0  0
    2.9294    2.7632   -0.7676 H   0  0  0  0  0  0  0  0  0  0  0  0
    3.4735   -1.5329    1.8557 H   0  0  0  0  0  0  0  0  0  0  0  0
    5.8710   -1.1435    0.0246 H   0  0  0  0  0  0  0  0  0  0  0  0
    5.5749   -2.4428    1.1809 H   0  0  0  0  0  0  0  0  0  0  0  0
    5.1072   -2.9295   -1.4332 H   0  0  0  0  0  0  0  0  0  0  0  0
    3.8565   -3.4121   -0.2833 H   0  0  0  0  0  0  0  0  0  0  0  0
    2.5972   -1.9744   -1.7505 H   0  0  0  0  0  0  0  0  0  0  0  0
    3.9612   -0.8722   -1.9589 H   0  0  0  0  0  0  0  0  0  0  0  0
    5.1203    1.0994    3.2003 H   0  0  0  0  0  0  0  0  0  0  0  0
 11 12  1  0
 11  6  1  0
 12 13  1  0
 12 15  1  0
 13 14  2  0
 13 19  1  0
 15 16  1  0
 15 17  1  0
 16 18  1  0
 19 20  1  0
 19 25  1  0
 20 21  1  0
 20 23  1  0
 21 22  2  0
 21 26  1  0
 23 24  1  0
 24 25  1  0
  1  2  2  0
  2  3  1  0
  2 10  1  0
  3  4  1  0
  3  5  1  0
  5  6  1  0
  6  7  2  0
  8  9  1  0
  8 10  1  0
 11 36  1  0
 12 37  1  6
 15 38  1  6
 16 39  1  0
 16 40  1  0
 17 41  1  0
 17 42  1  0
 17 43  1  0
 18 44  1  0
 18 45  1  0
 18 46  1  0
 20 47  1  1
 23 48  1  0
 23 49  1  0
 24 50  1  0
 24 51  1  0
 25 52  1  0
 25 53  1  0
  3 27  1  6
  4 28  1  0
  5 29  1  0
  5 30  1  0
  8 31  1  0
  8 32  1  0
  9 33  1  0
  9 34  1  0
  9 35  1  0
 26 54  1  0
M  END
