
     RDKit          3D

 26 25  0  0  0  0  0  0  0  0999 V2000
    1.7628    0.8181    1.5542 O   0  0  0  0  0  0  0  0  0  0  0  0
    1.8542    0.5743    0.0925 P   0  0  1  0  0  0  0  0  0  0  0  0
    3.4113    0.5176   -0.3316 O   0  0  0  0  0  0  0  0  0  0  0  0
    1.0981   -0.9944   -0.4761 C   0  0  1  0  0  0  0  0  0  0  0  0
    1.9222   -2.1321   -0.0973 N   0  0  0  0  0  0  0  0  0  0  0  0
   -0.3094   -1.1989    0.0873 C   0  0  0  0  0  0  0  0  0  0  0  0
   -1.3566   -0.1650   -0.3077 C   0  0  0  0  0  0  0  0  0  0  0  0
   -2.7567   -0.5796    0.1275 C   0  0  0  0  0  0  0  0  0  0  0  0
   -3.8071    0.4667   -0.2120 C   0  0  0  0  0  0  0  0  0  0  0  0
   -5.1277    0.0442    0.2337 N   0  0  0  0  0  0  0  0  0  0  0  0
    1.1865    1.6817   -0.8664 O   0  0  0  0  0  0  0  0  0  0  0  0
    3.5830    0.4996   -1.2821 H   0  0  0  0  0  0  0  0  0  0  0  0
    1.0434   -0.9600   -1.5688 H   0  0  0  0  0  0  0  0  0  0  0  0
    2.8522   -2.0657   -0.4890 H   0  0  0  0  0  0  0  0  0  0  0  0
    2.0323   -2.1730    0.9089 H   0  0  0  0  0  0  0  0  0  0  0  0
   -0.6307   -2.1865   -0.2556 H   0  0  0  0  0  0  0  0  0  0  0  0
   -0.2484   -1.2588    1.1790 H   0  0  0  0  0  0  0  0  0  0  0  0
   -1.1223    0.8049    0.1377 H   0  0  0  0  0  0  0  0  0  0  0  0
   -1.3385   -0.0168   -1.3922 H   0  0  0  0  0  0  0  0  0  0  0  0
   -3.0310   -1.5286   -0.3429 H   0  0  0  0  0  0  0  0  0  0  0  0
   -2.7629   -0.7570    1.2092 H   0  0  0  0  0  0  0  0  0  0  0  0
   -3.4920    1.4338    0.2066 H   0  0  0  0  0  0  0  0  0  0  0  0
   -3.8388    0.6003   -1.2970 H   0  0  0  0  0  0  0  0  0  0  0  0
   -5.1388    0.0073    1.2460 H   0  0  0  0  0  0  0  0  0  0  0  0
   -5.8099    0.7488   -0.0166 H   0  0  0  0  0  0  0  0  0  0  0  0
    1.4145    2.5947   -0.6419 H   0  0  0  0  0  0  0  0  0  0  0  0
  1  2  2  0
  2  3  1  6
  2  4  1  0
  4  5  1  0
  4  6  1  0
  6  7  1  0
  7  8  1  0
  8  9  1  0
  9 10  1  0
  2 11  1  0
  3 12  1  0
  4 13  1  6
  5 14  1  0
  5 15  1  0
  6 16  1  0
  6 17  1  0
  7 18  1  0
  7 19  1  0
  8 20  1  0
  8 21  1  0
  9 22  1  0
  9 23  1  0
 10 24  1  0
 10 25  1  0
 11 26  1  0
M  END
