
     RDKit          3D

 34 35  0  0  0  0  0  0  0  0999 V2000
   -1.1368    2.5944   -0.7106 C   0  0  0  0  0  0  0  0  0  0  0  0
    0.5536   -3.1202   -0.2500 C   0  0  0  0  0  0  0  0  0  0  0  0
    2.6510    1.1457    0.4162 C   0  0  0  0  0  0  0  0  0  0  0  0
    0.5059   -4.1147   -1.3745 C   0  0  0  0  0  0  0  0  0  0  0  0
    1.4978    0.4458    0.5874 O   0  0  0  0  0  0  0  0  0  0  0  0
    3.6728    0.6222    0.7856 O   0  0  0  0  0  0  0  0  0  0  0  0
   -0.8087    0.0678    0.4844 C   0  0  0  0  0  0  0  0  0  0  0  0
   -0.6276   -1.3018    1.0895 C   0  0  0  0  0  0  0  0  0  0  0  0
    0.2725    0.9008    0.2333 C   0  0  0  0  0  0  0  0  0  0  0  0
    0.1402    2.1628   -0.3554 C   0  0  0  0  0  0  0  0  0  0  0  0
   -2.0737    0.5349    0.1018 C   0  0  0  0  0  0  0  0  0  0  0  0
   -0.5009   -2.3460    0.0162 C   0  0  0  0  0  0  0  0  0  0  0  0
   -2.2367    1.7957   -0.4879 C   0  0  0  0  0  0  0  0  0  0  0  0
    1.3292    2.9315   -0.5587 C   0  0  0  0  0  0  0  0  0  0  0  0
    2.5326    2.4522   -0.1924 C   0  0  0  0  0  0  0  0  0  0  0  0
    1.8512   -3.1075    0.5009 C   0  0  0  0  0  0  0  0  0  0  0  0
   -4.4090    0.0934   -0.0133 C   0  0  0  0  0  0  0  0  0  0  0  0
   -1.2623    3.5671   -1.1687 H   0  0  0  0  0  0  0  0  0  0  0  0
    0.6644   -5.1309   -1.0042 H   0  0  0  0  0  0  0  0  0  0  0  0
   -0.4456   -4.0936   -1.9055 H   0  0  0  0  0  0  0  0  0  0  0  0
    1.3020   -3.9221   -2.0982 H   0  0  0  0  0  0  0  0  0  0  0  0
    0.2368   -1.3061    1.7497 H   0  0  0  0  0  0  0  0  0  0  0  0
   -1.4891   -1.5321    1.7197 H   0  0  0  0  0  0  0  0  0  0  0  0
   -1.3806   -2.4590   -0.6124 H   0  0  0  0  0  0  0  0  0  0  0  0
   -3.2136    2.1560   -0.7761 H   0  0  0  0  0  0  0  0  0  0  0  0
    1.2469    3.9107   -1.0146 H   0  0  0  0  0  0  0  0  0  0  0  0
    3.4431    3.0158   -0.3354 H   0  0  0  0  0  0  0  0  0  0  0  0
    2.0337   -4.0839    0.9571 H   0  0  0  0  0  0  0  0  0  0  0  0
    2.6835   -2.9303   -0.1851 H   0  0  0  0  0  0  0  0  0  0  0  0
    1.9058   -2.3561    1.2846 H   0  0  0  0  0  0  0  0  0  0  0  0
   -5.0574   -0.7322    0.2676 H   0  0  0  0  0  0  0  0  0  0  0  0
   -4.7214    0.9882    0.5297 H   0  0  0  0  0  0  0  0  0  0  0  0
   -4.5103    0.2727   -1.0860 H   0  0  0  0  0  0  0  0  0  0  0  0
   -3.0935   -0.3008    0.3334 O   0  0  0  0  0  0  0  0  0  0  0  0
  6  3  2  0
  3 15  1  0
  3  5  1  0
 15 14  2  0
  5  9  1  0
  4  2  1  0
  2 16  1  0
  2 12  2  0
 14 10  1  0
 12  8  1  0
  9 10  1  0
  9  7  2  0
 10  1  2  0
  8  7  1  0
  7 11  1  0
  1 13  1  0
 11 13  2  0
 11 34  1  0
 34 17  1  0
  1 18  1  0
  4 19  1  0
  4 20  1  0
  4 21  1  0
  8 22  1  0
  8 23  1  0
 12 24  1  0
 13 25  1  0
 14 26  1  0
 15 27  1  0
 16 28  1  0
 16 29  1  0
 16 30  1  0
 17 31  1  0
 17 32  1  0
 17 33  1  0
M  END
