
     RDKit          3D

 58 60  0  0  0  0  0  0  0  0999 V2000
    0.0766    0.7771    0.8691 N   0  0  0  0  0  0  0  0  0  0  0  0
    0.8825    1.7222    0.4674 C   0  0  0  0  0  0  0  0  0  0  0  0
    2.2264    1.6304    0.5823 N   0  0  0  0  0  0  0  0  0  0  0  0
    2.8068    0.4640    1.0168 C   0  0  0  0  0  0  0  0  0  0  0  0
    2.0138   -0.5971    1.3211 C   0  0  0  0  0  0  0  0  0  0  0  0
    0.5761   -0.4138    1.3402 C   0  0  0  0  0  0  0  0  0  0  0  0
    4.1702    0.4512    1.1301 N   0  0  0  0  0  0  0  0  0  0  0  0
    4.7498   -0.7610    1.6734 C   0  0  0  0  0  0  0  0  0  0  0  0
    3.9626   -1.9944    1.1955 C   0  0  1  0  0  0  0  0  0  0  0  0
    2.5645   -1.8669    1.5315 N   0  0  0  0  0  0  0  0  0  0  0  0
    4.2017   -2.1892   -0.3237 C   0  0  0  0  0  0  0  0  0  0  0  0
    3.1516   -2.8920   -1.0275 N   0  0  0  0  0  0  0  0  0  0  0  0
    2.0392   -2.1613   -1.4220 C   0  0  0  0  0  0  0  0  0  0  0  0
    2.1840   -0.9111   -2.0511 C   0  0  0  0  0  0  0  0  0  0  0  0
    1.0851   -0.1528   -2.4068 C   0  0  0  0  0  0  0  0  0  0  0  0
   -0.2025   -0.5995   -2.1252 C   0  0  0  0  0  0  0  0  0  0  0  0
   -0.3542   -1.8569   -1.5547 C   0  0  0  0  0  0  0  0  0  0  0  0
    0.7393   -2.6411   -1.2375 C   0  0  0  0  0  0  0  0  0  0  0  0
   -1.4073    0.2525   -2.3263 C   0  0  0  0  0  0  0  0  0  0  0  0
   -2.0454    0.5121   -1.1684 N   0  0  0  0  0  0  0  0  0  0  0  0
   -3.3171    1.1730   -1.1220 C   0  0  2  0  0  0  0  0  0  0  0  0
   -3.2294    2.5917   -1.6595 C   0  0  0  0  0  0  0  0  0  0  0  0
   -2.2779    3.3170   -1.4998 O   0  0  0  0  0  0  0  0  0  0  0  0
   -4.3410    2.9628   -2.2677 O   0  0  0  0  0  0  0  0  0  0  0  0
   -3.8241    1.2296    0.3249 C   0  0  0  0  0  0  0  0  0  0  0  0
   -3.8926   -0.1541    0.9545 C   0  0  0  0  0  0  0  0  0  0  0  0
   -4.5713   -0.1496    2.2967 C   0  0  0  0  0  0  0  0  0  0  0  0
   -4.5873   -1.3628    2.8380 O   0  0  0  0  0  0  0  0  0  0  0  0
   -5.0467    0.8190    2.8348 O   0  0  0  0  0  0  0  0  0  0  0  0
   -1.8049    0.6515   -3.4128 O   0  0  0  0  0  0  0  0  0  0  0  0
   -0.1877   -1.2837    1.7558 O   0  0  0  0  0  0  0  0  0  0  0  0
    0.3921    2.8715   -0.0383 N   0  0  0  0  0  0  0  0  0  0  0  0
    2.9474   -4.2477   -0.5730 C   0  0  0  0  0  0  0  0  0  0  0  0
    5.7958   -0.8086    1.3722 H   0  0  0  0  0  0  0  0  0  0  0  0
    4.7239   -0.7255    2.7653 H   0  0  0  0  0  0  0  0  0  0  0  0
    4.3375   -2.8722    1.7237 H   0  0  0  0  0  0  0  0  0  0  0  0
    2.3409   -2.2601    2.4344 H   0  0  0  0  0  0  0  0  0  0  0  0
    4.3714   -1.2269   -0.8054 H   0  0  0  0  0  0  0  0  0  0  0  0
    5.1362   -2.7439   -0.4432 H   0  0  0  0  0  0  0  0  0  0  0  0
    3.1698   -0.5186   -2.2631 H   0  0  0  0  0  0  0  0  0  0  0  0
    1.2404    0.8137   -2.8714 H   0  0  0  0  0  0  0  0  0  0  0  0
   -1.3447   -2.2298   -1.3250 H   0  0  0  0  0  0  0  0  0  0  0  0
    0.5629   -3.6007   -0.7739 H   0  0  0  0  0  0  0  0  0  0  0  0
   -1.4934    0.4379   -0.3114 H   0  0  0  0  0  0  0  0  0  0  0  0
   -4.0407    0.6175   -1.7255 H   0  0  0  0  0  0  0  0  0  0  0  0
   -4.2825    3.8896   -2.5467 H   0  0  0  0  0  0  0  0  0  0  0  0
   -3.1711    1.8766    0.9163 H   0  0  0  0  0  0  0  0  0  0  0  0
   -4.8122    1.6910    0.3222 H   0  0  0  0  0  0  0  0  0  0  0  0
   -4.4309   -0.8506    0.3039 H   0  0  0  0  0  0  0  0  0  0  0  0
   -2.8939   -0.5820    1.0893 H   0  0  0  0  0  0  0  0  0  0  0  0
   -5.0308   -1.3353    3.6989 H   0  0  0  0  0  0  0  0  0  0  0  0
   -0.5670    2.8681   -0.3571 H   0  0  0  0  0  0  0  0  0  0  0  0
    1.0044    3.4737   -0.5638 H   0  0  0  0  0  0  0  0  0  0  0  0
    2.3921   -4.3133    0.3688 H   0  0  0  0  0  0  0  0  0  0  0  0
    2.4154   -4.8294   -1.3268 H   0  0  0  0  0  0  0  0  0  0  0  0
    3.9202   -4.7157   -0.4232 H   0  0  0  0  0  0  0  0  0  0  0  0
    2.8145    2.4147    0.3403 H   0  0  0  0  0  0  0  0  0  0  0  0
    4.6847    0.8933    0.3824 H   0  0  0  0  0  0  0  0  0  0  0  0
  7  8  1  0
  7  4  1  0
  8  9  1  0
  9 11  1  0
  9 10  1  0
  3  4  1  0
  3  2  1  0
  4  5  2  0
 11 12  1  0
  2 32  1  0
  2  1  2  0
  5 10  1  0
  5  6  1  0
 33 12  1  0
 12 13  1  0
  1  6  1  0
  6 31  2  0
 13 18  1  0
 13 14  2  0
 18 17  2  0
 17 16  1  0
 14 15  1  0
 15 16  2  0
 16 19  1  0
 19 30  2  0
 19 20  1  0
 20 21  1  0
 21 25  1  0
 21 22  1  0
 25 26  1  0
 23 22  2  0
 22 24  1  0
 26 27  1  0
 27 29  2  0
 27 28  1  0
  8 34  1  0
  8 35  1  0
  9 36  1  1
 10 37  1  0
 11 38  1  0
 11 39  1  0
 14 40  1  0
 15 41  1  0
 17 42  1  0
 18 43  1  0
 20 44  1  0
 21 45  1  6
 24 46  1  0
 25 47  1  0
 25 48  1  0
 26 49  1  0
 26 50  1  0
 28 51  1  0
 32 52  1  0
 32 53  1  0
 33 54  1  0
 33 55  1  0
 33 56  1  0
  3 57  1  0
  7 58  1  0
M  END
