
     RDKit          3D

 65 68  0  0  0  0  0  0  0  0999 V2000
    8.0516   -4.0686    1.3507 C   0  0  0  0  0  0  0  0  0  0  0  0
    4.2120    2.4256    2.3526 C   0  0  0  0  0  0  0  0  0  0  0  0
    6.7004   -3.7726    1.4960 C   0  0  0  0  0  0  0  0  0  0  0  0
    8.7730   -3.4878    0.3182 C   0  0  0  0  0  0  0  0  0  0  0  0
    3.1980    3.2882    1.9611 C   0  0  0  0  0  0  0  0  0  0  0  0
    4.5554    1.3603    1.5355 C   0  0  0  0  0  0  0  0  0  0  0  0
    6.0783   -2.9027    0.6135 C   0  0  0  0  0  0  0  0  0  0  0  0
    8.1467   -2.6135   -0.5631 C   0  0  0  0  0  0  0  0  0  0  0  0
    2.5368    3.0759    0.7607 C   0  0  0  0  0  0  0  0  0  0  0  0
   -2.0796   -0.4861   -2.3953 C   0  0  0  0  0  0  0  0  0  0  0  0
   -3.3305   -0.8858   -1.9474 C   0  0  0  0  0  0  0  0  0  0  0  0
    3.8834    1.1407    0.3337 C   0  0  0  0  0  0  0  0  0  0  0  0
   -1.9084    1.0617   -0.5756 C   0  0  0  0  0  0  0  0  0  0  0  0
    6.7962   -2.3137   -0.4268 C   0  0  0  0  0  0  0  0  0  0  0  0
    2.8614    2.0058   -0.0688 C   0  0  0  0  0  0  0  0  0  0  0  0
   -1.3654    0.5028   -1.7342 C   0  0  0  0  0  0  0  0  0  0  0  0
   -3.8801   -0.3142   -0.8121 C   0  0  0  0  0  0  0  0  0  0  0  0
   -3.1576    0.6606   -0.1164 C   0  0  0  0  0  0  0  0  0  0  0  0
    4.2304   -0.0718   -0.4724 C   0  0  0  0  0  0  0  0  0  0  0  0
   -9.1685   -1.6468    0.6498 C   0  0  0  0  0  0  0  0  0  0  0  0
   -4.7555    0.5784    1.5824 C   0  0  0  0  0  0  0  0  0  0  0  0
   -5.7530    0.1589    0.5223 C   0  0  2  0  0  0  0  0  0  0  0  0
    6.1187   -1.3686   -1.3884 C   0  0  0  0  0  0  0  0  0  0  0  0
    2.0910    1.8219   -1.3512 C   0  0  0  0  0  0  0  0  0  0  0  0
   -0.0160    0.9583   -2.2193 C   0  0  0  0  0  0  0  0  0  0  0  0
   -6.9370   -0.5736    1.1164 C   0  0  0  0  0  0  0  0  0  0  0  0
    5.5401   -0.2207   -0.7256 N   0  0  0  0  0  0  0  0  0  0  0  0
    0.9010    1.0343   -1.1036 N   0  0  0  0  0  0  0  0  0  0  0  0
   -0.8288    1.8086    1.3717 O   0  0  0  0  0  0  0  0  0  0  0  0
   -9.3560   -1.8403    1.8251 O   0  0  0  0  0  0  0  0  0  0  0  0
    3.3737   -0.8650   -0.8436 O   0  0  0  0  0  0  0  0  0  0  0  0
   -1.0458    3.2659   -0.3066 O   0  0  0  0  0  0  0  0  0  0  0  0
  -10.0299   -2.0161   -0.2925 O   0  0  0  0  0  0  0  0  0  0  0  0
   -3.6580    1.2545    0.9887 O   0  0  0  0  0  0  0  0  0  0  0  0
   -5.1063   -0.7127   -0.4024 O   0  0  0  0  0  0  0  0  0  0  0  0
    8.5374   -4.7472    2.0399 H   0  0  0  0  0  0  0  0  0  0  0  0
    6.1297   -4.2237    2.2975 H   0  0  0  0  0  0  0  0  0  0  0  0
    9.8254   -3.7104    0.1979 H   0  0  0  0  0  0  0  0  0  0  0  0
    4.7316    2.5788    3.2890 H   0  0  0  0  0  0  0  0  0  0  0  0
    2.9228    4.1264    2.5879 H   0  0  0  0  0  0  0  0  0  0  0  0
    5.3382    0.6808    1.8510 H   0  0  0  0  0  0  0  0  0  0  0  0
    5.0235   -2.6854    0.7345 H   0  0  0  0  0  0  0  0  0  0  0  0
    8.7188   -2.1578   -1.3628 H   0  0  0  0  0  0  0  0  0  0  0  0
    1.7543    3.7588    0.4520 H   0  0  0  0  0  0  0  0  0  0  0  0
   -1.6604   -0.9496   -3.2795 H   0  0  0  0  0  0  0  0  0  0  0  0
   -3.8886   -1.6478   -2.4770 H   0  0  0  0  0  0  0  0  0  0  0  0
    6.8364   -1.0123   -2.1284 H   0  0  0  0  0  0  0  0  0  0  0  0
    5.3279   -1.8830   -1.9345 H   0  0  0  0  0  0  0  0  0  0  0  0
    1.7695    2.8059   -1.7017 H   0  0  0  0  0  0  0  0  0  0  0  0
    2.7344    1.4094   -2.1399 H   0  0  0  0  0  0  0  0  0  0  0  0
    0.3243    0.3055   -3.0349 H   0  0  0  0  0  0  0  0  0  0  0  0
   -0.1062    1.9590   -2.6533 H   0  0  0  0  0  0  0  0  0  0  0  0
    6.1759    0.4944   -0.4093 H   0  0  0  0  0  0  0  0  0  0  0  0
   -0.3902    2.5552    1.8066 H   0  0  0  0  0  0  0  0  0  0  0  0
   -7.5245   -1.6336   -0.6847 H   0  0  0  0  0  0  0  0  0  0  0  0
   -8.3048   -0.0864   -0.4858 H   0  0  0  0  0  0  0  0  0  0  0  0
  -10.7987   -2.4453    0.1116 H   0  0  0  0  0  0  0  0  0  0  0  0
   -5.2122    1.2753    2.2834 H   0  0  0  0  0  0  0  0  0  0  0  0
   -4.4023   -0.2965    2.1401 H   0  0  0  0  0  0  0  0  0  0  0  0
   -6.0928    1.0541   -0.0148 H   0  0  0  0  0  0  0  0  0  0  0  0
   -6.5842   -1.4552    1.6575 H   0  0  0  0  0  0  0  0  0  0  0  0
   -7.4004    0.0862    1.8526 H   0  0  0  0  0  0  0  0  0  0  0  0
    1.1730    0.1034   -0.8127 H   0  0  0  0  0  0  0  0  0  0  0  0
   -1.1954    2.1591    0.1495 C   0  0  0  0  0  0  0  0  0  0  0  0
   -7.9613   -0.9685    0.0643 C   0  0  0  0  0  0  0  0  0  0  0  0
  1  3  2  0
  1  4  1  0
  2  5  2  0
  2  6  1  0
  3  7  1  0
  4  8  2  0
  5  9  1  0
  6 12  2  0
  7 14  2  0
  8 14  1  0
  9 15  2  0
 10 11  2  0
 10 16  1  0
 11 17  1  0
 12 15  1  0
 12 19  1  0
 13 16  2  0
 13 18  1  0
 13 64  1  0
 14 23  1  0
 15 24  1  0
 16 25  1  0
 17 18  2  0
 17 35  1  0
 18 34  1  0
 19 27  1  0
 19 31  2  0
 64 29  1  0
 64 32  2  0
 20 65  1  0
 20 30  2  0
 20 33  1  0
 21 22  1  0
 21 34  1  0
 22 26  1  0
 22 35  1  0
 23 27  1  0
 24 28  1  0
 25 28  1  0
 65 26  1  0
  1 36  1  0
  3 37  1  0
  4 38  1  0
  2 39  1  0
  5 40  1  0
  6 41  1  0
  7 42  1  0
  8 43  1  0
  9 44  1  0
 10 45  1  0
 11 46  1  0
 23 47  1  0
 23 48  1  0
 24 49  1  0
 24 50  1  0
 25 51  1  0
 25 52  1  0
 27 53  1  0
 29 54  1  0
 65 55  1  0
 65 56  1  0
 33 57  1  0
 21 58  1  0
 21 59  1  0
 22 60  1  6
 26 61  1  0
 26 62  1  0
 28 63  1  0
M  END
