
     RDKit          3D

 51 52  0  0  0  0  0  0  0  0999 V2000
    7.2833   -0.2656    1.0039 C   0  0  0  0  0  0  0  0  0  0  0  0
    7.0826    1.0152   -0.9208 O   0  0  0  0  0  0  0  0  0  0  0  0
    5.0097    2.0929   -1.3834 C   0  0  0  0  0  0  0  0  0  0  0  0
    2.9452    1.0620   -0.5857 C   0  0  0  0  0  0  0  0  0  0  0  0
    2.3882    0.0129    0.3726 C   0  0  0  0  0  0  0  0  0  0  0  0
    1.0823   -0.5338   -0.1102 C   0  0  0  0  0  0  0  0  0  0  0  0
    1.0186   -1.6618   -0.9482 C   0  0  0  0  0  0  0  0  0  0  0  0
   -0.2117   -2.1403   -1.3918 C   0  0  0  0  0  0  0  0  0  0  0  0
   -1.3874   -1.5208   -1.0206 C   0  0  0  0  0  0  0  0  0  0  0  0
   -1.3689   -0.3972   -0.1833 C   0  0  0  0  0  0  0  0  0  0  0  0
    2.2152   -2.3088   -1.3582 C   0  0  0  0  0  0  0  0  0  0  0  0
   -3.8119   -0.0756   -0.1704 C   0  0  0  0  0  0  0  0  0  0  0  0
   -8.4601    0.5372   -0.1321 C   0  0  0  0  0  0  0  0  0  0  0  0
   -7.1892    0.9396    0.2575 C   0  0  0  0  0  0  0  0  0  0  0  0
    6.0397   -0.5553    0.9303 N   0  0  0  0  0  0  0  0  0  0  0  0
    8.2080   -0.8298    1.8355 N   0  0  0  0  0  0  0  0  0  0  0  0
    7.8283    0.7254    0.1961 N   0  0  0  0  0  0  0  0  0  0  0  0
    6.4015    2.2645   -0.8150 C   0  0  0  0  0  0  0  0  0  0  0  0
    4.2756    1.1207   -0.6063 N   0  0  0  0  0  0  0  0  0  0  0  0
    2.2067    1.7899   -1.2370 O   0  0  0  0  0  0  0  0  0  0  0  0
   -0.1048    0.0610    0.2282 C   0  0  0  0  0  0  0  0  0  0  0  0
   -0.0889    1.1464    1.0239 F   0  0  0  0  0  0  0  0  0  0  0  0
    3.1871   -2.8341   -1.6923 N   0  0  0  0  0  0  0  0  0  0  0  0
   -2.4799    0.2465    0.2578 N   0  0  0  0  0  0  0  0  0  0  0  0
   -4.8257    0.2778    0.9019 C   0  0  1  0  0  0  0  0  0  0  0  0
   -4.5370   -0.3904    2.0518 F   0  0  0  0  0  0  0  0  0  0  0  0
   -4.7195    1.6035    1.2078 F   0  0  0  0  0  0  0  0  0  0  0  0
   -6.2400   -0.0439    0.4838 C   0  0  0  0  0  0  0  0  0  0  0  0
   -6.4788   -1.3406    0.3345 N   0  0  0  0  0  0  0  0  0  0  0  0
   -7.6935   -1.7148   -0.0373 C   0  0  0  0  0  0  0  0  0  0  0  0
   -8.7217   -0.8137   -0.2813 C   0  0  0  0  0  0  0  0  0  0  0  0
    4.5069    3.0613   -1.3574 H   0  0  0  0  0  0  0  0  0  0  0  0
    5.0672    1.7967   -2.4361 H   0  0  0  0  0  0  0  0  0  0  0  0
    3.1089   -0.7929    0.5206 H   0  0  0  0  0  0  0  0  0  0  0  0
    2.2721    0.4891    1.3486 H   0  0  0  0  0  0  0  0  0  0  0  0
   -0.2503   -3.0037   -2.0416 H   0  0  0  0  0  0  0  0  0  0  0  0
   -2.3214   -1.9137   -1.3947 H   0  0  0  0  0  0  0  0  0  0  0  0
   -4.0941    0.4344   -1.0991 H   0  0  0  0  0  0  0  0  0  0  0  0
   -3.9057   -1.1450   -0.3552 H   0  0  0  0  0  0  0  0  0  0  0  0
   -6.9603    1.9885    0.3764 H   0  0  0  0  0  0  0  0  0  0  0  0
    5.7759   -1.2411    1.6269 H   0  0  0  0  0  0  0  0  0  0  0  0
    7.8480   -1.2933    2.6541 H   0  0  0  0  0  0  0  0  0  0  0  0
    9.0492   -0.3069    2.0240 H   0  0  0  0  0  0  0  0  0  0  0  0
    8.7904    0.5687   -0.0779 H   0  0  0  0  0  0  0  0  0  0  0  0
    6.3509    2.5813    0.2289 H   0  0  0  0  0  0  0  0  0  0  0  0
    6.9381    3.0341   -1.3785 H   0  0  0  0  0  0  0  0  0  0  0  0
    4.8319    0.4336   -0.0734 H   0  0  0  0  0  0  0  0  0  0  0  0
   -2.3430    1.1781    0.6165 H   0  0  0  0  0  0  0  0  0  0  0  0
   -7.8596   -2.7799   -0.1485 H   0  0  0  0  0  0  0  0  0  0  0  0
   -9.6966   -1.1690   -0.5839 H   0  0  0  0  0  0  0  0  0  0  0  0
   -9.2305    1.2736   -0.3165 H   0  0  0  0  0  0  0  0  0  0  0  0
  1 15  2  0
  1 16  1  0
  1 17  1  0
  2 17  1  0
  2 18  1  0
  3 18  1  0
  3 19  1  0
  4  5  1  0
  4 19  1  0
  4 20  2  0
  5  6  1  0
  6  7  2  0
  6 21  1  0
  7  8  1  0
  7 11  1  0
  8  9  2  0
  9 10  1  0
 10 21  2  0
 10 24  1  0
 11 23  3  0
 12 24  1  0
 12 25  1  0
 13 14  2  0
 13 31  1  0
 14 28  1  0
 21 22  1  0
 25 26  1  1
 25 27  1  0
 25 28  1  0
 28 29  2  0
 29 30  1  0
 30 31  2  0
  3 32  1  0
  3 33  1  0
  5 34  1  0
  5 35  1  0
  8 36  1  0
  9 37  1  0
 12 38  1  0
 12 39  1  0
 13 51  1  0
 14 40  1  0
 15 41  1  0
 16 42  1  0
 16 43  1  0
 17 44  1  0
 18 45  1  0
 18 46  1  0
 19 47  1  0
 24 48  1  0
 30 49  1  0
 31 50  1  0
M  END
