
     RDKit          3D

 23 23  0  0  0  0  0  0  0  0999 V2000
    2.4907    0.0192   -0.2254 C   0  0  0  0  0  0  0  0  0  0  0  0
    1.6735   -1.2675   -0.1611 C   0  0  0  0  0  0  0  0  0  0  0  0
    0.5039   -1.0980    0.7971 C   0  0  0  0  0  0  0  0  0  0  0  0
   -0.3197    0.0446    0.4111 N   0  0  0  0  0  0  0  0  0  0  0  0
    0.4195    1.3058    0.4137 C   0  0  0  0  0  0  0  0  0  0  0  0
    1.6004    1.2145   -0.5462 C   0  0  0  0  0  0  0  0  0  0  0  0
   -1.5429   -0.0829   -0.0916 C   0  0  0  0  0  0  0  0  0  0  0  0
   -2.0203   -1.2754   -0.4401 N   0  0  0  0  0  0  0  0  0  0  0  0
   -2.3309    0.9791   -0.2460 N   0  0  0  0  0  0  0  0  0  0  0  0
    2.9825    0.1818    0.7391 H   0  0  0  0  0  0  0  0  0  0  0  0
    3.2831   -0.0704   -0.9702 H   0  0  0  0  0  0  0  0  0  0  0  0
    1.2988   -1.5287   -1.1552 H   0  0  0  0  0  0  0  0  0  0  0  0
    2.2899   -2.1014    0.1785 H   0  0  0  0  0  0  0  0  0  0  0  0
   -0.0998   -1.9994    0.8703 H   0  0  0  0  0  0  0  0  0  0  0  0
    0.8764   -0.8969    1.8053 H   0  0  0  0  0  0  0  0  0  0  0  0
   -0.2240    2.1363    0.1385 H   0  0  0  0  0  0  0  0  0  0  0  0
    0.7652    1.4900    1.4340 H   0  0  0  0  0  0  0  0  0  0  0  0
    2.1673    2.1457   -0.4890 H   0  0  0  0  0  0  0  0  0  0  0  0
    1.2182    1.1363   -1.5682 H   0  0  0  0  0  0  0  0  0  0  0  0
   -1.4142   -2.0407   -0.6802 H   0  0  0  0  0  0  0  0  0  0  0  0
   -2.9823   -1.3688   -0.7206 H   0  0  0  0  0  0  0  0  0  0  0  0
   -2.1993    1.8141    0.2986 H   0  0  0  0  0  0  0  0  0  0  0  0
   -3.2248    0.8777   -0.6965 H   0  0  0  0  0  0  0  0  0  0  0  0
  9  7  2  0
  8  7  1  0
  7  4  1  0
  4  5  1  0
  4  3  1  0
  5  6  1  0
  3  2  1  0
  6  1  1  0
  2  1  1  0
  1 10  1  0
  1 11  1  0
  2 12  1  0
  2 13  1  0
  3 14  1  0
  3 15  1  0
  5 16  1  0
  5 17  1  0
  6 18  1  0
  6 19  1  0
  8 20  1  0
  8 21  1  0
  9 22  1  0
  9 23  1  0
M  CHG  1   9   1
M  END
