
     RDKit          3D

 61 64  0  0  0  0  0  0  0  0999 V2000
    4.5926    0.3206    1.8119 C   0  0  0  0  0  0  0  0  0  0  0  0
    4.7004   -0.2129    0.4660 N   0  0  0  0  0  0  0  0  0  0  0  0
    3.6707   -0.1451   -0.4038 C   0  0  0  0  0  0  0  0  0  0  0  0
    3.7343   -0.5675   -1.5536 O   0  0  0  0  0  0  0  0  0  0  0  0
    2.3930    0.4921    0.1065 C   0  0  0  0  0  0  0  0  0  0  0  0
    1.3422    0.6115   -0.9950 C   0  0  0  0  0  0  0  0  0  0  0  0
    0.1247    1.2588   -0.5455 N   0  0  0  0  0  0  0  0  0  0  0  0
   -0.8000    0.4576    0.2418 C   0  0  0  0  0  0  0  0  0  0  0  0
   -2.1757    1.0418    0.1523 C   0  0  0  0  0  0  0  0  0  0  0  0
   -3.3189    0.2821    0.2888 C   0  0  0  0  0  0  0  0  0  0  0  0
   -4.5843    0.8785    0.3035 C   0  0  0  0  0  0  0  0  0  0  0  0
   -5.8192    0.1044    0.5157 C   0  0  0  0  0  0  0  0  0  0  0  0
   -6.8220    0.6267    0.9733 O   0  0  0  0  0  0  0  0  0  0  0  0
   -5.8471   -1.3443    0.1622 C   0  0  0  0  0  0  0  0  0  0  0  0
   -6.5939   -2.2171    0.9539 C   0  0  0  0  0  0  0  0  0  0  0  0
   -6.6830   -3.5598    0.6239 C   0  0  0  0  0  0  0  0  0  0  0  0
   -6.0524   -4.0395   -0.5183 C   0  0  0  0  0  0  0  0  0  0  0  0
   -5.3279   -3.1727   -1.3248 C   0  0  0  0  0  0  0  0  0  0  0  0
   -5.2175   -1.8324   -0.9820 C   0  0  0  0  0  0  0  0  0  0  0  0
   -4.6618    2.2718    0.1810 C   0  0  0  0  0  0  0  0  0  0  0  0
   -3.5271    3.0317    0.0054 C   0  0  0  0  0  0  0  0  0  0  0  0
   -2.2567    2.4332   -0.0209 C   0  0  0  0  0  0  0  0  0  0  0  0
   -1.1513    3.2098   -0.2207 N   0  0  0  0  0  0  0  0  0  0  0  0
   -0.0340    2.6021   -0.5406 C   0  0  0  0  0  0  0  0  0  0  0  0
    0.9873    3.3720   -0.9766 N   0  0  0  0  0  0  0  0  0  0  0  0
    5.9964   -0.7259    0.0271 C   0  0  1  0  0  0  0  0  0  0  0  0
    7.0788    0.3519    0.0817 C   0  0  0  0  0  0  0  0  0  0  0  0
    8.4062   -0.1867   -0.4437 C   0  0  0  0  0  0  0  0  0  0  0  0
    8.8353   -1.4394    0.3130 C   0  0  0  0  0  0  0  0  0  0  0  0
    7.7492   -2.5090    0.2676 C   0  0  0  0  0  0  0  0  0  0  0  0
    6.4179   -1.9790    0.7945 C   0  0  0  0  0  0  0  0  0  0  0  0
    4.5432    1.4112    1.8250 H   0  0  0  0  0  0  0  0  0  0  0  0
    3.7192   -0.0707    2.3327 H   0  0  0  0  0  0  0  0  0  0  0  0
    5.4646    0.0258    2.3887 H   0  0  0  0  0  0  0  0  0  0  0  0
    1.9986   -0.1014    0.9375 H   0  0  0  0  0  0  0  0  0  0  0  0
    2.6148    1.4756    0.5322 H   0  0  0  0  0  0  0  0  0  0  0  0
    1.7346    1.1483   -1.8581 H   0  0  0  0  0  0  0  0  0  0  0  0
    1.0658   -0.3790   -1.3568 H   0  0  0  0  0  0  0  0  0  0  0  0
   -0.7850   -0.5614   -0.1475 H   0  0  0  0  0  0  0  0  0  0  0  0
   -0.4718    0.4028    1.2883 H   0  0  0  0  0  0  0  0  0  0  0  0
   -3.2196   -0.7883    0.4251 H   0  0  0  0  0  0  0  0  0  0  0  0
   -7.0933   -1.8473    1.8402 H   0  0  0  0  0  0  0  0  0  0  0  0
   -7.2502   -4.2324    1.2537 H   0  0  0  0  0  0  0  0  0  0  0  0
   -6.1297   -5.0867   -0.7804 H   0  0  0  0  0  0  0  0  0  0  0  0
   -4.8477   -3.5385   -2.2226 H   0  0  0  0  0  0  0  0  0  0  0  0
   -4.6579   -1.1642   -1.6237 H   0  0  0  0  0  0  0  0  0  0  0  0
   -5.6287    2.7585    0.1965 H   0  0  0  0  0  0  0  0  0  0  0  0
   -3.6004    4.1047   -0.1211 H   0  0  0  0  0  0  0  0  0  0  0  0
    1.9442    3.0790   -0.8806 H   0  0  0  0  0  0  0  0  0  0  0  0
    0.8389    4.3651   -0.9098 H   0  0  0  0  0  0  0  0  0  0  0  0
    5.8679   -1.0122   -1.0173 H   0  0  0  0  0  0  0  0  0  0  0  0
    6.7592    1.2190   -0.5024 H   0  0  0  0  0  0  0  0  0  0  0  0
    7.2180    0.6986    1.1117 H   0  0  0  0  0  0  0  0  0  0  0  0
    8.3079   -0.4221   -1.5088 H   0  0  0  0  0  0  0  0  0  0  0  0
    9.1744    0.5860   -0.3679 H   0  0  0  0  0  0  0  0  0  0  0  0
    9.7684   -1.8293   -0.1004 H   0  0  0  0  0  0  0  0  0  0  0  0
    9.0428   -1.1776    1.3561 H   0  0  0  0  0  0  0  0  0  0  0  0
    7.6212   -2.8521   -0.7649 H   0  0  0  0  0  0  0  0  0  0  0  0
    8.0533   -3.3844    0.8461 H   0  0  0  0  0  0  0  0  0  0  0  0
    6.5212   -1.7574    1.8621 H   0  0  0  0  0  0  0  0  0  0  0  0
    5.6402   -2.7415    0.7047 H   0  0  0  0  0  0  0  0  0  0  0  0
  1  2  1  0
  1 32  1  0
  1 33  1  0
  1 34  1  0
  2 26  1  0
  2  3  1  0
  3  4  2  0
  3  5  1  0
  5  6  1  0
  5 35  1  0
  5 36  1  0
  6  7  1  0
  6 37  1  0
  6 38  1  0
  7 24  1  0
  7  8  1  0
  8  9  1  0
  8 39  1  0
  8 40  1  0
  9 10  2  0
  9 22  1  0
 10 11  1  0
 10 41  1  0
 11 12  1  0
 11 20  2  0
 12 14  1  0
 12 13  2  0
 14 15  2  0
 14 19  1  0
 15 16  1  0
 15 42  1  0
 16 17  2  0
 16 43  1  0
 17 18  1  0
 17 44  1  0
 18 19  2  0
 18 45  1  0
 19 46  1  0
 20 21  1  0
 20 47  1  0
 21 22  2  0
 21 48  1  0
 22 23  1  0
 23 24  2  0
 24 25  1  0
 25 49  1  0
 25 50  1  0
 26 27  1  0
 26 31  1  0
 26 51  1  6
 27 28  1  0
 27 52  1  0
 27 53  1  0
 28 29  1  0
 28 54  1  0
 28 55  1  0
 29 30  1  0
 29 56  1  0
 29 57  1  0
 30 31  1  0
 30 58  1  0
 30 59  1  0
 31 60  1  0
 31 61  1  0
M  END
