
     RDKit          3D

 27 29  0  0  0  0  0  0  0  0999 V2000
   -0.8251    0.0177    3.3805 C   0  0  0  0  0  0  0  0  0  0  0  0
    0.1848    0.0085    2.4163 C   0  0  0  0  0  0  0  0  0  0  0  0
   -0.2368    0.0038    1.0893 C   0  0  0  0  0  0  0  0  0  0  0  0
   -1.5855    0.0077    0.7287 C   0  0  0  0  0  0  0  0  0  0  0  0
   -2.5694    0.0169    1.7075 C   0  0  0  0  0  0  0  0  0  0  0  0
   -2.1737    0.0219    3.0356 C   0  0  0  0  0  0  0  0  0  0  0  0
    0.5598   -0.0060   -0.0050 O   0  0  0  0  0  0  0  0  0  0  0  0
    0.1556   -0.0184   -2.4216 C   0  0  0  0  0  0  0  0  0  0  0  0
   -0.2500   -0.0086   -1.0896 C   0  0  0  0  0  0  0  0  0  0  0  0
   -1.5942   -0.0002   -0.7127 C   0  0  0  0  0  0  0  0  0  0  0  0
   -2.5900   -0.0013   -1.6796 C   0  0  0  0  0  0  0  0  0  0  0  0
   -2.2103   -0.0108   -3.0124 C   0  0  0  0  0  0  0  0  0  0  0  0
   -0.8661   -0.0192   -3.3734 C   0  0  0  0  0  0  0  0  0  0  0  0
    2.5140   -0.0024    1.9542 O   0  0  0  0  0  0  0  0  0  0  0  0
    1.6223    0.0036    2.7663 C   0  0  0  0  0  0  0  0  0  0  0  0
    1.8279    0.0065    4.0769 O   0  0  0  0  0  0  0  0  0  0  0  0
    1.7783   -0.0385   -4.1018 O   0  0  0  0  0  0  0  0  0  0  0  0
    1.5888   -0.0279   -2.7889 C   0  0  0  0  0  0  0  0  0  0  0  0
    2.4901   -0.0263   -1.9877 O   0  0  0  0  0  0  0  0  0  0  0  0
   -0.5619    0.0220    4.4287 H   0  0  0  0  0  0  0  0  0  0  0  0
   -3.6188    0.0200    1.4427 H   0  0  0  0  0  0  0  0  0  0  0  0
   -2.9184    0.0290    3.8190 H   0  0  0  0  0  0  0  0  0  0  0  0
   -3.6361    0.0051   -1.4021 H   0  0  0  0  0  0  0  0  0  0  0  0
   -2.9642   -0.0119   -3.7870 H   0  0  0  0  0  0  0  0  0  0  0  0
   -0.6156   -0.0266   -4.4247 H   0  0  0  0  0  0  0  0  0  0  0  0
    2.7797    0.0035    4.2584 H   0  0  0  0  0  0  0  0  0  0  0  0
    2.7275   -0.0445   -4.2955 H   0  0  0  0  0  0  0  0  0  0  0  0
  1  2  2  0
  1  6  1  0
  1 20  1  0
  2  3  1  0
  2 15  1  0
  3  4  2  0
  3  7  1  0
  4  5  1  0
  4 10  1  0
  5  6  2  0
  5 21  1  0
  6 22  1  0
  7  9  1  0
  8  9  1  0
  8 13  2  0
  8 18  1  0
  9 10  2  0
 10 11  1  0
 11 12  2  0
 11 23  1  0
 12 13  1  0
 12 24  1  0
 13 25  1  0
 14 15  2  0
 15 16  1  0
 16 26  1  0
 17 18  1  0
 17 27  1  0
 18 19  2  0
M  END
