
     RDKit          3D

 33 35  0  0  0  0  0  0  0  0999 V2000
   -5.3030    0.5048   -0.0240 C   0  0  0  0  0  0  0  0  0  0  0  0
   -4.8274   -0.7947   -0.1385 C   0  0  0  0  0  0  0  0  0  0  0  0
   -4.4048    1.5535    0.1298 C   0  0  0  0  0  0  0  0  0  0  0  0
   -3.4642   -1.0473   -0.1024 C   0  0  0  0  0  0  0  0  0  0  0  0
   -3.0423    1.3037    0.1732 C   0  0  0  0  0  0  0  0  0  0  0  0
   -0.0491    0.5754   -0.2214 C   0  0  0  0  0  0  0  0  0  0  0  0
   -2.5554    0.0012    0.0562 C   0  0  0  0  0  0  0  0  0  0  0  0
   -1.1159   -0.2399    0.1018 C   0  0  0  0  0  0  0  0  0  0  0  0
    1.0951   -0.2110    0.0104 C   0  0  0  0  0  0  0  0  0  0  0  0
    4.8747   -0.3161   -0.1044 C   0  0  0  0  0  0  0  0  0  0  0  0
    4.6258    0.7504    0.9865 C   0  0  0  0  0  0  0  0  0  0  0  0
    3.5064   -0.9491   -0.3614 C   0  0  0  0  0  0  0  0  0  0  0  0
    3.0964    0.8594    1.1233 C   0  0  0  0  0  0  0  0  0  0  0  0
    2.5307    0.2061   -0.1458 C   0  0  2  0  0  0  0  0  0  0  0  0
   -0.5709   -1.4113    0.4852 N   0  0  0  0  0  0  0  0  0  0  0  0
    0.7560   -1.4134    0.4402 N   0  0  0  0  0  0  0  0  0  0  0  0
    2.6645    1.0756   -1.2562 O   0  0  0  0  0  0  0  0  0  0  0  0
   -6.3671    0.6987   -0.0549 H   0  0  0  0  0  0  0  0  0  0  0  0
   -5.5199   -1.6165   -0.2647 H   0  0  0  0  0  0  0  0  0  0  0  0
   -4.7663    2.5693    0.2239 H   0  0  0  0  0  0  0  0  0  0  0  0
   -3.1128   -2.0659   -0.2181 H   0  0  0  0  0  0  0  0  0  0  0  0
   -2.3504    2.1250    0.3113 H   0  0  0  0  0  0  0  0  0  0  0  0
   -1.0568   -2.2273    0.8225 H   0  0  0  0  0  0  0  0  0  0  0  0
    5.2502    0.1495   -1.0156 H   0  0  0  0  0  0  0  0  0  0  0  0
    5.6138   -1.0578    0.1987 H   0  0  0  0  0  0  0  0  0  0  0  0
    5.0723    0.4579    1.9375 H   0  0  0  0  0  0  0  0  0  0  0  0
    5.0757    1.7052    0.7127 H   0  0  0  0  0  0  0  0  0  0  0  0
    3.4122   -1.3977   -1.3526 H   0  0  0  0  0  0  0  0  0  0  0  0
    3.2938   -1.7285    0.3720 H   0  0  0  0  0  0  0  0  0  0  0  0
    2.7474    0.3064    1.9973 H   0  0  0  0  0  0  0  0  0  0  0  0
    2.7415    1.8865    1.2468 H   0  0  0  0  0  0  0  0  0  0  0  0
    2.3857    1.9595   -0.9968 H   0  0  0  0  0  0  0  0  0  0  0  0
   -0.1047    1.5863   -0.5913 H   0  0  0  0  0  0  0  0  0  0  0  0
  1  2  2  0
  1  3  1  0
  2  4  1  0
  3  5  2  0
  4  7  2  0
  5  7  1  0
  6  8  2  0
  6  9  1  0
  7  8  1  0
  8 15  1  0
  9 14  1  0
  9 16  2  0
 10 11  1  0
 10 12  1  0
 11 13  1  0
 12 14  1  0
 13 14  1  0
 14 17  1  6
 15 16  1  0
  1 18  1  0
  2 19  1  0
  3 20  1  0
  4 21  1  0
  5 22  1  0
  6 33  1  0
 15 23  1  0
 10 24  1  0
 10 25  1  0
 11 26  1  0
 11 27  1  0
 12 28  1  0
 12 29  1  0
 13 30  1  0
 13 31  1  0
 17 32  1  0
M  END
