
     RDKit          3D

 54 56  0  0  0  0  0  0  0  0999 V2000
   -2.9456    0.8299    2.0601 C   0  0  0  0  0  0  0  0  0  0  0  0
   -3.9271    1.7782    1.7450 C   0  0  0  0  0  0  0  0  0  0  0  0
    4.9330   -0.5870   -1.3485 C   0  0  0  0  0  0  0  0  0  0  0  0
    6.2435   -0.9747   -1.2172 C   0  0  0  0  0  0  0  0  0  0  0  0
    6.0676    1.0667   -0.3447 C   0  0  0  0  0  0  0  0  0  0  0  0
   -3.2313   -0.3093   -0.0533 C   0  0  0  0  0  0  0  0  0  0  0  0
   -2.5906   -0.2048    1.2089 C   0  0  0  0  0  0  0  0  0  0  0  0
    4.8177    0.7169   -0.7939 C   0  0  0  0  0  0  0  0  0  0  0  0
   -4.5291    1.6568    0.5235 C   0  0  0  0  0  0  0  0  0  0  0  0
   -4.1812    0.6453   -0.3609 C   0  0  0  0  0  0  0  0  0  0  0  0
   -2.9565   -1.4182   -1.0019 C   0  0  0  0  0  0  0  0  0  0  0  0
    2.7244    1.0919    0.5067 C   0  0  0  0  0  0  0  0  0  0  0  0
   -5.9069    1.7576   -1.2095 C   0  0  0  0  0  0  0  0  0  0  0  0
    2.6656   -3.6876    0.6315 C   0  0  0  0  0  0  0  0  0  0  0  0
    1.5157   -2.5537   -1.2805 C   0  0  0  0  0  0  0  0  0  0  0  0
    3.5704    1.5307   -0.6786 C   0  0  0  0  0  0  0  0  0  0  0  0
   -1.4950   -1.1501    1.6272 C   0  0  0  0  0  0  0  0  0  0  0  0
    0.7059   -2.2151    1.0944 C   0  0  0  0  0  0  0  0  0  0  0  0
    0.4583    0.3406    1.1624 C   0  0  0  0  0  0  0  0  0  0  0  0
    1.9190   -2.4334    0.1854 C   0  0  1  0  0  0  0  0  0  0  0  0
   -0.1902   -1.0041    0.8211 C   0  0  2  0  0  0  0  0  0  0  0  0
    6.9158    0.0367   -0.6082 N   0  0  0  0  0  0  0  0  0  0  0  0
    1.4574    0.7629    0.2076 N   0  0  0  0  0  0  0  0  0  0  0  0
   -2.9572   -1.0067   -2.2623 O   0  0  0  0  0  0  0  0  0  0  0  0
   -2.7634   -2.5646   -0.6815 O   0  0  0  0  0  0  0  0  0  0  0  0
    3.1872    1.0476    1.6373 O   0  0  0  0  0  0  0  0  0  0  0  0
   -5.4900    2.4321   -0.0335 O   0  0  0  0  0  0  0  0  0  0  0  0
   -4.9271    0.7608   -1.4786 O   0  0  0  0  0  0  0  0  0  0  0  0
   -2.4441    0.9106    3.0157 H   0  0  0  0  0  0  0  0  0  0  0  0
   -4.1885    2.5654    2.4388 H   0  0  0  0  0  0  0  0  0  0  0  0
    6.7424   -1.8826   -1.5139 H   0  0  0  0  0  0  0  0  0  0  0  0
    6.4099    1.9682    0.1373 H   0  0  0  0  0  0  0  0  0  0  0  0
   -6.8801    1.2826   -1.0465 H   0  0  0  0  0  0  0  0  0  0  0  0
   -5.9553    2.4570   -2.0431 H   0  0  0  0  0  0  0  0  0  0  0  0
    3.5535   -3.8572    0.0196 H   0  0  0  0  0  0  0  0  0  0  0  0
    2.9900   -3.6111    1.6711 H   0  0  0  0  0  0  0  0  0  0  0  0
    2.0311   -4.5740    0.5479 H   0  0  0  0  0  0  0  0  0  0  0  0
    2.3736   -2.8195   -1.9015 H   0  0  0  0  0  0  0  0  0  0  0  0
    0.7586   -3.3313   -1.4143 H   0  0  0  0  0  0  0  0  0  0  0  0
    1.1055   -1.6254   -1.6789 H   0  0  0  0  0  0  0  0  0  0  0  0
    3.8245    2.5818   -0.5184 H   0  0  0  0  0  0  0  0  0  0  0  0
    2.9963    1.4907   -1.6079 H   0  0  0  0  0  0  0  0  0  0  0  0
   -1.2742   -0.9765    2.6845 H   0  0  0  0  0  0  0  0  0  0  0  0
   -1.8404   -2.1807    1.5586 H   0  0  0  0  0  0  0  0  0  0  0  0
    0.0819   -3.1135    1.0159 H   0  0  0  0  0  0  0  0  0  0  0  0
    1.0415   -2.1734    2.1373 H   0  0  0  0  0  0  0  0  0  0  0  0
   -0.3147    1.1131    1.2160 H   0  0  0  0  0  0  0  0  0  0  0  0
    0.9234    0.2904    2.1470 H   0  0  0  0  0  0  0  0  0  0  0  0
    2.6085   -1.5923    0.2845 H   0  0  0  0  0  0  0  0  0  0  0  0
   -0.4444   -0.9933   -0.2444 H   0  0  0  0  0  0  0  0  0  0  0  0
    1.1557    0.8591   -0.7483 H   0  0  0  0  0  0  0  0  0  0  0  0
   -2.8279   -1.7620   -2.8563 H   0  0  0  0  0  0  0  0  0  0  0  0
    7.8986    0.0300   -0.3945 H   0  0  0  0  0  0  0  0  0  0  0  0
    4.1418   -1.1695   -1.7956 H   0  0  0  0  0  0  0  0  0  0  0  0
  7  1  2  0
  1  2  1  0
  1 29  1  0
  9  2  2  0
  2 30  1  0
  4  3  2  0
  3  8  1  0
  3 54  1  0
  4 22  1  0
  4 31  1  0
 22  5  1  0
  5  8  2  0
  5 32  1  0
 11  6  1  0
  6  7  1  0
  6 10  2  0
 17  7  1  0
  8 16  1  0
 10  9  1  0
  9 27  1  0
 28 10  1  0
 25 11  2  0
 24 11  1  0
 16 12  1  0
 12 26  2  0
 12 23  1  0
 28 13  1  0
 13 27  1  0
 13 33  1  0
 13 34  1  0
 20 14  1  0
 14 35  1  0
 14 36  1  0
 14 37  1  0
 15 20  1  0
 15 38  1  0
 15 39  1  0
 15 40  1  0
 16 41  1  0
 16 42  1  0
 17 21  1  0
 17 43  1  0
 17 44  1  0
 20 18  1  0
 18 21  1  0
 18 45  1  0
 18 46  1  0
 23 19  1  0
 21 19  1  0
 19 47  1  0
 19 48  1  0
 20 49  1  6
 21 50  1  6
 23 51  1  0
 24 52  1  0
 22 53  1  0
M  END
