
     RDKit          3D

 38 40  0  0  0  0  0  0  0  0999 V2000
   -3.7889    1.2087    0.9474 C   0  0  0  0  0  0  0  0  0  0  0  0
   -5.5955   -0.6229   -0.0549 C   0  0  0  0  0  0  0  0  0  0  0  0
   -4.2313   -0.8674   -0.2156 C   0  0  0  0  0  0  0  0  0  0  0  0
    0.3660    0.5673   -0.1939 C   0  0  0  0  0  0  0  0  0  0  0  0
   -5.1456    1.4328    1.0883 C   0  0  0  0  0  0  0  0  0  0  0  0
   -3.3260    0.0720    0.2817 C   0  0  0  0  0  0  0  0  0  0  0  0
   -1.5583   -1.5807    0.1025 C   0  0  0  0  0  0  0  0  0  0  0  0
   -2.2775   -2.2272   -1.0685 C   0  0  0  0  0  0  0  0  0  0  0  0
   -3.7829   -2.1536   -0.8595 C   0  0  0  0  0  0  0  0  0  0  0  0
    5.2668    0.4414    1.4502 O   0  0  0  0  0  0  0  0  0  0  0  0
    5.4761    0.7979   -1.0346 O   0  0  0  0  0  0  0  0  0  0  0  0
    5.1931   -1.4866   -0.1098 N   0  0  0  0  0  0  0  0  0  0  0  0
    3.1106    0.3129   -0.0198 C   0  0  0  0  0  0  0  0  0  0  0  0
    2.3319    0.0716    1.1045 C   0  0  0  0  0  0  0  0  0  0  0  0
    0.9561    0.1891    1.0090 C   0  0  0  0  0  0  0  0  0  0  0  0
    2.5378    0.6922   -1.2251 C   0  0  0  0  0  0  0  0  0  0  0  0
    1.1617    0.8357   -1.3017 C   0  0  0  0  0  0  0  0  0  0  0  0
   -1.9322   -0.1680    0.1678 N   0  0  0  0  0  0  0  0  0  0  0  0
   -6.0586    0.5161    0.5778 C   0  0  0  0  0  0  0  0  0  0  0  0
   -3.0881    1.9135    1.3729 H   0  0  0  0  0  0  0  0  0  0  0  0
   -6.3024   -1.3500   -0.4383 H   0  0  0  0  0  0  0  0  0  0  0  0
   -5.4904    2.3190    1.6045 H   0  0  0  0  0  0  0  0  0  0  0  0
   -1.8330   -2.0620    1.0438 H   0  0  0  0  0  0  0  0  0  0  0  0
   -0.4827   -1.6759   -0.0116 H   0  0  0  0  0  0  0  0  0  0  0  0
   -1.9841   -1.7150   -1.9881 H   0  0  0  0  0  0  0  0  0  0  0  0
   -1.9618   -3.2664   -1.1683 H   0  0  0  0  0  0  0  0  0  0  0  0
   -4.0992   -2.9798   -0.2158 H   0  0  0  0  0  0  0  0  0  0  0  0
   -4.3082   -2.2966   -1.8063 H   0  0  0  0  0  0  0  0  0  0  0  0
    4.8216   -2.0834    0.6205 H   0  0  0  0  0  0  0  0  0  0  0  0
    4.9678   -1.8423   -1.0321 H   0  0  0  0  0  0  0  0  0  0  0  0
    2.7794   -0.2050    2.0495 H   0  0  0  0  0  0  0  0  0  0  0  0
    0.3462   -0.0028    1.8825 H   0  0  0  0  0  0  0  0  0  0  0  0
    3.1469    0.8895   -2.0963 H   0  0  0  0  0  0  0  0  0  0  0  0
    0.7122    1.1500   -2.2341 H   0  0  0  0  0  0  0  0  0  0  0  0
   -7.1220    0.6851    0.6859 H   0  0  0  0  0  0  0  0  0  0  0  0
   -1.1069    0.8210   -0.2774 C   0  0  0  0  0  0  0  0  0  0  0  0
    4.8721    0.1093    0.0925 S   0  0  1  0  0  0  0  0  0  0  0  0
   -1.4999    1.8967   -0.6907 O   0  0  0  0  0  0  0  0  0  0  0  0
  9  8  1  0
  9  3  1  0
  8  7  1  0
  3  2  2  0
  3  6  1  0
  2 19  1  0
 18  7  1  0
 18  6  1  0
 18 36  1  0
  6  1  2  0
 19  5  2  0
 38 36  2  0
 36  4  1  0
  1  5  1  0
  4 17  2  0
  4 15  1  0
 17 16  1  0
 15 14  2  0
 16 13  2  0
 14 13  1  0
 13 37  1  0
 37 12  1  6
 10 37  2  0
 37 11  2  0
  1 20  1  0
  2 21  1  0
  5 22  1  0
  7 23  1  0
  7 24  1  0
  8 25  1  0
  8 26  1  0
  9 27  1  0
  9 28  1  0
 12 29  1  0
 12 30  1  0
 14 31  1  0
 15 32  1  0
 16 33  1  0
 17 34  1  0
 19 35  1  0
M  END
