
     RDKit          3D

 16 16  0  0  0  0  0  0  0  0999 V2000
   -0.5834    1.3416   -0.0240 C   0  0  0  0  0  0  0  0  0  0  0  0
   -0.8074   -0.1561    0.3110 C   0  0  1  0  0  0  0  0  0  0  0  0
    0.4315   -1.0038    0.2946 C   0  0  0  0  0  0  0  0  0  0  0  0
    1.6051   -0.4603    0.0073 C   0  0  0  0  0  0  0  0  0  0  0  0
    1.7989    0.9401   -0.3162 C   0  0  0  0  0  0  0  0  0  0  0  0
    0.7688    1.7942   -0.3321 C   0  0  0  0  0  0  0  0  0  0  0  0
   -1.4085   -0.1656    1.5539 O   0  0  0  0  0  0  0  0  0  0  0  0
   -1.6948   -0.5346   -0.7234 O   0  0  0  0  0  0  0  0  0  0  0  0
   -2.0556   -1.8840   -0.5524 O   0  0  0  0  0  0  0  0  0  0  0  0
   -1.5377    2.0819   -0.0109 O   0  0  0  0  0  0  0  0  0  0  0  0
    2.7230   -1.1955    0.0027 F   0  0  0  0  0  0  0  0  0  0  0  0
    0.3537   -2.0562    0.5411 H   0  0  0  0  0  0  0  0  0  0  0  0
    2.8027    1.2776   -0.5419 H   0  0  0  0  0  0  0  0  0  0  0  0
    0.9094    2.8412   -0.5646 H   0  0  0  0  0  0  0  0  0  0  0  0
   -1.3674   -1.0499    1.9389 H   0  0  0  0  0  0  0  0  0  0  0  0
   -1.5496   -2.3285   -1.2483 H   0  0  0  0  0  0  0  0  0  0  0  0
  9  8  1  0
  2  8  1  6
 11  4  1  0
  3  2  1  0
  3  4  2  0
  2  7  1  0
  2  1  1  0
  4  5  1  0
  1 10  2  0
  1  6  1  0
  5  6  2  0
  3 12  1  0
  5 13  1  0
  6 14  1  0
  7 15  1  0
  9 16  1  0
M  END
