
     RDKit          3D

 51 53  0  0  0  0  0  0  0  0999 V2000
   -5.6681   -0.9814   -0.2707 N   0  0  0  0  0  0  0  0  0  0  0  0
   -5.7153    0.9584    0.6118 C   0  0  0  0  0  0  0  0  0  0  0  0
   -6.4782   -0.0016    0.1678 N   0  0  0  0  0  0  0  0  0  0  0  0
   -3.4842   -2.7355   -0.8931 C   0  0  0  0  0  0  0  0  0  0  0  0
   -3.2784   -1.4290   -0.4618 C   0  0  0  0  0  0  0  0  0  0  0  0
   -1.1127   -2.9157   -1.1745 C   0  0  0  0  0  0  0  0  0  0  0  0
    3.1109   -0.4429    0.2642 C   0  0  0  0  0  0  0  0  0  0  0  0
    7.8275   -1.3274    1.1996 C   0  0  0  0  0  0  0  0  0  0  0  0
   -2.3728   -3.4776   -1.2607 C   0  0  0  0  0  0  0  0  0  0  0  0
    1.4925    3.7274   -1.4264 C   0  0  0  0  0  0  0  0  0  0  0  0
    3.6712    2.0831   -0.7321 C   0  0  0  0  0  0  0  0  0  0  0  0
    5.5069   -1.0096    0.5289 C   0  0  0  0  0  0  0  0  0  0  0  0
   -2.8688    2.3539   -0.3425 C   0  0  0  0  0  0  0  0  0  0  0  0
   -3.6072    2.3361    2.0710 C   0  0  0  0  0  0  0  0  0  0  0  0
   -4.4112    0.6360    0.4837 N   0  0  0  0  0  0  0  0  0  0  0  0
   -4.4279   -0.6001   -0.0869 C   0  0  0  0  0  0  0  0  0  0  0  0
   -1.0194   -1.5981   -0.7276 C   0  0  0  0  0  0  0  0  0  0  0  0
   -2.0722   -0.8774   -0.3975 N   0  0  0  0  0  0  0  0  0  0  0  0
    0.6503   -0.0020    0.1649 C   0  0  0  0  0  0  0  0  0  0  0  0
   -0.0215    0.5054    1.0347 O   0  0  0  0  0  0  0  0  0  0  0  0
    2.0739    0.4069   -0.0678 C   0  0  0  0  0  0  0  0  0  0  0  0
    4.4405   -0.0416    0.1398 C   0  0  0  0  0  0  0  0  0  0  0  0
    4.6990    1.2247   -0.3717 C   0  0  0  0  0  0  0  0  0  0  0  0
    2.3464    1.6865   -0.5721 C   0  0  0  0  0  0  0  0  0  0  0  0
    1.2850    2.4331   -0.8882 O   0  0  0  0  0  0  0  0  0  0  0  0
    5.2792   -2.2126    0.5837 O   0  0  0  0  0  0  0  0  0  0  0  0
    6.7121   -0.4955    0.8142 N   0  0  0  0  0  0  0  0  0  0  0  0
   -6.0643    1.8875    1.0320 H   0  0  0  0  0  0  0  0  0  0  0  0
   -4.4788   -3.1531   -0.9439 H   0  0  0  0  0  0  0  0  0  0  0  0
   -0.2267   -3.4777   -1.4384 H   0  0  0  0  0  0  0  0  0  0  0  0
    2.8860   -1.4306    0.6475 H   0  0  0  0  0  0  0  0  0  0  0  0
    8.7146   -0.7038    1.2633 H   0  0  0  0  0  0  0  0  0  0  0  0
    7.6699   -1.8028    2.1694 H   0  0  0  0  0  0  0  0  0  0  0  0
    8.0090   -2.1080    0.4621 H   0  0  0  0  0  0  0  0  0  0  0  0
   -2.4891   -4.4969   -1.6033 H   0  0  0  0  0  0  0  0  0  0  0  0
    0.9403   -1.3922   -1.2797 H   0  0  0  0  0  0  0  0  0  0  0  0
    2.0324    3.6886   -2.3752 H   0  0  0  0  0  0  0  0  0  0  0  0
    0.5055    4.1478   -1.5989 H   0  0  0  0  0  0  0  0  0  0  0  0
    2.0358    4.3715   -0.7314 H   0  0  0  0  0  0  0  0  0  0  0  0
    3.9232    3.0512   -1.1414 H   0  0  0  0  0  0  0  0  0  0  0  0
   -3.6481    3.0752   -0.5941 H   0  0  0  0  0  0  0  0  0  0  0  0
   -1.9570    2.9013   -0.1047 H   0  0  0  0  0  0  0  0  0  0  0  0
   -2.6651    1.7381   -1.2171 H   0  0  0  0  0  0  0  0  0  0  0  0
   -2.4520    0.8332    1.0866 H   0  0  0  0  0  0  0  0  0  0  0  0
   -2.7047    2.8541    2.3933 H   0  0  0  0  0  0  0  0  0  0  0  0
   -4.3614    3.0971    1.8664 H   0  0  0  0  0  0  0  0  0  0  0  0
   -3.9513    1.7195    2.9018 H   0  0  0  0  0  0  0  0  0  0  0  0
    5.7146    1.5655   -0.5283 H   0  0  0  0  0  0  0  0  0  0  0  0
    6.8258    0.5005    0.8909 H   0  0  0  0  0  0  0  0  0  0  0  0
    0.2391   -0.9958   -0.6720 N   0  0  0  0  0  0  0  0  0  0  0  0
   -3.2744    1.4987    0.8475 C   0  0  1  0  0  0  0  0  0  0  0  0
 13 51  1  0
 10 25  1  0
 51 15  1  0
 51 14  1  0
  2 15  1  0
  2  3  2  0
 15 16  1  0
 25 24  1  0
 11 24  2  0
 11 23  1  0
  3  1  1  0
 24 21  1  0
 16  1  2  0
 16  5  1  0
 23 22  2  0
  5 18  1  0
  5  4  2  0
 18 17  2  0
 21 19  1  0
 21  7  2  0
 50 17  1  0
 50 19  1  0
  4  9  1  0
 17  6  1  0
 19 20  2  0
 27  8  1  0
 27 12  1  0
 22  7  1  0
 22 12  1  0
  9  6  2  0
 12 26  2  0
  2 28  1  0
  4 29  1  0
  6 30  1  0
  7 31  1  0
  8 32  1  0
  8 33  1  0
  8 34  1  0
  9 35  1  0
 50 36  1  0
 10 37  1  0
 10 38  1  0
 10 39  1  0
 11 40  1  0
 13 41  1  0
 13 42  1  0
 13 43  1  0
 51 44  1  1
 14 45  1  0
 14 46  1  0
 14 47  1  0
 23 48  1  0
 27 49  1  0
M  END
