
     RDKit          3D

 45 47  0  0  0  0  0  0  0  0999 V2000
   29.1789    0.3530   52.2344 C   0  0  0  0  0  0  0  0  0  0  0  0
   28.5510   -0.8575   51.9992 C   0  0  0  0  0  0  0  0  0  0  0  0
   28.0503   -1.1238   50.7330 C   0  0  0  0  0  0  0  0  0  0  0  0
   28.2018   -0.2010   49.7041 C   0  0  0  0  0  0  0  0  0  0  0  0
   28.8480    0.9980   49.9436 C   0  0  0  0  0  0  0  0  0  0  0  0
   29.3305    1.2954   51.2216 C   0  0  0  0  0  0  0  0  0  0  0  0
   29.8812    2.6402   51.5008 C   0  0  0  0  0  0  0  0  0  0  0  0
   30.6126    2.6850   52.6023 O   0  0  0  0  0  0  0  0  0  0  0  0
   29.6640    3.6013   50.8016 O   0  0  0  0  0  0  0  0  0  0  0  0
   29.0141    1.9147   48.7724 C   0  0  0  0  0  0  0  0  0  0  0  0
   30.2902    2.0789   48.4640 O   0  0  0  0  0  0  0  0  0  0  0  0
   28.0928    2.3596   48.1414 O   0  0  0  0  0  0  0  0  0  0  0  0
   27.4043   -2.2809   50.4244 O   0  0  0  0  0  0  0  0  0  0  0  0
   26.6431   -2.8864   51.3927 C   0  0  0  0  0  0  0  0  0  0  0  0
   25.5577   -2.2069   51.9521 C   0  0  0  0  0  0  0  0  0  0  0  0
   24.7815   -2.8435   52.9091 C   0  0  0  0  0  0  0  0  0  0  0  0
   25.0751   -4.1445   53.2923 C   0  0  0  0  0  0  0  0  0  0  0  0
   26.1398   -4.8186   52.7105 C   0  0  0  0  0  0  0  0  0  0  0  0
   26.9297   -4.1897   51.7580 C   0  0  0  0  0  0  0  0  0  0  0  0
   25.2904   -0.8901   51.5267 N   0  0  0  0  0  0  0  0  0  0  0  0
   25.5053    0.1829   52.3334 C   0  0  0  0  0  0  0  0  0  0  0  0
   25.6869    0.0823   53.5304 O   0  0  0  0  0  0  0  0  0  0  0  0
   25.5706    1.5035   51.6375 C   0  0  0  0  0  0  0  0  0  0  0  0
   26.3301    2.4945   52.2451 C   0  0  0  0  0  0  0  0  0  0  0  0
   26.4736    3.7141   51.6086 C   0  0  0  0  0  0  0  0  0  0  0  0
   25.8672    3.9832   50.3913 C   0  0  0  0  0  0  0  0  0  0  0  0
   25.0917    2.9976   49.8074 C   0  0  0  0  0  0  0  0  0  0  0  0
   24.9432    1.7645   50.4223 C   0  0  0  0  0  0  0  0  0  0  0  0
   27.2794    4.7469   52.2436 N   0  0  0  0  0  0  0  0  0  0  0  0
   27.8339    4.4745   53.2826 O   0  0  0  0  0  0  0  0  0  0  0  0
   27.3490    5.8239   51.7036 O   0  0  0  0  0  0  0  0  0  0  0  0
   29.5336    0.5629   53.2338 H   0  0  0  0  0  0  0  0  0  0  0  0
   28.4450   -1.5728   52.8039 H   0  0  0  0  0  0  0  0  0  0  0  0
   27.8166   -0.4345   48.7194 H   0  0  0  0  0  0  0  0  0  0  0  0
   30.9128    3.5917   52.7661 H   0  0  0  0  0  0  0  0  0  0  0  0
   30.3766    2.6682   47.6987 H   0  0  0  0  0  0  0  0  0  0  0  0
   23.9361   -2.3227   53.3380 H   0  0  0  0  0  0  0  0  0  0  0  0
   24.4626   -4.6356   54.0361 H   0  0  0  0  0  0  0  0  0  0  0  0
   26.3636   -5.8360   53.0012 H   0  0  0  0  0  0  0  0  0  0  0  0
   27.7670   -4.7031   51.3033 H   0  0  0  0  0  0  0  0  0  0  0  0
   25.2712   -0.7410   50.5292 H   0  0  0  0  0  0  0  0  0  0  0  0
   26.8024    2.2983   53.1966 H   0  0  0  0  0  0  0  0  0  0  0  0
   25.9888    4.9383   49.9024 H   0  0  0  0  0  0  0  0  0  0  0  0
   24.6017    3.1921   48.8643 H   0  0  0  0  0  0  0  0  0  0  0  0
   24.3147    1.0228   49.9458 H   0  0  0  0  0  0  0  0  0  0  0  0
  1  2  2  0
  1  6  1  0
  1 32  1  0
  2  3  1  0
  2 33  1  0
  3  4  2  0
  3 13  1  0
  4  5  1  0
  4 34  1  0
  5  6  2  0
  5 10  1  0
  6  7  1  0
  7  8  1  0
  7  9  2  0
  8 35  1  0
 10 11  1  0
 10 12  2  0
 11 36  1  0
 13 14  1  0
 14 15  1  0
 14 19  2  0
 15 16  2  0
 15 20  1  0
 16 17  1  0
 16 37  1  0
 17 18  2  0
 17 38  1  0
 18 19  1  0
 18 39  1  0
 19 40  1  0
 20 21  1  0
 20 41  1  0
 21 22  2  0
 21 23  1  0
 23 24  2  0
 23 28  1  0
 24 25  1  0
 24 42  1  0
 25 26  2  0
 25 29  1  0
 26 27  1  0
 26 43  1  0
 27 28  2  0
 27 44  1  0
 28 45  1  0
 29 30  1  0
 29 31  2  0
M  CHG  2  29   1  30  -1
M  END
