
     RDKit          3D

 22 22  0  0  0  0  0  0  0  0999 V2000
   -3.2998    0.1804   -0.0015 C   0  0  0  0  0  0  0  0  0  0  0  0
   -1.7336   -1.6287   -0.0170 C   0  0  0  0  0  0  0  0  0  0  0  0
    4.2104    1.7933    0.0784 O   0  0  0  0  0  0  0  0  0  0  0  0
    4.4774    0.6191    0.0403 C   0  0  0  0  0  0  0  0  0  0  0  0
    5.7176    0.1480    0.0485 O   0  0  0  0  0  0  0  0  0  0  0  0
    3.4665   -0.4939   -0.0238 C   0  0  0  0  0  0  0  0  0  0  0  0
    2.0399    0.0291   -0.0266 C   0  0  0  0  0  0  0  0  0  0  0  0
    0.9452   -1.4108   -0.1285 S   0  0  0  0  0  0  0  0  0  0  0  0
   -0.6715   -0.7232   -0.0714 C   0  0  0  0  0  0  0  0  0  0  0  0
   -0.9486    0.6408   -0.0888 C   0  0  0  0  0  0  0  0  0  0  0  0
   -2.2610    1.0927   -0.0521 C   0  0  0  0  0  0  0  0  0  0  0  0
   -4.9385    0.7437    0.0415 Cl  0  0  0  0  0  0  0  0  0  0  0  0
   -3.0427   -1.1832    0.0161 C   0  0  0  0  0  0  0  0  0  0  0  0
   -1.5433   -2.6948    0.0024 H   0  0  0  0  0  0  0  0  0  0  0  0
    6.3515    0.8796    0.0909 H   0  0  0  0  0  0  0  0  0  0  0  0
    3.6649   -1.0869   -0.9212 H   0  0  0  0  0  0  0  0  0  0  0  0
    3.6336   -1.1634    0.8245 H   0  0  0  0  0  0  0  0  0  0  0  0
    1.8295    0.5845    0.8875 H   0  0  0  0  0  0  0  0  0  0  0  0
    1.8731    0.6858   -0.8804 H   0  0  0  0  0  0  0  0  0  0  0  0
   -0.1577    1.3752   -0.1326 H   0  0  0  0  0  0  0  0  0  0  0  0
   -2.4598    2.1559   -0.0656 H   0  0  0  0  0  0  0  0  0  0  0  0
   -3.8535   -1.8975    0.0577 H   0  0  0  0  0  0  0  0  0  0  0  0
 12  1  1  0
 11  1  2  0
 11 10  1  0
  1 13  1  0
 10  9  2  0
 13  2  2  0
  3  4  2  0
  9  2  1  0
  9  8  1  0
  4  5  1  0
  4  6  1  0
  7  6  1  0
  7  8  1  0
  2 14  1  0
  5 15  1  0
  6 16  1  0
  6 17  1  0
  7 18  1  0
  7 19  1  0
 10 20  1  0
 11 21  1  0
 13 22  1  0
M  END
