
     RDKit          3D

 18 18  0  0  0  0  0  0  0  0999 V2000
    1.2146   -0.2940    0.0165 C   0  0  0  0  0  0  0  0  0  0  0  0
   -0.0043   -0.9680    0.0157 C   0  0  0  0  0  0  0  0  0  0  0  0
   -1.2226   -0.2929   -0.0185 C   0  0  0  0  0  0  0  0  0  0  0  0
   -1.2071    1.0994   -0.0590 C   0  0  0  0  0  0  0  0  0  0  0  0
   -0.0021    1.7882   -0.0540 C   0  0  0  0  0  0  0  0  0  0  0  0
    1.2017    1.0989   -0.0147 C   0  0  0  0  0  0  0  0  0  0  0  0
   -2.5193   -1.0493    0.0165 C   0  0  0  0  0  0  0  0  0  0  0  0
    2.5106   -1.0526    0.0209 C   0  0  0  0  0  0  0  0  0  0  0  0
   -0.0053   -2.0530    0.0421 H   0  0  0  0  0  0  0  0  0  0  0  0
   -2.1405    1.6492   -0.0922 H   0  0  0  0  0  0  0  0  0  0  0  0
   -0.0015    2.8706   -0.0820 H   0  0  0  0  0  0  0  0  0  0  0  0
    2.1362    1.6481   -0.0094 H   0  0  0  0  0  0  0  0  0  0  0  0
   -2.8674   -1.1780    1.0439 H   0  0  0  0  0  0  0  0  0  0  0  0
   -3.3056   -0.5252   -0.5262 H   0  0  0  0  0  0  0  0  0  0  0  0
   -2.4156   -2.0444   -0.4157 H   0  0  0  0  0  0  0  0  0  0  0  0
    2.8980   -1.1695   -0.9937 H   0  0  0  0  0  0  0  0  0  0  0  0
    3.2761   -0.5369    0.6004 H   0  0  0  0  0  0  0  0  0  0  0  0
    2.3884   -2.0523    0.4371 H   0  0  0  0  0  0  0  0  0  0  0  0
  8  1  1  0
  6  1  2  0
  6  5  1  0
  1  2  1  0
  5  4  2  0
  2  3  2  0
  4  3  1  0
  3  7  1  0
  2  9  1  0
  4 10  1  0
  5 11  1  0
  6 12  1  0
  7 13  1  0
  7 14  1  0
  7 15  1  0
  8 16  1  0
  8 17  1  0
  8 18  1  0
M  END
