
     RDKit          3D

 77 81  0  0  0  0  0  0  0  0999 V2000
   -5.9409   -0.8304    0.6345 C   0  0  0  0  0  0  0  0  0  0  0  0
   -5.0290    0.2259    0.6231 C   0  0  0  0  0  0  0  0  0  0  0  0
   -3.6878   -0.0101    0.3801 C   0  0  0  0  0  0  0  0  0  0  0  0
   -3.2374   -1.3260    0.1318 C   0  0  0  0  0  0  0  0  0  0  0  0
   -4.1543   -2.3699    0.1490 C   0  0  0  0  0  0  0  0  0  0  0  0
   -5.4947   -2.1225    0.4165 C   0  0  0  0  0  0  0  0  0  0  0  0
   -7.3731   -0.5934    0.9942 C   0  0  0  0  0  0  0  0  0  0  0  0
   -7.6503    0.8968   -0.9783 C   0  0  0  0  0  0  0  0  0  0  0  0
   -8.6928    0.5129   -2.0164 C   0  0  0  0  0  0  0  0  0  0  0  0
  -10.3857    0.4018   -0.3424 C   0  0  0  0  0  0  0  0  0  0  0  0
   -7.8825   -1.2465    1.8961 O   0  0  0  0  0  0  0  0  0  0  0  0
   -8.0297    0.3796    0.3261 N   0  0  0  0  0  0  0  0  0  0  0  0
   -2.7280    0.9307    0.3375 O   0  0  0  0  0  0  0  0  0  0  0  0
   -1.8748   -1.4595   -0.1124 N   0  0  0  0  0  0  0  0  0  0  0  0
  -10.0115    0.9635   -1.6249 N   0  0  0  0  0  0  0  0  0  0  0  0
   -9.3692    0.7814    0.7197 C   0  0  0  0  0  0  0  0  0  0  0  0
  -10.9975    0.6808   -2.6425 C   0  0  0  0  0  0  0  0  0  0  0  0
   -1.1451   -2.5707   -0.3566 C   0  0  0  0  0  0  0  0  0  0  0  0
    0.2957   -2.2625   -0.5402 C   0  0  0  0  0  0  0  0  0  0  0  0
   -1.5719   -3.7102   -0.4232 O   0  0  0  0  0  0  0  0  0  0  0  0
    2.7751   -2.4193   -0.9046 S   0  0  0  0  0  0  0  0  0  0  0  0
    1.2621   -3.1926   -0.7704 C   0  0  0  0  0  0  0  0  0  0  0  0
    2.0114   -0.8846   -0.6311 C   0  0  0  0  0  0  0  0  0  0  0  0
    0.7309   -0.9756   -0.4667 N   0  0  0  0  0  0  0  0  0  0  0  0
    2.7479    0.3789   -0.6025 C   0  0  0  0  0  0  0  0  0  0  0  0
   -2.9953    2.2936    0.6914 C   0  0  1  0  0  0  0  0  0  0  0  0
   -3.1154    2.4469    2.1976 C   0  0  0  0  0  0  0  0  0  0  0  0
   -1.8472    3.1031    0.1241 C   0  0  0  0  0  0  0  0  0  0  0  0
    2.0391    1.5711   -0.7293 C   0  0  0  0  0  0  0  0  0  0  0  0
    2.7282    2.7709   -0.6823 C   0  0  0  0  0  0  0  0  0  0  0  0
    4.1011    2.7902   -0.5105 C   0  0  0  0  0  0  0  0  0  0  0  0
    4.8208    1.5976   -0.3878 C   0  0  0  0  0  0  0  0  0  0  0  0
    4.1313    0.3866   -0.4313 C   0  0  0  0  0  0  0  0  0  0  0  0
    6.1946    1.7165   -0.1986 N   0  0  0  0  0  0  0  0  0  0  0  0
    7.1428    0.7267   -0.2109 C   0  0  0  0  0  0  0  0  0  0  0  0
    8.4009    1.2116    0.0210 N   0  0  0  0  0  0  0  0  0  0  0  0
    6.8938   -0.4478   -0.4105 O   0  0  0  0  0  0  0  0  0  0  0  0
    9.5816    0.4662    0.1094 C   0  0  0  0  0  0  0  0  0  0  0  0
    9.7970   -0.7264   -0.5825 C   0  0  0  0  0  0  0  0  0  0  0  0
   11.0153   -1.3807   -0.4607 C   0  0  0  0  0  0  0  0  0  0  0  0
   12.0345   -0.8647    0.3267 C   0  0  0  0  0  0  0  0  0  0  0  0
   11.8233    0.3296    1.0026 C   0  0  0  0  0  0  0  0  0  0  0  0
   10.6082    0.9865    0.9001 C   0  0  0  0  0  0  0  0  0  0  0  0
   -5.3820    1.2301    0.8177 H   0  0  0  0  0  0  0  0  0  0  0  0
   -3.8306   -3.3804   -0.0390 H   0  0  0  0  0  0  0  0  0  0  0  0
   -6.1899   -2.9510    0.4370 H   0  0  0  0  0  0  0  0  0  0  0  0
   -7.5613    1.9857   -0.9250 H   0  0  0  0  0  0  0  0  0  0  0  0
   -8.4213    0.9779   -2.9671 H   0  0  0  0  0  0  0  0  0  0  0  0
   -8.6573   -0.5804   -2.1687 H   0  0  0  0  0  0  0  0  0  0  0  0
  -11.3620    0.7956   -0.0504 H   0  0  0  0  0  0  0  0  0  0  0  0
  -10.4786   -0.6976   -0.3830 H   0  0  0  0  0  0  0  0  0  0  0  0
   -1.3412   -0.5984   -0.0938 H   0  0  0  0  0  0  0  0  0  0  0  0
   -9.3739    1.8672    0.8545 H   0  0  0  0  0  0  0  0  0  0  0  0
   -9.6265    0.3246    1.6709 H   0  0  0  0  0  0  0  0  0  0  0  0
  -11.1242   -0.3950   -2.8383 H   0  0  0  0  0  0  0  0  0  0  0  0
  -11.9668    1.0823   -2.3437 H   0  0  0  0  0  0  0  0  0  0  0  0
  -10.7119    1.1592   -3.5806 H   0  0  0  0  0  0  0  0  0  0  0  0
    1.1600   -4.2620   -0.8637 H   0  0  0  0  0  0  0  0  0  0  0  0
   -3.9225    2.6154    0.2048 H   0  0  0  0  0  0  0  0  0  0  0  0
   -2.1794    2.1770    2.6887 H   0  0  0  0  0  0  0  0  0  0  0  0
   -3.3394    3.4852    2.4421 H   0  0  0  0  0  0  0  0  0  0  0  0
   -3.9119    1.8334    2.6189 H   0  0  0  0  0  0  0  0  0  0  0  0
   -1.7875    3.0015   -0.9595 H   0  0  0  0  0  0  0  0  0  0  0  0
   -1.9910    4.1580    0.3548 H   0  0  0  0  0  0  0  0  0  0  0  0
   -0.8955    2.7916    0.5584 H   0  0  0  0  0  0  0  0  0  0  0  0
    0.9674    1.5556   -0.8698 H   0  0  0  0  0  0  0  0  0  0  0  0
    2.1935    3.7059   -0.7830 H   0  0  0  0  0  0  0  0  0  0  0  0
    4.6229    3.7390   -0.4722 H   0  0  0  0  0  0  0  0  0  0  0  0
    4.6697   -0.5404   -0.3086 H   0  0  0  0  0  0  0  0  0  0  0  0
    6.5177    2.6649   -0.0845 H   0  0  0  0  0  0  0  0  0  0  0  0
    8.4848    2.1720    0.3180 H   0  0  0  0  0  0  0  0  0  0  0  0
    9.0347   -1.1454   -1.2195 H   0  0  0  0  0  0  0  0  0  0  0  0
   11.1664   -2.3059   -1.0019 H   0  0  0  0  0  0  0  0  0  0  0  0
   12.9811   -1.3822    0.4080 H   0  0  0  0  0  0  0  0  0  0  0  0
   12.6036    0.7531    1.6214 H   0  0  0  0  0  0  0  0  0  0  0  0
   10.4517    1.9130    1.4402 H   0  0  0  0  0  0  0  0  0  0  0  0
   -6.6864    0.4997   -1.2822 H   0  0  0  0  0  0  0  0  0  0  0  0
 11  7  2  0
  7 12  1  0
  7  1  1  0
  8 12  1  0
  8  9  1  0
 16 12  1  0
 16 10  1  0
 27 26  1  0
  2  1  2  0
  2  3  1  0
 13 26  1  0
 13  3  1  0
  1  6  1  0
 15  9  1  0
 15 10  1  0
 15 17  1  0
 28 26  1  0
  3  4  2  0
  6  5  2  0
  4  5  1  0
  4 14  1  0
 40 41  1  0
 40 39  2  0
 41 42  2  0
 14 18  1  0
 39 38  1  0
 42 43  1  0
 18 20  2  0
 18 19  1  0
 37 35  2  0
 38 43  2  0
 38 36  1  0
 24 19  1  0
 24 23  2  0
 19 22  2  0
 35 36  1  0
 35 34  1  0
 30 29  2  0
 30 31  1  0
 29 25  1  0
 31 32  2  0
 25 23  1  0
 25 33  2  0
 23 21  1  0
 32 33  1  0
 32 34  1  0
 22 21  1  0
  2 44  1  0
  5 45  1  0
  6 46  1  0
  8 77  1  0
  8 47  1  0
  9 48  1  0
  9 49  1  0
 10 50  1  0
 10 51  1  0
 14 52  1  0
 16 53  1  0
 16 54  1  0
 17 55  1  0
 17 56  1  0
 17 57  1  0
 22 58  1  0
 26 59  1  6
 27 60  1  0
 27 61  1  0
 27 62  1  0
 28 63  1  0
 28 64  1  0
 28 65  1  0
 29 66  1  0
 30 67  1  0
 31 68  1  0
 33 69  1  0
 34 70  1  0
 36 71  1  0
 39 72  1  0
 40 73  1  0
 41 74  1  0
 42 75  1  0
 43 76  1  0
M  END
