
     RDKit          3D

 21 22  0  0  0  0  0  0  0  0999 V2000
    2.4067   -1.8623   -0.0731 N   0  0  0  0  0  0  0  0  0  0  0  0
    1.8288   -0.6562   -0.0275 C   0  0  0  0  0  0  0  0  0  0  0  0
    0.4022   -0.5028   -0.0259 C   0  0  0  0  0  0  0  0  0  0  0  0
   -0.5230   -1.5614   -0.0746 C   0  0  0  0  0  0  0  0  0  0  0  0
    2.6233    0.3991   -0.0046 N   0  0  0  0  0  0  0  0  0  0  0  0
    2.0446    1.6047    0.0319 C   0  0  0  0  0  0  0  0  0  0  0  0
    0.7735    1.8880    0.0556 N   0  0  0  0  0  0  0  0  0  0  0  0
   -0.0709    0.8226    0.0253 C   0  0  0  0  0  0  0  0  0  0  0  0
   -1.4610    1.0535    0.0436 C   0  0  0  0  0  0  0  0  0  0  0  0
   -2.3588    0.0156    0.0033 C   0  0  0  0  0  0  0  0  0  0  0  0
   -3.8382    0.2549    0.0135 C   0  0  0  0  0  0  0  0  0  0  0  0
   -1.8674   -1.3062   -0.0602 C   0  0  0  0  0  0  0  0  0  0  0  0
    1.8991   -2.7143    0.0698 H   0  0  0  0  0  0  0  0  0  0  0  0
    3.4056   -1.9200    0.0136 H   0  0  0  0  0  0  0  0  0  0  0  0
   -0.1977   -2.5919   -0.1310 H   0  0  0  0  0  0  0  0  0  0  0  0
    2.7323    2.4444    0.0486 H   0  0  0  0  0  0  0  0  0  0  0  0
   -1.8004    2.0810    0.0917 H   0  0  0  0  0  0  0  0  0  0  0  0
   -4.2866   -0.0300   -0.9401 H   0  0  0  0  0  0  0  0  0  0  0  0
   -4.3274   -0.3385    0.7868 H   0  0  0  0  0  0  0  0  0  0  0  0
   -4.0779    1.3011    0.1942 H   0  0  0  0  0  0  0  0  0  0  0  0
   -2.5672   -2.1315   -0.0974 H   0  0  0  0  0  0  0  0  0  0  0  0
  7  6  2  0
  7  8  1  0
  6  5  1  0
  9  8  1  0
  9 10  2  0
 11 10  1  0
  8  3  2  0
 10 12  1  0
  5  2  2  0
  3  2  1  0
  3  4  1  0
  2  1  1  0
 12  4  2  0
  1 13  1  0
  1 14  1  0
  4 15  1  0
  6 16  1  0
  9 17  1  0
 11 18  1  0
 11 19  1  0
 11 20  1  0
 12 21  1  0
M  END
