
     RDKit          3D

 46 50  0  0  0  0  0  0  0  0999 V2000
   -1.2379   -0.0474   -1.3778 N   0  0  0  0  0  0  0  0  0  0  0  0
   -1.5886    0.4785   -0.2542 C   0  0  0  0  0  0  0  0  0  0  0  0
   -0.8930    0.1862    1.0636 C   0  0  2  0  0  0  0  0  0  0  0  0
    1.2764    0.3841    0.1717 C   0  0  0  0  0  0  0  0  0  0  0  0
    0.4071    0.8145    1.0050 N   0  0  0  0  0  0  0  0  0  0  0  0
    1.0816   -0.6943   -0.8073 C   0  0  0  0  0  0  0  0  0  0  0  0
   -0.1396   -0.8633   -1.4947 C   0  0  0  0  0  0  0  0  0  0  0  0
   -0.2239   -1.8923   -2.4489 C   0  0  0  0  0  0  0  0  0  0  0  0
    0.8265   -2.7530   -2.6763 C   0  0  0  0  0  0  0  0  0  0  0  0
    2.0253   -2.5988   -1.9786 C   0  0  0  0  0  0  0  0  0  0  0  0
    2.1466   -1.5650   -1.0754 C   0  0  0  0  0  0  0  0  0  0  0  0
    2.5996    1.0587    0.2117 C   0  0  0  0  0  0  0  0  0  0  0  0
   -2.5981    1.3417   -0.2235 N   0  0  0  0  0  0  0  0  0  0  0  0
   -3.3446    1.9306   -1.3173 C   0  0  0  0  0  0  0  0  0  0  0  0
   -4.1437    2.7398   -0.2795 C   0  0  1  0  0  0  0  0  0  0  0  0
   -3.2369    2.1285    0.8202 C   0  0  0  0  0  0  0  0  0  0  0  0
    3.3002    1.3372   -0.9615 C   0  0  0  0  0  0  0  0  0  0  0  0
    4.5086    2.0176   -0.9152 C   0  0  0  0  0  0  0  0  0  0  0  0
    5.0394    2.4127    0.3054 C   0  0  0  0  0  0  0  0  0  0  0  0
    4.3513    2.1320    1.4798 C   0  0  0  0  0  0  0  0  0  0  0  0
    3.1354    1.4679    1.4325 C   0  0  0  0  0  0  0  0  0  0  0  0
   -0.8684   -1.2823    1.4001 C   0  0  0  0  0  0  0  0  0  0  0  0
   -2.1691   -2.3164    0.9508 S   0  0  0  0  0  0  0  0  0  0  0  0
   -1.4828   -3.6505    1.7797 C   0  0  0  0  0  0  0  0  0  0  0  0
   -0.3062   -3.3122    2.3725 C   0  0  0  0  0  0  0  0  0  0  0  0
    0.0425   -1.9503    2.1604 C   0  0  0  0  0  0  0  0  0  0  0  0
   -4.0545    4.1144   -0.4848 O   0  0  0  0  0  0  0  0  0  0  0  0
   -1.4408    0.6856    1.8678 H   0  0  0  0  0  0  0  0  0  0  0  0
    3.0800   -1.4344   -0.5422 H   0  0  0  0  0  0  0  0  0  0  0  0
   -1.1516   -2.0002   -2.9968 H   0  0  0  0  0  0  0  0  0  0  0  0
    0.7203   -3.5491   -3.4023 H   0  0  0  0  0  0  0  0  0  0  0  0
    2.8532   -3.2734   -2.1508 H   0  0  0  0  0  0  0  0  0  0  0  0
    2.8943    1.0360   -1.9188 H   0  0  0  0  0  0  0  0  0  0  0  0
    2.6003    1.2521    2.3480 H   0  0  0  0  0  0  0  0  0  0  0  0
   -2.7287    2.5390   -1.9847 H   0  0  0  0  0  0  0  0  0  0  0  0
   -3.9150    1.2136   -1.9096 H   0  0  0  0  0  0  0  0  0  0  0  0
   -3.7473    1.5387    1.5832 H   0  0  0  0  0  0  0  0  0  0  0  0
   -2.5719    2.8506    1.3004 H   0  0  0  0  0  0  0  0  0  0  0  0
   -5.1801    2.4031   -0.1875 H   0  0  0  0  0  0  0  0  0  0  0  0
   -4.5805    4.5595    0.1871 H   0  0  0  0  0  0  0  0  0  0  0  0
    5.0356    2.2367   -1.8346 H   0  0  0  0  0  0  0  0  0  0  0  0
    5.9862    2.9361    0.3425 H   0  0  0  0  0  0  0  0  0  0  0  0
    4.7646    2.4286    2.4350 H   0  0  0  0  0  0  0  0  0  0  0  0
    0.9407   -1.4932    2.5506 H   0  0  0  0  0  0  0  0  0  0  0  0
   -1.9767   -4.6097    1.7718 H   0  0  0  0  0  0  0  0  0  0  0  0
    0.2953   -4.0066    2.9416 H   0  0  0  0  0  0  0  0  0  0  0  0
  1  2  2  0
  1  7  1  0
  2  3  1  0
  2 13  1  0
  3  5  1  0
  3 22  1  0
  4  5  2  0
  4  6  1  0
  4 12  1  0
  6  7  2  0
  6 11  1  0
  7  8  1  0
  8  9  2  0
  9 10  1  0
 10 11  2  0
 12 17  2  0
 12 21  1  0
 13 14  1  0
 13 16  1  0
 14 15  1  0
 15 16  1  0
 15 27  1  0
 17 18  1  0
 18 19  2  0
 19 20  1  0
 20 21  2  0
 22 23  1  0
 22 26  2  0
 23 24  1  0
 24 25  2  0
 25 26  1  0
  3 28  1  1
 11 29  1  0
  8 30  1  0
  9 31  1  0
 10 32  1  0
 17 33  1  0
 21 34  1  0
 14 35  1  0
 14 36  1  0
 16 37  1  0
 16 38  1  0
 15 39  1  1
 27 40  1  0
 18 41  1  0
 19 42  1  0
 20 43  1  0
 26 44  1  0
 24 45  1  0
 25 46  1  0
M  END
