
     RDKit          3D

 23 23  0  0  0  0  0  0  0  0999 V2000
   -0.9424   -0.7118   -1.2541 C   0  0  2  0  0  0  0  0  0  0  0  0
    0.5795   -0.7118   -1.2541 C   0  0  1  0  0  0  0  0  0  0  0  0
    1.1363   -0.7118    0.1207 C   0  0  2  0  0  0  0  0  0  0  0  0
    0.5713    0.3968    0.9562 C   0  0  2  0  0  0  0  0  0  0  0  0
   -0.9588    0.3973    0.9515 C   0  0  1  0  0  0  0  0  0  0  0  0
   -1.4467    1.6188    1.6740 C   0  0  0  0  0  0  0  0  0  0  0  0
   -1.3832   -0.5654   -2.5325 O   0  0  0  0  0  0  0  0  0  0  0  0
    1.0449   -1.8890   -1.9447 O   0  0  0  0  0  0  0  0  0  0  0  0
    2.5796   -0.5514    0.0421 O   0  0  0  0  0  0  0  0  0  0  0  0
    1.0346    1.6456    0.4401 O   0  0  0  0  0  0  0  0  0  0  0  0
   -1.5084    0.3993   -0.4131 O   0  0  0  0  0  0  0  0  0  0  0  0
   -1.2921   -1.6595   -0.8628 H   0  0  0  0  0  0  0  0  0  0  0  0
    0.9305    0.1708   -1.7750 H   0  0  0  0  0  0  0  0  0  0  0  0
    0.9066   -1.6594    0.5927 H   0  0  0  0  0  0  0  0  0  0  0  0
    0.9190    0.2801    1.9755 H   0  0  0  0  0  0  0  0  0  0  0  0
   -1.3104   -0.4872    1.4689 H   0  0  0  0  0  0  0  0  0  0  0  0
   -0.9151    1.7198    2.6124 H   0  0  0  0  0  0  0  0  0  0  0  0
   -1.2694    2.4951    1.0623 H   0  0  0  0  0  0  0  0  0  0  0  0
   -2.5081    1.5232    1.8689 H   0  0  0  0  0  0  0  0  0  0  0  0
   -2.2700   -0.8791   -2.5971 H   0  0  0  0  0  0  0  0  0  0  0  0
    1.4989   -1.6336   -2.7306 H   0  0  0  0  0  0  0  0  0  0  0  0
    2.9996   -1.2417    0.5281 H   0  0  0  0  0  0  0  0  0  0  0  0
    1.6039    2.0545    1.0707 H   0  0  0  0  0  0  0  0  0  0  0  0
  1  2  1  0
  1  7  1  0
  1 11  1  0
  1 12  1  1
  2  3  1  0
  2  8  1  0
  2 13  1  6
  3  4  1  0
  3  9  1  0
  3 14  1  1
  4  5  1  0
  4 10  1  0
  4 15  1  1
  5  6  1  0
  5 11  1  0
  5 16  1  1
  6 17  1  0
  6 18  1  0
  6 19  1  0
  7 20  1  0
  8 21  1  0
  9 22  1  0
 10 23  1  0
M  END
