
     RDKit          3D

 39 40  0  0  0  0  0  0  0  0999 V2000
   -4.0805   -0.3536   -0.2355 C   0  0  0  0  0  0  0  0  0  0  0  0
    4.3756   -3.5460    1.9422 Cl  0  0  0  0  0  0  0  0  0  0  0  0
   -4.6471   -1.6207    0.2048 N   0  0  0  0  0  0  0  0  0  0  0  0
   -4.0036   -2.6233    0.0206 O   0  0  0  0  0  0  0  0  0  0  0  0
   -5.7337   -1.5936    0.7295 O   0  0  0  0  0  0  0  0  0  0  0  0
   -2.9191   -0.3786   -0.9794 C   0  0  0  0  0  0  0  0  0  0  0  0
   -2.3475    0.8090   -1.4235 C   0  0  0  0  0  0  0  0  0  0  0  0
   -1.0891    0.7726   -2.2518 C   0  0  0  0  0  0  0  0  0  0  0  0
   -0.0582   -0.0338   -1.6471 N   0  0  0  0  0  0  0  0  0  0  0  0
    0.5316    0.3423   -0.4973 C   0  0  0  0  0  0  0  0  0  0  0  0
    1.5207   -0.6374    0.0473 C   0  0  0  0  0  0  0  0  0  0  0  0
    1.1374   -1.9480    0.2872 C   0  0  0  0  0  0  0  0  0  0  0  0
    1.9996   -2.8638    0.8741 C   0  0  0  0  0  0  0  0  0  0  0  0
    3.2699   -2.4359    1.2088 C   0  0  0  0  0  0  0  0  0  0  0  0
    3.6977   -1.1369    0.9718 C   0  0  0  0  0  0  0  0  0  0  0  0
    2.8185   -0.2310    0.3875 C   0  0  0  0  0  0  0  0  0  0  0  0
    3.1434    1.0353    0.0908 O   0  0  0  0  0  0  0  0  0  0  0  0
    4.4371    1.4861    0.3891 C   0  0  0  0  0  0  0  0  0  0  0  0
    4.5408    2.9178   -0.0780 C   0  0  0  0  0  0  0  0  0  0  0  0
    3.6685    3.5289   -0.6300 O   0  0  0  0  0  0  0  0  0  0  0  0
    5.7406    3.3989    0.2094 O   0  0  0  0  0  0  0  0  0  0  0  0
    0.2512    1.3794    0.0770 O   0  0  0  0  0  0  0  0  0  0  0  0
   -2.9592    2.0105   -1.1003 C   0  0  0  0  0  0  0  0  0  0  0  0
   -4.1273    2.0362   -0.3562 C   0  0  0  0  0  0  0  0  0  0  0  0
   -4.7087    0.8533    0.0888 C   0  0  0  0  0  0  0  0  0  0  0  0
   -5.9007    0.9746    0.8651 C   0  0  0  0  0  0  0  0  0  0  0  0
   -6.8469    1.2153    1.4757 N   0  0  0  0  0  0  0  0  0  0  0  0
   -2.4541   -1.3238   -1.2226 H   0  0  0  0  0  0  0  0  0  0  0  0
   -1.3102    0.3399   -3.2275 H   0  0  0  0  0  0  0  0  0  0  0  0
   -0.7329    1.7898   -2.4258 H   0  0  0  0  0  0  0  0  0  0  0  0
    0.2710   -0.8496   -2.1368 H   0  0  0  0  0  0  0  0  0  0  0  0
    0.1356   -2.2696    0.0313 H   0  0  0  0  0  0  0  0  0  0  0  0
    1.6819   -3.8789    1.0646 H   0  0  0  0  0  0  0  0  0  0  0  0
    4.7046   -0.8551    1.2453 H   0  0  0  0  0  0  0  0  0  0  0  0
    4.6467    1.4451    1.4643 H   0  0  0  0  0  0  0  0  0  0  0  0
    5.2062    0.8915   -0.1185 H   0  0  0  0  0  0  0  0  0  0  0  0
   -2.5209    2.9448   -1.4253 H   0  0  0  0  0  0  0  0  0  0  0  0
   -4.5895    2.9811   -0.1078 H   0  0  0  0  0  0  0  0  0  0  0  0
    5.8175    4.3176   -0.0897 H   0  0  0  0  0  0  0  0  0  0  0  0
  1  3  1  0
  1  6  2  0
  1 25  1  0
  2 14  1  0
  3  4  1  0
  3  5  2  0
  6  7  1  0
  6 28  1  0
  7  8  1  0
  7 23  2  0
  8  9  1  0
  8 29  1  0
  8 30  1  0
  9 10  1  0
  9 31  1  0
 10 11  1  0
 10 22  2  0
 11 12  2  0
 11 16  1  0
 12 13  1  0
 12 32  1  0
 13 14  2  0
 13 33  1  0
 14 15  1  0
 15 16  2  0
 15 34  1  0
 16 17  1  0
 17 18  1  0
 18 19  1  0
 18 35  1  0
 18 36  1  0
 19 20  2  0
 19 21  1  0
 23 24  1  0
 23 37  1  0
 24 25  2  0
 24 38  1  0
 25 26  1  0
 26 27  3  0
 21 39  1  0
M  CHG  2   3   1   4  -1
M  END
