
     RDKit          3D

 27 26  0  0  0  0  0  0  0  0999 V2000
   -2.2714    0.2531   -1.5558 C   0  0  0  0  0  0  0  0  0  0  0  0
   -2.2825   -0.0730   -0.1033 N   0  0  1  0  0  0  0  0  0  0  0  0
   -2.6114    1.1553    0.6788 C   0  0  0  0  0  0  0  0  0  0  0  0
   -3.3489   -1.0861    0.1507 C   0  0  0  0  0  0  0  0  0  0  0  0
   -0.9774   -0.6867    0.3333 C   0  0  0  0  0  0  0  0  0  0  0  0
    0.3016    0.0336   -0.0837 C   0  0  1  0  0  0  0  0  0  0  0  0
    0.4097    1.3420    0.4108 O   0  0  0  0  0  0  0  0  0  0  0  0
    1.4775   -0.8334    0.3544 C   0  0  0  0  0  0  0  0  0  0  0  0
    2.7914   -0.3068   -0.1625 C   0  0  0  0  0  0  0  0  0  0  0  0
    2.9259    0.3202   -1.1824 O   0  0  0  0  0  0  0  0  0  0  0  0
    3.8015   -0.6531    0.6233 O   0  0  0  0  0  0  0  0  0  0  0  0
   -1.5849    1.0718   -1.7465 H   0  0  0  0  0  0  0  0  0  0  0  0
   -1.9706   -0.6265   -2.1185 H   0  0  0  0  0  0  0  0  0  0  0  0
   -3.2735    0.5513   -1.8508 H   0  0  0  0  0  0  0  0  0  0  0  0
   -3.6039    1.4934    0.3918 H   0  0  0  0  0  0  0  0  0  0  0  0
   -2.6025    0.9141    1.7387 H   0  0  0  0  0  0  0  0  0  0  0  0
   -1.8854    1.9312    0.4684 H   0  0  0  0  0  0  0  0  0  0  0  0
   -3.1616   -1.9648   -0.4604 H   0  0  0  0  0  0  0  0  0  0  0  0
   -3.3384   -1.3592    1.2025 H   0  0  0  0  0  0  0  0  0  0  0  0
   -4.3130   -0.6587   -0.1097 H   0  0  0  0  0  0  0  0  0  0  0  0
   -1.0366   -0.7906    1.4181 H   0  0  0  0  0  0  0  0  0  0  0  0
   -0.9595   -1.6903   -0.0914 H   0  0  0  0  0  0  0  0  0  0  0  0
    0.3310    0.1174   -1.1717 H   0  0  0  0  0  0  0  0  0  0  0  0
    0.4747    1.3148    1.3726 H   0  0  0  0  0  0  0  0  0  0  0  0
    1.5087   -0.9278    1.4427 H   0  0  0  0  0  0  0  0  0  0  0  0
    1.3651   -1.8501   -0.0361 H   0  0  0  0  0  0  0  0  0  0  0  0
    4.6398   -0.3471    0.2444 H   0  0  0  0  0  0  0  0  0  0  0  0
  2  1  1  6
  2  3  1  0
  2  4  1  0
  2  5  1  0
  5  6  1  0
  6  7  1  0
  6  8  1  0
  8  9  1  0
  9 10  2  0
  9 11  1  0
  1 12  1  0
  1 13  1  0
  1 14  1  0
  3 15  1  0
  3 16  1  0
  3 17  1  0
  4 18  1  0
  4 19  1  0
  4 20  1  0
  5 21  1  0
  5 22  1  0
  6 23  1  6
  7 24  1  0
  8 25  1  0
  8 26  1  0
 11 27  1  0
M  CHG  1   2   1
M  END
