
     RDKit          3D

 22 21  0  0  0  0  0  0  0  0999 V2000
    3.8176   -1.2826    0.4165 O   0  0  0  0  0  0  0  0  0  0  0  0
    3.3266   -0.1932    0.2661 C   0  0  0  0  0  0  0  0  0  0  0  0
    2.0518    0.0788   -0.5301 C   0  0  1  0  0  0  0  0  0  0  0  0
    1.6095   -1.0316   -1.3263 N   0  0  0  0  0  0  0  0  0  0  0  0
    0.9609    0.5361    0.4435 C   0  0  0  0  0  0  0  0  0  0  0  0
   -0.5726    1.0132   -0.3998 S   0  0  0  0  0  0  0  0  0  0  0  0
   -1.5857   -0.7560   -0.6123 S   0  0  0  0  0  0  0  0  0  0  0  0
   -2.6664   -0.7599    0.8662 C   0  0  0  0  0  0  0  0  0  0  0  0
   -3.7326    0.2773    0.8039 C   0  0  0  0  0  0  0  0  0  0  0  0
   -5.0328    0.0115    0.7560 C   0  0  0  0  0  0  0  0  0  0  0  0
    3.8348    0.9191    0.7822 O   0  0  0  0  0  0  0  0  0  0  0  0
    2.2661    0.9168   -1.2011 H   0  0  0  0  0  0  0  0  0  0  0  0
    2.3184   -1.2837   -2.0024 H   0  0  0  0  0  0  0  0  0  0  0  0
    1.4501   -1.8488   -0.7509 H   0  0  0  0  0  0  0  0  0  0  0  0
    0.7344   -0.2347    1.1825 H   0  0  0  0  0  0  0  0  0  0  0  0
    1.2794    1.4276    0.9855 H   0  0  0  0  0  0  0  0  0  0  0  0
   -3.0887   -1.7668    0.8973 H   0  0  0  0  0  0  0  0  0  0  0  0
   -2.0302   -0.6396    1.7444 H   0  0  0  0  0  0  0  0  0  0  0  0
   -3.3939    1.3089    0.8006 H   0  0  0  0  0  0  0  0  0  0  0  0
   -5.4111   -1.0041    0.7632 H   0  0  0  0  0  0  0  0  0  0  0  0
   -5.7684    0.8035    0.7094 H   0  0  0  0  0  0  0  0  0  0  0  0
    4.6318    0.7181    1.2957 H   0  0  0  0  0  0  0  0  0  0  0  0
 10  9  2  0
  9  8  1  0
  8  7  1  0
  7  6  1  0
  6  5  1  0
  5  3  1  0
  4  3  1  0
  1  2  2  0
  3  2  1  0
  2 11  1  0
  3 12  1  6
  4 13  1  0
  4 14  1  0
  5 15  1  0
  5 16  1  0
  8 17  1  0
  8 18  1  0
  9 19  1  0
 10 20  1  0
 10 21  1  0
 11 22  1  0
M  END
