
     RDKit          3D

 32 32  0  0  0  0  0  0  0  0999 V2000
    0.2999    0.1630    3.0246 C   0  0  0  0  0  0  0  0  0  0  0  0
   -1.0252   -0.1134    2.6981 C   0  0  0  0  0  0  0  0  0  0  0  0
   -1.4321   -0.1639    1.3741 C   0  0  0  0  0  0  0  0  0  0  0  0
   -0.5226    0.0703    0.3335 C   0  0  0  0  0  0  0  0  0  0  0  0
    0.7887    0.3651    0.6767 C   0  0  0  0  0  0  0  0  0  0  0  0
    1.2077    0.4085    2.0012 C   0  0  0  0  0  0  0  0  0  0  0  0
   -0.9950    0.0035   -1.0948 C   0  0  0  0  0  0  0  0  0  0  0  0
    0.6929    0.2029    4.4605 C   0  0  0  0  0  0  0  0  0  0  0  0
   -2.7080   -0.4348    1.0277 O   0  0  0  0  0  0  0  0  0  0  0  0
    2.0236    0.0199    4.7066 N   0  0  0  0  0  0  0  0  0  0  0  0
   -0.2061    0.4428    5.3366 N   0  0  0  0  0  0  0  0  0  0  0  0
    0.0982    0.0771   -2.0389 N   0  0  0  0  0  0  0  0  0  0  0  0
   -0.3411    0.0865   -3.4196 C   0  0  1  0  0  0  0  0  0  0  0  0
   -0.8332    1.4747   -3.8322 C   0  0  0  0  0  0  0  0  0  0  0  0
    0.8063   -0.3549   -4.3070 C   0  0  0  0  0  0  0  0  0  0  0  0
    1.8944   -0.6901   -3.9107 O   0  0  0  0  0  0  0  0  0  0  0  0
    0.4685   -0.3482   -5.5886 O   0  0  0  0  0  0  0  0  0  0  0  0
   -1.7393   -0.2943    3.4933 H   0  0  0  0  0  0  0  0  0  0  0  0
    1.5033    0.5717   -0.1087 H   0  0  0  0  0  0  0  0  0  0  0  0
    2.2384    0.6576    2.2163 H   0  0  0  0  0  0  0  0  0  0  0  0
   -1.6769    0.8411   -1.2702 H   0  0  0  0  0  0  0  0  0  0  0  0
   -1.6049   -0.9023   -1.2342 H   0  0  0  0  0  0  0  0  0  0  0  0
   -3.2400   -0.6053    1.8129 H   0  0  0  0  0  0  0  0  0  0  0  0
    2.3007   -0.1157    5.6659 H   0  0  0  0  0  0  0  0  0  0  0  0
    2.5609   -0.5256    4.0531 H   0  0  0  0  0  0  0  0  0  0  0  0
    0.1803    0.4129    6.2766 H   0  0  0  0  0  0  0  0  0  0  0  0
    0.7150   -0.7119   -1.8880 H   0  0  0  0  0  0  0  0  0  0  0  0
   -1.1576   -0.6348   -3.5985 H   0  0  0  0  0  0  0  0  0  0  0  0
   -0.0317    2.2083   -3.7446 H   0  0  0  0  0  0  0  0  0  0  0  0
   -1.2061    1.4814   -4.8542 H   0  0  0  0  0  0  0  0  0  0  0  0
   -1.6534    1.7947   -3.1904 H   0  0  0  0  0  0  0  0  0  0  0  0
    1.2176   -0.6385   -6.1305 H   0  0  0  0  0  0  0  0  0  0  0  0
  1  2  2  0
  1  6  1  0
  1  8  1  0
  2  3  1  0
  2 18  1  0
  3  4  2  0
  3  9  1  0
  4  5  1  0
  4  7  1  0
  5  6  2  0
  5 19  1  0
  6 20  1  0
  7 12  1  0
  7 21  1  0
  7 22  1  0
  8 10  1  0
  8 11  2  0
  9 23  1  0
 10 24  1  0
 10 25  1  0
 11 26  1  0
 12 13  1  0
 12 27  1  0
 13 14  1  0
 13 15  1  0
 13 28  1  1
 14 29  1  0
 14 30  1  0
 14 31  1  0
 15 16  2  0
 15 17  1  0
 17 32  1  0
M  END
