
     RDKit          3D

 13 13  0  0  0  0  0  0  0  0999 V2000
    1.3141    0.0706   -0.3097 S   0  0  1  0  0  0  0  0  0  0  0  0
    1.6314    0.2417   -1.7132 O   0  0  0  0  0  0  0  0  0  0  0  0
   -1.3263   -0.6493    0.9676 S   0  0  0  0  0  0  0  0  0  0  0  0
   -0.4325    0.2975   -0.1449 C   0  0  0  0  0  0  0  0  0  0  0  0
    1.6227   -1.1707    0.3775 O   0  0  0  0  0  0  0  0  0  0  0  0
   -1.1021    1.1691   -0.8175 N   0  0  0  0  0  0  0  0  0  0  0  0
   -2.4146    1.1260   -0.4614 C   0  0  0  0  0  0  0  0  0  0  0  0
   -2.7258    0.2029    0.4914 C   0  0  0  0  0  0  0  0  0  0  0  0
    1.8983    1.2893    0.6192 N   0  0  0  0  0  0  0  0  0  0  0  0
   -3.1228    1.7924   -0.9307 H   0  0  0  0  0  0  0  0  0  0  0  0
   -3.6918   -0.0157    0.9183 H   0  0  0  0  0  0  0  0  0  0  0  0
    2.0036    2.1672    0.1230 H   0  0  0  0  0  0  0  0  0  0  0  0
    2.7485    1.0324    1.1100 H   0  0  0  0  0  0  0  0  0  0  0  0
  4  1  1  0
  5  1  2  0
  1  2  2  0
  1  9  1  1
  8  3  1  0
  4  3  1  0
  6  4  2  0
  7  6  1  0
  7  8  2  0
  7 10  1  0
  8 11  1  0
  9 12  1  0
  9 13  1  0
M  END
