
     RDKit          3D

 10  9  0  0  0  0  0  0  0  0999 V2000
    1.5089   -3.4960    1.7672 O   0  0  0  0  0  0  0  0  0  0  0  0
    1.2690   -2.4529    0.8761 N   0  0  0  0  0  0  0  0  0  0  0  0
   -0.3852   -2.0716    0.9235 S   0  0  1  0  0  0  0  0  0  0  0  0
   -1.2100   -3.1701    0.4588 O   0  0  0  0  0  0  0  0  0  0  0  0
   -0.6081   -1.5312    2.2468 O   0  0  0  0  0  0  0  0  0  0  0  0
   -0.4992   -0.8725   -0.1684 N   0  0  0  0  0  0  0  0  0  0  0  0
    1.9936   -3.0815    2.4905 H   0  0  0  0  0  0  0  0  0  0  0  0
    1.5222   -2.7854   -0.0536 H   0  0  0  0  0  0  0  0  0  0  0  0
   -0.4769   -1.1661   -1.1375 H   0  0  0  0  0  0  0  0  0  0  0  0
    0.0827   -0.0634    0.0137 H   0  0  0  0  0  0  0  0  0  0  0  0
  1  2  1  0
  3  2  1  1
  3  4  2  0
  3  5  2  0
  3  6  1  0
  1  7  1  0
  2  8  1  0
  6  9  1  0
  6 10  1  0
M  END
