
     RDKit          3D

176177  0  0  0  0  0  0  0  0999 V2000
    6.8444   -5.0433    0.7093 C   0  0  0  0  0  0  0  0  0  0  0  0
    6.6260   -3.5585    0.9607 C   0  0  2  0  0  0  0  0  0  0  0  0
    5.4675   -3.0789    0.2374 N   0  0  0  0  0  0  0  0  0  0  0  0
    7.8507   -2.6941    0.6069 C   0  0  2  0  0  0  0  0  0  0  0  0
    9.0127   -3.2264    1.2027 O   0  0  0  0  0  0  0  0  0  0  0  0
    7.6383   -1.2287    0.9748 C   0  0  0  0  0  0  0  0  0  0  0  0
    8.8106   -0.3297    0.6000 C   0  0  0  0  0  0  0  0  0  0  0  0
    8.5464    1.1373    0.9152 C   0  0  0  0  0  0  0  0  0  0  0  0
    9.7062    2.0503    0.5374 C   0  0  0  0  0  0  0  0  0  0  0  0
    9.4445    3.5178    0.8507 C   0  0  0  0  0  0  0  0  0  0  0  0
   10.6015    4.4316    0.4662 C   0  0  0  0  0  0  0  0  0  0  0  0
   10.3413    5.8995    0.7798 C   0  0  0  0  0  0  0  0  0  0  0  0
   11.4985    6.8125    0.3939 C   0  0  0  0  0  0  0  0  0  0  0  0
   11.2401    8.2804    0.7086 C   0  0  0  0  0  0  0  0  0  0  0  0
   12.3989    9.1924    0.3249 C   0  0  0  0  0  0  0  0  0  0  0  0
   12.1419   10.6600    0.6416 C   0  0  0  0  0  0  0  0  0  0  0  0
   13.3027   11.5713    0.2621 C   0  0  0  0  0  0  0  0  0  0  0  0
   13.0460   13.0384    0.5808 C   0  0  0  0  0  0  0  0  0  0  0  0
   14.2077   13.9513    0.2070 C   0  0  0  0  0  0  0  0  0  0  0  0
   13.9375   15.4142    0.5300 C   0  0  0  0  0  0  0  0  0  0  0  0
    6.9901   -6.5166   -1.1371 C   0  0  2  0  0  0  0  0  0  0  0  0
    7.1415   -5.2232   -0.6606 O   0  0  0  0  0  0  0  0  0  0  0  0
    7.5884   -6.5897   -2.5452 C   0  0  2  0  0  0  0  0  0  0  0  0
    8.9165   -6.1317   -2.5891 O   0  0  0  0  0  0  0  0  0  0  0  0
    6.7640   -5.7439   -3.5093 C   0  0  1  0  0  0  0  0  0  0  0  0
    7.2029   -5.8893   -4.8388 O   0  0  0  0  0  0  0  0  0  0  0  0
    5.2972   -6.1680   -3.4584 C   0  0  1  0  0  0  0  0  0  0  0  0
    5.1076   -7.4699   -3.9542 O   0  0  0  0  0  0  0  0  0  0  0  0
    4.8292   -6.1173   -2.0109 C   0  0  2  0  0  0  0  0  0  0  0  0
    5.6447   -6.9171   -1.1749 O   0  0  0  0  0  0  0  0  0  0  0  0
    4.2145   -3.0804    0.7335 C   0  0  0  0  0  0  0  0  0  0  0  0
    3.9576   -3.4245    1.8780 O   0  0  0  0  0  0  0  0  0  0  0  0
    3.1499   -2.6216   -0.2433 C   0  0  0  0  0  0  0  0  0  0  0  0
    1.7940   -2.3877    0.4005 C   0  0  0  0  0  0  0  0  0  0  0  0
    0.7331   -1.9460   -0.5987 C   0  0  0  0  0  0  0  0  0  0  0  0
   -0.6425   -1.8284    0.0442 C   0  0  0  0  0  0  0  0  0  0  0  0
   -1.7291   -1.3335   -0.9016 C   0  0  0  0  0  0  0  0  0  0  0  0
   -3.0931   -1.2464   -0.2288 C   0  0  0  0  0  0  0  0  0  0  0  0
   -4.1911   -0.6830   -1.1231 C   0  0  0  0  0  0  0  0  0  0  0  0
   -5.5332   -0.5890   -0.4077 C   0  0  0  0  0  0  0  0  0  0  0  0
   -6.6300    0.0822   -1.2242 C   0  0  0  0  0  0  0  0  0  0  0  0
   -7.9396    0.2039   -0.4547 C   0  0  0  0  0  0  0  0  0  0  0  0
   -9.0389    0.9350   -1.2140 C   0  0  0  0  0  0  0  0  0  0  0  0
  -10.3197    1.0812   -0.4016 C   0  0  0  0  0  0  0  0  0  0  0  0
  -11.4248    1.8354   -1.1296 C   0  0  0  0  0  0  0  0  0  0  0  0
  -12.6871    1.9958   -0.2916 C   0  0  0  0  0  0  0  0  0  0  0  0
  -13.7970    2.7583   -1.0036 C   0  0  0  0  0  0  0  0  0  0  0  0
  -15.0489    2.9271   -0.1518 C   0  0  0  0  0  0  0  0  0  0  0  0
  -16.1611    3.6937   -0.8558 C   0  0  0  0  0  0  0  0  0  0  0  0
  -17.4072    3.8687    0.0031 C   0  0  0  0  0  0  0  0  0  0  0  0
  -18.5191    4.6391   -0.6973 C   0  0  0  0  0  0  0  0  0  0  0  0
  -19.7621    4.8199    0.1648 C   0  0  0  0  0  0  0  0  0  0  0  0
  -20.8721    5.5945   -0.5343 C   0  0  0  0  0  0  0  0  0  0  0  0
  -22.1138    5.7803    0.3286 C   0  0  0  0  0  0  0  0  0  0  0  0
  -23.2210    6.5583   -0.3710 C   0  0  0  0  0  0  0  0  0  0  0  0
  -24.4644    6.7470    0.4894 C   0  0  0  0  0  0  0  0  0  0  0  0
  -25.5616    7.5260   -0.2227 C   0  0  0  0  0  0  0  0  0  0  0  0
    1.7492   -6.4980   -0.1666 C   0  0  0  0  0  0  0  0  0  0  0  0
   -0.1353   -5.5510    3.0533 C   0  0  0  0  0  0  0  0  0  0  0  0
   -0.2545   -6.5539    4.0137 C   0  0  0  0  0  0  0  0  0  0  0  0
   -0.3892   -6.2392    5.3590 C   0  0  0  0  0  0  0  0  0  0  0  0
   -0.4074   -4.9111    5.7668 C   0  0  0  0  0  0  0  0  0  0  0  0
   -0.2922   -3.9031    4.8191 C   0  0  0  0  0  0  0  0  0  0  0  0
   -0.1566   -4.2240    3.4746 C   0  0  0  0  0  0  0  0  0  0  0  0
    3.4017   -6.5853   -1.8539 C   0  0  0  0  0  0  0  0  0  0  0  0
    3.0167   -6.2982   -0.5070 O   0  0  0  0  0  0  0  0  0  0  0  0
    0.9060   -6.8744   -0.9422 O   0  0  0  0  0  0  0  0  0  0  0  0
    1.5122   -6.2141    1.2921 C   0  0  0  0  0  0  0  0  0  0  0  0
    0.0499   -5.8981    1.6019 C   0  0  0  0  0  0  0  0  0  0  0  0
    7.6597   -5.4242    1.3340 H   0  0  0  0  0  0  0  0  0  0  0  0
    5.9330   -5.5789    0.9940 H   0  0  0  0  0  0  0  0  0  0  0  0
    6.4218   -3.4417    2.0293 H   0  0  0  0  0  0  0  0  0  0  0  0
    5.5923   -2.8346   -0.7330 H   0  0  0  0  0  0  0  0  0  0  0  0
    8.0229   -2.7607   -0.4734 H   0  0  0  0  0  0  0  0  0  0  0  0
    8.9639   -3.0748    2.1531 H   0  0  0  0  0  0  0  0  0  0  0  0
    6.7373   -0.8636    0.4750 H   0  0  0  0  0  0  0  0  0  0  0  0
    7.4373   -1.1496    2.0510 H   0  0  0  0  0  0  0  0  0  0  0  0
    9.7148   -0.6542    1.1227 H   0  0  0  0  0  0  0  0  0  0  0  0
    9.0210   -0.4365   -0.4702 H   0  0  0  0  0  0  0  0  0  0  0  0
    7.6420    1.4660    0.3909 H   0  0  0  0  0  0  0  0  0  0  0  0
    8.3314    1.2462    1.9841 H   0  0  0  0  0  0  0  0  0  0  0  0
   10.6111    1.7221    1.0611 H   0  0  0  0  0  0  0  0  0  0  0  0
    9.9204    1.9406   -0.5317 H   0  0  0  0  0  0  0  0  0  0  0  0
    8.5372    3.8446    0.3300 H   0  0  0  0  0  0  0  0  0  0  0  0
    9.2342    3.6284    1.9204 H   0  0  0  0  0  0  0  0  0  0  0  0
   11.5092    4.1044    0.9858 H   0  0  0  0  0  0  0  0  0  0  0  0
   10.8109    4.3213   -0.6038 H   0  0  0  0  0  0  0  0  0  0  0  0
    9.4334    6.2269    0.2607 H   0  0  0  0  0  0  0  0  0  0  0  0
   10.1328    6.0101    1.8498 H   0  0  0  0  0  0  0  0  0  0  0  0
   12.4066    6.4843    0.9122 H   0  0  0  0  0  0  0  0  0  0  0  0
   11.7065    6.7025   -0.6764 H   0  0  0  0  0  0  0  0  0  0  0  0
   10.3330    8.6096    0.1892 H   0  0  0  0  0  0  0  0  0  0  0  0
   11.0309    8.3902    1.7787 H   0  0  0  0  0  0  0  0  0  0  0  0
   13.3060    8.8622    0.8438 H   0  0  0  0  0  0  0  0  0  0  0  0
   12.6078    9.0834   -0.7453 H   0  0  0  0  0  0  0  0  0  0  0  0
   11.2363   10.9913    0.1208 H   0  0  0  0  0  0  0  0  0  0  0  0
   11.9305   10.7684    1.7113 H   0  0  0  0  0  0  0  0  0  0  0  0
   14.2083   11.2394    0.7825 H   0  0  0  0  0  0  0  0  0  0  0  0
   13.5139   11.4640   -0.8078 H   0  0  0  0  0  0  0  0  0  0  0  0
   12.1423   13.3719    0.0579 H   0  0  0  0  0  0  0  0  0  0  0  0
   12.8313   13.1455    1.6501 H   0  0  0  0  0  0  0  0  0  0  0  0
   15.1103   13.6192    0.7297 H   0  0  0  0  0  0  0  0  0  0  0  0
   14.4214   13.8451   -0.8612 H   0  0  0  0  0  0  0  0  0  0  0  0
   13.0623   15.7806   -0.0102 H   0  0  0  0  0  0  0  0  0  0  0  0
   13.7468   15.5535    1.5958 H   0  0  0  0  0  0  0  0  0  0  0  0
   14.7817   16.0492    0.2587 H   0  0  0  0  0  0  0  0  0  0  0  0
    7.4847   -7.2418   -0.4761 H   0  0  0  0  0  0  0  0  0  0  0  0
    7.5239   -7.6380   -2.8629 H   0  0  0  0  0  0  0  0  0  0  0  0
    9.4999   -6.8428   -2.3084 H   0  0  0  0  0  0  0  0  0  0  0  0
    6.8190   -4.6913   -3.1960 H   0  0  0  0  0  0  0  0  0  0  0  0
    8.1615   -5.7939   -4.8543 H   0  0  0  0  0  0  0  0  0  0  0  0
    4.7045   -5.4365   -4.0285 H   0  0  0  0  0  0  0  0  0  0  0  0
    5.5456   -7.5270   -4.8106 H   0  0  0  0  0  0  0  0  0  0  0  0
    4.8785   -5.0661   -1.6992 H   0  0  0  0  0  0  0  0  0  0  0  0
    3.4940   -1.7154   -0.7507 H   0  0  0  0  0  0  0  0  0  0  0  0
    3.0595   -3.3818   -1.0269 H   0  0  0  0  0  0  0  0  0  0  0  0
    1.4627   -3.3069    0.8887 H   0  0  0  0  0  0  0  0  0  0  0  0
    1.8797   -1.6409    1.1947 H   0  0  0  0  0  0  0  0  0  0  0  0
    1.0187   -0.9846   -1.0385 H   0  0  0  0  0  0  0  0  0  0  0  0
    0.6860   -2.6599   -1.4285 H   0  0  0  0  0  0  0  0  0  0  0  0
   -0.9357   -2.8066    0.4433 H   0  0  0  0  0  0  0  0  0  0  0  0
   -0.5839   -1.1559    0.9073 H   0  0  0  0  0  0  0  0  0  0  0  0
   -1.4489   -0.3480   -1.2894 H   0  0  0  0  0  0  0  0  0  0  0  0
   -1.7886   -1.9979   -1.7705 H   0  0  0  0  0  0  0  0  0  0  0  0
   -3.3874   -2.2403    0.1260 H   0  0  0  0  0  0  0  0  0  0  0  0
   -3.0117   -0.6193    0.6661 H   0  0  0  0  0  0  0  0  0  0  0  0
   -3.8946    0.3124   -1.4722 H   0  0  0  0  0  0  0  0  0  0  0  0
   -4.2916   -1.3028   -2.0207 H   0  0  0  0  0  0  0  0  0  0  0  0
   -5.8608   -1.5920   -0.1125 H   0  0  0  0  0  0  0  0  0  0  0  0
   -5.3979   -0.0323    0.5268 H   0  0  0  0  0  0  0  0  0  0  0  0
   -6.2936    1.0798   -1.5282 H   0  0  0  0  0  0  0  0  0  0  0  0
   -6.7986   -0.4759   -2.1519 H   0  0  0  0  0  0  0  0  0  0  0  0
   -8.2933   -0.7952   -0.1764 H   0  0  0  0  0  0  0  0  0  0  0  0
   -7.7488    0.7269    0.4896 H   0  0  0  0  0  0  0  0  0  0  0  0
   -8.6788    1.9280   -1.5058 H   0  0  0  0  0  0  0  0  0  0  0  0
   -9.2571    0.4061   -2.1485 H   0  0  0  0  0  0  0  0  0  0  0  0
  -10.6855    0.0881   -0.1173 H   0  0  0  0  0  0  0  0  0  0  0  0
  -10.0906    1.5966    0.5380 H   0  0  0  0  0  0  0  0  0  0  0  0
  -11.0560    2.8245   -1.4237 H   0  0  0  0  0  0  0  0  0  0  0  0
  -11.6702    1.3151   -2.0622 H   0  0  0  0  0  0  0  0  0  0  0  0
  -13.0572    1.0067    0.0009 H   0  0  0  0  0  0  0  0  0  0  0  0
  -12.4363    2.5112    0.6424 H   0  0  0  0  0  0  0  0  0  0  0  0
  -13.4254    3.7450   -1.3023 H   0  0  0  0  0  0  0  0  0  0  0  0
  -14.0569    2.2397   -1.9333 H   0  0  0  0  0  0  0  0  0  0  0  0
  -15.4212    1.9404    0.1463 H   0  0  0  0  0  0  0  0  0  0  0  0
  -14.7862    3.4433    0.7785 H   0  0  0  0  0  0  0  0  0  0  0  0
  -15.7874    4.6785   -1.1580 H   0  0  0  0  0  0  0  0  0  0  0  0
  -16.4289    3.1753   -1.7833 H   0  0  0  0  0  0  0  0  0  0  0  0
  -17.7821    2.8840    0.3043 H   0  0  0  0  0  0  0  0  0  0  0  0
  -17.1378    4.3853    0.9312 H   0  0  0  0  0  0  0  0  0  0  0  0
  -18.1426    5.6222   -1.0015 H   0  0  0  0  0  0  0  0  0  0  0  0
  -18.7917    4.1210   -1.6236 H   0  0  0  0  0  0  0  0  0  0  0  0
  -20.1406    3.8370    0.4675 H   0  0  0  0  0  0  0  0  0  0  0  0
  -19.4886    5.3362    1.0919 H   0  0  0  0  0  0  0  0  0  0  0  0
  -20.4921    6.5761   -0.8391 H   0  0  0  0  0  0  0  0  0  0  0  0
  -21.1474    5.0771   -1.4602 H   0  0  0  0  0  0  0  0  0  0  0  0
  -22.4957    4.7990    0.6320 H   0  0  0  0  0  0  0  0  0  0  0  0
  -21.8381    6.2962    1.2552 H   0  0  0  0  0  0  0  0  0  0  0  0
  -22.8389    7.5395   -0.6750 H   0  0  0  0  0  0  0  0  0  0  0  0
  -23.4969    6.0424   -1.2977 H   0  0  0  0  0  0  0  0  0  0  0  0
  -24.8469    5.7672    0.7920 H   0  0  0  0  0  0  0  0  0  0  0  0
  -24.1882    7.2625    1.4147 H   0  0  0  0  0  0  0  0  0  0  0  0
  -25.8684    7.0201   -1.1401 H   0  0  0  0  0  0  0  0  0  0  0  0
  -26.4468    7.6411    0.4038 H   0  0  0  0  0  0  0  0  0  0  0  0
  -25.2188    8.5251   -0.4986 H   0  0  0  0  0  0  0  0  0  0  0  0
   -0.2443   -7.5932    3.7048 H   0  0  0  0  0  0  0  0  0  0  0  0
   -0.4834   -7.0320    6.0900 H   0  0  0  0  0  0  0  0  0  0  0  0
   -0.5145   -4.6651    6.8154 H   0  0  0  0  0  0  0  0  0  0  0  0
   -0.3117   -2.8647    5.1244 H   0  0  0  0  0  0  0  0  0  0  0  0
   -0.0752   -3.4276    2.7436 H   0  0  0  0  0  0  0  0  0  0  0  0
    2.7637   -6.0449   -2.5573 H   0  0  0  0  0  0  0  0  0  0  0  0
    3.3032   -7.6544   -2.0523 H   0  0  0  0  0  0  0  0  0  0  0  0
    1.8291   -7.1005    1.8530 H   0  0  0  0  0  0  0  0  0  0  0  0
    2.1676   -5.4064    1.6236 H   0  0  0  0  0  0  0  0  0  0  0  0
   -0.5751   -6.7527    1.3378 H   0  0  0  0  0  0  0  0  0  0  0  0
   -0.2851   -5.0635    0.9800 H   0  0  0  0  0  0  0  0  0  0  0  0
 20 19  1  0
 19 18  1  0
 18 17  1  0
 17 16  1  0
 24 23  1  0
  5  4  1  0
 16 15  1  0
 21 23  1  0
 21 22  1  0
 21 30  1  0
 23 25  1  0
  1 22  1  0
  1  2  1  0
 30 29  1  0
  4  2  1  0
  4  6  1  0
 15 14  1  0
  2  3  1  0
  7  6  1  0
  7  8  1  0
 26 25  1  0
 28 27  1  0
 25 27  1  0
 13 14  1  0
 13 12  1  0
  9  8  1  0
  9 10  1  0
 29 27  1  0
 29 65  1  0
 65 66  1  0
  3 31  1  0
 11 12  1  0
 11 10  1  0
 32 31  2  0
 31 33  1  0
 66 58  1  0
 67 58  2  0
 58 68  1  0
 33 34  1  0
 34 35  1  0
 35 36  1  0
 68 69  1  0
 36 37  1  0
 69 59  1  0
 37 38  1  0
 44 43  1  0
 44 45  1  0
 38 39  1  0
 39 40  1  0
 59 64  1  0
 59 60  2  0
 43 42  1  0
 41 42  1  0
 41 40  1  0
 64 63  2  0
 45 46  1  0
 46 47  1  0
 60 61  1  0
 63 62  1  0
 61 62  2  0
 47 48  1  0
 48 49  1  0
 49 50  1  0
 57 56  1  0
 50 51  1  0
 51 52  1  0
 56 55  1  0
 55 54  1  0
 53 52  1  0
 53 54  1  0
  1 70  1  0
  1 71  1  0
  2 72  1  1
  3 73  1  0
  4 74  1  6
  5 75  1  0
  6 76  1  0
  6 77  1  0
  7 78  1  0
  7 79  1  0
  8 80  1  0
  8 81  1  0
  9 82  1  0
  9 83  1  0
 10 84  1  0
 10 85  1  0
 11 86  1  0
 11 87  1  0
 12 88  1  0
 12 89  1  0
 13 90  1  0
 13 91  1  0
 14 92  1  0
 14 93  1  0
 15 94  1  0
 15 95  1  0
 16 96  1  0
 16 97  1  0
 17 98  1  0
 17 99  1  0
 18100  1  0
 18101  1  0
 19102  1  0
 19103  1  0
 20104  1  0
 20105  1  0
 20106  1  0
 21107  1  1
 23108  1  6
 24109  1  0
 25110  1  1
 26111  1  0
 27112  1  6
 28113  1  0
 29114  1  1
 33115  1  0
 33116  1  0
 34117  1  0
 34118  1  0
 35119  1  0
 35120  1  0
 36121  1  0
 36122  1  0
 37123  1  0
 37124  1  0
 38125  1  0
 38126  1  0
 39127  1  0
 39128  1  0
 40129  1  0
 40130  1  0
 41131  1  0
 41132  1  0
 42133  1  0
 42134  1  0
 43135  1  0
 43136  1  0
 44137  1  0
 44138  1  0
 45139  1  0
 45140  1  0
 46141  1  0
 46142  1  0
 47143  1  0
 47144  1  0
 48145  1  0
 48146  1  0
 49147  1  0
 49148  1  0
 50149  1  0
 50150  1  0
 51151  1  0
 51152  1  0
 52153  1  0
 52154  1  0
 53155  1  0
 53156  1  0
 54157  1  0
 54158  1  0
 55159  1  0
 55160  1  0
 56161  1  0
 56162  1  0
 57163  1  0
 57164  1  0
 57165  1  0
 60166  1  0
 61167  1  0
 62168  1  0
 63169  1  0
 64170  1  0
 65171  1  0
 65172  1  0
 68173  1  0
 68174  1  0
 69175  1  0
 69176  1  0
M  END
