
     RDKit          3D

 24 26  0  0  0  0  0  0  0  0999 V2000
    4.7858   -0.4876    0.1450 C   0  0  0  0  0  0  0  0  0  0  0  0
    3.3717   -0.0188    0.0761 C   0  0  0  0  0  0  0  0  0  0  0  0
    2.2532   -0.7919    0.1410 C   0  0  0  0  0  0  0  0  0  0  0  0
    2.9305    1.3366   -0.0701 C   0  0  0  0  0  0  0  0  0  0  0  0
    1.5717    1.3373   -0.0880 C   0  0  0  0  0  0  0  0  0  0  0  0
    1.1446    0.0306    0.0415 N   0  0  0  0  0  0  0  0  0  0  0  0
   -0.1633   -0.4074    0.0737 C   0  0  0  0  0  0  0  0  0  0  0  0
   -0.3625   -1.7101    0.2112 N   0  0  0  0  0  0  0  0  0  0  0  0
   -1.6039   -2.1859    0.2511 C   0  0  0  0  0  0  0  0  0  0  0  0
   -2.7300   -1.5014    0.1687 N   0  0  0  0  0  0  0  0  0  0  0  0
   -2.5169   -0.2013    0.0301 C   0  0  0  0  0  0  0  0  0  0  0  0
   -1.2728    0.4385   -0.0287 C   0  0  0  0  0  0  0  0  0  0  0  0
   -1.4414    1.7917   -0.1753 N   0  0  0  0  0  0  0  0  0  0  0  0
   -2.7318    1.9580   -0.2032 C   0  0  0  0  0  0  0  0  0  0  0  0
   -3.4285    0.7979   -0.0845 N   0  0  0  0  0  0  0  0  0  0  0  0
    5.3041   -0.0658    1.0081 H   0  0  0  0  0  0  0  0  0  0  0  0
    4.8418   -1.5729    0.2217 H   0  0  0  0  0  0  0  0  0  0  0  0
    5.3483   -0.1877   -0.7407 H   0  0  0  0  0  0  0  0  0  0  0  0
    2.1443   -1.8572    0.2478 H   0  0  0  0  0  0  0  0  0  0  0  0
    3.5599    2.2093   -0.1539 H   0  0  0  0  0  0  0  0  0  0  0  0
    0.8687    2.1466   -0.1816 H   0  0  0  0  0  0  0  0  0  0  0  0
   -1.6949   -3.2596    0.3653 H   0  0  0  0  0  0  0  0  0  0  0  0
   -3.2340    2.9073   -0.3092 H   0  0  0  0  0  0  0  0  0  0  0  0
   -4.4331    0.7025   -0.0797 H   0  0  0  0  0  0  0  0  0  0  0  0
  1  2  1  0
  2  4  1  0
  2  3  2  0
  4  5  2  0
  3  6  1  0
  5  6  1  0
  6  7  1  0
  8  7  2  0
  8  9  1  0
  7 12  1  0
  9 10  2  0
 12 13  1  0
 12 11  2  0
 13 14  2  0
 10 11  1  0
 11 15  1  0
 15 14  1  0
  1 16  1  0
  1 17  1  0
  1 18  1  0
  3 19  1  0
  4 20  1  0
  5 21  1  0
  9 22  1  0
 14 23  1  0
 15 24  1  0
M  END
