
     RDKit          3D

 32 33  0  0  0  0  0  0  0  0999 V2000
   -4.5139    0.6667    0.8442 O   0  0  0  0  0  0  0  0  0  0  0  0
   -3.7178    1.1417   -0.2605 S   0  0  1  0  0  0  0  0  0  0  0  0
   -4.3285    1.5461   -1.4945 O   0  0  0  0  0  0  0  0  0  0  0  0
   -2.7466    2.2918    0.2529 O   0  0  0  0  0  0  0  0  0  0  0  0
   -2.6345    0.0742   -0.6778 O   0  0  0  0  0  0  0  0  0  0  0  0
   -1.8970   -0.6213    0.3497 C   0  0  0  0  0  0  0  0  0  0  0  0
   -0.9088   -1.5271   -0.3342 C   0  0  2  0  0  0  0  0  0  0  0  0
   -0.1952   -2.4422    0.6672 C   0  0  1  0  0  0  0  0  0  0  0  0
   -0.9281   -3.6329    0.7849 O   0  0  0  0  0  0  0  0  0  0  0  0
    0.0913   -0.7620   -0.9765 O   0  0  0  0  0  0  0  0  0  0  0  0
    1.3488   -1.3787   -0.8782 C   0  0  2  0  0  0  0  0  0  0  0  0
    1.1867   -2.5967    0.0301 C   0  0  0  0  0  0  0  0  0  0  0  0
    2.3445   -0.3873   -0.4784 N   0  0  0  0  0  0  0  0  0  0  0  0
    3.3001    0.0066   -1.3726 C   0  0  0  0  0  0  0  0  0  0  0  0
    4.2301    0.9367   -1.1084 C   0  0  0  0  0  0  0  0  0  0  0  0
    4.2541    1.5695    0.1866 C   0  0  0  0  0  0  0  0  0  0  0  0
    5.0369    2.4241    0.5539 O   0  0  0  0  0  0  0  0  0  0  0  0
    3.2620    1.1064    1.0399 N   0  0  0  0  0  0  0  0  0  0  0  0
    2.2759    0.1933    0.7731 C   0  0  0  0  0  0  0  0  0  0  0  0
    1.4227   -0.0856    1.5872 O   0  0  0  0  0  0  0  0  0  0  0  0
   -1.3675    0.0826    0.9951 H   0  0  0  0  0  0  0  0  0  0  0  0
   -2.5778   -1.2273    0.9498 H   0  0  0  0  0  0  0  0  0  0  0  0
   -1.4263   -2.1658   -1.0638 H   0  0  0  0  0  0  0  0  0  0  0  0
   -0.0976   -1.9456    1.6361 H   0  0  0  0  0  0  0  0  0  0  0  0
   -0.6095   -4.1085    1.5574 H   0  0  0  0  0  0  0  0  0  0  0  0
    1.6817   -1.6954   -1.8692 H   0  0  0  0  0  0  0  0  0  0  0  0
    1.9943   -2.6996    0.7531 H   0  0  0  0  0  0  0  0  0  0  0  0
    1.1844   -3.4921   -0.5942 H   0  0  0  0  0  0  0  0  0  0  0  0
    3.2586   -0.4799   -2.3369 H   0  0  0  0  0  0  0  0  0  0  0  0
    4.9588    1.2124   -1.8542 H   0  0  0  0  0  0  0  0  0  0  0  0
    3.2120    1.5363    1.9553 H   0  0  0  0  0  0  0  0  0  0  0  0
   -3.1301    2.7746    1.0040 H   0  0  0  0  0  0  0  0  0  0  0  0
 17 16  2  0
 20 19  2  0
 18 19  1  0
 18 16  1  0
 19 13  1  0
 16 15  1  0
  1  2  2  0
 12 11  1  0
 12  8  1  0
 13 11  1  0
 13 14  1  0
 15 14  2  0
  2  5  1  6
  2  3  2  0
  2  4  1  0
 11 10  1  0
  8  9  1  0
  8  7  1  0
  5  6  1  0
 10  7  1  0
  7  6  1  0
  6 21  1  0
  6 22  1  0
  7 23  1  6
  8 24  1  1
  9 25  1  0
 11 26  1  6
 12 27  1  0
 12 28  1  0
 14 29  1  0
 15 30  1  0
 18 31  1  0
  4 32  1  0
M  END
