
     RDKit          3D

 16 15  0  0  0  0  0  0  0  0999 V2000
    0.8098   -0.0058   -1.2033 N   0  0  0  0  0  0  0  0  0  0  0  0
    0.0199   -0.0054    0.0314 C   0  0  2  0  0  0  0  0  0  0  0  0
   -0.9243    1.1939   -0.0154 C   0  0  0  0  0  0  0  0  0  0  0  0
    0.9011    0.0836    1.2822 C   0  0  0  0  0  0  0  0  0  0  0  0
   -0.7951   -1.2964    0.0676 C   0  0  0  0  0  0  0  0  0  0  0  0
    1.3819    0.8317   -1.2326 H   0  0  0  0  0  0  0  0  0  0  0  0
    1.4666   -0.7784   -1.1772 H   0  0  0  0  0  0  0  0  0  0  0  0
   -0.3674    2.1332   -0.0584 H   0  0  0  0  0  0  0  0  0  0  0  0
   -1.5720    1.1451   -0.8921 H   0  0  0  0  0  0  0  0  0  0  0  0
   -1.5563    1.2252    0.8733 H   0  0  0  0  0  0  0  0  0  0  0  0
    0.3086    0.0829    2.1997 H   0  0  0  0  0  0  0  0  0  0  0  0
    1.5921   -0.7611    1.3314 H   0  0  0  0  0  0  0  0  0  0  0  0
    1.4948    1.0008    1.2722 H   0  0  0  0  0  0  0  0  0  0  0  0
   -1.4459   -1.3708   -0.8057 H   0  0  0  0  0  0  0  0  0  0  0  0
   -0.1459   -2.1755    0.0794 H   0  0  0  0  0  0  0  0  0  0  0  0
   -1.4206   -1.3366    0.9608 H   0  0  0  0  0  0  0  0  0  0  0  0
  2  1  1  6
  1  6  1  0
  1  7  1  0
  2  3  1  0
  2  4  1  0
  2  5  1  0
  3  8  1  0
  3  9  1  0
  3 10  1  0
  4 11  1  0
  4 12  1  0
  4 13  1  0
  5 14  1  0
  5 15  1  0
  5 16  1  0
M  END
