
     RDKit          3D

 77 81  0  0  0  0  0  0  0  0999 V2000
    1.7962    4.1607   -1.6550 C   0  0  0  0  0  0  0  0  0  0  0  0
    1.1032    3.0416   -1.1367 O   0  0  0  0  0  0  0  0  0  0  0  0
    1.8078    2.0291   -0.5952 C   0  0  0  0  0  0  0  0  0  0  0  0
    3.1848    1.9820   -0.5343 C   0  0  0  0  0  0  0  0  0  0  0  0
    3.8390    0.8866    0.0368 C   0  0  0  0  0  0  0  0  0  0  0  0
    3.0765   -0.1407    0.5711 C   0  0  0  0  0  0  0  0  0  0  0  0
    1.6888   -0.1024    0.5197 C   0  0  0  0  0  0  0  0  0  0  0  0
    1.0286    0.9697   -0.0701 C   0  0  0  0  0  0  0  0  0  0  0  0
   -0.3424    1.1106   -0.1864 N   0  0  0  0  0  0  0  0  0  0  0  0
   -1.3637    0.2584    0.1065 C   0  0  0  0  0  0  0  0  0  0  0  0
   -1.1236   -0.9293    0.6443 N   0  0  0  0  0  0  0  0  0  0  0  0
   -2.1756   -1.7020    0.8684 C   0  0  0  0  0  0  0  0  0  0  0  0
   -3.4687   -1.3040    0.5880 C   0  0  0  0  0  0  0  0  0  0  0  0
   -4.5786   -2.1324    0.8457 N   0  0  0  0  0  0  0  0  0  0  0  0
   -4.7684   -2.6643    2.1914 C   0  0  0  0  0  0  0  0  0  0  0  0
   -5.5961   -2.2977   -0.0345 C   0  0  0  0  0  0  0  0  0  0  0  0
   -6.6264   -2.8660    0.2735 O   0  0  0  0  0  0  0  0  0  0  0  0
   -5.4124   -1.7202   -1.4468 C   0  0  2  0  0  0  0  0  0  0  0  0
   -4.1437   -2.0909   -1.8885 F   0  0  0  0  0  0  0  0  0  0  0  0
   -5.4889   -0.1812   -1.4352 C   0  0  0  0  0  0  0  0  0  0  0  0
   -4.8853    0.4863   -0.2978 N   0  0  0  0  0  0  0  0  0  0  0  0
   -5.7773    0.8020    0.8210 C   0  0  1  0  0  0  0  0  0  0  0  0
   -5.0616    1.4278    2.0152 C   0  0  0  0  0  0  0  0  0  0  0  0
   -6.2153    2.0342    2.8060 C   0  0  0  0  0  0  0  0  0  0  0  0
   -7.1300    2.6412    1.7310 C   0  0  0  0  0  0  0  0  0  0  0  0
   -6.8257    1.8596    0.4344 C   0  0  0  0  0  0  0  0  0  0  0  0
   -3.6165   -0.0220    0.0440 C   0  0  0  0  0  0  0  0  0  0  0  0
   -2.5735    0.7379   -0.2013 N   0  0  0  0  0  0  0  0  0  0  0  0
   -6.4416   -2.2656   -2.3863 C   0  0  0  0  0  0  0  0  0  0  0  0
   -6.1704   -2.8681   -3.5348 C   0  0  0  0  0  0  0  0  0  0  0  0
    5.3306    0.9164    0.0590 C   0  0  0  0  0  0  0  0  0  0  0  0
    5.9489    1.9621   -0.0560 O   0  0  0  0  0  0  0  0  0  0  0  0
    5.9293   -0.2861    0.2015 N   0  0  0  0  0  0  0  0  0  0  0  0
    7.3001   -0.3951    0.2697 N   0  0  0  0  0  0  0  0  0  0  0  0
    7.7459   -0.8629    1.5737 C   0  0  0  0  0  0  0  0  0  0  0  0
    9.2621   -0.8671    1.6107 C   0  0  0  0  0  0  0  0  0  0  0  0
    9.7956   -1.7041    0.5555 N   0  0  0  0  0  0  0  0  0  0  0  0
   11.2365   -1.7922    0.6153 C   0  0  0  0  0  0  0  0  0  0  0  0
    9.3424   -1.2330   -0.7376 C   0  0  0  0  0  0  0  0  0  0  0  0
    7.8274   -1.2216   -0.8041 C   0  0  0  0  0  0  0  0  0  0  0  0
    1.0380    4.8507   -2.0151 H   0  0  0  0  0  0  0  0  0  0  0  0
    2.3932    4.6571   -0.8862 H   0  0  0  0  0  0  0  0  0  0  0  0
    2.4477    3.8836   -2.4873 H   0  0  0  0  0  0  0  0  0  0  0  0
    3.7762    2.7916   -0.9390 H   0  0  0  0  0  0  0  0  0  0  0  0
    3.5332   -0.9882    1.0652 H   0  0  0  0  0  0  0  0  0  0  0  0
    1.1211   -0.9130    0.9447 H   0  0  0  0  0  0  0  0  0  0  0  0
   -0.6554    1.9724   -0.6081 H   0  0  0  0  0  0  0  0  0  0  0  0
   -1.9756   -2.6809    1.2921 H   0  0  0  0  0  0  0  0  0  0  0  0
   -5.5939   -2.1602    2.6968 H   0  0  0  0  0  0  0  0  0  0  0  0
   -4.9754   -3.7319    2.1637 H   0  0  0  0  0  0  0  0  0  0  0  0
   -3.8643   -2.5028    2.7700 H   0  0  0  0  0  0  0  0  0  0  0  0
   -5.0229    0.1544   -2.3670 H   0  0  0  0  0  0  0  0  0  0  0  0
   -6.5343    0.1236   -1.4921 H   0  0  0  0  0  0  0  0  0  0  0  0
   -6.3076   -0.0894    1.1887 H   0  0  0  0  0  0  0  0  0  0  0  0
   -4.4767    0.7153    2.5999 H   0  0  0  0  0  0  0  0  0  0  0  0
   -4.3825    2.2128    1.6685 H   0  0  0  0  0  0  0  0  0  0  0  0
   -6.7417    1.2459    3.3505 H   0  0  0  0  0  0  0  0  0  0  0  0
   -5.8815    2.7647    3.5431 H   0  0  0  0  0  0  0  0  0  0  0  0
   -8.1812    2.5816    2.0127 H   0  0  0  0  0  0  0  0  0  0  0  0
   -6.9006    3.6984    1.5911 H   0  0  0  0  0  0  0  0  0  0  0  0
   -6.3968    2.5173   -0.3240 H   0  0  0  0  0  0  0  0  0  0  0  0
   -7.7224    1.4117    0.0047 H   0  0  0  0  0  0  0  0  0  0  0  0
   -7.4700   -2.0977   -2.0910 H   0  0  0  0  0  0  0  0  0  0  0  0
   -6.9737   -3.2010   -4.1777 H   0  0  0  0  0  0  0  0  0  0  0  0
   -5.1641   -3.0560   -3.8828 H   0  0  0  0  0  0  0  0  0  0  0  0
    5.3785   -1.1359    0.2001 H   0  0  0  0  0  0  0  0  0  0  0  0
    7.3644   -0.1869    2.3399 H   0  0  0  0  0  0  0  0  0  0  0  0
    7.3674   -1.8728    1.7941 H   0  0  0  0  0  0  0  0  0  0  0  0
    9.6235    0.1729    1.5333 H   0  0  0  0  0  0  0  0  0  0  0  0
    9.5932   -1.2518    2.5778 H   0  0  0  0  0  0  0  0  0  0  0  0
   11.5474   -2.1666    1.5915 H   0  0  0  0  0  0  0  0  0  0  0  0
   11.5999   -2.4883   -0.1423 H   0  0  0  0  0  0  0  0  0  0  0  0
   11.7397   -0.8266    0.4502 H   0  0  0  0  0  0  0  0  0  0  0  0
    9.7227   -0.2210   -0.9589 H   0  0  0  0  0  0  0  0  0  0  0  0
    9.7241   -1.8972   -1.5165 H   0  0  0  0  0  0  0  0  0  0  0  0
    7.4539   -2.2559   -0.7404 H   0  0  0  0  0  0  0  0  0  0  0  0
    7.5059   -0.8074   -1.7604 H   0  0  0  0  0  0  0  0  0  0  0  0
  1  2  1  0
  2  3  1  0
 32 31  2  0
  4  3  2  0
  4  5  1  0
  3  8  1  0
 31  5  1  0
 31 33  1  0
  5  6  2  0
  8  9  1  0
  8  7  2  0
  9 10  1  0
  6  7  1  0
 33 34  1  0
 34 35  1  0
 34 40  1  0
 11 10  2  0
 11 12  1  0
 10 28  1  0
 36 35  1  0
 36 37  1  0
 39 40  1  0
 39 37  1  0
 12 13  2  0
 37 38  1  0
 28 27  2  0
 13 27  1  0
 13 14  1  0
 27 21  1  0
 15 14  1  0
 14 16  1  0
 22 21  1  0
 22 26  1  0
 22 23  1  0
 21 20  1  0
 26 25  1  0
 23 24  1  0
 16 17  2  0
 16 18  1  0
 24 25  1  0
 20 18  1  0
 29 18  1  0
 29 30  2  0
 18 19  1  6
  1 41  1  0
  1 42  1  0
  1 43  1  0
  4 44  1  0
  6 45  1  0
  7 46  1  0
  9 47  1  0
 12 48  1  0
 15 49  1  0
 15 50  1  0
 15 51  1  0
 20 52  1  0
 20 53  1  0
 22 54  1  1
 23 55  1  0
 23 56  1  0
 24 57  1  0
 24 58  1  0
 25 59  1  0
 25 60  1  0
 26 61  1  0
 26 62  1  0
 29 63  1  0
 30 64  1  0
 30 65  1  0
 33 66  1  0
 35 67  1  0
 35 68  1  0
 36 69  1  0
 36 70  1  0
 38 71  1  0
 38 72  1  0
 38 73  1  0
 39 74  1  0
 39 75  1  0
 40 76  1  0
 40 77  1  0
M  END
