
     RDKit          3D

 19 20  0  0  0  0  0  0  0  0999 V2000
    0.6384   -1.2478   -0.2658 C   0  0  0  0  0  0  0  0  0  0  0  0
    2.0215   -1.2678   -0.2828 C   0  0  0  0  0  0  0  0  0  0  0  0
    2.7409   -0.0843   -0.1289 C   0  0  0  0  0  0  0  0  0  0  0  0
    4.0831   -0.1569   -0.1624 O   0  0  0  0  0  0  0  0  0  0  0  0
    2.0551    1.1158    0.0476 C   0  0  0  0  0  0  0  0  0  0  0  0
    0.6713    1.1317    0.0818 C   0  0  0  0  0  0  0  0  0  0  0  0
   -0.0384   -0.0503   -0.0731 C   0  0  0  0  0  0  0  0  0  0  0  0
   -1.4496   -0.0370   -0.0308 N   0  0  0  0  0  0  0  0  0  0  0  0
   -2.2815   -0.9611    0.4715 C   0  0  0  0  0  0  0  0  0  0  0  0
   -3.5254   -0.5704    0.3277 N   0  0  0  0  0  0  0  0  0  0  0  0
   -3.3966    0.6303   -0.2761 C   0  0  0  0  0  0  0  0  0  0  0  0
   -2.1592    0.9913   -0.5111 N   0  0  0  0  0  0  0  0  0  0  0  0
    0.0942   -2.1710   -0.4185 H   0  0  0  0  0  0  0  0  0  0  0  0
    2.5458   -2.2024   -0.4343 H   0  0  0  0  0  0  0  0  0  0  0  0
    4.4727    0.7148   -0.0310 H   0  0  0  0  0  0  0  0  0  0  0  0
    2.6002    2.0446    0.1696 H   0  0  0  0  0  0  0  0  0  0  0  0
    0.1497    2.0666    0.2349 H   0  0  0  0  0  0  0  0  0  0  0  0
   -1.9431   -1.8743    0.9361 H   0  0  0  0  0  0  0  0  0  0  0  0
   -4.2345    1.2524   -0.5509 H   0  0  0  0  0  0  0  0  0  0  0  0
  4  3  1  0
  5  3  2  0
  5  6  1  0
  3  2  1  0
  6  7  2  0
  2  1  2  0
  7  1  1  0
  7  8  1  0
  8  9  1  0
  8 12  1  0
  9 10  2  0
 12 11  2  0
 10 11  1  0
  1 13  1  0
  2 14  1  0
  4 15  1  0
  5 16  1  0
  6 17  1  0
  9 18  1  0
 11 19  1  0
M  END
