
     RDKit          3D

 43 43  0  0  0  0  0  0  0  0999 V2000
   -3.0877   -0.2707   -1.5179 C   0  0  0  0  0  0  0  0  0  0  0  0
   -1.4677   -0.5857    0.2549 N   0  0  0  0  0  0  0  0  0  0  0  0
   -2.8890   -1.3611   -1.9937 O   0  0  0  0  0  0  0  0  0  0  0  0
    4.5627    2.2704    0.1888 P   0  0  1  0  0  0  0  0  0  0  0  0
    2.8618   -3.0834    0.4179 N   0  0  0  0  0  0  0  0  0  0  0  0
    1.6174   -3.4983    0.2574 C   0  0  0  0  0  0  0  0  0  0  0  0
    0.5802   -2.5944   -0.0209 C   0  0  0  0  0  0  0  0  0  0  0  0
   -0.6509   -3.0956   -0.1955 O   0  0  0  0  0  0  0  0  0  0  0  0
    0.8638   -1.2323   -0.1219 C   0  0  0  0  0  0  0  0  0  0  0  0
    2.1890   -0.8212    0.0527 C   0  0  0  0  0  0  0  0  0  0  0  0
    3.1445   -1.7879    0.3188 C   0  0  0  0  0  0  0  0  0  0  0  0
   -2.6250    0.1035   -0.1471 C   0  0  0  0  0  0  0  0  0  0  0  0
   -3.3109    0.8827    0.6983 C   0  0  0  0  0  0  0  0  0  0  0  0
   -5.9236    0.2041    0.5653 S   0  0  0  0  0  0  0  0  0  0  0  0
   -7.4078    1.2092    0.3465 C   0  0  0  0  0  0  0  0  0  0  0  0
   -4.6529    1.5098    0.4965 C   0  0  0  0  0  0  0  0  0  0  0  0
   -0.2318   -0.2524   -0.4581 C   0  0  0  0  0  0  0  0  0  0  0  0
    2.5392    0.6364   -0.0669 C   0  0  0  0  0  0  0  0  0  0  0  0
    4.1110    3.2493   -0.8162 O   0  0  0  0  0  0  0  0  0  0  0  0
    6.0907    1.8256    0.1740 O   0  0  0  0  0  0  0  0  0  0  0  0
    4.2152    2.8053    1.6527 O   0  0  0  0  0  0  0  0  0  0  0  0
    3.9452    0.7995    0.0789 O   0  0  0  0  0  0  0  0  0  0  0  0
   -3.7111    0.7066   -2.1482 O   0  0  0  0  0  0  0  0  0  0  0  0
   -1.3264   -0.4870    1.2533 H   0  0  0  0  0  0  0  0  0  0  0  0
   -1.2924   -2.3514   -0.1331 H   0  0  0  0  0  0  0  0  0  0  0  0
    4.1826   -1.5189    0.4625 H   0  0  0  0  0  0  0  0  0  0  0  0
   -2.8896    1.0059    1.6909 H   0  0  0  0  0  0  0  0  0  0  0  0
   -8.2654    0.5391    0.3651 H   0  0  0  0  0  0  0  0  0  0  0  0
   -7.5151    1.9349    1.1518 H   0  0  0  0  0  0  0  0  0  0  0  0
   -7.3916    1.7294   -0.6104 H   0  0  0  0  0  0  0  0  0  0  0  0
   -4.8371    2.2215    1.3006 H   0  0  0  0  0  0  0  0  0  0  0  0
   -4.7369    2.0412   -0.4488 H   0  0  0  0  0  0  0  0  0  0  0  0
    0.5725   -5.1689    1.1276 H   0  0  0  0  0  0  0  0  0  0  0  0
    0.9636   -5.3791   -0.5684 H   0  0  0  0  0  0  0  0  0  0  0  0
    2.2410   -5.4973    0.6438 H   0  0  0  0  0  0  0  0  0  0  0  0
   -0.4210   -0.2947   -1.5339 H   0  0  0  0  0  0  0  0  0  0  0  0
    0.0717    0.7745   -0.2403 H   0  0  0  0  0  0  0  0  0  0  0  0
    2.2268    1.0258   -1.0399 H   0  0  0  0  0  0  0  0  0  0  0  0
    2.0073    1.2090    0.7015 H   0  0  0  0  0  0  0  0  0  0  0  0
   -4.0367    0.3962   -3.0071 H   0  0  0  0  0  0  0  0  0  0  0  0
    6.7152    2.5575    0.0803 H   0  0  0  0  0  0  0  0  0  0  0  0
    4.5042    2.2460    2.3864 H   0  0  0  0  0  0  0  0  0  0  0  0
    1.3324   -4.9640    0.3716 C   0  0  0  0  0  0  0  0  0  0  0  0
  1  3  2  0
  1 12  1  0
  1 23  1  0
  2 12  1  0
  2 17  1  0
  4 19  2  0
  4 20  1  1
  4 21  1  0
  4 22  1  0
  5  6  2  0
  5 11  1  0
  6  7  1  0
  6 43  1  0
  7  8  1  0
  7  9  2  0
  9 10  1  0
  9 17  1  0
 10 11  2  0
 10 18  1  0
 12 13  2  0
 13 16  1  0
 14 15  1  0
 14 16  1  0
 18 22  1  0
  2 24  1  0
  8 25  1  0
 11 26  1  0
 13 27  1  0
 15 28  1  0
 15 29  1  0
 15 30  1  0
 16 31  1  0
 16 32  1  0
 43 33  1  0
 43 34  1  0
 43 35  1  0
 17 36  1  0
 17 37  1  0
 18 38  1  0
 18 39  1  0
 23 40  1  0
 20 41  1  0
 21 42  1  0
M  END
