
     RDKit          3D

 30 32  0  0  0  0  0  0  0  0999 V2000
    5.4275    0.0829    1.5520 C   0  0  0  0  0  0  0  0  0  0  0  0
    6.1113    0.1276    0.3445 C   0  0  0  0  0  0  0  0  0  0  0  0
    4.0587   -0.1425    1.5612 C   0  0  0  0  0  0  0  0  0  0  0  0
    5.4297   -0.0487   -0.8519 C   0  0  0  0  0  0  0  0  0  0  0  0
    3.3512   -0.3292    0.3768 C   0  0  0  0  0  0  0  0  0  0  0  0
   -2.4200   -0.5436    0.0998 C   0  0  0  0  0  0  0  0  0  0  0  0
    4.0674   -0.2687   -0.8103 C   0  0  0  0  0  0  0  0  0  0  0  0
   -2.7762    0.7769   -0.0991 C   0  0  0  0  0  0  0  0  0  0  0  0
   -3.4484   -1.5223    0.1897 C   0  0  0  0  0  0  0  0  0  0  0  0
   -4.9543    0.4034   -0.1417 C   0  0  0  0  0  0  0  0  0  0  0  0
   -0.6020    0.5322    0.0361 C   0  0  0  0  0  0  0  0  0  0  0  0
    1.8732   -0.5638    0.3845 C   0  0  0  0  0  0  0  0  0  0  0  0
   -4.0022    1.3006   -0.2221 N   0  0  0  0  0  0  0  0  0  0  0  0
   -1.5993    1.4556   -0.1386 N   0  0  0  0  0  0  0  0  0  0  0  0
   -4.7090   -0.9249    0.0505 N   0  0  0  0  0  0  0  0  0  0  0  0
   -1.0533   -0.6754    0.1820 N   0  0  0  0  0  0  0  0  0  0  0  0
   -3.3491   -2.7266    0.3610 O   0  0  0  0  0  0  0  0  0  0  0  0
    3.4042   -0.4350   -1.9652 F   0  0  0  0  0  0  0  0  0  0  0  0
    1.0663    1.0367    0.0477 S   0  0  0  0  0  0  0  0  0  0  0  0
    5.9580    0.2235    2.4838 H   0  0  0  0  0  0  0  0  0  0  0  0
    7.1793    0.2986    0.3276 H   0  0  0  0  0  0  0  0  0  0  0  0
    3.5228   -0.1820    2.5017 H   0  0  0  0  0  0  0  0  0  0  0  0
    5.9469   -0.0152   -1.8020 H   0  0  0  0  0  0  0  0  0  0  0  0
    1.5596   -1.2825   -0.3703 H   0  0  0  0  0  0  0  0  0  0  0  0
    1.5458   -0.9238    1.3583 H   0  0  0  0  0  0  0  0  0  0  0  0
   -1.4925    2.4514   -0.2629 H   0  0  0  0  0  0  0  0  0  0  0  0
   -5.4980   -1.5572    0.0944 H   0  0  0  0  0  0  0  0  0  0  0  0
   -6.9835    0.1609   -0.0090 H   0  0  0  0  0  0  0  0  0  0  0  0
   -6.4371    1.7590   -0.2682 H   0  0  0  0  0  0  0  0  0  0  0  0
   -6.2356    0.7735   -0.2861 N   0  0  0  0  0  0  0  0  0  0  0  0
 30 10  1  0
 13 10  2  0
 13  8  1  0
 10 15  1  0
  8 14  1  0
  8  6  2  0
 14 11  1  0
 15  9  1  0
  6  9  1  0
  6 16  1  0
  9 17  2  0
 11 16  2  0
 11 19  1  0
 19 12  1  0
  2  1  2  0
  2  4  1  0
  1  3  1  0
  4  7  2  0
  3  5  2  0
  7  5  1  0
  7 18  1  0
  5 12  1  0
  1 20  1  0
  2 21  1  0
  3 22  1  0
  4 23  1  0
 12 24  1  0
 12 25  1  0
 14 26  1  0
 15 27  1  0
 30 28  1  0
 30 29  1  0
M  END
