
     RDKit          3D

 23 23  0  0  0  0  0  0  0  0999 V2000
   -0.5922    0.7354   -1.4299 C   0  0  2  0  0  0  0  0  0  0  0  0
    0.9474    0.7354   -1.4299 C   0  0  0  0  0  0  0  0  0  0  0  0
    0.9538   -0.3562    0.7694 C   0  0  1  0  0  0  0  0  0  0  0  0
   -1.1475   -0.3588   -0.6035 C   0  0  1  0  0  0  0  0  0  0  0  0
    1.4400   -0.1970    2.1694 C   0  0  0  0  0  0  0  0  0  0  0  0
    1.4061   -1.5802    0.2608 O   0  0  0  0  0  0  0  0  0  0  0  0
   -0.5855   -0.3581    0.7734 C   0  0  2  0  0  0  0  0  0  0  0  0
   -1.0472    0.8086    1.4602 O   0  0  0  0  0  0  0  0  0  0  0  0
   -2.5987   -0.1972   -0.5206 O   0  0  0  0  0  0  0  0  0  0  0  0
   -1.0553    0.5782   -2.7784 O   0  0  0  0  0  0  0  0  0  0  0  0
    1.5057    0.7354   -0.0552 O   0  0  0  0  0  0  0  0  0  0  0  0
   -0.9431    1.6829   -1.0394 H   0  0  0  0  0  0  0  0  0  0  0  0
    1.2977    1.6187   -1.9501 H   0  0  0  0  0  0  0  0  0  0  0  0
    1.2977   -0.1478   -1.9503 H   0  0  0  0  0  0  0  0  0  0  0  0
   -0.9191   -1.3066   -1.0758 H   0  0  0  0  0  0  0  0  0  0  0  0
    1.1363    0.7710    2.5493 H   0  0  0  0  0  0  0  0  0  0  0  0
    2.5208   -0.2686    2.1866 H   0  0  0  0  0  0  0  0  0  0  0  0
    1.0165   -0.9775    2.7898 H   0  0  0  0  0  0  0  0  0  0  0  0
    2.3282   -1.6718    0.4353 H   0  0  0  0  0  0  0  0  0  0  0  0
   -0.9339   -1.2414    1.2949 H   0  0  0  0  0  0  0  0  0  0  0  0
   -1.7085    0.5639    2.0861 H   0  0  0  0  0  0  0  0  0  0  0  0
   -3.0204   -0.9876   -0.8148 H   0  0  0  0  0  0  0  0  0  0  0  0
   -1.2991    1.4196   -3.1272 H   0  0  0  0  0  0  0  0  0  0  0  0
 11  2  1  0
 11  3  1  0
  5  3  1  0
  2  1  1  0
  3  6  1  6
  3  7  1  0
  1 10  1  0
  1  4  1  0
  8  7  1  0
  7  4  1  0
  4  9  1  0
  1 12  1  1
  2 13  1  0
  2 14  1  0
  4 15  1  6
  5 16  1  0
  5 17  1  0
  5 18  1  0
  6 19  1  0
  7 20  1  1
  8 21  1  0
  9 22  1  0
 10 23  1  0
M  END
