
     RDKit          3D

 78 82  0  0  0  0  0  0  0  0999 V2000
    3.6327    0.7193   -0.7244 C   0  0  2  0  0  0  0  0  0  0  0  0
    1.1166   -2.5050   -0.3286 C   0  0  0  0  0  0  0  0  0  0  0  0
    0.2957   -4.7313    0.0510 C   0  0  0  0  0  0  0  0  0  0  0  0
    1.4168   -5.0219    0.8146 C   0  0  0  0  0  0  0  0  0  0  0  0
    2.3950   -4.0571    1.0175 C   0  0  0  0  0  0  0  0  0  0  0  0
    2.2176    2.7731   -0.8349 C   0  0  0  0  0  0  0  0  0  0  0  0
    1.4199    3.7982   -0.0758 C   0  0  0  0  0  0  0  0  0  0  0  0
   -0.6475    4.5787    0.9423 C   0  0  0  0  0  0  0  0  0  0  0  0
    2.0033    4.9745    0.3752 C   0  0  0  0  0  0  0  0  0  0  0  0
   -1.2298    1.5899    0.6601 C   0  0  0  0  0  0  0  0  0  0  0  0
   -1.6077    0.2591    0.0452 C   0  0  0  0  0  0  0  0  0  0  0  0
    0.1459   -3.4734   -0.5208 C   0  0  0  0  0  0  0  0  0  0  0  0
   -0.0135    5.7329    1.3719 C   0  0  0  0  0  0  0  0  0  0  0  0
   -4.2112    1.4233   -0.7257 C   0  0  0  0  0  0  0  0  0  0  0  0
   -5.2090    0.4598    1.2190 C   0  0  0  0  0  0  0  0  0  0  0  0
   -3.0136   -2.7886    1.0342 C   0  0  0  0  0  0  0  0  0  0  0  0
   -3.4028   -2.0070   -1.1918 C   0  0  0  0  0  0  0  0  0  0  0  0
    1.3278    5.9410    1.0927 C   0  0  0  0  0  0  0  0  0  0  0  0
   -5.3583    2.1758   -0.9508 C   0  0  0  0  0  0  0  0  0  0  0  0
   -6.3624    1.1992    1.0144 C   0  0  0  0  0  0  0  0  0  0  0  0
   -3.1829   -4.1025    0.6176 C   0  0  0  0  0  0  0  0  0  0  0  0
   -3.5685   -3.3118   -1.6319 C   0  0  0  0  0  0  0  0  0  0  0  0
   -4.1172    0.5563    0.3577 C   0  0  0  0  0  0  0  0  0  0  0  0
   -3.1202   -1.7264    0.1436 C   0  0  0  0  0  0  0  0  0  0  0  0
    0.0657    3.6168    0.2349 C   0  0  0  0  0  0  0  0  0  0  0  0
   -6.4152    2.0497   -0.0743 C   0  0  0  0  0  0  0  0  0  0  0  0
   -3.4543   -4.3396   -0.7135 C   0  0  0  0  0  0  0  0  0  0  0  0
    2.2336   -2.8071    0.4400 C   0  0  0  0  0  0  0  0  0  0  0  0
    5.9592   -0.8422   -1.3242 C   0  0  0  0  0  0  0  0  0  0  0  0
    5.0420    1.1874   -0.3618 C   0  0  0  0  0  0  0  0  0  0  0  0
    4.5412   -1.3320   -1.6374 C   0  0  1  0  0  0  0  0  0  0  0  0
    4.4651   -2.8355   -1.8402 C   0  0  0  0  0  0  0  0  0  0  0  0
    2.5337    1.5120   -0.0168 C   0  0  0  0  0  0  0  0  0  0  0  0
   -2.9028   -0.3067    0.6242 C   0  0  1  0  0  0  0  0  0  0  0  0
    3.5783   -0.7631   -0.6536 N   0  0  0  0  0  0  0  0  0  0  0  0
    6.0731    0.6024   -1.2009 N   0  0  0  0  0  0  0  0  0  0  0  0
   -1.4583    1.8539    1.8243 O   0  0  0  0  0  0  0  0  0  0  0  0
   -7.5277    2.7742   -0.2815 F   0  0  0  0  0  0  0  0  0  0  0  0
   -3.6087   -5.6071   -1.1328 F   0  0  0  0  0  0  0  0  0  0  0  0
    3.3058    5.1856    0.1131 F   0  0  0  0  0  0  0  0  0  0  0  0
    3.4205   -1.5371    0.8001 S   0  0  1  0  0  0  0  0  0  0  0  0
    3.4895    0.8994   -1.7963 H   0  0  0  0  0  0  0  0  0  0  0  0
    1.0199   -1.5365   -0.8018 H   0  0  0  0  0  0  0  0  0  0  0  0
   -0.4625   -5.4875   -0.1040 H   0  0  0  0  0  0  0  0  0  0  0  0
    1.5353   -6.0024    1.2558 H   0  0  0  0  0  0  0  0  0  0  0  0
    3.2695   -4.2893    1.6094 H   0  0  0  0  0  0  0  0  0  0  0  0
    1.6864    2.4803   -1.7449 H   0  0  0  0  0  0  0  0  0  0  0  0
    3.1446    3.2275   -1.1835 H   0  0  0  0  0  0  0  0  0  0  0  0
   -1.6987    4.4342    1.1446 H   0  0  0  0  0  0  0  0  0  0  0  0
   -0.3738    2.1002   -1.1128 H   0  0  0  0  0  0  0  0  0  0  0  0
   -1.6406    0.3175   -1.0452 H   0  0  0  0  0  0  0  0  0  0  0  0
   -0.7945   -0.4363    0.2806 H   0  0  0  0  0  0  0  0  0  0  0  0
   -0.7260   -3.2465   -1.1198 H   0  0  0  0  0  0  0  0  0  0  0  0
   -0.5688    6.4797    1.9228 H   0  0  0  0  0  0  0  0  0  0  0  0
   -5.1622   -0.2087    2.0708 H   0  0  0  0  0  0  0  0  0  0  0  0
   -2.7917   -2.5944    2.0764 H   0  0  0  0  0  0  0  0  0  0  0  0
   -3.4986   -1.2029   -1.9115 H   0  0  0  0  0  0  0  0  0  0  0  0
    1.8397    6.8361    1.4200 H   0  0  0  0  0  0  0  0  0  0  0  0
   -5.4201    2.8495   -1.7952 H   0  0  0  0  0  0  0  0  0  0  0  0
   -7.2031    1.1175    1.6907 H   0  0  0  0  0  0  0  0  0  0  0  0
   -3.0983   -4.9220    1.3188 H   0  0  0  0  0  0  0  0  0  0  0  0
   -3.7833   -3.5252   -2.6708 H   0  0  0  0  0  0  0  0  0  0  0  0
    6.3088   -1.3125   -0.4025 H   0  0  0  0  0  0  0  0  0  0  0  0
    6.6293   -1.1722   -2.1207 H   0  0  0  0  0  0  0  0  0  0  0  0
    5.1094    2.2746   -0.4440 H   0  0  0  0  0  0  0  0  0  0  0  0
    5.2364    0.9405    0.6880 H   0  0  0  0  0  0  0  0  0  0  0  0
    4.2343   -0.8761   -2.5840 H   0  0  0  0  0  0  0  0  0  0  0  0
    4.8198   -3.4079   -0.9853 H   0  0  0  0  0  0  0  0  0  0  0  0
    3.4544   -3.1579   -2.0850 H   0  0  0  0  0  0  0  0  0  0  0  0
    5.1032   -3.0902   -2.6868 H   0  0  0  0  0  0  0  0  0  0  0  0
    1.6299    0.9131    0.0814 H   0  0  0  0  0  0  0  0  0  0  0  0
    2.8420    1.7926    0.9905 H   0  0  0  0  0  0  0  0  0  0  0  0
   -2.7730   -0.3516    1.7080 H   0  0  0  0  0  0  0  0  0  0  0  0
    6.0076    1.0138   -2.1242 H   0  0  0  0  0  0  0  0  0  0  0  0
   -0.5724    2.4317   -0.1806 N   0  0  0  0  0  0  0  0  0  0  0  0
    2.8024   -0.6196    1.7463 O   0  0  0  0  0  0  0  0  0  0  0  0
    4.6503   -2.1920    1.2332 O   0  0  0  0  0  0  0  0  0  0  0  0
   -3.3910    1.5331   -1.4236 H   0  0  0  0  0  0  0  0  0  0  0  0
 39 27  1  0
 27 21  1  0
 27 22  2  0
 21 16  2  0
 22 17  1  0
 16 24  1  0
 38 26  1  0
 17 24  2  0
 20 26  2  0
 20 15  1  0
 24 34  1  0
 26 19  1  0
 15 23  2  0
 19 14  2  0
  4  3  2  0
  4  5  1  0
 23 14  1  0
 23 34  1  0
  3 12  1  0
 34 11  1  0
  5 28  2  0
 12  2  2  0
 11 10  1  0
 76 41  2  0
 28  2  1  0
 41 28  1  6
 41 77  2  0
 41 35  1  0
 10 75  1  0
 10 37  2  0
 30  1  1  0
 30 36  1  0
  1 35  1  0
  1 33  1  0
 75 25  1  0
 35 31  1  0
 33  6  1  0
  6  7  1  0
 36 29  1  0
 29 31  1  0
 31 32  1  0
 25  7  1  0
 25  8  2  0
  7  9  2  0
  8 13  1  0
  9 40  1  0
  9 18  1  0
 13 18  2  0
  1 42  1  6
  2 43  1  0
  3 44  1  0
  4 45  1  0
  5 46  1  0
  6 47  1  0
  6 48  1  0
  8 49  1  0
 75 50  1  0
 11 51  1  0
 11 52  1  0
 12 53  1  0
 13 54  1  0
 14 78  1  0
 15 55  1  0
 16 56  1  0
 17 57  1  0
 18 58  1  0
 19 59  1  0
 20 60  1  0
 21 61  1  0
 22 62  1  0
 29 63  1  0
 29 64  1  0
 30 65  1  0
 30 66  1  0
 31 67  1  6
 32 68  1  0
 32 69  1  0
 32 70  1  0
 33 71  1  0
 33 72  1  0
 34 73  1  1
 36 74  1  0
M  END
