
     RDKit          3D

 58 61  0  0  0  0  0  0  0  0999 V2000
   -6.5321    1.0962    0.6450 C   0  0  0  0  0  0  0  0  0  0  0  0
   -6.7641    2.4724    0.0258 C   0  0  0  0  0  0  0  0  0  0  0  0
   -7.4356    2.3667   -1.3393 C   0  0  0  0  0  0  0  0  0  0  0  0
   -6.6389    1.4632   -2.2740 C   0  0  0  0  0  0  0  0  0  0  0  0
   -6.4240    0.0840   -1.6563 C   0  0  0  0  0  0  0  0  0  0  0  0
   -5.7346    0.1906   -0.2907 C   0  0  2  0  0  0  0  0  0  0  0  0
   -5.4173   -1.0874    0.3409 N   0  0  0  0  0  0  0  0  0  0  0  0
   -6.5248   -2.0214    0.4560 C   0  0  0  0  0  0  0  0  0  0  0  0
   -6.3879   -2.9240    1.6725 C   0  0  0  0  0  0  0  0  0  0  0  0
   -4.2227   -1.6907   -0.2054 C   0  0  0  0  0  0  0  0  0  0  0  0
   -2.9634   -0.9838    0.2307 C   0  0  0  0  0  0  0  0  0  0  0  0
   -2.8384   -0.4771    1.5208 C   0  0  0  0  0  0  0  0  0  0  0  0
   -1.6588    0.1243    1.9338 C   0  0  0  0  0  0  0  0  0  0  0  0
   -1.8798   -0.8596   -0.6331 C   0  0  0  0  0  0  0  0  0  0  0  0
   -0.6998   -0.2554   -0.2217 C   0  0  0  0  0  0  0  0  0  0  0  0
   -0.5741    0.2452    1.0700 C   0  0  0  0  0  0  0  0  0  0  0  0
    0.6829    0.9424    1.5302 C   0  0  0  0  0  0  0  0  0  0  0  0
    1.8917    0.2955    1.0791 N   0  0  0  0  0  0  0  0  0  0  0  0
    2.7131    0.7980    0.1435 C   0  0  0  0  0  0  0  0  0  0  0  0
    2.5632    1.8758   -0.4061 O   0  0  0  0  0  0  0  0  0  0  0  0
    3.8390   -0.1077   -0.2310 C   0  0  0  0  0  0  0  0  0  0  0  0
    5.2168    0.2625   -0.2822 C   0  0  0  0  0  0  0  0  0  0  0  0
    5.8590    1.4550    0.2169 C   0  0  0  0  0  0  0  0  0  0  0  0
    5.3348    2.3889    0.7919 O   0  0  0  0  0  0  0  0  0  0  0  0
    7.2307    1.4287   -0.0157 N   0  0  0  0  0  0  0  0  0  0  0  0
    7.9035    0.4025   -0.5754 C   0  0  0  0  0  0  0  0  0  0  0  0
    7.3540   -0.6942   -0.9776 N   0  0  0  0  0  0  0  0  0  0  0  0
    6.0134   -0.7367   -0.8113 C   0  0  0  0  0  0  0  0  0  0  0  0
    5.0858   -2.1224   -1.2423 S   0  0  0  0  0  0  0  0  0  0  0  0
    3.6369   -1.3637   -0.7070 C   0  0  0  0  0  0  0  0  0  0  0  0
   -5.9948    1.1878    1.5924 H   0  0  0  0  0  0  0  0  0  0  0  0
   -7.5018    0.6418    0.8753 H   0  0  0  0  0  0  0  0  0  0  0  0
   -7.3676    3.0863    0.6989 H   0  0  0  0  0  0  0  0  0  0  0  0
   -5.8034    2.9880   -0.0834 H   0  0  0  0  0  0  0  0  0  0  0  0
   -8.4445    1.9577   -1.2145 H   0  0  0  0  0  0  0  0  0  0  0  0
   -7.5564    3.3591   -1.7809 H   0  0  0  0  0  0  0  0  0  0  0  0
   -7.1479    1.3670   -3.2364 H   0  0  0  0  0  0  0  0  0  0  0  0
   -5.6674    1.9240   -2.4839 H   0  0  0  0  0  0  0  0  0  0  0  0
   -7.3970   -0.4070   -1.5426 H   0  0  0  0  0  0  0  0  0  0  0  0
   -5.8359   -0.5442   -2.3324 H   0  0  0  0  0  0  0  0  0  0  0  0
   -4.7706    0.6896   -0.4528 H   0  0  0  0  0  0  0  0  0  0  0  0
   -7.4505   -1.4531    0.5570 H   0  0  0  0  0  0  0  0  0  0  0  0
   -6.6460   -2.6357   -0.4495 H   0  0  0  0  0  0  0  0  0  0  0  0
   -7.2390   -3.6026    1.7431 H   0  0  0  0  0  0  0  0  0  0  0  0
   -5.4862   -3.5369    1.6325 H   0  0  0  0  0  0  0  0  0  0  0  0
   -6.3463   -2.3301    2.5857 H   0  0  0  0  0  0  0  0  0  0  0  0
   -4.1652   -2.7270    0.1407 H   0  0  0  0  0  0  0  0  0  0  0  0
   -4.2392   -1.7540   -1.3055 H   0  0  0  0  0  0  0  0  0  0  0  0
   -3.6796   -0.5493    2.1987 H   0  0  0  0  0  0  0  0  0  0  0  0
   -1.5802    0.5047    2.9461 H   0  0  0  0  0  0  0  0  0  0  0  0
   -1.9587   -1.2358   -1.6469 H   0  0  0  0  0  0  0  0  0  0  0  0
    0.1217   -0.1729   -0.9234 H   0  0  0  0  0  0  0  0  0  0  0  0
    0.6970    1.9716    1.1708 H   0  0  0  0  0  0  0  0  0  0  0  0
    0.6955    0.9931    2.6204 H   0  0  0  0  0  0  0  0  0  0  0  0
    2.1236   -0.5938    1.4929 H   0  0  0  0  0  0  0  0  0  0  0  0
    8.9722    0.5395   -0.6725 H   0  0  0  0  0  0  0  0  0  0  0  0
    2.6957   -1.8832   -0.8097 H   0  0  0  0  0  0  0  0  0  0  0  0
    7.7644    2.2316    0.2932 H   0  0  0  0  0  0  0  0  0  0  0  0
  9  8  1  0
  8  7  1  0
  3  4  1  0
  3  2  1  0
  4  5  1  0
  6  1  1  0
  6  7  1  0
  6  5  1  0
  1  2  1  0
  7 10  1  0
 10 11  1  0
 11 12  2  0
 11 14  1  0
 12 13  1  0
 14 15  2  0
 13 16  2  0
 15 16  1  0
 16 17  1  0
 17 18  1  0
 18 19  1  0
 20 19  2  0
 24 23  2  0
 19 21  1  0
 23 22  1  0
 23 25  1  0
 21 22  1  0
 21 30  2  0
 22 28  2  0
 25 26  1  0
 30 29  1  0
 28 29  1  0
 28 27  1  0
 26 27  2  0
  1 31  1  0
  1 32  1  0
  2 33  1  0
  2 34  1  0
  3 35  1  0
  3 36  1  0
  4 37  1  0
  4 38  1  0
  5 39  1  0
  5 40  1  0
  6 41  1  6
  8 42  1  0
  8 43  1  0
  9 44  1  0
  9 45  1  0
  9 46  1  0
 10 47  1  0
 10 48  1  0
 12 49  1  0
 13 50  1  0
 14 51  1  0
 15 52  1  0
 17 53  1  0
 17 54  1  0
 18 55  1  0
 26 56  1  0
 30 57  1  0
 25 58  1  0
M  END
