
     RDKit          3D

 61 65  0  0  0  0  0  0  0  0999 V2000
    4.2312    3.7311   -0.4565 C   0  0  0  0  0  0  0  0  0  0  0  0
    3.8440    2.3886   -0.3549 C   0  0  0  0  0  0  0  0  0  0  0  0
    6.1361    1.7227   -0.8002 C   0  0  0  0  0  0  0  0  0  0  0  0
    2.5819   -1.5379   -0.0481 C   0  0  0  0  0  0  0  0  0  0  0  0
   -0.1129    1.7803    0.5006 C   0  0  0  0  0  0  0  0  0  0  0  0
    2.0839   -2.1883   -1.1615 C   0  0  0  0  0  0  0  0  0  0  0  0
    1.6165   -3.4920   -1.0649 C   0  0  0  0  0  0  0  0  0  0  0  0
    2.1719   -3.4919    1.2818 C   0  0  0  0  0  0  0  0  0  0  0  0
    0.6639   -6.1126   -0.7308 C   0  0  0  0  0  0  0  0  0  0  0  0
   -1.4818    1.4171    0.7953 N   0  0  0  0  0  0  0  0  0  0  0  0
   -1.9761    1.2268    2.0697 C   0  0  0  0  0  0  0  0  0  0  0  0
   -3.3960    0.8302    1.9038 C   0  0  0  0  0  0  0  0  0  0  0  0
   -3.6708    0.7895    0.5451 C   0  0  0  0  0  0  0  0  0  0  0  0
    6.5038    3.0468   -0.8970 C   0  0  0  0  0  0  0  0  0  0  0  0
    2.5297    2.0953   -0.0847 N   0  0  0  0  0  0  0  0  0  0  0  0
    5.5443    4.0512   -0.7245 C   0  0  0  0  0  0  0  0  0  0  0  0
    4.8058    1.3872   -0.5302 C   0  0  0  0  0  0  0  0  0  0  0  0
    2.1739    0.8670    0.0059 C   0  0  0  0  0  0  0  0  0  0  0  0
    3.0461   -0.1890   -0.1557 N   0  0  0  0  0  0  0  0  0  0  0  0
    4.3989   -0.0063   -0.4268 C   0  0  0  0  0  0  0  0  0  0  0  0
    1.6587   -4.1527    0.1615 C   0  0  0  0  0  0  0  0  0  0  0  0
    2.6309   -2.1943    1.1751 C   0  0  0  0  0  0  0  0  0  0  0  0
    1.2332   -5.4105    0.3585 O   0  0  0  0  0  0  0  0  0  0  0  0
   -2.4406    1.1603   -0.1819 C   0  0  0  0  0  0  0  0  0  0  0  0
   -4.3334    0.5261    2.8618 C   0  0  0  0  0  0  0  0  0  0  0  0
   -5.5971    0.1652    2.3947 C   0  0  0  0  0  0  0  0  0  0  0  0
   -5.8952    0.1133    1.0410 C   0  0  0  0  0  0  0  0  0  0  0  0
   -4.9275    0.4263    0.0712 C   0  0  0  0  0  0  0  0  0  0  0  0
   -2.2382    1.2418   -1.3672 O   0  0  0  0  0  0  0  0  0  0  0  0
   -1.3524    1.3610    3.0935 O   0  0  0  0  0  0  0  0  0  0  0  0
   -5.1087    0.3910   -1.2440 O   0  0  0  0  0  0  0  0  0  0  0  0
   -6.3724    0.0023   -1.8105 C   0  0  1  0  0  0  0  0  0  0  0  0
   -7.3526    1.1611   -1.7788 C   0  0  0  0  0  0  0  0  0  0  0  0
   -6.0734   -0.4555   -3.2230 C   0  0  0  0  0  0  0  0  0  0  0  0
    3.4842    4.5024   -0.3220 H   0  0  0  0  0  0  0  0  0  0  0  0
    6.8704    0.9393   -0.9309 H   0  0  0  0  0  0  0  0  0  0  0  0
    0.6941   -0.0978    1.1914 H   0  0  0  0  0  0  0  0  0  0  0  0
    0.3352   -0.0660   -0.5155 H   0  0  0  0  0  0  0  0  0  0  0  0
    0.2637    2.3852    1.3223 H   0  0  0  0  0  0  0  0  0  0  0  0
   -0.1059    2.4053   -0.3898 H   0  0  0  0  0  0  0  0  0  0  0  0
    2.0499   -1.6787   -2.1163 H   0  0  0  0  0  0  0  0  0  0  0  0
    1.2271   -3.9688   -1.9532 H   0  0  0  0  0  0  0  0  0  0  0  0
    2.2041   -4.0036    2.2352 H   0  0  0  0  0  0  0  0  0  0  0  0
   -0.2286   -5.6116   -1.1135 H   0  0  0  0  0  0  0  0  0  0  0  0
    1.3760   -6.2425   -1.5493 H   0  0  0  0  0  0  0  0  0  0  0  0
    0.3827   -7.0920   -0.3528 H   0  0  0  0  0  0  0  0  0  0  0  0
    7.5313    3.3112   -1.1063 H   0  0  0  0  0  0  0  0  0  0  0  0
    5.8366    5.0902   -0.8035 H   0  0  0  0  0  0  0  0  0  0  0  0
    3.0213   -1.6877    2.0485 H   0  0  0  0  0  0  0  0  0  0  0  0
   -4.1096    0.5616    3.9189 H   0  0  0  0  0  0  0  0  0  0  0  0
   -6.3769   -0.0842    3.1019 H   0  0  0  0  0  0  0  0  0  0  0  0
   -6.8949   -0.1788    0.7531 H   0  0  0  0  0  0  0  0  0  0  0  0
   -6.7720   -0.8455   -1.2451 H   0  0  0  0  0  0  0  0  0  0  0  0
   -8.2997    0.8488   -2.2187 H   0  0  0  0  0  0  0  0  0  0  0  0
   -7.5608    1.5089   -0.7669 H   0  0  0  0  0  0  0  0  0  0  0  0
   -6.9738    2.0046   -2.3578 H   0  0  0  0  0  0  0  0  0  0  0  0
   -5.3684   -1.2867   -3.2306 H   0  0  0  0  0  0  0  0  0  0  0  0
   -6.9930   -0.7936   -3.6995 H   0  0  0  0  0  0  0  0  0  0  0  0
   -5.6629    0.3578   -3.8232 H   0  0  0  0  0  0  0  0  0  0  0  0
    0.7433    0.5352    0.3014 C   0  0  0  0  0  0  0  0  0  0  0  0
    5.1403   -0.9599   -0.5597 O   0  0  0  0  0  0  0  0  0  0  0  0
 33 32  1  0
 34 32  1  0
 32 31  1  0
 31 28  1  0
 28 27  2  0
 28 13  1  0
 27 26  1  0
 29 24  2  0
 13 24  1  0
 13 12  2  0
 26 25  2  0
 24 10  1  0
 12 25  1  0
 12 11  1  0
 10 11  1  0
 10  5  1  0
 11 30  2  0
 60  5  1  0
 60 18  1  0
 15 18  2  0
 15  2  1  0
 18 19  1  0
  1  2  2  0
  1 16  1  0
  2 17  1  0
 22  8  2  0
 22  4  1  0
 19  4  1  0
 19 20  1  0
  8 21  1  0
 16 14  2  0
  4  6  2  0
 21 23  1  0
 21  7  2  0
  6  7  1  0
 17 20  1  0
 17  3  2  0
 23  9  1  0
 20 61  2  0
 14  3  1  0
  1 35  1  0
  3 36  1  0
 60 37  1  0
 60 38  1  0
  5 39  1  0
  5 40  1  0
  6 41  1  0
  7 42  1  0
  8 43  1  0
  9 44  1  0
  9 45  1  0
  9 46  1  0
 14 47  1  0
 16 48  1  0
 22 49  1  0
 25 50  1  0
 26 51  1  0
 27 52  1  0
 32 53  1  1
 33 54  1  0
 33 55  1  0
 33 56  1  0
 34 57  1  0
 34 58  1  0
 34 59  1  0
M  END
