
     RDKit          3D

 21 21  0  0  0  0  0  0  0  0999 V2000
    0.6832    0.3459    2.0717 C   0  0  0  0  0  0  0  0  0  0  0  0
    0.0463   -0.2337    0.8262 C   0  0  2  0  0  0  0  0  0  0  0  0
    0.7900    0.1975   -0.4425 C   0  0  2  0  0  0  0  0  0  0  0  0
    0.0104   -0.2386   -1.6770 C   0  0  1  0  0  0  0  0  0  0  0  0
   -1.4483    0.1812   -1.5406 C   0  0  0  0  0  0  0  0  0  0  0  0
    0.0369   -0.1834    3.2052 O   0  0  0  0  0  0  0  0  0  0  0  0
   -1.2813    0.2398    0.7701 O   0  0  0  0  0  0  0  0  0  0  0  0
    2.0786   -0.3659   -0.4111 O   0  0  0  0  0  0  0  0  0  0  0  0
    0.6345    0.3424   -2.7998 O   0  0  0  0  0  0  0  0  0  0  0  0
   -1.9492   -0.3955   -0.3057 N   0  0  0  0  0  0  0  0  0  0  0  0
    0.6112    1.4420    2.0355 H   0  0  0  0  0  0  0  0  0  0  0  0
    1.7491    0.0963    2.0590 H   0  0  0  0  0  0  0  0  0  0  0  0
    0.0546   -1.3325    0.8884 H   0  0  0  0  0  0  0  0  0  0  0  0
    0.8372    1.2995   -0.4475 H   0  0  0  0  0  0  0  0  0  0  0  0
    0.0455   -1.3361   -1.7292 H   0  0  0  0  0  0  0  0  0  0  0  0
   -2.0411   -0.2280   -2.3624 H   0  0  0  0  0  0  0  0  0  0  0  0
   -1.5357    1.2757   -1.5726 H   0  0  0  0  0  0  0  0  0  0  0  0
    0.5030    0.1304    3.9851 H   0  0  0  0  0  0  0  0  0  0  0  0
    2.5519   -0.0699   -1.1953 H   0  0  0  0  0  0  0  0  0  0  0  0
    0.3561   -0.1345   -3.5873 H   0  0  0  0  0  0  0  0  0  0  0  0
   -2.9155   -0.1225   -0.1679 H   0  0  0  0  0  0  0  0  0  0  0  0
  1  2  1  0
  1  6  1  0
  1 11  1  0
  1 12  1  0
  2  3  1  0
  2  7  1  0
  2 13  1  1
  3  4  1  0
  3  8  1  0
  3 14  1  1
  4  5  1  0
  4  9  1  0
  4 15  1  6
  5 10  1  0
  5 16  1  0
  5 17  1  0
  6 18  1  0
  7 10  1  0
  8 19  1  0
  9 20  1  0
 10 21  1  0
M  END
