
     RDKit          3D

 71 76  0  0  0  0  0  0  0  0999 V2000
    4.8978    0.1727   -0.1168 C   0  0  0  0  0  0  0  0  0  0  0  0
    3.9695    1.0748   -0.0479 N   0  0  0  0  0  0  0  0  0  0  0  0
    4.2757    2.3996   -0.0988 C   0  0  0  0  0  0  0  0  0  0  0  0
    5.5548    2.8414   -0.2175 C   0  0  0  0  0  0  0  0  0  0  0  0
    6.2704    0.5474   -0.2302 C   0  0  0  0  0  0  0  0  0  0  0  0
    6.5441    1.8890   -0.2738 N   0  0  0  0  0  0  0  0  0  0  0  0
    7.8978    2.0066   -0.3789 C   0  0  0  0  0  0  0  0  0  0  0  0
    8.3729    0.7177   -0.3900 C   0  0  0  0  0  0  0  0  0  0  0  0
    7.3636   -0.1804   -0.2982 N   0  0  0  0  0  0  0  0  0  0  0  0
    4.5969   -1.1540   -0.0742 N   0  0  0  0  0  0  0  0  0  0  0  0
    3.3093   -1.6639    0.1200 C   0  0  0  0  0  0  0  0  0  0  0  0
    2.2075   -1.1483   -0.5650 C   0  0  0  0  0  0  0  0  0  0  0  0
    0.9383   -1.6234   -0.2918 C   0  0  0  0  0  0  0  0  0  0  0  0
    0.7427   -2.6594    0.6164 C   0  0  0  0  0  0  0  0  0  0  0  0
    1.8497   -3.2212    1.2429 C   0  0  0  0  0  0  0  0  0  0  0  0
    3.1205   -2.7184    1.0101 C   0  0  0  0  0  0  0  0  0  0  0  0
    3.1110    3.3074   -0.0281 C   0  0  0  0  0  0  0  0  0  0  0  0
   -0.6534   -3.0360    0.9907 C   0  0  0  0  0  0  0  0  0  0  0  0
   -1.4022   -2.1692    1.4278 O   0  0  0  0  0  0  0  0  0  0  0  0
   -1.0163   -4.3285    0.8696 N   0  0  0  0  0  0  0  0  0  0  0  0
   -2.3521   -4.7575    1.2536 C   0  0  0  0  0  0  0  0  0  0  0  0
   -3.1744   -5.0512    0.0106 C   0  0  0  0  0  0  0  0  0  0  0  0
   -2.5333   -6.0037   -0.8110 O   0  0  0  0  0  0  0  0  0  0  0  0
   -1.2456   -5.5814   -1.1965 C   0  0  0  0  0  0  0  0  0  0  0  0
   -0.3573   -5.2961    0.0060 C   0  0  0  0  0  0  0  0  0  0  0  0
    1.8416    2.7484   -0.0945 C   0  0  0  0  0  0  0  0  0  0  0  0
    0.6886    3.5273   -0.0383 C   0  0  0  0  0  0  0  0  0  0  0  0
    0.8036    4.9091    0.0956 C   0  0  0  0  0  0  0  0  0  0  0  0
    2.0753    5.4667    0.1692 C   0  0  0  0  0  0  0  0  0  0  0  0
    3.2214    4.6920    0.1113 C   0  0  0  0  0  0  0  0  0  0  0  0
   -0.5158    2.8199   -0.1292 N   0  0  0  0  0  0  0  0  0  0  0  0
   -1.7911    3.2600   -0.0310 C   0  0  0  0  0  0  0  0  0  0  0  0
   -2.8286    2.1826   -0.1446 C   0  0  0  0  0  0  0  0  0  0  0  0
   -2.1080    4.4262    0.1144 O   0  0  0  0  0  0  0  0  0  0  0  0
   -2.5980    0.8658    0.2493 C   0  0  0  0  0  0  0  0  0  0  0  0
   -3.5899   -0.0915    0.1144 C   0  0  0  0  0  0  0  0  0  0  0  0
   -4.8176    0.2807   -0.4100 C   0  0  0  0  0  0  0  0  0  0  0  0
   -5.0745    1.5889   -0.7931 C   0  0  0  0  0  0  0  0  0  0  0  0
   -4.0768    2.5383   -0.6495 C   0  0  0  0  0  0  0  0  0  0  0  0
   -6.0820   -0.9572   -0.5872 S   0  0  1  0  0  0  0  0  0  0  0  0
   -6.8648   -0.9821    1.0081 C   0  0  0  0  0  0  0  0  0  0  0  0
   -7.0501   -0.4859   -1.5740 O   0  0  0  0  0  0  0  0  0  0  0  0
   -5.4237   -2.2436   -0.8008 O   0  0  0  0  0  0  0  0  0  0  0  0
    5.8649    3.8721   -0.2843 H   0  0  0  0  0  0  0  0  0  0  0  0
    8.3908    2.9619   -0.4352 H   0  0  0  0  0  0  0  0  0  0  0  0
    9.4044    0.4091   -0.4613 H   0  0  0  0  0  0  0  0  0  0  0  0
    5.3714   -1.7788    0.0952 H   0  0  0  0  0  0  0  0  0  0  0  0
    2.3371   -0.3725   -1.3038 H   0  0  0  0  0  0  0  0  0  0  0  0
    0.0913   -1.1921   -0.8113 H   0  0  0  0  0  0  0  0  0  0  0  0
    1.7267   -4.0320    1.9500 H   0  0  0  0  0  0  0  0  0  0  0  0
    3.9671   -3.1337    1.5427 H   0  0  0  0  0  0  0  0  0  0  0  0
   -2.2605   -5.6595    1.8654 H   0  0  0  0  0  0  0  0  0  0  0  0
   -2.8342   -3.9922    1.8563 H   0  0  0  0  0  0  0  0  0  0  0  0
   -4.1432   -5.4655    0.2929 H   0  0  0  0  0  0  0  0  0  0  0  0
   -3.3552   -4.1167   -0.5382 H   0  0  0  0  0  0  0  0  0  0  0  0
   -0.8062   -6.3777   -1.7990 H   0  0  0  0  0  0  0  0  0  0  0  0
   -1.3025   -4.6770   -1.8191 H   0  0  0  0  0  0  0  0  0  0  0  0
    0.6030   -4.9212   -0.3390 H   0  0  0  0  0  0  0  0  0  0  0  0
   -0.1712   -6.2136    0.5710 H   0  0  0  0  0  0  0  0  0  0  0  0
    1.7549    1.6733   -0.1838 H   0  0  0  0  0  0  0  0  0  0  0  0
   -0.0629    5.5474    0.1421 H   0  0  0  0  0  0  0  0  0  0  0  0
    2.1665    6.5395    0.2769 H   0  0  0  0  0  0  0  0  0  0  0  0
    4.1871    5.1740    0.1875 H   0  0  0  0  0  0  0  0  0  0  0  0
   -0.3942    1.8369   -0.3148 H   0  0  0  0  0  0  0  0  0  0  0  0
   -1.6590    0.5553    0.6903 H   0  0  0  0  0  0  0  0  0  0  0  0
   -3.3883   -1.1088    0.4212 H   0  0  0  0  0  0  0  0  0  0  0  0
   -6.0340    1.8746   -1.2019 H   0  0  0  0  0  0  0  0  0  0  0  0
   -4.2707    3.5596   -0.9468 H   0  0  0  0  0  0  0  0  0  0  0  0
   -7.2862   -0.0018    1.2178 H   0  0  0  0  0  0  0  0  0  0  0  0
   -7.6560   -1.7304    0.9711 H   0  0  0  0  0  0  0  0  0  0  0  0
   -6.1323   -1.2498    1.7659 H   0  0  0  0  0  0  0  0  0  0  0  0
 19 18  2  0
 25 24  1  0
 25 20  1  0
 24 23  1  0
 18 20  1  0
 18 14  1  0
 20 21  1  0
 23 22  1  0
 13 14  1  0
 13 12  2  0
 14 15  2  0
 43 40  2  0
 21 22  1  0
 12 11  1  0
 15 16  1  0
 42 40  2  0
 40 37  1  0
 40 41  1  1
 36 35  2  0
 36 37  1  0
 11 16  2  0
 11 10  1  0
 35 33  1  0
 37 38  2  0
 10  1  1  0
 34 32  2  0
 33 39  2  0
 33 32  1  0
 38 39  1  0
 32 31  1  0
  1  2  2  0
  1  5  1  0
  2  3  1  0
  9  5  2  0
  9  8  1  0
  5  6  1  0
 31 27  1  0
 26 27  2  0
 26 17  1  0
  8  7  2  0
  3 17  1  0
  3  4  2  0
 27 28  1  0
  6  4  1  0
  6  7  1  0
 17 30  2  0
 28 29  2  0
 30 29  1  0
  4 44  1  0
  7 45  1  0
  8 46  1  0
 10 47  1  0
 12 48  1  0
 13 49  1  0
 15 50  1  0
 16 51  1  0
 21 52  1  0
 21 53  1  0
 22 54  1  0
 22 55  1  0
 24 56  1  0
 24 57  1  0
 25 58  1  0
 25 59  1  0
 26 60  1  0
 28 61  1  0
 29 62  1  0
 30 63  1  0
 31 64  1  0
 35 65  1  0
 36 66  1  0
 38 67  1  0
 39 68  1  0
 41 69  1  0
 41 70  1  0
 41 71  1  0
M  END
