
     RDKit          3D

 34 36  0  0  0  0  0  0  0  0999 V2000
    2.5735    3.0710    0.0827 C   0  0  0  0  0  0  0  0  0  0  0  0
    2.9176    1.6209    0.0128 C   0  0  0  0  0  0  0  0  0  0  0  0
    4.2013    1.0684   -0.0323 C   0  0  0  0  0  0  0  0  0  0  0  0
    4.0726   -0.3158   -0.1143 C   0  0  0  0  0  0  0  0  0  0  0  0
    5.1228   -1.3645   -0.1780 C   0  0  0  0  0  0  0  0  0  0  0  0
    2.7642   -0.6052   -0.1205 N   0  0  0  0  0  0  0  0  0  0  0  0
    2.0160    0.5458   -0.0436 C   0  0  0  0  0  0  0  0  0  0  0  0
    0.6087    0.6219   -0.0212 C   0  0  0  0  0  0  0  0  0  0  0  0
   -0.3678   -0.3299   -0.0798 C   0  0  0  0  0  0  0  0  0  0  0  0
   -1.7995   -0.0698   -0.0481 C   0  0  0  0  0  0  0  0  0  0  0  0
   -2.5392    1.0983    0.0436 C   0  0  0  0  0  0  0  0  0  0  0  0
   -3.9378    1.0324    0.0470 C   0  0  0  0  0  0  0  0  0  0  0  0
   -4.6957    2.1967    0.0785 N   0  0  0  0  0  0  0  0  0  0  0  0
   -4.5608   -0.2193   -0.0403 C   0  0  0  0  0  0  0  0  0  0  0  0
   -3.8238   -1.3963   -0.1320 C   0  0  0  0  0  0  0  0  0  0  0  0
   -2.4481   -1.3054   -0.1354 C   0  0  0  0  0  0  0  0  0  0  0  0
   -1.4823   -2.3049   -0.2155 N   0  0  0  0  0  0  0  0  0  0  0  0
   -0.2217   -1.7958   -0.1883 C   0  0  0  0  0  0  0  0  0  0  0  0
    0.7997   -2.4825   -0.2464 O   0  0  0  0  0  0  0  0  0  0  0  0
    2.2167    3.4472   -0.8781 H   0  0  0  0  0  0  0  0  0  0  0  0
    1.7944    3.2750    0.8179 H   0  0  0  0  0  0  0  0  0  0  0  0
    3.4474    3.6598    0.3576 H   0  0  0  0  0  0  0  0  0  0  0  0
    5.1360    1.6083   -0.0063 H   0  0  0  0  0  0  0  0  0  0  0  0
    5.0588   -2.0436    0.6738 H   0  0  0  0  0  0  0  0  0  0  0  0
    5.0320   -1.9679   -1.0828 H   0  0  0  0  0  0  0  0  0  0  0  0
    6.1116   -0.9116   -0.1733 H   0  0  0  0  0  0  0  0  0  0  0  0
    2.3256   -1.5253   -0.1730 H   0  0  0  0  0  0  0  0  0  0  0  0
    0.2481    1.6435    0.0588 H   0  0  0  0  0  0  0  0  0  0  0  0
   -2.0475    2.0626    0.1140 H   0  0  0  0  0  0  0  0  0  0  0  0
   -4.2405    2.9771    0.5257 H   0  0  0  0  0  0  0  0  0  0  0  0
   -5.6269    2.0780    0.4466 H   0  0  0  0  0  0  0  0  0  0  0  0
   -5.6427   -0.2751   -0.0369 H   0  0  0  0  0  0  0  0  0  0  0  0
   -4.3286   -2.3518   -0.1968 H   0  0  0  0  0  0  0  0  0  0  0  0
   -1.6775   -3.2915   -0.2807 H   0  0  0  0  0  0  0  0  0  0  0  0
  1  2  1  0
  2  3  1  0
  2  7  2  0
  3  4  2  0
  4  5  1  0
  4  6  1  0
  6  7  1  0
  7  8  1  0
  8  9  2  0
  9 10  1  0
  9 18  1  0
 10 11  2  0
 10 16  1  0
 11 12  1  0
 12 13  1  0
 12 14  2  0
 14 15  1  0
 15 16  2  0
 16 17  1  0
 17 18  1  0
 18 19  2  0
  1 20  1  0
  1 21  1  0
  1 22  1  0
  3 23  1  0
  5 24  1  0
  5 25  1  0
  5 26  1  0
  6 27  1  0
  8 28  1  0
 11 29  1  0
 13 30  1  0
 13 31  1  0
 14 32  1  0
 15 33  1  0
 17 34  1  0
M  END
