
     RDKit          3D

 37 38  0  0  0  0  0  0  0  0999 V2000
   -0.8781    2.2538   -0.2343 C   0  0  0  0  0  0  0  0  0  0  0  0
   -0.3275    0.9746   -0.0932 C   0  0  0  0  0  0  0  0  0  0  0  0
    1.0649    0.8611    0.1216 C   0  0  0  0  0  0  0  0  0  0  0  0
    1.7939    2.0282    0.1842 C   0  0  0  0  0  0  0  0  0  0  0  0
   -0.0431    3.3833   -0.1408 C   0  0  0  0  0  0  0  0  0  0  0  0
   -2.3847   -0.2970   -0.3893 N   0  0  0  0  0  0  0  0  0  0  0  0
   -3.1230   -1.5304   -0.3532 C   0  0  1  0  0  0  0  0  0  0  0  0
   -3.8256   -1.6956    1.0041 C   0  0  0  0  0  0  0  0  0  0  0  0
   -3.3429   -1.4712    2.0903 O   0  0  0  0  0  0  0  0  0  0  0  0
   -4.3016   -1.5722   -1.3143 C   0  0  0  0  0  0  0  0  0  0  0  0
   -5.2482   -2.3893   -0.6352 O   0  0  0  0  0  0  0  0  0  0  0  0
   -5.0656   -2.0909    0.7046 N   0  0  0  0  0  0  0  0  0  0  0  0
   -0.6135    4.7605   -0.2699 C   0  0  0  0  0  0  0  0  0  0  0  0
   -1.1220   -0.2218   -0.1553 C   0  0  0  0  0  0  0  0  0  0  0  0
    1.7122   -0.4877    0.2719 C   0  0  0  0  0  0  0  0  0  0  0  0
    1.2467    3.2389    0.0605 N   0  0  0  0  0  0  0  0  0  0  0  0
   -2.1846    2.3561   -0.4517 O   0  0  0  0  0  0  0  0  0  0  0  0
    5.4134   -0.8355    0.7079 O   0  0  0  0  0  0  0  0  0  0  0  0
    4.2454   -1.3689   -1.5331 O   0  0  0  0  0  0  0  0  0  0  0  0
    3.7367   -2.8502    0.4313 O   0  0  0  0  0  0  0  0  0  0  0  0
    3.0988   -0.3221    0.5070 O   0  0  0  0  0  0  0  0  0  0  0  0
    4.1150   -1.4777    0.0531 P   0  0  1  0  0  0  0  0  0  0  0  0
    2.8628    2.0100    0.3409 H   0  0  0  0  0  0  0  0  0  0  0  0
   -2.4336   -2.3660   -0.4947 H   0  0  0  0  0  0  0  0  0  0  0  0
   -4.7051   -0.5670   -1.4814 H   0  0  0  0  0  0  0  0  0  0  0  0
   -4.0798   -2.0424   -2.2681 H   0  0  0  0  0  0  0  0  0  0  0  0
   -5.7373   -2.5235    1.3243 H   0  0  0  0  0  0  0  0  0  0  0  0
   -1.3788    4.9586    0.4842 H   0  0  0  0  0  0  0  0  0  0  0  0
    0.1762    5.4956   -0.1398 H   0  0  0  0  0  0  0  0  0  0  0  0
   -1.0612    4.9243   -1.2532 H   0  0  0  0  0  0  0  0  0  0  0  0
   -0.6309   -1.1749   -0.0029 H   0  0  0  0  0  0  0  0  0  0  0  0
    1.2704   -1.0278    1.1136 H   0  0  0  0  0  0  0  0  0  0  0  0
    1.5292   -1.0787   -0.6316 H   0  0  0  0  0  0  0  0  0  0  0  0
   -2.4848    3.2700   -0.5477 H   0  0  0  0  0  0  0  0  0  0  0  0
    6.2033   -1.3904    0.6496 H   0  0  0  0  0  0  0  0  0  0  0  0
    4.5464   -0.5172   -1.8783 H   0  0  0  0  0  0  0  0  0  0  0  0
   -2.9125    0.5621   -0.5335 H   0  0  0  0  0  0  0  0  0  0  0  0
  9  8  2  0
 12  8  1  0
 12 11  1  0
  8  7  1  0
 13  5  1  0
 11 10  1  0
 17  1  1  0
 20 22  2  0
  6  7  1  0
  6 14  2  0
  5  1  2  0
  5 16  1  0
  7 10  1  0
  1  2  1  0
 16  4  2  0
 22 21  1  1
 21 15  1  0
  2 14  1  0
  2  3  2  0
  4  3  1  0
 22 19  1  0
 22 18  1  0
  3 15  1  0
  4 23  1  0
  7 24  1  6
 10 25  1  0
 10 26  1  0
 12 27  1  0
 13 28  1  0
 13 29  1  0
 13 30  1  0
 14 31  1  0
 15 32  1  0
 15 33  1  0
 17 34  1  0
 18 35  1  0
 19 36  1  0
  6 37  1  0
M  CHG  1   6   1
M  END
