
     RDKit          3D

 56 55  0  0  0  0  0  0  0  0999 V2000
    8.9531    0.0875   -1.7145 O   0  0  0  0  0  0  0  0  0  0  0  0
    8.2709   -1.1452   -0.9695 P   0  0  2  0  0  0  0  0  0  0  0  0
    9.0926   -1.9087   -0.0111 O   0  0  0  0  0  0  0  0  0  0  0  0
    7.6926   -1.9873   -2.2023 O   0  0  0  0  0  0  0  0  0  0  0  0
    7.0369   -0.4507   -0.2513 O   0  0  0  0  0  0  0  0  0  0  0  0
    6.0330    0.2878   -0.9575 C   0  0  0  0  0  0  0  0  0  0  0  0
    4.8238    0.4760   -0.0426 C   0  0  1  0  0  0  0  0  0  0  0  0
    4.2922   -0.8793    0.4315 C   0  0  0  0  0  0  0  0  0  0  0  0
    5.2041    1.3190    1.1761 C   0  0  0  0  0  0  0  0  0  0  0  0
    3.6805    1.1738   -0.8317 C   0  0  2  0  0  0  0  0  0  0  0  0
    3.2478    0.4225   -1.9342 O   0  0  0  0  0  0  0  0  0  0  0  0
    4.0477    2.5758   -1.3199 C   0  0  0  0  0  0  0  0  0  0  0  0
    4.6211    2.7169   -2.3950 O   0  0  0  0  0  0  0  0  0  0  0  0
    3.6853    3.5933   -0.5361 N   0  0  0  0  0  0  0  0  0  0  0  0
    3.9946    4.9759   -0.8313 C   0  0  0  0  0  0  0  0  0  0  0  0
    5.3782    5.3881   -0.3577 C   0  0  0  0  0  0  0  0  0  0  0  0
    5.5358    5.2719    1.1450 C   0  0  0  0  0  0  0  0  0  0  0  0
    4.5778    5.2357    1.9039 O   0  0  0  0  0  0  0  0  0  0  0  0
    6.8081    5.2411    1.5786 N   0  0  0  0  0  0  0  0  0  0  0  0
    7.1595    5.1762    2.9765 C   0  0  0  0  0  0  0  0  0  0  0  0
    7.1558    3.7608    3.5393 C   0  0  0  0  0  0  0  0  0  0  0  0
    8.4472    2.7889    2.7138 S   0  0  0  0  0  0  0  0  0  0  0  0
    8.3236    1.2387    3.5614 C   0  0  0  0  0  0  0  0  0  0  0  0
    7.5326    1.0490    4.4494 O   0  0  0  0  0  0  0  0  0  0  0  0
    9.2901    0.2098    3.0385 C   0  0  0  0  0  0  0  0  0  0  0  0
    9.4949   -0.9767    3.9716 C   0  0  0  0  0  0  0  0  0  0  0  0
   10.5165   -1.9521    3.4046 C   0  0  0  0  0  0  0  0  0  0  0  0
    9.7824   -0.1187   -2.1659 H   0  0  0  0  0  0  0  0  0  0  0  0
    7.4402   -2.8920   -1.9747 H   0  0  0  0  0  0  0  0  0  0  0  0
    6.4510    1.2513   -1.2555 H   0  0  0  0  0  0  0  0  0  0  0  0
    5.7432   -0.2543   -1.8612 H   0  0  0  0  0  0  0  0  0  0  0  0
    3.4094   -0.7395    1.0588 H   0  0  0  0  0  0  0  0  0  0  0  0
    5.0353   -1.4054    1.0295 H   0  0  0  0  0  0  0  0  0  0  0  0
    4.0117   -1.5236   -0.4017 H   0  0  0  0  0  0  0  0  0  0  0  0
    5.8699    0.7624    1.8345 H   0  0  0  0  0  0  0  0  0  0  0  0
    4.3204    1.5855    1.7610 H   0  0  0  0  0  0  0  0  0  0  0  0
    5.7179    2.2416    0.9028 H   0  0  0  0  0  0  0  0  0  0  0  0
    2.8329    1.2444   -0.1407 H   0  0  0  0  0  0  0  0  0  0  0  0
    3.7841    0.6782   -2.6953 H   0  0  0  0  0  0  0  0  0  0  0  0
    3.2186    3.3940    0.3338 H   0  0  0  0  0  0  0  0  0  0  0  0
    3.9176    5.1338   -1.9060 H   0  0  0  0  0  0  0  0  0  0  0  0
    3.2312    5.5928   -0.3616 H   0  0  0  0  0  0  0  0  0  0  0  0
    5.5548    6.4308   -0.6398 H   0  0  0  0  0  0  0  0  0  0  0  0
    6.1456    4.8026   -0.8694 H   0  0  0  0  0  0  0  0  0  0  0  0
    7.5513    5.2693    0.9003 H   0  0  0  0  0  0  0  0  0  0  0  0
    8.1409    5.6328    3.1035 H   0  0  0  0  0  0  0  0  0  0  0  0
    6.4547    5.7724    3.5562 H   0  0  0  0  0  0  0  0  0  0  0  0
    7.3618    3.7921    4.6089 H   0  0  0  0  0  0  0  0  0  0  0  0
    6.1868    3.2885    3.3834 H   0  0  0  0  0  0  0  0  0  0  0  0
    8.9098   -0.1351    2.0709 H   0  0  0  0  0  0  0  0  0  0  0  0
   10.2456    0.6961    2.8199 H   0  0  0  0  0  0  0  0  0  0  0  0
    9.8265   -0.6229    4.9506 H   0  0  0  0  0  0  0  0  0  0  0  0
    8.5443   -1.4889    4.1310 H   0  0  0  0  0  0  0  0  0  0  0  0
   10.6554   -2.8052    4.0689 H   0  0  0  0  0  0  0  0  0  0  0  0
   10.2010   -2.3302    2.4317 H   0  0  0  0  0  0  0  0  0  0  0  0
   11.4879   -1.4722    3.2728 H   0  0  0  0  0  0  0  0  0  0  0  0
  2  1  1  6
  1 28  1  0
  2  3  2  0
  2  4  1  0
  2  5  1  0
  4 29  1  0
  5  6  1  0
  7  6  1  6
  6 30  1  0
  6 31  1  0
  7  8  1  0
  7  9  1  0
  7 10  1  0
  8 32  1  0
  8 33  1  0
  8 34  1  0
  9 35  1  0
  9 36  1  0
  9 37  1  0
 10 11  1  0
 10 12  1  0
 10 38  1  1
 11 39  1  0
 12 13  2  0
 12 14  1  0
 14 15  1  0
 14 40  1  0
 15 16  1  0
 15 41  1  0
 15 42  1  0
 16 17  1  0
 16 43  1  0
 16 44  1  0
 17 18  2  0
 17 19  1  0
 19 20  1  0
 19 45  1  0
 20 21  1  0
 20 46  1  0
 20 47  1  0
 21 22  1  0
 21 48  1  0
 21 49  1  0
 22 23  1  0
 23 24  2  0
 23 25  1  0
 25 26  1  0
 25 50  1  0
 25 51  1  0
 26 27  1  0
 26 52  1  0
 26 53  1  0
 27 54  1  0
 27 55  1  0
 27 56  1  0
M  END
