
     RDKit          3D

 57 60  0  0  0  0  0  0  0  0999 V2000
    6.3986    2.3929    0.2422 N   0  0  0  0  0  0  0  0  0  0  0  0
    6.9400    1.2619    0.0061 C   0  0  0  0  0  0  0  0  0  0  0  0
    8.3868    1.0038    0.1569 C   0  0  0  0  0  0  0  0  0  0  0  0
    9.0024   -0.4951    0.7489 S   0  0  0  0  0  0  0  0  0  0  0  0
   10.6168    0.0563    0.6363 C   0  0  0  0  0  0  0  0  0  0  0  0
   10.6821    1.3347    0.1703 C   0  0  0  0  0  0  0  0  0  0  0  0
    9.4022    1.8801   -0.1025 C   0  0  0  0  0  0  0  0  0  0  0  0
    6.2313    0.1715   -0.4184 N   0  0  0  0  0  0  0  0  0  0  0  0
    4.8575    0.0085   -0.5866 C   0  0  0  0  0  0  0  0  0  0  0  0
    4.4295   -1.2189   -1.1049 C   0  0  0  0  0  0  0  0  0  0  0  0
    3.0852   -1.4768   -1.2970 C   0  0  0  0  0  0  0  0  0  0  0  0
    2.1130   -0.5288   -0.9831 C   0  0  0  0  0  0  0  0  0  0  0  0
    2.5487    0.6862   -0.4678 C   0  0  0  0  0  0  0  0  0  0  0  0
    3.8947    0.9682   -0.2701 C   0  0  0  0  0  0  0  0  0  0  0  0
    0.6514   -0.8297   -1.1549 C   0  0  0  0  0  0  0  0  0  0  0  0
    0.0590   -1.4847    0.0900 C   0  0  0  0  0  0  0  0  0  0  0  0
   -1.3562   -1.7444   -0.0858 N   0  0  0  0  0  0  0  0  0  0  0  0
   -1.9568   -2.3996    1.0604 C   0  0  0  0  0  0  0  0  0  0  0  0
   -3.4408   -2.5652    0.8713 C   0  0  0  0  0  0  0  0  0  0  0  0
   -4.0428   -3.8153    0.9449 C   0  0  0  0  0  0  0  0  0  0  0  0
   -5.4185   -3.9353    0.7857 C   0  0  0  0  0  0  0  0  0  0  0  0
   -6.1969   -2.8195    0.5324 C   0  0  0  0  0  0  0  0  0  0  0  0
   -5.6013   -1.5592    0.4532 C   0  0  0  0  0  0  0  0  0  0  0  0
   -4.2256   -1.4415    0.6292 C   0  0  0  0  0  0  0  0  0  0  0  0
   -6.4133   -0.4380    0.2544 N   0  0  0  0  0  0  0  0  0  0  0  0
   -6.1211    0.6371   -0.5610 C   0  0  0  0  0  0  0  0  0  0  0  0
   -5.1503    0.7625   -1.3758 N   0  0  0  0  0  0  0  0  0  0  0  0
   -7.0717    1.7515   -0.4269 C   0  0  0  0  0  0  0  0  0  0  0  0
   -7.9747    2.0141    1.0193 S   0  0  0  0  0  0  0  0  0  0  0  0
   -8.7312    3.3984    0.3632 C   0  0  0  0  0  0  0  0  0  0  0  0
   -8.3045    3.6546   -0.9062 C   0  0  0  0  0  0  0  0  0  0  0  0
   -7.3487    2.7116   -1.3583 C   0  0  0  0  0  0  0  0  0  0  0  0
    7.0866    3.0404    0.6078 H   0  0  0  0  0  0  0  0  0  0  0  0
   11.4317   -0.5896    0.9251 H   0  0  0  0  0  0  0  0  0  0  0  0
   11.6096    1.8676    0.0204 H   0  0  0  0  0  0  0  0  0  0  0  0
    9.2425    2.8744   -0.4959 H   0  0  0  0  0  0  0  0  0  0  0  0
    6.7786   -0.6039   -0.7579 H   0  0  0  0  0  0  0  0  0  0  0  0
    5.1603   -1.9784   -1.3597 H   0  0  0  0  0  0  0  0  0  0  0  0
    2.7867   -2.4357   -1.7048 H   0  0  0  0  0  0  0  0  0  0  0  0
    1.8209    1.4508   -0.2192 H   0  0  0  0  0  0  0  0  0  0  0  0
    4.1959    1.9281    0.1158 H   0  0  0  0  0  0  0  0  0  0  0  0
    0.0994    0.0882   -1.3704 H   0  0  0  0  0  0  0  0  0  0  0  0
    0.5106   -1.4958   -2.0116 H   0  0  0  0  0  0  0  0  0  0  0  0
    0.6350   -2.3929    0.3300 H   0  0  0  0  0  0  0  0  0  0  0  0
    0.1812   -0.8092    0.9426 H   0  0  0  0  0  0  0  0  0  0  0  0
   -1.4861   -2.3328   -0.9012 H   0  0  0  0  0  0  0  0  0  0  0  0
   -1.5058   -3.3773    1.2868 H   0  0  0  0  0  0  0  0  0  0  0  0
   -1.7755   -1.7708    1.9380 H   0  0  0  0  0  0  0  0  0  0  0  0
   -3.4398   -4.6956    1.1307 H   0  0  0  0  0  0  0  0  0  0  0  0
   -5.8869   -4.9092    0.8466 H   0  0  0  0  0  0  0  0  0  0  0  0
   -7.2674   -2.9191    0.3982 H   0  0  0  0  0  0  0  0  0  0  0  0
   -3.7503   -0.4687    0.6043 H   0  0  0  0  0  0  0  0  0  0  0  0
   -7.3906   -0.5788    0.4639 H   0  0  0  0  0  0  0  0  0  0  0  0
   -4.6020   -0.0886   -1.4532 H   0  0  0  0  0  0  0  0  0  0  0  0
   -9.4477    3.9532    0.9488 H   0  0  0  0  0  0  0  0  0  0  0  0
   -8.6639    4.4836   -1.4982 H   0  0  0  0  0  0  0  0  0  0  0  0
   -6.8902    2.7286   -2.3362 H   0  0  0  0  0  0  0  0  0  0  0  0
 31 30  2  0
 31 32  1  0
 30 29  1  0
 32 28  2  0
 29 28  1  0
 28 26  1  0
 26 27  2  0
 26 25  1  0
 25 23  1  0
 23 22  2  0
 23 24  1  0
 22 21  1  0
 21 20  2  0
 24 19  2  0
 19 20  1  0
 19 18  1  0
 18 17  1  0
 17 16  1  0
 16 15  1  0
 15 12  1  0
 12 11  1  0
 12 13  2  0
 11 10  2  0
 13 14  1  0
 10  9  1  0
 14  9  2  0
  9  8  1  0
  1  2  2  0
  8  2  1  0
  2  3  1  0
  3  7  2  0
  3  4  1  0
  7  6  1  0
  4  5  1  0
  6  5  2  0
  1 33  1  0
  5 34  1  0
  6 35  1  0
  7 36  1  0
  8 37  1  0
 10 38  1  0
 11 39  1  0
 13 40  1  0
 14 41  1  0
 15 42  1  0
 15 43  1  0
 16 44  1  0
 16 45  1  0
 17 46  1  0
 18 47  1  0
 18 48  1  0
 20 49  1  0
 21 50  1  0
 22 51  1  0
 24 52  1  0
 25 53  1  0
 27 54  1  0
 30 55  1  0
 31 56  1  0
 32 57  1  0
M  END
