
     RDKit          3D

104103  0  0  0  0  0  0  0  0999 V2000
   -5.0709   -1.9939   13.9185 C   0  0  0  0  0  0  0  0  0  0  0  0
   -4.8274   -0.7979   13.2224 O   0  0  0  0  0  0  0  0  0  0  0  0
   -5.3236   -0.7070   11.8911 C   0  0  1  0  0  0  0  0  0  0  0  0
   -4.8899   -1.8927   11.0321 C   0  0  0  0  0  0  0  0  0  0  0  0
   -6.8472   -0.5840   11.8913 C   0  0  0  0  0  0  0  0  0  0  0  0
   -4.7201    0.5976   11.3413 C   0  0  0  0  0  0  0  0  0  0  0  0
   -3.2281    0.6045   11.2899 C   0  0  0  0  0  0  0  0  0  0  0  0
   -2.5257    0.6969   10.1539 C   0  0  0  0  0  0  0  0  0  0  0  0
   -1.0736    0.7005   10.0487 C   0  0  0  0  0  0  0  0  0  0  0  0
   -0.2802    0.6137   11.3166 C   0  0  0  0  0  0  0  0  0  0  0  0
   -0.5218    0.7693    8.8130 C   0  0  0  0  0  0  0  0  0  0  0  0
    0.8775    0.7792    8.4842 C   0  0  0  0  0  0  0  0  0  0  0  0
    1.3323    0.8092    7.2120 C   0  0  0  0  0  0  0  0  0  0  0  0
    2.7235    0.8150    6.8187 C   0  0  0  0  0  0  0  0  0  0  0  0
    3.7654    0.8278    7.8975 C   0  0  0  0  0  0  0  0  0  0  0  0
    3.0164    0.7943    5.4916 C   0  0  0  0  0  0  0  0  0  0  0  0
    4.3186    0.7786    4.8899 C   0  0  0  0  0  0  0  0  0  0  0  0
    4.4992    0.6961    3.5513 C   0  0  0  0  0  0  0  0  0  0  0  0
    5.7723    0.6547    2.8714 C   0  0  0  0  0  0  0  0  0  0  0  0
    7.0217    0.7557    3.6941 C   0  0  0  0  0  0  0  0  0  0  0  0
    5.7649    0.5159    1.5172 C   0  0  0  0  0  0  0  0  0  0  0  0
    6.9080    0.4243    0.6591 C   0  0  0  0  0  0  0  0  0  0  0  0
    6.8868    0.2648   -0.6913 C   0  0  0  0  0  0  0  0  0  0  0  0
    5.7264    0.1734   -1.5251 C   0  0  0  0  0  0  0  0  0  0  0  0
    5.7493   -0.0084   -2.8746 C   0  0  0  0  0  0  0  0  0  0  0  0
    7.0453   -0.1415   -3.6260 C   0  0  0  0  0  0  0  0  0  0  0  0
    4.4848   -0.0930   -3.5635 C   0  0  0  0  0  0  0  0  0  0  0  0
    4.2862   -0.2707   -4.8911 C   0  0  0  0  0  0  0  0  0  0  0  0
    2.9759   -0.3410   -5.4690 C   0  0  0  0  0  0  0  0  0  0  0  0
    2.6658   -0.5031   -6.7830 C   0  0  0  0  0  0  0  0  0  0  0  0
    3.6926   -0.6376   -7.8680 C   0  0  0  0  0  0  0  0  0  0  0  0
    1.2699   -0.5368   -7.1564 C   0  0  0  0  0  0  0  0  0  0  0  0
    0.7980   -0.6940   -8.4133 C   0  0  0  0  0  0  0  0  0  0  0  0
   -0.6053   -0.6924   -8.7253 C   0  0  0  0  0  0  0  0  0  0  0  0
   -1.1742   -0.8567   -9.9441 C   0  0  0  0  0  0  0  0  0  0  0  0
   -0.3975   -1.0926  -11.2038 C   0  0  0  0  0  0  0  0  0  0  0  0
   -2.6256   -0.7929  -10.0423 C   0  0  0  0  0  0  0  0  0  0  0  0
   -3.3399   -0.9714  -11.1599 C   0  0  0  0  0  0  0  0  0  0  0  0
   -4.8291   -0.9029  -11.2223 C   0  0  0  0  0  0  0  0  0  0  0  0
   -5.3719    0.1559  -12.1974 C   0  0  1  0  0  0  0  0  0  0  0  0
   -4.9187   -0.1391  -13.6287 C   0  0  0  0  0  0  0  0  0  0  0  0
   -6.8993    0.1421  -12.1309 C   0  0  0  0  0  0  0  0  0  0  0  0
   -4.8431    1.3856  -11.7203 O   0  0  0  0  0  0  0  0  0  0  0  0
   -5.1471    2.5419  -12.4587 C   0  0  0  0  0  0  0  0  0  0  0  0
   -4.5080   -2.8426   13.5167 H   0  0  0  0  0  0  0  0  0  0  0  0
   -4.7494   -1.8375   14.9483 H   0  0  0  0  0  0  0  0  0  0  0  0
   -6.1295   -2.2735   13.9384 H   0  0  0  0  0  0  0  0  0  0  0  0
   -3.8118   -2.0506   11.0834 H   0  0  0  0  0  0  0  0  0  0  0  0
   -5.3878   -2.8178   11.3268 H   0  0  0  0  0  0  0  0  0  0  0  0
   -5.1444   -1.7071    9.9876 H   0  0  0  0  0  0  0  0  0  0  0  0
   -7.1708    0.2629   12.4992 H   0  0  0  0  0  0  0  0  0  0  0  0
   -7.2177   -0.4290   10.8769 H   0  0  0  0  0  0  0  0  0  0  0  0
   -7.3326   -1.4829   12.2745 H   0  0  0  0  0  0  0  0  0  0  0  0
   -5.1269    0.7767   10.3431 H   0  0  0  0  0  0  0  0  0  0  0  0
   -5.0701    1.4217   11.9744 H   0  0  0  0  0  0  0  0  0  0  0  0
   -2.7070    0.5269   12.2386 H   0  0  0  0  0  0  0  0  0  0  0  0
   -3.0704    0.7723    9.2153 H   0  0  0  0  0  0  0  0  0  0  0  0
   -0.5248   -0.2995   11.8634 H   0  0  0  0  0  0  0  0  0  0  0  0
    0.7941    0.6185   11.1530 H   0  0  0  0  0  0  0  0  0  0  0  0
   -0.5145    1.4473   11.9821 H   0  0  0  0  0  0  0  0  0  0  0  0
   -1.2035    0.8174    7.9671 H   0  0  0  0  0  0  0  0  0  0  0  0
    1.5938    0.7571    9.2965 H   0  0  0  0  0  0  0  0  0  0  0  0
    0.6035    0.8222    6.4054 H   0  0  0  0  0  0  0  0  0  0  0  0
    3.6942   -0.0664    8.5201 H   0  0  0  0  0  0  0  0  0  0  0  0
    4.7783    0.8712    7.5075 H   0  0  0  0  0  0  0  0  0  0  0  0
    3.6331    1.6848    8.5604 H   0  0  0  0  0  0  0  0  0  0  0  0
    2.1797    0.7760    4.7975 H   0  0  0  0  0  0  0  0  0  0  0  0
    5.1859    0.8239    5.5384 H   0  0  0  0  0  0  0  0  0  0  0  0
    3.6170    0.6428    2.9180 H   0  0  0  0  0  0  0  0  0  0  0  0
    7.0245    1.6738    4.2847 H   0  0  0  0  0  0  0  0  0  0  0  0
    7.0956   -0.0751    4.3987 H   0  0  0  0  0  0  0  0  0  0  0  0
    7.9271    0.7543    3.0933 H   0  0  0  0  0  0  0  0  0  0  0  0
    4.7891    0.4549    1.0456 H   0  0  0  0  0  0  0  0  0  0  0  0
    7.8883    0.4765    1.1171 H   0  0  0  0  0  0  0  0  0  0  0  0
    7.8517    0.1958   -1.1805 H   0  0  0  0  0  0  0  0  0  0  0  0
    4.7528    0.2537   -1.0525 H   0  0  0  0  0  0  0  0  0  0  0  0
    6.9092   -0.1397   -4.7040 H   0  0  0  0  0  0  0  0  0  0  0  0
    7.7299    0.6740   -3.3920 H   0  0  0  0  0  0  0  0  0  0  0  0
    7.5532   -1.0721   -3.3667 H   0  0  0  0  0  0  0  0  0  0  0  0
    3.6042   -0.0048   -2.9316 H   0  0  0  0  0  0  0  0  0  0  0  0
    5.1398   -0.3593   -5.5518 H   0  0  0  0  0  0  0  0  0  0  0  0
    2.1478   -0.2537   -4.7700 H   0  0  0  0  0  0  0  0  0  0  0  0
    3.5570    0.1342   -8.6280 H   0  0  0  0  0  0  0  0  0  0  0  0
    4.7115   -0.5582   -7.4996 H   0  0  0  0  0  0  0  0  0  0  0  0
    3.6038   -1.6005   -8.3756 H   0  0  0  0  0  0  0  0  0  0  0  0
    0.5520   -0.4220   -6.3480 H   0  0  0  0  0  0  0  0  0  0  0  0
    1.5034   -0.8163   -9.2267 H   0  0  0  0  0  0  0  0  0  0  0  0
   -1.2735   -0.5374   -7.8813 H   0  0  0  0  0  0  0  0  0  0  0  0
   -0.6017   -0.3103  -11.9379 H   0  0  0  0  0  0  0  0  0  0  0  0
    0.6773   -1.1204  -11.0463 H   0  0  0  0  0  0  0  0  0  0  0  0
   -0.6857   -2.0389  -11.6667 H   0  0  0  0  0  0  0  0  0  0  0  0
   -3.1565   -0.5778   -9.1176 H   0  0  0  0  0  0  0  0  0  0  0  0
   -2.8257   -1.1996  -12.0884 H   0  0  0  0  0  0  0  0  0  0  0  0
   -5.2275   -1.8737  -11.5361 H   0  0  0  0  0  0  0  0  0  0  0  0
   -5.2331   -0.7046  -10.2249 H   0  0  0  0  0  0  0  0  0  0  0  0
   -3.8410   -0.0197  -13.7486 H   0  0  0  0  0  0  0  0  0  0  0  0
   -5.1757   -1.1636  -13.9011 H   0  0  0  0  0  0  0  0  0  0  0  0
   -5.4068    0.5160  -14.3515 H   0  0  0  0  0  0  0  0  0  0  0  0
   -7.2536    0.3840  -11.1270 H   0  0  0  0  0  0  0  0  0  0  0  0
   -7.3462    0.8500  -12.8306 H   0  0  0  0  0  0  0  0  0  0  0  0
   -7.2790   -0.8473  -12.3902 H   0  0  0  0  0  0  0  0  0  0  0  0
   -4.6787    3.3822  -11.9460 H   0  0  0  0  0  0  0  0  0  0  0  0
   -4.7534    2.5114  -13.4799 H   0  0  0  0  0  0  0  0  0  0  0  0
   -6.2217    2.7443  -12.5191 H   0  0  0  0  0  0  0  0  0  0  0  0
  1  2  1  0
  1 45  1  0
  1 46  1  0
  1 47  1  0
  3  2  1  1
  3  4  1  0
  3  5  1  0
  3  6  1  0
  4 48  1  0
  4 49  1  0
  4 50  1  0
  5 51  1  0
  5 52  1  0
  5 53  1  0
  6  7  1  0
  6 54  1  0
  6 55  1  0
  7  8  2  0
  7 56  1  0
  8  9  1  0
  8 57  1  0
  9 10  1  0
  9 11  2  0
 10 58  1  0
 10 59  1  0
 10 60  1  0
 11 12  1  0
 11 61  1  0
 12 13  2  0
 12 62  1  0
 13 14  1  0
 13 63  1  0
 14 15  1  0
 14 16  2  0
 15 64  1  0
 15 65  1  0
 15 66  1  0
 16 17  1  0
 16 67  1  0
 17 18  2  0
 17 68  1  0
 18 19  1  0
 18 69  1  0
 19 20  1  0
 19 21  2  0
 20 70  1  0
 20 71  1  0
 20 72  1  0
 21 22  1  0
 21 73  1  0
 22 23  2  0
 22 74  1  0
 23 24  1  0
 23 75  1  0
 24 25  2  0
 24 76  1  0
 25 26  1  0
 25 27  1  0
 26 77  1  0
 26 78  1  0
 26 79  1  0
 27 28  2  0
 27 80  1  0
 28 29  1  0
 28 81  1  0
 29 30  2  0
 29 82  1  0
 30 31  1  0
 30 32  1  0
 31 83  1  0
 31 84  1  0
 31 85  1  0
 32 33  2  0
 32 86  1  0
 33 34  1  0
 33 87  1  0
 34 35  2  0
 34 88  1  0
 35 36  1  0
 35 37  1  0
 36 89  1  0
 36 90  1  0
 36 91  1  0
 37 38  2  0
 37 92  1  0
 38 39  1  0
 38 93  1  0
 39 40  1  0
 39 94  1  0
 39 95  1  0
 40 41  1  0
 40 42  1  0
 40 43  1  1
 41 96  1  0
 41 97  1  0
 41 98  1  0
 42 99  1  0
 42100  1  0
 42101  1  0
 43 44  1  0
 44102  1  0
 44103  1  0
 44104  1  0
M  END
