
     RDKit          3D

 23 23  0  0  0  0  0  0  0  0999 V2000
   -3.9853   -1.7560    0.0196 O   0  0  0  0  0  0  0  0  0  0  0  0
   -3.9469   -0.5465    0.0281 C   0  0  0  0  0  0  0  0  0  0  0  0
   -5.0386    0.2136    0.0438 O   0  0  0  0  0  0  0  0  0  0  0  0
   -2.7234    0.2686    0.0238 C   0  0  0  0  0  0  0  0  0  0  0  0
   -1.5186   -0.3136    0.0155 C   0  0  0  0  0  0  0  0  0  0  0  0
   -0.2240    0.3574    0.0118 C   0  0  0  0  0  0  0  0  0  0  0  0
   -0.0866    1.7492    0.0144 C   0  0  0  0  0  0  0  0  0  0  0  0
    1.1707    2.3247    0.0098 C   0  0  0  0  0  0  0  0  0  0  0  0
    2.3076    1.5241    0.0019 C   0  0  0  0  0  0  0  0  0  0  0  0
    2.2092    0.1317   -0.0009 C   0  0  0  0  0  0  0  0  0  0  0  0
    3.4908   -0.7777   -0.0126 B   0  0  0  0  0  0  0  0  0  0  0  0
    4.7013   -0.1584   -0.0339 O   0  0  0  0  0  0  0  0  0  0  0  0
    3.3050   -2.1248   -0.0026 O   0  0  0  0  0  0  0  0  0  0  0  0
    0.9307   -0.4268    0.0048 C   0  0  0  0  0  0  0  0  0  0  0  0
   -5.8295   -0.3456    0.0466 H   0  0  0  0  0  0  0  0  0  0  0  0
   -2.8421    1.3452    0.0288 H   0  0  0  0  0  0  0  0  0  0  0  0
   -1.4759   -1.3988    0.0120 H   0  0  0  0  0  0  0  0  0  0  0  0
   -0.9597    2.3887    0.0196 H   0  0  0  0  0  0  0  0  0  0  0  0
    1.2675    3.4026    0.0120 H   0  0  0  0  0  0  0  0  0  0  0  0
    3.2805    1.9986   -0.0021 H   0  0  0  0  0  0  0  0  0  0  0  0
    5.4703   -0.7369   -0.0408 H   0  0  0  0  0  0  0  0  0  0  0  0
    4.1041   -2.6608   -0.0147 H   0  0  0  0  0  0  0  0  0  0  0  0
    0.8167   -1.5049    0.0029 H   0  0  0  0  0  0  0  0  0  0  0  0
  1  2  2  0
  3  2  1  0
  2  4  1  0
  4  5  2  0
  5  6  1  0
  6 14  2  0
  6  7  1  0
 14 10  1  0
  7  8  2  0
 13 11  1  0
 10 11  1  0
 10  9  2  0
  8  9  1  0
 11 12  1  0
  3 15  1  0
  4 16  1  0
  5 17  1  0
  7 18  1  0
  8 19  1  0
  9 20  1  0
 12 21  1  0
 13 22  1  0
 14 23  1  0
M  END
