
     RDKit          3D

 36 38  0  0  0  0  0  0  0  0999 V2000
    2.0482   -1.7724   -0.0159 N   0  0  0  0  0  0  0  0  0  0  0  0
    4.2926   -2.0308    0.0302 N   0  0  0  0  0  0  0  0  0  0  0  0
   -6.0045    0.4351   -1.4357 C   0  0  0  0  0  0  0  0  0  0  0  0
   -5.2398    0.7997   -0.1637 C   0  0  1  0  0  0  0  0  0  0  0  0
   -6.0472    0.4469    1.0851 C   0  0  0  0  0  0  0  0  0  0  0  0
   -3.8754    0.1532   -0.1369 C   0  0  0  0  0  0  0  0  0  0  0  0
   -2.7251    0.9170   -0.1196 C   0  0  0  0  0  0  0  0  0  0  0  0
   -1.4541    0.3341   -0.0938 C   0  0  0  0  0  0  0  0  0  0  0  0
   -1.3563   -1.0530   -0.0856 C   0  0  0  0  0  0  0  0  0  0  0  0
   -2.4964   -1.8477   -0.1029 C   0  0  0  0  0  0  0  0  0  0  0  0
   -3.7357   -1.2420   -0.1282 C   0  0  0  0  0  0  0  0  0  0  0  0
    0.9843   -1.0154   -0.0408 C   0  0  0  0  0  0  0  0  0  0  0  0
    3.2576   -1.2014    0.0052 C   0  0  0  0  0  0  0  0  0  0  0  0
    3.4060    0.2270    0.0009 C   0  0  0  0  0  0  0  0  0  0  0  0
    2.2532    0.9812   -0.0249 C   0  0  0  0  0  0  0  0  0  0  0  0
    0.9951    0.3845   -0.0471 C   0  0  0  0  0  0  0  0  0  0  0  0
   -0.2370    1.1552   -0.0748 C   0  0  0  0  0  0  0  0  0  0  0  0
    4.7315    0.8633    0.0257 C   0  0  0  0  0  0  0  0  0  0  0  0
   -0.1627   -1.7022   -0.0611 O   0  0  0  0  0  0  0  0  0  0  0  0
   -0.2615    2.3761   -0.0819 O   0  0  0  0  0  0  0  0  0  0  0  0
    5.7834    0.2588    0.0511 O   0  0  0  0  0  0  0  0  0  0  0  0
    4.6730    2.1863    0.0186 O   0  0  0  0  0  0  0  0  0  0  0  0
    4.1268   -3.0230    0.0308 H   0  0  0  0  0  0  0  0  0  0  0  0
    5.2370   -1.6833    0.0445 H   0  0  0  0  0  0  0  0  0  0  0  0
   -6.9626    0.9560   -1.4666 H   0  0  0  0  0  0  0  0  0  0  0  0
   -5.4446    0.7118   -2.3297 H   0  0  0  0  0  0  0  0  0  0  0  0
   -6.2100   -0.6359   -1.4858 H   0  0  0  0  0  0  0  0  0  0  0  0
   -5.0851    1.8826   -0.1662 H   0  0  0  0  0  0  0  0  0  0  0  0
   -6.2469   -0.6249    1.1429 H   0  0  0  0  0  0  0  0  0  0  0  0
   -5.5217    0.7400    1.9946 H   0  0  0  0  0  0  0  0  0  0  0  0
   -7.0095    0.9609    1.0745 H   0  0  0  0  0  0  0  0  0  0  0  0
   -2.7969    1.9979   -0.1250 H   0  0  0  0  0  0  0  0  0  0  0  0
   -2.4058   -2.9261   -0.0969 H   0  0  0  0  0  0  0  0  0  0  0  0
   -4.6150   -1.8746   -0.1414 H   0  0  0  0  0  0  0  0  0  0  0  0
    2.3053    2.0615   -0.0285 H   0  0  0  0  0  0  0  0  0  0  0  0
    5.5686    2.5552    0.0329 H   0  0  0  0  0  0  0  0  0  0  0  0
  1 12  2  0
  1 13  1  0
  2 13  1  0
  3  4  1  0
  4  5  1  0
  4  6  1  0
  6  7  2  0
  6 11  1  0
  7  8  1  0
  8  9  2  0
  8 17  1  0
  9 10  1  0
  9 19  1  0
 10 11  2  0
 12 16  1  0
 12 19  1  0
 13 14  2  0
 14 15  1  0
 14 18  1  0
 15 16  2  0
 16 17  1  0
 17 20  2  0
 18 21  2  0
 18 22  1  0
  2 23  1  0
  2 24  1  0
  3 25  1  0
  3 26  1  0
  3 27  1  0
  4 28  1  6
  5 29  1  0
  5 30  1  0
  5 31  1  0
  7 32  1  0
 10 33  1  0
 11 34  1  0
 15 35  1  0
 22 36  1  0
M  END
