
     RDKit          3D

 68 69  0  0  0  0  0  0  0  0999 V2000
    1.3162    0.7620   -5.8746 C   0  0  0  0  0  0  0  0  0  0  0  0
    1.6514   -0.0432   -3.4506 C   0  0  0  0  0  0  0  0  0  0  0  0
    1.4969   -1.2137   -3.7510 O   0  0  0  0  0  0  0  0  0  0  0  0
    1.8508    1.0538   -4.4791 C   0  0  0  0  0  0  0  0  0  0  0  0
    1.7348    0.3987   -2.1769 N   0  0  0  0  0  0  0  0  0  0  0  0
    1.5059   -0.4051   -1.0025 C   0  0  2  0  0  0  0  0  0  0  0  0
    0.3750    0.2542   -0.2148 C   0  0  0  0  0  0  0  0  0  0  0  0
    0.4072    1.4555    0.0066 O   0  0  0  0  0  0  0  0  0  0  0  0
    2.7541   -0.4865   -0.1203 C   0  0  0  0  0  0  0  0  0  0  0  0
    3.9005   -1.1261   -0.8759 C   0  0  0  0  0  0  0  0  0  0  0  0
    3.8135   -2.2600   -1.3237 O   0  0  0  0  0  0  0  0  0  0  0  0
    4.9936   -0.3636   -1.0065 N   0  0  0  0  0  0  0  0  0  0  0  0
   -0.6048   -0.5606    0.1993 N   0  0  0  0  0  0  0  0  0  0  0  0
   -1.8842   -0.0690    0.6717 C   0  0  1  0  0  0  0  0  0  0  0  0
   -2.9956   -0.4910   -0.3082 C   0  0  0  0  0  0  0  0  0  0  0  0
   -2.5512   -0.3383   -1.7376 C   0  0  0  0  0  0  0  0  0  0  0  0
   -2.1797    0.8939   -2.2628 C   0  0  0  0  0  0  0  0  0  0  0  0
   -1.6361    1.0156   -3.5362 C   0  0  0  0  0  0  0  0  0  0  0  0
   -2.3914   -1.4554   -2.5548 C   0  0  0  0  0  0  0  0  0  0  0  0
   -1.8643   -1.3532   -3.8292 C   0  0  0  0  0  0  0  0  0  0  0  0
   -1.4638   -0.1161   -4.3292 C   0  0  0  0  0  0  0  0  0  0  0  0
   -0.9682   -0.1233   -5.5853 O   0  0  0  0  0  0  0  0  0  0  0  0
   -0.1790    0.9418   -6.0912 C   0  0  0  0  0  0  0  0  0  0  0  0
   -2.1567   -0.5232    2.1142 C   0  0  2  0  0  0  0  0  0  0  0  0
   -3.4760   -0.2138    2.4959 O   0  0  0  0  0  0  0  0  0  0  0  0
   -1.1266    0.0683    3.0714 C   0  0  0  0  0  0  0  0  0  0  0  0
   -1.3631   -0.3376    4.4407 N   0  0  0  0  0  0  0  0  0  0  0  0
   -0.4098    0.2491    5.3660 C   0  0  0  0  0  0  0  0  0  0  0  0
   -0.6867   -0.1990    6.7933 C   0  0  0  0  0  0  0  0  0  0  0  0
    0.1690    0.4927    7.8559 C   0  0  1  0  0  0  0  0  0  0  0  0
   -0.2879    0.0743    9.2502 C   0  0  0  0  0  0  0  0  0  0  0  0
    1.6580    0.2059    7.6797 C   0  0  0  0  0  0  0  0  0  0  0  0
    1.6198   -0.2343   -6.2022 H   0  0  0  0  0  0  0  0  0  0  0  0
    1.7968    1.4632   -6.5614 H   0  0  0  0  0  0  0  0  0  0  0  0
    2.9327    1.2086   -4.5501 H   0  0  0  0  0  0  0  0  0  0  0  0
    1.4455    1.9992   -4.1084 H   0  0  0  0  0  0  0  0  0  0  0  0
    1.8247    1.3918   -2.0242 H   0  0  0  0  0  0  0  0  0  0  0  0
    1.2241   -1.4055   -1.3297 H   0  0  0  0  0  0  0  0  0  0  0  0
    3.0146    0.5092    0.2419 H   0  0  0  0  0  0  0  0  0  0  0  0
    2.5344   -1.1029    0.7554 H   0  0  0  0  0  0  0  0  0  0  0  0
    5.7940   -0.6989   -1.5180 H   0  0  0  0  0  0  0  0  0  0  0  0
    5.0247    0.5816   -0.6671 H   0  0  0  0  0  0  0  0  0  0  0  0
   -0.5626   -1.5256   -0.0916 H   0  0  0  0  0  0  0  0  0  0  0  0
   -1.8132    1.0212    0.6639 H   0  0  0  0  0  0  0  0  0  0  0  0
   -3.2690   -1.5348   -0.1267 H   0  0  0  0  0  0  0  0  0  0  0  0
   -3.8857    0.1047   -0.1004 H   0  0  0  0  0  0  0  0  0  0  0  0
   -2.2842    1.7907   -1.6625 H   0  0  0  0  0  0  0  0  0  0  0  0
   -1.3491    1.9999   -3.8811 H   0  0  0  0  0  0  0  0  0  0  0  0
   -2.6663   -2.4348   -2.1798 H   0  0  0  0  0  0  0  0  0  0  0  0
   -1.7346   -2.2392   -4.4380 H   0  0  0  0  0  0  0  0  0  0  0  0
   -0.3726    0.9507   -7.1646 H   0  0  0  0  0  0  0  0  0  0  0  0
   -0.5067    1.9118   -5.7079 H   0  0  0  0  0  0  0  0  0  0  0  0
   -2.0885   -1.6181    2.1480 H   0  0  0  0  0  0  0  0  0  0  0  0
   -3.5363    0.7364    2.6440 H   0  0  0  0  0  0  0  0  0  0  0  0
   -1.1871    1.1629    3.0194 H   0  0  0  0  0  0  0  0  0  0  0  0
   -0.1195   -0.1975    2.7185 H   0  0  0  0  0  0  0  0  0  0  0  0
   -1.2896   -1.3478    4.4995 H   0  0  0  0  0  0  0  0  0  0  0  0
   -0.5068    1.3389    5.3053 H   0  0  0  0  0  0  0  0  0  0  0  0
    0.6310    0.0195    5.0898 H   0  0  0  0  0  0  0  0  0  0  0  0
   -0.5423   -1.2841    6.8710 H   0  0  0  0  0  0  0  0  0  0  0  0
   -1.7437   -0.0122    7.0078 H   0  0  0  0  0  0  0  0  0  0  0  0
    0.0146    1.5744    7.7590 H   0  0  0  0  0  0  0  0  0  0  0  0
    0.2728    0.5963   10.0272 H   0  0  0  0  0  0  0  0  0  0  0  0
   -1.3473    0.2874    9.4038 H   0  0  0  0  0  0  0  0  0  0  0  0
   -0.1408   -0.9982    9.4000 H   0  0  0  0  0  0  0  0  0  0  0  0
    1.8520   -0.8685    7.7354 H   0  0  0  0  0  0  0  0  0  0  0  0
    2.0395    0.5615    6.7219 H   0  0  0  0  0  0  0  0  0  0  0  0
    2.2451    0.6875    8.4638 H   0  0  0  0  0  0  0  0  0  0  0  0
  1  4  1  0
  1 23  1  0
  1 33  1  0
  1 34  1  0
  2  3  2  0
  2  4  1  0
  2  5  1  0
  4 35  1  0
  4 36  1  0
  5  6  1  0
  5 37  1  0
  6  7  1  0
  6  9  1  0
  6 38  1  6
  7  8  2  0
  7 13  1  0
  9 10  1  0
  9 39  1  0
  9 40  1  0
 10 11  2  0
 10 12  1  0
 12 41  1  0
 12 42  1  0
 13 14  1  0
 13 43  1  0
 14 15  1  0
 14 24  1  0
 14 44  1  1
 15 16  1  0
 15 45  1  0
 15 46  1  0
 16 17  2  0
 16 19  1  0
 17 18  1  0
 17 47  1  0
 18 21  2  0
 18 48  1  0
 19 20  2  0
 19 49  1  0
 20 21  1  0
 20 50  1  0
 21 22  1  0
 22 23  1  0
 23 51  1  0
 23 52  1  0
 24 25  1  0
 24 26  1  0
 24 53  1  6
 25 54  1  0
 26 27  1  0
 26 55  1  0
 26 56  1  0
 27 28  1  0
 27 57  1  0
 28 29  1  0
 28 58  1  0
 28 59  1  0
 29 30  1  0
 29 60  1  0
 29 61  1  0
 30 31  1  0
 30 32  1  0
 30 62  1  1
 31 63  1  0
 31 64  1  0
 31 65  1  0
 32 66  1  0
 32 67  1  0
 32 68  1  0
M  END
