
     RDKit          3D

 31 33  0  0  0  0  0  0  0  0999 V2000
   -3.8090    2.3692    0.6040 C   0  0  0  0  0  0  0  0  0  0  0  0
   -3.2955    1.0018    0.2861 C   0  0  0  0  0  0  0  0  0  0  0  0
   -4.1449   -0.0162    0.0196 C   0  0  0  0  0  0  0  0  0  0  0  0
   -3.6963   -1.3576   -0.2999 C   0  0  0  0  0  0  0  0  0  0  0  0
   -4.4465   -2.2946   -0.5490 O   0  0  0  0  0  0  0  0  0  0  0  0
   -2.3366   -1.5200   -0.3074 N   0  0  0  0  0  0  0  0  0  0  0  0
   -1.4216   -0.5357   -0.0415 C   0  0  0  0  0  0  0  0  0  0  0  0
   -0.0552   -0.8216   -0.0779 C   0  0  0  0  0  0  0  0  0  0  0  0
   -1.8720    0.7580    0.2606 C   0  0  0  0  0  0  0  0  0  0  0  0
   -0.9132    1.7451    0.5249 C   0  0  0  0  0  0  0  0  0  0  0  0
    0.4332    1.4649    0.4865 C   0  0  0  0  0  0  0  0  0  0  0  0
    0.8760    0.1675    0.1850 C   0  0  0  0  0  0  0  0  0  0  0  0
    2.3134   -0.1720    0.1803 C   0  0  0  0  0  0  0  0  0  0  0  0
    2.7916   -1.2742    0.8907 C   0  0  0  0  0  0  0  0  0  0  0  0
    4.1374   -1.6068    0.8873 C   0  0  0  0  0  0  0  0  0  0  0  0
    5.0385   -0.8374    0.1636 C   0  0  0  0  0  0  0  0  0  0  0  0
    4.5917    0.2600   -0.5584 C   0  0  0  0  0  0  0  0  0  0  0  0
    3.2461    0.5687   -0.5356 C   0  0  0  0  0  0  0  0  0  0  0  0
    2.8224    1.6185   -1.2577 F   0  0  0  0  0  0  0  0  0  0  0  0
   -3.4455    3.1024   -0.1178 H   0  0  0  0  0  0  0  0  0  0  0  0
   -4.8965    2.3929    0.5899 H   0  0  0  0  0  0  0  0  0  0  0  0
   -3.4741    2.6963    1.5898 H   0  0  0  0  0  0  0  0  0  0  0  0
   -5.2157    0.1415    0.0340 H   0  0  0  0  0  0  0  0  0  0  0  0
   -1.9921   -2.4448   -0.5292 H   0  0  0  0  0  0  0  0  0  0  0  0
    0.2712   -1.8236   -0.3299 H   0  0  0  0  0  0  0  0  0  0  0  0
   -1.2335    2.7484    0.7714 H   0  0  0  0  0  0  0  0  0  0  0  0
    1.1456    2.2447    0.7177 H   0  0  0  0  0  0  0  0  0  0  0  0
    2.0940   -1.8666    1.4693 H   0  0  0  0  0  0  0  0  0  0  0  0
    4.4816   -2.4626    1.4519 H   0  0  0  0  0  0  0  0  0  0  0  0
    6.0904   -1.0889    0.1559 H   0  0  0  0  0  0  0  0  0  0  0  0
    5.2749    0.8641   -1.1409 H   0  0  0  0  0  0  0  0  0  0  0  0
  5  4  2  0
  3  4  1  0
  3  2  2  0
  4  6  1  0
  1  2  1  0
  2  9  1  0
  6  7  1  0
  9  7  2  0
  9 10  1  0
  7  8  1  0
 10 11  2  0
  8 12  2  0
 11 12  1  0
 12 13  1  0
 19 18  1  0
 13 18  1  0
 13 14  2  0
 18 17  2  0
 14 15  1  0
 17 16  1  0
 15 16  2  0
  1 20  1  0
  1 21  1  0
  1 22  1  0
  3 23  1  0
  6 24  1  0
  8 25  1  0
 10 26  1  0
 11 27  1  0
 14 28  1  0
 15 29  1  0
 16 30  1  0
 17 31  1  0
M  END
