
     RDKit          3D

 44 45  0  0  0  0  0  0  0  0999 V2000
   -5.2683    0.8329   -0.9763 C   0  0  0  0  0  0  0  0  0  0  0  0
    4.6061   -0.0964   -0.2426 C   0  0  0  0  0  0  0  0  0  0  0  0
   -4.0326    1.0104   -0.1668 C   0  0  0  0  0  0  0  0  0  0  0  0
   -1.9879    0.6433    0.5739 C   0  0  0  0  0  0  0  0  0  0  0  0
    1.6915   -1.4856    0.4262 C   0  0  0  0  0  0  0  0  0  0  0  0
   -2.3235    1.6727    1.4056 C   0  0  0  0  0  0  0  0  0  0  0  0
   -0.7124   -0.0792    0.5412 C   0  0  0  0  0  0  0  0  0  0  0  0
    0.3253    0.2056    1.4255 C   0  0  0  0  0  0  0  0  0  0  0  0
    1.5186   -0.4919    1.3803 C   0  0  0  0  0  0  0  0  0  0  0  0
    0.6723   -1.7908   -0.4663 C   0  0  0  0  0  0  0  0  0  0  0  0
   -0.5196   -1.0926   -0.4026 C   0  0  0  0  0  0  0  0  0  0  0  0
   -2.9729    0.2887   -0.3070 N   0  0  0  0  0  0  0  0  0  0  0  0
    4.2029   -1.4291   -0.6687 N   0  0  0  0  0  0  0  0  0  0  0  0
   -6.3399    0.0812   -0.2160 C   0  0  0  0  0  0  0  0  0  0  0  0
   -9.5592   -0.9863   -1.4838 C   0  0  0  0  0  0  0  0  0  0  0  0
   -7.3760   -0.1748   -0.9976 O   0  0  0  0  0  0  0  0  0  0  0  0
   -6.2622   -0.2329    0.9408 O   0  0  0  0  0  0  0  0  0  0  0  0
   -3.9096    2.2035    1.0732 S   0  0  0  0  0  0  0  0  0  0  0  0
    3.8499   -2.3166    1.6354 O   0  0  0  0  0  0  0  0  0  0  0  0
    3.0182   -3.5861   -0.3873 O   0  0  0  0  0  0  0  0  0  0  0  0
    5.7855    0.3406   -1.1038 C   0  0  0  0  0  0  0  0  0  0  0  0
    6.3289    1.6895   -0.7137 C   0  0  1  0  0  0  0  0  0  0  0  0
    6.7821    1.7070    0.5473 F   0  0  0  0  0  0  0  0  0  0  0  0
    7.3490    2.0522   -1.5018 F   0  0  0  0  0  0  0  0  0  0  0  0
    5.4026    2.6557   -0.8039 F   0  0  0  0  0  0  0  0  0  0  0  0
   -5.6749    1.7947   -1.2999 H   0  0  0  0  0  0  0  0  0  0  0  0
   -5.0146    0.2840   -1.8850 H   0  0  0  0  0  0  0  0  0  0  0  0
    3.7844    0.6217   -0.3228 H   0  0  0  0  0  0  0  0  0  0  0  0
    4.9056   -0.1490    0.8029 H   0  0  0  0  0  0  0  0  0  0  0  0
   -1.7331    2.1411    2.1764 H   0  0  0  0  0  0  0  0  0  0  0  0
    0.2148    0.9764    2.1767 H   0  0  0  0  0  0  0  0  0  0  0  0
    2.2971   -0.2629    2.0952 H   0  0  0  0  0  0  0  0  0  0  0  0
    0.7940   -2.5759   -1.1999 H   0  0  0  0  0  0  0  0  0  0  0  0
   -1.3165   -1.3365   -1.0906 H   0  0  0  0  0  0  0  0  0  0  0  0
    3.8859   -1.4735   -1.6314 H   0  0  0  0  0  0  0  0  0  0  0  0
  -10.4196   -1.5140   -1.0735 H   0  0  0  0  0  0  0  0  0  0  0  0
   -9.8974   -0.0079   -1.8239 H   0  0  0  0  0  0  0  0  0  0  0  0
   -9.2048   -1.5505   -2.3463 H   0  0  0  0  0  0  0  0  0  0  0  0
   -8.8622   -0.3145    0.4450 H   0  0  0  0  0  0  0  0  0  0  0  0
   -8.1737   -1.8528   -0.0757 H   0  0  0  0  0  0  0  0  0  0  0  0
    6.5884   -0.3941   -1.0249 H   0  0  0  0  0  0  0  0  0  0  0  0
    5.4884    0.3887   -2.1543 H   0  0  0  0  0  0  0  0  0  0  0  0
    3.2401   -2.3406    0.3201 S   0  0  1  0  0  0  0  0  0  0  0  0
   -8.4943   -0.8678   -0.4210 C   0  0  0  0  0  0  0  0  0  0  0  0
 22 24  1  6
 20 43  2  0
 25 22  1  0
 22 23  1  0
 22 21  1  0
  9  8  1  0
  9  5  2  0
 43 19  2  0
 43 13  1  6
 43  5  1  0
 21  2  1  0
  8  7  2  0
 13  2  1  0
  5 10  1  0
 17 14  2  0
 12  3  2  0
 12  4  1  0
  1 14  1  0
  1  3  1  0
  7  4  1  0
  7 11  1  0
 10 11  2  0
 14 16  1  0
  3 18  1  0
  4  6  2  0
 16 44  1  0
 44 15  1  0
  6 18  1  0
  1 26  1  0
  1 27  1  0
  2 28  1  0
  2 29  1  0
  6 30  1  0
  8 31  1  0
  9 32  1  0
 10 33  1  0
 11 34  1  0
 13 35  1  0
 15 36  1  0
 15 37  1  0
 15 38  1  0
 44 39  1  0
 44 40  1  0
 21 41  1  0
 21 42  1  0
M  END
