
     RDKit          3D

 51 53  0  0  0  0  0  0  0  0999 V2000
   -7.4881   -2.7820    1.1207 C   0  0  0  0  0  0  0  0  0  0  0  0
   -8.5403   -3.6866    1.1934 C   0  0  0  0  0  0  0  0  0  0  0  0
   -9.6337   -3.5933    0.3459 C   0  0  0  0  0  0  0  0  0  0  0  0
   -8.6305   -1.6616   -0.6788 C   0  0  0  0  0  0  0  0  0  0  0  0
   -7.5291   -1.7531    0.1778 C   0  0  0  0  0  0  0  0  0  0  0  0
   -5.1960    1.7517   -0.2235 C   0  0  0  0  0  0  0  0  0  0  0  0
   -4.4302    2.8651   -0.5319 C   0  0  0  0  0  0  0  0  0  0  0  0
   -2.2353    3.8701   -0.5904 O   0  0  0  0  0  0  0  0  0  0  0  0
   -5.3857   -0.5970    0.7115 C   0  0  0  0  0  0  0  0  0  0  0  0
   -4.6121    0.6206    0.3337 C   0  0  0  0  0  0  0  0  0  0  0  0
   -2.4594    1.7201    0.2747 C   0  0  0  0  0  0  0  0  0  0  0  0
   -3.2426    0.6291    0.6028 C   0  0  0  0  0  0  0  0  0  0  0  0
    5.1654   -2.2561   -1.5633 C   0  0  0  0  0  0  0  0  0  0  0  0
    7.0720   -1.3231   -0.7518 C   0  0  0  0  0  0  0  0  0  0  0  0
    4.9035   -0.4194   -0.2884 C   0  0  0  0  0  0  0  0  0  0  0  0
    6.2775   -0.3434   -0.1254 C   0  0  0  0  0  0  0  0  0  0  0  0
   -0.2006    0.7459    0.3614 C   0  0  0  0  0  0  0  0  0  0  0  0
    2.2236    0.2269   -0.0161 C   0  0  0  0  0  0  0  0  0  0  0  0
    1.2274    1.1210    0.7047 C   0  0  0  0  0  0  0  0  0  0  0  0
    7.0464    1.0202    0.9093 Br  0  0  0  0  0  0  0  0  0  0  0  0
    6.4767   -2.2844   -1.4754 N   0  0  0  0  0  0  0  0  0  0  0  0
    4.3392   -1.3811   -1.0153 N   0  0  0  0  0  0  0  0  0  0  0  0
    3.8819    0.7747    0.4798 S   0  0  0  0  0  0  0  0  0  0  0  0
   -0.5169   -0.3723    0.0018 O   0  0  0  0  0  0  0  0  0  0  0  0
   -1.0799    1.7668    0.5169 N   0  0  0  0  0  0  0  0  0  0  0  0
   -3.0598    2.8550   -0.3059 C   0  0  0  0  0  0  0  0  0  0  0  0
   -2.7733    5.0510   -1.1607 C   0  0  0  0  0  0  0  0  0  0  0  0
   -4.9828   -1.3626    1.5719 O   0  0  0  0  0  0  0  0  0  0  0  0
   -6.5376   -0.7806    0.0168 N   0  0  0  0  0  0  0  0  0  0  0  0
   -9.6698   -2.5712   -0.5944 C   0  0  0  0  0  0  0  0  0  0  0  0
   -6.6523   -2.8891    1.7913 H   0  0  0  0  0  0  0  0  0  0  0  0
   -8.4938   -4.4784    1.9299 H   0  0  0  0  0  0  0  0  0  0  0  0
  -10.4471   -4.3027    0.4177 H   0  0  0  0  0  0  0  0  0  0  0  0
   -8.6737   -0.8680   -1.4159 H   0  0  0  0  0  0  0  0  0  0  0  0
   -6.2623    1.8110   -0.4008 H   0  0  0  0  0  0  0  0  0  0  0  0
   -4.9176    3.7322   -0.9546 H   0  0  0  0  0  0  0  0  0  0  0  0
   -2.7917   -0.2334    1.0696 H   0  0  0  0  0  0  0  0  0  0  0  0
    4.7056   -3.0411   -2.1545 H   0  0  0  0  0  0  0  0  0  0  0  0
    2.0924   -0.8155    0.2625 H   0  0  0  0  0  0  0  0  0  0  0  0
    2.1235    0.3151   -1.0967 H   0  0  0  0  0  0  0  0  0  0  0  0
    1.4056    2.1737    0.4744 H   0  0  0  0  0  0  0  0  0  0  0  0
    1.3393    1.0164    1.7889 H   0  0  0  0  0  0  0  0  0  0  0  0
    8.9465   -0.6554   -0.2091 H   0  0  0  0  0  0  0  0  0  0  0  0
    8.8979   -2.0779   -1.1729 H   0  0  0  0  0  0  0  0  0  0  0  0
   -0.6918    2.6742    0.7258 H   0  0  0  0  0  0  0  0  0  0  0  0
   -1.9340    5.7221   -1.3207 H   0  0  0  0  0  0  0  0  0  0  0  0
   -3.2561    4.8510   -2.1198 H   0  0  0  0  0  0  0  0  0  0  0  0
   -3.4914    5.5307   -0.4921 H   0  0  0  0  0  0  0  0  0  0  0  0
   -6.7117   -0.1362   -0.7382 H   0  0  0  0  0  0  0  0  0  0  0  0
  -10.5130   -2.4755   -1.2661 H   0  0  0  0  0  0  0  0  0  0  0  0
    8.4016   -1.3684   -0.6609 N   0  0  0  0  0  0  0  0  0  0  0  0
  5  1  2  0
  1  2  1  0
  1 31  1  0
  3  2  2  0
  2 32  1  0
 30  3  1  0
  3 33  1  0
  4  5  1  0
  4 30  2  0
  4 34  1  0
 29  5  1  0
  7  6  2  0
 10  6  1  0
  6 35  1  0
 26  7  1  0
  7 36  1  0
  8 27  1  0
  8 26  1  0
 10  9  1  0
  9 28  2  0
  9 29  1  0
 12 10  2  0
 25 11  1  0
 11 26  2  0
 11 12  1  0
 12 37  1  0
 21 13  2  0
 13 22  1  0
 13 38  1  0
 51 14  1  0
 14 16  2  0
 14 21  1  0
 16 15  1  0
 15 23  1  0
 15 22  2  0
 20 16  1  0
 19 17  1  0
 17 25  1  0
 17 24  2  0
 23 18  1  0
 19 18  1  0
 18 39  1  0
 18 40  1  0
 19 41  1  0
 19 42  1  0
 51 43  1  0
 51 44  1  0
 25 45  1  0
 27 46  1  0
 27 47  1  0
 27 48  1  0
 29 49  1  0
 30 50  1  0
M  END
