
     RDKit          3D

 81 86  0  0  0  0  0  0  0  0999 V2000
    7.0402    1.1079   -1.2765 C   0  0  0  0  0  0  0  0  0  0  0  0
    8.2599    1.2380   -2.1697 C   0  0  0  0  0  0  0  0  0  0  0  0
    9.4821    1.0884   -1.4092 N   0  0  0  0  0  0  0  0  0  0  0  0
   10.6515    1.2842   -2.2348 C   0  0  0  0  0  0  0  0  0  0  0  0
    9.4984   -0.2037   -0.7556 C   0  0  0  0  0  0  0  0  0  0  0  0
    8.2979   -0.3574    0.1561 C   0  0  0  0  0  0  0  0  0  0  0  0
    7.0589   -0.1662   -0.5869 N   0  0  0  0  0  0  0  0  0  0  0  0
    5.8835   -0.6016    0.0225 C   0  0  0  0  0  0  0  0  0  0  0  0
    4.7643    0.2158    0.1446 C   0  0  0  0  0  0  0  0  0  0  0  0
    5.7955   -1.9162    0.5075 C   0  0  0  0  0  0  0  0  0  0  0  0
    4.6327   -2.3930    1.0842 C   0  0  0  0  0  0  0  0  0  0  0  0
    4.5719   -3.8233    1.5724 C   0  0  1  0  0  0  0  0  0  0  0  0
    4.3785   -3.8910    3.0869 C   0  0  0  0  0  0  0  0  0  0  0  0
    3.4903   -4.6227    0.8453 C   0  0  0  0  0  0  0  0  0  0  0  0
    3.5117   -1.5662    1.1956 C   0  0  0  0  0  0  0  0  0  0  0  0
    3.5834   -0.2631    0.7215 C   0  0  0  0  0  0  0  0  0  0  0  0
    2.5298    0.6599    0.7835 N   0  0  0  0  0  0  0  0  0  0  0  0
    1.3022    0.5379    1.3427 C   0  0  0  0  0  0  0  0  0  0  0  0
    0.8690   -0.4765    1.8589 O   0  0  0  0  0  0  0  0  0  0  0  0
    0.4975    1.8017    1.2941 C   0  0  0  0  0  0  0  0  0  0  0  0
   -0.8130    1.7918    0.8070 C   0  0  0  0  0  0  0  0  0  0  0  0
   -1.4462    0.5610    0.2280 C   0  0  0  0  0  0  0  0  0  0  0  0
    1.0644    2.9662    1.8060 C   0  0  0  0  0  0  0  0  0  0  0  0
    0.3353    4.1439    1.8564 C   0  0  0  0  0  0  0  0  0  0  0  0
   -0.9631    4.1590    1.3870 C   0  0  0  0  0  0  0  0  0  0  0  0
   -1.5374    2.9962    0.8630 C   0  0  0  0  0  0  0  0  0  0  0  0
   -2.8733    3.0525    0.3821 C   0  0  0  0  0  0  0  0  0  0  0  0
   -4.0089    3.1134   -0.0280 C   0  0  0  0  0  0  0  0  0  0  0  0
   -5.3219    3.1244   -0.5126 C   0  0  0  0  0  0  0  0  0  0  0  0
   -6.1868    4.1486   -0.8805 C   0  0  0  0  0  0  0  0  0  0  0  0
   -7.3635    3.6750   -1.3079 N   0  0  0  0  0  0  0  0  0  0  0  0
   -7.2648    2.3554   -1.2195 C   0  0  0  0  0  0  0  0  0  0  0  0
   -8.1735    1.3214   -1.5120 C   0  0  0  0  0  0  0  0  0  0  0  0
   -7.8718    0.0675   -1.3545 N   0  0  0  0  0  0  0  0  0  0  0  0
   -6.0345    1.9756   -0.7397 N   0  0  0  0  0  0  0  0  0  0  0  0
   -5.7126    0.6683   -0.5534 C   0  0  0  0  0  0  0  0  0  0  0  0
   -6.6393   -0.2806   -0.8844 C   0  0  0  0  0  0  0  0  0  0  0  0
   -6.3625   -1.7153   -0.7276 C   0  0  0  0  0  0  0  0  0  0  0  0
   -7.4091   -2.6327   -0.6129 C   0  0  0  0  0  0  0  0  0  0  0  0
   -7.1701   -3.9818   -0.4381 C   0  0  0  0  0  0  0  0  0  0  0  0
   -5.8612   -4.4799   -0.3777 C   0  0  0  0  0  0  0  0  0  0  0  0
   -5.6209   -5.8103   -0.1512 N   0  0  0  0  0  0  0  0  0  0  0  0
   -4.8072   -3.5650   -0.5124 C   0  0  0  0  0  0  0  0  0  0  0  0
   -5.0598   -2.2183   -0.6848 C   0  0  0  0  0  0  0  0  0  0  0  0
    7.0082    1.9564   -0.5750 H   0  0  0  0  0  0  0  0  0  0  0  0
    6.1501    1.1668   -1.9045 H   0  0  0  0  0  0  0  0  0  0  0  0
    8.1933    0.4917   -2.9818 H   0  0  0  0  0  0  0  0  0  0  0  0
    8.2458    2.2246   -2.6392 H   0  0  0  0  0  0  0  0  0  0  0  0
   10.6293    2.2772   -2.6863 H   0  0  0  0  0  0  0  0  0  0  0  0
   11.5552    1.2139   -1.6275 H   0  0  0  0  0  0  0  0  0  0  0  0
   10.7346    0.5472   -3.0491 H   0  0  0  0  0  0  0  0  0  0  0  0
    9.5078   -1.0313   -1.4868 H   0  0  0  0  0  0  0  0  0  0  0  0
   10.4069   -0.2914   -0.1547 H   0  0  0  0  0  0  0  0  0  0  0  0
    8.3210   -1.3505    0.6004 H   0  0  0  0  0  0  0  0  0  0  0  0
    8.3682    0.3710    0.9778 H   0  0  0  0  0  0  0  0  0  0  0  0
    4.7968    1.2457   -0.1868 H   0  0  0  0  0  0  0  0  0  0  0  0
    6.6400   -2.5868    0.4041 H   0  0  0  0  0  0  0  0  0  0  0  0
    5.5362   -4.2842    1.3385 H   0  0  0  0  0  0  0  0  0  0  0  0
    3.4177   -3.4669    3.3835 H   0  0  0  0  0  0  0  0  0  0  0  0
    4.4017   -4.9268    3.4305 H   0  0  0  0  0  0  0  0  0  0  0  0
    5.1626   -3.3460    3.6140 H   0  0  0  0  0  0  0  0  0  0  0  0
    2.4898   -4.2699    1.1013 H   0  0  0  0  0  0  0  0  0  0  0  0
    3.6029   -4.5534   -0.2372 H   0  0  0  0  0  0  0  0  0  0  0  0
    3.5451   -5.6768    1.1217 H   0  0  0  0  0  0  0  0  0  0  0  0
    2.6022   -1.9449    1.6330 H   0  0  0  0  0  0  0  0  0  0  0  0
    2.7237    1.5460    0.3413 H   0  0  0  0  0  0  0  0  0  0  0  0
   -1.9646   -0.0113    0.9994 H   0  0  0  0  0  0  0  0  0  0  0  0
   -2.1785    0.8245   -0.5341 H   0  0  0  0  0  0  0  0  0  0  0  0
   -0.7194   -0.1011   -0.2373 H   0  0  0  0  0  0  0  0  0  0  0  0
    2.0777    2.9525    2.1882 H   0  0  0  0  0  0  0  0  0  0  0  0
    0.7783    5.0430    2.2618 H   0  0  0  0  0  0  0  0  0  0  0  0
   -1.5455    5.0702    1.4183 H   0  0  0  0  0  0  0  0  0  0  0  0
   -5.9690    5.2052   -0.8421 H   0  0  0  0  0  0  0  0  0  0  0  0
   -9.1592    1.5772   -1.8840 H   0  0  0  0  0  0  0  0  0  0  0  0
   -4.7419    0.4599   -0.1301 H   0  0  0  0  0  0  0  0  0  0  0  0
   -8.4323   -2.2833   -0.6550 H   0  0  0  0  0  0  0  0  0  0  0  0
   -8.0063   -4.6644   -0.3445 H   0  0  0  0  0  0  0  0  0  0  0  0
   -6.3625   -6.4477   -0.3917 H   0  0  0  0  0  0  0  0  0  0  0  0
   -4.7138   -6.1576   -0.4164 H   0  0  0  0  0  0  0  0  0  0  0  0
   -3.7832   -3.9180   -0.4937 H   0  0  0  0  0  0  0  0  0  0  0  0
   -4.2112   -1.5571   -0.8137 H   0  0  0  0  0  0  0  0  0  0  0  0
  1  2  1  0
  1  7  1  0
  2  3  1  0
  3  4  1  0
  3  5  1  0
  5  6  1  0
  6  7  1  0
  8  9  2  0
  8 10  1  0
  9 16  1  0
 10 11  2  0
 11 12  1  0
 11 15  1  0
 12 13  1  0
 12 14  1  0
 15 16  2  0
 16 17  1  0
 17 18  1  0
 18 19  2  0
 18 20  1  0
 20 21  2  0
 20 23  1  0
 21 22  1  0
 21 26  1  0
 23 24  2  0
 24 25  1  0
 25 26  2  0
 26 27  1  0
 27 28  3  0
 28 29  1  0
 29 30  2  0
 29 35  1  0
 30 31  1  0
 31 32  2  0
 32 33  1  0
 32 35  1  0
 33 34  2  0
 34 37  1  0
 35 36  1  0
 36 37  2  0
 37 38  1  0
 38 39  2  0
 38 44  1  0
 39 40  1  0
 40 41  2  0
 41 42  1  0
 41 43  1  0
 43 44  2  0
  8  7  1  0
  1 45  1  0
  1 46  1  0
  2 47  1  0
  2 48  1  0
  4 49  1  0
  4 50  1  0
  4 51  1  0
  5 52  1  0
  5 53  1  0
  6 54  1  0
  6 55  1  0
  9 56  1  0
 10 57  1  0
 12 58  1  1
 13 59  1  0
 13 60  1  0
 13 61  1  0
 14 62  1  0
 14 63  1  0
 14 64  1  0
 15 65  1  0
 17 66  1  0
 22 67  1  0
 22 68  1  0
 22 69  1  0
 23 70  1  0
 24 71  1  0
 25 72  1  0
 30 73  1  0
 33 74  1  0
 36 75  1  0
 39 76  1  0
 40 77  1  0
 42 78  1  0
 42 79  1  0
 43 80  1  0
 44 81  1  0
M  END
