
     RDKit          3D

 48 49  0  0  0  0  0  0  0  0999 V2000
   -1.6032    0.7818    0.4177 C   0  0  0  0  0  0  0  0  0  0  0  0
   -1.4770   -0.6041    0.6551 C   0  0  0  0  0  0  0  0  0  0  0  0
   -2.8344    1.2842   -0.0233 C   0  0  0  0  0  0  0  0  0  0  0  0
   -2.5742   -1.4301    0.4989 C   0  0  0  0  0  0  0  0  0  0  0  0
   -3.8144   -0.9061    0.1171 C   0  0  0  0  0  0  0  0  0  0  0  0
   -0.3143    2.5698   -0.3397 O   0  0  0  0  0  0  0  0  0  0  0  0
   -3.9440    0.4480   -0.1458 C   0  0  0  0  0  0  0  0  0  0  0  0
    0.3243   -2.2147    0.2428 C   0  0  0  0  0  0  0  0  0  0  0  0
    2.0922    2.7006   -0.8135 C   0  0  0  0  0  0  0  0  0  0  0  0
   -0.1748   -1.2245    0.9786 C   0  0  0  0  0  0  0  0  0  0  0  0
    2.5566   -2.9305   -0.6982 C   0  0  1  0  0  0  0  0  0  0  0  0
   -0.4381    1.6673    0.6353 C   0  0  0  0  0  0  0  0  0  0  0  0
    0.8241    3.4636   -0.4149 C   0  0  2  0  0  0  0  0  0  0  0  0
    1.6027   -2.9405    0.5068 C   0  0  0  0  0  0  0  0  0  0  0  0
    0.3077    1.5895    1.5758 O   0  0  0  0  0  0  0  0  0  0  0  0
    3.5404   -1.7498   -0.6974 C   0  0  1  0  0  0  0  0  0  0  0  0
    2.8312   -0.4015   -0.7971 C   0  0  0  0  0  0  0  0  0  0  0  0
    2.1176   -0.2097   -1.7640 O   0  0  0  0  0  0  0  0  0  0  0  0
    3.0900    0.5893    0.2545 C   0  0  0  0  0  0  0  0  0  0  0  0
    2.7419    1.8838    0.2512 C   0  0  0  0  0  0  0  0  0  0  0  0
    3.3939   -4.0695   -0.7142 O   0  0  0  0  0  0  0  0  0  0  0  0
    4.3857   -1.7881    0.4196 O   0  0  0  0  0  0  0  0  0  0  0  0
   -3.0489    2.5755   -0.3184 O   0  0  0  0  0  0  0  0  0  0  0  0
   -4.8181   -1.7871    0.0211 O   0  0  0  0  0  0  0  0  0  0  0  0
   -6.0950   -1.3268   -0.3824 C   0  0  0  0  0  0  0  0  0  0  0  0
    0.9541    4.3936    0.7771 C   0  0  0  0  0  0  0  0  0  0  0  0
   -2.4803   -2.4923    0.6824 H   0  0  0  0  0  0  0  0  0  0  0  0
   -4.8814    0.8877   -0.4585 H   0  0  0  0  0  0  0  0  0  0  0  0
   -0.2322   -2.5516   -0.6289 H   0  0  0  0  0  0  0  0  0  0  0  0
    1.8846    2.1188   -1.7068 H   0  0  0  0  0  0  0  0  0  0  0  0
    2.8106    3.4775   -1.1004 H   0  0  0  0  0  0  0  0  0  0  0  0
    0.3876   -0.8436    1.8215 H   0  0  0  0  0  0  0  0  0  0  0  0
    1.9646   -2.8770   -1.6209 H   0  0  0  0  0  0  0  0  0  0  0  0
    0.5630    4.0738   -1.2794 H   0  0  0  0  0  0  0  0  0  0  0  0
    2.0994   -2.5606    1.4030 H   0  0  0  0  0  0  0  0  0  0  0  0
    1.3418   -3.9844    0.7188 H   0  0  0  0  0  0  0  0  0  0  0  0
    4.1277   -1.8290   -1.6272 H   0  0  0  0  0  0  0  0  0  0  0  0
    3.6175    0.2319    1.1273 H   0  0  0  0  0  0  0  0  0  0  0  0
    3.0329    2.4443    1.1340 H   0  0  0  0  0  0  0  0  0  0  0  0
    2.8499   -4.8588   -0.6317 H   0  0  0  0  0  0  0  0  0  0  0  0
    4.7713   -2.6704    0.4666 H   0  0  0  0  0  0  0  0  0  0  0  0
   -2.2111    3.0474   -0.4220 H   0  0  0  0  0  0  0  0  0  0  0  0
   -6.0689   -0.8837   -1.3807 H   0  0  0  0  0  0  0  0  0  0  0  0
   -6.7440   -2.1982   -0.4012 H   0  0  0  0  0  0  0  0  0  0  0  0
   -6.5040   -0.5964    0.3198 H   0  0  0  0  0  0  0  0  0  0  0  0
    1.3097    3.9080    1.6809 H   0  0  0  0  0  0  0  0  0  0  0  0
    1.6598    5.1831    0.5163 H   0  0  0  0  0  0  0  0  0  0  0  0
   -0.0013    4.8721    0.9941 H   0  0  0  0  0  0  0  0  0  0  0  0
  2  1  2  0
  1  3  1  0
  1 12  1  0
 10  2  1  0
  4  2  1  0
  7  3  2  0
  3 23  1  0
  4  5  2  0
  4 27  1  0
 24  5  1  0
  5  7  1  0
  6 13  1  0
  6 12  1  0
  7 28  1  0
 14  8  1  0
  8 10  2  0
  8 29  1  0
 20  9  1  0
  9 13  1  0
  9 30  1  0
  9 31  1  0
 10 32  1  0
 21 11  1  0
 16 11  1  0
 11 14  1  0
 11 33  1  6
 12 15  2  0
 13 26  1  0
 13 34  1  6
 14 35  1  0
 14 36  1  0
 22 16  1  0
 16 17  1  0
 16 37  1  6
 19 17  1  0
 17 18  2  0
 19 20  2  0
 19 38  1  0
 20 39  1  0
 21 40  1  0
 22 41  1  0
 23 42  1  0
 25 24  1  0
 25 43  1  0
 25 44  1  0
 25 45  1  0
 26 46  1  0
 26 47  1  0
 26 48  1  0
M  END
