
     RDKit          3D

 25 24  0  0  0  0  0  0  0  0999 V2000
   -0.1495    0.4630   -5.0907 O   0  0  0  0  0  0  0  0  0  0  0  0
   -0.4956    0.1746   -3.9738 C   0  0  0  0  0  0  0  0  0  0  0  0
    0.4323    0.1046   -2.7917 C   0  0  0  0  0  0  0  0  0  0  0  0
   -0.0509   -0.8942   -1.8601 N   0  0  0  0  0  0  0  0  0  0  0  0
    0.6523   -0.7728   -0.6510 O   0  0  0  0  0  0  0  0  0  0  0  0
   -0.2442   -0.4487    0.3955 C   0  0  0  0  0  0  0  0  0  0  0  0
    0.5535   -0.3006    1.6756 C   0  0  0  0  0  0  0  0  0  0  0  0
   -0.3477   -0.0046    2.8685 C   0  0  0  0  0  0  0  0  0  0  0  0
    0.4244    0.1338    4.1750 C   0  0  0  0  0  0  0  0  0  0  0  0
   -0.4803    0.4152    5.3661 C   0  0  0  0  0  0  0  0  0  0  0  0
   -1.5533   -0.0306   -3.7314 H   0  0  0  0  0  0  0  0  0  0  0  0
    0.3629    1.0858   -2.3065 H   0  0  0  0  0  0  0  0  0  0  0  0
    1.4681   -0.0258   -3.1244 H   0  0  0  0  0  0  0  0  0  0  0  0
    0.1904   -1.8173   -2.2048 H   0  0  0  0  0  0  0  0  0  0  0  0
   -0.9990   -1.2363    0.5100 H   0  0  0  0  0  0  0  0  0  0  0  0
   -0.7767    0.4844    0.1719 H   0  0  0  0  0  0  0  0  0  0  0  0
    1.2889    0.5020    1.5617 H   0  0  0  0  0  0  0  0  0  0  0  0
    1.1148   -1.2209    1.8644 H   0  0  0  0  0  0  0  0  0  0  0  0
   -1.0909   -0.8026    2.9732 H   0  0  0  0  0  0  0  0  0  0  0  0
   -0.9135    0.9147    2.6831 H   0  0  0  0  0  0  0  0  0  0  0  0
    1.1635    0.9344    4.0757 H   0  0  0  0  0  0  0  0  0  0  0  0
    0.9932   -0.7837    4.3548 H   0  0  0  0  0  0  0  0  0  0  0  0
    0.0901    0.5003    6.2917 H   0  0  0  0  0  0  0  0  0  0  0  0
   -1.0323    1.3472    5.2316 H   0  0  0  0  0  0  0  0  0  0  0  0
   -1.2129   -0.3831    5.5021 H   0  0  0  0  0  0  0  0  0  0  0  0
  1  2  2  0
  2  3  1  0
  2 11  1  0
  3  4  1  0
  3 12  1  0
  3 13  1  0
  4  5  1  0
  4 14  1  0
  5  6  1  0
  6  7  1  0
  6 15  1  0
  6 16  1  0
  7  8  1  0
  7 17  1  0
  7 18  1  0
  8  9  1  0
  8 19  1  0
  8 20  1  0
  9 10  1  0
  9 21  1  0
  9 22  1  0
 10 23  1  0
 10 24  1  0
 10 25  1  0
M  END
