
     RDKit          3D

 25 25  0  0  0  0  0  0  0  0999 V2000
    0.7628    3.1743   -0.2853 C   0  0  0  0  0  0  0  0  0  0  0  0
   -3.7783   -1.3533    0.3097 N   0  0  0  0  0  0  0  0  0  0  0  0
    3.2482   -1.5888    0.2334 C   0  0  0  0  0  0  0  0  0  0  0  0
    2.5505   -0.3725    0.0701 O   0  0  0  0  0  0  0  0  0  0  0  0
    1.2041   -0.4213    0.0067 C   0  0  0  0  0  0  0  0  0  0  0  0
    0.4434   -1.5754    0.0602 C   0  0  0  0  0  0  0  0  0  0  0  0
   -0.9495   -1.5166   -0.0126 C   0  0  0  0  0  0  0  0  0  0  0  0
   -1.5980   -0.3031   -0.1357 C   0  0  0  0  0  0  0  0  0  0  0  0
   -0.8298    0.8659   -0.1835 C   0  0  0  0  0  0  0  0  0  0  0  0
    0.5519    0.8232   -0.1186 C   0  0  0  0  0  0  0  0  0  0  0  0
    1.3600    1.9011   -0.1572 O   0  0  0  0  0  0  0  0  0  0  0  0
    0.1890    3.2649   -1.2117 H   0  0  0  0  0  0  0  0  0  0  0  0
    0.1050    3.4048    0.5573 H   0  0  0  0  0  0  0  0  0  0  0  0
    1.5746    3.8972   -0.3034 H   0  0  0  0  0  0  0  0  0  0  0  0
   -3.6820   -1.3496    1.3175 H   0  0  0  0  0  0  0  0  0  0  0  0
   -4.7698   -1.2802    0.1232 H   0  0  0  0  0  0  0  0  0  0  0  0
    2.9714   -2.0979    1.1608 H   0  0  0  0  0  0  0  0  0  0  0  0
    3.0819   -2.2741   -0.6025 H   0  0  0  0  0  0  0  0  0  0  0  0
    4.3053   -1.3372    0.2740 H   0  0  0  0  0  0  0  0  0  0  0  0
    0.9184   -2.5424    0.1613 H   0  0  0  0  0  0  0  0  0  0  0  0
   -1.5233   -2.4322    0.0344 H   0  0  0  0  0  0  0  0  0  0  0  0
   -1.3416    1.8170   -0.2712 H   0  0  0  0  0  0  0  0  0  0  0  0
   -3.3706   -0.1254   -1.3029 H   0  0  0  0  0  0  0  0  0  0  0  0
   -3.4131    0.7564    0.2040 H   0  0  0  0  0  0  0  0  0  0  0  0
   -3.0998   -0.1967   -0.2447 C   0  0  0  0  0  0  0  0  0  0  0  0
  1 11  1  0
 11 10  1  0
  4  3  1  0
  4  5  1  0
 10  5  2  0
 10  9  1  0
  5  6  1  0
  9  8  2  0
  6  7  2  0
  8  7  1  0
  8 25  1  0
  2 25  1  0
  1 12  1  0
  1 13  1  0
  1 14  1  0
  2 15  1  0
  2 16  1  0
  3 17  1  0
  3 18  1  0
  3 19  1  0
  6 20  1  0
  7 21  1  0
  9 22  1  0
 25 23  1  0
 25 24  1  0
M  END
