
     RDKit          3D

 63 63  0  0  0  0  0  0  0  0999 V2000
    3.5748   -0.1189    0.9728 C   0  0  0  0  0  0  0  0  0  0  0  0
    3.0099    0.8483    1.4412 O   0  0  0  0  0  0  0  0  0  0  0  0
    4.8478   -0.1276    0.5746 O   0  0  0  0  0  0  0  0  0  0  0  0
    5.5803    1.0974    0.7153 C   0  0  0  0  0  0  0  0  0  0  0  0
    6.9631    0.8380    0.2009 C   0  0  0  0  0  0  0  0  0  0  0  0
    7.9802    0.4546    1.0695 C   0  0  0  0  0  0  0  0  0  0  0  0
    9.2562    0.1914    0.5893 C   0  0  0  0  0  0  0  0  0  0  0  0
    9.5244    0.3058   -0.7684 C   0  0  0  0  0  0  0  0  0  0  0  0
    8.5141    0.6866   -1.6429 C   0  0  0  0  0  0  0  0  0  0  0  0
    7.2407    0.9508   -1.1589 C   0  0  0  0  0  0  0  0  0  0  0  0
    3.0114   -1.3326    0.8057 N   0  0  0  0  0  0  0  0  0  0  0  0
    1.6184   -1.5618    1.0747 C   0  0  0  0  0  0  0  0  0  0  0  0
    0.6102   -1.2252   -0.4119 P   0  0  2  0  0  0  0  0  0  0  0  0
    0.9630   -2.0681   -1.5869 O   0  0  0  0  0  0  0  0  0  0  0  0
    0.8755    0.3135   -0.8210 O   0  0  0  0  0  0  0  0  0  0  0  0
   -0.9381   -1.2593    0.1875 N   0  0  0  0  0  0  0  0  0  0  0  0
   -2.1006   -0.9709   -0.6317 C   0  0  2  0  0  0  0  0  0  0  0  0
   -3.2064   -0.4971    0.3044 C   0  0  0  0  0  0  0  0  0  0  0  0
   -3.3369   -0.9523    1.4299 O   0  0  0  0  0  0  0  0  0  0  0  0
   -2.5547   -2.1590   -1.5128 C   0  0  1  0  0  0  0  0  0  0  0  0
   -3.0342   -3.3601   -0.7063 C   0  0  0  0  0  0  0  0  0  0  0  0
   -3.5992   -1.7403   -2.5420 C   0  0  0  0  0  0  0  0  0  0  0  0
   -4.0291    0.4412   -0.1891 N   0  0  0  0  0  0  0  0  0  0  0  0
   -5.1612    0.9201    0.5563 C   0  0  2  0  0  0  0  0  0  0  0  0
   -6.1798   -0.1907    0.7592 C   0  0  0  0  0  0  0  0  0  0  0  0
   -6.3192   -1.1389    0.0321 O   0  0  0  0  0  0  0  0  0  0  0  0
   -5.8210    2.0932   -0.1760 C   0  0  0  0  0  0  0  0  0  0  0  0
   -4.9176    3.3175   -0.3552 C   0  0  1  0  0  0  0  0  0  0  0  0
   -5.6663    4.3775   -1.1571 C   0  0  0  0  0  0  0  0  0  0  0  0
   -4.4425    3.8830    0.9784 C   0  0  0  0  0  0  0  0  0  0  0  0
   -6.9323    0.0449    1.8246 O   0  0  0  0  0  0  0  0  0  0  0  0
    5.6063    1.4012    1.7636 H   0  0  0  0  0  0  0  0  0  0  0  0
    5.0947    1.8894    0.1418 H   0  0  0  0  0  0  0  0  0  0  0  0
    7.7764    0.3672    2.1303 H   0  0  0  0  0  0  0  0  0  0  0  0
   10.0412   -0.1001    1.2752 H   0  0  0  0  0  0  0  0  0  0  0  0
   10.5191    0.1021   -1.1434 H   0  0  0  0  0  0  0  0  0  0  0  0
    8.7186    0.7804   -2.7015 H   0  0  0  0  0  0  0  0  0  0  0  0
    6.4565    1.2524   -1.8438 H   0  0  0  0  0  0  0  0  0  0  0  0
    3.5368   -2.0623    0.3513 H   0  0  0  0  0  0  0  0  0  0  0  0
    1.4755   -2.6037    1.3644 H   0  0  0  0  0  0  0  0  0  0  0  0
    1.2835   -0.9486    1.9113 H   0  0  0  0  0  0  0  0  0  0  0  0
    0.7242    0.9521   -0.1122 H   0  0  0  0  0  0  0  0  0  0  0  0
   -1.1154   -1.8889    0.9594 H   0  0  0  0  0  0  0  0  0  0  0  0
   -1.8379   -0.1478   -1.3038 H   0  0  0  0  0  0  0  0  0  0  0  0
   -1.6540   -2.4563   -2.0567 H   0  0  0  0  0  0  0  0  0  0  0  0
   -3.9901   -3.1647   -0.2182 H   0  0  0  0  0  0  0  0  0  0  0  0
   -3.1722   -4.2169   -1.3668 H   0  0  0  0  0  0  0  0  0  0  0  0
   -2.3177   -3.6597    0.0601 H   0  0  0  0  0  0  0  0  0  0  0  0
   -3.2686   -0.8750   -3.1207 H   0  0  0  0  0  0  0  0  0  0  0  0
   -3.7753   -2.5525   -3.2482 H   0  0  0  0  0  0  0  0  0  0  0  0
   -4.5561   -1.4971   -2.0785 H   0  0  0  0  0  0  0  0  0  0  0  0
   -3.9041    0.7603   -1.1365 H   0  0  0  0  0  0  0  0  0  0  0  0
   -4.8314    1.2554    1.5431 H   0  0  0  0  0  0  0  0  0  0  0  0
   -6.1685    1.7484   -1.1555 H   0  0  0  0  0  0  0  0  0  0  0  0
   -6.7121    2.3919    0.3824 H   0  0  0  0  0  0  0  0  0  0  0  0
   -4.0350    3.0241   -0.9342 H   0  0  0  0  0  0  0  0  0  0  0  0
   -6.5697    4.6957   -0.6319 H   0  0  0  0  0  0  0  0  0  0  0  0
   -5.0464    5.2609   -1.3152 H   0  0  0  0  0  0  0  0  0  0  0  0
   -5.9660    3.9993   -2.1359 H   0  0  0  0  0  0  0  0  0  0  0  0
   -3.8377    3.1716    1.5427 H   0  0  0  0  0  0  0  0  0  0  0  0
   -3.8293    4.7714    0.8218 H   0  0  0  0  0  0  0  0  0  0  0  0
   -5.2901    4.1725    1.6047 H   0  0  0  0  0  0  0  0  0  0  0  0
   -7.6135   -0.6383    1.9146 H   0  0  0  0  0  0  0  0  0  0  0  0
  9  8  2  0
  8  7  1  0
  8 36  1  0
 10  9  1  0
  9 37  1  0
 10  5  2  0
 10 38  1  0
  4  5  1  0
  5  6  1  0
  3  4  1  0
  4 32  1  0
  4 33  1  0
  1  3  1  0
 11  1  1  0
  2  1  2  0
 12 11  1  0
 11 39  1  0
 13 12  1  0
 12 40  1  0
 12 41  1  0
 16 13  1  0
 13 14  2  0
 13 15  1  6
 15 42  1  0
 17 16  1  0
 16 43  1  0
 20 17  1  0
 17 18  1  0
 17 44  1  6
 21 20  1  0
 22 20  1  0
 20 45  1  6
 21 46  1  0
 21 47  1  0
 21 48  1  0
 22 49  1  0
 22 50  1  0
 22 51  1  0
 19 18  2  0
 18 23  1  0
 23 24  1  0
 23 52  1  0
 27 24  1  0
 24 25  1  0
 24 53  1  1
 25 26  2  0
 25 31  1  0
 31 63  1  0
  6  7  2  0
  6 34  1  0
  7 35  1  0
 28 27  1  0
 27 54  1  0
 27 55  1  0
 30 28  1  0
 29 28  1  0
 28 56  1  6
 29 57  1  0
 29 58  1  0
 29 59  1  0
 30 60  1  0
 30 61  1  0
 30 62  1  0
M  END
