
     RDKit          3D

 18 19  0  0  0  0  0  0  0  0999 V2000
   -1.2605   -0.0145   -1.6942 N   0  0  0  0  0  0  0  0  0  0  0  0
    0.9124    0.0811   -2.1484 N   0  0  0  0  0  0  0  0  0  0  0  0
   -0.2923    0.0308   -2.6410 C   0  0  0  0  0  0  0  0  0  0  0  0
    0.7322    0.0684   -0.7837 C   0  0  0  0  0  0  0  0  0  0  0  0
   -0.6354    0.0079   -0.4769 C   0  0  0  0  0  0  0  0  0  0  0  0
   -1.1137   -0.0172    0.8303 C   0  0  0  0  0  0  0  0  0  0  0  0
   -0.1830    0.0196    1.8562 C   0  0  0  0  0  0  0  0  0  0  0  0
    1.1934    0.0818    1.5522 C   0  0  0  0  0  0  0  0  0  0  0  0
    1.6641    0.1064    0.2548 C   0  0  0  0  0  0  0  0  0  0  0  0
   -0.6217   -0.0111    3.2927 C   0  0  0  0  0  0  0  0  0  0  0  0
   -2.2522   -0.0543   -1.8674 H   0  0  0  0  0  0  0  0  0  0  0  0
   -0.5370    0.0243   -3.6927 H   0  0  0  0  0  0  0  0  0  0  0  0
   -2.1752   -0.0641    1.0401 H   0  0  0  0  0  0  0  0  0  0  0  0
    1.9037    0.1112    2.3698 H   0  0  0  0  0  0  0  0  0  0  0  0
    2.7258    0.1543    0.0479 H   0  0  0  0  0  0  0  0  0  0  0  0
   -0.2417    0.8515    3.8426 H   0  0  0  0  0  0  0  0  0  0  0  0
   -1.7075   -0.0095    3.3808 H   0  0  0  0  0  0  0  0  0  0  0  0
   -0.2494   -0.9022    3.8016 H   0  0  0  0  0  0  0  0  0  0  0  0
  1  3  1  0
  1  5  1  0
  1 11  1  0
  2  3  2  0
  2  4  1  0
  3 12  1  0
  4  5  2  0
  4  9  1  0
  5  6  1  0
  6  7  2  0
  6 13  1  0
  7  8  1  0
  7 10  1  0
  8  9  2  0
  8 14  1  0
  9 15  1  0
 10 16  1  0
 10 17  1  0
 10 18  1  0
M  END
