
     RDKit          3D

 35 37  0  0  0  0  0  0  0  0999 V2000
   -3.3796   -0.9218    0.6110 N   0  0  0  0  0  0  0  0  0  0  0  0
   -4.0199   -0.9194    1.8100 C   0  0  0  0  0  0  0  0  0  0  0  0
   -5.1623   -0.3001    1.7936 N   0  0  0  0  0  0  0  0  0  0  0  0
   -5.2928    0.1617    0.5029 C   0  0  0  0  0  0  0  0  0  0  0  0
   -4.1723   -0.2122   -0.2557 C   0  0  0  0  0  0  0  0  0  0  0  0
   -4.0271    0.1233   -1.5966 C   0  0  0  0  0  0  0  0  0  0  0  0
   -5.0546    0.8552   -2.1660 C   0  0  0  0  0  0  0  0  0  0  0  0
   -6.1830    1.2373   -1.4242 C   0  0  0  0  0  0  0  0  0  0  0  0
   -6.3177    0.8983   -0.0899 C   0  0  0  0  0  0  0  0  0  0  0  0
   -2.0631   -1.4192    0.3541 C   0  0  0  0  0  0  0  0  0  0  0  0
   -1.0206   -0.3156    0.4451 C   0  0  0  0  0  0  0  0  0  0  0  0
   -1.3411    0.8143    0.7229 O   0  0  0  0  0  0  0  0  0  0  0  0
    0.3950   -0.6824    0.1859 C   0  0  0  0  0  0  0  0  0  0  0  0
    1.3575    0.3236    0.2189 C   0  0  0  0  0  0  0  0  0  0  0  0
    2.6901    0.0313   -0.0018 C   0  0  0  0  0  0  0  0  0  0  0  0
    3.0772   -1.2857   -0.2580 C   0  0  0  0  0  0  0  0  0  0  0  0
    2.1255   -2.2913   -0.2954 C   0  0  0  0  0  0  0  0  0  0  0  0
    0.7924   -1.9893   -0.0767 C   0  0  0  0  0  0  0  0  0  0  0  0
    3.8597    1.3765    0.0172 S   0  0  1  0  0  0  0  0  0  0  0  0
    4.6816    1.3017   -1.1767 O   0  0  0  0  0  0  0  0  0  0  0  0
    4.7179   -1.7148   -0.5193 Cl  0  0  0  0  0  0  0  0  0  0  0  0
    3.0915    2.5847    0.2690 O   0  0  0  0  0  0  0  0  0  0  0  0
    4.8101    0.9800    1.2917 N   0  0  0  0  0  0  0  0  0  0  0  0
   -3.5872   -1.4116    2.6697 H   0  0  0  0  0  0  0  0  0  0  0  0
   -3.1594   -0.1670   -2.1755 H   0  0  0  0  0  0  0  0  0  0  0  0
   -4.9849    1.1418   -3.2070 H   0  0  0  0  0  0  0  0  0  0  0  0
   -6.9616    1.8106   -1.9097 H   0  0  0  0  0  0  0  0  0  0  0  0
   -7.1879    1.1976    0.4799 H   0  0  0  0  0  0  0  0  0  0  0  0
   -1.8309   -2.2031    1.0783 H   0  0  0  0  0  0  0  0  0  0  0  0
   -2.0281   -1.8911   -0.6312 H   0  0  0  0  0  0  0  0  0  0  0  0
    1.0576    1.3422    0.4221 H   0  0  0  0  0  0  0  0  0  0  0  0
    2.4255   -3.3105   -0.4937 H   0  0  0  0  0  0  0  0  0  0  0  0
    0.0770   -2.7991   -0.1120 H   0  0  0  0  0  0  0  0  0  0  0  0
    5.7889    1.1935    1.1391 H   0  0  0  0  0  0  0  0  0  0  0  0
    4.4743    1.3327    2.1805 H   0  0  0  0  0  0  0  0  0  0  0  0
  5  1  1  0
  1  2  1  0
  1 10  1  0
  3  2  2  0
  2 24  1  0
  4  3  1  0
  9  4  1  0
  4  5  2  0
  6  5  1  0
  7  6  2  0
  6 25  1  0
  8  7  1  0
  7 26  1  0
  8  9  2  0
  8 27  1  0
  9 28  1  0
 10 11  1  0
 10 29  1  0
 10 30  1  0
 12 11  2  0
 11 13  1  0
 13 18  1  0
 13 14  2  0
 14 15  1  0
 14 31  1  0
 15 16  2  0
 15 19  1  0
 17 16  1  0
 16 21  1  0
 18 17  2  0
 17 32  1  0
 18 33  1  0
 19 23  1  1
 22 19  2  0
 19 20  2  0
 23 34  1  0
 23 35  1  0
M  END
