
     RDKit          3D

 21 21  0  0  0  0  0  0  0  0999 V2000
   -1.8476   -0.9356   -1.3824 O   0  0  0  0  0  0  0  0  0  0  0  0
    2.4009   -1.8469    0.0634 C   0  0  0  0  0  0  0  0  0  0  0  0
    1.0684   -1.8736    0.4464 C   0  0  0  0  0  0  0  0  0  0  0  0
    0.2900   -0.7217    0.4626 C   0  0  0  0  0  0  0  0  0  0  0  0
    0.8900    0.4919    0.0903 C   0  0  0  0  0  0  0  0  0  0  0  0
    2.2358    0.5153   -0.2822 C   0  0  0  0  0  0  0  0  0  0  0  0
    2.9884   -0.6463   -0.3036 C   0  0  0  0  0  0  0  0  0  0  0  0
    0.1035    1.7509    0.0564 C   0  0  0  0  0  0  0  0  0  0  0  0
   -1.1043    1.8060    0.0635 O   0  0  0  0  0  0  0  0  0  0  0  0
   -1.1389   -0.8383    0.9129 C   0  0  0  0  0  0  0  0  0  0  0  0
   -2.1177   -0.7276   -0.2272 C   0  0  0  0  0  0  0  0  0  0  0  0
   -3.3428   -0.4452    0.1991 O   0  0  0  0  0  0  0  0  0  0  0  0
    0.8663    2.8346    0.0095 O   0  0  0  0  0  0  0  0  0  0  0  0
    0.6214   -2.8151    0.7399 H   0  0  0  0  0  0  0  0  0  0  0  0
    4.0267   -0.6111   -0.6048 H   0  0  0  0  0  0  0  0  0  0  0  0
   -1.2880   -1.8287    1.3552 H   0  0  0  0  0  0  0  0  0  0  0  0
   -1.3860   -0.1207    1.6948 H   0  0  0  0  0  0  0  0  0  0  0  0
    2.7037    1.4455   -0.5710 H   0  0  0  0  0  0  0  0  0  0  0  0
    0.3101    3.6261   -0.0440 H   0  0  0  0  0  0  0  0  0  0  0  0
   -3.9575   -0.4347   -0.5498 H   0  0  0  0  0  0  0  0  0  0  0  0
    2.9773   -2.7628    0.0544 H   0  0  0  0  0  0  0  0  0  0  0  0
  1 11  2  0
  2  3  2  0
  2  7  1  0
  2 21  1  0
  3  4  1  0
  3 14  1  0
  4  5  2  0
  4 10  1  0
  5  6  1  0
  5  8  1  0
  6  7  2  0
  6 18  1  0
  7 15  1  0
  8  9  2  0
  8 13  1  0
 10 11  1  0
 10 16  1  0
 10 17  1  0
 11 12  1  0
 12 20  1  0
 13 19  1  0
M  END
