
     RDKit          3D

 26 26  0  0  0  0  0  0  0  0999 V2000
    1.6050    2.1223   -0.0622 C   0  0  0  0  0  0  0  0  0  0  0  0
    1.6047    0.5913    0.0073 C   0  0  1  0  0  0  0  0  0  0  0  0
    2.3907    0.1092   -1.2248 C   0  0  0  0  0  0  0  0  0  0  0  0
    2.3328    0.2213    1.3114 C   0  0  0  0  0  0  0  0  0  0  0  0
    0.1829    0.0154    0.0008 C   0  0  0  0  0  0  0  0  0  0  0  0
   -0.9228    0.8681   -0.0564 C   0  0  0  0  0  0  0  0  0  0  0  0
   -2.2332    0.4083   -0.0679 C   0  0  0  0  0  0  0  0  0  0  0  0
   -3.2973    1.2459   -0.1241 O   0  0  0  0  0  0  0  0  0  0  0  0
   -2.4727   -0.9578   -0.0211 C   0  0  0  0  0  0  0  0  0  0  0  0
   -1.3972   -1.8241    0.0368 C   0  0  0  0  0  0  0  0  0  0  0  0
   -0.0837   -1.3632    0.0494 C   0  0  0  0  0  0  0  0  0  0  0  0
    0.8582   -2.3431    0.1098 O   0  0  0  0  0  0  0  0  0  0  0  0
    1.1327    2.4933   -0.9732 H   0  0  0  0  0  0  0  0  0  0  0  0
    1.1063    2.5761    0.7956 H   0  0  0  0  0  0  0  0  0  0  0  0
    2.6363    2.4774   -0.0628 H   0  0  0  0  0  0  0  0  0  0  0  0
    3.4013    0.5202   -1.2043 H   0  0  0  0  0  0  0  0  0  0  0  0
    2.4965   -0.9724   -1.3074 H   0  0  0  0  0  0  0  0  0  0  0  0
    1.9086    0.4530   -2.1411 H   0  0  0  0  0  0  0  0  0  0  0  0
    1.7994    0.6261    2.1727 H   0  0  0  0  0  0  0  0  0  0  0  0
    2.4507   -0.8488    1.4830 H   0  0  0  0  0  0  0  0  0  0  0  0
    3.3363    0.6500    1.3085 H   0  0  0  0  0  0  0  0  0  0  0  0
   -0.7664    1.9382   -0.0941 H   0  0  0  0  0  0  0  0  0  0  0  0
   -2.9979    2.1612   -0.1386 H   0  0  0  0  0  0  0  0  0  0  0  0
   -3.4854   -1.3413   -0.0293 H   0  0  0  0  0  0  0  0  0  0  0  0
   -1.5716   -2.8930    0.0745 H   0  0  0  0  0  0  0  0  0  0  0  0
    1.7479   -1.9844    0.1168 H   0  0  0  0  0  0  0  0  0  0  0  0
  2  1  1  6
  2  3  1  0
  2  4  1  0
  2  5  1  0
  5  6  2  0
  5 11  1  0
  6  7  1  0
  7  8  1  0
  7  9  2  0
  9 10  1  0
 10 11  2  0
 11 12  1  0
  1 13  1  0
  1 14  1  0
  1 15  1  0
  3 16  1  0
  3 17  1  0
  3 18  1  0
  4 19  1  0
  4 20  1  0
  4 21  1  0
  6 22  1  0
  8 23  1  0
  9 24  1  0
 10 25  1  0
 12 26  1  0
M  END
