
     RDKit          3D

 35 38  0  0  0  0  0  0  0  0999 V2000
   -7.0483    1.5542    0.0442 O   0  0  0  0  0  0  0  0  0  0  0  0
   -2.3695    2.8096    0.0031 O   0  0  0  0  0  0  0  0  0  0  0  0
   -7.7923   -0.5472    0.0360 O   0  0  0  0  0  0  0  0  0  0  0  0
    5.6521   -0.5606   -0.0809 Br  0  0  0  0  0  0  0  0  0  0  0  0
    2.9111    2.5494   -0.0483 C   0  0  0  0  0  0  0  0  0  0  0  0
    4.0991    1.8343   -0.0592 C   0  0  0  0  0  0  0  0  0  0  0  0
   -5.2614   -1.6051   -0.0015 C   0  0  0  0  0  0  0  0  0  0  0  0
    1.6756    1.9099   -0.0430 C   0  0  0  0  0  0  0  0  0  0  0  0
   -3.9854   -2.1435   -0.0199 C   0  0  0  0  0  0  0  0  0  0  0  0
   -4.3841    0.6545    0.0080 C   0  0  0  0  0  0  0  0  0  0  0  0
   -1.3700    1.9235   -0.0130 N   0  0  0  0  0  0  0  0  0  0  0  0
    2.5723   -1.5477   -0.0648 N   0  0  0  0  0  0  0  0  0  0  0  0
   -1.5803   -1.5412   -0.0380 N   0  0  0  0  0  0  0  0  0  0  0  0
   -6.8292    0.3651    0.0322 C   0  0  0  0  0  0  0  0  0  0  0  0
   -5.4724   -0.2220    0.0126 C   0  0  0  0  0  0  0  0  0  0  0  0
    4.0584    0.4447   -0.0652 C   0  0  0  0  0  0  0  0  0  0  0  0
    1.2301   -1.7917   -0.0596 C   0  0  0  0  0  0  0  0  0  0  0  0
   -0.8090   -0.4205   -0.0355 C   0  0  0  0  0  0  0  0  0  0  0  0
   -1.7653    0.7103   -0.0181 C   0  0  0  0  0  0  0  0  0  0  0  0
    0.5621   -0.4767   -0.0469 C   0  0  0  0  0  0  0  0  0  0  0  0
   -2.9208   -1.2590   -0.0235 C   0  0  0  0  0  0  0  0  0  0  0  0
    1.6208    0.5213   -0.0488 C   0  0  0  0  0  0  0  0  0  0  0  0
   -3.1061    0.1294   -0.0099 C   0  0  0  0  0  0  0  0  0  0  0  0
    2.8365   -0.1976   -0.0604 C   0  0  0  0  0  0  0  0  0  0  0  0
   -1.9401    3.6744    0.0098 H   0  0  0  0  0  0  0  0  0  0  0  0
    2.9492    3.6303   -0.0436 H   0  0  0  0  0  0  0  0  0  0  0  0
    5.0470    2.3552   -0.0620 H   0  0  0  0  0  0  0  0  0  0  0  0
   -6.1019   -2.2847    0.0012 H   0  0  0  0  0  0  0  0  0  0  0  0
    0.7729    2.4960   -0.0343 H   0  0  0  0  0  0  0  0  0  0  0  0
   -3.8322   -3.2138   -0.0308 H   0  0  0  0  0  0  0  0  0  0  0  0
   -4.5540    1.7199    0.0187 H   0  0  0  0  0  0  0  0  0  0  0  0
    3.2642   -2.2813   -0.0834 H   0  0  0  0  0  0  0  0  0  0  0  0
   -1.1685   -2.4674   -0.0502 H   0  0  0  0  0  0  0  0  0  0  0  0
   -8.6580   -0.1127    0.0482 H   0  0  0  0  0  0  0  0  0  0  0  0
    0.7280   -2.9105   -0.0641 O   0  0  0  0  0  0  0  0  0  0  0  0
  1 14  2  0
 35 17  2  0
  2 11  1  0
  3 14  1  0
  4 16  1  0
  5  6  2  0
  5  8  1  0
  6 16  1  0
  7  9  2  0
  7 15  1  0
  8 22  2  0
  9 21  1  0
 10 15  2  0
 10 23  1  0
 11 19  2  0
 12 17  1  0
 12 24  1  0
 13 18  1  0
 13 21  1  0
 14 15  1  0
 16 24  2  0
 17 20  1  0
 18 19  1  0
 18 20  2  0
 19 23  1  0
 20 22  1  0
 21 23  2  0
 22 24  1  0
  2 25  1  0
  5 26  1  0
  6 27  1  0
  7 28  1  0
  8 29  1  0
  9 30  1  0
 10 31  1  0
 12 32  1  0
 13 33  1  0
  3 34  1  0
M  END
