
     RDKit          3D

 52 55  0  0  0  0  0  0  0  0999 V2000
   -1.0081    0.3344    0.0842 N   0  0  0  0  0  0  0  0  0  0  0  0
    3.1740    2.1977    0.0369 N   0  0  0  0  0  0  0  0  0  0  0  0
   -2.3750    0.0930    0.1649 C   0  0  0  0  0  0  0  0  0  0  0  0
   -0.2799    1.4838    0.1607 C   0  0  0  0  0  0  0  0  0  0  0  0
   -0.0699    3.7088    0.4062 C   0  0  0  0  0  0  0  0  0  0  0  0
    1.2932    3.6313    0.3175 C   0  0  0  0  0  0  0  0  0  0  0  0
    1.8271    2.3378    0.1308 C   0  0  0  0  0  0  0  0  0  0  0  0
    5.3741    1.3243   -0.0916 C   0  0  0  0  0  0  0  0  0  0  0  0
    6.4335   -2.2484   -0.7422 C   0  0  0  0  0  0  0  0  0  0  0  0
    4.4561   -1.2061   -0.5694 C   0  0  0  0  0  0  0  0  0  0  0  0
   -2.7540   -1.2527    0.1707 C   0  0  0  0  0  0  0  0  0  0  0  0
   -5.0786   -0.6018    0.3058 C   0  0  0  0  0  0  0  0  0  0  0  0
   -7.0483   -1.0868   -0.8514 C   0  0  0  0  0  0  0  0  0  0  0  0
   -5.3670    3.0080    0.3319 C   0  0  0  0  0  0  0  0  0  0  0  0
   -4.6869    0.7364    0.2889 C   0  0  0  0  0  0  0  0  0  0  0  0
   -3.3409    1.0944    0.2262 C   0  0  0  0  0  0  0  0  0  0  0  0
   -0.8822    2.6499    0.3300 N   0  0  0  0  0  0  0  0  0  0  0  0
    3.9741    1.0740   -0.1524 C   0  0  0  0  0  0  0  0  0  0  0  0
    6.2963    0.3258   -0.2673 C   0  0  0  0  0  0  0  0  0  0  0  0
    5.8380   -0.9746   -0.5119 C   0  0  0  0  0  0  0  0  0  0  0  0
    5.5022   -3.1523   -0.9210 N   0  0  0  0  0  0  0  0  0  0  0  0
    4.3191   -2.5275   -0.8158 N   0  0  0  0  0  0  0  0  0  0  0  0
    3.4965   -0.2030   -0.3939 C   0  0  0  0  0  0  0  0  0  0  0  0
    1.0386    1.2811    0.0525 N   0  0  0  0  0  0  0  0  0  0  0  0
   -4.0985   -1.5959    0.2368 C   0  0  0  0  0  0  0  0  0  0  0  0
   -4.5532   -2.8604    0.2497 O   0  0  0  0  0  0  0  0  0  0  0  0
   -3.6160   -3.9183    0.2148 C   0  0  0  0  0  0  0  0  0  0  0  0
   -6.3949   -0.9357    0.4007 O   0  0  0  0  0  0  0  0  0  0  0  0
   -0.4326   -0.4869   -0.0211 H   0  0  0  0  0  0  0  0  0  0  0  0
    3.6878    3.0584    0.1451 H   0  0  0  0  0  0  0  0  0  0  0  0
   -0.5517    4.6696    0.5482 H   0  0  0  0  0  0  0  0  0  0  0  0
    1.9201    4.5090    0.3850 H   0  0  0  0  0  0  0  0  0  0  0  0
    5.7139    2.3346    0.1031 H   0  0  0  0  0  0  0  0  0  0  0  0
   -1.9879   -2.0153    0.1274 H   0  0  0  0  0  0  0  0  0  0  0  0
   -7.0143   -0.1671   -1.4407 H   0  0  0  0  0  0  0  0  0  0  0  0
   -6.6121   -1.8965   -1.4421 H   0  0  0  0  0  0  0  0  0  0  0  0
   -8.0897   -1.3295   -0.6456 H   0  0  0  0  0  0  0  0  0  0  0  0
   -4.7634    3.2954    1.1969 H   0  0  0  0  0  0  0  0  0  0  0  0
   -4.8376    3.2983   -0.5794 H   0  0  0  0  0  0  0  0  0  0  0  0
   -6.3120    3.5443    0.3728 H   0  0  0  0  0  0  0  0  0  0  0  0
   -3.0320    2.1263    0.2244 H   0  0  0  0  0  0  0  0  0  0  0  0
    7.3544    0.5485   -0.2133 H   0  0  0  0  0  0  0  0  0  0  0  0
    8.3703   -2.3414    0.1603 H   0  0  0  0  0  0  0  0  0  0  0  0
    8.0367   -3.6360   -0.9926 H   0  0  0  0  0  0  0  0  0  0  0  0
    8.3927   -2.0035   -1.5619 H   0  0  0  0  0  0  0  0  0  0  0  0
    3.4681   -3.0513   -0.9331 H   0  0  0  0  0  0  0  0  0  0  0  0
    2.4417   -0.4153   -0.4456 H   0  0  0  0  0  0  0  0  0  0  0  0
   -3.0172   -3.9061   -0.6993 H   0  0  0  0  0  0  0  0  0  0  0  0
   -2.9462   -3.9000    1.0783 H   0  0  0  0  0  0  0  0  0  0  0  0
   -4.1921   -4.8400    0.2402 H   0  0  0  0  0  0  0  0  0  0  0  0
   -5.6882    1.6320    0.3428 O   0  0  0  0  0  0  0  0  0  0  0  0
    7.8833   -2.5782   -0.7869 C   0  0  0  0  0  0  0  0  0  0  0  0
  1  3  1  0
  1  4  1  0
  2  7  1  0
  2 18  1  0
  3 11  2  0
  3 16  1  0
  4 17  2  0
  4 24  1  0
  5  6  2  0
  5 17  1  0
  6  7  1  0
  7 24  2  0
  8 18  2  0
  8 19  1  0
  9 20  1  0
  9 52  1  0
  9 21  2  0
 10 20  1  0
 10 22  1  0
 10 23  2  0
 11 25  1  0
 12 15  1  0
 12 25  2  0
 12 28  1  0
 13 28  1  0
 14 51  1  0
 51 15  1  0
 15 16  2  0
 18 23  1  0
 19 20  2  0
 21 22  1  0
 25 26  1  0
 26 27  1  0
  1 29  1  0
  2 30  1  0
  5 31  1  0
  6 32  1  0
  8 33  1  0
 11 34  1  0
 13 35  1  0
 13 36  1  0
 13 37  1  0
 14 38  1  0
 14 39  1  0
 14 40  1  0
 16 41  1  0
 19 42  1  0
 52 43  1  0
 52 44  1  0
 52 45  1  0
 22 46  1  0
 23 47  1  0
 27 48  1  0
 27 49  1  0
 27 50  1  0
M  END
