
     RDKit          3D

 42 44  0  0  0  0  0  0  0  0999 V2000
   -0.1256    5.2482    0.5036 C   0  0  0  0  0  0  0  0  0  0  0  0
    0.6629   -1.1666   -2.8235 F   0  0  0  0  0  0  0  0  0  0  0  0
    5.7407   -1.0188   -1.0973 I   0  0  0  0  0  0  0  0  0  0  0  0
    0.8450    4.5860   -0.1404 N   0  0  0  0  0  0  0  0  0  0  0  0
   -2.5290    2.5792    0.8825 O   0  0  0  0  0  0  0  0  0  0  0  0
   -1.3190    4.6879    0.9179 C   0  0  0  0  0  0  0  0  0  0  0  0
   -4.3738    0.5831    1.1369 N   0  0  0  0  0  0  0  0  0  0  0  0
   -2.9787   -0.8631    0.0799 O   0  0  0  0  0  0  0  0  0  0  0  0
    0.6898    3.3012   -0.3963 C   0  0  0  0  0  0  0  0  0  0  0  0
   -5.2504   -0.4079    1.4451 O   0  0  0  0  0  0  0  0  0  0  0  0
   -0.4626    2.6142   -0.0106 C   0  0  0  0  0  0  0  0  0  0  0  0
   -6.5533   -2.8471    1.0591 O   0  0  0  0  0  0  0  0  0  0  0  0
   -1.4637    3.3423    0.6316 C   0  0  0  0  0  0  0  0  0  0  0  0
   -9.3061   -2.6551    0.4104 O   0  0  0  0  0  0  0  0  0  0  0  0
   -2.2318    1.3194    0.4182 C   0  0  0  0  0  0  0  0  0  0  0  0
   -0.9839    1.2735   -0.1385 C   0  0  0  0  0  0  0  0  0  0  0  0
   -3.2116    0.2494    0.5369 C   0  0  0  0  0  0  0  0  0  0  0  0
    0.9581   -0.0494   -0.7848 C   0  0  0  0  0  0  0  0  0  0  0  0
    1.8345    0.3488    0.2204 C   0  0  0  0  0  0  0  0  0  0  0  0
    3.1948    0.0909    0.1323 C   0  0  0  0  0  0  0  0  0  0  0  0
    3.6873   -0.6080   -0.9586 C   0  0  0  0  0  0  0  0  0  0  0  0
    2.8369   -1.0493   -1.9636 C   0  0  0  0  0  0  0  0  0  0  0  0
    1.4948   -0.7556   -1.8588 C   0  0  0  0  0  0  0  0  0  0  0  0
   -6.2861   -0.5039    0.4699 C   0  0  0  0  0  0  0  0  0  0  0  0
   -7.2212   -1.6189    0.9063 C   0  0  1  0  0  0  0  0  0  0  0  0
   -8.3878   -1.7032   -0.0662 C   0  0  0  0  0  0  0  0  0  0  0  0
    0.0615    6.2981    0.6939 H   0  0  0  0  0  0  0  0  0  0  0  0
   -2.0785    5.2687    1.4217 H   0  0  0  0  0  0  0  0  0  0  0  0
   -4.4991    1.4335    1.6697 H   0  0  0  0  0  0  0  0  0  0  0  0
    1.4946    2.8069   -0.9264 H   0  0  0  0  0  0  0  0  0  0  0  0
   -1.0304   -0.5804   -0.9102 H   0  0  0  0  0  0  0  0  0  0  0  0
   -6.2138   -3.1258    0.2014 H   0  0  0  0  0  0  0  0  0  0  0  0
  -10.0058   -2.7468   -0.2422 H   0  0  0  0  0  0  0  0  0  0  0  0
    1.4539    0.8612    1.0944 H   0  0  0  0  0  0  0  0  0  0  0  0
    3.8464    0.4232    0.9282 H   0  0  0  0  0  0  0  0  0  0  0  0
    3.1948   -1.5974   -2.8250 H   0  0  0  0  0  0  0  0  0  0  0  0
   -6.8353    0.4408    0.4056 H   0  0  0  0  0  0  0  0  0  0  0  0
   -5.8611   -0.7177   -0.5174 H   0  0  0  0  0  0  0  0  0  0  0  0
   -7.6167   -1.3706    1.8972 H   0  0  0  0  0  0  0  0  0  0  0  0
   -8.0063   -1.9701   -1.0625 H   0  0  0  0  0  0  0  0  0  0  0  0
   -8.8434   -0.7086   -0.1588 H   0  0  0  0  0  0  0  0  0  0  0  0
   -0.4106    0.2038   -0.7584 N   0  0  0  0  0  0  0  0  0  0  0  0
  4  1  2  0
  1  6  1  0
  1 27  1  0
  2 23  1  0
  3 21  1  0
  9  4  1  0
 15  5  1  0
 13  5  1  0
 13  6  2  0
  6 28  1  0
 17  7  1  0
 10  7  1  0
  7 29  1  0
  8 17  2  0
  9 11  2  0
  9 30  1  0
 18 42  1  0
 42 16  1  0
 42 31  1  0
 10 24  1  0
 16 11  1  0
 11 13  1  0
 12 25  1  0
 12 32  1  0
 14 26  1  0
 14 33  1  0
 16 15  2  0
 17 15  1  0
 23 18  1  0
 18 19  2  0
 20 19  1  0
 19 34  1  0
 21 20  2  0
 20 35  1  0
 22 21  1  0
 22 23  2  0
 22 36  1  0
 25 24  1  0
 24 37  1  0
 24 38  1  0
 25 26  1  0
 25 39  1  1
 26 40  1  0
 26 41  1  0
M  END
