
     RDKit          3D

 33 34  0  0  0  0  0  0  0  0999 V2000
    2.3060    1.1480   -0.0904 C   0  0  0  0  0  0  0  0  0  0  0  0
    0.9426    1.0371    0.0165 C   0  0  0  0  0  0  0  0  0  0  0  0
    2.4757   -1.1792    0.3226 C   0  0  0  0  0  0  0  0  0  0  0  0
    3.1233    0.0205    0.0450 C   0  0  0  0  0  0  0  0  0  0  0  0
    0.3906   -0.2351    0.2786 C   0  0  0  0  0  0  0  0  0  0  0  0
    4.5950    0.1690   -0.0616 C   0  0  0  0  0  0  0  0  0  0  0  0
   -1.9253    0.6193    0.3567 C   0  0  0  0  0  0  0  0  0  0  0  0
    1.1675   -1.3147    0.4391 N   0  0  0  0  0  0  0  0  0  0  0  0
    5.3078   -0.9580   -0.2355 N   0  0  0  0  0  0  0  0  0  0  0  0
   -0.9363   -0.4330    0.3764 N   0  0  0  0  0  0  0  0  0  0  0  0
    5.1259    1.2717    0.0149 O   0  0  0  0  0  0  0  0  0  0  0  0
   -5.6690    0.5278   -0.1672 C   0  0  0  0  0  0  0  0  0  0  0  0
   -5.2586   -0.8777   -0.6392 C   0  0  0  0  0  0  0  0  0  0  0  0
   -4.4018    1.1460    0.4640 C   0  0  0  0  0  0  0  0  0  0  0  0
   -3.7404   -0.8070   -0.7771 C   0  0  0  0  0  0  0  0  0  0  0  0
   -3.3291    0.0476    0.4220 C   0  0  1  0  0  0  0  0  0  0  0  0
    2.7476    2.1157   -0.2887 H   0  0  0  0  0  0  0  0  0  0  0  0
    0.3118    1.9077   -0.0931 H   0  0  0  0  0  0  0  0  0  0  0  0
    3.0424   -2.0915    0.4844 H   0  0  0  0  0  0  0  0  0  0  0  0
   -1.7694    1.3140    1.1916 H   0  0  0  0  0  0  0  0  0  0  0  0
   -1.8259    1.2071   -0.5627 H   0  0  0  0  0  0  0  0  0  0  0  0
    4.8846   -1.8424   -0.4543 H   0  0  0  0  0  0  0  0  0  0  0  0
    6.3079   -0.8987   -0.3327 H   0  0  0  0  0  0  0  0  0  0  0  0
   -1.2227   -1.3499    0.6811 H   0  0  0  0  0  0  0  0  0  0  0  0
   -6.4980    0.4852    0.5398 H   0  0  0  0  0  0  0  0  0  0  0  0
   -5.5173   -1.6202    0.1203 H   0  0  0  0  0  0  0  0  0  0  0  0
   -5.7572   -1.1771   -1.5620 H   0  0  0  0  0  0  0  0  0  0  0  0
   -4.0674    2.0063   -0.1229 H   0  0  0  0  0  0  0  0  0  0  0  0
   -4.5702    1.5068    1.4795 H   0  0  0  0  0  0  0  0  0  0  0  0
   -3.2711   -1.7923   -0.7957 H   0  0  0  0  0  0  0  0  0  0  0  0
   -3.4629   -0.2945   -1.7046 H   0  0  0  0  0  0  0  0  0  0  0  0
   -3.4140   -0.5658    1.3282 H   0  0  0  0  0  0  0  0  0  0  0  0
   -6.0084    1.1324   -1.0097 H   0  0  0  0  0  0  0  0  0  0  0  0
 13 12  1  0
 13 15  1  0
 12 14  1  0
 15 16  1  0
 14 16  1  0
 16  7  1  0
  7 10  1  0
 10  5  1  0
  2  5  1  0
  2  1  2  0
  5  8  2  0
  1  4  1  0
  8  3  1  0
  4  3  2  0
  4  6  1  0
 11  6  2  0
  6  9  1  0
  1 17  1  0
  2 18  1  0
  3 19  1  0
  7 20  1  0
  7 21  1  0
  9 22  1  0
  9 23  1  0
 10 24  1  0
 12 33  1  0
 12 25  1  0
 13 26  1  0
 13 27  1  0
 14 28  1  0
 14 29  1  0
 15 30  1  0
 15 31  1  0
 16 32  1  1
M  END
