
     RDKit          3D

 27 29  0  0  0  0  0  0  0  0999 V2000
    0.7159   -2.1943   -0.5509 O   0  0  0  0  0  0  0  0  0  0  0  0
    1.1575   -1.0856   -0.3882 C   0  0  0  0  0  0  0  0  0  0  0  0
    2.5507   -0.6721   -0.1024 C   0  0  0  0  0  0  0  0  0  0  0  0
    3.6926   -1.4295    0.0459 C   0  0  0  0  0  0  0  0  0  0  0  0
    4.8776   -0.7469    0.3161 C   0  0  0  0  0  0  0  0  0  0  0  0
    4.8996    0.6403    0.4293 C   0  0  0  0  0  0  0  0  0  0  0  0
    3.7372    1.3949    0.2784 C   0  0  0  0  0  0  0  0  0  0  0  0
    2.5724    0.7083    0.0126 C   0  0  0  0  0  0  0  0  0  0  0  0
    0.4144    0.0853   -0.4383 N   0  0  0  0  0  0  0  0  0  0  0  0
    1.1930    1.2076   -0.1933 C   0  0  0  0  0  0  0  0  0  0  0  0
    0.7890    2.3419   -0.1647 O   0  0  0  0  0  0  0  0  0  0  0  0
   -1.0075    0.1234   -0.6839 C   0  0  0  0  0  0  0  0  0  0  0  0
   -1.8080   -0.0747    0.6043 C   0  0  0  0  0  0  0  0  0  0  0  0
   -3.2657    0.0001    0.3397 C   0  0  0  0  0  0  0  0  0  0  0  0
   -3.9048    0.9462   -0.3076 N   0  0  0  0  0  0  0  0  0  0  0  0
   -5.1932    0.6026   -0.3000 N   0  0  0  0  0  0  0  0  0  0  0  0
   -5.3714   -0.4986    0.3158 N   0  0  0  0  0  0  0  0  0  0  0  0
   -4.1777   -0.8932    0.7216 N   0  0  0  0  0  0  0  0  0  0  0  0
    3.6763   -2.5076   -0.0404 H   0  0  0  0  0  0  0  0  0  0  0  0
    5.7966   -1.3035    0.4415 H   0  0  0  0  0  0  0  0  0  0  0  0
    5.8356    1.1397    0.6406 H   0  0  0  0  0  0  0  0  0  0  0  0
    3.7559    2.4729    0.3659 H   0  0  0  0  0  0  0  0  0  0  0  0
   -1.2484    1.0827   -1.1384 H   0  0  0  0  0  0  0  0  0  0  0  0
   -1.2534   -0.6508   -1.4094 H   0  0  0  0  0  0  0  0  0  0  0  0
   -1.5665   -1.0369    1.0560 H   0  0  0  0  0  0  0  0  0  0  0  0
   -1.5433    0.6985    1.3287 H   0  0  0  0  0  0  0  0  0  0  0  0
   -4.0629   -1.7532    1.2399 H   0  0  0  0  0  0  0  0  0  0  0  0
  1  2  2  0
  2  3  1  0
  2  9  1  0
  3  4  2  0
  3  8  1  0
  4  5  1  0
  5  6  2  0
  6  7  1  0
  7  8  2  0
  8 10  1  0
  9 10  1  0
  9 12  1  0
 10 11  2  0
 12 13  1  0
 13 14  1  0
 14 15  2  0
 14 18  1  0
 15 16  1  0
 16 17  2  0
 17 18  1  0
  4 19  1  0
  5 20  1  0
  6 21  1  0
  7 22  1  0
 12 23  1  0
 12 24  1  0
 13 25  1  0
 13 26  1  0
 18 27  1  0
M  END
