
     RDKit          3D

 51 50  0  0  0  0  0  0  0  0999 V2000
    8.7070    1.9474    1.7989 C   0  0  0  0  0  0  0  0  0  0  0  0
    7.3778    2.1160    1.0636 C   0  0  0  0  0  0  0  0  0  0  0  0
    7.5251    1.8894   -0.4087 C   0  0  0  0  0  0  0  0  0  0  0  0
    7.0091    0.9050   -1.1422 C   0  0  0  0  0  0  0  0  0  0  0  0
    6.1312   -0.2126   -0.6787 C   0  0  0  0  0  0  0  0  0  0  0  0
    4.7511   -0.1872   -1.3561 C   0  0  2  0  0  0  0  0  0  0  0  0
    4.0772    1.0250   -1.1318 O   0  0  0  0  0  0  0  0  0  0  0  0
    3.9612   -1.3961   -0.9501 C   0  0  0  0  0  0  0  0  0  0  0  0
    2.7482   -1.3868   -0.3910 C   0  0  0  0  0  0  0  0  0  0  0  0
    2.0574   -2.6029    0.0063 C   0  0  0  0  0  0  0  0  0  0  0  0
    0.8536   -2.6863    0.5860 C   0  0  0  0  0  0  0  0  0  0  0  0
   -0.0739   -1.5711    0.9448 C   0  0  0  0  0  0  0  0  0  0  0  0
   -1.4447   -1.7347    0.2852 C   0  0  0  0  0  0  0  0  0  0  0  0
   -2.4427   -0.6690    0.7193 C   0  0  0  0  0  0  0  0  0  0  0  0
   -3.8197   -0.8504    0.0934 C   0  0  0  0  0  0  0  0  0  0  0  0
   -4.8235    0.2033    0.5437 C   0  0  0  0  0  0  0  0  0  0  0  0
   -6.2059    0.0061   -0.0658 C   0  0  0  0  0  0  0  0  0  0  0  0
   -7.1868    1.0660    0.4079 C   0  0  0  0  0  0  0  0  0  0  0  0
   -8.5747    0.9060   -0.1460 C   0  0  0  0  0  0  0  0  0  0  0  0
   -9.4037    1.8374    0.3193 O   0  0  0  0  0  0  0  0  0  0  0  0
   -8.9231    0.0493   -0.9203 O   0  0  0  0  0  0  0  0  0  0  0  0
    9.4710    2.6121    1.3922 H   0  0  0  0  0  0  0  0  0  0  0  0
    8.6007    2.1747    2.8602 H   0  0  0  0  0  0  0  0  0  0  0  0
    9.0761    0.9252    1.7088 H   0  0  0  0  0  0  0  0  0  0  0  0
    6.6333    1.4475    1.4986 H   0  0  0  0  0  0  0  0  0  0  0  0
    7.0095    3.1330    1.2293 H   0  0  0  0  0  0  0  0  0  0  0  0
    8.1540    2.6144   -0.9197 H   0  0  0  0  0  0  0  0  0  0  0  0
    7.2382    0.8963   -2.2049 H   0  0  0  0  0  0  0  0  0  0  0  0
    6.6046   -1.1691   -0.9216 H   0  0  0  0  0  0  0  0  0  0  0  0
    5.9970   -0.2036    0.4065 H   0  0  0  0  0  0  0  0  0  0  0  0
    4.9135   -0.2382   -2.4403 H   0  0  0  0  0  0  0  0  0  0  0  0
    4.0518    1.1914   -0.1831 H   0  0  0  0  0  0  0  0  0  0  0  0
    4.4546   -2.3489   -1.1293 H   0  0  0  0  0  0  0  0  0  0  0  0
    2.2494   -0.4389   -0.2192 H   0  0  0  0  0  0  0  0  0  0  0  0
    2.5870   -3.5311   -0.1890 H   0  0  0  0  0  0  0  0  0  0  0  0
    0.4856   -3.6812    0.8208 H   0  0  0  0  0  0  0  0  0  0  0  0
   -0.2126   -1.5637    2.0321 H   0  0  0  0  0  0  0  0  0  0  0  0
    0.3462   -0.5974    0.6836 H   0  0  0  0  0  0  0  0  0  0  0  0
   -1.3273   -1.7113   -0.8027 H   0  0  0  0  0  0  0  0  0  0  0  0
   -1.8432   -2.7254    0.5284 H   0  0  0  0  0  0  0  0  0  0  0  0
   -2.5374   -0.6861    1.8106 H   0  0  0  0  0  0  0  0  0  0  0  0
   -2.0533    0.3225    0.4635 H   0  0  0  0  0  0  0  0  0  0  0  0
   -3.7302   -0.8261   -0.9981 H   0  0  0  0  0  0  0  0  0  0  0  0
   -4.2023   -1.8457    0.3449 H   0  0  0  0  0  0  0  0  0  0  0  0
   -4.9022    0.1848    1.6359 H   0  0  0  0  0  0  0  0  0  0  0  0
   -4.4478    1.1988    0.2834 H   0  0  0  0  0  0  0  0  0  0  0  0
   -6.1297    0.0314   -1.1559 H   0  0  0  0  0  0  0  0  0  0  0  0
   -6.5798   -0.9875    0.1963 H   0  0  0  0  0  0  0  0  0  0  0  0
   -7.2546    1.0662    1.5006 H   0  0  0  0  0  0  0  0  0  0  0  0
   -6.8308    2.0664    0.1403 H   0  0  0  0  0  0  0  0  0  0  0  0
  -10.2879    1.7081   -0.0543 H   0  0  0  0  0  0  0  0  0  0  0  0
 18 17  1  0
 18 19  1  0
 17 16  1  0
 19 21  2  0
 19 20  1  0
 15 16  1  0
 15 14  1  0
 14 13  1  0
 13 12  1  0
  1  2  1  0
  2  3  1  0
 12 11  1  0
  3  4  2  0
 11 10  2  0
  4  5  1  0
 10  9  1  0
  9  8  2  0
  5  6  1  0
  8  6  1  0
  6  7  1  0
  1 22  1  0
  1 23  1  0
  1 24  1  0
  2 25  1  0
  2 26  1  0
  3 27  1  0
  4 28  1  0
  5 29  1  0
  5 30  1  0
  6 31  1  6
  7 32  1  0
  8 33  1  0
  9 34  1  0
 10 35  1  0
 11 36  1  0
 12 37  1  0
 12 38  1  0
 13 39  1  0
 13 40  1  0
 14 41  1  0
 14 42  1  0
 15 43  1  0
 15 44  1  0
 16 45  1  0
 16 46  1  0
 17 47  1  0
 17 48  1  0
 18 49  1  0
 18 50  1  0
 20 51  1  0
M  END
