
     RDKit          3D

 29 29  0  0  0  0  0  0  0  0999 V2000
    0.7662    2.8167    0.2146 N   0  0  0  0  0  0  0  0  0  0  0  0
    0.9714    1.6565   -0.6384 C   0  0  0  0  0  0  0  0  0  0  0  0
   -1.2923    0.8015   -0.1964 C   0  0  0  0  0  0  0  0  0  0  0  0
    0.1938    0.4097   -0.1667 C   0  0  1  0  0  0  0  0  0  0  0  0
    0.4665   -0.7316   -1.1611 C   0  0  0  0  0  0  0  0  0  0  0  0
    1.9031   -1.2483   -1.1121 C   0  0  0  0  0  0  0  0  0  0  0  0
    2.2974   -1.6542    0.3036 C   0  0  0  0  0  0  0  0  0  0  0  0
    2.0826   -0.5092    1.2884 C   0  0  0  0  0  0  0  0  0  0  0  0
    0.6437   -0.0004    1.2430 C   0  0  0  0  0  0  0  0  0  0  0  0
   -2.3296   -0.2677    0.0279 C   0  0  0  0  0  0  0  0  0  0  0  0
   -3.4939    0.0826   -0.5186 O   0  0  0  0  0  0  0  0  0  0  0  0
   -2.1952   -1.2977    0.6419 O   0  0  0  0  0  0  0  0  0  0  0  0
    1.4732    3.5099    0.0095 H   0  0  0  0  0  0  0  0  0  0  0  0
   -0.1163    3.2603   -0.0036 H   0  0  0  0  0  0  0  0  0  0  0  0
    0.7023    1.8409   -1.6902 H   0  0  0  0  0  0  0  0  0  0  0  0
    2.0396    1.4378   -0.6370 H   0  0  0  0  0  0  0  0  0  0  0  0
   -1.4830    1.5582    0.5748 H   0  0  0  0  0  0  0  0  0  0  0  0
   -1.5191    1.2866   -1.1508 H   0  0  0  0  0  0  0  0  0  0  0  0
   -0.2016   -1.5689   -0.9458 H   0  0  0  0  0  0  0  0  0  0  0  0
    0.2209   -0.3972   -2.1752 H   0  0  0  0  0  0  0  0  0  0  0  0
    2.0023   -2.0989   -1.7910 H   0  0  0  0  0  0  0  0  0  0  0  0
    2.5970   -0.4877   -1.4820 H   0  0  0  0  0  0  0  0  0  0  0  0
    1.6909   -2.5120    0.6158 H   0  0  0  0  0  0  0  0  0  0  0  0
    3.3380   -1.9877    0.3261 H   0  0  0  0  0  0  0  0  0  0  0  0
    2.3141   -0.8413    2.3039 H   0  0  0  0  0  0  0  0  0  0  0  0
    2.7861    0.3012    1.0717 H   0  0  0  0  0  0  0  0  0  0  0  0
    0.5241    0.8505    1.9176 H   0  0  0  0  0  0  0  0  0  0  0  0
   -0.0096   -0.7930    1.6127 H   0  0  0  0  0  0  0  0  0  0  0  0
   -4.1649   -0.5870   -0.3177 H   0  0  0  0  0  0  0  0  0  0  0  0
  1  2  1  0
  1 13  1  0
  1 14  1  0
  4  2  1  6
  2 15  1  0
  2 16  1  0
  3  4  1  0
  3 10  1  0
  3 17  1  0
  3 18  1  0
  4  5  1  0
  4  9  1  0
  5  6  1  0
  5 19  1  0
  5 20  1  0
  6  7  1  0
  6 21  1  0
  6 22  1  0
  7  8  1  0
  7 23  1  0
  7 24  1  0
  8  9  1  0
  8 25  1  0
  8 26  1  0
  9 27  1  0
  9 28  1  0
 10 11  1  0
 10 12  2  0
 11 29  1  0
M  END
