
     RDKit          3D

 26 28  0  0  0  0  0  0  0  0999 V2000
    1.7239    2.2019    0.1745 C   0  0  0  0  0  0  0  0  0  0  0  0
    0.3640    2.0596    0.1573 C   0  0  0  0  0  0  0  0  0  0  0  0
   -0.2041    0.7732    0.0165 C   0  0  0  0  0  0  0  0  0  0  0  0
    0.5428   -0.3020   -0.0892 N   0  0  0  0  0  0  0  0  0  0  0  0
    1.8707   -0.1701   -0.0758 C   0  0  0  0  0  0  0  0  0  0  0  0
    2.5360    1.0575    0.0501 C   0  0  0  0  0  0  0  0  0  0  0  0
    3.8889    1.1480    0.0572 N   0  0  0  0  0  0  0  0  0  0  0  0
    4.5268    0.0139   -0.0640 C   0  0  0  0  0  0  0  0  0  0  0  0
    4.0210   -1.2189   -0.1914 N   0  0  0  0  0  0  0  0  0  0  0  0
    2.7040   -1.3411   -0.1988 C   0  0  0  0  0  0  0  0  0  0  0  0
    2.1437   -2.5365   -0.3162 N   0  0  0  0  0  0  0  0  0  0  0  0
   -1.6686    0.5736   -0.0007 C   0  0  0  0  0  0  0  0  0  0  0  0
   -2.5553    1.6097   -0.3015 C   0  0  0  0  0  0  0  0  0  0  0  0
   -3.9119    1.3470   -0.3032 C   0  0  0  0  0  0  0  0  0  0  0  0
   -4.4254    0.1501   -0.0265 N   0  0  0  0  0  0  0  0  0  0  0  0
   -3.5772   -0.7999    0.2483 C   0  0  0  0  0  0  0  0  0  0  0  0
   -2.2012   -0.6795    0.2797 C   0  0  0  0  0  0  0  0  0  0  0  0
   -4.1153   -1.9908    0.5246 F   0  0  0  0  0  0  0  0  0  0  0  0
    2.1841    3.1747    0.2887 H   0  0  0  0  0  0  0  0  0  0  0  0
   -0.2679    2.9295    0.2682 H   0  0  0  0  0  0  0  0  0  0  0  0
    5.6110    0.0672   -0.0628 H   0  0  0  0  0  0  0  0  0  0  0  0
    1.1420   -2.6293   -0.3329 H   0  0  0  0  0  0  0  0  0  0  0  0
    2.7104   -3.3608   -0.4223 H   0  0  0  0  0  0  0  0  0  0  0  0
   -2.2130    2.6034   -0.5521 H   0  0  0  0  0  0  0  0  0  0  0  0
   -4.6192    2.1321   -0.5401 H   0  0  0  0  0  0  0  0  0  0  0  0
   -1.5705   -1.5234    0.5202 H   0  0  0  0  0  0  0  0  0  0  0  0
 14 13  2  0
 14 15  1  0
 13 12  1  0
  2  1  2  0
  2  3  1  0
 15 16  2  0
  1  6  1  0
 12  3  1  0
 12 17  2  0
  3  4  2  0
 16 17  1  0
 16 18  1  0
  6  7  2  0
  6  5  1  0
  7  8  1  0
  4  5  1  0
  5 10  2  0
  8  9  2  0
 10  9  1  0
 10 11  1  0
  1 19  1  0
  2 20  1  0
  8 21  1  0
 11 22  1  0
 11 23  1  0
 13 24  1  0
 14 25  1  0
 17 26  1  0
M  END
