
     RDKit          3D

 23 24  0  0  0  0  0  0  0  0999 V2000
    3.7453    0.3329   -0.1538 N   0  0  0  0  0  0  0  0  0  0  0  0
   -0.3317   -0.5195    0.1148 C   0  0  0  0  0  0  0  0  0  0  0  0
    0.6226   -1.5458    0.0675 C   0  0  0  0  0  0  0  0  0  0  0  0
    1.9671   -1.2781   -0.0052 C   0  0  0  0  0  0  0  0  0  0  0  0
    2.4205    0.0552   -0.0374 C   0  0  0  0  0  0  0  0  0  0  0  0
    1.4682    1.0835    0.0058 C   0  0  0  0  0  0  0  0  0  0  0  0
   -0.8720    1.9469    0.1485 C   0  0  0  0  0  0  0  0  0  0  0  0
   -2.2227    1.5464   -0.4224 C   0  0  0  0  0  0  0  0  0  0  0  0
   -2.7353    0.2924    0.2699 C   0  0  0  0  0  0  0  0  0  0  0  0
   -1.7575   -0.8560    0.2024 C   0  0  0  0  0  0  0  0  0  0  0  0
    0.1131    0.8136    0.0830 C   0  0  0  0  0  0  0  0  0  0  0  0
   -2.1472   -2.0123    0.2421 O   0  0  0  0  0  0  0  0  0  0  0  0
    4.4044   -0.3936    0.0697 H   0  0  0  0  0  0  0  0  0  0  0  0
    4.0615    1.2608    0.0728 H   0  0  0  0  0  0  0  0  0  0  0  0
    2.6845   -2.0890   -0.0394 H   0  0  0  0  0  0  0  0  0  0  0  0
    1.8039    2.1146   -0.0276 H   0  0  0  0  0  0  0  0  0  0  0  0
   -0.4716    2.8169   -0.3749 H   0  0  0  0  0  0  0  0  0  0  0  0
   -0.9951    2.2494    1.1947 H   0  0  0  0  0  0  0  0  0  0  0  0
   -2.9403    2.3589   -0.3017 H   0  0  0  0  0  0  0  0  0  0  0  0
   -2.1284    1.3645   -1.4964 H   0  0  0  0  0  0  0  0  0  0  0  0
   -2.9050    0.5079    1.3324 H   0  0  0  0  0  0  0  0  0  0  0  0
   -3.6936   -0.0342   -0.1373 H   0  0  0  0  0  0  0  0  0  0  0  0
    0.2923   -2.5764    0.0930 H   0  0  0  0  0  0  0  0  0  0  0  0
  9  8  1  0
  9 10  1  0
 12 10  2  0
  8  7  1  0
 10  2  1  0
  7 11  1  0
  2  3  2  0
  2 11  1  0
  3  4  1  0
 11  6  2  0
  4  5  2  0
  6  5  1  0
  5  1  1  0
  1 13  1  0
  1 14  1  0
  3 23  1  0
  4 15  1  0
  6 16  1  0
  7 17  1  0
  7 18  1  0
  8 19  1  0
  8 20  1  0
  9 21  1  0
  9 22  1  0
M  END
