
     RDKit          3D

 87 93  0  0  0  0  0  0  0  0999 V2000
    3.2490    5.8644   -0.6138 C   0  0  0  0  0  0  0  0  0  0  0  0
  -10.1641    0.5363    2.2098 C   0  0  0  0  0  0  0  0  0  0  0  0
   -9.2543   -0.3794    2.7281 C   0  0  0  0  0  0  0  0  0  0  0  0
   -9.9464    1.0677    0.9521 C   0  0  0  0  0  0  0  0  0  0  0  0
   -8.1391   -0.7376    1.9947 C   0  0  0  0  0  0  0  0  0  0  0  0
   -4.4478   -1.3044   -0.1829 C   0  0  0  0  0  0  0  0  0  0  0  0
    6.1698   -0.5074   -0.8672 C   0  0  0  0  0  0  0  0  0  0  0  0
   -0.3098   -2.2235   -1.6821 C   0  0  0  0  0  0  0  0  0  0  0  0
   -8.6682    1.2970   -1.1897 C   0  0  0  0  0  0  0  0  0  0  0  0
    5.4737    1.9119   -0.7639 C   0  0  0  0  0  0  0  0  0  0  0  0
    6.0509    0.6707   -0.1425 C   0  0  0  0  0  0  0  0  0  0  0  0
   -4.6671   -2.5422   -0.8077 C   0  0  0  0  0  0  0  0  0  0  0  0
   -2.1612   -1.4119   -0.7805 C   0  0  0  0  0  0  0  0  0  0  0  0
    7.0623   -1.6531    1.0391 C   0  0  0  0  0  0  0  0  0  0  0  0
   -2.3724   -2.6478   -1.4103 C   0  0  0  0  0  0  0  0  0  0  0  0
    6.4640    0.6672    1.1904 C   0  0  0  0  0  0  0  0  0  0  0  0
   -3.6361   -3.2278   -1.4191 C   0  0  0  0  0  0  0  0  0  0  0  0
    6.9637   -0.4786    1.7811 C   0  0  0  0  0  0  0  0  0  0  0  0
   -3.1846   -0.7274   -0.1434 C   0  0  0  0  0  0  0  0  0  0  0  0
   -7.3261    0.9608   -1.8214 C   0  0  0  0  0  0  0  0  0  0  0  0
   -6.9308   -0.4628   -1.4685 C   0  0  0  0  0  0  0  0  0  0  0  0
    6.8156   -2.9446   -1.0735 C   0  0  0  0  0  0  0  0  0  0  0  0
    0.2090    3.9627    1.6174 C   0  0  0  0  0  0  0  0  0  0  0  0
   -8.8238    0.7274    0.1963 C   0  0  0  0  0  0  0  0  0  0  0  0
   -7.9053   -0.1751    0.7372 C   0  0  0  0  0  0  0  0  0  0  0  0
    6.6707   -1.6710   -0.2948 C   0  0  0  0  0  0  0  0  0  0  0  0
    1.8975    0.9906   -0.4554 C   0  0  0  0  0  0  0  0  0  0  0  0
   -0.0572   -0.0673   -0.5477 C   0  0  0  0  0  0  0  0  0  0  0  0
    0.0884    1.8684    0.5193 C   0  0  0  0  0  0  0  0  0  0  0  0
    4.0228    2.1640   -0.3336 C   0  0  1  0  0  0  0  0  0  0  0  0
   -5.5426   -0.6268    0.5741 C   0  0  0  0  0  0  0  0  0  0  0  0
    3.5342    3.4700   -0.9646 C   0  0  0  0  0  0  0  0  0  0  0  0
    7.3118   -3.9967    0.9821 C   0  0  1  0  0  0  0  0  0  0  0  0
   -1.1970   -3.1189   -1.9571 N   0  0  0  0  0  0  0  0  0  0  0  0
    1.2132   -0.0744   -0.8891 N   0  0  0  0  0  0  0  0  0  0  0  0
    1.3697    1.9910    0.2566 N   0  0  0  0  0  0  0  0  0  0  0  0
   -0.6918    0.8546    0.1476 N   0  0  0  0  0  0  0  0  0  0  0  0
    3.6268    4.5426   -0.1732 N   0  0  0  0  0  0  0  0  0  0  0  0
    3.1940    1.0613   -0.7456 N   0  0  0  0  0  0  0  0  0  0  0  0
   -0.8094   -1.1559   -0.9707 N   0  0  0  0  0  0  0  0  0  0  0  0
   -6.7751   -0.5735   -0.0191 N   0  0  0  0  0  0  0  0  0  0  0  0
   -5.3240   -0.1875    1.6895 O   0  0  0  0  0  0  0  0  0  0  0  0
    3.1582    3.5156   -2.1250 O   0  0  0  0  0  0  0  0  0  0  0  0
    7.6246   -3.8671   -0.3748 O   0  0  0  0  0  0  0  0  0  0  0  0
    7.5605   -2.7544    1.6455 O   0  0  0  0  0  0  0  0  0  0  0  0
   -0.5293    2.7992    1.2064 O   0  0  0  0  0  0  0  0  0  0  0  0
    3.8359    6.1797   -1.4760 H   0  0  0  0  0  0  0  0  0  0  0  0
    2.1923    5.9158   -0.8810 H   0  0  0  0  0  0  0  0  0  0  0  0
    3.4315    6.5622    0.1979 H   0  0  0  0  0  0  0  0  0  0  0  0
   -9.4190   -0.8229    3.7013 H   0  0  0  0  0  0  0  0  0  0  0  0
  -10.6601    1.7678    0.5329 H   0  0  0  0  0  0  0  0  0  0  0  0
   -7.4554   -1.4708    2.3992 H   0  0  0  0  0  0  0  0  0  0  0  0
    5.8845   -0.5244   -1.9148 H   0  0  0  0  0  0  0  0  0  0  0  0
    0.7313   -2.2644   -1.9601 H   0  0  0  0  0  0  0  0  0  0  0  0
   -8.8226    2.3777   -1.1645 H   0  0  0  0  0  0  0  0  0  0  0  0
   -9.4712    0.8932   -1.8138 H   0  0  0  0  0  0  0  0  0  0  0  0
    6.0614    2.7852   -0.4746 H   0  0  0  0  0  0  0  0  0  0  0  0
    5.5186    1.8468   -1.8539 H   0  0  0  0  0  0  0  0  0  0  0  0
   -5.6595   -2.9744   -0.8017 H   0  0  0  0  0  0  0  0  0  0  0  0
   -1.0474    4.3117    3.3407 H   0  0  0  0  0  0  0  0  0  0  0  0
   -0.1882    5.7267    2.7391 H   0  0  0  0  0  0  0  0  0  0  0  0
   -1.5969    5.1278    1.8675 H   0  0  0  0  0  0  0  0  0  0  0  0
    6.3974    1.5744    1.7801 H   0  0  0  0  0  0  0  0  0  0  0  0
   -3.8039   -4.1866   -1.8908 H   0  0  0  0  0  0  0  0  0  0  0  0
    7.2809   -0.4697    2.8165 H   0  0  0  0  0  0  0  0  0  0  0  0
   -3.0117    0.2154    0.3512 H   0  0  0  0  0  0  0  0  0  0  0  0
   -7.3809    1.0703   -2.9053 H   0  0  0  0  0  0  0  0  0  0  0  0
   -6.5470    1.6410   -1.4685 H   0  0  0  0  0  0  0  0  0  0  0  0
   -7.6917   -1.1721   -1.8034 H   0  0  0  0  0  0  0  0  0  0  0  0
   -6.0000   -0.7290   -1.9594 H   0  0  0  0  0  0  0  0  0  0  0  0
    5.8320   -3.3721   -1.3056 H   0  0  0  0  0  0  0  0  0  0  0  0
    7.3124   -2.7558   -2.0269 H   0  0  0  0  0  0  0  0  0  0  0  0
    0.5654    4.4935    0.7321 H   0  0  0  0  0  0  0  0  0  0  0  0
    1.0820    3.6600    2.1972 H   0  0  0  0  0  0  0  0  0  0  0  0
    3.9884    2.2509    0.7573 H   0  0  0  0  0  0  0  0  0  0  0  0
    3.8545    4.4140    0.7982 H   0  0  0  0  0  0  0  0  0  0  0  0
    3.5857    0.3131   -1.2960 H   0  0  0  0  0  0  0  0  0  0  0  0
    5.8645   -4.4133    1.2234 C   0  0  0  0  0  0  0  0  0  0  0  0
    8.2860   -4.9946    1.5710 C   0  0  0  0  0  0  0  0  0  0  0  0
  -11.0391    0.8230    2.7783 H   0  0  0  0  0  0  0  0  0  0  0  0
   -0.7186    4.8243    2.4370 C   0  0  0  0  0  0  0  0  0  0  0  0
    5.7146   -4.6284    2.2810 H   0  0  0  0  0  0  0  0  0  0  0  0
    5.1443   -3.6450    0.9390 H   0  0  0  0  0  0  0  0  0  0  0  0
    5.6324   -5.3170    0.6594 H   0  0  0  0  0  0  0  0  0  0  0  0
    8.1091   -5.9847    1.1522 H   0  0  0  0  0  0  0  0  0  0  0  0
    9.3166   -4.7085    1.3594 H   0  0  0  0  0  0  0  0  0  0  0  0
    8.1570   -5.0592    2.6507 H   0  0  0  0  0  0  0  0  0  0  0  0
  1 38  1  0
  2  3  2  0
  2  4  1  0
  3  5  1  0
  4 24  2  0
  5 25  2  0
  6 12  1  0
  6 19  2  0
  6 31  1  0
  7 11  2  0
  7 26  1  0
  8 34  2  0
  8 40  1  0
  9 20  1  0
  9 24  1  0
 10 11  1  0
 10 30  1  0
 11 16  1  0
 12 17  2  0
 13 15  2  0
 13 19  1  0
 13 40  1  0
 14 18  1  0
 14 26  2  0
 14 45  1  0
 15 17  1  0
 15 34  1  0
 81 23  1  0
 33 78  1  6
 79 33  1  0
 16 18  2  0
 20 21  1  0
 21 41  1  0
 22 26  1  0
 22 44  1  0
 23 46  1  0
 24 25  1  0
 25 41  1  0
 27 35  2  0
 27 36  1  0
 27 39  1  0
 28 35  1  0
 28 37  2  0
 28 40  1  0
 29 36  2  0
 29 37  1  0
 29 46  1  0
 30 32  1  0
 30 39  1  0
 31 41  1  0
 31 42  2  0
 32 38  1  0
 32 43  2  0
 33 44  1  0
 33 45  1  0
  1 47  1  0
  1 48  1  0
  1 49  1  0
  2 80  1  0
  3 50  1  0
  4 51  1  0
  5 52  1  0
  7 53  1  0
  8 54  1  0
  9 55  1  0
  9 56  1  0
 10 57  1  0
 10 58  1  0
 12 59  1  0
 81 60  1  0
 81 61  1  0
 81 62  1  0
 78 82  1  0
 78 83  1  0
 78 84  1  0
 79 85  1  0
 79 86  1  0
 79 87  1  0
 16 63  1  0
 17 64  1  0
 18 65  1  0
 19 66  1  0
 20 67  1  0
 20 68  1  0
 21 69  1  0
 21 70  1  0
 22 71  1  0
 22 72  1  0
 23 73  1  0
 23 74  1  0
 30 75  1  1
 38 76  1  0
 39 77  1  0
M  END
