
     RDKit          3D

 18 18  0  0  0  0  0  0  0  0999 V2000
   -0.4712    1.3816   -1.2591 N   0  0  0  0  0  0  0  0  0  0  0  0
   -0.1737    0.9226    0.0747 C   0  0  2  0  0  0  0  0  0  0  0  0
    1.2314    0.3298    0.1950 C   0  0  0  0  0  0  0  0  0  0  0  0
    2.2638    0.9289    0.4808 O   0  0  0  0  0  0  0  0  0  0  0  0
   -1.1828   -0.1146    0.6172 C   0  0  1  0  0  0  0  0  0  0  0  0
   -2.6152    0.3113    0.3900 C   0  0  0  0  0  0  0  0  0  0  0  0
   -0.8954   -1.4531    0.0377 C   0  0  0  0  0  0  0  0  0  0  0  0
    1.4603   -1.0018   -0.1100 O   0  0  0  0  0  0  0  0  0  0  0  0
    0.3531   -1.8166   -0.2847 C   0  0  0  0  0  0  0  0  0  0  0  0
    0.2378    2.0038   -1.5925 H   0  0  0  0  0  0  0  0  0  0  0  0
   -0.5909    0.6183   -1.8940 H   0  0  0  0  0  0  0  0  0  0  0  0
   -0.1997    1.8313    0.7504 H   0  0  0  0  0  0  0  0  0  0  0  0
   -1.0037   -0.1762    1.7322 H   0  0  0  0  0  0  0  0  0  0  0  0
   -2.8898    0.2458   -0.6902 H   0  0  0  0  0  0  0  0  0  0  0  0
   -3.3027   -0.3522    0.9690 H   0  0  0  0  0  0  0  0  0  0  0  0
   -2.7605    1.3654    0.7280 H   0  0  0  0  0  0  0  0  0  0  0  0
   -1.7427   -2.1387   -0.0963 H   0  0  0  0  0  0  0  0  0  0  0  0
    0.6822   -2.7858   -0.6898 H   0  0  0  0  0  0  0  0  0  0  0  0
  1  2  1  0
  1 10  1  0
  1 11  1  0
  2  3  1  0
  2  5  1  0
  2 12  1  1
  3  4  2  0
  3  8  1  0
  5  6  1  0
  5  7  1  0
  5 13  1  1
  6 14  1  0
  6 15  1  0
  6 16  1  0
  7  9  2  0
  7 17  1  0
  8  9  1  0
  9 18  1  0
M  END
