
     RDKit          3D

 58 60  0  0  0  0  0  0  0  0999 V2000
   -3.7753   -1.5297    5.3925 N   0  0  0  0  0  0  0  0  0  0  0  0
   -2.4101   -1.4682    4.8845 C   0  0  0  0  0  0  0  0  0  0  0  0
   -2.3982   -0.8212    3.5330 C   0  0  0  0  0  0  0  0  0  0  0  0
   -1.5841    0.1647    3.1484 C   0  0  0  0  0  0  0  0  0  0  0  0
   -1.5646    0.8948    1.5431 S   0  0  0  0  0  0  0  0  0  0  0  0
   -2.7619   -0.0712    0.5956 C   0  0  0  0  0  0  0  0  0  0  0  0
   -3.0240    0.6317   -0.7313 C   0  0  1  0  0  0  0  0  0  0  0  0
   -1.8190    1.1373   -1.3048 O   0  0  0  0  0  0  0  0  0  0  0  0
   -3.5970   -0.3191   -1.7740 C   0  0  1  0  0  0  0  0  0  0  0  0
   -4.3110    0.4299   -2.7197 O   0  0  0  0  0  0  0  0  0  0  0  0
   -2.3102   -0.8867   -2.3833 C   0  0  1  0  0  0  0  0  0  0  0  0
   -2.4413   -1.3721   -3.6854 O   0  0  0  0  0  0  0  0  0  0  0  0
   -1.4033    0.3466   -2.3825 C   0  0  2  0  0  0  0  0  0  0  0  0
   -0.0004    0.0432   -2.2510 N   0  0  0  0  0  0  0  0  0  0  0  0
    0.6305   -0.5610   -1.1950 C   0  0  0  0  0  0  0  0  0  0  0  0
    1.9167   -0.6552   -1.3488 N   0  0  0  0  0  0  0  0  0  0  0  0
    2.1587   -0.0794   -2.5701 C   0  0  0  0  0  0  0  0  0  0  0  0
    3.3358    0.1419   -3.3089 C   0  0  0  0  0  0  0  0  0  0  0  0
    4.5396   -0.2376   -2.8797 N   0  0  0  0  0  0  0  0  0  0  0  0
    3.2264    0.7614   -4.4899 N   0  0  0  0  0  0  0  0  0  0  0  0
    2.0241    1.1396   -4.9146 C   0  0  0  0  0  0  0  0  0  0  0  0
    0.8552    0.9845   -4.3172 N   0  0  0  0  0  0  0  0  0  0  0  0
    0.9803    0.3676   -3.1452 C   0  0  0  0  0  0  0  0  0  0  0  0
   -0.4937    0.7615    4.0017 C   0  0  0  0  0  0  0  0  0  0  0  0
    0.7826   -0.0799    3.9826 C   0  0  0  0  0  0  0  0  0  0  0  0
    1.9213    0.5698    4.7577 C   0  0  0  0  0  0  0  0  0  0  0  0
    3.1633   -0.3079    4.8351 C   0  0  0  0  0  0  0  0  0  0  0  0
    4.3002    0.3502    5.6016 C   0  0  0  0  0  0  0  0  0  0  0  0
    5.4611   -0.5265    5.6706 N   0  0  0  0  0  0  0  0  0  0  0  0
   -3.7849   -2.0413    6.2659 H   0  0  0  0  0  0  0  0  0  0  0  0
   -4.0908   -0.5939    5.6153 H   0  0  0  0  0  0  0  0  0  0  0  0
   -2.0501   -2.4973    4.7834 H   0  0  0  0  0  0  0  0  0  0  0  0
   -1.7089   -0.9697    5.5646 H   0  0  0  0  0  0  0  0  0  0  0  0
   -3.1314   -1.2277    2.8451 H   0  0  0  0  0  0  0  0  0  0  0  0
   -2.3879   -1.0903    0.4667 H   0  0  0  0  0  0  0  0  0  0  0  0
   -3.7082   -0.1344    1.1352 H   0  0  0  0  0  0  0  0  0  0  0  0
   -3.6906    1.4790   -0.5557 H   0  0  0  0  0  0  0  0  0  0  0  0
   -4.2153   -1.1016   -1.3152 H   0  0  0  0  0  0  0  0  0  0  0  0
   -4.3385   -0.0748   -3.5413 H   0  0  0  0  0  0  0  0  0  0  0  0
   -1.9004   -1.6521   -1.7124 H   0  0  0  0  0  0  0  0  0  0  0  0
   -2.7548   -2.2814   -3.6478 H   0  0  0  0  0  0  0  0  0  0  0  0
   -1.5034    0.8905   -3.3272 H   0  0  0  0  0  0  0  0  0  0  0  0
    0.0898   -0.9012   -0.3242 H   0  0  0  0  0  0  0  0  0  0  0  0
    5.3579   -0.0497   -3.4325 H   0  0  0  0  0  0  0  0  0  0  0  0
    4.6554   -0.6998   -1.9954 H   0  0  0  0  0  0  0  0  0  0  0  0
    2.0061    1.6399   -5.8770 H   0  0  0  0  0  0  0  0  0  0  0  0
   -0.8457    0.8713    5.0303 H   0  0  0  0  0  0  0  0  0  0  0  0
   -0.2625    1.7749    3.6578 H   0  0  0  0  0  0  0  0  0  0  0  0
    1.0906   -0.2505    2.9463 H   0  0  0  0  0  0  0  0  0  0  0  0
    0.5682   -1.0668    4.4047 H   0  0  0  0  0  0  0  0  0  0  0  0
    1.5794    0.8061    5.7713 H   0  0  0  0  0  0  0  0  0  0  0  0
    2.1758    1.5279    4.2916 H   0  0  0  0  0  0  0  0  0  0  0  0
    3.5082   -0.5590    3.8271 H   0  0  0  0  0  0  0  0  0  0  0  0
    2.9036   -1.2568    5.3182 H   0  0  0  0  0  0  0  0  0  0  0  0
    3.9271    0.6617    6.5886 H   0  0  0  0  0  0  0  0  0  0  0  0
    4.5923    1.2683    5.0843 H   0  0  0  0  0  0  0  0  0  0  0  0
    6.2071   -0.0601    6.1708 H   0  0  0  0  0  0  0  0  0  0  0  0
    5.2283   -1.3376    6.2311 H   0  0  0  0  0  0  0  0  0  0  0  0
  1  2  1  0
  1 30  1  0
  1 31  1  0
  2  3  1  0
  2 32  1  0
  2 33  1  0
  3  4  2  0
  3 34  1  0
  4  5  1  0
  4 24  1  0
  5  6  1  0
  6  7  1  0
  6 35  1  0
  6 36  1  0
  7  8  1  0
  7  9  1  0
  7 37  1  1
  8 13  1  0
  9 10  1  0
  9 11  1  0
  9 38  1  1
 10 39  1  0
 11 12  1  0
 11 13  1  0
 11 40  1  1
 12 41  1  0
 13 14  1  0
 13 42  1  6
 14 15  1  0
 14 23  1  0
 15 16  2  0
 15 43  1  0
 16 17  1  0
 17 18  1  0
 17 23  2  0
 18 19  1  0
 18 20  2  0
 19 44  1  0
 19 45  1  0
 20 21  1  0
 21 22  2  0
 21 46  1  0
 22 23  1  0
 24 25  1  0
 24 47  1  0
 24 48  1  0
 25 26  1  0
 25 49  1  0
 25 50  1  0
 26 27  1  0
 26 51  1  0
 26 52  1  0
 27 28  1  0
 27 53  1  0
 27 54  1  0
 28 29  1  0
 28 55  1  0
 28 56  1  0
 29 57  1  0
 29 58  1  0
M  END
