
     RDKit          3D

 38 41  0  0  0  0  0  0  0  0999 V2000
   -8.3029    0.2183    0.1474 C   0  0  0  0  0  0  0  0  0  0  0  0
   -2.4190    0.4671   -0.1807 C   0  0  0  0  0  0  0  0  0  0  0  0
   -6.3622   -0.8525    0.3427 C   0  0  0  0  0  0  0  0  0  0  0  0
   -6.1007    0.4442   -0.0836 C   0  0  0  0  0  0  0  0  0  0  0  0
   -4.8279    0.9071   -0.2650 C   0  0  0  0  0  0  0  0  0  0  0  0
   -5.3536   -1.7454    0.6064 C   0  0  0  0  0  0  0  0  0  0  0  0
   -4.0436   -1.2940    0.4286 C   0  0  0  0  0  0  0  0  0  0  0  0
   -3.7799    0.0035    0.0025 C   0  0  0  0  0  0  0  0  0  0  0  0
    5.7138    0.3423    0.9215 C   0  0  0  0  0  0  0  0  0  0  0  0
    6.3719   -0.2859   -0.1397 C   0  0  0  0  0  0  0  0  0  0  0  0
    7.6349   -0.6716    0.0840 O   0  0  0  0  0  0  0  0  0  0  0  0
    8.3296   -1.3195   -0.9667 C   0  0  0  0  0  0  0  0  0  0  0  0
    5.6671   -0.4522   -1.3265 C   0  0  0  0  0  0  0  0  0  0  0  0
    4.3564   -0.0023   -1.4357 C   0  0  0  0  0  0  0  0  0  0  0  0
    4.4184    0.7862    0.8236 C   0  0  0  0  0  0  0  0  0  0  0  0
    3.7208    0.6223   -0.3736 C   0  0  0  0  0  0  0  0  0  0  0  0
    2.3014    1.0825   -0.4888 C   0  0  0  0  0  0  0  0  0  0  0  0
   -0.3116    0.3951   -0.2011 C   0  0  0  0  0  0  0  0  0  0  0  0
   -0.6351    1.5765   -0.5930 N   0  0  0  0  0  0  0  0  0  0  0  0
   -2.0068    1.6194   -0.5785 N   0  0  0  0  0  0  0  0  0  0  0  0
   -1.3835   -0.3600    0.0771 O   0  0  0  0  0  0  0  0  0  0  0  0
   -7.6929   -1.0389    0.4238 O   0  0  0  0  0  0  0  0  0  0  0  0
   -7.2685    1.0950   -0.2804 O   0  0  0  0  0  0  0  0  0  0  0  0
   -9.0420    0.1013   -0.6454 H   0  0  0  0  0  0  0  0  0  0  0  0
   -8.7711    0.6083    1.0552 H   0  0  0  0  0  0  0  0  0  0  0  0
   -4.6295    1.9168   -0.5978 H   0  0  0  0  0  0  0  0  0  0  0  0
   -5.5567   -2.7550    0.9351 H   0  0  0  0  0  0  0  0  0  0  0  0
   -3.2339   -1.9812    0.6317 H   0  0  0  0  0  0  0  0  0  0  0  0
    8.4274   -0.6769   -1.8448 H   0  0  0  0  0  0  0  0  0  0  0  0
    9.3207   -1.5468   -0.5839 H   0  0  0  0  0  0  0  0  0  0  0  0
    7.8412   -2.2514   -1.2610 H   0  0  0  0  0  0  0  0  0  0  0  0
    6.1270   -0.9316   -2.1793 H   0  0  0  0  0  0  0  0  0  0  0  0
    3.8315   -0.1432   -2.3723 H   0  0  0  0  0  0  0  0  0  0  0  0
    3.9543    1.2669    1.6764 H   0  0  0  0  0  0  0  0  0  0  0  0
    2.0914    1.9225    0.1714 H   0  0  0  0  0  0  0  0  0  0  0  0
    2.0483    1.3614   -1.5103 H   0  0  0  0  0  0  0  0  0  0  0  0
    1.2429   -0.3263    0.0072 S   0  0  0  0  0  0  0  0  0  0  0  0
    6.3886    0.5127    2.0676 F   0  0  0  0  0  0  0  0  0  0  0  0
  1 22  1  0
  1 23  1  0
  2  8  1  0
  2 20  2  0
  2 21  1  0
  3  4  2  0
  3  6  1  0
  3 22  1  0
  4  5  1  0
  4 23  1  0
  5  8  2  0
  6  7  2  0
  7  8  1  0
 38  9  1  0
  9 10  2  0
  9 15  1  0
 10 11  1  0
 10 13  1  0
 11 12  1  0
 13 14  2  0
 14 16  1  0
 15 16  2  0
 16 17  1  0
 17 37  1  0
 37 18  1  0
 18 19  2  0
 18 21  1  0
 19 20  1  0
  1 24  1  0
  1 25  1  0
  5 26  1  0
  6 27  1  0
  7 28  1  0
 12 29  1  0
 12 30  1  0
 12 31  1  0
 13 32  1  0
 14 33  1  0
 15 34  1  0
 17 35  1  0
 17 36  1  0
M  END
