
     RDKit          3D

 30 29  0  0  0  0  0  0  0  0999 V2000
    0.3783    1.6489   -0.4221 N   0  0  0  0  0  0  0  0  0  0  0  0
    0.2709    0.3405    0.2095 C   0  0  1  0  0  0  0  0  0  0  0  0
    3.9123   -0.2835    0.1156 C   0  0  0  0  0  0  0  0  0  0  0  0
    4.1459   -1.4755    0.0325 O   0  0  0  0  0  0  0  0  0  0  0  0
   -1.0045   -0.4387   -0.1191 C   0  0  0  0  0  0  0  0  0  0  0  0
   -2.2810    0.3160    0.2287 C   0  0  0  0  0  0  0  0  0  0  0  0
   -3.5339   -0.5087   -0.0429 C   0  0  0  0  0  0  0  0  0  0  0  0
   -4.7825    0.3033    0.2331 C   0  0  0  0  0  0  0  0  0  0  0  0
   -6.0134   -0.4831   -0.0468 N   0  0  0  0  0  0  0  0  0  0  0  0
    1.4957   -0.4912   -0.1660 C   0  0  0  0  0  0  0  0  0  0  0  0
    2.6928    0.2686    0.0999 N   0  0  0  0  0  0  0  0  0  0  0  0
    4.8716    0.6432    0.2536 O   0  0  0  0  0  0  0  0  0  0  0  0
    0.1384    1.5823   -1.4053 H   0  0  0  0  0  0  0  0  0  0  0  0
   -0.2789    2.2980   -0.0105 H   0  0  0  0  0  0  0  0  0  0  0  0
    0.3031    0.5076    1.2916 H   0  0  0  0  0  0  0  0  0  0  0  0
   -1.0100   -0.6860   -1.1868 H   0  0  0  0  0  0  0  0  0  0  0  0
   -0.9859   -1.3910    0.4201 H   0  0  0  0  0  0  0  0  0  0  0  0
   -2.2592    0.6111    1.2824 H   0  0  0  0  0  0  0  0  0  0  0  0
   -2.3301    1.2401   -0.3538 H   0  0  0  0  0  0  0  0  0  0  0  0
   -3.5365   -0.8428   -1.0844 H   0  0  0  0  0  0  0  0  0  0  0  0
   -3.5308   -1.4055    0.5830 H   0  0  0  0  0  0  0  0  0  0  0  0
   -4.8407    0.6137    1.2742 H   0  0  0  0  0  0  0  0  0  0  0  0
   -4.8314    1.1892   -0.3967 H   0  0  0  0  0  0  0  0  0  0  0  0
   -6.0693   -1.3224    0.5293 H   0  0  0  0  0  0  0  0  0  0  0  0
   -6.8553    0.0614    0.1378 H   0  0  0  0  0  0  0  0  0  0  0  0
   -6.0597   -0.7816   -1.0205 H   0  0  0  0  0  0  0  0  0  0  0  0
    1.5013   -1.4134    0.4160 H   0  0  0  0  0  0  0  0  0  0  0  0
    1.4357   -0.7753   -1.2242 H   0  0  0  0  0  0  0  0  0  0  0  0
    2.5886    1.2714    0.0250 H   0  0  0  0  0  0  0  0  0  0  0  0
    5.7315    0.2039    0.2686 H   0  0  0  0  0  0  0  0  0  0  0  0
 11  3  1  0
 11 10  1  0
  3  4  2  0
  1  2  1  0
 10  2  1  0
  2  5  1  0
  5  6  1  0
  6  7  1  0
  7  8  1  0
  8  9  1  0
  3 12  1  0
  1 13  1  0
  1 14  1  0
  2 15  1  1
  5 16  1  0
  5 17  1  0
  6 18  1  0
  6 19  1  0
  7 20  1  0
  7 21  1  0
  8 22  1  0
  8 23  1  0
  9 24  1  0
  9 25  1  0
  9 26  1  0
 10 27  1  0
 10 28  1  0
 11 29  1  0
 12 30  1  0
M  CHG  1   9   1
M  END
