
     RDKit          3D

 40 41  0  0  0  0  0  0  0  0999 V2000
   -1.5209   -0.3756   -0.1691 C   0  0  2  0  0  0  0  0  0  0  0  0
   -2.4467   -2.4718   -1.0179 C   0  0  0  0  0  0  0  0  0  0  0  0
   -3.0622   -0.3944   -0.0079 C   0  0  2  0  0  0  0  0  0  0  0  0
   -1.1742   -1.6245   -1.0094 C   0  0  0  0  0  0  0  0  0  0  0  0
   -3.5534   -1.4249   -1.0264 C   0  0  0  0  0  0  0  0  0  0  0  0
    2.9210   -1.0200    1.1107 C   0  0  0  0  0  0  0  0  0  0  0  0
    3.4447    0.2278    0.7975 C   0  0  0  0  0  0  0  0  0  0  0  0
    2.5620    1.2940    0.6420 C   0  0  0  0  0  0  0  0  0  0  0  0
    1.1964    1.1115    0.7851 C   0  0  0  0  0  0  0  0  0  0  0  0
    0.6647   -0.1419    1.0890 C   0  0  0  0  0  0  0  0  0  0  0  0
    1.5510   -1.2013    1.2554 C   0  0  0  0  0  0  0  0  0  0  0  0
   -0.8211   -0.3360    1.1949 C   0  0  0  0  0  0  0  0  0  0  0  0
   -3.6694    0.9903   -0.1573 C   0  0  0  0  0  0  0  0  0  0  0  0
   -5.1396    1.0606    0.1510 C   0  0  0  0  0  0  0  0  0  0  0  0
    5.3387    0.4306   -0.8286 C   0  0  0  0  0  0  0  0  0  0  0  0
   -5.7688    0.2233    0.7492 O   0  0  0  0  0  0  0  0  0  0  0  0
   -5.6840    2.1910   -0.2920 O   0  0  0  0  0  0  0  0  0  0  0  0
    6.6507    0.6017   -0.9515 O   0  0  0  0  0  0  0  0  0  0  0  0
    4.5969    0.3013   -1.7680 O   0  0  0  0  0  0  0  0  0  0  0  0
   -1.2257    0.5229   -0.7199 H   0  0  0  0  0  0  0  0  0  0  0  0
   -2.4932   -3.1605   -1.8628 H   0  0  0  0  0  0  0  0  0  0  0  0
   -2.5100   -3.0727   -0.1059 H   0  0  0  0  0  0  0  0  0  0  0  0
   -3.2961   -0.7735    0.9935 H   0  0  0  0  0  0  0  0  0  0  0  0
   -0.9288   -1.3274   -2.0315 H   0  0  0  0  0  0  0  0  0  0  0  0
   -0.3070   -2.1649   -0.6256 H   0  0  0  0  0  0  0  0  0  0  0  0
   -3.6227   -0.9677   -2.0198 H   0  0  0  0  0  0  0  0  0  0  0  0
   -4.5372   -1.8277   -0.7828 H   0  0  0  0  0  0  0  0  0  0  0  0
    3.5881   -1.8634    1.2459 H   0  0  0  0  0  0  0  0  0  0  0  0
    2.9459    2.2808    0.4101 H   0  0  0  0  0  0  0  0  0  0  0  0
    0.5310    1.9589    0.6636 H   0  0  0  0  0  0  0  0  0  0  0  0
    1.1681   -2.1839    1.5061 H   0  0  0  0  0  0  0  0  0  0  0  0
   -1.2546    0.4730    1.7913 H   0  0  0  0  0  0  0  0  0  0  0  0
   -1.0365   -1.2633    1.7336 H   0  0  0  0  0  0  0  0  0  0  0  0
   -3.1748    1.6993    0.5177 H   0  0  0  0  0  0  0  0  0  0  0  0
   -3.4922    1.3775   -1.1647 H   0  0  0  0  0  0  0  0  0  0  0  0
    5.2488    1.3652    1.0715 H   0  0  0  0  0  0  0  0  0  0  0  0
    5.4831   -0.3624    1.1332 H   0  0  0  0  0  0  0  0  0  0  0  0
   -6.6201    2.2260   -0.0445 H   0  0  0  0  0  0  0  0  0  0  0  0
    6.8976    0.6078   -1.8884 H   0  0  0  0  0  0  0  0  0  0  0  0
    4.9202    0.4234    0.6216 C   0  0  0  0  0  0  0  0  0  0  0  0
 19 15  2  0
 18 15  1  0
 15 40  1  0
 40  7  1  0
  7  6  2  0
  7  8  1  0
  6 11  1  0
  8  9  2  0
 11 10  2  0
  9 10  1  0
 10 12  1  0
 16 14  2  0
 12  1  1  0
 14 17  1  0
 14 13  1  0
  4  1  1  0
  4  2  1  0
  1  3  1  0
  3 13  1  0
  3  5  1  0
  5  2  1  0
  1 20  1  6
  2 21  1  0
  2 22  1  0
  3 23  1  1
  4 24  1  0
  4 25  1  0
  5 26  1  0
  5 27  1  0
  6 28  1  0
  8 29  1  0
  9 30  1  0
 11 31  1  0
 12 32  1  0
 12 33  1  0
 13 34  1  0
 13 35  1  0
 40 36  1  0
 40 37  1  0
 17 38  1  0
 18 39  1  0
M  END
