
     RDKit          3D

  6  5  0  0  0  0  0  0  0  0999 V2000
    0.6586   -0.1377    0.0293 N   0  0  0  0  0  0  0  0  0  0  0  0
   -0.7408    0.0803    0.0147 N   0  0  0  0  0  0  0  0  0  0  0  0
    0.9974   -0.4263   -0.8815 H   0  0  0  0  0  0  0  0  0  0  0  0
    1.1033    0.7472    0.2303 H   0  0  0  0  0  0  0  0  0  0  0  0
   -1.0545    0.4062   -0.8925 H   0  0  0  0  0  0  0  0  0  0  0  0
   -1.1904   -0.8118    0.1671 H   0  0  0  0  0  0  0  0  0  0  0  0
  2  1  1  0
  1  3  1  0
  1  4  1  0
  2  5  1  0
  2  6  1  0
M  END
