
     RDKit          3D

 33 34  0  0  0  0  0  0  0  0999 V2000
   -3.2386    0.6381    0.2548 C   0  0  0  0  0  0  0  0  0  0  0  0
   -4.6544    0.2029    0.5232 C   0  0  0  0  0  0  0  0  0  0  0  0
    0.1471   -1.1703    0.1078 C   0  0  0  0  0  0  0  0  0  0  0  0
    3.8494   -0.8415    0.3026 N   0  0  0  0  0  0  0  0  0  0  0  0
   -0.8715   -0.1175   -0.0790 C   0  0  0  0  0  0  0  0  0  0  0  0
   -2.6541   -1.0433   -1.5345 C   0  0  0  0  0  0  0  0  0  0  0  0
   -0.1793   -2.3469    0.2347 O   0  0  0  0  0  0  0  0  0  0  0  0
   -0.5805    1.1257   -0.2189 N   0  0  0  0  0  0  0  0  0  0  0  0
   -5.0001   -0.9193    0.8003 O   0  0  0  0  0  0  0  0  0  0  0  0
    3.9737    0.4971    0.1343 C   0  0  0  0  0  0  0  0  0  0  0  0
    2.9363    1.2841   -0.0331 N   0  0  0  0  0  0  0  0  0  0  0  0
   -5.5023    1.2245    0.4625 O   0  0  0  0  0  0  0  0  0  0  0  0
    1.7299    0.7083   -0.0356 C   0  0  0  0  0  0  0  0  0  0  0  0
    1.4881   -0.6619    0.1264 C   0  0  0  0  0  0  0  0  0  0  0  0
    0.6816    1.5433   -0.2085 N   0  0  0  0  0  0  0  0  0  0  0  0
    2.6346   -1.5206    0.3163 C   0  0  0  0  0  0  0  0  0  0  0  0
   -2.3213   -0.5151   -0.1350 C   0  0  2  0  0  0  0  0  0  0  0  0
   -3.2350    1.4246   -0.5021 H   0  0  0  0  0  0  0  0  0  0  0  0
   -2.8848    1.1123    1.1770 H   0  0  0  0  0  0  0  0  0  0  0  0
    6.0215    0.4580    0.2698 H   0  0  0  0  0  0  0  0  0  0  0  0
    5.3067    2.0081    0.0268 H   0  0  0  0  0  0  0  0  0  0  0  0
    4.6782   -1.4071    0.4362 H   0  0  0  0  0  0  0  0  0  0  0  0
   -0.0962    3.4116   -0.5750 H   0  0  0  0  0  0  0  0  0  0  0  0
    1.2868    3.4190    0.5357 H   0  0  0  0  0  0  0  0  0  0  0  0
    1.5480    3.1843   -1.1985 H   0  0  0  0  0  0  0  0  0  0  0  0
   -2.5418   -0.2535   -2.2792 H   0  0  0  0  0  0  0  0  0  0  0  0
   -2.0018   -1.8687   -1.8162 H   0  0  0  0  0  0  0  0  0  0  0  0
   -3.6796   -1.4095   -1.5806 H   0  0  0  0  0  0  0  0  0  0  0  0
   -6.3965    0.9267    0.6878 H   0  0  0  0  0  0  0  0  0  0  0  0
   -2.4611   -1.3294    0.5790 H   0  0  0  0  0  0  0  0  0  0  0  0
    5.1941    1.0152    0.1421 N   0  0  0  0  0  0  0  0  0  0  0  0
    0.8758    2.9765   -0.3698 C   0  0  0  0  0  0  0  0  0  0  0  0
    2.6314   -2.7249    0.4804 O   0  0  0  0  0  0  0  0  0  0  0  0
  9  2  2  0
  2 12  1  0
  2  1  1  0
  1 17  1  0
 17  6  1  0
 17  5  1  0
  8  5  2  0
  8 15  1  0
  5  3  1  0
 32 15  1  0
 15 13  1  0
  3  7  2  0
  3 14  1  0
 13 14  2  0
 13 11  1  0
 14 16  1  0
 11 10  2  0
 16 33  2  0
 16  4  1  0
 10  4  1  0
 10 31  1  0
  1 18  1  0
  1 19  1  0
 31 20  1  0
 31 21  1  0
  4 22  1  0
 32 23  1  0
 32 24  1  0
 32 25  1  0
  6 26  1  0
  6 27  1  0
  6 28  1  0
 12 29  1  0
 17 30  1  1
M  END
