
     RDKit          3D

 31 34  0  0  0  0  0  0  0  0999 V2000
    1.3363    1.5285   -0.2207 O   0  0  0  0  0  0  0  0  0  0  0  0
    1.6244   -2.4736   -0.2151 O   0  0  0  0  0  0  0  0  0  0  0  0
    2.5778   -0.4470    0.1054 N   0  0  0  0  0  0  0  0  0  0  0  0
    2.4091    0.9423    0.4806 C   0  0  1  0  0  0  0  0  0  0  0  0
    3.7415    1.5675    0.1219 C   0  0  0  0  0  0  0  0  0  0  0  0
    4.7238    0.4231    0.3655 C   0  0  0  0  0  0  0  0  0  0  0  0
    3.9675   -0.8202   -0.1043 C   0  0  0  0  0  0  0  0  0  0  0  0
    1.5234   -1.2715   -0.0094 C   0  0  0  0  0  0  0  0  0  0  0  0
    0.2254   -0.5648    0.0689 C   0  0  0  0  0  0  0  0  0  0  0  0
    0.1862    0.8207   -0.0987 C   0  0  0  0  0  0  0  0  0  0  0  0
   -1.0228    1.4879   -0.1892 C   0  0  0  0  0  0  0  0  0  0  0  0
   -2.2091    0.7720   -0.0971 C   0  0  0  0  0  0  0  0  0  0  0  0
   -2.1840   -0.6171    0.1126 C   0  0  0  0  0  0  0  0  0  0  0  0
   -0.9694   -1.2693    0.1769 C   0  0  0  0  0  0  0  0  0  0  0  0
   -3.3640    1.4521   -0.2030 O   0  0  0  0  0  0  0  0  0  0  0  0
   -3.3269   -1.3348    0.2449 O   0  0  0  0  0  0  0  0  0  0  0  0
   -4.4633   -0.5462    0.5607 C   0  0  0  0  0  0  0  0  0  0  0  0
   -4.5301    0.6496   -0.3562 C   0  0  0  0  0  0  0  0  0  0  0  0
    2.1996    1.0217    1.5564 H   0  0  0  0  0  0  0  0  0  0  0  0
    3.9579    2.4554    0.7134 H   0  0  0  0  0  0  0  0  0  0  0  0
    3.7341    1.8484   -0.9340 H   0  0  0  0  0  0  0  0  0  0  0  0
    4.9533    0.3425    1.4293 H   0  0  0  0  0  0  0  0  0  0  0  0
    5.6635    0.5586   -0.1665 H   0  0  0  0  0  0  0  0  0  0  0  0
    4.2307   -1.7108    0.4658 H   0  0  0  0  0  0  0  0  0  0  0  0
    4.1488   -1.0303   -1.1612 H   0  0  0  0  0  0  0  0  0  0  0  0
   -1.0519    2.5602   -0.3375 H   0  0  0  0  0  0  0  0  0  0  0  0
   -0.9501   -2.3445    0.3053 H   0  0  0  0  0  0  0  0  0  0  0  0
   -4.4229   -0.2247    1.6072 H   0  0  0  0  0  0  0  0  0  0  0  0
   -5.3412   -1.1763    0.4285 H   0  0  0  0  0  0  0  0  0  0  0  0
   -5.3836    1.2786   -0.1086 H   0  0  0  0  0  0  0  0  0  0  0  0
   -4.6256    0.3302   -1.3985 H   0  0  0  0  0  0  0  0  0  0  0  0
  1  4  1  0
  1 10  1  0
  2  8  2  0
  3  4  1  0
  3  7  1  0
  3  8  1  0
  4  5  1  0
  4 19  1  1
  5  6  1  0
  5 20  1  0
  5 21  1  0
  6  7  1  0
  6 22  1  0
  6 23  1  0
  7 24  1  0
  7 25  1  0
  8  9  1  0
  9 10  2  0
  9 14  1  0
 10 11  1  0
 11 12  2  0
 11 26  1  0
 12 13  1  0
 12 15  1  0
 13 14  2  0
 13 16  1  0
 14 27  1  0
 15 18  1  0
 16 17  1  0
 17 18  1  0
 17 28  1  0
 17 29  1  0
 18 30  1  0
 18 31  1  0
M  END
