
     RDKit          3D

 75 78  0  0  0  0  0  0  0  0999 V2000
   -4.7499    1.5192   -0.4608 C   0  0  0  0  0  0  0  0  0  0  0  0
   -8.2226    0.1806   -0.6767 O   0  0  0  0  0  0  0  0  0  0  0  0
   -6.2653    1.4827   -0.3105 C   0  0  0  0  0  0  0  0  0  0  0  0
   -6.8173    0.1677   -0.8235 C   0  0  1  0  0  0  0  0  0  0  0  0
   -6.1721   -0.9883   -0.0640 C   0  0  0  0  0  0  0  0  0  0  0  0
   -4.6682   -0.9422   -0.1388 C   0  0  0  0  0  0  0  0  0  0  0  0
   -4.0045    0.3693    0.2494 C   0  0  2  0  0  0  0  0  0  0  0  0
   -4.1154    0.5423    1.7727 C   0  0  0  0  0  0  0  0  0  0  0  0
   -2.5262    0.3836   -0.2152 C   0  0  1  0  0  0  0  0  0  0  0  0
   -1.7475    1.6008    0.2967 C   0  0  0  0  0  0  0  0  0  0  0  0
   -0.2809    1.6216   -0.1370 C   0  0  0  0  0  0  0  0  0  0  0  0
    0.4460    0.3409    0.2743 C   0  0  2  0  0  0  0  0  0  0  0  0
    0.5568    0.2394    1.7995 C   0  0  0  0  0  0  0  0  0  0  0  0
    1.8312    0.0959   -0.3761 C   0  0  1  0  0  0  0  0  0  0  0  0
    3.0669    0.8056    0.1958 C   0  0  1  0  0  0  0  0  0  0  0  0
    4.3080    0.3905   -0.6049 C   0  0  0  0  0  0  0  0  0  0  0  0
    5.6317    0.9418   -0.0615 C   0  0  0  0  0  0  0  0  0  0  0  0
    6.8265    0.2676   -0.6908 C   0  0  0  0  0  0  0  0  0  0  0  0
    7.2587    0.6309   -1.8970 C   0  0  0  0  0  0  0  0  0  0  0  0
    7.5181   -0.8289    0.0875 C   0  0  1  0  0  0  0  0  0  0  0  0
    8.3083   -0.2398    1.2580 C   0  0  0  0  0  0  0  0  0  0  0  0
    6.5495   -1.9002    0.5876 C   0  0  0  0  0  0  0  0  0  0  0  0
    2.9338    2.3255    0.2281 C   0  0  0  0  0  0  0  0  0  0  0  0
    1.9765   -1.4501   -0.3309 C   0  0  0  0  0  0  0  0  0  0  0  0
    0.5621   -2.0343   -0.1492 C   0  0  0  0  0  0  0  0  0  0  0  0
   -0.3462   -0.8264   -0.3378 C   0  0  1  0  0  0  0  0  0  0  0  0
   -1.7977   -0.9298    0.1024 C   0  0  2  0  0  0  0  0  0  0  0  0
   -2.4896   -2.0911   -0.6021 C   0  0  0  0  0  0  0  0  0  0  0  0
   -3.9785   -2.0126   -0.5301 C   0  0  0  0  0  0  0  0  0  0  0  0
   -4.5020    1.4852   -1.5277 H   0  0  0  0  0  0  0  0  0  0  0  0
   -4.3796    2.4777   -0.0909 H   0  0  0  0  0  0  0  0  0  0  0  0
   -8.5695   -0.6464   -1.0260 H   0  0  0  0  0  0  0  0  0  0  0  0
   -6.5521    1.6147    0.7384 H   0  0  0  0  0  0  0  0  0  0  0  0
   -6.7046    2.3173   -0.8636 H   0  0  0  0  0  0  0  0  0  0  0  0
   -6.5451    0.0716   -1.8864 H   0  0  0  0  0  0  0  0  0  0  0  0
   -6.5059   -0.9330    0.9793 H   0  0  0  0  0  0  0  0  0  0  0  0
   -6.5302   -1.9447   -0.4570 H   0  0  0  0  0  0  0  0  0  0  0  0
   -5.1287    0.3613    2.1309 H   0  0  0  0  0  0  0  0  0  0  0  0
   -3.4594   -0.1546    2.2971 H   0  0  0  0  0  0  0  0  0  0  0  0
   -3.8466    1.5532    2.0824 H   0  0  0  0  0  0  0  0  0  0  0  0
   -2.5470    0.4595   -1.3138 H   0  0  0  0  0  0  0  0  0  0  0  0
   -2.2242    2.5193   -0.0546 H   0  0  0  0  0  0  0  0  0  0  0  0
   -1.7924    1.6421    1.3876 H   0  0  0  0  0  0  0  0  0  0  0  0
   -0.2205    1.7236   -1.2272 H   0  0  0  0  0  0  0  0  0  0  0  0
    0.1924    2.5114    0.2823 H   0  0  0  0  0  0  0  0  0  0  0  0
   -0.4113    0.1300    2.2882 H   0  0  0  0  0  0  0  0  0  0  0  0
    1.1695   -0.6075    2.1142 H   0  0  0  0  0  0  0  0  0  0  0  0
    1.0208    1.1368    2.2143 H   0  0  0  0  0  0  0  0  0  0  0  0
    1.7384    0.4046   -1.4277 H   0  0  0  0  0  0  0  0  0  0  0  0
    3.2146    0.4530    1.2256 H   0  0  0  0  0  0  0  0  0  0  0  0
    4.3729   -0.6991   -0.6265 H   0  0  0  0  0  0  0  0  0  0  0  0
    4.1889    0.7028   -1.6486 H   0  0  0  0  0  0  0  0  0  0  0  0
    5.6917    2.0168   -0.2404 H   0  0  0  0  0  0  0  0  0  0  0  0
    5.6490    0.8128    1.0255 H   0  0  0  0  0  0  0  0  0  0  0  0
    8.0935    0.1340   -2.3774 H   0  0  0  0  0  0  0  0  0  0  0  0
    6.7948    1.4403   -2.4498 H   0  0  0  0  0  0  0  0  0  0  0  0
    8.2331   -1.3110   -0.5868 H   0  0  0  0  0  0  0  0  0  0  0  0
    7.6548    0.2752    1.9647 H   0  0  0  0  0  0  0  0  0  0  0  0
    8.8232   -1.0291    1.8085 H   0  0  0  0  0  0  0  0  0  0  0  0
    9.0572    0.4736    0.9129 H   0  0  0  0  0  0  0  0  0  0  0  0
    6.0145   -2.3775   -0.2338 H   0  0  0  0  0  0  0  0  0  0  0  0
    7.0918   -2.6762    1.1302 H   0  0  0  0  0  0  0  0  0  0  0  0
    5.8084   -1.4829    1.2721 H   0  0  0  0  0  0  0  0  0  0  0  0
    2.1478    2.6544    0.9053 H   0  0  0  0  0  0  0  0  0  0  0  0
    3.8556    2.7997    0.5667 H   0  0  0  0  0  0  0  0  0  0  0  0
    2.7049    2.7220   -0.7644 H   0  0  0  0  0  0  0  0  0  0  0  0
    2.4485   -1.8242   -1.2401 H   0  0  0  0  0  0  0  0  0  0  0  0
    2.6286   -1.7485    0.4948 H   0  0  0  0  0  0  0  0  0  0  0  0
    0.3497   -2.8341   -0.8605 H   0  0  0  0  0  0  0  0  0  0  0  0
    0.4361   -2.4608    0.8496 H   0  0  0  0  0  0  0  0  0  0  0  0
   -0.3769   -0.6208   -1.4202 H   0  0  0  0  0  0  0  0  0  0  0  0
   -1.8451   -1.1120    1.1836 H   0  0  0  0  0  0  0  0  0  0  0  0
   -2.1810   -2.1239   -1.6559 H   0  0  0  0  0  0  0  0  0  0  0  0
   -2.1563   -3.0427   -0.1767 H   0  0  0  0  0  0  0  0  0  0  0  0
   -4.5258   -2.9061   -0.8197 H   0  0  0  0  0  0  0  0  0  0  0  0
  2  4  1  0
  4  3  1  0
  4  5  1  0
  3  1  1  0
  5  6  1  0
  1  7  1  0
  6  7  1  0
  6 29  2  0
  7  8  1  1
  7  9  1  0
 29 28  1  0
  9 10  1  0
  9 27  1  0
 10 11  1  0
 28 27  1  0
 27 26  1  0
 11 12  1  0
 26 12  1  0
 26 25  1  0
 12 13  1  1
 12 14  1  0
 25 24  1  0
 14 24  1  0
 14 15  1  0
 23 15  1  0
 15 16  1  0
 16 17  1  0
 17 18  1  0
 19 18  2  0
 18 20  1  0
 21 20  1  0
 20 22  1  0
  1 30  1  0
  1 31  1  0
  2 32  1  0
  3 33  1  0
  3 34  1  0
  4 35  1  6
  5 36  1  0
  5 37  1  0
  8 38  1  0
  8 39  1  0
  8 40  1  0
  9 41  1  6
 10 42  1  0
 10 43  1  0
 11 44  1  0
 11 45  1  0
 13 46  1  0
 13 47  1  0
 13 48  1  0
 14 49  1  6
 15 50  1  1
 16 51  1  0
 16 52  1  0
 17 53  1  0
 17 54  1  0
 19 55  1  0
 19 56  1  0
 20 57  1  6
 21 58  1  0
 21 59  1  0
 21 60  1  0
 22 61  1  0
 22 62  1  0
 22 63  1  0
 23 64  1  0
 23 65  1  0
 23 66  1  0
 24 67  1  0
 24 68  1  0
 25 69  1  0
 25 70  1  0
 26 71  1  6
 27 72  1  1
 28 73  1  0
 28 74  1  0
 29 75  1  0
M  END
