
     RDKit          3D

 51 55  0  0  0  0  0  0  0  0999 V2000
   -8.5589    1.8191    0.7286 C   0  0  0  0  0  0  0  0  0  0  0  0
   -7.8583    2.9195    0.2623 C   0  0  0  0  0  0  0  0  0  0  0  0
   -2.6847   -1.4000   -0.8331 C   0  0  0  0  0  0  0  0  0  0  0  0
   -0.3501   -1.5583    0.0147 C   0  0  0  0  0  0  0  0  0  0  0  0
    0.3271   -1.6864   -1.1999 C   0  0  0  0  0  0  0  0  0  0  0  0
    1.7031   -1.8682   -1.2061 C   0  0  0  0  0  0  0  0  0  0  0  0
    2.4427   -1.9261   -0.0319 C   0  0  0  0  0  0  0  0  0  0  0  0
    1.7585   -1.8087    1.1750 C   0  0  0  0  0  0  0  0  0  0  0  0
    0.3884   -1.6284    1.2008 C   0  0  0  0  0  0  0  0  0  0  0  0
    3.9397   -2.0742   -0.0614 C   0  0  0  0  0  0  0  0  0  0  0  0
    5.0279   -0.1856    1.1831 C   0  0  0  0  0  0  0  0  0  0  0  0
    5.6091    1.1201    0.7905 C   0  0  0  0  0  0  0  0  0  0  0  0
    5.5084    1.2364   -0.5860 C   0  0  0  0  0  0  0  0  0  0  0  0
    4.8615    0.0066   -1.1013 C   0  0  0  0  0  0  0  0  0  0  0  0
    6.1677    2.1153    1.5629 C   0  0  0  0  0  0  0  0  0  0  0  0
    6.6299    3.2508    0.8994 C   0  0  0  0  0  0  0  0  0  0  0  0
    6.5296    3.3672   -0.4840 C   0  0  0  0  0  0  0  0  0  0  0  0
    5.9627    2.3529   -1.2541 C   0  0  0  0  0  0  0  0  0  0  0  0
   -6.6118    2.8440   -0.1932 N   0  0  0  0  0  0  0  0  0  0  0  0
   -6.0224    1.6573   -0.1957 C   0  0  0  0  0  0  0  0  0  0  0  0
   -6.6271    0.4821    0.2498 C   0  0  0  0  0  0  0  0  0  0  0  0
   -7.9299    0.5829    0.7206 C   0  0  0  0  0  0  0  0  0  0  0  0
   -5.8994   -0.8241    0.2250 C   0  0  1  0  0  0  0  0  0  0  0  0
   -5.1764   -1.1866   -1.1007 C   0  0  0  0  0  0  0  0  0  0  0  0
   -3.9151   -1.0690   -0.3985 N   0  0  0  0  0  0  0  0  0  0  0  0
   -4.5066   -0.8389    0.9092 C   0  0  0  0  0  0  0  0  0  0  0  0
   -1.7194   -1.3396    0.1400 N   0  0  0  0  0  0  0  0  0  0  0  0
   -2.4758   -1.7070   -1.9993 O   0  0  0  0  0  0  0  0  0  0  0  0
    4.6193   -0.7913    0.0056 N   0  0  0  0  0  0  0  0  0  0  0  0
    4.9172   -0.6557    2.2875 O   0  0  0  0  0  0  0  0  0  0  0  0
   -9.5723    1.9298    1.0892 H   0  0  0  0  0  0  0  0  0  0  0  0
   -8.3196    3.9009    0.2554 H   0  0  0  0  0  0  0  0  0  0  0  0
   -0.2038   -1.6408   -2.1362 H   0  0  0  0  0  0  0  0  0  0  0  0
    2.2064   -1.9633   -2.1606 H   0  0  0  0  0  0  0  0  0  0  0  0
    2.2994   -1.8623    2.1119 H   0  0  0  0  0  0  0  0  0  0  0  0
   -0.1194   -1.5427    2.1548 H   0  0  0  0  0  0  0  0  0  0  0  0
    4.2912   -2.6750    0.7766 H   0  0  0  0  0  0  0  0  0  0  0  0
    4.2644   -2.5750   -0.9727 H   0  0  0  0  0  0  0  0  0  0  0  0
    6.2469    2.0251    2.6381 H   0  0  0  0  0  0  0  0  0  0  0  0
    7.0741    4.0573    1.4669 H   0  0  0  0  0  0  0  0  0  0  0  0
    6.8993    4.2611   -0.9677 H   0  0  0  0  0  0  0  0  0  0  0  0
    5.8840    2.4450   -2.3291 H   0  0  0  0  0  0  0  0  0  0  0  0
   -5.0043    1.6339   -0.5760 H   0  0  0  0  0  0  0  0  0  0  0  0
   -8.4493   -0.2985    1.0777 H   0  0  0  0  0  0  0  0  0  0  0  0
   -6.5504   -1.6198    0.5833 H   0  0  0  0  0  0  0  0  0  0  0  0
   -5.3908   -2.1930   -1.4663 H   0  0  0  0  0  0  0  0  0  0  0  0
   -5.3082   -0.4761   -1.9192 H   0  0  0  0  0  0  0  0  0  0  0  0
   -4.2059    0.0974    1.3857 H   0  0  0  0  0  0  0  0  0  0  0  0
   -4.3677   -1.6608    1.6162 H   0  0  0  0  0  0  0  0  0  0  0  0
   -2.0252   -1.1351    1.0791 H   0  0  0  0  0  0  0  0  0  0  0  0
    4.5883   -0.2793   -2.2396 O   0  0  0  0  0  0  0  0  0  0  0  0
  1  2  2  0
  1 22  1  0
  2 19  1  0
  3 25  1  0
  3 27  1  0
  3 28  2  0
  4  5  2  0
  4  9  1  0
  4 27  1  0
  5  6  1  0
  6  7  2  0
  7  8  1  0
  7 10  1  0
  8  9  2  0
 10 29  1  0
 11 12  1  0
 11 29  1  0
 11 30  2  0
 12 13  2  0
 12 15  1  0
 13 14  1  0
 13 18  1  0
 14 29  1  0
 14 51  2  0
 15 16  2  0
 16 17  1  0
 17 18  2  0
 19 20  2  0
 20 21  1  0
 21 22  2  0
 21 23  1  0
 23 24  1  0
 23 26  1  0
 24 25  1  0
 25 26  1  0
  1 31  1  0
  2 32  1  0
  5 33  1  0
  6 34  1  0
  8 35  1  0
  9 36  1  0
 10 37  1  0
 10 38  1  0
 15 39  1  0
 16 40  1  0
 17 41  1  0
 18 42  1  0
 20 43  1  0
 22 44  1  0
 23 45  1  1
 24 46  1  0
 24 47  1  0
 26 48  1  0
 26 49  1  0
 27 50  1  0
M  END
