
     RDKit          3D

 34 35  0  0  0  0  0  0  0  0999 V2000
   -2.2716   -2.0482   -0.0434 C   0  0  0  0  0  0  0  0  0  0  0  0
   -3.2017   -1.0236   -0.0824 C   0  0  0  0  0  0  0  0  0  0  0  0
   -0.9073   -1.7861   -0.0121 C   0  0  0  0  0  0  0  0  0  0  0  0
   -1.3979    0.5599   -0.0235 C   0  0  0  0  0  0  0  0  0  0  0  0
   -2.7588    0.2989   -0.0788 C   0  0  0  0  0  0  0  0  0  0  0  0
   -0.4414   -0.4670    0.0029 C   0  0  0  0  0  0  0  0  0  0  0  0
    1.8564   -1.2430    0.2417 C   0  0  0  0  0  0  0  0  0  0  0  0
    1.4219    0.8623   -0.8318 C   0  0  0  0  0  0  0  0  0  0  0  0
    3.2154   -0.7167    0.6647 C   0  0  0  0  0  0  0  0  0  0  0  0
    2.7817    1.3592   -0.3852 C   0  0  0  0  0  0  0  0  0  0  0  0
    5.0383    0.7195    0.0895 C   0  0  0  0  0  0  0  0  0  0  0  0
   -3.7319    1.4499   -0.1577 C   0  0  0  0  0  0  0  0  0  0  0  0
    0.9161   -0.1523    0.0828 N   0  0  0  0  0  0  0  0  0  0  0  0
    3.7182    0.2605   -0.2769 N   0  0  0  0  0  0  0  0  0  0  0  0
   -4.9939    1.1532    0.4954 N   0  0  0  0  0  0  0  0  0  0  0  0
   -2.6050   -3.0789   -0.0502 H   0  0  0  0  0  0  0  0  0  0  0  0
   -4.2615   -1.2376   -0.1083 H   0  0  0  0  0  0  0  0  0  0  0  0
   -0.2208   -2.6209   -0.0085 H   0  0  0  0  0  0  0  0  0  0  0  0
   -1.0735    1.5931    0.0239 H   0  0  0  0  0  0  0  0  0  0  0  0
   -3.2363    2.3543    0.2211 H   0  0  0  0  0  0  0  0  0  0  0  0
   -3.9439    1.6495   -1.2128 H   0  0  0  0  0  0  0  0  0  0  0  0
    1.9590   -1.8320   -0.6828 H   0  0  0  0  0  0  0  0  0  0  0  0
    1.5035   -1.9190    1.0217 H   0  0  0  0  0  0  0  0  0  0  0  0
    3.1350   -0.2957    1.6826 H   0  0  0  0  0  0  0  0  0  0  0  0
    3.9125   -1.5562    0.7191 H   0  0  0  0  0  0  0  0  0  0  0  0
    0.7411    1.7099   -0.8712 H   0  0  0  0  0  0  0  0  0  0  0  0
    1.4996    0.4587   -1.8523 H   0  0  0  0  0  0  0  0  0  0  0  0
    3.1517    2.0770   -1.1212 H   0  0  0  0  0  0  0  0  0  0  0  0
    2.6769    1.9004    0.5718 H   0  0  0  0  0  0  0  0  0  0  0  0
    5.7329   -0.1211    0.1181 H   0  0  0  0  0  0  0  0  0  0  0  0
    5.4056    1.4326   -0.6501 H   0  0  0  0  0  0  0  0  0  0  0  0
    5.0656    1.2128    1.0737 H   0  0  0  0  0  0  0  0  0  0  0  0
   -4.8599    1.1255    1.4984 H   0  0  0  0  0  0  0  0  0  0  0  0
   -5.6463    1.9061    0.3201 H   0  0  0  0  0  0  0  0  0  0  0  0
  1  2  2  0
  1  3  1  0
  2  5  1  0
  3  6  2  0
  4  5  2  0
  4  6  1  0
  5 12  1  0
  6 13  1  0
  7  9  1  0
  7 13  1  0
  8 10  1  0
  8 13  1  0
  9 14  1  0
 10 14  1  0
 11 14  1  0
 12 15  1  0
  1 16  1  0
  2 17  1  0
  3 18  1  0
  4 19  1  0
 12 20  1  0
 12 21  1  0
  7 22  1  0
  7 23  1  0
  9 24  1  0
  9 25  1  0
  8 26  1  0
  8 27  1  0
 10 28  1  0
 10 29  1  0
 11 30  1  0
 11 31  1  0
 11 32  1  0
 15 33  1  0
 15 34  1  0
M  END
