
     RDKit          3D

 27 28  0  0  0  0  0  0  0  0999 V2000
   -1.3745    0.3711   -4.2700 O   0  0  0  0  0  0  0  0  0  0  0  0
   -2.0546    0.0287   -3.0925 C   0  0  0  0  0  0  0  0  0  0  0  0
   -1.1109   -0.0004   -1.9316 C   0  0  0  0  0  0  0  0  0  0  0  0
    0.2376   -0.0192   -2.0447 C   0  0  0  0  0  0  0  0  0  0  0  0
    0.8647   -0.0413   -3.4064 C   0  0  0  0  0  0  0  0  0  0  0  0
   -0.1924   -0.3847   -4.4466 C   0  0  0  0  0  0  0  0  0  0  0  0
   -1.6495   -0.0024   -0.2962 S   0  0  0  0  0  0  0  0  0  0  0  0
   -0.0228   -0.0284    0.2782 C   0  0  0  0  0  0  0  0  0  0  0  0
    0.8907   -0.0248   -0.7609 C   0  0  0  0  0  0  0  0  0  0  0  0
    2.3433   -0.0107   -0.6220 C   0  0  0  0  0  0  0  0  0  0  0  0
    2.7462   -0.1258    0.6544 O   0  0  0  0  0  0  0  0  0  0  0  0
    3.1237    0.0838   -1.5199 O   0  0  0  0  0  0  0  0  0  0  0  0
    0.2542   -0.0531    1.6232 N   0  0  0  0  0  0  0  0  0  0  0  0
   -0.6803   -0.0653    2.5972 C   0  0  0  0  0  0  0  0  0  0  0  0
   -0.0512   -0.1164    3.9879 C   0  0  0  0  0  0  0  0  0  0  0  0
   -0.9831   -0.1381    4.9145 O   0  0  0  0  0  0  0  0  0  0  0  0
    1.1349   -0.1402    4.1789 O   0  0  0  0  0  0  0  0  0  0  0  0
   -1.8753   -0.0376    2.4142 O   0  0  0  0  0  0  0  0  0  0  0  0
   -2.5579   -0.9437   -3.1960 H   0  0  0  0  0  0  0  0  0  0  0  0
   -2.8399    0.7738   -2.9427 H   0  0  0  0  0  0  0  0  0  0  0  0
    1.6632   -0.7817   -3.4580 H   0  0  0  0  0  0  0  0  0  0  0  0
    1.3284    0.9233   -3.6292 H   0  0  0  0  0  0  0  0  0  0  0  0
   -0.4129   -1.4598   -4.4019 H   0  0  0  0  0  0  0  0  0  0  0  0
    0.1745   -0.1691   -5.4500 H   0  0  0  0  0  0  0  0  0  0  0  0
    3.7152   -0.0883    0.6923 H   0  0  0  0  0  0  0  0  0  0  0  0
    1.2339   -0.0770    1.8843 H   0  0  0  0  0  0  0  0  0  0  0  0
   -0.5550   -0.1859    5.7857 H   0  0  0  0  0  0  0  0  0  0  0  0
  1  2  1  0
  1  6  1  0
  2  3  1  0
  2 19  1  0
  2 20  1  0
  3  4  2  0
  3  7  1  0
  4  5  1  0
  4  9  1  0
  5  6  1  0
  5 21  1  0
  5 22  1  0
  6 23  1  0
  6 24  1  0
  7  8  1  0
  8  9  2  0
  8 13  1  0
  9 10  1  0
 10 11  1  0
 10 12  2  0
 11 25  1  0
 13 14  1  0
 13 26  1  0
 14 15  1  0
 14 18  2  0
 15 16  1  0
 15 17  2  0
 16 27  1  0
M  END
