
     RDKit          3D

 40 41  0  0  0  0  0  0  0  0999 V2000
   -2.8587    0.2813   -0.0570 C   0  0  2  0  0  0  0  0  0  0  0  0
   -3.0614   -0.9637    0.8279 C   0  0  0  0  0  0  0  0  0  0  0  0
   -5.5297   -0.9986    0.3351 C   0  0  0  0  0  0  0  0  0  0  0  0
    5.4308    1.0010   -0.3848 C   0  0  0  0  0  0  0  0  0  0  0  0
    3.0118    0.9158   -0.2047 C   0  0  0  0  0  0  0  0  0  0  0  0
    1.8224    0.2955    0.0467 C   0  0  0  0  0  0  0  0  0  0  0  0
    1.8677   -1.0855    0.3648 C   0  0  0  0  0  0  0  0  0  0  0  0
    3.0505   -1.7462    0.4188 C   0  0  0  0  0  0  0  0  0  0  0  0
    4.3014   -1.0834    0.1705 C   0  0  0  0  0  0  0  0  0  0  0  0
    0.5762    1.0946   -0.0759 C   0  0  0  0  0  0  0  0  0  0  0  0
   -1.8048    1.2065    0.5652 C   0  0  0  0  0  0  0  0  0  0  0  0
   -4.2448   -1.8183    0.3817 C   0  0  0  0  0  0  0  0  0  0  0  0
   -5.3655    0.2244   -0.5602 C   0  0  0  0  0  0  0  0  0  0  0  0
   -4.1711    1.0710   -0.1289 C   0  0  0  0  0  0  0  0  0  0  0  0
    4.1923    0.2757   -0.1338 N   0  0  0  0  0  0  0  0  0  0  0  0
   -0.4850    0.6185    0.6041 N   0  0  0  0  0  0  0  0  0  0  0  0
   -2.4211   -0.0390   -1.4119 N   0  0  0  0  0  0  0  0  0  0  0  0
    5.4045   -1.6148    0.2045 O   0  0  0  0  0  0  0  0  0  0  0  0
    0.5439    2.1142   -0.7528 O   0  0  0  0  0  0  0  0  0  0  0  0
   -2.1494   -1.5701    0.8274 H   0  0  0  0  0  0  0  0  0  0  0  0
   -3.2267   -0.6476    1.8643 H   0  0  0  0  0  0  0  0  0  0  0  0
   -6.3626   -1.6140   -0.0128 H   0  0  0  0  0  0  0  0  0  0  0  0
   -5.7833   -0.6705    1.3491 H   0  0  0  0  0  0  0  0  0  0  0  0
    6.0928    0.9264    0.4743 H   0  0  0  0  0  0  0  0  0  0  0  0
    5.9392    0.5970   -1.2576 H   0  0  0  0  0  0  0  0  0  0  0  0
    5.1990    2.0462   -0.5623 H   0  0  0  0  0  0  0  0  0  0  0  0
    3.0555    1.9644   -0.4637 H   0  0  0  0  0  0  0  0  0  0  0  0
    0.9546   -1.6412    0.5405 H   0  0  0  0  0  0  0  0  0  0  0  0
    3.0888   -2.8034    0.6414 H   0  0  0  0  0  0  0  0  0  0  0  0
   -1.7493    2.1295   -0.0100 H   0  0  0  0  0  0  0  0  0  0  0  0
   -2.1108    1.4678    1.5817 H   0  0  0  0  0  0  0  0  0  0  0  0
   -4.0466   -2.2475   -0.6063 H   0  0  0  0  0  0  0  0  0  0  0  0
   -4.3579   -2.6666    1.0604 H   0  0  0  0  0  0  0  0  0  0  0  0
   -5.2551   -0.0951   -1.6019 H   0  0  0  0  0  0  0  0  0  0  0  0
   -6.2695    0.8376   -0.5344 H   0  0  0  0  0  0  0  0  0  0  0  0
   -4.3818    1.4900    0.8614 H   0  0  0  0  0  0  0  0  0  0  0  0
   -4.0411    1.9180   -0.8083 H   0  0  0  0  0  0  0  0  0  0  0  0
   -0.3311   -0.1082    1.2837 H   0  0  0  0  0  0  0  0  0  0  0  0
   -1.5686   -0.5868   -1.3724 H   0  0  0  0  0  0  0  0  0  0  0  0
   -3.0973   -0.6361   -1.8710 H   0  0  0  0  0  0  0  0  0  0  0  0
 19 10  2  0
 10 16  1  0
 10  6  1  0
  1 17  1  6
 11 16  1  0
 11  1  1  0
  6  5  2  0
  6  7  1  0
  5 15  1  0
  2  1  1  0
  2 12  1  0
  7  8  2  0
  1 14  1  0
 15  4  1  0
 15  9  1  0
  8  9  1  0
  9 18  2  0
 12  3  1  0
 14 13  1  0
  3 13  1  0
  2 20  1  0
  2 21  1  0
  3 22  1  0
  3 23  1  0
  4 24  1  0
  4 25  1  0
  4 26  1  0
  5 27  1  0
  7 28  1  0
  8 29  1  0
 11 30  1  0
 11 31  1  0
 12 32  1  0
 12 33  1  0
 13 34  1  0
 13 35  1  0
 14 36  1  0
 14 37  1  0
 16 38  1  0
 17 39  1  0
 17 40  1  0
M  END
