
     RDKit          3D

 15 14  0  0  0  0  0  0  0  0999 V2000
    2.3646   -0.1170   -0.0125 C   0  0  0  0  0  0  0  0  0  0  0  0
    2.3123   -1.3171   -0.0153 O   0  0  0  0  0  0  0  0  0  0  0  0
    1.1679    0.7997   -0.0205 C   0  0  0  0  0  0  0  0  0  0  0  0
    0.0116    0.0198   -0.0442 O   0  0  0  0  0  0  0  0  0  0  0  0
   -1.1430    0.8025   -0.0430 C   0  0  0  0  0  0  0  0  0  0  0  0
   -2.3418   -0.1111   -0.0591 C   0  0  0  0  0  0  0  0  0  0  0  0
   -2.2924   -1.3114   -0.0579 O   0  0  0  0  0  0  0  0  0  0  0  0
   -3.4642    0.5944   -0.0727 O   0  0  0  0  0  0  0  0  0  0  0  0
    3.4886    0.5858   -0.0007 O   0  0  0  0  0  0  0  0  0  0  0  0
    1.2134    1.4463    0.8678 H   0  0  0  0  0  0  0  0  0  0  0  0
    1.2378    1.4653   -0.8928 H   0  0  0  0  0  0  0  0  0  0  0  0
   -1.2046    1.4494    0.8440 H   0  0  0  0  0  0  0  0  0  0  0  0
   -1.1933    1.4686   -0.9162 H   0  0  0  0  0  0  0  0  0  0  0  0
   -4.2321    0.0035   -0.0786 H   0  0  0  0  0  0  0  0  0  0  0  0
    4.2552   -0.0067    0.0051 H   0  0  0  0  0  0  0  0  0  0  0  0
  1  3  1  0
  1  9  1  0
  2  1  2  0
  3  4  1  0
  5  4  1  0
  5  6  1  0
  6  7  2  0
  6  8  1  0
  3 10  1  0
  3 11  1  0
  5 12  1  0
  5 13  1  0
  8 14  1  0
  9 15  1  0
M  END
