
     RDKit          3D

 36 39  0  0  0  0  0  0  0  0999 V2000
   -5.7338    2.0026    1.0738 F   0  0  0  0  0  0  0  0  0  0  0  0
   -4.8211    1.1235    0.6580 C   0  0  0  0  0  0  0  0  0  0  0  0
   -3.7182    1.5840   -0.0260 C   0  0  0  0  0  0  0  0  0  0  0  0
   -3.5635    2.8838   -0.2677 F   0  0  0  0  0  0  0  0  0  0  0  0
   -5.0136   -0.2278    0.9287 C   0  0  0  0  0  0  0  0  0  0  0  0
   -4.0668   -1.1277    0.4995 C   0  0  0  0  0  0  0  0  0  0  0  0
   -4.2174   -2.4312    0.7367 F   0  0  0  0  0  0  0  0  0  0  0  0
   -2.9477   -0.6928   -0.1867 C   0  0  0  0  0  0  0  0  0  0  0  0
   -2.7620    0.6700   -0.4587 C   0  0  0  0  0  0  0  0  0  0  0  0
   -1.6193    0.9747   -1.1470 N   0  0  0  0  0  0  0  0  0  0  0  0
   -1.6258   -1.5883   -0.8341 S   0  0  0  0  0  0  0  0  0  0  0  0
   -0.9373   -0.0850   -1.4028 C   0  0  0  0  0  0  0  0  0  0  0  0
    0.3944   -0.0844   -2.0852 C   0  0  0  0  0  0  0  0  0  0  0  0
    1.5058   -0.0331   -1.0842 C   0  0  0  0  0  0  0  0  0  0  0  0
    2.0780   -1.1279   -0.3632 C   0  0  0  0  0  0  0  0  0  0  0  0
    1.9132   -2.5101   -0.3273 C   0  0  0  0  0  0  0  0  0  0  0  0
    2.1415    1.0891   -0.6395 C   0  0  0  0  0  0  0  0  0  0  0  0
    3.0631    0.7715    0.3239 N   0  0  0  0  0  0  0  0  0  0  0  0
    4.0023    1.6683    0.9221 C   0  0  0  0  0  0  0  0  0  0  0  0
    5.3085    1.7028    0.1561 C   0  0  0  0  0  0  0  0  0  0  0  0
    6.1693    2.5229    0.7364 O   0  0  0  0  0  0  0  0  0  0  0  0
    5.5275    1.0719   -0.8428 O   0  0  0  0  0  0  0  0  0  0  0  0
    3.0557   -0.5822    0.4969 C   0  0  0  0  0  0  0  0  0  0  0  0
    3.8338   -1.2474    1.3310 N   0  0  0  0  0  0  0  0  0  0  0  0
    3.6494   -2.5602    1.3443 C   0  0  0  0  0  0  0  0  0  0  0  0
    2.7158   -3.2272    0.5440 C   0  0  0  0  0  0  0  0  0  0  0  0
   -5.8944   -0.5553    1.4652 H   0  0  0  0  0  0  0  0  0  0  0  0
    0.4883   -0.9651   -2.7241 H   0  0  0  0  0  0  0  0  0  0  0  0
    0.4313    0.7899   -2.7354 H   0  0  0  0  0  0  0  0  0  0  0  0
    1.1930   -3.0181   -0.9569 H   0  0  0  0  0  0  0  0  0  0  0  0
    1.9942    2.1165   -0.9361 H   0  0  0  0  0  0  0  0  0  0  0  0
    3.5767    2.6726    0.9632 H   0  0  0  0  0  0  0  0  0  0  0  0
    4.1966    1.3673    1.9532 H   0  0  0  0  0  0  0  0  0  0  0  0
    7.0037    2.5441    0.2436 H   0  0  0  0  0  0  0  0  0  0  0  0
    4.2746   -3.1273    2.0242 H   0  0  0  0  0  0  0  0  0  0  0  0
    2.6313   -4.3028    0.6148 H   0  0  0  0  0  0  0  0  0  0  0  0
  1  2  1  0
  2  3  2  0
  2  5  1  0
  3  4  1  0
  3  9  1  0
  5  6  2  0
  6  7  1  0
  6  8  1  0
  8  9  2  0
  8 11  1  0
  9 10  1  0
 10 12  2  0
 11 12  1  0
 12 13  1  0
 13 14  1  0
 14 15  1  0
 14 17  2  0
 15 16  2  0
 15 23  1  0
 16 26  1  0
 17 18  1  0
 18 19  1  0
 18 23  1  0
 19 20  1  0
 20 21  1  0
 20 22  2  0
 23 24  2  0
 24 25  1  0
 25 26  2  0
  5 27  1  0
 13 28  1  0
 13 29  1  0
 16 30  1  0
 17 31  1  0
 19 32  1  0
 19 33  1  0
 21 34  1  0
 25 35  1  0
 26 36  1  0
M  END
