
     RDKit          3D

 51 55  0  0  0  0  0  0  0  0999 V2000
   -0.8437    2.1419    0.4250 N   0  0  0  0  0  0  0  0  0  0  0  0
   -0.2137    1.0767    0.9824 C   0  0  0  0  0  0  0  0  0  0  0  0
    0.2548    0.1959   -0.1909 C   0  0  1  0  0  0  0  0  0  0  0  0
   -0.2437    0.9388   -1.3139 N   0  0  0  0  0  0  0  0  0  0  0  0
   -0.8323    2.1143   -0.9664 C   0  0  0  0  0  0  0  0  0  0  0  0
   -1.2772    2.9662   -1.6927 O   0  0  0  0  0  0  0  0  0  0  0  0
   -0.0491    0.8426    2.1497 O   0  0  0  0  0  0  0  0  0  0  0  0
    1.7664    0.0606   -0.1493 C   0  0  0  0  0  0  0  0  0  0  0  0
    2.5732    0.7552   -1.0426 C   0  0  0  0  0  0  0  0  0  0  0  0
    3.9528    0.6315   -0.9923 C   0  0  0  0  0  0  0  0  0  0  0  0
    4.5656   -0.1832   -0.0431 C   0  0  0  0  0  0  0  0  0  0  0  0
    3.7515   -0.8679    0.8594 C   0  0  0  0  0  0  0  0  0  0  0  0
    2.3738   -0.7473    0.8101 C   0  0  0  0  0  0  0  0  0  0  0  0
    6.0310   -0.3211    0.0078 C   0  0  0  0  0  0  0  0  0  0  0  0
    6.6458   -1.5368    0.2994 C   0  0  0  0  0  0  0  0  0  0  0  0
    8.0278   -1.6076    0.3316 C   0  0  0  0  0  0  0  0  0  0  0  0
    8.7575   -0.4581    0.0684 C   0  0  0  0  0  0  0  0  0  0  0  0
    8.1901    0.7108   -0.2060 N   0  0  0  0  0  0  0  0  0  0  0  0
    6.8668    0.7705   -0.2319 C   0  0  0  0  0  0  0  0  0  0  0  0
   -1.8529   -1.0887   -0.1995 N   0  0  0  0  0  0  0  0  0  0  0  0
   -2.5574   -0.9067   -1.2985 C   0  0  0  0  0  0  0  0  0  0  0  0
   -2.7321   -1.1078    0.9499 C   0  0  0  0  0  0  0  0  0  0  0  0
   -0.4116   -1.1956   -0.1274 C   0  0  0  0  0  0  0  0  0  0  0  0
   -4.0791   -0.8763    0.3836 C   0  0  0  0  0  0  0  0  0  0  0  0
   -3.9308   -0.7608   -1.0066 C   0  0  0  0  0  0  0  0  0  0  0  0
   -5.0334   -0.5442   -1.8196 C   0  0  0  0  0  0  0  0  0  0  0  0
   -6.2779   -0.4385   -1.2206 C   0  0  0  0  0  0  0  0  0  0  0  0
   -6.4160   -0.5546    0.1705 C   0  0  0  0  0  0  0  0  0  0  0  0
   -5.2840   -0.7845    1.0007 C   0  0  0  0  0  0  0  0  0  0  0  0
   -2.3608   -1.2885    2.0637 O   0  0  0  0  0  0  0  0  0  0  0  0
   -7.5611   -0.4645    0.8103 O   0  0  0  0  0  0  0  0  0  0  0  0
   -8.7659   -0.2268    0.0864 C   0  0  0  0  0  0  0  0  0  0  0  0
   -1.2413    2.9081    0.9521 H   0  0  0  0  0  0  0  0  0  0  0  0
    0.0211    0.7493   -2.2695 H   0  0  0  0  0  0  0  0  0  0  0  0
    2.1405    1.3973   -1.7972 H   0  0  0  0  0  0  0  0  0  0  0  0
    4.5511    1.1626   -1.7215 H   0  0  0  0  0  0  0  0  0  0  0  0
    4.1952   -1.4904    1.6261 H   0  0  0  0  0  0  0  0  0  0  0  0
    1.7866   -1.2846    1.5418 H   0  0  0  0  0  0  0  0  0  0  0  0
    6.0524   -2.4240    0.4813 H   0  0  0  0  0  0  0  0  0  0  0  0
    8.5334   -2.5381    0.5495 H   0  0  0  0  0  0  0  0  0  0  0  0
    9.8413   -0.4821    0.0804 H   0  0  0  0  0  0  0  0  0  0  0  0
    6.4367    1.7456   -0.4376 H   0  0  0  0  0  0  0  0  0  0  0  0
   -2.0965   -0.9080   -2.2765 H   0  0  0  0  0  0  0  0  0  0  0  0
   -0.0630   -1.7995   -0.9638 H   0  0  0  0  0  0  0  0  0  0  0  0
   -0.1557   -1.7160    0.7914 H   0  0  0  0  0  0  0  0  0  0  0  0
   -4.9351   -0.4565   -2.8930 H   0  0  0  0  0  0  0  0  0  0  0  0
   -7.1409   -0.2657   -1.8472 H   0  0  0  0  0  0  0  0  0  0  0  0
   -5.4031   -0.8759    2.0726 H   0  0  0  0  0  0  0  0  0  0  0  0
   -9.5583   -0.1949    0.8269 H   0  0  0  0  0  0  0  0  0  0  0  0
   -8.7251    0.7268   -0.4413 H   0  0  0  0  0  0  0  0  0  0  0  0
   -8.9651   -1.0315   -0.6221 H   0  0  0  0  0  0  0  0  0  0  0  0
  1  2  1  0
  1  5  1  0
  2  3  1  0
  2  7  2  0
  3  4  1  0
  3  8  1  0
  3 23  1  1
  4  5  1  0
  5  6  2  0
  8  9  2  0
  8 13  1  0
  9 10  1  0
 10 11  2  0
 11 12  1  0
 11 14  1  0
 12 13  2  0
 14 15  2  0
 14 19  1  0
 15 16  1  0
 16 17  2  0
 17 18  1  0
 18 19  2  0
 20 21  2  0
 20 22  1  0
 20 23  1  0
 21 25  1  0
 22 24  1  0
 22 30  2  0
 24 25  2  0
 24 29  1  0
 25 26  1  0
 26 27  2  0
 27 28  1  0
 28 29  2  0
 28 31  1  0
 31 32  1  0
  1 33  1  0
  4 34  1  0
  9 35  1  0
 10 36  1  0
 12 37  1  0
 13 38  1  0
 15 39  1  0
 16 40  1  0
 17 41  1  0
 19 42  1  0
 21 43  1  0
 23 44  1  0
 23 45  1  0
 26 46  1  0
 27 47  1  0
 29 48  1  0
 32 49  1  0
 32 50  1  0
 32 51  1  0
M  CHG  1  20   1
M  END
