
     RDKit          3D

 24 24  0  0  0  0  0  0  0  0999 V2000
    0.6643    1.2367    1.2421 N   0  0  0  0  0  0  0  0  0  0  0  0
   -0.3564    0.2088    1.2788 C   0  0  2  0  0  0  0  0  0  0  0  0
   -0.5529   -0.3428    2.7069 C   0  0  0  0  0  0  0  0  0  0  0  0
   -0.6108   -1.5695    2.9277 O   0  0  0  0  0  0  0  0  0  0  0  0
   -0.1302   -0.9832    0.3309 C   0  0  0  0  0  0  0  0  0  0  0  0
   -0.0632   -0.5449   -1.0878 C   0  0  0  0  0  0  0  0  0  0  0  0
    1.1593   -0.5235   -1.7691 C   0  0  0  0  0  0  0  0  0  0  0  0
   -1.2299   -0.1649   -1.7637 C   0  0  0  0  0  0  0  0  0  0  0  0
    1.2144   -0.1240   -3.1038 C   0  0  0  0  0  0  0  0  0  0  0  0
   -1.1724    0.2350   -3.0971 C   0  0  0  0  0  0  0  0  0  0  0  0
    0.0499    0.2572   -3.7693 C   0  0  0  0  0  0  0  0  0  0  0  0
   -0.7270    0.5572    3.7241 N   0  0  0  0  0  0  0  0  0  0  0  0
    0.7066    1.6369    0.3241 H   0  0  0  0  0  0  0  0  0  0  0  0
    1.5611    0.8516    1.4677 H   0  0  0  0  0  0  0  0  0  0  0  0
   -1.3343    0.7005    0.9843 H   0  0  0  0  0  0  0  0  0  0  0  0
    0.8084   -1.5223    0.6266 H   0  0  0  0  0  0  0  0  0  0  0  0
   -0.9776   -1.7075    0.4704 H   0  0  0  0  0  0  0  0  0  0  0  0
    2.0798   -0.8329   -1.2519 H   0  0  0  0  0  0  0  0  0  0  0  0
   -2.1956   -0.1890   -1.2367 H   0  0  0  0  0  0  0  0  0  0  0  0
    2.1790   -0.1130   -3.6325 H   0  0  0  0  0  0  0  0  0  0  0  0
   -2.0934    0.5306   -3.6208 H   0  0  0  0  0  0  0  0  0  0  0  0
    0.0941    0.5713   -4.8222 H   0  0  0  0  0  0  0  0  0  0  0  0
   -0.8178    0.2264    4.6527 H   0  0  0  0  0  0  0  0  0  0  0  0
   -0.5785    1.5229    3.5759 H   0  0  0  0  0  0  0  0  0  0  0  0
  1  2  1  0
  1 13  1  0
  1 14  1  0
  2  3  1  0
  2  5  1  0
  2 15  1  6
  3  4  2  0
  3 12  1  0
  5  6  1  0
  5 16  1  0
  5 17  1  0
  6  7  2  0
  6  8  1  0
  7  9  1  0
  7 18  1  0
  8 10  2  0
  8 19  1  0
  9 11  2  0
  9 20  1  0
 10 11  1  0
 10 21  1  0
 11 22  1  0
 12 23  1  0
 12 24  1  0
M  END
