
     RDKit          3D

 28 28  0  0  0  0  0  0  0  0999 V2000
    2.0481    0.4412    0.0433 N   0  0  0  0  0  0  0  0  0  0  0  0
    0.2268   -2.7790   -0.1061 C   0  0  0  0  0  0  0  0  0  0  0  0
    1.3084   -1.9091   -0.0710 C   0  0  0  0  0  0  0  0  0  0  0  0
    1.0568   -0.5404   -0.0068 C   0  0  0  0  0  0  0  0  0  0  0  0
   -0.2585   -0.0657    0.0212 C   0  0  0  0  0  0  0  0  0  0  0  0
    3.3958    0.2883   -0.0322 C   0  0  0  0  0  0  0  0  0  0  0  0
   -5.2313    1.8523    0.0246 C   0  0  0  0  0  0  0  0  0  0  0  0
   -4.5171    0.6192    0.0198 O   0  0  0  0  0  0  0  0  0  0  0  0
   -3.1873    0.6912    0.0152 C   0  0  0  0  0  0  0  0  0  0  0  0
   -1.3285   -0.9518   -0.0171 C   0  0  0  0  0  0  0  0  0  0  0  0
   -1.0769   -2.3255   -0.0811 C   0  0  0  0  0  0  0  0  0  0  0  0
    5.4050    1.5084   -0.0000 C   0  0  0  0  0  0  0  0  0  0  0  0
   -2.5618    1.7271    0.0184 O   0  0  0  0  0  0  0  0  0  0  0  0
    3.9949   -0.7552   -0.1592 O   0  0  0  0  0  0  0  0  0  0  0  0
    3.9813    1.4818    0.0568 O   0  0  0  0  0  0  0  0  0  0  0  0
    1.7162    1.3903    0.1325 H   0  0  0  0  0  0  0  0  0  0  0  0
    0.4125   -3.8441   -0.1538 H   0  0  0  0  0  0  0  0  0  0  0  0
    2.3113   -2.3007   -0.0917 H   0  0  0  0  0  0  0  0  0  0  0  0
   -0.4275    0.9989    0.0739 H   0  0  0  0  0  0  0  0  0  0  0  0
   -3.3361   -1.3196   -0.0019 H   0  0  0  0  0  0  0  0  0  0  0  0
   -5.0109    2.4412    0.9144 H   0  0  0  0  0  0  0  0  0  0  0  0
   -5.0151    2.4451   -0.8639 H   0  0  0  0  0  0  0  0  0  0  0  0
   -6.2834    1.5829    0.0267 H   0  0  0  0  0  0  0  0  0  0  0  0
   -1.8993   -3.0294   -0.1107 H   0  0  0  0  0  0  0  0  0  0  0  0
    5.8501    0.9337    0.8118 H   0  0  0  0  0  0  0  0  0  0  0  0
    5.7758    1.1331   -0.9537 H   0  0  0  0  0  0  0  0  0  0  0  0
    5.6845    2.5524    0.1058 H   0  0  0  0  0  0  0  0  0  0  0  0
   -2.6676   -0.5638    0.0061 N   0  0  0  0  0  0  0  0  0  0  0  0
 12 15  1  0
 13  9  2  0
 14  6  2  0
 15  6  1  0
  6  1  1  0
  9 28  1  0
  9  8  1  0
 28 10  1  0
  5 10  2  0
  5  4  1  0
 10 11  1  0
  1  4  1  0
  8  7  1  0
  4  3  2  0
 11  2  2  0
  3  2  1  0
  1 16  1  0
  2 17  1  0
  3 18  1  0
  5 19  1  0
 28 20  1  0
  7 21  1  0
  7 22  1  0
  7 23  1  0
 11 24  1  0
 12 25  1  0
 12 26  1  0
 12 27  1  0
M  END
