
     RDKit          3D

 37 38  0  0  0  0  0  0  0  0999 V2000
    5.7858   -1.2104    0.3549 O   0  0  0  0  0  0  0  0  0  0  0  0
    5.5198   -0.0761   -0.0246 C   0  0  0  0  0  0  0  0  0  0  0  0
    6.4665    0.7816   -0.4430 N   0  0  0  0  0  0  0  0  0  0  0  0
    4.1169    0.4247   -0.0340 C   0  0  0  0  0  0  0  0  0  0  0  0
    3.7825    1.7790   -0.0640 C   0  0  0  0  0  0  0  0  0  0  0  0
    2.4643    2.1839   -0.0538 C   0  0  0  0  0  0  0  0  0  0  0  0
    3.0766   -0.4977    0.0217 C   0  0  0  0  0  0  0  0  0  0  0  0
    1.7485   -0.1089    0.0197 C   0  0  0  0  0  0  0  0  0  0  0  0
    1.4183    1.2505   -0.0203 C   0  0  0  0  0  0  0  0  0  0  0  0
    0.1359    1.7712   -0.0232 N   0  0  0  0  0  0  0  0  0  0  0  0
   -1.0944    1.1774   -0.0365 C   0  0  0  0  0  0  0  0  0  0  0  0
   -2.2148    2.0021   -0.0588 C   0  0  0  0  0  0  0  0  0  0  0  0
   -3.4849    1.4221   -0.0798 C   0  0  0  0  0  0  0  0  0  0  0  0
   -4.5928    2.1712   -0.1007 N   0  0  0  0  0  0  0  0  0  0  0  0
   -3.5524    0.0062   -0.0770 C   0  0  0  0  0  0  0  0  0  0  0  0
   -4.7882   -0.6690   -0.0945 C   0  0  0  0  0  0  0  0  0  0  0  0
   -5.8191   -1.1919   -0.1092 N   0  0  0  0  0  0  0  0  0  0  0  0
   -1.1602   -0.1581   -0.0293 N   0  0  0  0  0  0  0  0  0  0  0  0
   -2.3468   -0.7129   -0.0501 C   0  0  0  0  0  0  0  0  0  0  0  0
   -2.4599   -2.0305   -0.0465 O   0  0  0  0  0  0  0  0  0  0  0  0
   -1.2756   -2.8337    0.0345 C   0  0  0  0  0  0  0  0  0  0  0  0
   -1.7060   -4.2800    0.0437 C   0  0  0  0  0  0  0  0  0  0  0  0
    7.4239    0.4731   -0.4897 H   0  0  0  0  0  0  0  0  0  0  0  0
    6.2476    1.6388   -0.9189 H   0  0  0  0  0  0  0  0  0  0  0  0
    4.5456    2.5466   -0.0724 H   0  0  0  0  0  0  0  0  0  0  0  0
    2.2393    3.2439   -0.0668 H   0  0  0  0  0  0  0  0  0  0  0  0
    3.3006   -1.5557    0.0582 H   0  0  0  0  0  0  0  0  0  0  0  0
    0.9759   -0.8572    0.0509 H   0  0  0  0  0  0  0  0  0  0  0  0
    0.1037    2.7795   -0.0390 H   0  0  0  0  0  0  0  0  0  0  0  0
   -2.1113    3.0794   -0.0620 H   0  0  0  0  0  0  0  0  0  0  0  0
   -4.5326    3.1741   -0.1049 H   0  0  0  0  0  0  0  0  0  0  0  0
   -5.5141    1.7700   -0.1171 H   0  0  0  0  0  0  0  0  0  0  0  0
   -0.6262   -2.6255   -0.8186 H   0  0  0  0  0  0  0  0  0  0  0  0
   -0.7242   -2.5830    0.9433 H   0  0  0  0  0  0  0  0  0  0  0  0
   -0.8214   -4.9122    0.1124 H   0  0  0  0  0  0  0  0  0  0  0  0
   -2.3449   -4.5044    0.8979 H   0  0  0  0  0  0  0  0  0  0  0  0
   -2.2378   -4.5465   -0.8696 H   0  0  0  0  0  0  0  0  0  0  0  0
 17 16  3  0
 16 15  1  0
 15 19  2  0
 15 13  1  0
 20 19  1  0
 20 21  1  0
 22 21  1  0
 14 13  1  0
 19 18  1  0
 13 12  2  0
 18 11  2  0
 12 11  1  0
 11 10  1  0
 10  9  1  0
  6  9  2  0
  6  5  1  0
  9  8  1  0
  5  4  2  0
  8  7  2  0
  4  7  1  0
  4  2  1  0
  3  2  1  0
  2  1  2  0
  3 23  1  0
  3 24  1  0
  5 25  1  0
  6 26  1  0
  7 27  1  0
  8 28  1  0
 10 29  1  0
 12 30  1  0
 14 31  1  0
 14 32  1  0
 21 33  1  0
 21 34  1  0
 22 35  1  0
 22 36  1  0
 22 37  1  0
M  END
