
     RDKit          3D

 30 33  0  0  0  0  0  0  0  0999 V2000
    1.5626    1.0735    0.0781 C   0  0  0  0  0  0  0  0  0  0  0  0
    2.3423    2.2348    0.1536 C   0  0  0  0  0  0  0  0  0  0  0  0
    3.7185    2.1629    0.1660 C   0  0  0  0  0  0  0  0  0  0  0  0
    4.3501    0.9192    0.1058 C   0  0  0  0  0  0  0  0  0  0  0  0
    3.6079   -0.2431    0.0317 C   0  0  0  0  0  0  0  0  0  0  0  0
    2.2169   -0.1685    0.0148 C   0  0  0  0  0  0  0  0  0  0  0  0
   -1.9995    0.3133    0.0312 C   0  0  0  0  0  0  0  0  0  0  0  0
   -2.8563   -0.5079    0.7567 C   0  0  0  0  0  0  0  0  0  0  0  0
   -3.8654    1.6276   -0.7048 N   0  0  0  0  0  0  0  0  0  0  0  0
   -2.5667    1.3731   -0.6773 C   0  0  0  0  0  0  0  0  0  0  0  0
   -4.6718    0.8325   -0.0085 C   0  0  0  0  0  0  0  0  0  0  0  0
   -4.2159   -0.2429    0.7373 C   0  0  0  0  0  0  0  0  0  0  0  0
   -0.5360    0.1334    0.0179 C   0  0  0  0  0  0  0  0  0  0  0  0
    0.0247   -1.1759   -0.0908 C   0  0  0  0  0  0  0  0  0  0  0  0
   -0.4977   -2.4475   -0.2486 C   0  0  0  0  0  0  0  0  0  0  0  0
    0.5893   -3.3330   -0.3160 C   0  0  0  0  0  0  0  0  0  0  0  0
    1.7488   -2.5973   -0.2078 C   0  0  0  0  0  0  0  0  0  0  0  0
    1.4074   -1.2914   -0.0749 N   0  0  0  0  0  0  0  0  0  0  0  0
    0.1943    1.2000    0.0837 N   0  0  0  0  0  0  0  0  0  0  0  0
    1.8333    3.1889    0.2041 H   0  0  0  0  0  0  0  0  0  0  0  0
    4.3092    3.0669    0.2254 H   0  0  0  0  0  0  0  0  0  0  0  0
    5.4299    0.8584    0.1162 H   0  0  0  0  0  0  0  0  0  0  0  0
    4.1133   -1.1982   -0.0147 H   0  0  0  0  0  0  0  0  0  0  0  0
   -2.4714   -1.3270    1.3498 H   0  0  0  0  0  0  0  0  0  0  0  0
   -1.9279    2.0333   -1.2534 H   0  0  0  0  0  0  0  0  0  0  0  0
   -5.7300    1.0653   -0.0424 H   0  0  0  0  0  0  0  0  0  0  0  0
   -4.9099   -0.8536    1.2974 H   0  0  0  0  0  0  0  0  0  0  0  0
   -1.5416   -2.7043   -0.3219 H   0  0  0  0  0  0  0  0  0  0  0  0
    0.5417   -4.4033   -0.4369 H   0  0  0  0  0  0  0  0  0  0  0  0
    2.7749   -2.9226   -0.2236 H   0  0  0  0  0  0  0  0  0  0  0  0
  2  3  2  0
  2  1  1  0
  9 10  2  0
  9 11  1  0
  3  4  1  0
 10  7  1  0
 11 12  2  0
 19  1  1  0
 19 13  2  0
  1  6  2  0
  7 13  1  0
  7  8  2  0
 12  8  1  0
  4  5  2  0
 13 14  1  0
  6  5  1  0
  6 18  1  0
 14 18  1  0
 14 15  2  0
 18 17  1  0
 15 16  1  0
 17 16  2  0
  2 20  1  0
  3 21  1  0
  4 22  1  0
  5 23  1  0
  8 24  1  0
 10 25  1  0
 11 26  1  0
 12 27  1  0
 15 28  1  0
 16 29  1  0
 17 30  1  0
M  END
