
     RDKit          3D

 45 48  0  0  0  0  0  0  0  0999 V2000
   -0.9169   -4.0005   -1.2805 C   0  0  0  0  0  0  0  0  0  0  0  0
   -4.4080    1.5897    0.7123 C   0  0  0  0  0  0  0  0  0  0  0  0
   -4.8877    2.8796   -1.2370 C   0  0  0  0  0  0  0  0  0  0  0  0
    3.2685    0.8495   -0.0326 C   0  0  0  0  0  0  0  0  0  0  0  0
    3.7863   -0.1093   -0.8613 C   0  0  0  0  0  0  0  0  0  0  0  0
    1.5672    1.9708    1.1895 N   0  0  0  0  0  0  0  0  0  0  0  0
    1.8565    0.9602    0.3655 C   0  0  0  0  0  0  0  0  0  0  0  0
    0.9018    0.0683   -0.0820 C   0  0  0  0  0  0  0  0  0  0  0  0
   -0.4172    0.2753    0.3683 C   0  0  0  0  0  0  0  0  0  0  0  0
   -0.7046    1.2715    1.2041 N   0  0  0  0  0  0  0  0  0  0  0  0
    0.2949    2.0680    1.5725 C   0  0  0  0  0  0  0  0  0  0  0  0
   -0.0216    3.1017    2.3867 N   0  0  0  0  0  0  0  0  0  0  0  0
   -1.4482   -0.5085   -0.0128 N   0  0  0  0  0  0  0  0  0  0  0  0
   -1.3010   -1.5349   -1.0051 C   0  0  0  0  0  0  0  0  0  0  0  0
   -0.8895   -2.8814   -0.4505 C   0  0  0  0  0  0  0  0  0  0  0  0
   -0.5091   -2.9460    0.8164 N   0  0  0  0  0  0  0  0  0  0  0  0
   -0.1385   -4.1259    1.3063 C   0  0  0  0  0  0  0  0  0  0  0  0
   -0.1276   -5.2933    0.5628 C   0  0  0  0  0  0  0  0  0  0  0  0
   -0.5290   -5.2240   -0.7654 C   0  0  0  0  0  0  0  0  0  0  0  0
   -2.7516   -0.3021    0.5667 C   0  0  0  0  0  0  0  0  0  0  0  0
   -3.5029    0.8548   -0.0471 C   0  0  0  0  0  0  0  0  0  0  0  0
   -5.1137    2.6154    0.1065 C   0  0  0  0  0  0  0  0  0  0  0  0
   -3.9636    2.0937   -1.9069 C   0  0  0  0  0  0  0  0  0  0  0  0
   -3.2889    1.1040   -1.3325 N   0  0  0  0  0  0  0  0  0  0  0  0
    4.2773    1.7569    0.4154 C   0  0  0  0  0  0  0  0  0  0  0  0
    5.5079    1.4646   -0.0783 C   0  0  0  0  0  0  0  0  0  0  0  0
    5.4650    0.0839   -1.0945 S   0  0  0  0  0  0  0  0  0  0  0  0
   -1.2398   -3.9075   -2.3099 H   0  0  0  0  0  0  0  0  0  0  0  0
   -4.5500    1.3616    1.7609 H   0  0  0  0  0  0  0  0  0  0  0  0
   -5.4085    3.6733   -1.7545 H   0  0  0  0  0  0  0  0  0  0  0  0
    3.2711   -0.9225   -1.3494 H   0  0  0  0  0  0  0  0  0  0  0  0
    1.1641   -0.7577   -0.7235 H   0  0  0  0  0  0  0  0  0  0  0  0
   -0.9055    3.0747    2.8648 H   0  0  0  0  0  0  0  0  0  0  0  0
    0.7271    3.5838    2.8528 H   0  0  0  0  0  0  0  0  0  0  0  0
   -2.2481   -1.6381   -1.5373 H   0  0  0  0  0  0  0  0  0  0  0  0
   -0.5856   -1.2234   -1.7708 H   0  0  0  0  0  0  0  0  0  0  0  0
    0.1638   -4.1394    2.3479 H   0  0  0  0  0  0  0  0  0  0  0  0
    0.1810   -6.2269    1.0121 H   0  0  0  0  0  0  0  0  0  0  0  0
   -0.5443   -6.1102   -1.3863 H   0  0  0  0  0  0  0  0  0  0  0  0
   -3.3331   -1.2160    0.4201 H   0  0  0  0  0  0  0  0  0  0  0  0
   -2.6724   -0.1573    1.6438 H   0  0  0  0  0  0  0  0  0  0  0  0
   -5.8220    3.2038    0.6750 H   0  0  0  0  0  0  0  0  0  0  0  0
   -3.7586    2.2694   -2.9575 H   0  0  0  0  0  0  0  0  0  0  0  0
    4.0794    2.5867    1.0768 H   0  0  0  0  0  0  0  0  0  0  0  0
    6.4356    1.9859    0.0992 H   0  0  0  0  0  0  0  0  0  0  0  0
  3 23  2  0
  3 22  1  0
 23 24  1  0
 22  2  2  0
 12 11  1  0
  2 21  1  0
 24 21  2  0
 11 10  1  0
 11  6  2  0
 21 20  1  0
 17 16  2  0
 17 18  1  0
 10  9  2  0
  6  7  1  0
 16 15  1  0
 18 19  2  0
  9 13  1  0
  9  8  1  0
  7  4  1  0
  7  8  2  0
 20 13  1  0
 13 14  1  0
  4 25  1  0
  4  5  2  0
 25 26  2  0
  5 27  1  0
 15 14  1  0
 15  1  2  0
 26 27  1  0
 19  1  1  0
  1 28  1  0
  2 29  1  0
  3 30  1  0
  5 31  1  0
  8 32  1  0
 12 33  1  0
 12 34  1  0
 14 35  1  0
 14 36  1  0
 17 37  1  0
 18 38  1  0
 19 39  1  0
 20 40  1  0
 20 41  1  0
 22 42  1  0
 23 43  1  0
 25 44  1  0
 26 45  1  0
M  END
