
     RDKit          3D

 29 31  0  0  0  0  0  0  0  0999 V2000
   -0.0986    3.0886    0.2096 C   0  0  0  0  0  0  0  0  0  0  0  0
   -2.6126   -2.9819    0.3696 O   0  0  0  0  0  0  0  0  0  0  0  0
    4.0111   -0.9272    0.9329 F   0  0  0  0  0  0  0  0  0  0  0  0
    4.3920    0.8857   -0.1644 F   0  0  0  0  0  0  0  0  0  0  0  0
    3.9006   -0.9289   -1.2144 F   0  0  0  0  0  0  0  0  0  0  0  0
   -4.8356    0.5305   -0.0460 C   0  0  0  0  0  0  0  0  0  0  0  0
   -4.1470    1.7179   -0.2681 C   0  0  0  0  0  0  0  0  0  0  0  0
   -4.1195   -0.6341    0.1320 C   0  0  0  0  0  0  0  0  0  0  0  0
   -2.7657    1.7442   -0.2683 C   0  0  0  0  0  0  0  0  0  0  0  0
    1.6983    1.4208    0.0212 C   0  0  0  0  0  0  0  0  0  0  0  0
    1.3698   -0.9285   -0.0375 N   0  0  0  0  0  0  0  0  0  0  0  0
   -0.6876   -1.8558    0.0855 N   0  0  0  0  0  0  0  0  0  0  0  0
    0.3239    1.6585    0.0612 C   0  0  0  0  0  0  0  0  0  0  0  0
    2.1604    0.1264   -0.0523 C   0  0  0  0  0  0  0  0  0  0  0  0
   -2.0397   -1.9166    0.2182 C   0  0  0  0  0  0  0  0  0  0  0  0
   -2.7254   -0.6195    0.1191 C   0  0  0  0  0  0  0  0  0  0  0  0
    0.0685   -0.7152    0.0072 C   0  0  0  0  0  0  0  0  0  0  0  0
   -2.0112    0.5842   -0.0418 C   0  0  0  0  0  0  0  0  0  0  0  0
   -0.5471    0.5561   -0.0016 C   0  0  0  0  0  0  0  0  0  0  0  0
    3.6262   -0.2060   -0.1245 C   0  0  1  0  0  0  0  0  0  0  0  0
   -0.4783    3.5016   -0.7262 H   0  0  0  0  0  0  0  0  0  0  0  0
   -0.8691    3.2126    0.9694 H   0  0  0  0  0  0  0  0  0  0  0  0
    0.7560    3.6961    0.5005 H   0  0  0  0  0  0  0  0  0  0  0  0
   -5.9168    0.5153   -0.0350 H   0  0  0  0  0  0  0  0  0  0  0  0
   -4.6909    2.6348   -0.4519 H   0  0  0  0  0  0  0  0  0  0  0  0
   -4.6361   -1.5737    0.2708 H   0  0  0  0  0  0  0  0  0  0  0  0
   -2.2885    2.6841   -0.4797 H   0  0  0  0  0  0  0  0  0  0  0  0
    2.3797    2.2583    0.0570 H   0  0  0  0  0  0  0  0  0  0  0  0
   -0.1755   -2.7290    0.1057 H   0  0  0  0  0  0  0  0  0  0  0  0
  1 13  1  0
  2 15  2  0
 20  3  1  1
  4 20  1  0
  5 20  1  0
  6  7  2  0
  6  8  1  0
  7  9  1  0
  8 16  2  0
  9 18  2  0
 10 13  1  0
 10 14  2  0
 11 14  1  0
 11 17  2  0
 12 15  1  0
 12 17  1  0
 13 19  2  0
 14 20  1  0
 15 16  1  0
 16 18  1  0
 17 19  1  0
 18 19  1  0
  1 21  1  0
  1 22  1  0
  1 23  1  0
  6 24  1  0
  7 25  1  0
  8 26  1  0
  9 27  1  0
 10 28  1  0
 12 29  1  0
M  END
