
     RDKit          3D

 65 65  0  0  0  0  0  0  0  0999 V2000
    2.4504    0.2584    0.3228 C   0  0  0  0  0  0  0  0  0  0  0  0
    2.3487   -0.4027   -1.0356 C   0  0  1  0  0  0  0  0  0  0  0  0
    1.3650    0.4605   -1.8793 C   0  0  2  0  0  0  0  0  0  0  0  0
    0.5002   -0.3359   -2.8697 C   0  0  1  0  0  0  0  0  0  0  0  0
   -0.7537    0.5111   -3.2348 C   0  0  2  0  0  0  0  0  0  0  0  0
   -2.0513   -0.0198   -2.5828 C   0  0  2  0  0  0  0  0  0  0  0  0
   -1.8970    0.0416   -1.0614 C   0  0  0  0  0  0  0  0  0  0  0  0
   -3.1305   -0.2893   -0.1953 C   0  0  2  0  0  0  0  0  0  0  0  0
   -3.0409    0.4997    1.1107 C   0  0  0  0  0  0  0  0  0  0  0  0
   -2.1807   -0.0237    2.2565 C   0  0  1  0  0  0  0  0  0  0  0  0
   -0.6886    0.2781    1.9651 C   0  0  2  0  0  0  0  0  0  0  0  0
    0.2840   -0.3244    2.9902 C   0  0  2  0  0  0  0  0  0  0  0  0
    1.7327    0.0325    2.6153 C   0  0  1  0  0  0  0  0  0  0  0  0
    2.7752   -0.5131    3.5782 C   0  0  0  0  0  0  0  0  0  0  0  0
    4.1889   -0.0202    3.2986 C   0  0  0  0  0  0  0  0  0  0  0  0
    1.9707   -0.5033    1.2942 O   0  0  0  0  0  0  0  0  0  0  0  0
    2.8892    1.3737    0.4788 O   0  0  0  0  0  0  0  0  0  0  0  0
    3.7473   -0.5532   -1.6330 C   0  0  0  0  0  0  0  0  0  0  0  0
    2.0123    1.4941   -2.5756 O   0  0  0  0  0  0  0  0  0  0  0  0
    1.2719   -0.8616   -4.0772 C   0  0  0  0  0  0  0  0  0  0  0  0
   -0.8891    0.5890   -4.6365 O   0  0  0  0  0  0  0  0  0  0  0  0
   -2.4534   -1.3912   -3.1133 C   0  0  0  0  0  0  0  0  0  0  0  0
   -3.3142   -1.7864    0.0545 C   0  0  0  0  0  0  0  0  0  0  0  0
   -3.6368    1.5491    1.2199 O   0  0  0  0  0  0  0  0  0  0  0  0
   -2.6394    0.5306    3.5988 C   0  0  0  0  0  0  0  0  0  0  0  0
   -0.4456    1.6663    1.9163 O   0  0  0  0  0  0  0  0  0  0  0  0
    0.0654   -1.8266    3.1506 C   0  0  0  0  0  0  0  0  0  0  0  0
    1.9102   -1.3949   -0.9073 H   0  0  0  0  0  0  0  0  0  0  0  0
    0.6538    0.9050   -1.1665 H   0  0  0  0  0  0  0  0  0  0  0  0
    0.1618   -1.2208   -2.3205 H   0  0  0  0  0  0  0  0  0  0  0  0
   -0.6051    1.5274   -2.8403 H   0  0  0  0  0  0  0  0  0  0  0  0
   -2.8436    0.6912   -2.8542 H   0  0  0  0  0  0  0  0  0  0  0  0
   -1.0865   -0.6282   -0.7659 H   0  0  0  0  0  0  0  0  0  0  0  0
   -1.5635    1.0598   -0.8289 H   0  0  0  0  0  0  0  0  0  0  0  0
   -4.0187    0.0991   -0.7034 H   0  0  0  0  0  0  0  0  0  0  0  0
   -2.2868   -1.1103    2.2665 H   0  0  0  0  0  0  0  0  0  0  0  0
   -0.4443   -0.1873    1.0043 H   0  0  0  0  0  0  0  0  0  0  0  0
    0.1064    0.1517    3.9610 H   0  0  0  0  0  0  0  0  0  0  0  0
    1.8300    1.1181    2.5801 H   0  0  0  0  0  0  0  0  0  0  0  0
    2.7648   -1.6050    3.5740 H   0  0  0  0  0  0  0  0  0  0  0  0
    2.4752   -0.2072    4.5841 H   0  0  0  0  0  0  0  0  0  0  0  0
    4.8724   -0.3734    4.0710 H   0  0  0  0  0  0  0  0  0  0  0  0
    4.5679   -0.3859    2.3437 H   0  0  0  0  0  0  0  0  0  0  0  0
    4.2393    1.0692    3.2835 H   0  0  0  0  0  0  0  0  0  0  0  0
    4.3613   -1.1924   -0.9975 H   0  0  0  0  0  0  0  0  0  0  0  0
    3.7096   -1.0133   -2.6175 H   0  0  0  0  0  0  0  0  0  0  0  0
    4.2563    0.4038   -1.7318 H   0  0  0  0  0  0  0  0  0  0  0  0
    2.4191    2.0831   -1.9313 H   0  0  0  0  0  0  0  0  0  0  0  0
    2.0577   -1.5451   -3.7576 H   0  0  0  0  0  0  0  0  0  0  0  0
    0.6174   -1.4261   -4.7392 H   0  0  0  0  0  0  0  0  0  0  0  0
    1.7369   -0.0688   -4.6604 H   0  0  0  0  0  0  0  0  0  0  0  0
   -1.6461    1.1524   -4.8260 H   0  0  0  0  0  0  0  0  0  0  0  0
   -3.4830   -1.6282   -2.8466 H   0  0  0  0  0  0  0  0  0  0  0  0
   -2.3917   -1.4218   -4.2009 H   0  0  0  0  0  0  0  0  0  0  0  0
   -1.8211   -2.1885   -2.7171 H   0  0  0  0  0  0  0  0  0  0  0  0
   -4.0749   -1.9740    0.8137 H   0  0  0  0  0  0  0  0  0  0  0  0
   -3.6324   -2.2975   -0.8506 H   0  0  0  0  0  0  0  0  0  0  0  0
   -2.3881   -2.2609    0.3837 H   0  0  0  0  0  0  0  0  0  0  0  0
   -3.7008    0.3421    3.7585 H   0  0  0  0  0  0  0  0  0  0  0  0
   -2.1020    0.0512    4.4171 H   0  0  0  0  0  0  0  0  0  0  0  0
   -2.4739    1.6037    3.6753 H   0  0  0  0  0  0  0  0  0  0  0  0
   -0.8724    2.0507    1.1453 H   0  0  0  0  0  0  0  0  0  0  0  0
    0.7728   -2.2595    3.8561 H   0  0  0  0  0  0  0  0  0  0  0  0
   -0.9255   -2.0454    3.5464 H   0  0  0  0  0  0  0  0  0  0  0  0
    0.1690   -2.3625    2.2052 H   0  0  0  0  0  0  0  0  0  0  0  0
  1  2  1  0
  1 16  1  0
  1 17  2  0
  2  3  1  0
  2 18  1  0
  2 28  1  1
  3  4  1  0
  3 19  1  0
  3 29  1  1
  4  5  1  0
  4 20  1  0
  4 30  1  1
  5  6  1  0
  5 21  1  0
  5 31  1  1
  6  7  1  0
  6 22  1  0
  6 32  1  1
  7  8  1  0
  7 33  1  0
  7 34  1  0
  8  9  1  0
  8 23  1  0
  8 35  1  6
  9 10  1  0
  9 24  2  0
 10 11  1  0
 10 25  1  0
 10 36  1  1
 11 12  1  0
 11 26  1  0
 11 37  1  6
 12 13  1  0
 12 27  1  0
 12 38  1  1
 13 14  1  0
 13 16  1  0
 13 39  1  6
 14 15  1  0
 14 40  1  0
 14 41  1  0
 15 42  1  0
 15 43  1  0
 15 44  1  0
 18 45  1  0
 18 46  1  0
 18 47  1  0
 19 48  1  0
 20 49  1  0
 20 50  1  0
 20 51  1  0
 21 52  1  0
 22 53  1  0
 22 54  1  0
 22 55  1  0
 23 56  1  0
 23 57  1  0
 23 58  1  0
 25 59  1  0
 25 60  1  0
 25 61  1  0
 26 62  1  0
 27 63  1  0
 27 64  1  0
 27 65  1  0
M  END
