
     RDKit          3D

 55 58  0  0  0  0  0  0  0  0999 V2000
   -6.0124   -0.3484   -0.9553 C   0  0  0  0  0  0  0  0  0  0  0  0
   -7.4719   -0.3468   -0.5470 C   0  0  0  0  0  0  0  0  0  0  0  0
   -7.9457    1.0053   -0.3455 N   0  0  0  0  0  0  0  0  0  0  0  0
   -9.3559    1.0425   -0.0357 C   0  0  0  0  0  0  0  0  0  0  0  0
   -7.1524    1.6549    0.6748 C   0  0  0  0  0  0  0  0  0  0  0  0
   -5.6847    1.6844    0.2905 C   0  0  0  0  0  0  0  0  0  0  0  0
   -5.1997    0.3430    0.0366 N   0  0  0  0  0  0  0  0  0  0  0  0
   -3.8198    0.1521   -0.0139 C   0  0  0  0  0  0  0  0  0  0  0  0
   -3.3054   -1.1535   -0.0911 C   0  0  0  0  0  0  0  0  0  0  0  0
   -1.9449   -1.3890   -0.1074 C   0  0  0  0  0  0  0  0  0  0  0  0
   -1.3890   -2.6145   -0.1739 O   0  0  0  0  0  0  0  0  0  0  0  0
   -2.2276   -3.7516   -0.2400 C   0  0  0  0  0  0  0  0  0  0  0  0
   -2.9077    1.2029    0.0528 C   0  0  0  0  0  0  0  0  0  0  0  0
   -1.5366    0.9659    0.0566 C   0  0  0  0  0  0  0  0  0  0  0  0
   -1.0293   -0.3187   -0.0292 C   0  0  0  0  0  0  0  0  0  0  0  0
    0.3309   -0.6613   -0.0222 N   0  0  0  0  0  0  0  0  0  0  0  0
    1.4005    0.1385   -0.0777 C   0  0  0  0  0  0  0  0  0  0  0  0
    2.9885   -0.5736   -0.0082 S   0  0  0  0  0  0  0  0  0  0  0  0
    1.3661    1.4396   -0.1847 N   0  0  0  0  0  0  0  0  0  0  0  0
    2.6153    1.9617   -0.2194 C   0  0  0  0  0  0  0  0  0  0  0  0
    2.7550    3.2816   -0.3058 N   0  0  0  0  0  0  0  0  0  0  0  0
    3.6733    1.0404   -0.1550 C   0  0  0  0  0  0  0  0  0  0  0  0
    5.0548    1.3614   -0.1183 C   0  0  0  0  0  0  0  0  0  0  0  0
    5.4601    2.5299   -0.0982 O   0  0  0  0  0  0  0  0  0  0  0  0
    6.0524    0.2498   -0.0731 C   0  0  0  0  0  0  0  0  0  0  0  0
    7.1016    0.3244    0.8420 C   0  0  0  0  0  0  0  0  0  0  0  0
    8.0572   -0.6784    0.8939 C   0  0  0  0  0  0  0  0  0  0  0  0
    7.9911   -1.7512    0.0125 C   0  0  0  0  0  0  0  0  0  0  0  0
    6.9649   -1.8172   -0.9194 C   0  0  0  0  0  0  0  0  0  0  0  0
    5.9953   -0.8238   -0.9591 C   0  0  0  0  0  0  0  0  0  0  0  0
   -5.6878   -1.3817   -1.0591 H   0  0  0  0  0  0  0  0  0  0  0  0
   -8.0577   -0.8200   -1.3386 H   0  0  0  0  0  0  0  0  0  0  0  0
   -9.6127    0.5159    0.8967 H   0  0  0  0  0  0  0  0  0  0  0  0
   -7.4982    2.6835    0.8009 H   0  0  0  0  0  0  0  0  0  0  0  0
   -5.5489    2.3426   -0.5812 H   0  0  0  0  0  0  0  0  0  0  0  0
   -3.2394    2.2302    0.0978 H   0  0  0  0  0  0  0  0  0  0  0  0
   -0.8614    1.8048    0.1094 H   0  0  0  0  0  0  0  0  0  0  0  0
    0.5120   -1.6532    0.0298 H   0  0  0  0  0  0  0  0  0  0  0  0
    1.9446    3.8683   -0.4001 H   0  0  0  0  0  0  0  0  0  0  0  0
    3.6754    3.6859   -0.3407 H   0  0  0  0  0  0  0  0  0  0  0  0
    7.1613    1.1621    1.5250 H   0  0  0  0  0  0  0  0  0  0  0  0
    8.8578   -0.6214    1.6196 H   0  0  0  0  0  0  0  0  0  0  0  0
    8.7416   -2.5299    0.0492 H   0  0  0  0  0  0  0  0  0  0  0  0
    6.9192   -2.6397   -1.6208 H   0  0  0  0  0  0  0  0  0  0  0  0
    5.2142   -0.8768   -1.7075 H   0  0  0  0  0  0  0  0  0  0  0  0
   -5.1262    2.1202    1.1196 H   0  0  0  0  0  0  0  0  0  0  0  0
   -7.2578    1.1553    1.6539 H   0  0  0  0  0  0  0  0  0  0  0  0
   -7.5911   -0.9637    0.3609 H   0  0  0  0  0  0  0  0  0  0  0  0
   -5.9073    0.1258   -1.9420 H   0  0  0  0  0  0  0  0  0  0  0  0
   -9.6896    2.0768    0.0643 H   0  0  0  0  0  0  0  0  0  0  0  0
   -9.9285    0.5847   -0.8440 H   0  0  0  0  0  0  0  0  0  0  0  0
   -3.9887   -1.9904   -0.1048 H   0  0  0  0  0  0  0  0  0  0  0  0
   -2.8646   -3.8367    0.6432 H   0  0  0  0  0  0  0  0  0  0  0  0
   -2.8552   -3.7389   -1.1342 H   0  0  0  0  0  0  0  0  0  0  0  0
   -1.5705   -4.6160   -0.2841 H   0  0  0  0  0  0  0  0  0  0  0  0
 29 28  2  0
 29 30  1  0
 28 27  1  0
 30 25  2  0
 27 26  2  0
 25 26  1  0
 25 23  1  0
 24 23  2  0
 23 22  1  0
 22 18  1  0
 22 20  2  0
 18 17  1  0
 20 21  1  0
 20 19  1  0
 17 19  2  0
 17 16  1  0
  6  5  1  0
  6  7  1  0
 11 10  1  0
 11 12  1  0
 16 15  1  0
 10 15  1  0
 10  9  2  0
 15 14  2  0
  5  3  1  0
  9  8  1  0
 14 13  1  0
  8 13  2  0
  8  7  1  0
  7  1  1  0
  3  2  1  0
  3  4  1  0
  2  1  1  0
  1 31  1  0
  2 32  1  0
  4 33  1  0
  5 34  1  0
  6 35  1  0
 13 36  1  0
 14 37  1  0
 16 38  1  0
 21 39  1  0
 21 40  1  0
 26 41  1  0
 27 42  1  0
 28 43  1  0
 29 44  1  0
 30 45  1  0
  6 46  1  0
  5 47  1  0
  2 48  1  0
  1 49  1  0
  4 50  1  0
  4 51  1  0
  9 52  1  0
 12 53  1  0
 12 54  1  0
 12 55  1  0
M  END
