
     RDKit          3D

 19 19  0  0  0  0  0  0  0  0999 V2000
    2.6058   -0.3398    1.3824 O   0  0  0  0  0  0  0  0  0  0  0  0
    3.0396   -0.3128    0.2598 C   0  0  0  0  0  0  0  0  0  0  0  0
    4.2971   -0.6091   -0.0477 O   0  0  0  0  0  0  0  0  0  0  0  0
    2.2439    0.0507   -0.9709 C   0  0  0  0  0  0  0  0  0  0  0  0
    0.8268    0.4185   -0.6527 C   0  0  0  0  0  0  0  0  0  0  0  0
    0.4541    1.7433   -0.4474 C   0  0  0  0  0  0  0  0  0  0  0  0
   -0.8504    2.0843   -0.1359 C   0  0  0  0  0  0  0  0  0  0  0  0
   -1.8307    1.1028   -0.0169 C   0  0  0  0  0  0  0  0  0  0  0  0
   -3.0803    1.4812    0.2863 O   0  0  0  0  0  0  0  0  0  0  0  0
   -1.4521   -0.2235   -0.2254 C   0  0  0  0  0  0  0  0  0  0  0  0
   -0.1472   -0.5639   -0.5378 C   0  0  0  0  0  0  0  0  0  0  0  0
    4.7889   -0.8425    0.7540 H   0  0  0  0  0  0  0  0  0  0  0  0
    2.7556    0.8723   -1.4795 H   0  0  0  0  0  0  0  0  0  0  0  0
    2.2852   -0.7953   -1.6628 H   0  0  0  0  0  0  0  0  0  0  0  0
    1.1941    2.5295   -0.5321 H   0  0  0  0  0  0  0  0  0  0  0  0
   -1.1247    3.1201    0.0189 H   0  0  0  0  0  0  0  0  0  0  0  0
   -3.6718    0.7200    0.3428 H   0  0  0  0  0  0  0  0  0  0  0  0
    0.1056   -1.6050   -0.6955 H   0  0  0  0  0  0  0  0  0  0  0  0
   -2.6592   -1.4650   -0.0885 Cl  0  0  0  0  0  0  0  0  0  0  0  0
  1  2  2  0
  2  3  1  0
  2  4  1  0
  3 12  1  0
  4  5  1  0
  4 13  1  0
  4 14  1  0
  5  6  2  0
  5 11  1  0
  6  7  1  0
  6 15  1  0
  7  8  2  0
  7 16  1  0
  8  9  1  0
  8 10  1  0
  9 17  1  0
 19 10  1  0
 10 11  2  0
 11 18  1  0
M  END
