
     RDKit          3D

 47 50  0  0  0  0  0  0  0  0999 V2000
   -0.2472   -2.6633   -0.1057 C   0  0  0  0  0  0  0  0  0  0  0  0
    1.9823   -1.8323    0.3999 N   0  0  0  0  0  0  0  0  0  0  0  0
   -6.1703    0.9638   -0.8909 O   0  0  0  0  0  0  0  0  0  0  0  0
    3.7597    2.2928   -0.8127 S   0  0  1  0  0  0  0  0  0  0  0  0
    1.1325   -2.7972    0.0531 C   0  0  0  0  0  0  0  0  0  0  0  0
    0.0721   -0.3993    0.4777 N   0  0  0  0  0  0  0  0  0  0  0  0
    4.0038    2.5428   -2.2323 O   0  0  0  0  0  0  0  0  0  0  0  0
    1.3852   -0.6691    0.6051 C   0  0  0  0  0  0  0  0  0  0  0  0
    0.3216   -4.7823   -0.5405 N   0  0  0  0  0  0  0  0  0  0  0  0
    4.4170    3.1612    0.1677 O   0  0  0  0  0  0  0  0  0  0  0  0
   -0.7553   -1.3652    0.1273 C   0  0  0  0  0  0  0  0  0  0  0  0
    1.4268   -4.0800   -0.2197 N   0  0  0  0  0  0  0  0  0  0  0  0
   -0.6891   -3.9531   -0.4792 C   0  0  0  0  0  0  0  0  0  0  0  0
   -2.0789   -1.1389   -0.0229 N   0  0  0  0  0  0  0  0  0  0  0  0
    2.7193   -4.7139   -0.1926 C   0  0  0  0  0  0  0  0  0  0  0  0
    2.1740    0.3748    1.0106 N   0  0  0  0  0  0  0  0  0  0  0  0
   -2.8355    0.0250    0.1290 C   0  0  0  0  0  0  0  0  0  0  0  0
   -4.1097    0.0040   -0.4324 C   0  0  0  0  0  0  0  0  0  0  0  0
   -4.9626    1.0980   -0.3126 C   0  0  0  0  0  0  0  0  0  0  0  0
   -4.5384    2.2362    0.3697 C   0  0  0  0  0  0  0  0  0  0  0  0
   -3.2666    2.2404    0.9269 C   0  0  0  0  0  0  0  0  0  0  0  0
   -2.4078    1.1592    0.8243 C   0  0  0  0  0  0  0  0  0  0  0  0
   -7.0805    2.0431   -0.8137 C   0  0  0  0  0  0  0  0  0  0  0  0
    1.7090    1.7404    0.9003 C   0  0  0  0  0  0  0  0  0  0  0  0
    1.9998    2.3241   -0.4826 C   0  0  0  0  0  0  0  0  0  0  0  0
    4.1717    0.5985   -0.4110 C   0  0  0  0  0  0  0  0  0  0  0  0
    3.6143    0.2365    0.9655 C   0  0  0  0  0  0  0  0  0  0  0  0
   -1.6891   -4.2959   -0.6990 H   0  0  0  0  0  0  0  0  0  0  0  0
   -2.6027   -1.9315   -0.3611 H   0  0  0  0  0  0  0  0  0  0  0  0
    2.7583   -5.4791    0.5809 H   0  0  0  0  0  0  0  0  0  0  0  0
    2.9382   -5.1676   -1.1573 H   0  0  0  0  0  0  0  0  0  0  0  0
    3.4699   -3.9578    0.0201 H   0  0  0  0  0  0  0  0  0  0  0  0
   -4.4532   -0.8710   -0.9734 H   0  0  0  0  0  0  0  0  0  0  0  0
   -5.1719    3.1054    0.4775 H   0  0  0  0  0  0  0  0  0  0  0  0
   -2.9358    3.1188    1.4660 H   0  0  0  0  0  0  0  0  0  0  0  0
   -1.4334    1.1940    1.2800 H   0  0  0  0  0  0  0  0  0  0  0  0
   -7.9835    1.7220   -1.3268 H   0  0  0  0  0  0  0  0  0  0  0  0
   -7.3333    2.2928    0.2197 H   0  0  0  0  0  0  0  0  0  0  0  0
   -6.6961    2.9387   -1.3084 H   0  0  0  0  0  0  0  0  0  0  0  0
    0.6405    1.7927    1.0811 H   0  0  0  0  0  0  0  0  0  0  0  0
    2.1963    2.3404    1.6701 H   0  0  0  0  0  0  0  0  0  0  0  0
    1.6927    3.3695   -0.5543 H   0  0  0  0  0  0  0  0  0  0  0  0
    1.5035    1.7545   -1.2696 H   0  0  0  0  0  0  0  0  0  0  0  0
    3.7554   -0.0407   -1.1912 H   0  0  0  0  0  0  0  0  0  0  0  0
    5.2609    0.5305   -0.4402 H   0  0  0  0  0  0  0  0  0  0  0  0
    4.0504    0.8806    1.7305 H   0  0  0  0  0  0  0  0  0  0  0  0
    3.8989   -0.7847    1.1998 H   0  0  0  0  0  0  0  0  0  0  0  0
 11  1  1  0
  1 13  1  0
  1  5  2  0
  8  2  2  0
  2  5  1  0
 23  3  1  0
 19  3  1  0
 10  4  2  0
  7  4  2  0
  4 26  1  1
  4 25  1  0
  5 12  1  0
  6 11  2  0
  6  8  1  0
 16  8  1  0
 13  9  2  0
 12  9  1  0
 14 11  1  0
 12 15  1  0
 13 28  1  0
 17 14  1  0
 14 29  1  0
 15 30  1  0
 15 31  1  0
 15 32  1  0
 27 16  1  0
 24 16  1  0
 22 17  1  0
 17 18  2  0
 19 18  1  0
 18 33  1  0
 20 19  2  0
 21 20  1  0
 20 34  1  0
 21 22  2  0
 21 35  1  0
 22 36  1  0
 23 37  1  0
 23 38  1  0
 23 39  1  0
 25 24  1  0
 24 40  1  0
 24 41  1  0
 25 42  1  0
 25 43  1  0
 26 27  1  0
 26 44  1  0
 26 45  1  0
 27 46  1  0
 27 47  1  0
M  END
