
     RDKit          3D

 66 68  0  0  0  0  0  0  0  0999 V2000
   -4.0231    1.8030    0.1982 C   0  0  1  0  0  0  0  0  0  0  0  0
   -3.4266    3.0301    0.8891 C   0  0  0  0  0  0  0  0  0  0  0  0
   -4.2849    4.2693    0.6546 C   0  0  0  0  0  0  0  0  0  0  0  0
   -4.4827    4.5315   -0.8343 C   0  0  0  0  0  0  0  0  0  0  0  0
   -5.0634    3.3061   -1.5327 C   0  0  0  0  0  0  0  0  0  0  0  0
   -4.2025    2.0680   -1.2960 C   0  0  0  0  0  0  0  0  0  0  0  0
   -3.7240   -0.7030   -0.1135 N   0  0  0  0  0  0  0  0  0  0  0  0
   -3.2417    0.5068    0.5228 C   0  0  1  0  0  0  0  0  0  0  0  0
   -1.7714    0.6322    0.1559 C   0  0  0  0  0  0  0  0  0  0  0  0
   -1.3707    0.5120   -0.9961 O   0  0  0  0  0  0  0  0  0  0  0  0
   -0.9220    0.9052    1.1494 N   0  0  0  0  0  0  0  0  0  0  0  0
    0.5198    0.9665    1.0661 C   0  0  2  0  0  0  0  0  0  0  0  0
    1.1262   -0.3167    0.5230 C   0  0  0  0  0  0  0  0  0  0  0  0
    0.6784   -1.4060    0.8434 O   0  0  0  0  0  0  0  0  0  0  0  0
    2.1964   -0.1388   -0.2649 N   0  0  0  0  0  0  0  0  0  0  0  0
    2.9703   -1.2126   -0.8420 C   0  0  0  0  0  0  0  0  0  0  0  0
    4.4491   -1.0235   -0.6269 C   0  0  0  0  0  0  0  0  0  0  0  0
    4.9578   -0.7163    0.6342 C   0  0  0  0  0  0  0  0  0  0  0  0
    6.3194   -0.5757    0.8319 C   0  0  0  0  0  0  0  0  0  0  0  0
    7.2133   -0.7262   -0.2283 C   0  0  0  0  0  0  0  0  0  0  0  0
    6.7062   -1.0321   -1.4879 C   0  0  0  0  0  0  0  0  0  0  0  0
    5.3391   -1.1780   -1.6816 C   0  0  0  0  0  0  0  0  0  0  0  0
    8.6744   -0.5771    0.0176 C   0  0  0  0  0  0  0  0  0  0  0  0
    9.1223   -0.8089    1.1916 N   0  0  0  0  0  0  0  0  0  0  0  0
    9.4203   -0.2502   -1.0789 N   0  0  0  0  0  0  0  0  0  0  0  0
    0.5517    1.0617    2.6144 C   0  0  0  0  0  0  0  0  0  0  0  0
   -0.9805    0.8970    2.6063 C   0  0  0  0  0  0  0  0  0  0  0  0
   -5.1034   -1.0253    0.1615 C   0  0  0  0  0  0  0  0  0  0  0  0
   -5.4913   -2.2886   -0.5849 C   0  0  0  0  0  0  0  0  0  0  0  0
   -5.0517   -2.5335   -1.7009 O   0  0  0  0  0  0  0  0  0  0  0  0
   -6.9034   -4.2788   -0.5644 C   0  0  0  0  0  0  0  0  0  0  0  0
   -6.3733   -3.0779    0.0376 N   0  0  0  0  0  0  0  0  0  0  0  0
   -5.0249    1.6608    0.6261 H   0  0  0  0  0  0  0  0  0  0  0  0
   -3.3295    2.8473    1.9634 H   0  0  0  0  0  0  0  0  0  0  0  0
   -2.4165    3.2213    0.5092 H   0  0  0  0  0  0  0  0  0  0  0  0
   -3.2264    2.2149   -1.7668 H   0  0  0  0  0  0  0  0  0  0  0  0
   -4.6598    1.2048   -1.7888 H   0  0  0  0  0  0  0  0  0  0  0  0
   -3.3247    0.3578    1.6061 H   0  0  0  0  0  0  0  0  0  0  0  0
   -5.2618    4.1253    1.1292 H   0  0  0  0  0  0  0  0  0  0  0  0
   -3.8290    5.1364    1.1383 H   0  0  0  0  0  0  0  0  0  0  0  0
   -5.1331    5.3971   -0.9836 H   0  0  0  0  0  0  0  0  0  0  0  0
   -3.5179    4.7826   -1.2889 H   0  0  0  0  0  0  0  0  0  0  0  0
   -6.0768    3.1225   -1.1587 H   0  0  0  0  0  0  0  0  0  0  0  0
   -5.1587    3.4918   -2.6054 H   0  0  0  0  0  0  0  0  0  0  0  0
   -3.5705   -0.6598   -1.1128 H   0  0  0  0  0  0  0  0  0  0  0  0
   -5.2382   -1.1551    1.2386 H   0  0  0  0  0  0  0  0  0  0  0  0
   -5.8227   -0.2484   -0.1440 H   0  0  0  0  0  0  0  0  0  0  0  0
    0.8963    1.8511    0.5461 H   0  0  0  0  0  0  0  0  0  0  0  0
   -1.5451    1.7241    3.0368 H   0  0  0  0  0  0  0  0  0  0  0  0
   -1.3430   -0.0429    3.0249 H   0  0  0  0  0  0  0  0  0  0  0  0
    1.0988    0.2686    3.1180 H   0  0  0  0  0  0  0  0  0  0  0  0
    0.8959    2.0262    2.9779 H   0  0  0  0  0  0  0  0  0  0  0  0
    2.4511    0.8019   -0.5214 H   0  0  0  0  0  0  0  0  0  0  0  0
    2.6421   -2.1450   -0.3820 H   0  0  0  0  0  0  0  0  0  0  0  0
    2.7608   -1.2982   -1.9113 H   0  0  0  0  0  0  0  0  0  0  0  0
    4.2844   -0.5856    1.4726 H   0  0  0  0  0  0  0  0  0  0  0  0
    4.9664   -1.4196   -2.6697 H   0  0  0  0  0  0  0  0  0  0  0  0
    6.6997   -0.3397    1.8165 H   0  0  0  0  0  0  0  0  0  0  0  0
    7.3700   -1.1771   -2.3306 H   0  0  0  0  0  0  0  0  0  0  0  0
   10.1246   -0.6465    1.2424 H   0  0  0  0  0  0  0  0  0  0  0  0
    8.9839    0.2878   -1.8092 H   0  0  0  0  0  0  0  0  0  0  0  0
   10.3859   -0.0065   -0.9248 H   0  0  0  0  0  0  0  0  0  0  0  0
   -6.6575   -2.8508    0.9753 H   0  0  0  0  0  0  0  0  0  0  0  0
   -6.1346   -5.0416   -0.6957 H   0  0  0  0  0  0  0  0  0  0  0  0
   -7.6742   -4.6790    0.0877 H   0  0  0  0  0  0  0  0  0  0  0  0
   -7.3497   -4.0721   -1.5367 H   0  0  0  0  0  0  0  0  0  0  0  0
  1  2  1  0
  1  6  1  0
  1  8  1  0
  2  3  1  0
  3  4  1  0
  4  5  1  0
  5  6  1  0
  7  8  1  0
  7 28  1  0
  8  9  1  0
  9 10  2  0
  9 11  1  0
 11 12  1  0
 11 27  1  0
 12 13  1  0
 12 26  1  0
 13 14  2  0
 13 15  1  0
 15 16  1  0
 16 17  1  0
 17 18  2  0
 17 22  1  0
 18 19  1  0
 19 20  2  0
 20 21  1  0
 20 23  1  0
 21 22  2  0
 23 24  2  0
 23 25  1  0
 26 27  1  0
 28 29  1  0
 29 30  2  0
 29 32  1  0
 31 32  1  0
  1 33  1  1
  2 34  1  0
  2 35  1  0
  6 36  1  0
  6 37  1  0
  8 38  1  1
  3 39  1  0
  3 40  1  0
  4 41  1  0
  4 42  1  0
  5 43  1  0
  5 44  1  0
  7 45  1  0
 28 46  1  0
 28 47  1  0
 12 48  1  6
 27 49  1  0
 27 50  1  0
 26 51  1  0
 26 52  1  0
 15 53  1  0
 16 54  1  0
 16 55  1  0
 18 56  1  0
 22 57  1  0
 19 58  1  0
 21 59  1  0
 24 60  1  0
 25 61  1  0
 25 62  1  0
 32 63  1  0
 31 64  1  0
 31 65  1  0
 31 66  1  0
M  END
