
     RDKit          3D

 41 43  0  0  0  0  0  0  0  0999 V2000
   -3.2838    1.6296    0.7976 N   0  0  0  0  0  0  0  0  0  0  0  0
   -2.3270   -0.1502   -0.0204 C   0  0  0  0  0  0  0  0  0  0  0  0
   -1.3917    0.8091    0.4069 C   0  0  0  0  0  0  0  0  0  0  0  0
   -3.5525    0.4291    0.2546 C   0  0  0  0  0  0  0  0  0  0  0  0
   -1.9822    1.8804    0.9046 N   0  0  0  0  0  0  0  0  0  0  0  0
   -0.0053    0.8004    0.3617 N   0  0  0  0  0  0  0  0  0  0  0  0
    0.7748   -0.2442   -0.0114 C   0  0  0  0  0  0  0  0  0  0  0  0
    2.2373    0.0256   -0.0420 C   0  0  0  0  0  0  0  0  0  0  0  0
    3.0993   -1.0736    0.0630 C   0  0  0  0  0  0  0  0  0  0  0  0
    4.4683   -0.9066    0.0166 C   0  0  0  0  0  0  0  0  0  0  0  0
    5.0082    0.3873   -0.1642 C   0  0  0  0  0  0  0  0  0  0  0  0
   -4.9070   -0.0669    0.0287 C   0  0  0  0  0  0  0  0  0  0  0  0
    2.7725    1.2903   -0.2199 C   0  0  0  0  0  0  0  0  0  0  0  0
    4.1512    1.4692   -0.2830 C   0  0  0  0  0  0  0  0  0  0  0  0
    5.3701   -1.8967    0.1257 O   0  0  0  0  0  0  0  0  0  0  0  0
    6.3442    0.4542   -0.2108 O   0  0  0  0  0  0  0  0  0  0  0  0
   -5.9891    0.8070   -0.0912 C   0  0  0  0  0  0  0  0  0  0  0  0
   -5.1351   -1.4397   -0.0788 C   0  0  0  0  0  0  0  0  0  0  0  0
    4.8942   -3.2108    0.3391 C   0  0  0  0  0  0  0  0  0  0  0  0
   -6.4139   -1.9258   -0.3001 C   0  0  0  0  0  0  0  0  0  0  0  0
   -7.2688    0.3172   -0.3045 C   0  0  0  0  0  0  0  0  0  0  0  0
    0.3170   -1.3377   -0.3015 O   0  0  0  0  0  0  0  0  0  0  0  0
    6.9482    1.7206   -0.3953 C   0  0  0  0  0  0  0  0  0  0  0  0
   -7.4866   -1.0499   -0.4112 C   0  0  0  0  0  0  0  0  0  0  0  0
   -3.9421    2.3002    1.1611 H   0  0  0  0  0  0  0  0  0  0  0  0
   -2.1469   -1.1042   -0.4797 H   0  0  0  0  0  0  0  0  0  0  0  0
    0.4352    1.6388    0.7085 H   0  0  0  0  0  0  0  0  0  0  0  0
    2.6728   -2.0591    0.1906 H   0  0  0  0  0  0  0  0  0  0  0  0
    2.1432    2.1615   -0.3476 H   0  0  0  0  0  0  0  0  0  0  0  0
    4.5384    2.4669   -0.4363 H   0  0  0  0  0  0  0  0  0  0  0  0
   -5.8402    1.8785   -0.0385 H   0  0  0  0  0  0  0  0  0  0  0  0
   -4.3105   -2.1339    0.0218 H   0  0  0  0  0  0  0  0  0  0  0  0
    4.3110   -3.2863    1.2606 H   0  0  0  0  0  0  0  0  0  0  0  0
    4.2824   -3.5642   -0.4952 H   0  0  0  0  0  0  0  0  0  0  0  0
    5.7717   -3.8464    0.4254 H   0  0  0  0  0  0  0  0  0  0  0  0
    8.0213    1.5494   -0.4154 H   0  0  0  0  0  0  0  0  0  0  0  0
    6.6456    2.1814   -1.3389 H   0  0  0  0  0  0  0  0  0  0  0  0
    6.7145    2.4058    0.4234 H   0  0  0  0  0  0  0  0  0  0  0  0
   -8.0956    1.0089   -0.3968 H   0  0  0  0  0  0  0  0  0  0  0  0
   -6.5736   -2.9932   -0.3787 H   0  0  0  0  0  0  0  0  0  0  0  0
   -8.4850   -1.4301   -0.5823 H   0  0  0  0  0  0  0  0  0  0  0  0
  1  4  1  0
  1  5  1  0
  2  3  1  0
  2  4  2  0
  3  5  2  0
  3  6  1  0
  4 12  1  0
  6  7  1  0
  7  8  1  0
  7 22  2  0
  8  9  2  0
  8 13  1  0
  9 10  1  0
 10 11  2  0
 10 15  1  0
 11 14  1  0
 11 16  1  0
 12 17  2  0
 12 18  1  0
 13 14  2  0
 15 19  1  0
 16 23  1  0
 17 21  1  0
 18 20  2  0
 20 24  1  0
 21 24  2  0
  1 25  1  0
  2 26  1  0
  6 27  1  0
  9 28  1  0
 13 29  1  0
 14 30  1  0
 17 31  1  0
 18 32  1  0
 19 33  1  0
 19 34  1  0
 19 35  1  0
 23 36  1  0
 23 37  1  0
 23 38  1  0
 21 39  1  0
 20 40  1  0
 24 41  1  0
M  END
