
     RDKit          3D

 23 24  0  0  0  0  0  0  0  0999 V2000
   -0.6445   -2.1586    0.1368 C   0  0  0  0  0  0  0  0  0  0  0  0
    0.6757   -2.4863    0.0173 C   0  0  0  0  0  0  0  0  0  0  0  0
   -1.0538   -0.8055    0.0660 C   0  0  0  0  0  0  0  0  0  0  0  0
   -0.5200    1.5575   -0.1826 C   0  0  0  0  0  0  0  0  0  0  0  0
   -0.0801    0.2127   -0.1195 C   0  0  0  0  0  0  0  0  0  0  0  0
   -1.8492    1.8706   -0.0807 C   0  0  0  0  0  0  0  0  0  0  0  0
    2.5441    1.7077    0.7201 N   0  0  0  0  0  0  0  0  0  0  0  0
    1.2925   -0.1513   -0.2570 C   0  0  0  0  0  0  0  0  0  0  0  0
    1.6394   -1.4763   -0.1837 C   0  0  0  0  0  0  0  0  0  0  0  0
   -2.8123    0.8572    0.0973 C   0  0  0  0  0  0  0  0  0  0  0  0
   -2.4196   -0.4506    0.1721 C   0  0  0  0  0  0  0  0  0  0  0  0
   -1.3933   -2.9280    0.2816 H   0  0  0  0  0  0  0  0  0  0  0  0
    0.9893   -3.5208    0.0712 H   0  0  0  0  0  0  0  0  0  0  0  0
    0.2055    2.3507   -0.2927 H   0  0  0  0  0  0  0  0  0  0  0  0
   -2.1639    2.9050   -0.1323 H   0  0  0  0  0  0  0  0  0  0  0  0
    2.9627    1.1459    1.4509 H   0  0  0  0  0  0  0  0  0  0  0  0
    2.0744    1.5506   -1.2926 H   0  0  0  0  0  0  0  0  0  0  0  0
    3.2754    0.3795   -0.7988 H   0  0  0  0  0  0  0  0  0  0  0  0
    2.6805   -1.7588   -0.2885 H   0  0  0  0  0  0  0  0  0  0  0  0
   -3.8602    1.1165    0.1757 H   0  0  0  0  0  0  0  0  0  0  0  0
   -3.1535   -1.2359    0.3087 H   0  0  0  0  0  0  0  0  0  0  0  0
    3.2112    2.4417    0.5179 H   0  0  0  0  0  0  0  0  0  0  0  0
    2.3603    0.8887   -0.4704 C   0  0  0  0  0  0  0  0  0  0  0  0
  7 23  1  0
 23  8  1  0
  4  6  2  0
  4  5  1  0
  6 10  1  0
  8  5  2  0
  8  9  1  0
  5  3  1  0
 10 11  2  0
  9  2  2  0
  3 11  1  0
  3  1  2  0
  2  1  1  0
  1 12  1  0
  2 13  1  0
  4 14  1  0
  6 15  1  0
  7 16  1  0
 23 17  1  0
 23 18  1  0
  9 19  1  0
 10 20  1  0
 11 21  1  0
  7 22  1  0
M  END
