
     RDKit          3D

 29 30  0  0  0  0  0  0  0  0999 V2000
   -5.5095   -0.0943   -0.3343 C   0  0  0  0  0  0  0  0  0  0  0  0
   -5.0059    0.9063    0.4860 C   0  0  0  0  0  0  0  0  0  0  0  0
   -3.6375    1.1146    0.5698 C   0  0  0  0  0  0  0  0  0  0  0  0
   -2.7587    0.3206   -0.1683 C   0  0  0  0  0  0  0  0  0  0  0  0
   -3.2710   -0.6765   -0.9994 C   0  0  0  0  0  0  0  0  0  0  0  0
   -4.6396   -0.8824   -1.0775 C   0  0  0  0  0  0  0  0  0  0  0  0
   -1.3153    0.5557   -0.0861 C   0  0  0  0  0  0  0  0  0  0  0  0
   -0.2917   -0.3236    0.1430 C   0  0  0  0  0  0  0  0  0  0  0  0
    0.9888    0.2899    0.1721 C   0  0  0  0  0  0  0  0  0  0  0  0
    0.9197    1.6421   -0.0500 C   0  0  0  0  0  0  0  0  0  0  0  0
   -0.7064    2.1483   -0.2814 S   0  0  0  0  0  0  0  0  0  0  0  0
    2.0278    2.5954   -0.0775 C   0  0  0  0  0  0  0  0  0  0  0  0
    3.1918    2.2941    0.0194 O   0  0  0  0  0  0  0  0  0  0  0  0
    1.5843    3.8370   -0.2269 O   0  0  0  0  0  0  0  0  0  0  0  0
    2.1087   -0.3956    0.4428 O   0  0  0  0  0  0  0  0  0  0  0  0
    2.8268   -0.8440   -0.6900 C   0  0  0  0  0  0  0  0  0  0  0  0
    4.1005   -1.4820   -0.1985 C   0  0  0  0  0  0  0  0  0  0  0  0
    4.4222   -1.5733    0.9542 O   0  0  0  0  0  0  0  0  0  0  0  0
    4.8112   -1.9292   -1.2220 O   0  0  0  0  0  0  0  0  0  0  0  0
   -0.4956   -2.1423    0.4976 Br  0  0  0  0  0  0  0  0  0  0  0  0
   -6.5772   -0.2581   -0.3970 H   0  0  0  0  0  0  0  0  0  0  0  0
   -5.6777    1.5233    1.0677 H   0  0  0  0  0  0  0  0  0  0  0  0
   -3.2494    1.8854    1.2243 H   0  0  0  0  0  0  0  0  0  0  0  0
   -2.6030   -1.2747   -1.6044 H   0  0  0  0  0  0  0  0  0  0  0  0
   -5.0276   -1.6571   -1.7258 H   0  0  0  0  0  0  0  0  0  0  0  0
    2.3252    4.4609   -0.2634 H   0  0  0  0  0  0  0  0  0  0  0  0
    3.0740   -0.0180   -1.3631 H   0  0  0  0  0  0  0  0  0  0  0  0
    2.2513   -1.5783   -1.2645 H   0  0  0  0  0  0  0  0  0  0  0  0
    5.6326   -2.3387   -0.9105 H   0  0  0  0  0  0  0  0  0  0  0  0
  1  2  2  0
  1  6  1  0
  1 21  1  0
  2  3  1  0
  2 22  1  0
  3  4  2  0
  3 23  1  0
  4  5  1  0
  4  7  1  0
  5  6  2  0
  5 24  1  0
  6 25  1  0
  7  8  2  0
  7 11  1  0
  8  9  1  0
  8 20  1  0
  9 10  2  0
  9 15  1  0
 10 11  1  0
 10 12  1  0
 12 13  2  0
 12 14  1  0
 14 26  1  0
 15 16  1  0
 16 17  1  0
 16 27  1  0
 16 28  1  0
 17 18  2  0
 17 19  1  0
 19 29  1  0
M  END
