
     RDKit          3D

 53 55  0  0  0  0  0  0  0  0999 V2000
   -3.2199   -1.0928    0.5776 C   0  0  0  0  0  0  0  0  0  0  0  0
   -4.3789   -0.4514    0.1442 C   0  0  0  0  0  0  0  0  0  0  0  0
   -4.2785    0.8612   -0.3168 C   0  0  0  0  0  0  0  0  0  0  0  0
   -3.0507    1.5101   -0.3548 C   0  0  0  0  0  0  0  0  0  0  0  0
   -1.9004    0.8506    0.0801 C   0  0  0  0  0  0  0  0  0  0  0  0
   -1.9841   -0.4522    0.5587 C   0  0  0  0  0  0  0  0  0  0  0  0
   -3.2067   -2.3533    1.0497 O   0  0  0  0  0  0  0  0  0  0  0  0
   -4.4234   -3.0676    1.1300 C   0  0  0  0  0  0  0  0  0  0  0  0
   -5.3319    1.5750   -0.7551 O   0  0  0  0  0  0  0  0  0  0  0  0
   -6.6133    0.9777   -0.7523 C   0  0  0  0  0  0  0  0  0  0  0  0
   -0.7263    1.6016    0.0573 N   0  0  0  0  0  0  0  0  0  0  0  0
    0.5663    1.2284   -0.0211 C   0  0  0  0  0  0  0  0  0  0  0  0
    0.8331   -0.0879   -0.1185 N   0  0  0  0  0  0  0  0  0  0  0  0
    2.0558   -0.5229   -0.2297 C   0  0  0  0  0  0  0  0  0  0  0  0
    3.1042    0.3766   -0.2199 N   0  0  0  0  0  0  0  0  0  0  0  0
    2.8923    1.7278   -0.1126 C   0  0  0  0  0  0  0  0  0  0  0  0
    1.5685    2.2210   -0.0128 C   0  0  0  0  0  0  0  0  0  0  0  0
    1.2770    3.6553    0.0654 C   0  0  0  0  0  0  0  0  0  0  0  0
    0.1130    4.0869    0.1096 O   0  0  0  0  0  0  0  0  0  0  0  0
    2.3237    4.4909    0.0860 N   0  0  0  0  0  0  0  0  0  0  0  0
    4.0558    2.3389   -0.1331 N   0  0  0  0  0  0  0  0  0  0  0  0
    5.0229    1.3934   -0.2574 N   0  0  0  0  0  0  0  0  0  0  0  0
    4.4670    0.2316   -0.3114 C   0  0  0  0  0  0  0  0  0  0  0  0
    2.3697   -1.7975   -0.3744 N   0  0  0  0  0  0  0  0  0  0  0  0
    1.4724   -2.9536   -0.3461 C   0  0  1  0  0  0  0  0  0  0  0  0
    2.3763   -4.1286   -0.7783 C   0  0  0  0  0  0  0  0  0  0  0  0
    0.9473   -3.1843    1.0713 C   0  0  0  0  0  0  0  0  0  0  0  0
    0.3336   -2.8414   -1.3522 C   0  0  0  0  0  0  0  0  0  0  0  0
    3.6630   -4.0781   -0.1065 N   0  0  0  0  0  0  0  0  0  0  0  0
   -5.3323   -0.9579    0.1710 H   0  0  0  0  0  0  0  0  0  0  0  0
   -2.9951    2.5248   -0.7302 H   0  0  0  0  0  0  0  0  0  0  0  0
   -1.1127   -0.9731    0.9182 H   0  0  0  0  0  0  0  0  0  0  0  0
   -5.1468   -2.5763    1.7862 H   0  0  0  0  0  0  0  0  0  0  0  0
   -4.8795   -3.2115    0.1471 H   0  0  0  0  0  0  0  0  0  0  0  0
   -4.1809   -4.0417    1.5475 H   0  0  0  0  0  0  0  0  0  0  0  0
   -6.6534    0.0922   -1.3915 H   0  0  0  0  0  0  0  0  0  0  0  0
   -6.9342    0.7004    0.2551 H   0  0  0  0  0  0  0  0  0  0  0  0
   -7.3006    1.7234   -1.1440 H   0  0  0  0  0  0  0  0  0  0  0  0
   -0.8284    2.6200    0.0496 H   0  0  0  0  0  0  0  0  0  0  0  0
    3.2760    4.1522    0.0335 H   0  0  0  0  0  0  0  0  0  0  0  0
    2.1576    5.4830    0.1170 H   0  0  0  0  0  0  0  0  0  0  0  0
    4.9807   -0.7099   -0.4165 H   0  0  0  0  0  0  0  0  0  0  0  0
    3.3367   -2.1064   -0.2639 H   0  0  0  0  0  0  0  0  0  0  0  0
    1.8210   -5.0591   -0.6153 H   0  0  0  0  0  0  0  0  0  0  0  0
    2.5582   -4.0471   -1.8521 H   0  0  0  0  0  0  0  0  0  0  0  0
    0.4049   -2.3158    1.4425 H   0  0  0  0  0  0  0  0  0  0  0  0
    0.2690   -4.0384    1.0883 H   0  0  0  0  0  0  0  0  0  0  0  0
    1.7592   -3.3839    1.7725 H   0  0  0  0  0  0  0  0  0  0  0  0
    0.7126   -2.5712   -2.3389 H   0  0  0  0  0  0  0  0  0  0  0  0
   -0.1578   -3.8121   -1.4372 H   0  0  0  0  0  0  0  0  0  0  0  0
   -0.4159   -2.1109   -1.0591 H   0  0  0  0  0  0  0  0  0  0  0  0
    3.6122   -4.4863    0.8175 H   0  0  0  0  0  0  0  0  0  0  0  0
    4.3518   -4.6084   -0.6209 H   0  0  0  0  0  0  0  0  0  0  0  0
  1  2  2  0
  1  6  1  0
  1  7  1  0
  2  3  1  0
  3  4  2  0
  3  9  1  0
  4  5  1  0
  5  6  2  0
  5 11  1  0
  7  8  1  0
  9 10  1  0
 11 12  1  0
 12 13  1  0
 12 17  2  0
 13 14  2  0
 14 15  1  0
 14 24  1  0
 15 16  1  0
 15 23  1  0
 16 17  1  0
 16 21  2  0
 17 18  1  0
 18 19  2  0
 18 20  1  0
 21 22  1  0
 22 23  2  0
 25 24  1  1
 25 26  1  0
 25 27  1  0
 25 28  1  0
 26 29  1  0
  2 30  1  0
  4 31  1  0
  6 32  1  0
  8 33  1  0
  8 34  1  0
  8 35  1  0
 10 36  1  0
 10 37  1  0
 10 38  1  0
 11 39  1  0
 20 40  1  0
 20 41  1  0
 23 42  1  0
 24 43  1  0
 26 44  1  0
 26 45  1  0
 27 46  1  0
 27 47  1  0
 27 48  1  0
 28 49  1  0
 28 50  1  0
 28 51  1  0
 29 52  1  0
 29 53  1  0
M  END
