
     RDKit          3D

 41 43  0  0  0  0  0  0  0  0999 V2000
    7.0157    0.7513   -1.3620 O   0  0  0  0  0  0  0  0  0  0  0  0
    5.8299    0.7734   -0.7133 C   0  0  0  0  0  0  0  0  0  0  0  0
    4.9755   -0.3283   -0.6901 C   0  0  0  0  0  0  0  0  0  0  0  0
    3.7817   -0.2558    0.0012 C   0  0  0  0  0  0  0  0  0  0  0  0
    2.9929   -1.3739    0.0332 O   0  0  0  0  0  0  0  0  0  0  0  0
    1.6650   -1.1833    0.3156 C   0  0  0  0  0  0  0  0  0  0  0  0
    0.7705   -2.1646   -0.0625 C   0  0  0  0  0  0  0  0  0  0  0  0
   -0.5831   -2.0276    0.2395 C   0  0  0  0  0  0  0  0  0  0  0  0
   -1.4868   -2.9718   -0.1131 O   0  0  0  0  0  0  0  0  0  0  0  0
    5.4598    1.9388   -0.0553 C   0  0  0  0  0  0  0  0  0  0  0  0
    4.2487    1.9978    0.6227 C   0  0  0  0  0  0  0  0  0  0  0  0
    3.3943    0.9058    0.6684 C   0  0  0  0  0  0  0  0  0  0  0  0
    2.1855    0.9090    1.3622 N   0  0  0  0  0  0  0  0  0  0  0  0
    1.2380   -0.0420    0.9866 C   0  0  0  0  0  0  0  0  0  0  0  0
   -0.1146    0.0800    1.2670 C   0  0  0  0  0  0  0  0  0  0  0  0
   -1.0429   -0.8965    0.9135 C   0  0  0  0  0  0  0  0  0  0  0  0
   -2.5024   -0.6874    1.2063 C   0  0  0  0  0  0  0  0  0  0  0  0
   -3.2591   -0.1049    0.0108 C   0  0  0  0  0  0  0  0  0  0  0  0
   -4.7221    0.1786    0.3288 C   0  0  0  0  0  0  0  0  0  0  0  0
   -5.4487    0.7789   -0.8629 C   0  0  0  0  0  0  0  0  0  0  0  0
   -6.8996    1.1269   -0.5950 C   0  0  0  0  0  0  0  0  0  0  0  0
   -7.4418    0.9334    0.4838 O   0  0  0  0  0  0  0  0  0  0  0  0
   -7.5449    1.6676   -1.6421 N   0  0  0  0  0  0  0  0  0  0  0  0
    7.1413   -0.0959   -1.8027 H   0  0  0  0  0  0  0  0  0  0  0  0
    5.2379   -1.2493   -1.1994 H   0  0  0  0  0  0  0  0  0  0  0  0
    1.1351   -3.0421   -0.5851 H   0  0  0  0  0  0  0  0  0  0  0  0
   -1.0504   -3.6972   -0.5727 H   0  0  0  0  0  0  0  0  0  0  0  0
    6.1117    2.8025   -0.0731 H   0  0  0  0  0  0  0  0  0  0  0  0
    3.9659    2.9125    1.1299 H   0  0  0  0  0  0  0  0  0  0  0  0
    1.8245    1.8152    1.6170 H   0  0  0  0  0  0  0  0  0  0  0  0
   -0.4628    0.9680    1.7835 H   0  0  0  0  0  0  0  0  0  0  0  0
   -2.9751   -1.6226    1.5163 H   0  0  0  0  0  0  0  0  0  0  0  0
   -2.5954   -0.0008    2.0522 H   0  0  0  0  0  0  0  0  0  0  0  0
   -2.7652    0.8203   -0.3030 H   0  0  0  0  0  0  0  0  0  0  0  0
   -3.1925   -0.7942   -0.8362 H   0  0  0  0  0  0  0  0  0  0  0  0
   -5.2153   -0.7469    0.6376 H   0  0  0  0  0  0  0  0  0  0  0  0
   -4.7804    0.8610    1.1808 H   0  0  0  0  0  0  0  0  0  0  0  0
   -4.9334    1.6849   -1.1985 H   0  0  0  0  0  0  0  0  0  0  0  0
   -5.4130    0.0898   -1.7132 H   0  0  0  0  0  0  0  0  0  0  0  0
   -7.0881    1.8216   -2.5243 H   0  0  0  0  0  0  0  0  0  0  0  0
   -8.5117    1.9373   -1.5656 H   0  0  0  0  0  0  0  0  0  0  0  0
  9  8  1  0
  7  8  2  0
  7  6  1  0
  8 16  1  0
  5  6  1  0
  5  4  1  0
  6 14  2  0
  3  4  1  0
  3  2  2  0
  4 12  2  0
 16 17  1  0
 16 15  2  0
  1  2  1  0
  2 10  1  0
 14 15  1  0
 14 13  1  0
 17 18  1  0
 18 19  1  0
 12 13  1  0
 12 11  1  0
 10 11  2  0
 19 20  1  0
 20 21  1  0
 21 22  2  0
 21 23  1  0
  1 24  1  0
  3 25  1  0
  7 26  1  0
  9 27  1  0
 10 28  1  0
 11 29  1  0
 13 30  1  0
 15 31  1  0
 17 32  1  0
 17 33  1  0
 18 34  1  0
 18 35  1  0
 19 36  1  0
 19 37  1  0
 20 38  1  0
 20 39  1  0
 23 40  1  0
 23 41  1  0
M  END
