
     RDKit          3D

 56 60  0  0  0  0  0  0  0  0999 V2000
  -21.8261  -28.4057  -12.5682 C   0  0  0  0  0  0  0  0  0  0  0  0
  -22.0529  -27.3311  -13.2089 N   0  0  0  0  0  0  0  0  0  0  0  0
  -19.0743  -29.1750  -11.0645 C   0  0  0  0  0  0  0  0  0  0  0  0
  -19.8630  -30.2770  -11.7444 C   0  0  0  0  0  0  0  0  0  0  0  0
  -14.6358  -26.3679  -14.0596 N   0  0  0  0  0  0  0  0  0  0  0  0
  -13.9199  -26.1567  -12.9320 C   0  0  0  0  0  0  0  0  0  0  0  0
  -15.9721  -26.2830  -13.7604 C   0  0  0  0  0  0  0  0  0  0  0  0
  -17.0703  -26.4030  -14.6065 C   0  0  0  0  0  0  0  0  0  0  0  0
  -18.3231  -26.2387  -14.0464 C   0  0  0  0  0  0  0  0  0  0  0  0
  -18.4733  -25.9449  -12.6845 C   0  0  0  0  0  0  0  0  0  0  0  0
  -17.3774  -25.8302  -11.8495 C   0  0  0  0  0  0  0  0  0  0  0  0
  -16.0971  -26.0156  -12.3818 C   0  0  0  0  0  0  0  0  0  0  0  0
  -14.7582  -25.9481  -11.8563 C   0  0  0  0  0  0  0  0  0  0  0  0
  -14.3210  -25.7248  -10.5034 C   0  0  0  0  0  0  0  0  0  0  0  0
  -13.0739  -24.9459  -10.2113 C   0  0  0  0  0  0  0  0  0  0  0  0
  -12.3112  -24.4492  -11.0023 O   0  0  0  0  0  0  0  0  0  0  0  0
  -12.9659  -24.8815   -8.8437 N   0  0  0  0  0  0  0  0  0  0  0  0
  -14.0044  -25.5462   -8.2292 C   0  0  0  0  0  0  0  0  0  0  0  0
  -14.1393  -25.6843   -7.0383 O   0  0  0  0  0  0  0  0  0  0  0  0
  -14.8724  -26.0775   -9.3183 C   0  0  0  0  0  0  0  0  0  0  0  0
  -16.0070  -26.9296   -9.0544 C   0  0  0  0  0  0  0  0  0  0  0  0
  -17.0710  -26.7617   -8.1022 C   0  0  0  0  0  0  0  0  0  0  0  0
  -17.3839  -25.7952   -7.1402 C   0  0  0  0  0  0  0  0  0  0  0  0
  -18.5531  -25.9261   -6.4167 C   0  0  0  0  0  0  0  0  0  0  0  0
  -19.4238  -27.0057   -6.6313 C   0  0  0  0  0  0  0  0  0  0  0  0
  -19.1455  -27.9701   -7.5804 C   0  0  0  0  0  0  0  0  0  0  0  0
  -17.9662  -27.8329   -8.3093 C   0  0  0  0  0  0  0  0  0  0  0  0
  -17.4597  -28.6224   -9.3114 N   0  0  0  0  0  0  0  0  0  0  0  0
  -16.3092  -28.0650   -9.7646 C   0  0  0  0  0  0  0  0  0  0  0  0
  -18.1604  -29.7076   -9.9651 C   0  0  0  0  0  0  0  0  0  0  0  0
  -20.7580  -29.6838  -13.2135 S   0  0  0  0  0  0  0  0  0  0  0  0
  -22.3844  -28.6626  -11.3586 N   0  0  0  0  0  0  0  0  0  0  0  0
  -21.4609  -27.2561  -14.0263 H   0  0  0  0  0  0  0  0  0  0  0  0
  -23.0844  -28.0064  -11.0478 H   0  0  0  0  0  0  0  0  0  0  0  0
  -22.5647  -29.6173  -11.0982 H   0  0  0  0  0  0  0  0  0  0  0  0
  -18.4764  -28.6383  -11.8035 H   0  0  0  0  0  0  0  0  0  0  0  0
  -19.7647  -28.4486  -10.6315 H   0  0  0  0  0  0  0  0  0  0  0  0
  -19.2015  -31.0489  -12.1436 H   0  0  0  0  0  0  0  0  0  0  0  0
  -20.5477  -30.7739  -11.0562 H   0  0  0  0  0  0  0  0  0  0  0  0
  -18.7248  -30.2642   -9.2152 H   0  0  0  0  0  0  0  0  0  0  0  0
  -17.4177  -30.3924  -10.3759 H   0  0  0  0  0  0  0  0  0  0  0  0
  -14.3916  -27.6318  -15.7134 H   0  0  0  0  0  0  0  0  0  0  0  0
  -14.4397  -25.9010  -16.0899 H   0  0  0  0  0  0  0  0  0  0  0  0
  -13.0105  -26.5995  -15.3224 H   0  0  0  0  0  0  0  0  0  0  0  0
  -12.8429  -26.1959  -12.9601 H   0  0  0  0  0  0  0  0  0  0  0  0
  -16.9537  -26.6100  -15.6627 H   0  0  0  0  0  0  0  0  0  0  0  0
  -19.1990  -26.3277  -14.6753 H   0  0  0  0  0  0  0  0  0  0  0  0
  -19.4694  -25.8181  -12.2807 H   0  0  0  0  0  0  0  0  0  0  0  0
  -17.5178  -25.6010  -10.8018 H   0  0  0  0  0  0  0  0  0  0  0  0
  -12.2133  -24.4210   -8.3531 H   0  0  0  0  0  0  0  0  0  0  0  0
  -15.7588  -28.5210  -10.5733 H   0  0  0  0  0  0  0  0  0  0  0  0
  -16.7272  -24.9538   -6.9669 H   0  0  0  0  0  0  0  0  0  0  0  0
  -18.8056  -25.1823   -5.6720 H   0  0  0  0  0  0  0  0  0  0  0  0
  -20.3328  -27.0799   -6.0490 H   0  0  0  0  0  0  0  0  0  0  0  0
  -19.8284  -28.7932   -7.7477 H   0  0  0  0  0  0  0  0  0  0  0  0
  -14.0950  -26.6413  -15.3689 C   0  0  0  0  0  0  0  0  0  0  0  0
  1  2  2  0
  1 31  1  0
  1 32  1  0
  3  4  1  0
  3 30  1  0
  4 31  1  0
 56  5  1  0
  5  6  1  0
  5  7  1  0
  6 13  2  0
  7  8  2  0
  7 12  1  0
  8  9  1  0
  9 10  2  0
 10 11  1  0
 11 12  2  0
 12 13  1  0
 13 14  1  0
 14 15  1  0
 14 20  2  0
 15 16  2  0
 15 17  1  0
 17 18  1  0
 18 19  2  0
 18 20  1  0
 20 21  1  0
 21 22  1  0
 21 29  2  0
 22 23  2  0
 22 27  1  0
 23 24  1  0
 24 25  2  0
 25 26  1  0
 26 27  2  0
 27 28  1  0
 28 29  1  0
 28 30  1  0
  2 33  1  0
 32 34  1  0
 32 35  1  0
  3 36  1  0
  3 37  1  0
  4 38  1  0
  4 39  1  0
 30 40  1  0
 30 41  1  0
 56 42  1  0
 56 43  1  0
 56 44  1  0
  6 45  1  0
  8 46  1  0
  9 47  1  0
 10 48  1  0
 11 49  1  0
 17 50  1  0
 29 51  1  0
 23 52  1  0
 24 53  1  0
 25 54  1  0
 26 55  1  0
M  END
