
     RDKit          3D

 13 12  0  0  0  0  0  0  0  0999 V2000
   -0.5248    1.1971   -1.7297 C   0  0  0  0  0  0  0  0  0  0  0  0
    0.1698    0.4703   -2.5905 O   0  0  0  0  0  0  0  0  0  0  0  0
   -1.4464    1.9076   -2.0346 O   0  0  0  0  0  0  0  0  0  0  0  0
   -0.8725    2.0260    0.8976 P   0  0  2  0  0  0  0  0  0  0  0  0
   -0.7893    3.9511    0.7318 S   0  0  0  0  0  0  0  0  0  0  0  0
   -0.0092    1.0140   -0.3283 C   0  0  0  0  0  0  0  0  0  0  0  0
   -2.3529    1.4041    0.8646 O   0  0  0  0  0  0  0  0  0  0  0  0
   -0.1788    1.4496    2.2299 O   0  0  0  0  0  0  0  0  0  0  0  0
   -0.1756    0.5949   -3.4879 H   0  0  0  0  0  0  0  0  0  0  0  0
    1.0540    1.2640   -0.2865 H   0  0  0  0  0  0  0  0  0  0  0  0
   -0.0873   -0.0398   -0.0418 H   0  0  0  0  0  0  0  0  0  0  0  0
   -3.0427    2.0475    1.0757 H   0  0  0  0  0  0  0  0  0  0  0  0
   -0.2151    2.0651    2.9748 H   0  0  0  0  0  0  0  0  0  0  0  0
  1  2  1  0
  1  3  2  0
  1  6  1  0
  2  9  1  0
  4  5  2  0
  4  6  1  0
  4  7  1  1
  4  8  1  0
  6 10  1  0
  6 11  1  0
  7 12  1  0
  8 13  1  0
M  END
