
     RDKit          3D

 57 61  0  0  0  0  0  0  0  0999 V2000
   -2.6404   -1.4518    1.3752 C   0  0  0  0  0  0  0  0  0  0  0  0
   -1.9529   -2.6501    1.2811 C   0  0  0  0  0  0  0  0  0  0  0  0
   -2.2067   -3.4902    0.2083 C   0  0  0  0  0  0  0  0  0  0  0  0
   -3.1321   -3.1418   -0.7622 C   0  0  0  0  0  0  0  0  0  0  0  0
   -3.8041   -1.9368   -0.6445 C   0  0  0  0  0  0  0  0  0  0  0  0
   -0.3431    1.0915   -0.6880 C   0  0  0  0  0  0  0  0  0  0  0  0
   -0.0174    1.3911   -2.0211 C   0  0  0  0  0  0  0  0  0  0  0  0
    1.2527    1.1424   -2.5019 C   0  0  0  0  0  0  0  0  0  0  0  0
    0.6029    0.5355    0.1640 C   0  0  0  0  0  0  0  0  0  0  0  0
    1.8740    0.2995   -0.3355 C   0  0  0  0  0  0  0  0  0  0  0  0
    2.2257    0.5904   -1.6660 C   0  0  0  0  0  0  0  0  0  0  0  0
    3.5899    0.2638   -1.9453 C   0  0  0  0  0  0  0  0  0  0  0  0
    4.2484   -0.2555   -0.8787 C   0  0  0  0  0  0  0  0  0  0  0  0
    6.3470   -1.0081   -1.9676 C   0  0  0  0  0  0  0  0  0  0  0  0
    7.6709   -1.4064   -1.9065 C   0  0  0  0  0  0  0  0  0  0  0  0
   -3.8727    1.4239   -0.1554 C   0  0  0  0  0  0  0  0  0  0  0  0
   -4.2719    0.2268    0.4938 C   0  0  0  0  0  0  0  0  0  0  0  0
   -5.3591    0.3946    1.1820 N   0  0  0  0  0  0  0  0  0  0  0  0
   -5.7074    1.6992    1.0070 O   0  0  0  0  0  0  0  0  0  0  0  0
   -4.8233    2.3167    0.2166 C   0  0  0  0  0  0  0  0  0  0  0  0
   -3.5808   -1.0700    0.4220 C   0  0  0  0  0  0  0  0  0  0  0  0
   -5.0337    3.7616   -0.0758 C   0  0  1  0  0  0  0  0  0  0  0  0
   -6.3951    4.0120   -0.7269 C   0  0  0  0  0  0  0  0  0  0  0  0
   -4.8504    4.6131    1.1826 C   0  0  0  0  0  0  0  0  0  0  0  0
   -4.9478   -1.4888   -1.8605 Cl  0  0  0  0  0  0  0  0  0  0  0  0
   -2.3142   -0.4025    2.7059 Cl  0  0  0  0  0  0  0  0  0  0  0  0
   -1.5527    1.3279   -0.1443 O   0  0  0  0  0  0  0  0  0  0  0  0
    3.2140   -0.3760    0.5286 S   0  0  0  0  0  0  0  0  0  0  0  0
    5.6414   -0.6906   -0.8025 C   0  0  0  0  0  0  0  0  0  0  0  0
    8.3207   -1.5101   -0.6850 C   0  0  0  0  0  0  0  0  0  0  0  0
    7.6294   -1.2051    0.4844 C   0  0  0  0  0  0  0  0  0  0  0  0
    6.3011   -0.7959    0.4193 C   0  0  0  0  0  0  0  0  0  0  0  0
    8.2616   -1.2948    1.8259 C   0  0  0  0  0  0  0  0  0  0  0  0
    9.5185   -1.7090    1.7787 O   0  0  0  0  0  0  0  0  0  0  0  0
    7.6912   -1.0226    2.8549 O   0  0  0  0  0  0  0  0  0  0  0  0
   -1.2295   -2.9244    2.0359 H   0  0  0  0  0  0  0  0  0  0  0  0
   -1.6758   -4.4288    0.1276 H   0  0  0  0  0  0  0  0  0  0  0  0
   -3.3267   -3.7988   -1.5982 H   0  0  0  0  0  0  0  0  0  0  0  0
   -0.7507    1.8303   -2.6840 H   0  0  0  0  0  0  0  0  0  0  0  0
    1.4933    1.3823   -3.5298 H   0  0  0  0  0  0  0  0  0  0  0  0
    0.3396    0.2984    1.1871 H   0  0  0  0  0  0  0  0  0  0  0  0
    4.0515    0.4363   -2.9080 H   0  0  0  0  0  0  0  0  0  0  0  0
    8.1995   -1.6465   -2.8190 H   0  0  0  0  0  0  0  0  0  0  0  0
   -4.2576    4.0422   -0.7925 H   0  0  0  0  0  0  0  0  0  0  0  0
   -7.2123    3.8019   -0.0358 H   0  0  0  0  0  0  0  0  0  0  0  0
   -6.4718    5.0581   -1.0226 H   0  0  0  0  0  0  0  0  0  0  0  0
   -6.5346    3.4000   -1.6179 H   0  0  0  0  0  0  0  0  0  0  0  0
   -4.9231    5.6696    0.9237 H   0  0  0  0  0  0  0  0  0  0  0  0
   -5.6205    4.3984    1.9240 H   0  0  0  0  0  0  0  0  0  0  0  0
   -3.8763    4.4462    1.6420 H   0  0  0  0  0  0  0  0  0  0  0  0
    9.3533   -1.8280   -0.6570 H   0  0  0  0  0  0  0  0  0  0  0  0
    5.7887   -0.5475    1.3406 H   0  0  0  0  0  0  0  0  0  0  0  0
    9.8845   -1.7587    2.6743 H   0  0  0  0  0  0  0  0  0  0  0  0
   -2.6605    1.5884   -0.9918 C   0  0  0  0  0  0  0  0  0  0  0  0
    5.8545   -0.9535   -2.9298 H   0  0  0  0  0  0  0  0  0  0  0  0
   -2.6751    0.8809   -1.8291 H   0  0  0  0  0  0  0  0  0  0  0  0
   -2.6090    2.5952   -1.4179 H   0  0  0  0  0  0  0  0  0  0  0  0
  2  1  2  0
  1 21  1  0
  1 26  1  0
  3  2  1  0
  2 36  1  0
  3  4  2  0
  3 37  1  0
  4  5  1  0
  4 38  1  0
  5 21  2  0
  5 25  1  0
 27  6  1  0
  6  7  2  0
  6  9  1  0
  7  8  1  0
  7 39  1  0
  8 11  2  0
  8 40  1  0
  9 10  2  0
  9 41  1  0
 10 11  1  0
 10 28  1  0
 11 12  1  0
 12 13  2  0
 12 42  1  0
 28 13  1  0
 13 29  1  0
 29 14  2  0
 14 15  1  0
 14 55  1  0
 15 30  2  0
 15 43  1  0
 16 54  1  0
 54 27  1  0
 54 56  1  0
 54 57  1  0
 17 16  1  0
 16 20  2  0
 18 17  2  0
 21 17  1  0
 18 19  1  0
 19 20  1  0
 20 22  1  0
 24 22  1  0
 22 23  1  0
 22 44  1  6
 23 45  1  0
 23 46  1  0
 23 47  1  0
 24 48  1  0
 24 49  1  0
 24 50  1  0
 29 32  1  0
 31 30  1  0
 30 51  1  0
 32 31  2  0
 31 33  1  0
 32 52  1  0
 35 33  2  0
 33 34  1  0
 34 53  1  0
M  END
