
     RDKit          3D

 45 47  0  0  0  0  0  0  0  0999 V2000
   -1.6481    0.0349   -0.7123 C   0  0  2  0  0  0  0  0  0  0  0  0
   -3.1652   -0.1846   -0.5818 C   0  0  2  0  0  0  0  0  0  0  0  0
   -3.5626   -0.0811    0.8112 N   0  0  0  0  0  0  0  0  0  0  0  0
   -4.9904    0.1000    0.9774 C   0  0  0  0  0  0  0  0  0  0  0  0
   -3.5268   -1.6341   -0.9956 C   0  0  0  0  0  0  0  0  0  0  0  0
   -3.4499   -2.4175    0.3308 C   0  0  0  0  0  0  0  0  0  0  0  0
   -3.0635   -1.3334    1.3658 C   0  0  1  0  0  0  0  0  0  0  0  0
   -1.5494   -1.1935    1.5201 C   0  0  0  0  0  0  0  0  0  0  0  0
   -0.9005   -0.9879    0.1638 C   0  0  2  0  0  0  0  0  0  0  0  0
    0.4592   -0.5670    0.3710 O   0  0  0  0  0  0  0  0  0  0  0  0
    1.6566   -1.0782   -0.5674 P   0  0  1  0  0  0  0  0  0  0  0  0
    1.8706   -2.5420   -0.6221 O   0  0  0  0  0  0  0  0  0  0  0  0
    1.3293   -0.5450   -2.0485 O   0  0  0  0  0  0  0  0  0  0  0  0
    3.0355   -0.1264    0.0667 C   0  0  0  0  0  0  0  0  0  0  0  0
    2.8736    1.1164    0.6780 C   0  0  0  0  0  0  0  0  0  0  0  0
    4.3166   -0.6478   -0.1089 C   0  0  0  0  0  0  0  0  0  0  0  0
    3.9842    1.8322    1.0989 C   0  0  0  0  0  0  0  0  0  0  0  0
    5.2593    1.3146    0.9117 C   0  0  0  0  0  0  0  0  0  0  0  0
    5.4242    0.0737    0.3111 C   0  0  0  0  0  0  0  0  0  0  0  0
   -1.2182    1.4452   -0.3733 C   0  0  0  0  0  0  0  0  0  0  0  0
   -1.5620    2.0937    0.5765 O   0  0  0  0  0  0  0  0  0  0  0  0
   -0.3583    1.9106   -1.2878 O   0  0  0  0  0  0  0  0  0  0  0  0
    0.1286    3.2445   -1.1159 C   0  0  0  0  0  0  0  0  0  0  0  0
   -1.3823   -0.1510   -1.7556 H   0  0  0  0  0  0  0  0  0  0  0  0
   -3.6846    0.5583   -1.1907 H   0  0  0  0  0  0  0  0  0  0  0  0
   -5.6136   -0.6943    0.5415 H   0  0  0  0  0  0  0  0  0  0  0  0
   -5.2283    0.1576    2.0402 H   0  0  0  0  0  0  0  0  0  0  0  0
   -5.2916    1.0426    0.5193 H   0  0  0  0  0  0  0  0  0  0  0  0
   -2.8619   -2.0267   -1.7669 H   0  0  0  0  0  0  0  0  0  0  0  0
   -4.5346   -1.6614   -1.4102 H   0  0  0  0  0  0  0  0  0  0  0  0
   -2.7298   -3.2369    0.2997 H   0  0  0  0  0  0  0  0  0  0  0  0
   -4.4148   -2.8582    0.5827 H   0  0  0  0  0  0  0  0  0  0  0  0
   -3.5054   -1.5191    2.3463 H   0  0  0  0  0  0  0  0  0  0  0  0
   -1.1280   -2.0861    1.9882 H   0  0  0  0  0  0  0  0  0  0  0  0
   -1.3404   -0.3443    2.1742 H   0  0  0  0  0  0  0  0  0  0  0  0
   -0.9009   -1.9417   -0.3732 H   0  0  0  0  0  0  0  0  0  0  0  0
    1.0739    0.3863   -2.1156 H   0  0  0  0  0  0  0  0  0  0  0  0
    1.8882    1.5278    0.8494 H   0  0  0  0  0  0  0  0  0  0  0  0
    4.4558   -1.6168   -0.5708 H   0  0  0  0  0  0  0  0  0  0  0  0
    3.8517    2.7935    1.5772 H   0  0  0  0  0  0  0  0  0  0  0  0
    6.1248    1.8766    1.2374 H   0  0  0  0  0  0  0  0  0  0  0  0
    6.4158   -0.3353    0.1713 H   0  0  0  0  0  0  0  0  0  0  0  0
   -0.6818    3.9689   -1.1860 H   0  0  0  0  0  0  0  0  0  0  0  0
    0.6372    3.3677   -0.1603 H   0  0  0  0  0  0  0  0  0  0  0  0
    0.8345    3.4106   -1.9239 H   0  0  0  0  0  0  0  0  0  0  0  0
  1  2  1  0
  1  9  1  0
  1 20  1  0
  1 24  1  6
  2  3  1  0
  2  5  1  0
  2 25  1  6
  3  4  1  0
  3  7  1  0
  4 26  1  0
  4 27  1  0
  4 28  1  0
  5  6  1  0
  5 29  1  0
  5 30  1  0
  6  7  1  0
  6 31  1  0
  6 32  1  0
  7  8  1  0
  7 33  1  1
  8  9  1  0
  8 34  1  0
  8 35  1  0
  9 10  1  0
  9 36  1  6
 11 10  1  1
 11 12  2  0
 11 13  1  0
 11 14  1  0
 13 37  1  0
 14 15  2  0
 14 16  1  0
 15 17  1  0
 15 38  1  0
 16 19  2  0
 16 39  1  0
 17 18  2  0
 17 40  1  0
 18 19  1  0
 18 41  1  0
 19 42  1  0
 20 21  2  0
 20 22  1  0
 22 23  1  0
 23 43  1  0
 23 44  1  0
 23 45  1  0
M  END
