
     RDKit          3D

 27 27  0  0  0  0  0  0  0  0999 V2000
    1.3814    1.1758    1.8824 N   0  0  0  0  0  0  0  0  0  0  0  0
    0.1920    0.3705    2.0495 C   0  0  2  0  0  0  0  0  0  0  0  0
    0.0342   -0.0747    3.4932 C   0  0  0  0  0  0  0  0  0  0  0  0
    0.8939   -0.4350    4.2987 O   0  0  0  0  0  0  0  0  0  0  0  0
    0.1071   -0.9037    1.1799 C   0  0  0  0  0  0  0  0  0  0  0  0
   -0.0622   -0.5669   -0.2575 C   0  0  0  0  0  0  0  0  0  0  0  0
   -1.3092   -0.1990   -0.7904 C   0  0  0  0  0  0  0  0  0  0  0  0
    1.0488   -0.6163   -1.1065 C   0  0  0  0  0  0  0  0  0  0  0  0
   -1.4469    0.1156   -2.1528 C   0  0  0  0  0  0  0  0  0  0  0  0
    0.9501   -0.3085   -2.4748 C   0  0  0  0  0  0  0  0  0  0  0  0
   -0.3290    0.0602   -2.9805 C   0  0  0  0  0  0  0  0  0  0  0  0
   -2.4696   -0.1154   -0.0556 O   0  0  0  0  0  0  0  0  0  0  0  0
    2.0652   -0.3572   -3.3313 N   0  0  0  0  0  0  0  0  0  0  0  0
   -0.5137    0.3781   -4.3127 O   0  0  0  0  0  0  0  0  0  0  0  0
   -1.2584   -0.0589    3.9189 O   0  0  0  0  0  0  0  0  0  0  0  0
    1.3350    1.6696    1.0118 H   0  0  0  0  0  0  0  0  0  0  0  0
    2.2083    0.6105    1.9085 H   0  0  0  0  0  0  0  0  0  0  0  0
   -0.6896    1.0349    1.7903 H   0  0  0  0  0  0  0  0  0  0  0  0
    1.0354   -1.5182    1.3274 H   0  0  0  0  0  0  0  0  0  0  0  0
   -0.7564   -1.5265    1.5404 H   0  0  0  0  0  0  0  0  0  0  0  0
    2.0242   -0.9055   -0.6828 H   0  0  0  0  0  0  0  0  0  0  0  0
   -2.4284    0.4021   -2.5584 H   0  0  0  0  0  0  0  0  0  0  0  0
   -2.5448    0.7791    0.3065 H   0  0  0  0  0  0  0  0  0  0  0  0
    2.0238    0.0811   -4.2292 H   0  0  0  0  0  0  0  0  0  0  0  0
    2.9011   -0.8260   -3.0527 H   0  0  0  0  0  0  0  0  0  0  0  0
   -0.2845   -0.4104   -4.8291 H   0  0  0  0  0  0  0  0  0  0  0  0
   -1.3017   -0.3513    4.8448 H   0  0  0  0  0  0  0  0  0  0  0  0
  1  2  1  0
  1 16  1  0
  1 17  1  0
  2  3  1  0
  2  5  1  0
  2 18  1  6
  3  4  2  0
  3 15  1  0
  5  6  1  0
  5 19  1  0
  5 20  1  0
  6  7  2  0
  6  8  1  0
  7  9  1  0
  7 12  1  0
  8 10  2  0
  8 21  1  0
  9 11  2  0
  9 22  1  0
 10 11  1  0
 10 13  1  0
 11 14  1  0
 12 23  1  0
 13 24  1  0
 13 25  1  0
 14 26  1  0
 15 27  1  0
M  END
