
     RDKit          3D

 81 84  0  0  0  0  0  0  0  0999 V2000
   -1.8382    3.5806   -0.6993 S   0  0  1  0  0  0  0  0  0  0  0  0
    3.5603    3.3153   -0.6373 Cl  0  0  0  0  0  0  0  0  0  0  0  0
   -0.3158    3.6259    0.1969 C   0  0  0  0  0  0  0  0  0  0  0  0
    3.3479    3.5375    3.6062 C   0  0  0  0  0  0  0  0  0  0  0  0
    3.2714    3.4606    2.1897 O   0  0  0  0  0  0  0  0  0  0  0  0
    2.0803    3.5293    1.6057 C   0  0  0  0  0  0  0  0  0  0  0  0
   -2.9008    3.8747    0.2444 O   0  0  0  0  0  0  0  0  0  0  0  0
   -1.7052    4.3599   -1.9185 O   0  0  0  0  0  0  0  0  0  0  0  0
   -0.3262    3.6771    1.5803 C   0  0  0  0  0  0  0  0  0  0  0  0
    0.8835    3.5357   -0.5038 C   0  0  0  0  0  0  0  0  0  0  0  0
    0.8677    3.6357    2.2817 C   0  0  0  0  0  0  0  0  0  0  0  0
    2.0633    3.4813    0.2013 C   0  0  0  0  0  0  0  0  0  0  0  0
   -0.3094    0.5632   -0.2412 C   0  0  0  0  0  0  0  0  0  0  0  0
   -2.0325    2.0122   -1.1931 N   0  0  0  0  0  0  0  0  0  0  0  0
   -6.2513    0.1081   -1.6208 C   0  0  0  0  0  0  0  0  0  0  0  0
   -7.0839   -0.8620   -0.8200 C   0  0  0  0  0  0  0  0  0  0  0  0
   -6.7382   -2.2082   -0.7331 C   0  0  0  0  0  0  0  0  0  0  0  0
   -7.5357   -3.0993   -0.0384 C   0  0  0  0  0  0  0  0  0  0  0  0
   -8.7001   -2.6443    0.5806 C   0  0  0  0  0  0  0  0  0  0  0  0
   -9.0563   -1.2985    0.5023 C   0  0  0  0  0  0  0  0  0  0  0  0
   -8.2456   -0.4199   -0.1937 C   0  0  0  0  0  0  0  0  0  0  0  0
   -9.5281   -3.5586    1.2970 C   0  0  0  0  0  0  0  0  0  0  0  0
  -10.1993   -4.2990    1.8713 N   0  0  0  0  0  0  0  0  0  0  0  0
   -1.7882    0.9547   -0.2242 C   0  0  1  0  0  0  0  0  0  0  0  0
   -2.6328   -0.2642   -0.5890 C   0  0  0  0  0  0  0  0  0  0  0  0
   -4.1042    0.0758   -0.4820 C   0  0  0  0  0  0  0  0  0  0  0  0
   -4.5808    0.5336    0.5438 O   0  0  0  0  0  0  0  0  0  0  0  0
   -4.8370   -0.1615   -1.5806 N   0  0  0  0  0  0  0  0  0  0  0  0
    0.2571    0.2155    0.9157 N   0  0  0  0  0  0  0  0  0  0  0  0
    1.6456   -0.1946    0.9332 C   0  0  2  0  0  0  0  0  0  0  0  0
    1.8152   -1.5095    0.1759 C   0  0  0  0  0  0  0  0  0  0  0  0
    0.9267   -2.3443    0.1402 O   0  0  0  0  0  0  0  0  0  0  0  0
    1.9401   -0.3576    2.4301 C   0  0  0  0  0  0  0  0  0  0  0  0
    0.5918   -0.7512    3.0221 C   0  0  0  0  0  0  0  0  0  0  0  0
   -0.4016    0.0729    2.2122 C   0  0  0  0  0  0  0  0  0  0  0  0
    3.0271   -1.6726   -0.3773 N   0  0  0  0  0  0  0  0  0  0  0  0
    3.4378   -2.8535   -1.1062 C   0  0  0  0  0  0  0  0  0  0  0  0
    4.8236   -3.2986   -0.7166 C   0  0  0  0  0  0  0  0  0  0  0  0
    5.1104   -3.7943    0.5636 C   0  0  0  0  0  0  0  0  0  0  0  0
    4.0414   -3.8830    1.6262 C   0  0  0  0  0  0  0  0  0  0  0  0
    4.3992   -4.7897    2.7006 N   0  0  0  0  0  0  0  0  0  0  0  0
    6.4139   -4.1885    0.8443 C   0  0  0  0  0  0  0  0  0  0  0  0
    7.4255   -4.1013   -0.1019 C   0  0  0  0  0  0  0  0  0  0  0  0
    7.1222   -3.6088   -1.3573 C   0  0  0  0  0  0  0  0  0  0  0  0
    8.3649   -3.4915   -2.5625 Cl  0  0  0  0  0  0  0  0  0  0  0  0
    5.8332   -3.2075   -1.6675 C   0  0  0  0  0  0  0  0  0  0  0  0
    2.9367    4.4769    3.9804 H   0  0  0  0  0  0  0  0  0  0  0  0
    2.8310    2.7024    4.0841 H   0  0  0  0  0  0  0  0  0  0  0  0
    4.4038    3.4865    3.8547 H   0  0  0  0  0  0  0  0  0  0  0  0
   -1.2541    3.7508    2.1302 H   0  0  0  0  0  0  0  0  0  0  0  0
    0.9049    3.4978   -1.5845 H   0  0  0  0  0  0  0  0  0  0  0  0
    0.8342    3.6797    3.3610 H   0  0  0  0  0  0  0  0  0  0  0  0
   -1.5731    1.8390   -2.0838 H   0  0  0  0  0  0  0  0  0  0  0  0
   -6.4496    1.1267   -1.2825 H   0  0  0  0  0  0  0  0  0  0  0  0
   -6.5598    0.0609   -2.6662 H   0  0  0  0  0  0  0  0  0  0  0  0
   -5.8356   -2.5695   -1.2085 H   0  0  0  0  0  0  0  0  0  0  0  0
   -7.2603   -4.1435    0.0226 H   0  0  0  0  0  0  0  0  0  0  0  0
   -9.9555   -0.9441    0.9875 H   0  0  0  0  0  0  0  0  0  0  0  0
   -8.5201    0.6264   -0.2449 H   0  0  0  0  0  0  0  0  0  0  0  0
   -2.1021    1.3094    0.7596 H   0  0  0  0  0  0  0  0  0  0  0  0
   -2.3611   -0.6180   -1.5853 H   0  0  0  0  0  0  0  0  0  0  0  0
   -2.4192   -1.0801    0.1073 H   0  0  0  0  0  0  0  0  0  0  0  0
   -4.3952   -0.5368   -2.4029 H   0  0  0  0  0  0  0  0  0  0  0  0
    2.2775    0.5785    0.4881 H   0  0  0  0  0  0  0  0  0  0  0  0
    2.7331   -1.0779    2.6292 H   0  0  0  0  0  0  0  0  0  0  0  0
    2.2692    0.6016    2.8335 H   0  0  0  0  0  0  0  0  0  0  0  0
    0.4060   -1.8159    2.8788 H   0  0  0  0  0  0  0  0  0  0  0  0
    0.5202   -0.5394    4.0875 H   0  0  0  0  0  0  0  0  0  0  0  0
   -0.5635    1.0544    2.6654 H   0  0  0  0  0  0  0  0  0  0  0  0
   -1.3679   -0.4242    2.1231 H   0  0  0  0  0  0  0  0  0  0  0  0
    3.6768   -0.9023   -0.3520 H   0  0  0  0  0  0  0  0  0  0  0  0
    2.7104   -3.6423   -0.9139 H   0  0  0  0  0  0  0  0  0  0  0  0
    3.4086   -2.6559   -2.1805 H   0  0  0  0  0  0  0  0  0  0  0  0
    3.9118   -2.8874    2.0612 H   0  0  0  0  0  0  0  0  0  0  0  0
    3.0792   -4.1278    1.1568 H   0  0  0  0  0  0  0  0  0  0  0  0
    3.7278   -4.6931    3.4507 H   0  0  0  0  0  0  0  0  0  0  0  0
    4.3238   -5.7465    2.3788 H   0  0  0  0  0  0  0  0  0  0  0  0
    6.6451   -4.5776    1.8264 H   0  0  0  0  0  0  0  0  0  0  0  0
    8.4314   -4.4140    0.1432 H   0  0  0  0  0  0  0  0  0  0  0  0
    5.6057   -2.8249   -2.6547 H   0  0  0  0  0  0  0  0  0  0  0  0
    0.3037    0.5626   -1.3006 O   0  0  0  0  0  0  0  0  0  0  0  0
  3  1  1  0
  3 10  2  0
  3  9  1  0
 45 44  1  0
 14 24  1  0
  1 14  1  6
  2 12  1  0
  7  1  2  0
 24 25  1  0
 24 13  1  0
 25 26  1  0
 13 81  2  0
 13 29  1  0
 29 30  1  0
 29 35  1  0
 30 33  1  0
 30 31  1  0
 33 34  1  0
 34 35  1  0
 31 32  2  0
 31 36  1  0
 36 37  1  0
 37 38  1  0
 38 39  2  0
 38 46  1  0
 39 42  1  0
 39 40  1  0
 42 43  2  0
 43 44  1  0
 44 46  2  0
 40 41  1  0
  1  8  2  0
 26 27  2  0
 26 28  1  0
 28 15  1  0
 15 16  1  0
 16 17  2  0
 16 21  1  0
 17 18  1  0
 18 19  2  0
 19 20  1  0
 19 22  1  0
 20 21  2  0
 22 23  3  0
 10 12  1  0
 12  6  2  0
  6  5  1  0
  6 11  1  0
  5  4  1  0
 11  9  2  0
 14 53  1  0
 24 60  1  1
 25 61  1  0
 25 62  1  0
 30 64  1  6
 33 65  1  0
 33 66  1  0
 34 67  1  0
 34 68  1  0
 35 69  1  0
 35 70  1  0
 36 71  1  0
 37 72  1  0
 37 73  1  0
 42 78  1  0
 43 79  1  0
 46 80  1  0
 40 74  1  0
 40 75  1  0
 41 76  1  0
 41 77  1  0
 28 63  1  0
 15 54  1  0
 15 55  1  0
 17 56  1  0
 18 57  1  0
 20 58  1  0
 21 59  1  0
 10 51  1  0
  4 47  1  0
  4 48  1  0
  4 49  1  0
 11 52  1  0
  9 50  1  0
M  END
