
     RDKit          3D

 25 24  0  0  0  0  0  0  0  0999 V2000
   -0.5913    0.6691   -0.4058 C   0  0  0  0  0  0  0  0  0  0  0  0
   -1.8419   -0.1069    0.0216 C   0  0  1  0  0  0  0  0  0  0  0  0
    0.6410    0.1816    0.1745 N   0  0  0  0  0  0  0  0  0  0  0  0
   -3.0444    0.5254   -0.6900 C   0  0  0  0  0  0  0  0  0  0  0  0
   -1.7379   -1.5773   -0.3845 C   0  0  0  0  0  0  0  0  0  0  0  0
    1.7961    0.9144   -0.3025 C   0  0  0  0  0  0  0  0  0  0  0  0
   -1.9725   -0.0491    1.4767 N   0  0  0  0  0  0  0  0  0  0  0  0
    3.2799   -0.9401   -0.1565 O   0  0  0  0  0  0  0  0  0  0  0  0
    3.0810    0.3850    0.2934 C   0  0  0  0  0  0  0  0  0  0  0  0
   -0.5606    0.6728   -1.5088 H   0  0  0  0  0  0  0  0  0  0  0  0
   -0.7163    1.7176   -0.1086 H   0  0  0  0  0  0  0  0  0  0  0  0
    0.7604   -0.7944   -0.0666 H   0  0  0  0  0  0  0  0  0  0  0  0
   -3.1317    1.5858   -0.4412 H   0  0  0  0  0  0  0  0  0  0  0  0
   -2.9714    0.4440   -1.7765 H   0  0  0  0  0  0  0  0  0  0  0  0
   -3.9702    0.0337   -0.3825 H   0  0  0  0  0  0  0  0  0  0  0  0
   -2.6695   -2.1033   -0.1634 H   0  0  0  0  0  0  0  0  0  0  0  0
   -1.5472   -1.6807   -1.4540 H   0  0  0  0  0  0  0  0  0  0  0  0
   -0.9428   -2.0903    0.1586 H   0  0  0  0  0  0  0  0  0  0  0  0
    1.8798    0.9175   -1.4028 H   0  0  0  0  0  0  0  0  0  0  0  0
    1.6962    1.9624   -0.0043 H   0  0  0  0  0  0  0  0  0  0  0  0
   -2.0373    0.9190    1.7726 H   0  0  0  0  0  0  0  0  0  0  0  0
   -2.8558   -0.4711    1.7423 H   0  0  0  0  0  0  0  0  0  0  0  0
    4.0219   -1.3159    0.3249 H   0  0  0  0  0  0  0  0  0  0  0  0
    3.9070    1.0412   -0.0097 H   0  0  0  0  0  0  0  0  0  0  0  0
    3.0135    0.4307    1.3874 H   0  0  0  0  0  0  0  0  0  0  0  0
  8  9  1  0
  4  2  1  0
  9  6  1  0
  3  6  1  0
  3  1  1  0
  2  7  1  1
  2  1  1  0
  2  5  1  0
  1 10  1  0
  1 11  1  0
  3 12  1  0
  4 13  1  0
  4 14  1  0
  4 15  1  0
  5 16  1  0
  5 17  1  0
  5 18  1  0
  6 19  1  0
  6 20  1  0
  7 21  1  0
  7 22  1  0
  8 23  1  0
  9 24  1  0
  9 25  1  0
M  END
