
     RDKit          3D

 36 38  0  0  0  0  0  0  0  0999 V2000
   -2.5432   -0.6722    0.1431 C   0  0  0  0  0  0  0  0  0  0  0  0
   -1.1825   -0.9465    0.2186 N   0  0  0  0  0  0  0  0  0  0  0  0
   -0.1307   -0.1111    0.1189 C   0  0  0  0  0  0  0  0  0  0  0  0
   -0.2055    1.1778   -0.0397 N   0  0  0  0  0  0  0  0  0  0  0  0
    1.0297    1.7370   -0.1002 C   0  0  0  0  0  0  0  0  0  0  0  0
    2.1082    0.8451   -0.0078 C   0  0  0  0  0  0  0  0  0  0  0  0
    1.4702   -0.7770    0.2024 S   0  0  0  0  0  0  0  0  0  0  0  0
    1.1285    3.0551   -0.2368 N   0  0  0  0  0  0  0  0  0  0  0  0
    3.4848    1.1927   -0.0279 C   0  0  0  0  0  0  0  0  0  0  0  0
    4.4979    0.0962   -0.0175 C   0  0  0  0  0  0  0  0  0  0  0  0
    4.4506   -0.9768   -0.9004 C   0  0  0  0  0  0  0  0  0  0  0  0
    5.4641   -1.9210   -0.8614 C   0  0  0  0  0  0  0  0  0  0  0  0
    6.4820   -1.7602    0.0655 C   0  0  0  0  0  0  0  0  0  0  0  0
    6.5419   -0.7373    0.9123 N   0  0  0  0  0  0  0  0  0  0  0  0
    5.5790    0.1706    0.8584 C   0  0  0  0  0  0  0  0  0  0  0  0
    3.8726    2.3641   -0.0426 O   0  0  0  0  0  0  0  0  0  0  0  0
   -3.0843    0.5944   -0.0897 C   0  0  0  0  0  0  0  0  0  0  0  0
   -4.4574    0.7455   -0.1571 C   0  0  0  0  0  0  0  0  0  0  0  0
   -5.3202   -0.3348    0.0045 C   0  0  0  0  0  0  0  0  0  0  0  0
   -4.7718   -1.5967    0.2404 C   0  0  0  0  0  0  0  0  0  0  0  0
   -3.4050   -1.7624    0.3078 C   0  0  0  0  0  0  0  0  0  0  0  0
   -6.7770   -0.1013   -0.0794 C   0  0  0  0  0  0  0  0  0  0  0  0
   -7.2775    0.9807   -0.2814 O   0  0  0  0  0  0  0  0  0  0  0  0
   -7.4906   -1.2069    0.0925 O   0  0  0  0  0  0  0  0  0  0  0  0
   -0.9595   -1.9200    0.3674 H   0  0  0  0  0  0  0  0  0  0  0  0
    0.3008    3.6112   -0.3636 H   0  0  0  0  0  0  0  0  0  0  0  0
    2.0341    3.4884   -0.2983 H   0  0  0  0  0  0  0  0  0  0  0  0
    3.6543   -1.0655   -1.6292 H   0  0  0  0  0  0  0  0  0  0  0  0
    5.4701   -2.7630   -1.5391 H   0  0  0  0  0  0  0  0  0  0  0  0
    7.2861   -2.4848    0.1236 H   0  0  0  0  0  0  0  0  0  0  0  0
    5.6546    0.9981    1.5555 H   0  0  0  0  0  0  0  0  0  0  0  0
   -2.4443    1.4518   -0.2172 H   0  0  0  0  0  0  0  0  0  0  0  0
   -4.8595    1.7325   -0.3420 H   0  0  0  0  0  0  0  0  0  0  0  0
   -5.4037   -2.4633    0.3748 H   0  0  0  0  0  0  0  0  0  0  0  0
   -2.9970   -2.7488    0.4927 H   0  0  0  0  0  0  0  0  0  0  0  0
   -8.4353   -1.0023    0.0316 H   0  0  0  0  0  0  0  0  0  0  0  0
  2  1  1  0
  1 17  2  0
  1 21  1  0
  3  2  1  0
  2 25  1  0
  4  3  2  0
  3  7  1  0
  5  4  1  0
  8  5  1  0
  5  6  2  0
  9  6  1  0
  6  7  1  0
  8 26  1  0
  8 27  1  0
 16  9  2  0
  9 10  1  0
 10 15  1  0
 10 11  2  0
 11 12  1  0
 11 28  1  0
 12 13  2  0
 12 29  1  0
 14 13  1  0
 13 30  1  0
 15 14  2  0
 15 31  1  0
 17 18  1  0
 17 32  1  0
 18 19  2  0
 18 33  1  0
 20 19  1  0
 19 22  1  0
 21 20  2  0
 20 34  1  0
 21 35  1  0
 22 23  2  0
 22 24  1  0
 24 36  1  0
M  END
