
     RDKit          3D

 67 71  0  0  0  0  0  0  0  0999 V2000
    1.3079    1.0623   -0.8430 C   0  0  0  0  0  0  0  0  0  0  0  0
   -0.9074   -0.9567   -0.8703 N   0  0  0  0  0  0  0  0  0  0  0  0
   -1.7556   -1.9034    1.2774 O   0  0  0  0  0  0  0  0  0  0  0  0
   -0.6440   -2.0312    0.3508 S   0  0  1  0  0  0  0  0  0  0  0  0
    1.2879   -0.0838   -1.6803 C   0  0  0  0  0  0  0  0  0  0  0  0
    0.1558    1.6115   -0.3402 N   0  0  0  0  0  0  0  0  0  0  0  0
   -0.3520   -3.3177   -0.2625 O   0  0  0  0  0  0  0  0  0  0  0  0
    2.4711   -0.5569   -2.2102 C   0  0  0  0  0  0  0  0  0  0  0  0
   -2.8765    3.2137    2.5399 N   0  0  0  0  0  0  0  0  0  0  0  0
    3.7005    0.0341   -1.9199 C   0  0  0  0  0  0  0  0  0  0  0  0
   -1.7609    4.1605    0.8910 N   0  0  0  0  0  0  0  0  0  0  0  0
    3.7335    1.1190   -1.0483 C   0  0  0  0  0  0  0  0  0  0  0  0
    5.8754   -0.9199   -2.9142 N   0  0  0  0  0  0  0  0  0  0  0  0
    2.5624    1.6171   -0.5236 C   0  0  0  0  0  0  0  0  0  0  0  0
    0.0398   -0.9011   -1.9653 C   0  0  0  0  0  0  0  0  0  0  0  0
   -1.8141    0.1749   -0.7280 C   0  0  1  0  0  0  0  0  0  0  0  0
   -1.0759    1.4596   -1.0870 C   0  0  0  0  0  0  0  0  0  0  0  0
    0.2685    2.6835    0.6478 C   0  0  0  0  0  0  0  0  0  0  0  0
   -1.0248    3.0657    1.2752 C   0  0  0  0  0  0  0  0  0  0  0  0
   -1.7400    2.5039    2.2990 C   0  0  0  0  0  0  0  0  0  0  0  0
   -2.8537    4.1994    1.6788 C   0  0  0  0  0  0  0  0  0  0  0  0
   -3.0601   -0.0063   -1.6027 C   0  0  0  0  0  0  0  0  0  0  0  0
   -5.2678   -3.4841   -0.3825 C   0  0  0  0  0  0  0  0  0  0  0  0
   -5.5385   -2.2468    0.1882 C   0  0  0  0  0  0  0  0  0  0  0  0
   -4.8365   -1.1234   -0.2235 C   0  0  0  0  0  0  0  0  0  0  0  0
   -3.8562   -1.2142   -1.2084 C   0  0  0  0  0  0  0  0  0  0  0  0
   -3.5955   -2.4580   -1.7754 C   0  0  0  0  0  0  0  0  0  0  0  0
   -4.2951   -3.5857   -1.3676 C   0  0  0  0  0  0  0  0  0  0  0  0
    3.1455   -0.4374    2.2571 C   0  0  0  0  0  0  0  0  0  0  0  0
    1.8934   -0.0064    2.7094 C   0  0  0  0  0  0  0  0  0  0  0  0
    0.7415   -0.5288    2.1626 C   0  0  0  0  0  0  0  0  0  0  0  0
    0.8238   -1.4966    1.1665 C   0  0  0  0  0  0  0  0  0  0  0  0
    2.0607   -1.9547    0.7410 C   0  0  0  0  0  0  0  0  0  0  0  0
    3.2221   -1.4326    1.2838 C   0  0  0  0  0  0  0  0  0  0  0  0
    5.5030   -0.2197    2.3716 C   0  0  0  0  0  0  0  0  0  0  0  0
    4.8999   -0.4924   -2.4695 C   0  0  0  0  0  0  0  0  0  0  0  0
    2.4441   -1.4369   -2.8420 H   0  0  0  0  0  0  0  0  0  0  0  0
    4.6751    1.5852   -0.7893 H   0  0  0  0  0  0  0  0  0  0  0  0
    2.6377    2.4695    0.1335 H   0  0  0  0  0  0  0  0  0  0  0  0
    0.3393   -1.9133   -2.2345 H   0  0  0  0  0  0  0  0  0  0  0  0
   -0.4913   -0.5246   -2.8422 H   0  0  0  0  0  0  0  0  0  0  0  0
   -2.1258    0.2476    0.3147 H   0  0  0  0  0  0  0  0  0  0  0  0
   -1.7447    2.2943   -0.8859 H   0  0  0  0  0  0  0  0  0  0  0  0
   -0.8755    1.5133   -2.1611 H   0  0  0  0  0  0  0  0  0  0  0  0
    0.9397    2.3467    1.4401 H   0  0  0  0  0  0  0  0  0  0  0  0
    0.7362    3.5728    0.2080 H   0  0  0  0  0  0  0  0  0  0  0  0
   -1.4834    1.6287    2.8768 H   0  0  0  0  0  0  0  0  0  0  0  0
   -3.5980    4.9753    1.5803 H   0  0  0  0  0  0  0  0  0  0  0  0
   -1.3088    4.6387   -1.1023 H   0  0  0  0  0  0  0  0  0  0  0  0
   -2.2117    5.8597   -0.2044 H   0  0  0  0  0  0  0  0  0  0  0  0
   -0.4886    5.6330    0.1116 H   0  0  0  0  0  0  0  0  0  0  0  0
   -3.6726    0.8947   -1.5137 H   0  0  0  0  0  0  0  0  0  0  0  0
   -2.7573   -0.0728   -2.6518 H   0  0  0  0  0  0  0  0  0  0  0  0
   -5.8171   -4.3618   -0.0659 H   0  0  0  0  0  0  0  0  0  0  0  0
   -6.2990   -2.1576    0.9534 H   0  0  0  0  0  0  0  0  0  0  0  0
   -5.0532   -0.1615    0.2280 H   0  0  0  0  0  0  0  0  0  0  0  0
   -2.8452   -2.5459   -2.5517 H   0  0  0  0  0  0  0  0  0  0  0  0
   -4.0819   -4.5452   -1.8219 H   0  0  0  0  0  0  0  0  0  0  0  0
    1.8363    0.7477    3.4839 H   0  0  0  0  0  0  0  0  0  0  0  0
   -0.2201   -0.1829    2.5150 H   0  0  0  0  0  0  0  0  0  0  0  0
    2.1380   -2.7206   -0.0182 H   0  0  0  0  0  0  0  0  0  0  0  0
    4.1712   -1.8010    0.9219 H   0  0  0  0  0  0  0  0  0  0  0  0
    5.6325   -0.0379    1.3020 H   0  0  0  0  0  0  0  0  0  0  0  0
    6.2066    0.3999    2.9206 H   0  0  0  0  0  0  0  0  0  0  0  0
    5.7168   -1.2699    2.5820 H   0  0  0  0  0  0  0  0  0  0  0  0
   -1.4175    5.1218   -0.1330 C   0  0  0  0  0  0  0  0  0  0  0  0
    4.2096    0.1530    2.8128 O   0  0  0  0  0  0  0  0  0  0  0  0
  6  1  1  0
  1  5  1  0
  1 14  2  0
 16  2  1  0
 15  2  1  0
  2  4  1  0
  4  3  2  0
  7  4  2  0
  4 32  1  1
 15  5  1  0
  5  8  2  0
 17  6  1  0
  6 18  1  0
  8 10  1  0
  8 37  1  0
  9 21  2  0
  9 20  1  0
 29 67  1  0
 35 67  1  0
 12 10  2  0
 10 36  1  0
 21 11  1  0
 11 19  1  0
 11 66  1  0
 14 12  1  0
 12 38  1  0
 36 13  3  0
 14 39  1  0
 15 40  1  0
 15 41  1  0
 22 16  1  0
 17 16  1  0
 16 42  1  1
 17 43  1  0
 17 44  1  0
 19 18  1  0
 18 45  1  0
 18 46  1  0
 20 19  2  0
 20 47  1  0
 21 48  1  0
 66 49  1  0
 66 50  1  0
 66 51  1  0
 26 22  1  0
 22 52  1  0
 22 53  1  0
 28 23  2  0
 23 24  1  0
 23 54  1  0
 24 25  2  0
 24 55  1  0
 26 25  1  0
 25 56  1  0
 27 26  2  0
 28 27  1  0
 27 57  1  0
 28 58  1  0
 34 29  2  0
 30 29  1  0
 31 30  2  0
 30 59  1  0
 32 31  1  0
 31 60  1  0
 32 33  2  0
 33 34  1  0
 33 61  1  0
 34 62  1  0
 35 63  1  0
 35 64  1  0
 35 65  1  0
M  END
