
     RDKit          3D

 23 23  0  0  0  0  0  0  0  0999 V2000
   -0.7235    0.3286   -1.2756 C   0  0  1  0  0  0  0  0  0  0  0  0
   -1.4719   -0.1300   -0.0297 C   0  0  0  0  0  0  0  0  0  0  0  0
   -0.7832    0.3340    1.2476 C   0  0  1  0  0  0  0  0  0  0  0  0
   -1.5024   -0.1722    2.4093 N   0  0  0  0  0  0  0  0  0  0  0  0
    0.6577   -0.1635    1.2768 C   0  0  0  0  0  0  0  0  0  0  0  0
    1.4315    0.2964    0.0469 C   0  0  1  0  0  0  0  0  0  0  0  0
    2.7488   -0.2206    0.0250 O   0  0  0  0  0  0  0  0  0  0  0  0
    0.7301   -0.1492   -1.2260 C   0  0  0  0  0  0  0  0  0  0  0  0
   -1.4445   -0.0919   -2.4694 N   0  0  0  0  0  0  0  0  0  0  0  0
   -0.7219    1.4255   -1.2815 H   0  0  0  0  0  0  0  0  0  0  0  0
   -1.5328   -1.2255   -0.0218 H   0  0  0  0  0  0  0  0  0  0  0  0
   -2.4983    0.2474   -0.0629 H   0  0  0  0  0  0  0  0  0  0  0  0
   -0.7576    1.4367    1.2268 H   0  0  0  0  0  0  0  0  0  0  0  0
   -1.0788    0.1973    3.2521 H   0  0  0  0  0  0  0  0  0  0  0  0
   -2.4475    0.1929    2.4011 H   0  0  0  0  0  0  0  0  0  0  0  0
    1.1557    0.1974    2.1846 H   0  0  0  0  0  0  0  0  0  0  0  0
    0.6592   -1.2585    1.3222 H   0  0  0  0  0  0  0  0  0  0  0  0
    1.4596    1.3977    0.0533 H   0  0  0  0  0  0  0  0  0  0  0  0
    3.2060    0.0947    0.8108 H   0  0  0  0  0  0  0  0  0  0  0  0
    0.7471   -1.2450   -1.2835 H   0  0  0  0  0  0  0  0  0  0  0  0
    1.2701    0.2278   -2.1004 H   0  0  0  0  0  0  0  0  0  0  0  0
   -0.9724    0.2685   -3.2901 H   0  0  0  0  0  0  0  0  0  0  0  0
   -1.3944   -1.1018   -2.5505 H   0  0  0  0  0  0  0  0  0  0  0  0
  1  2  1  0
  1  8  1  0
  1  9  1  0
  1 10  1  1
  2  3  1  0
  2 11  1  0
  2 12  1  0
  3  4  1  0
  3  5  1  0
  3 13  1  1
  4 14  1  0
  4 15  1  0
  5  6  1  0
  5 16  1  0
  5 17  1  0
  6  7  1  0
  6  8  1  0
  6 18  1  6
  7 19  1  0
  8 20  1  0
  8 21  1  0
  9 22  1  0
  9 23  1  0
M  END
