
     RDKit          3D

 56 61  0  0  0  0  0  0  0  0999 V2000
   -3.5502    0.3278   -0.4235 C   0  0  0  0  0  0  0  0  0  0  0  0
   -4.6668   -0.2981   -0.9738 C   0  0  0  0  0  0  0  0  0  0  0  0
   -5.9023    0.2121   -1.2549 N   0  0  0  0  0  0  0  0  0  0  0  0
   -6.3053    1.5805   -1.0462 C   0  0  0  0  0  0  0  0  0  0  0  0
   -6.6727   -0.7833   -1.7887 C   0  0  0  0  0  0  0  0  0  0  0  0
   -5.9628   -1.9480   -1.8590 C   0  0  0  0  0  0  0  0  0  0  0  0
   -4.6658   -1.6626   -1.3376 C   0  0  0  0  0  0  0  0  0  0  0  0
   -3.4992   -2.4098   -1.1341 C   0  0  0  0  0  0  0  0  0  0  0  0
   -2.3968   -1.7996   -0.5763 C   0  0  0  0  0  0  0  0  0  0  0  0
   -2.4112   -0.4345   -0.2183 C   0  0  0  0  0  0  0  0  0  0  0  0
   -1.1998    0.1994    0.3407 C   0  0  0  0  0  0  0  0  0  0  0  0
   -0.6474    1.2947   -0.2684 C   0  0  0  0  0  0  0  0  0  0  0  0
   -0.5693   -0.3285    1.5054 C   0  0  0  0  0  0  0  0  0  0  0  0
   -1.1006   -1.3910    2.1394 N   0  0  0  0  0  0  0  0  0  0  0  0
   -0.4906   -1.8243    3.2087 C   0  0  0  0  0  0  0  0  0  0  0  0
    0.6792   -1.2051    3.6993 C   0  0  0  0  0  0  0  0  0  0  0  0
    1.2136   -0.1689    3.1160 N   0  0  0  0  0  0  0  0  0  0  0  0
    0.6037    0.2968    1.9995 C   0  0  0  0  0  0  0  0  0  0  0  0
    1.1460    1.4151    1.3451 C   0  0  0  0  0  0  0  0  0  0  0  0
    0.5415    1.9029    0.2084 C   0  0  0  0  0  0  0  0  0  0  0  0
    1.0826    2.9597   -0.4966 N   0  0  0  0  0  0  0  0  0  0  0  0
    2.4568    3.1428   -0.6605 C   0  0  0  0  0  0  0  0  0  0  0  0
    2.9976    4.4247   -0.5894 C   0  0  0  0  0  0  0  0  0  0  0  0
    4.2855    4.6912   -0.7422 N   0  0  0  0  0  0  0  0  0  0  0  0
    5.1175    3.6773   -0.9381 C   0  0  0  0  0  0  0  0  0  0  0  0
    4.6921    2.3595   -1.0215 C   0  0  0  0  0  0  0  0  0  0  0  0
    3.3383    2.0844   -0.9081 C   0  0  0  0  0  0  0  0  0  0  0  0
    2.8015    0.7106   -1.1654 C   0  0  0  0  0  0  0  0  0  0  0  0
    2.0366    0.5069   -2.0840 O   0  0  0  0  0  0  0  0  0  0  0  0
    3.2284   -0.2390   -0.2951 N   0  0  0  0  0  0  0  0  0  0  0  0
    2.6497   -1.4880   -0.0914 C   0  0  0  0  0  0  0  0  0  0  0  0
    1.7617   -2.1306   -0.9527 C   0  0  0  0  0  0  0  0  0  0  0  0
    1.2133   -3.2954   -0.6282 N   0  0  0  0  0  0  0  0  0  0  0  0
    1.5471   -3.8366    0.5290 C   0  0  0  0  0  0  0  0  0  0  0  0
    2.3997   -3.3238    1.4045 N   0  0  0  0  0  0  0  0  0  0  0  0
    2.9396   -2.1605    1.0956 C   0  0  0  0  0  0  0  0  0  0  0  0
   -3.5689    1.3749   -0.1451 H   0  0  0  0  0  0  0  0  0  0  0  0
   -5.7448    2.2598   -1.6886 H   0  0  0  0  0  0  0  0  0  0  0  0
   -7.3624    1.6809   -1.2766 H   0  0  0  0  0  0  0  0  0  0  0  0
   -6.1509    1.8752   -0.0085 H   0  0  0  0  0  0  0  0  0  0  0  0
   -7.6913   -0.5805   -2.0812 H   0  0  0  0  0  0  0  0  0  0  0  0
   -6.3259   -2.8922   -2.2320 H   0  0  0  0  0  0  0  0  0  0  0  0
   -3.4584   -3.4561   -1.4108 H   0  0  0  0  0  0  0  0  0  0  0  0
   -1.4922   -2.3752   -0.4279 H   0  0  0  0  0  0  0  0  0  0  0  0
   -1.0990    1.6801   -1.1751 H   0  0  0  0  0  0  0  0  0  0  0  0
   -0.9116   -2.6793    3.7248 H   0  0  0  0  0  0  0  0  0  0  0  0
    1.1615   -1.5886    4.5913 H   0  0  0  0  0  0  0  0  0  0  0  0
    2.0394    1.8721    1.7532 H   0  0  0  0  0  0  0  0  0  0  0  0
    0.4832    3.4306   -1.1565 H   0  0  0  0  0  0  0  0  0  0  0  0
    2.3363    5.2649   -0.4035 H   0  0  0  0  0  0  0  0  0  0  0  0
    6.1693    3.9162   -1.0400 H   0  0  0  0  0  0  0  0  0  0  0  0
    5.4090    1.5709   -1.2106 H   0  0  0  0  0  0  0  0  0  0  0  0
    3.8496    0.0697    0.4401 H   0  0  0  0  0  0  0  0  0  0  0  0
    1.4821   -1.7102   -1.9059 H   0  0  0  0  0  0  0  0  0  0  0  0
    1.0882   -4.7844    0.7846 H   0  0  0  0  0  0  0  0  0  0  0  0
    3.6286   -1.7272    1.8147 H   0  0  0  0  0  0  0  0  0  0  0  0
 25 24  1  0
 25 26  2  0
 24 23  2  0
 23 22  1  0
 26 27  1  0
 22 27  2  0
 22 21  1  0
 27 28  1  0
 21 20  1  0
 30 28  1  0
 30 31  1  0
 28 29  2  0
 19 20  1  0
 19 18  2  0
 17 18  1  0
 17 16  2  0
 20 12  2  0
 18 13  1  0
 16 15  1  0
 12 11  1  0
 31 32  2  0
 31 36  1  0
 13 11  2  0
 13 14  1  0
 15 14  2  0
 11 10  1  0
  9 10  1  0
  9  8  2  0
 32 33  1  0
 36 35  2  0
 10  1  2  0
  8  7  1  0
 33 34  2  0
 35 34  1  0
  1  2  1  0
  7  2  2  0
  7  6  1  0
  2  3  1  0
  6  5  2  0
  3  5  1  0
  3  4  1  0
  1 37  1  0
  4 38  1  0
  4 39  1  0
  4 40  1  0
  5 41  1  0
  6 42  1  0
  8 43  1  0
  9 44  1  0
 12 45  1  0
 15 46  1  0
 16 47  1  0
 19 48  1  0
 21 49  1  0
 23 50  1  0
 25 51  1  0
 26 52  1  0
 30 53  1  0
 32 54  1  0
 34 55  1  0
 36 56  1  0
M  END
