
     RDKit          3D

 24 23  0  0  0  0  0  0  0  0999 V2000
    2.7599    1.6833    0.3284 N   0  0  0  0  0  0  0  0  0  0  0  0
    2.2812    0.3241    0.4598 C   0  0  2  0  0  0  0  0  0  0  0  0
    3.3482   -0.6543   -0.0067 C   0  0  0  0  0  0  0  0  0  0  0  0
    4.0702   -0.5172   -1.0200 O   0  0  0  0  0  0  0  0  0  0  0  0
    0.9922   -0.0325   -0.3016 C   0  0  0  0  0  0  0  0  0  0  0  0
   -0.2255    0.5906    0.3429 C   0  0  0  0  0  0  0  0  0  0  0  0
   -1.4961    0.0888   -0.3121 C   0  0  0  0  0  0  0  0  0  0  0  0
   -2.7135    0.7265    0.3511 C   0  0  0  0  0  0  0  0  0  0  0  0
    3.4112   -1.7208    0.8462 O   0  0  0  0  0  0  0  0  0  0  0  0
   -4.0008    0.4680   -0.2595 N   0  0  0  0  0  0  0  0  0  0  0  0
   -4.4549   -0.6944   -0.3833 N   0  0  0  0  0  0  0  0  0  0  0  0
   -5.0325   -1.6477   -0.6022 N   0  0  0  0  0  0  0  0  0  0  0  0
    2.6185    2.0292   -0.6013 H   0  0  0  0  0  0  0  0  0  0  0  0
    2.2926    2.2772    0.9849 H   0  0  0  0  0  0  0  0  0  0  0  0
    2.1019    0.1439    1.5639 H   0  0  0  0  0  0  0  0  0  0  0  0
    4.4443   -1.8873   -0.2870 H   0  0  0  0  0  0  0  0  0  0  0  0
    1.0745    0.3003   -1.3689 H   0  0  0  0  0  0  0  0  0  0  0  0
    0.8851   -1.1493   -0.3031 H   0  0  0  0  0  0  0  0  0  0  0  0
   -0.2425    0.3445    1.4374 H   0  0  0  0  0  0  0  0  0  0  0  0
   -0.1816    1.7082    0.2534 H   0  0  0  0  0  0  0  0  0  0  0  0
   -1.4780    0.3370   -1.4061 H   0  0  0  0  0  0  0  0  0  0  0  0
   -1.5478   -1.0273   -0.2216 H   0  0  0  0  0  0  0  0  0  0  0  0
   -2.7122    0.4526    1.4464 H   0  0  0  0  0  0  0  0  0  0  0  0
   -2.6365    1.8504    0.2769 H   0  0  0  0  0  0  0  0  0  0  0  0
  1  2  1  0
  1 13  1  0
  1 14  1  0
  2  5  1  0
  2  3  1  0
  2 15  1  1
  3  9  2  0
  3  4  1  0
  4 16  1  0
  5 17  1  0
  5 18  1  0
  6  5  1  0
  6  7  1  0
  6 19  1  0
  6 20  1  0
  7 21  1  0
  7 22  1  0
  8  7  1  0
  8 10  1  0
  8 23  1  0
  8 24  1  0
 10 11  2  0
 11 12  2  0
M  CHG  2  11   1  12  -1
M  END
