
     RDKit          3D

 17 17  0  0  0  0  0  0  0  0999 V2000
   -2.6251   -0.5912    0.0030 C   0  0  0  0  0  0  0  0  0  0  0  0
    1.1220   -0.2623   -0.0004 C   0  0  0  0  0  0  0  0  0  0  0  0
   -1.2404   -0.0196    0.0066 C   0  0  0  0  0  0  0  0  0  0  0  0
    0.2153    1.9324    0.0208 C   0  0  0  0  0  0  0  0  0  0  0  0
   -0.0803   -0.8574   -0.0043 C   0  0  0  0  0  0  0  0  0  0  0  0
   -1.0987    1.3220    0.0204 C   0  0  0  0  0  0  0  0  0  0  0  0
   -2.6140   -1.9067   -0.0647 O   0  0  0  0  0  0  0  0  0  0  0  0
   -3.6147    0.0894    0.0553 O   0  0  0  0  0  0  0  0  0  0  0  0
    0.4528    3.1103    0.0294 O   0  0  0  0  0  0  0  0  0  0  0  0
    1.2698    1.0684    0.0104 O   0  0  0  0  0  0  0  0  0  0  0  0
    3.4527   -0.2567   -0.0101 O   0  0  0  0  0  0  0  0  0  0  0  0
    2.4071   -2.2397   -0.0155 O   0  0  0  0  0  0  0  0  0  0  0  0
   -0.1463   -1.9337   -0.0132 H   0  0  0  0  0  0  0  0  0  0  0  0
   -1.9480    1.9903    0.0291 H   0  0  0  0  0  0  0  0  0  0  0  0
   -3.5183   -2.2577   -0.0687 H   0  0  0  0  0  0  0  0  0  0  0  0
    4.2633   -0.7894   -0.0174 H   0  0  0  0  0  0  0  0  0  0  0  0
    2.3942   -1.0368   -0.0092 C   0  0  0  0  0  0  0  0  0  0  0  0
 12 17  2  0
  8  1  2  0
 17 11  1  0
 17  2  1  0
  5  2  2  0
  5  3  1  0
  1  7  1  0
  1  3  1  0
  2 10  1  0
  3  6  2  0
 10  4  1  0
  6  4  1  0
  4  9  2  0
  5 13  1  0
  6 14  1  0
  7 15  1  0
 11 16  1  0
M  END
