
     RDKit          3D

 26 25  0  0  0  0  0  0  0  0999 V2000
   -4.6238    0.5567    0.4202 C   0  0  0  0  0  0  0  0  0  0  0  0
   -3.4806   -0.2770   -0.1107 C   0  0  0  0  0  0  0  0  0  0  0  0
   -3.6478   -1.3738   -0.7419 N   0  0  0  0  0  0  0  0  0  0  0  0
   -2.2726    0.2495    0.1535 N   0  0  0  0  0  0  0  0  0  0  0  0
   -1.0415   -0.3702   -0.2731 C   0  0  0  0  0  0  0  0  0  0  0  0
    0.1546    0.3868    0.2795 C   0  0  0  0  0  0  0  0  0  0  0  0
    1.4701   -0.2534   -0.1372 C   0  0  0  0  0  0  0  0  0  0  0  0
    2.6856    0.5509    0.3460 C   0  0  1  0  0  0  0  0  0  0  0  0
    3.9532   -0.2568    0.0989 C   0  0  0  0  0  0  0  0  0  0  0  0
    4.7582   -0.0194   -0.7666 O   0  0  0  0  0  0  0  0  0  0  0  0
    4.0700   -1.2740    0.9454 O   0  0  0  0  0  0  0  0  0  0  0  0
    2.7044    1.8555   -0.2703 N   0  0  0  0  0  0  0  0  0  0  0  0
   -5.7706    0.2311    0.2767 O   0  0  0  0  0  0  0  0  0  0  0  0
    4.8703   -1.7837    0.7488 H   0  0  0  0  0  0  0  0  0  0  0  0
    2.5937    0.6846    1.4289 H   0  0  0  0  0  0  0  0  0  0  0  0
    3.4573    2.4158    0.1080 H   0  0  0  0  0  0  0  0  0  0  0  0
    2.8858    1.7687   -1.2628 H   0  0  0  0  0  0  0  0  0  0  0  0
    1.5200   -1.2712    0.2555 H   0  0  0  0  0  0  0  0  0  0  0  0
    1.5174   -0.3393   -1.2282 H   0  0  0  0  0  0  0  0  0  0  0  0
    0.1255    1.4226   -0.0650 H   0  0  0  0  0  0  0  0  0  0  0  0
    0.0938    0.4130    1.3717 H   0  0  0  0  0  0  0  0  0  0  0  0
   -1.0244   -1.4107    0.0651 H   0  0  0  0  0  0  0  0  0  0  0  0
   -0.9952   -0.4010   -1.3677 H   0  0  0  0  0  0  0  0  0  0  0  0
   -4.6387   -1.5839   -0.8075 H   0  0  0  0  0  0  0  0  0  0  0  0
   -4.3462    1.4849    0.9479 H   0  0  0  0  0  0  0  0  0  0  0  0
   -2.2198    1.1404    0.6193 H   0  0  0  0  0  0  0  0  0  0  0  0
 11  9  1  0
  9 10  2  0
  9  8  1  0
  8 12  1  0
  8  7  1  0
  7  6  1  0
  6  5  1  0
  5  4  1  0
  4  2  1  0
  2  3  2  0
  2  1  1  0
  1 13  2  0
 11 14  1  0
  8 15  1  1
 12 16  1  0
 12 17  1  0
  7 18  1  0
  7 19  1  0
  6 20  1  0
  6 21  1  0
  5 22  1  0
  5 23  1  0
  3 24  1  0
  1 25  1  0
  4 26  1  0
M  END
