
     RDKit          3D

 37 39  0  0  0  0  0  0  0  0999 V2000
   -3.0499   -1.8642    0.6031 C   0  0  0  0  0  0  0  0  0  0  0  0
   -4.3232   -2.3995    0.6824 C   0  0  0  0  0  0  0  0  0  0  0  0
   -5.4173   -1.7400    0.3425 N   0  0  0  0  0  0  0  0  0  0  0  0
   -5.2301   -0.4876   -0.0970 C   0  0  0  0  0  0  0  0  0  0  0  0
   -6.3240    0.1957   -0.4850 N   0  0  0  0  0  0  0  0  0  0  0  0
   -4.0544    0.1299   -0.2080 N   0  0  0  0  0  0  0  0  0  0  0  0
   -2.9667   -0.5518    0.1372 C   0  0  0  0  0  0  0  0  0  0  0  0
   -1.7062    0.1531   -0.0109 C   0  0  0  0  0  0  0  0  0  0  0  0
   -0.4911   -0.3795    0.3267 N   0  0  0  0  0  0  0  0  0  0  0  0
   -1.4716    1.4177   -0.4958 C   0  0  0  0  0  0  0  0  0  0  0  0
   -0.0769    1.6462   -0.4419 C   0  0  0  0  0  0  0  0  0  0  0  0
    0.6734    2.8329   -0.8850 C   0  0  0  0  0  0  0  0  0  0  0  0
    1.8656    2.9737   -0.6387 O   0  0  0  0  0  0  0  0  0  0  0  0
   -0.0347    3.7523   -1.5669 N   0  0  0  0  0  0  0  0  0  0  0  0
    0.5025    0.4996    0.0856 C   0  0  0  0  0  0  0  0  0  0  0  0
    1.9039    0.1261    0.3453 C   0  0  0  0  0  0  0  0  0  0  0  0
    2.5182   -0.7614   -0.5318 C   0  0  0  0  0  0  0  0  0  0  0  0
    3.8247   -1.1603   -0.3034 C   0  0  0  0  0  0  0  0  0  0  0  0
    4.5834   -2.2606   -1.4084 Cl  0  0  0  0  0  0  0  0  0  0  0  0
    4.5261   -0.6934    0.7934 C   0  0  0  0  0  0  0  0  0  0  0  0
    3.8965    0.1816    1.6674 C   0  0  0  0  0  0  0  0  0  0  0  0
    2.5867    0.6057    1.4690 C   0  0  0  0  0  0  0  0  0  0  0  0
    1.9348    1.5447    2.4375 C   0  0  0  0  0  0  0  0  0  0  0  0
   -2.1899   -2.4513    0.8890 H   0  0  0  0  0  0  0  0  0  0  0  0
   -4.4636   -3.4145    1.0387 H   0  0  0  0  0  0  0  0  0  0  0  0
   -7.2313   -0.1707   -0.2558 H   0  0  0  0  0  0  0  0  0  0  0  0
   -6.2522    1.1865   -0.6367 H   0  0  0  0  0  0  0  0  0  0  0  0
   -0.3378   -1.2931    0.7252 H   0  0  0  0  0  0  0  0  0  0  0  0
   -2.2401    2.0915   -0.8409 H   0  0  0  0  0  0  0  0  0  0  0  0
   -0.9722    3.5848   -1.8868 H   0  0  0  0  0  0  0  0  0  0  0  0
    0.4334    4.5619   -1.9393 H   0  0  0  0  0  0  0  0  0  0  0  0
    1.9788   -1.1283   -1.3953 H   0  0  0  0  0  0  0  0  0  0  0  0
    5.5455   -1.0064    0.9735 H   0  0  0  0  0  0  0  0  0  0  0  0
    4.4445    0.5406    2.5297 H   0  0  0  0  0  0  0  0  0  0  0  0
    0.9647    1.1728    2.7692 H   0  0  0  0  0  0  0  0  0  0  0  0
    2.5563    1.6922    3.3193 H   0  0  0  0  0  0  0  0  0  0  0  0
    1.7669    2.5181    1.9770 H   0  0  0  0  0  0  0  0  0  0  0  0
  1  2  2  0
  1  7  1  0
  2  3  1  0
  3  4  2  0
  4  5  1  0
  4  6  1  0
  6  7  2  0
  7  8  1  0
  8  9  1  0
  8 10  2  0
  9 15  1  0
 10 11  1  0
 11 12  1  0
 11 15  2  0
 12 13  2  0
 12 14  1  0
 15 16  1  0
 16 17  2  0
 16 22  1  0
 17 18  1  0
 18 19  1  0
 18 20  2  0
 20 21  1  0
 21 22  2  0
 22 23  1  0
  1 24  1  0
  2 25  1  0
  5 26  1  0
  5 27  1  0
  9 28  1  0
 10 29  1  0
 14 30  1  0
 14 31  1  0
 17 32  1  0
 20 33  1  0
 21 34  1  0
 23 35  1  0
 23 36  1  0
 23 37  1  0
M  END
