
     RDKit          3D

 48 50  0  0  0  0  0  0  0  0999 V2000
    0.1043   -2.0933   -0.7706 C   0  0  0  0  0  0  0  0  0  0  0  0
   -2.1991   -2.2407    0.1499 C   0  0  0  0  0  0  0  0  0  0  0  0
   -3.3672   -2.9312    0.4123 C   0  0  0  0  0  0  0  0  0  0  0  0
   -2.3739   -4.9261   -0.5144 C   0  0  0  0  0  0  0  0  0  0  0  0
   -1.1985   -4.2315   -0.8022 C   0  0  0  0  0  0  0  0  0  0  0  0
   -0.1788   -6.1757   -1.7025 C   0  0  0  0  0  0  0  0  0  0  0  0
   -5.2834    2.9692    1.3791 C   0  0  0  0  0  0  0  0  0  0  0  0
   -4.7727    4.0289    2.1127 C   0  0  0  0  0  0  0  0  0  0  0  0
   -3.4767    4.4645    1.8876 C   0  0  0  0  0  0  0  0  0  0  0  0
   -2.6876    3.8441    0.9276 C   0  0  0  0  0  0  0  0  0  0  0  0
   -2.7125    2.3314   -2.1008 O   0  0  0  0  0  0  0  0  0  0  0  0
   -2.3410    2.2425   -0.9433 C   0  0  0  0  0  0  0  0  0  0  0  0
   -1.1530    1.7508   -0.5743 N   0  0  0  0  0  0  0  0  0  0  0  0
    1.1239    0.9729   -0.8883 C   0  0  0  0  0  0  0  0  0  0  0  0
    2.1910    1.8537   -1.0052 C   0  0  0  0  0  0  0  0  0  0  0  0
    3.3955    1.5699   -0.3813 C   0  0  0  0  0  0  0  0  0  0  0  0
    4.8341    2.7720   -0.5541 Br  0  0  0  0  0  0  0  0  0  0  0  0
    3.5636    0.4216    0.3756 C   0  0  0  0  0  0  0  0  0  0  0  0
    2.4942   -0.4532    0.4943 C   0  0  0  0  0  0  0  0  0  0  0  0
    2.6777   -2.0093    1.5245 Br  0  0  0  0  0  0  0  0  0  0  0  0
    1.2827   -0.1801   -0.1270 C   0  0  0  0  0  0  0  0  0  0  0  0
    0.2166   -1.0149    0.0554 O   0  0  0  0  0  0  0  0  0  0  0  0
   -1.1094   -2.8663   -0.4597 C   0  0  0  0  0  0  0  0  0  0  0  0
   -3.4424   -4.2767    0.0823 C   0  0  0  0  0  0  0  0  0  0  0  0
    0.9169   -2.3140   -1.6220 O   0  0  0  0  0  0  0  0  0  0  0  0
   -3.1757    2.7769    0.1857 C   0  0  0  0  0  0  0  0  0  0  0  0
   -4.4796    2.3565    0.4334 C   0  0  0  0  0  0  0  0  0  0  0  0
   -5.0175    1.2042   -0.2726 N   0  0  0  0  0  0  0  0  0  0  0  0
   -4.2423    0.3410   -0.6082 O   0  0  0  0  0  0  0  0  0  0  0  0
   -6.2086    1.1663   -0.4662 O   0  0  0  0  0  0  0  0  0  0  0  0
   -2.1440   -1.1915    0.4024 H   0  0  0  0  0  0  0  0  0  0  0  0
   -4.2073   -2.4267    0.8677 H   0  0  0  0  0  0  0  0  0  0  0  0
   -2.4683   -5.9763   -0.7517 H   0  0  0  0  0  0  0  0  0  0  0  0
   -0.3294   -6.8065   -0.8236 H   0  0  0  0  0  0  0  0  0  0  0  0
   -0.9632   -6.3873   -2.4327 H   0  0  0  0  0  0  0  0  0  0  0  0
    0.7858   -6.4112   -2.1439 H   0  0  0  0  0  0  0  0  0  0  0  0
   -6.2879    2.6158    1.5630 H   0  0  0  0  0  0  0  0  0  0  0  0
   -5.3903    4.5067    2.8601 H   0  0  0  0  0  0  0  0  0  0  0  0
   -3.0759    5.2945    2.4536 H   0  0  0  0  0  0  0  0  0  0  0  0
   -1.6868    4.2111    0.7411 H   0  0  0  0  0  0  0  0  0  0  0  0
   -0.9330    1.6758    0.4064 H   0  0  0  0  0  0  0  0  0  0  0  0
   -0.5770    0.4076   -2.0799 H   0  0  0  0  0  0  0  0  0  0  0  0
   -0.0340    2.0536   -2.3084 H   0  0  0  0  0  0  0  0  0  0  0  0
    2.0716    2.7552   -1.5916 H   0  0  0  0  0  0  0  0  0  0  0  0
    4.5041    0.2063    0.8640 H   0  0  0  0  0  0  0  0  0  0  0  0
   -4.3453   -4.8365    0.2892 H   0  0  0  0  0  0  0  0  0  0  0  0
   -0.1316   -4.8004   -1.3647 O   0  0  0  0  0  0  0  0  0  0  0  0
   -0.1888    1.2828   -1.5528 C   0  0  0  0  0  0  0  0  0  0  0  0
  8  9  1  0
  8  7  2  0
  9 10  2  0
  7 27  1  0
 29 28  2  0
 10 26  1  0
 27 28  1  0
 27 26  2  0
 28 30  1  0
 26 12  1  0
 12 11  2  0
 12 13  1  0
 13 48  1  0
 17 16  1  0
 48 14  1  0
 15 14  2  0
 15 16  1  0
 14 21  1  0
 16 18  2  0
 21 19  2  0
 21 22  1  0
 18 19  1  0
  2  3  2  0
  2 23  1  0
  3 24  1  0
 19 20  1  0
 22  1  1  0
 25  1  2  0
  1 23  1  0
 23  5  2  0
 24  4  2  0
  5  4  1  0
  5 47  1  0
 47  6  1  0
  2 31  1  0
  3 32  1  0
  4 33  1  0
  6 34  1  0
  6 35  1  0
  6 36  1  0
  7 37  1  0
  8 38  1  0
  9 39  1  0
 10 40  1  0
 13 41  1  0
 48 42  1  0
 48 43  1  0
 15 44  1  0
 18 45  1  0
 24 46  1  0
M  CHG  2  28   1  30  -1
M  END
