
     RDKit          3D

 34 36  0  0  0  0  0  0  0  0999 V2000
   -0.0272   -0.1051    0.1571 C   0  0  0  0  0  0  0  0  0  0  0  0
   -1.2772    0.5198    0.5134 C   0  0  0  0  0  0  0  0  0  0  0  0
    1.2516    0.4186    0.7485 C   0  0  0  0  0  0  0  0  0  0  0  0
   -0.0421   -1.1718   -0.6709 C   0  0  0  0  0  0  0  0  0  0  0  0
   -2.4510   -0.0020   -0.0338 C   0  0  0  0  0  0  0  0  0  0  0  0
   -1.4060    1.6074    1.3892 C   0  0  0  0  0  0  0  0  0  0  0  0
    2.4353   -0.1488    0.1570 N   0  0  0  0  0  0  0  0  0  0  0  0
   -1.2653   -1.6870   -1.2308 C   0  0  0  0  0  0  0  0  0  0  0  0
   -2.4185   -1.0543   -0.8803 O   0  0  0  0  0  0  0  0  0  0  0  0
   -3.7012    0.5211    0.2568 C   0  0  0  0  0  0  0  0  0  0  0  0
   -2.6342    2.1432    1.6963 C   0  0  0  0  0  0  0  0  0  0  0  0
    3.5665   -0.1748    1.0674 C   0  0  0  0  0  0  0  0  0  0  0  0
    2.8087    0.5083   -1.0842 C   0  0  0  0  0  0  0  0  0  0  0  0
   -1.3652   -2.6250   -1.9844 O   0  0  0  0  0  0  0  0  0  0  0  0
   -3.7932    1.5997    1.1256 C   0  0  0  0  0  0  0  0  0  0  0  0
    4.7389   -0.8676    0.4001 C   0  0  0  0  0  0  0  0  0  0  0  0
    4.0033   -0.1936   -1.6998 C   0  0  0  0  0  0  0  0  0  0  0  0
   -4.9632    2.1595    1.4548 O   0  0  0  0  0  0  0  0  0  0  0  0
    5.0966   -0.2365   -0.8097 O   0  0  0  0  0  0  0  0  0  0  0  0
    1.2523    1.5188    0.6969 H   0  0  0  0  0  0  0  0  0  0  0  0
    1.2337    0.1766    1.8166 H   0  0  0  0  0  0  0  0  0  0  0  0
    0.8732   -1.6790   -0.9416 H   0  0  0  0  0  0  0  0  0  0  0  0
   -0.5255    2.0429    1.8415 H   0  0  0  0  0  0  0  0  0  0  0  0
   -4.5862    0.0843   -0.1911 H   0  0  0  0  0  0  0  0  0  0  0  0
   -2.7125    2.9823    2.3745 H   0  0  0  0  0  0  0  0  0  0  0  0
    3.8667    0.8374    1.3854 H   0  0  0  0  0  0  0  0  0  0  0  0
    3.2948   -0.7301    1.9682 H   0  0  0  0  0  0  0  0  0  0  0  0
    1.9781    0.4703   -1.7919 H   0  0  0  0  0  0  0  0  0  0  0  0
    3.0452    1.5732   -0.9187 H   0  0  0  0  0  0  0  0  0  0  0  0
    5.6117   -0.8407    1.0541 H   0  0  0  0  0  0  0  0  0  0  0  0
    4.4804   -1.9210    0.2227 H   0  0  0  0  0  0  0  0  0  0  0  0
    3.7112   -1.2097   -2.0006 H   0  0  0  0  0  0  0  0  0  0  0  0
    4.3295    0.3403   -2.5934 H   0  0  0  0  0  0  0  0  0  0  0  0
   -5.6951    1.7205    1.0053 H   0  0  0  0  0  0  0  0  0  0  0  0
  1  2  1  0
  1  3  1  0
  1  4  2  0
  2  5  2  0
  2  6  1  0
  3  7  1  0
  4  8  1  0
  5  9  1  0
  5 10  1  0
  6 11  2  0
  7 12  1  0
  7 13  1  0
  8  9  1  0
  8 14  2  0
 10 15  2  0
 11 15  1  0
 12 16  1  0
 13 17  1  0
 15 18  1  0
 16 19  1  0
 17 19  1  0
  3 20  1  0
  3 21  1  0
  4 22  1  0
  6 23  1  0
 10 24  1  0
 11 25  1  0
 12 26  1  0
 12 27  1  0
 13 28  1  0
 13 29  1  0
 16 30  1  0
 16 31  1  0
 17 32  1  0
 17 33  1  0
 18 34  1  0
M  END
