
     RDKit          3D

 21 21  0  0  0  0  0  0  0  0999 V2000
   -1.3666    1.2106   -0.2530 C   0  0  0  0  0  0  0  0  0  0  0  0
   -2.0518    0.0443    0.0526 C   0  0  0  0  0  0  0  0  0  0  0  0
   -1.3848   -1.1632    0.1685 C   0  0  0  0  0  0  0  0  0  0  0  0
   -0.0097   -1.2007   -0.0237 C   0  0  0  0  0  0  0  0  0  0  0  0
   -3.7704    0.1000    0.2839 Cl  0  0  0  0  0  0  0  0  0  0  0  0
    0.0054    1.1535   -0.4374 C   0  0  0  0  0  0  0  0  0  0  0  0
    0.7040   -0.0462   -0.3227 C   0  0  0  0  0  0  0  0  0  0  0  0
    2.2084   -0.0460   -0.4939 C   0  0  2  0  0  0  0  0  0  0  0  0
    2.7232   -1.3080   -0.8496 O   0  0  0  0  0  0  0  0  0  0  0  0
    2.8853    0.5014    0.7615 C   0  0  0  0  0  0  0  0  0  0  0  0
    4.3058    0.6994    0.5391 N   0  0  0  0  0  0  0  0  0  0  0  0
   -1.8929    2.1503   -0.3522 H   0  0  0  0  0  0  0  0  0  0  0  0
   -1.9254   -2.0701    0.4036 H   0  0  0  0  0  0  0  0  0  0  0  0
    0.4904   -2.1570    0.0606 H   0  0  0  0  0  0  0  0  0  0  0  0
    0.5375    2.0653   -0.6830 H   0  0  0  0  0  0  0  0  0  0  0  0
    2.4578    0.6222   -1.3250 H   0  0  0  0  0  0  0  0  0  0  0  0
    2.7598   -1.8659   -0.0645 H   0  0  0  0  0  0  0  0  0  0  0  0
    2.4341    1.4651    1.0067 H   0  0  0  0  0  0  0  0  0  0  0  0
    2.6462   -0.1725    1.6010 H   0  0  0  0  0  0  0  0  0  0  0  0
    4.7280    1.0713    1.3797 H   0  0  0  0  0  0  0  0  0  0  0  0
    4.7554   -0.1931    0.3792 H   0  0  0  0  0  0  0  0  0  0  0  0
  5  2  1  0
  1  2  2  0
  1  6  1  0
  2  3  1  0
  6  7  2  0
  3  4  2  0
 11 10  1  0
  7  4  1  0
  7  8  1  0
  8 10  1  0
  8  9  1  0
  1 12  1  0
  3 13  1  0
  4 14  1  0
  6 15  1  0
  8 16  1  6
  9 17  1  0
 10 18  1  0
 10 19  1  0
 11 20  1  0
 11 21  1  0
M  END
