
     RDKit          3D

 65 68  0  0  0  0  0  0  0  0999 V2000
    9.0461   -2.3713   -0.6884 C   0  0  0  0  0  0  0  0  0  0  0  0
    7.7216   -1.7335   -0.9890 C   0  0  0  0  0  0  0  0  0  0  0  0
    6.7140   -2.3642   -1.1961 O   0  0  0  0  0  0  0  0  0  0  0  0
    7.7368   -0.2165   -1.0352 C   0  0  1  0  0  0  0  0  0  0  0  0
    6.5188    0.2952   -1.5372 O   0  0  0  0  0  0  0  0  0  0  0  0
    7.9494    0.4036    0.3625 C   0  0  1  0  0  0  0  0  0  0  0  0
    9.2909    0.7609    0.5291 O   0  0  0  0  0  0  0  0  0  0  0  0
    6.9689    1.5747    0.3233 C   0  0  2  0  0  0  0  0  0  0  0  0
    6.5707    1.9847    1.5999 O   0  0  0  0  0  0  0  0  0  0  0  0
    5.8531    0.9935   -0.5384 C   0  0  2  0  0  0  0  0  0  0  0  0
    5.0968    0.1316    0.2852 O   0  0  0  0  0  0  0  0  0  0  0  0
    3.7785   -0.0221   -0.0269 C   0  0  0  0  0  0  0  0  0  0  0  0
    2.8606    0.6998    0.7418 C   0  0  0  0  0  0  0  0  0  0  0  0
    1.5035    0.5729    0.4791 C   0  0  0  0  0  0  0  0  0  0  0  0
    3.2659    1.5257    1.7223 O   0  0  0  0  0  0  0  0  0  0  0  0
    3.3426   -0.8452   -1.0509 C   0  0  0  0  0  0  0  0  0  0  0  0
    1.9874   -0.9550   -1.3171 C   0  0  0  0  0  0  0  0  0  0  0  0
    1.0513   -0.2616   -0.5447 C   0  0  0  0  0  0  0  0  0  0  0  0
   -0.3669   -0.4020   -0.8824 C   0  0  0  0  0  0  0  0  0  0  0  0
   -1.4272   -0.4089   -0.0623 C   0  0  0  0  0  0  0  0  0  0  0  0
   -1.3596   -0.3656    1.4362 C   0  0  0  0  0  0  0  0  0  0  0  0
   -2.7702   -0.4957   -0.7290 C   0  0  0  0  0  0  0  0  0  0  0  0
   -2.9000   -0.8152   -1.9037 O   0  0  0  0  0  0  0  0  0  0  0  0
   -3.8165   -0.1634    0.0527 N   0  0  0  0  0  0  0  0  0  0  0  0
   -5.1912   -0.1826   -0.3783 C   0  0  1  0  0  0  0  0  0  0  0  0
   -6.0238   -1.1112    0.4983 C   0  0  2  0  0  0  0  0  0  0  0  0
   -5.4368   -2.3867    0.4796 O   0  0  0  0  0  0  0  0  0  0  0  0
   -7.4747   -1.1614    0.0051 C   0  0  1  0  0  0  0  0  0  0  0  0
   -8.3193   -1.6671    1.0249 O   0  0  0  0  0  0  0  0  0  0  0  0
   -8.9260   -0.5608    1.6688 C   0  0  0  0  0  0  0  0  0  0  0  0
   -8.4380    0.5981    1.0560 O   0  0  0  0  0  0  0  0  0  0  0  0
   -8.0919    0.2055   -0.2587 C   0  0  1  0  0  0  0  0  0  0  0  0
   -7.1851    1.2077   -0.9384 C   0  0  1  0  0  0  0  0  0  0  0  0
   -7.8112    2.4615   -0.8935 O   0  0  0  0  0  0  0  0  0  0  0  0
   -5.7843    1.2314   -0.3398 C   0  0  2  0  0  0  0  0  0  0  0  0
   -5.0306    2.1274   -1.1173 O   0  0  0  0  0  0  0  0  0  0  0  0
    9.7035   -2.2474   -1.5523 H   0  0  0  0  0  0  0  0  0  0  0  0
    9.5477   -1.8893    0.1517 H   0  0  0  0  0  0  0  0  0  0  0  0
    8.9344   -3.4336   -0.4838 H   0  0  0  0  0  0  0  0  0  0  0  0
    8.5562    0.1047   -1.6905 H   0  0  0  0  0  0  0  0  0  0  0  0
    7.6337   -0.2961    1.1491 H   0  0  0  0  0  0  0  0  0  0  0  0
    9.4558    0.9033    1.4663 H   0  0  0  0  0  0  0  0  0  0  0  0
    7.4350    2.3931   -0.2384 H   0  0  0  0  0  0  0  0  0  0  0  0
    6.4345    2.9366    1.5906 H   0  0  0  0  0  0  0  0  0  0  0  0
    5.2049    1.7361   -1.0120 H   0  0  0  0  0  0  0  0  0  0  0  0
    0.8082    1.1692    1.0552 H   0  0  0  0  0  0  0  0  0  0  0  0
    4.2303    1.4903    1.8081 H   0  0  0  0  0  0  0  0  0  0  0  0
    4.0681   -1.4020   -1.6295 H   0  0  0  0  0  0  0  0  0  0  0  0
    1.6519   -1.5885   -2.1284 H   0  0  0  0  0  0  0  0  0  0  0  0
   -0.5644   -0.5318   -1.9413 H   0  0  0  0  0  0  0  0  0  0  0  0
   -1.6025    0.6203    1.8414 H   0  0  0  0  0  0  0  0  0  0  0  0
   -2.0546   -1.0805    1.8806 H   0  0  0  0  0  0  0  0  0  0  0  0
   -0.3673   -0.6255    1.7971 H   0  0  0  0  0  0  0  0  0  0  0  0
   -3.6498    0.0844    1.0153 H   0  0  0  0  0  0  0  0  0  0  0  0
   -5.2071   -0.5402   -1.4115 H   0  0  0  0  0  0  0  0  0  0  0  0
   -6.0187   -0.7011    1.5204 H   0  0  0  0  0  0  0  0  0  0  0  0
   -5.8761   -2.9333    1.1391 H   0  0  0  0  0  0  0  0  0  0  0  0
   -7.5372   -1.8158   -0.8690 H   0  0  0  0  0  0  0  0  0  0  0  0
  -10.0152   -0.6475    1.5593 H   0  0  0  0  0  0  0  0  0  0  0  0
   -8.6683   -0.5293    2.7310 H   0  0  0  0  0  0  0  0  0  0  0  0
   -8.9977    0.0850   -0.8712 H   0  0  0  0  0  0  0  0  0  0  0  0
   -7.0793    0.8537   -1.9771 H   0  0  0  0  0  0  0  0  0  0  0  0
   -7.2812    3.0781   -1.4092 H   0  0  0  0  0  0  0  0  0  0  0  0
   -5.8398    1.5704    0.7051 H   0  0  0  0  0  0  0  0  0  0  0  0
   -4.2218    2.3465   -0.6451 H   0  0  0  0  0  0  0  0  0  0  0  0
  3  2  2  0
  4  5  1  0
  4  2  1  0
  4  6  1  0
  5 10  1  0
  7  6  1  0
  2  1  1  0
  8  6  1  0
  8 10  1  0
  8  9  1  0
 10 11  1  0
 21 20  1  0
 16 17  2  0
 16 12  1  0
 17 18  1  0
 11 12  1  0
 12 13  2  0
 20 19  2  0
 20 22  1  0
 18 19  1  0
 18 14  2  0
 23 22  2  0
 13 14  1  0
 13 15  1  0
 22 24  1  0
 24 25  1  0
 27 26  1  0
 25 26  1  0
 25 35  1  0
 26 28  1  0
 36 35  1  0
 35 33  1  0
 28 29  1  0
 28 32  1  0
 29 30  1  0
 33 32  1  0
 33 34  1  0
 32 31  1  0
 31 30  1  0
  1 37  1  0
  1 38  1  0
  1 39  1  0
  4 40  1  6
  6 41  1  1
  7 42  1  0
  8 43  1  6
  9 44  1  0
 10 45  1  6
 14 46  1  0
 15 47  1  0
 16 48  1  0
 17 49  1  0
 19 50  1  0
 21 51  1  0
 21 52  1  0
 21 53  1  0
 24 54  1  0
 25 55  1  6
 26 56  1  1
 27 57  1  0
 28 58  1  6
 30 59  1  0
 30 60  1  0
 32 61  1  6
 33 62  1  6
 34 63  1  0
 35 64  1  1
 36 65  1  0
M  END
