
     RDKit          3D

 43 45  0  0  0  0  0  0  0  0999 V2000
   -1.6107   -3.0228    0.8120 O   0  0  0  0  0  0  0  0  0  0  0  0
   -2.0757   -2.0798   -0.1898 S   0  0  1  0  0  0  0  0  0  0  0  0
   -3.0569   -2.5098   -1.1720 O   0  0  0  0  0  0  0  0  0  0  0  0
   -2.6956   -0.6536    0.6745 C   0  0  0  0  0  0  0  0  0  0  0  0
   -3.2143    0.4681   -0.0312 C   0  0  0  0  0  0  0  0  0  0  0  0
   -3.3541    0.5851   -1.4328 C   0  0  0  0  0  0  0  0  0  0  0  0
   -3.8441    1.7462   -1.9639 C   0  0  0  0  0  0  0  0  0  0  0  0
   -4.2234    2.8149   -1.2331 N   0  0  0  0  0  0  0  0  0  0  0  0
   -4.1173    2.7233    0.0631 C   0  0  0  0  0  0  0  0  0  0  0  0
   -3.6210    1.5848    0.7393 C   0  0  0  0  0  0  0  0  0  0  0  0
   -3.5322    1.5630    2.1478 C   0  0  0  0  0  0  0  0  0  0  0  0
   -3.0411    0.4630    2.7895 C   0  0  0  0  0  0  0  0  0  0  0  0
   -2.6106   -0.6492    2.0425 C   0  0  0  0  0  0  0  0  0  0  0  0
   -0.7602   -1.5732   -1.0324 N   0  0  0  0  0  0  0  0  0  0  0  0
    0.3391   -0.9365   -0.3136 C   0  0  0  0  0  0  0  0  0  0  0  0
    1.5662   -0.8931   -1.2103 C   0  0  0  0  0  0  0  0  0  0  0  0
    2.6534   -0.2440   -0.5109 N   0  0  0  0  0  0  0  0  0  0  0  0
    3.9040   -0.2779   -1.2417 C   0  0  0  0  0  0  0  0  0  0  0  0
    5.0403    0.2914   -0.4322 C   0  0  0  0  0  0  0  0  0  0  0  0
    6.0042    1.0946   -1.0342 C   0  0  0  0  0  0  0  0  0  0  0  0
    7.0767    1.5912   -0.3032 C   0  0  0  0  0  0  0  0  0  0  0  0
    7.1949    1.2940    1.0473 C   0  0  0  0  0  0  0  0  0  0  0  0
    6.2341    0.4972    1.6590 C   0  0  0  0  0  0  0  0  0  0  0  0
    5.1658    0.0009    0.9256 C   0  0  0  0  0  0  0  0  0  0  0  0
   -3.1119   -0.2217   -2.1072 H   0  0  0  0  0  0  0  0  0  0  0  0
   -3.9497    1.8424   -3.0375 H   0  0  0  0  0  0  0  0  0  0  0  0
   -4.4307    3.5811    0.6511 H   0  0  0  0  0  0  0  0  0  0  0  0
   -3.8584    2.4305    2.7079 H   0  0  0  0  0  0  0  0  0  0  0  0
   -2.9690    0.4360    3.8676 H   0  0  0  0  0  0  0  0  0  0  0  0
   -2.2083   -1.5047    2.5666 H   0  0  0  0  0  0  0  0  0  0  0  0
   -1.0078   -1.1137   -1.9022 H   0  0  0  0  0  0  0  0  0  0  0  0
    0.0719    0.0763    0.0091 H   0  0  0  0  0  0  0  0  0  0  0  0
    0.5676   -1.5203    0.5770 H   0  0  0  0  0  0  0  0  0  0  0  0
    1.8661   -1.9157   -1.4523 H   0  0  0  0  0  0  0  0  0  0  0  0
    1.3101   -0.4049   -2.1639 H   0  0  0  0  0  0  0  0  0  0  0  0
    2.4075    0.7213   -0.3246 H   0  0  0  0  0  0  0  0  0  0  0  0
    4.1252   -1.3249   -1.4748 H   0  0  0  0  0  0  0  0  0  0  0  0
    3.8535    0.2414   -2.2105 H   0  0  0  0  0  0  0  0  0  0  0  0
    5.9146    1.3389   -2.0865 H   0  0  0  0  0  0  0  0  0  0  0  0
    7.8162    2.2146   -0.7894 H   0  0  0  0  0  0  0  0  0  0  0  0
    8.0264    1.6834    1.6206 H   0  0  0  0  0  0  0  0  0  0  0  0
    6.3178    0.2611    2.7123 H   0  0  0  0  0  0  0  0  0  0  0  0
    4.4171   -0.6126    1.4103 H   0  0  0  0  0  0  0  0  0  0  0  0
  8  9  2  0
  8  7  1  0
  9 10  1  0
  7  6  2  0
 10 11  1  0
 10  5  2  0
 11 12  2  0
  6  5  1  0
  5  4  1  0
 12 13  1  0
 16 15  1  0
 16 17  1  0
  4 13  2  0
  4  2  1  0
 15 14  1  0
  1  2  2  0
  2 14  1  6
  2  3  2  0
 17 18  1  0
 18 19  1  0
 20 19  2  0
 20 21  1  0
 19 24  1  0
 21 22  2  0
 24 23  2  0
 22 23  1  0
  6 25  1  0
  7 26  1  0
  9 27  1  0
 11 28  1  0
 12 29  1  0
 13 30  1  0
 14 31  1  0
 15 32  1  0
 15 33  1  0
 16 34  1  0
 16 35  1  0
 17 36  1  0
 18 37  1  0
 18 38  1  0
 20 39  1  0
 21 40  1  0
 22 41  1  0
 23 42  1  0
 24 43  1  0
M  END
