
     RDKit          3D

 30 31  0  0  0  0  0  0  0  0999 V2000
   -0.7025   -1.0297   -0.6249 C   0  0  0  0  0  0  0  0  0  0  0  0
   -0.6253   -1.5451    0.6665 C   0  0  0  0  0  0  0  0  0  0  0  0
   -1.6072   -1.2395    1.5909 C   0  0  0  0  0  0  0  0  0  0  0  0
   -2.6712   -0.4283    1.2287 C   0  0  0  0  0  0  0  0  0  0  0  0
   -2.7562    0.0818   -0.0628 C   0  0  0  0  0  0  0  0  0  0  0  0
   -1.7694   -0.2217   -0.9844 C   0  0  0  0  0  0  0  0  0  0  0  0
    0.5329   -1.3770   -1.8607 S   0  0  1  0  0  0  0  0  0  0  0  0
    0.7226   -2.8055   -1.9873 O   0  0  0  0  0  0  0  0  0  0  0  0
    0.1824   -0.5964   -3.0307 O   0  0  0  0  0  0  0  0  0  0  0  0
    1.9378   -0.8010   -1.2123 N   0  0  0  0  0  0  0  0  0  0  0  0
    2.0850    0.4350   -0.5899 C   0  0  0  0  0  0  0  0  0  0  0  0
    3.0185    0.5827    0.4573 C   0  0  0  0  0  0  0  0  0  0  0  0
    3.1464    1.8283    1.0740 C   0  0  0  0  0  0  0  0  0  0  0  0
    2.3800    2.9120    0.6973 C   0  0  0  0  0  0  0  0  0  0  0  0
    1.4738    2.7425   -0.3374 C   0  0  0  0  0  0  0  0  0  0  0  0
    1.3268    1.5336   -0.9908 C   0  0  0  0  0  0  0  0  0  0  0  0
    0.6755   -2.5479    1.1668 Cl  0  0  0  0  0  0  0  0  0  0  0  0
   -3.8702   -0.0608    2.3920 Cl  0  0  0  0  0  0  0  0  0  0  0  0
   -4.0645    1.0865   -0.5273 Cl  0  0  0  0  0  0  0  0  0  0  0  0
    3.8573   -0.5525    0.8987 C   0  0  0  0  0  0  0  0  0  0  0  0
    4.6043   -0.2749    1.9476 O   0  0  0  0  0  0  0  0  0  0  0  0
    3.8711   -1.6424    0.3587 O   0  0  0  0  0  0  0  0  0  0  0  0
    0.5085    4.0773   -0.8455 Cl  0  0  0  0  0  0  0  0  0  0  0  0
   -1.5472   -1.6331    2.5958 H   0  0  0  0  0  0  0  0  0  0  0  0
   -1.8377    0.1826   -1.9844 H   0  0  0  0  0  0  0  0  0  0  0  0
    2.5774   -1.5217   -0.8644 H   0  0  0  0  0  0  0  0  0  0  0  0
    3.8607    1.9604    1.8734 H   0  0  0  0  0  0  0  0  0  0  0  0
    2.4904    3.8652    1.1937 H   0  0  0  0  0  0  0  0  0  0  0  0
    0.6438    1.4656   -1.8238 H   0  0  0  0  0  0  0  0  0  0  0  0
    5.1463   -1.0427    2.1846 H   0  0  0  0  0  0  0  0  0  0  0  0
 14 13  1  0
 14 15  2  0
 23 15  1  0
 13 12  2  0
 15 16  1  0
 12 20  1  0
 12 11  1  0
 16 11  2  0
 20 22  2  0
 20 21  1  0
 11 10  1  0
  7 10  1  1
  8  7  2  0
  7  1  1  0
  7  9  2  0
  1  6  1  0
  1  2  2  0
  6  5  2  0
 17  2  1  0
  2  3  1  0
  5 19  1  0
  5  4  1  0
  3  4  2  0
  4 18  1  0
  3 24  1  0
  6 25  1  0
 10 26  1  0
 13 27  1  0
 14 28  1  0
 16 29  1  0
 21 30  1  0
M  END
