
     RDKit          3D

 39 42  0  0  0  0  0  0  0  0999 V2000
   -3.6752   -0.2764    0.0551 C   0  0  0  0  0  0  0  0  0  0  0  0
   -3.3238   -1.4514    0.7203 C   0  0  0  0  0  0  0  0  0  0  0  0
   -4.1698   -2.5399    0.6559 C   0  0  0  0  0  0  0  0  0  0  0  0
   -5.3597   -2.5177   -0.0454 C   0  0  0  0  0  0  0  0  0  0  0  0
   -5.7038   -1.3454   -0.7039 C   0  0  0  0  0  0  0  0  0  0  0  0
   -2.4759    3.2882    0.2485 C   0  0  0  0  0  0  0  0  0  0  0  0
   -1.1051    3.1034    0.1982 C   0  0  0  0  0  0  0  0  0  0  0  0
   -3.8245   -3.6603    1.3102 F   0  0  0  0  0  0  0  0  0  0  0  0
    1.2787    0.3164   -0.0389 O   0  0  0  0  0  0  0  0  0  0  0  0
   -0.0720    4.4946    0.2579 Cl  0  0  0  0  0  0  0  0  0  0  0  0
    3.6454    0.8186   -0.0325 C   0  0  0  0  0  0  0  0  0  0  0  0
    5.2628   -0.9961   -0.1290 N   0  0  0  0  0  0  0  0  0  0  0  0
    4.9776    0.2903   -0.0635 C   0  0  0  0  0  0  0  0  0  0  0  0
    2.1749   -2.5506   -0.1728 N   0  0  0  0  0  0  0  0  0  0  0  0
    4.1974   -1.8033   -0.1564 C   0  0  0  0  0  0  0  0  0  0  0  0
    2.9951   -3.5802   -0.2265 N   0  0  0  0  0  0  0  0  0  0  0  0
    2.8721   -1.3960   -0.1270 C   0  0  0  0  0  0  0  0  0  0  0  0
    4.2117   -3.1618   -0.2181 N   0  0  0  0  0  0  0  0  0  0  0  0
    2.5645   -0.0246   -0.0632 C   0  0  0  0  0  0  0  0  0  0  0  0
   -0.5414    1.8340    0.1012 C   0  0  0  0  0  0  0  0  0  0  0  0
   -1.4020    0.7453    0.0555 C   0  0  0  0  0  0  0  0  0  0  0  0
   -2.7867    0.9016    0.1053 C   0  0  0  0  0  0  0  0  0  0  0  0
   -3.3133    2.1871    0.2018 C   0  0  0  0  0  0  0  0  0  0  0  0
   -4.8748   -0.2348   -0.6567 C   0  0  0  0  0  0  0  0  0  0  0  0
   -2.4133   -1.5125    1.3034 H   0  0  0  0  0  0  0  0  0  0  0  0
   -5.9988   -3.3899   -0.0779 H   0  0  0  0  0  0  0  0  0  0  0  0
   -6.6267   -1.3034   -1.2669 H   0  0  0  0  0  0  0  0  0  0  0  0
   -2.8876    4.2846    0.3335 H   0  0  0  0  0  0  0  0  0  0  0  0
    3.5244    1.8921    0.0190 H   0  0  0  0  0  0  0  0  0  0  0  0
    1.1773   -2.7036   -0.1708 H   0  0  0  0  0  0  0  0  0  0  0  0
    5.8473    2.1355   -0.1910 H   0  0  0  0  0  0  0  0  0  0  0  0
    6.9271    0.8246   -0.2183 H   0  0  0  0  0  0  0  0  0  0  0  0
    1.4071    2.1321    0.9349 H   0  0  0  0  0  0  0  0  0  0  0  0
    1.3490    2.2224   -0.8296 H   0  0  0  0  0  0  0  0  0  0  0  0
   -0.9911   -0.2501   -0.0429 H   0  0  0  0  0  0  0  0  0  0  0  0
   -4.3830    2.3377    0.2624 H   0  0  0  0  0  0  0  0  0  0  0  0
   -5.1542    0.6610   -1.1958 H   0  0  0  0  0  0  0  0  0  0  0  0
    0.9522    1.6890    0.0417 C   0  0  0  0  0  0  0  0  0  0  0  0
    6.0111    1.1662    0.0194 N   0  0  0  0  0  0  0  0  0  0  0  0
  8  3  1  0
  3  4  1  0
  3  2  2  0
  4  5  2  0
  2  1  1  0
  5 24  1  0
  1 24  2  0
  1 22  1  0
 14 16  1  0
 14 17  1  0
 16 18  2  0
 17 19  1  0
 17 15  2  0
 18 15  1  0
 21 22  2  0
 21 20  1  0
  9 19  1  0
  9 38  1  0
 19 11  2  0
 15 12  1  0
 22 23  1  0
 11 13  1  0
 12 13  2  0
 38 20  1  0
 13 39  1  0
 20  7  2  0
 23  6  2  0
  7  6  1  0
  7 10  1  0
  2 25  1  0
  4 26  1  0
  5 27  1  0
  6 28  1  0
 11 29  1  0
 14 30  1  0
 39 31  1  0
 39 32  1  0
 38 33  1  0
 38 34  1  0
 21 35  1  0
 23 36  1  0
 24 37  1  0
M  END
