
     RDKit          3D

 21 20  0  0  0  0  0  0  0  0999 V2000
    2.2435   -0.9634    0.2809 C   0  0  0  0  0  0  0  0  0  0  0  0
    1.8604    1.1733   -0.8965 N   0  0  0  0  0  0  0  0  0  0  0  0
    3.4816   -0.6386    0.8720 O   0  0  0  0  0  0  0  0  0  0  0  0
    1.3405    0.2799    0.1185 C   0  0  1  0  0  0  0  0  0  0  0  0
   -0.1008   -0.2082   -0.0977 C   0  0  0  0  0  0  0  0  0  0  0  0
   -2.5120    0.4376   -0.2505 C   0  0  0  0  0  0  0  0  0  0  0  0
   -1.0901    0.9344   -0.0654 C   0  0  0  0  0  0  0  0  0  0  0  0
   -3.1515    0.6705   -1.2960 O   0  0  0  0  0  0  0  0  0  0  0  0
   -3.0938   -0.2737    0.7689 N   0  0  0  0  0  0  0  0  0  0  0  0
    2.4024   -1.4714   -0.7073 H   0  0  0  0  0  0  0  0  0  0  0  0
    1.7689   -1.6843    0.9993 H   0  0  0  0  0  0  0  0  0  0  0  0
    1.8155    0.7504   -1.8029 H   0  0  0  0  0  0  0  0  0  0  0  0
    1.3428    2.0296   -0.9089 H   0  0  0  0  0  0  0  0  0  0  0  0
    3.9019    0.0353    0.3230 H   0  0  0  0  0  0  0  0  0  0  0  0
    1.3765    0.8472    1.0977 H   0  0  0  0  0  0  0  0  0  0  0  0
   -0.1772   -0.7482   -1.0777 H   0  0  0  0  0  0  0  0  0  0  0  0
   -0.3483   -0.9454    0.7107 H   0  0  0  0  0  0  0  0  0  0  0  0
   -1.0038    1.4961    0.9015 H   0  0  0  0  0  0  0  0  0  0  0  0
   -0.8861    1.6570   -0.8999 H   0  0  0  0  0  0  0  0  0  0  0  0
   -2.6017   -0.4691    1.6003 H   0  0  0  0  0  0  0  0  0  0  0  0
   -4.0216   -0.6025    0.6708 H   0  0  0  0  0  0  0  0  0  0  0  0
  1  4  1  0
  1  3  1  0
  1 10  1  0
  1 11  1  0
  2  4  1  0
  2 12  1  0
  2 13  1  0
  3 14  1  0
  5  4  1  0
  4 15  1  1
  5  7  1  0
  5 16  1  0
  5 17  1  0
  8  6  2  0
  7  6  1  0
  6  9  1  0
  7 18  1  0
  7 19  1  0
  9 20  1  0
  9 21  1  0
M  END
