
     RDKit          3D

 55 54  0  0  0  0  0  0  0  0999 V2000
   10.1726   -0.2510    0.2178 C   0  0  0  0  0  0  0  0  0  0  0  0
   11.1029   -0.2499   -0.5509 O   0  0  0  0  0  0  0  0  0  0  0  0
    8.9295    0.5672    0.0774 C   0  0  0  0  0  0  0  0  0  0  0  0
    7.6767   -0.3116    0.1171 C   0  0  0  0  0  0  0  0  0  0  0  0
    6.3951    0.5104    0.0696 C   0  0  0  0  0  0  0  0  0  0  0  0
    5.1378   -0.3497    0.0916 C   0  0  0  0  0  0  0  0  0  0  0  0
    3.8539    0.4697    0.0493 C   0  0  0  0  0  0  0  0  0  0  0  0
    2.5933   -0.3861    0.0670 C   0  0  0  0  0  0  0  0  0  0  0  0
    1.3102    0.4345    0.0280 C   0  0  0  0  0  0  0  0  0  0  0  0
    0.0477   -0.4187    0.0413 C   0  0  0  0  0  0  0  0  0  0  0  0
   -1.2340    0.4044    0.0056 C   0  0  0  0  0  0  0  0  0  0  0  0
   -2.4982   -0.4463    0.0170 C   0  0  0  0  0  0  0  0  0  0  0  0
   -3.7782    0.3795   -0.0167 C   0  0  0  0  0  0  0  0  0  0  0  0
   -5.0444   -0.4681   -0.0069 C   0  0  0  0  0  0  0  0  0  0  0  0
   -6.3221    0.3615   -0.0368 C   0  0  0  0  0  0  0  0  0  0  0  0
   -7.5908   -0.4825   -0.0283 C   0  0  0  0  0  0  0  0  0  0  0  0
   -8.8657    0.3511   -0.0601 C   0  0  0  0  0  0  0  0  0  0  0  0
  -10.1386   -0.4871   -0.0486 C   0  0  0  0  0  0  0  0  0  0  0  0
  -11.4019    0.3622   -0.0829 C   0  0  0  0  0  0  0  0  0  0  0  0
   10.1883   -0.8961    1.1163 H   0  0  0  0  0  0  0  0  0  0  0  0
    8.9017    1.2597    0.9270 H   0  0  0  0  0  0  0  0  0  0  0  0
    8.9688    1.1609   -0.8378 H   0  0  0  0  0  0  0  0  0  0  0  0
    7.6949   -1.0109   -0.7241 H   0  0  0  0  0  0  0  0  0  0  0  0
    7.6853   -0.9213    1.0264 H   0  0  0  0  0  0  0  0  0  0  0  0
    6.3787    1.2036    0.9176 H   0  0  0  0  0  0  0  0  0  0  0  0
    6.3953    1.1319   -0.8325 H   0  0  0  0  0  0  0  0  0  0  0  0
    5.1561   -1.0407   -0.7584 H   0  0  0  0  0  0  0  0  0  0  0  0
    5.1407   -0.9750    0.9915 H   0  0  0  0  0  0  0  0  0  0  0  0
    3.8356    1.1597    0.9004 H   0  0  0  0  0  0  0  0  0  0  0  0
    3.8536    1.0974   -0.8491 H   0  0  0  0  0  0  0  0  0  0  0  0
    2.6103   -1.0745   -0.7856 H   0  0  0  0  0  0  0  0  0  0  0  0
    2.5946   -1.0158    0.9640 H   0  0  0  0  0  0  0  0  0  0  0  0
    1.2925    1.1209    0.8822 H   0  0  0  0  0  0  0  0  0  0  0  0
    1.3109    1.0667   -0.8673 H   0  0  0  0  0  0  0  0  0  0  0  0
    0.0638   -1.1035   -0.8142 H   0  0  0  0  0  0  0  0  0  0  0  0
    0.0473   -1.0526    0.9355 H   0  0  0  0  0  0  0  0  0  0  0  0
   -1.2498    1.0880    0.8620 H   0  0  0  0  0  0  0  0  0  0  0  0
   -1.2324    1.0396   -0.8876 H   0  0  0  0  0  0  0  0  0  0  0  0
   -2.4835   -1.1294   -0.8398 H   0  0  0  0  0  0  0  0  0  0  0  0
   -2.4998   -1.0817    0.9101 H   0  0  0  0  0  0  0  0  0  0  0  0
   -3.7921    1.0613    0.8413 H   0  0  0  0  0  0  0  0  0  0  0  0
   -3.7753    1.0168   -0.9084 H   0  0  0  0  0  0  0  0  0  0  0  0
   -5.0324   -1.1479   -0.8664 H   0  0  0  0  0  0  0  0  0  0  0  0
   -5.0470   -1.1068    0.8837 H   0  0  0  0  0  0  0  0  0  0  0  0
   -6.3333    1.0410    0.8229 H   0  0  0  0  0  0  0  0  0  0  0  0
   -6.3184    1.0010   -0.9270 H   0  0  0  0  0  0  0  0  0  0  0  0
   -7.5798   -1.1623   -0.8879 H   0  0  0  0  0  0  0  0  0  0  0  0
   -7.5963   -1.1213    0.8623 H   0  0  0  0  0  0  0  0  0  0  0  0
   -8.8751    1.0336    0.7974 H   0  0  0  0  0  0  0  0  0  0  0  0
   -8.8609    0.9878   -0.9519 H   0  0  0  0  0  0  0  0  0  0  0  0
  -10.1304   -1.1687   -0.9049 H   0  0  0  0  0  0  0  0  0  0  0  0
  -10.1457   -1.1216    0.8434 H   0  0  0  0  0  0  0  0  0  0  0  0
  -12.3030   -0.2524   -0.0760 H   0  0  0  0  0  0  0  0  0  0  0  0
  -11.4505    1.0294    0.7800 H   0  0  0  0  0  0  0  0  0  0  0  0
  -11.4327    0.9832   -0.9804 H   0  0  0  0  0  0  0  0  0  0  0  0
  2  1  2  0
  1  3  1  0
  3  4  1  0
  4  5  1  0
  5  6  1  0
  6  7  1  0
  7  8  1  0
 15 14  1  0
 15 16  1  0
  8  9  1  0
  9 10  1  0
 17 16  1  0
 17 18  1  0
 14 13  1  0
 13 12  1  0
 19 18  1  0
 10 11  1  0
 12 11  1  0
  1 20  1  0
  3 21  1  0
  3 22  1  0
  4 23  1  0
  4 24  1  0
  5 25  1  0
  5 26  1  0
  6 27  1  0
  6 28  1  0
  7 29  1  0
  7 30  1  0
  8 31  1  0
  8 32  1  0
  9 33  1  0
  9 34  1  0
 10 35  1  0
 10 36  1  0
 11 37  1  0
 11 38  1  0
 12 39  1  0
 12 40  1  0
 13 41  1  0
 13 42  1  0
 14 43  1  0
 14 44  1  0
 15 45  1  0
 15 46  1  0
 16 47  1  0
 16 48  1  0
 17 49  1  0
 17 50  1  0
 18 51  1  0
 18 52  1  0
 19 53  1  0
 19 54  1  0
 19 55  1  0
M  END
