
     RDKit          3D

 52 55  0  0  0  0  0  0  0  0999 V2000
   -1.0596   -0.2881   -0.3486 C   0  0  0  0  0  0  0  0  0  0  0  0
   -4.0680   -1.1287    0.1296 C   0  0  0  0  0  0  0  0  0  0  0  0
   -5.5024   -3.0398    0.0387 C   0  0  0  0  0  0  0  0  0  0  0  0
   -4.3884   -2.3584    2.0247 C   0  0  0  0  0  0  0  0  0  0  0  0
   -1.4290    4.2502   -1.2214 C   0  0  0  0  0  0  0  0  0  0  0  0
   -0.6190    5.1221   -0.5090 C   0  0  0  0  0  0  0  0  0  0  0  0
   -0.2529    4.7653    0.7798 C   0  0  0  0  0  0  0  0  0  0  0  0
    7.7027   -0.4043    0.4372 C   0  0  0  0  0  0  0  0  0  0  0  0
    5.3737   -0.0393    0.6982 C   0  0  0  0  0  0  0  0  0  0  0  0
    4.3466    0.6231    1.3761 C   0  0  0  0  0  0  0  0  0  0  0  0
    3.0283    0.3912    1.0427 C   0  0  0  0  0  0  0  0  0  0  0  0
    5.0449   -0.9407   -0.3120 C   0  0  0  0  0  0  0  0  0  0  0  0
    3.7137   -1.1637   -0.6312 C   0  0  0  0  0  0  0  0  0  0  0  0
    2.6782   -0.5052    0.0274 C   0  0  0  0  0  0  0  0  0  0  0  0
    1.2736   -0.7595   -0.3572 C   0  0  0  0  0  0  0  0  0  0  0  0
    0.2369    0.0335    0.1006 C   0  0  0  0  0  0  0  0  0  0  0  0
    1.0660   -1.7850   -1.1876 N   0  0  0  0  0  0  0  0  0  0  0  0
   -0.1930   -2.0008   -1.5612 C   0  0  0  0  0  0  0  0  0  0  0  0
   -0.4172   -3.0598   -2.3765 N   0  0  0  0  0  0  0  0  0  0  0  0
   -1.2620   -1.3048   -1.1838 N   0  0  0  0  0  0  0  0  0  0  0  0
   -2.1491    0.4148    0.0299 N   0  0  0  0  0  0  0  0  0  0  0  0
   -2.0586    1.4478    1.0286 C   0  0  0  0  0  0  0  0  0  0  0  0
   -1.5160    2.7550    0.4980 C   0  0  0  0  0  0  0  0  0  0  0  0
   -1.8693    3.0962   -0.7356 N   0  0  0  0  0  0  0  0  0  0  0  0
   -0.7088    3.5612    1.2928 C   0  0  0  0  0  0  0  0  0  0  0  0
   -3.4383    0.0798   -0.5197 C   0  0  0  0  0  0  0  0  0  0  0  0
   -3.8175   -1.3236    1.4182 N   0  0  0  0  0  0  0  0  0  0  0  0
   -5.2398   -3.2456    1.3859 C   0  0  0  0  0  0  0  0  0  0  0  0
   -4.9045   -1.9669   -0.6006 C   0  0  0  0  0  0  0  0  0  0  0  0
   -6.1553   -3.7091   -0.5062 H   0  0  0  0  0  0  0  0  0  0  0  0
   -4.1567   -2.4873    3.0765 H   0  0  0  0  0  0  0  0  0  0  0  0
   -1.7363    4.4953   -2.2322 H   0  0  0  0  0  0  0  0  0  0  0  0
   -0.2845    6.0481   -0.9559 H   0  0  0  0  0  0  0  0  0  0  0  0
    0.3833    5.4087    1.3730 H   0  0  0  0  0  0  0  0  0  0  0  0
    8.6126   -0.0326    0.9014 H   0  0  0  0  0  0  0  0  0  0  0  0
    7.6571   -1.4881    0.5685 H   0  0  0  0  0  0  0  0  0  0  0  0
    7.7353   -0.1791   -0.6315 H   0  0  0  0  0  0  0  0  0  0  0  0
    4.5907    1.3177    2.1700 H   0  0  0  0  0  0  0  0  0  0  0  0
    2.2696    0.9198    1.6048 H   0  0  0  0  0  0  0  0  0  0  0  0
    5.8064   -1.4769   -0.8616 H   0  0  0  0  0  0  0  0  0  0  0  0
    3.4777   -1.8653   -1.4194 H   0  0  0  0  0  0  0  0  0  0  0  0
    0.4205    0.8797    0.7408 H   0  0  0  0  0  0  0  0  0  0  0  0
    0.3707   -3.4467   -2.8669 H   0  0  0  0  0  0  0  0  0  0  0  0
   -1.3002   -3.0999   -2.8559 H   0  0  0  0  0  0  0  0  0  0  0  0
   -3.0605    1.6178    1.4258 H   0  0  0  0  0  0  0  0  0  0  0  0
   -1.4658    1.1106    1.8829 H   0  0  0  0  0  0  0  0  0  0  0  0
   -0.4368    3.2471    2.2926 H   0  0  0  0  0  0  0  0  0  0  0  0
   -3.3618   -0.0796   -1.5951 H   0  0  0  0  0  0  0  0  0  0  0  0
   -4.0947    0.9414   -0.3815 H   0  0  0  0  0  0  0  0  0  0  0  0
   -5.6787   -4.0713    1.9287 H   0  0  0  0  0  0  0  0  0  0  0  0
   -5.0773   -1.7804   -1.6528 H   0  0  0  0  0  0  0  0  0  0  0  0
    6.6267    0.2501    1.0825 O   0  0  0  0  0  0  0  0  0  0  0  0
 19 18  1  0
  8 52  1  0
 12 13  1  0
 12  9  2  0
 13 14  2  0
 17 18  2  0
 17 15  1  0
 18 20  1  0
 52  9  1  0
  9 10  1  0
 14 15  1  0
 14 11  1  0
 15 16  2  0
 20  1  2  0
 10 11  2  0
 16  1  1  0
  1 21  1  0
  7 25  2  0
  7  6  1  0
 25 23  1  0
  6  5  2  0
 23 22  1  0
 23 24  2  0
 21 22  1  0
 21 26  1  0
  5 24  1  0
 26  2  1  0
 27  2  2  0
 27  4  1  0
  2 29  1  0
  4 28  2  0
 29  3  2  0
 28  3  1  0
  3 30  1  0
  4 31  1  0
  5 32  1  0
  6 33  1  0
  7 34  1  0
  8 35  1  0
  8 36  1  0
  8 37  1  0
 10 38  1  0
 11 39  1  0
 12 40  1  0
 13 41  1  0
 16 42  1  0
 19 43  1  0
 19 44  1  0
 22 45  1  0
 22 46  1  0
 25 47  1  0
 26 48  1  0
 26 49  1  0
 28 50  1  0
 29 51  1  0
M  END
