
     RDKit          3D

 99104  0  0  0  0  0  0  0  0999 V2000
    7.9255   -5.4896    2.0284 C   0  0  0  0  0  0  0  0  0  0  0  0
    6.9846   -6.4353    1.5691 O   0  0  0  0  0  0  0  0  0  0  0  0
    5.9333   -5.7983    0.8786 C   0  0  0  0  0  0  0  0  0  0  0  0
    6.4478   -4.9750   -0.2870 C   0  0  0  0  0  0  0  0  0  0  0  0
    7.4094   -3.9940    0.1824 N   0  0  0  0  0  0  0  0  0  0  0  0
    8.4873   -4.6635    0.8877 C   0  0  0  0  0  0  0  0  0  0  0  0
    7.9125   -3.1404   -0.8741 C   0  0  0  0  0  0  0  0  0  0  0  0
    6.8796   -2.1719   -1.4069 C   0  0  0  0  0  0  0  0  0  0  0  0
    6.4880   -1.3157   -0.3506 O   0  0  0  0  0  0  0  0  0  0  0  0
    5.3914   -0.5446   -0.4901 C   0  0  0  0  0  0  0  0  0  0  0  0
    4.9643    0.1192    0.6532 C   0  0  0  0  0  0  0  0  0  0  0  0
    3.8234    0.9129    0.5674 C   0  0  0  0  0  0  0  0  0  0  0  0
    3.1417    1.0209   -0.6465 C   0  0  0  0  0  0  0  0  0  0  0  0
    3.5589    0.3861   -1.7980 C   0  0  0  0  0  0  0  0  0  0  0  0
    4.6973   -0.3977   -1.7066 C   0  0  0  0  0  0  0  0  0  0  0  0
    3.0663    1.6940    1.4994 C   0  0  0  0  0  0  0  0  0  0  0  0
    2.0198    2.1911    0.8013 C   0  0  0  0  0  0  0  0  0  0  0  0
    2.0463    1.8021   -0.5002 O   0  0  0  0  0  0  0  0  0  0  0  0
    0.8930    3.0139    1.2818 C   0  0  0  0  0  0  0  0  0  0  0  0
    0.8514    3.3532    2.4560 O   0  0  0  0  0  0  0  0  0  0  0  0
   -0.0303    3.3268    0.3592 N   0  0  0  0  0  0  0  0  0  0  0  0
   -1.2761    3.9885    0.6598 C   0  0  1  0  0  0  0  0  0  0  0  0
   -1.5010    5.2108   -0.2374 C   0  0  0  0  0  0  0  0  0  0  0  0
   -0.4360    6.3003   -0.1167 C   0  0  1  0  0  0  0  0  0  0  0  0
   -0.7355    7.4137   -1.1165 C   0  0  0  0  0  0  0  0  0  0  0  0
   -0.3377    6.8583    1.2994 C   0  0  0  0  0  0  0  0  0  0  0  0
   -2.4175    3.0021    0.4346 C   0  0  0  0  0  0  0  0  0  0  0  0
   -2.3867    2.1964   -0.4832 O   0  0  0  0  0  0  0  0  0  0  0  0
   -3.4510    3.0982    1.2839 N   0  0  0  0  0  0  0  0  0  0  0  0
   -4.6313    2.3068    1.0725 C   0  0  1  0  0  0  0  0  0  0  0  0
   -6.5017    1.9194   -0.6834 C   0  0  0  0  0  0  0  0  0  0  0  0
   -6.6609    0.6724    0.0202 N   0  0  0  0  0  0  0  0  0  0  0  0
   -7.3407    0.7433    1.3082 C   0  0  0  0  0  0  0  0  0  0  0  0
   -6.3854    1.0400    2.4576 C   0  0  0  0  0  0  0  0  0  0  0  0
   -5.5582    2.3137    2.3040 C   0  0  0  0  0  0  0  0  0  0  0  0
   -6.0015   -0.4647   -0.3229 C   0  0  0  0  0  0  0  0  0  0  0  0
   -6.1091   -1.4887    0.3286 O   0  0  0  0  0  0  0  0  0  0  0  0
   -5.1147   -0.4024   -1.5616 C   0  0  0  0  0  0  0  0  0  0  0  0
   -4.1998   -1.5869   -1.6564 C   0  0  0  0  0  0  0  0  0  0  0  0
   -4.6325   -2.7905   -2.2040 C   0  0  0  0  0  0  0  0  0  0  0  0
   -3.7651   -3.8691   -2.2888 C   0  0  0  0  0  0  0  0  0  0  0  0
   -2.4594   -3.7568   -1.8332 C   0  0  0  0  0  0  0  0  0  0  0  0
   -2.0067   -2.5583   -1.2838 C   0  0  0  0  0  0  0  0  0  0  0  0
   -2.8940   -1.4849   -1.1956 C   0  0  0  0  0  0  0  0  0  0  0  0
   -0.6170   -2.4060   -0.7992 C   0  0  0  0  0  0  0  0  0  0  0  0
    0.4287   -3.1697   -1.3199 C   0  0  0  0  0  0  0  0  0  0  0  0
    1.7090   -2.9805   -0.8275 C   0  0  0  0  0  0  0  0  0  0  0  0
    1.9164   -2.0342    0.1629 C   0  0  0  0  0  0  0  0  0  0  0  0
    0.8191   -1.3131    0.6086 C   0  0  0  0  0  0  0  0  0  0  0  0
   -0.4097   -1.4907    0.1469 N   0  0  0  0  0  0  0  0  0  0  0  0
   -5.3852    2.8028   -0.1557 C   0  0  0  0  0  0  0  0  0  0  0  0
    8.7259   -6.0386    2.5265 H   0  0  0  0  0  0  0  0  0  0  0  0
    7.4635   -4.8190    2.7669 H   0  0  0  0  0  0  0  0  0  0  0  0
    5.2586   -6.5762    0.5180 H   0  0  0  0  0  0  0  0  0  0  0  0
    5.3670   -5.1462    1.5589 H   0  0  0  0  0  0  0  0  0  0  0  0
    5.5946   -4.4782   -0.7540 H   0  0  0  0  0  0  0  0  0  0  0  0
    6.8886   -5.6422   -1.0483 H   0  0  0  0  0  0  0  0  0  0  0  0
    9.0768   -5.3129    0.2175 H   0  0  0  0  0  0  0  0  0  0  0  0
    9.1714   -3.9165    1.2982 H   0  0  0  0  0  0  0  0  0  0  0  0
    8.2968   -3.7169   -1.7319 H   0  0  0  0  0  0  0  0  0  0  0  0
    8.7592   -2.5717   -0.4810 H   0  0  0  0  0  0  0  0  0  0  0  0
    6.0150   -2.7077   -1.8114 H   0  0  0  0  0  0  0  0  0  0  0  0
    7.3180   -1.5993   -2.2317 H   0  0  0  0  0  0  0  0  0  0  0  0
    5.5029    0.0055    1.5855 H   0  0  0  0  0  0  0  0  0  0  0  0
    3.0261    0.4826   -2.7343 H   0  0  0  0  0  0  0  0  0  0  0  0
    5.0427   -0.8968   -2.6012 H   0  0  0  0  0  0  0  0  0  0  0  0
    3.2693    1.8505    2.5462 H   0  0  0  0  0  0  0  0  0  0  0  0
    0.0656    2.9592   -0.5757 H   0  0  0  0  0  0  0  0  0  0  0  0
   -1.2514    4.2948    1.7058 H   0  0  0  0  0  0  0  0  0  0  0  0
   -2.4820    5.6312    0.0050 H   0  0  0  0  0  0  0  0  0  0  0  0
   -1.5595    4.8731   -1.2771 H   0  0  0  0  0  0  0  0  0  0  0  0
    0.5328    5.8645   -0.3830 H   0  0  0  0  0  0  0  0  0  0  0  0
    0.0371    8.1834   -1.0914 H   0  0  0  0  0  0  0  0  0  0  0  0
   -0.7886    7.0288   -2.1366 H   0  0  0  0  0  0  0  0  0  0  0  0
   -1.6909    7.8941   -0.8933 H   0  0  0  0  0  0  0  0  0  0  0  0
   -0.0381    6.0993    2.0232 H   0  0  0  0  0  0  0  0  0  0  0  0
    0.3992    7.6614    1.3505 H   0  0  0  0  0  0  0  0  0  0  0  0
   -1.2967    7.2686    1.6255 H   0  0  0  0  0  0  0  0  0  0  0  0
   -3.4596    3.8202    1.9868 H   0  0  0  0  0  0  0  0  0  0  0  0
   -4.3095    1.2763    0.8982 H   0  0  0  0  0  0  0  0  0  0  0  0
   -6.3446    1.7643   -1.7509 H   0  0  0  0  0  0  0  0  0  0  0  0
   -7.4341    2.4868   -0.6158 H   0  0  0  0  0  0  0  0  0  0  0  0
   -7.8650   -0.1924    1.4933 H   0  0  0  0  0  0  0  0  0  0  0  0
   -8.0988    1.5251    1.2351 H   0  0  0  0  0  0  0  0  0  0  0  0
   -5.7087    0.1920    2.5917 H   0  0  0  0  0  0  0  0  0  0  0  0
   -6.9731    1.1154    3.3750 H   0  0  0  0  0  0  0  0  0  0  0  0
   -4.9252    2.4074    3.1888 H   0  0  0  0  0  0  0  0  0  0  0  0
   -6.2028    3.1976    2.2911 H   0  0  0  0  0  0  0  0  0  0  0  0
   -5.7565   -0.3383   -2.4466 H   0  0  0  0  0  0  0  0  0  0  0  0
   -4.5125    0.5093   -1.5579 H   0  0  0  0  0  0  0  0  0  0  0  0
   -5.6468   -2.8836   -2.5727 H   0  0  0  0  0  0  0  0  0  0  0  0
   -4.1074   -4.8057   -2.7092 H   0  0  0  0  0  0  0  0  0  0  0  0
   -1.8023   -4.6149   -1.8943 H   0  0  0  0  0  0  0  0  0  0  0  0
   -2.5471   -0.5465   -0.7785 H   0  0  0  0  0  0  0  0  0  0  0  0
    0.2545   -3.8878   -2.1095 H   0  0  0  0  0  0  0  0  0  0  0  0
    2.5334   -3.5597   -1.2229 H   0  0  0  0  0  0  0  0  0  0  0  0
    2.8989   -1.8469    0.5734 H   0  0  0  0  0  0  0  0  0  0  0  0
    0.9367   -0.5607    1.3813 H   0  0  0  0  0  0  0  0  0  0  0  0
   -5.1481    3.8637   -0.6745 O   0  0  0  0  0  0  0  0  0  0  0  0
  1  2  1  0
  1  6  1  0
  1 52  1  0
  1 53  1  0
  2  3  1  0
  3  4  1  0
  3 54  1  0
  3 55  1  0
  4  5  1  0
  4 56  1  0
  4 57  1  0
  5  6  1  0
  5  7  1  0
  6 58  1  0
  6 59  1  0
  7  8  1  0
  7 60  1  0
  7 61  1  0
  8  9  1  0
  8 62  1  0
  8 63  1  0
  9 10  1  0
 10 11  2  0
 10 15  1  0
 11 12  1  0
 11 64  1  0
 12 13  2  0
 12 16  1  0
 13 14  1  0
 13 18  1  0
 14 15  2  0
 14 65  1  0
 15 66  1  0
 16 17  2  0
 16 67  1  0
 17 18  1  0
 17 19  1  0
 19 20  2  0
 19 21  1  0
 21 22  1  0
 21 68  1  0
 22 23  1  0
 22 27  1  0
 22 69  1  1
 23 24  1  0
 23 70  1  0
 23 71  1  0
 24 25  1  0
 24 26  1  0
 24 72  1  6
 25 73  1  0
 25 74  1  0
 25 75  1  0
 26 76  1  0
 26 77  1  0
 26 78  1  0
 27 28  2  0
 27 29  1  0
 29 30  1  0
 29 79  1  0
 30 35  1  0
 30 51  1  0
 30 80  1  6
 99 51  2  0
 31 32  1  0
 31 51  1  0
 31 81  1  0
 31 82  1  0
 32 33  1  0
 32 36  1  0
 33 34  1  0
 33 83  1  0
 33 84  1  0
 34 35  1  0
 34 85  1  0
 34 86  1  0
 35 87  1  0
 35 88  1  0
 36 37  2  0
 36 38  1  0
 38 39  1  0
 38 89  1  0
 38 90  1  0
 39 40  2  0
 39 44  1  0
 40 41  1  0
 40 91  1  0
 41 42  2  0
 41 92  1  0
 42 43  1  0
 42 93  1  0
 43 44  2  0
 43 45  1  0
 44 94  1  0
 45 46  2  0
 45 50  1  0
 46 47  1  0
 46 95  1  0
 47 48  2  0
 47 96  1  0
 48 49  1  0
 48 97  1  0
 49 50  2  0
 49 98  1  0
M  END
