
     RDKit          3D

 19 19  0  0  0  0  0  0  0  0999 V2000
   -0.4568   -2.6759    0.2112 Cl  0  0  0  0  0  0  0  0  0  0  0  0
    3.8611    0.0021   -1.0569 O   0  0  0  0  0  0  0  0  0  0  0  0
    0.6946    0.0043    0.4914 O   0  0  0  0  0  0  0  0  0  0  0  0
   -0.4584    2.6825    0.1996 Cl  0  0  0  0  0  0  0  0  0  0  0  0
    3.2650    0.0061    1.1012 O   0  0  0  0  0  0  0  0  0  0  0  0
    2.9834    0.0041   -0.0658 C   0  0  0  0  0  0  0  0  0  0  0  0
    1.5776    0.0026   -0.6109 C   0  0  0  0  0  0  0  0  0  0  0  0
   -3.3465    0.0011   -0.3915 C   0  0  0  0  0  0  0  0  0  0  0  0
   -2.6739   -1.2031   -0.2510 C   0  0  0  0  0  0  0  0  0  0  0  0
   -1.3159   -1.1917    0.0220 C   0  0  0  0  0  0  0  0  0  0  0  0
   -0.6168    0.0033    0.1715 C   0  0  0  0  0  0  0  0  0  0  0  0
   -1.3167    1.1969    0.0166 C   0  0  0  0  0  0  0  0  0  0  0  0
   -2.6747    1.2063   -0.2568 C   0  0  0  0  0  0  0  0  0  0  0  0
    4.7652    0.0028   -0.7070 H   0  0  0  0  0  0  0  0  0  0  0  0
    1.4378   -0.8815   -1.2429 H   0  0  0  0  0  0  0  0  0  0  0  0
    1.4367    0.8841   -1.2464 H   0  0  0  0  0  0  0  0  0  0  0  0
   -4.4071    0.0000   -0.6011 H   0  0  0  0  0  0  0  0  0  0  0  0
   -3.1981   -2.1426   -0.3580 H   0  0  0  0  0  0  0  0  0  0  0  0
   -3.1988    2.1452   -0.3686 H   0  0  0  0  0  0  0  0  0  0  0  0
  1 10  1  0
  2  6  1  0
  2 14  1  0
  3  7  1  0
  3 11  1  0
  4 12  1  0
  5  6  2  0
  6  7  1  0
  7 15  1  0
  7 16  1  0
  8  9  2  0
  8 13  1  0
  8 17  1  0
  9 10  1  0
  9 18  1  0
 10 11  2  0
 11 12  1  0
 12 13  2  0
 13 19  1  0
M  END
