
     RDKit          3D

 40 42  0  0  0  0  0  0  0  0999 V2000
   -0.4857    2.1010    2.4611 C   0  0  0  0  0  0  0  0  0  0  0  0
   -0.4312    1.7788    1.0831 O   0  0  0  0  0  0  0  0  0  0  0  0
   -1.3284    0.9301    0.5798 C   0  0  0  0  0  0  0  0  0  0  0  0
   -2.3814    0.3973    1.3084 C   0  0  0  0  0  0  0  0  0  0  0  0
   -3.2241   -0.4623    0.6179 C   0  0  0  0  0  0  0  0  0  0  0  0
   -4.2989   -1.0908    1.1055 O   0  0  0  0  0  0  0  0  0  0  0  0
   -4.8709   -1.8380    0.0927 N   0  0  0  0  0  0  0  0  0  0  0  0
   -4.1631   -1.6700   -0.9783 C   0  0  0  0  0  0  0  0  0  0  0  0
   -4.5082   -2.3350   -2.2591 C   0  0  0  0  0  0  0  0  0  0  0  0
   -3.0687   -0.7861   -0.7179 C   0  0  0  0  0  0  0  0  0  0  0  0
   -2.0152   -0.2392   -1.4466 C   0  0  0  0  0  0  0  0  0  0  0  0
   -1.1460    0.6078   -0.7972 C   0  0  0  0  0  0  0  0  0  0  0  0
   -0.0564    1.1607   -1.5138 N   0  0  0  0  0  0  0  0  0  0  0  0
    1.3208    0.2493   -1.6858 S   0  0  1  0  0  0  0  0  0  0  0  0
    0.8985   -1.0743   -2.1068 O   0  0  0  0  0  0  0  0  0  0  0  0
    2.2129    1.0186   -2.5299 O   0  0  0  0  0  0  0  0  0  0  0  0
    2.0211    0.0790   -0.0658 C   0  0  0  0  0  0  0  0  0  0  0  0
    2.0253   -1.1731    0.5266 C   0  0  0  0  0  0  0  0  0  0  0  0
    2.5502   -1.3131    1.7996 C   0  0  0  0  0  0  0  0  0  0  0  0
    2.5595   -2.8723    2.5515 Cl  0  0  0  0  0  0  0  0  0  0  0  0
    3.0651   -0.2183    2.4718 C   0  0  0  0  0  0  0  0  0  0  0  0
    3.0543    1.0339    1.8778 C   0  0  0  0  0  0  0  0  0  0  0  0
    2.5251    1.2042    0.6018 C   0  0  0  0  0  0  0  0  0  0  0  0
    2.4432    2.3721   -0.0329 O   0  0  0  0  0  0  0  0  0  0  0  0
    2.9162    3.5443    0.6110 C   0  0  0  0  0  0  0  0  0  0  0  0
   -1.4123    2.6196    2.7168 H   0  0  0  0  0  0  0  0  0  0  0  0
   -0.3864    1.2109    3.0861 H   0  0  0  0  0  0  0  0  0  0  0  0
    0.3523    2.7648    2.6549 H   0  0  0  0  0  0  0  0  0  0  0  0
   -2.5482    0.6281    2.3509 H   0  0  0  0  0  0  0  0  0  0  0  0
   -4.6775   -1.5915   -3.0384 H   0  0  0  0  0  0  0  0  0  0  0  0
   -3.6877   -2.9726   -2.5889 H   0  0  0  0  0  0  0  0  0  0  0  0
   -5.4037   -2.9440   -2.1592 H   0  0  0  0  0  0  0  0  0  0  0  0
   -1.8753   -0.4577   -2.4962 H   0  0  0  0  0  0  0  0  0  0  0  0
    0.1485    2.1393   -1.3369 H   0  0  0  0  0  0  0  0  0  0  0  0
    1.6237   -2.0292    0.0033 H   0  0  0  0  0  0  0  0  0  0  0  0
    3.4783   -0.3300    3.4650 H   0  0  0  0  0  0  0  0  0  0  0  0
    3.4612    1.8702    2.4287 H   0  0  0  0  0  0  0  0  0  0  0  0
    3.9835    3.4788    0.8309 H   0  0  0  0  0  0  0  0  0  0  0  0
    2.7462    4.3610   -0.0842 H   0  0  0  0  0  0  0  0  0  0  0  0
    2.3713    3.7451    1.5360 H   0  0  0  0  0  0  0  0  0  0  0  0
  9  8  1  0
  8  7  2  0
  8 10  1  0
  7  6  1  0
 10 11  2  0
 10  5  1  0
 11 12  1  0
  6  5  1  0
  5  4  2  0
 15 14  2  0
 12 13  1  0
 12  3  2  0
 14 13  1  1
  4  3  1  0
  3  2  1  0
 14 16  2  0
 14 17  1  0
  2  1  1  0
 17 18  2  0
 17 23  1  0
 18 19  1  0
 24 23  1  0
 24 25  1  0
 23 22  2  0
 19 20  1  0
 19 21  2  0
 22 21  1  0
  1 26  1  0
  1 27  1  0
  1 28  1  0
  4 29  1  0
  9 30  1  0
  9 31  1  0
  9 32  1  0
 11 33  1  0
 13 34  1  0
 18 35  1  0
 21 36  1  0
 22 37  1  0
 25 38  1  0
 25 39  1  0
 25 40  1  0
M  END
