
     RDKit          3D

 56 55  0  0  0  0  0  0  0  0999 V2000
   -3.6463    0.5571   -0.2843 C   0  0  2  0  0  0  0  0  0  0  0  0
   -4.8315    1.5234   -0.5075 C   0  0  1  0  0  0  0  0  0  0  0  0
   -4.3619    2.9747   -0.4787 C   0  0  0  0  0  0  0  0  0  0  0  0
   -5.5373    1.2332   -1.8308 C   0  0  0  0  0  0  0  0  0  0  0  0
    0.5489   -1.9718   -0.5836 C   0  0  1  0  0  0  0  0  0  0  0  0
    0.3572   -1.5166   -2.0256 C   0  0  0  0  0  0  0  0  0  0  0  0
    3.9832    0.5855    0.3593 C   0  0  2  0  0  0  0  0  0  0  0  0
    5.2052   -0.0851    1.0217 C   0  0  1  0  0  0  0  0  0  0  0  0
    5.5937   -1.4150    0.3811 C   0  0  0  0  0  0  0  0  0  0  0  0
   -4.1291   -0.8732   -0.3320 C   0  0  0  0  0  0  0  0  0  0  0  0
   -4.7652   -1.3921    0.5571 O   0  0  0  0  0  0  0  0  0  0  0  0
   -2.9204    0.8108    1.0571 C   0  0  1  0  0  0  0  0  0  0  0  0
   -3.7700    0.8281    2.1577 O   0  0  0  0  0  0  0  0  0  0  0  0
   -1.7709   -0.1901    1.2586 C   0  0  0  0  0  0  0  0  0  0  0  0
   -1.7823   -1.0074    2.1617 O   0  0  0  0  0  0  0  0  0  0  0  0
   -0.7836   -0.0788    0.3523 N   0  0  0  0  0  0  0  0  0  0  0  0
    0.4630   -0.7996    0.4192 C   0  0  2  0  0  0  0  0  0  0  0  0
    1.5976    0.1913    0.1778 C   0  0  0  0  0  0  0  0  0  0  0  0
    1.4198    1.2701   -0.3689 O   0  0  0  0  0  0  0  0  0  0  0  0
    2.8084   -0.2192    0.5762 N   0  0  0  0  0  0  0  0  0  0  0  0
    4.1885    0.7999   -1.1322 C   0  0  0  0  0  0  0  0  0  0  0  0
    3.8834    0.0062   -1.9835 O   0  0  0  0  0  0  0  0  0  0  0  0
    4.7795    1.9601   -1.3808 O   0  0  0  0  0  0  0  0  0  0  0  0
   -2.9327    0.7167   -1.0980 H   0  0  0  0  0  0  0  0  0  0  0  0
   -5.5497    1.3761    0.3033 H   0  0  0  0  0  0  0  0  0  0  0  0
   -3.5814    3.1504   -1.2229 H   0  0  0  0  0  0  0  0  0  0  0  0
   -5.1941    3.6403   -0.7107 H   0  0  0  0  0  0  0  0  0  0  0  0
   -3.9740    3.2744    0.4944 H   0  0  0  0  0  0  0  0  0  0  0  0
   -6.0038    0.2475   -1.8557 H   0  0  0  0  0  0  0  0  0  0  0  0
   -6.3302    1.9630   -1.9965 H   0  0  0  0  0  0  0  0  0  0  0  0
   -4.8453    1.2996   -2.6733 H   0  0  0  0  0  0  0  0  0  0  0  0
    1.5563   -2.3879   -0.4837 H   0  0  0  0  0  0  0  0  0  0  0  0
   -0.6473   -1.1167   -2.1806 H   0  0  0  0  0  0  0  0  0  0  0  0
    1.0801   -0.7579   -2.3250 H   0  0  0  0  0  0  0  0  0  0  0  0
    0.4741   -2.3633   -2.7026 H   0  0  0  0  0  0  0  0  0  0  0  0
    3.8445    1.5634    0.8309 H   0  0  0  0  0  0  0  0  0  0  0  0
    4.8836   -0.2825    2.0501 H   0  0  0  0  0  0  0  0  0  0  0  0
    5.9989   -1.2802   -0.6228 H   0  0  0  0  0  0  0  0  0  0  0  0
    6.3652   -1.8966    0.9820 H   0  0  0  0  0  0  0  0  0  0  0  0
    4.7594   -2.1137    0.3099 H   0  0  0  0  0  0  0  0  0  0  0  0
   -2.4686    1.8059    0.9987 H   0  0  0  0  0  0  0  0  0  0  0  0
   -4.2460   -0.0112    2.1905 H   0  0  0  0  0  0  0  0  0  0  0  0
   -0.8134    0.6960   -0.2940 H   0  0  0  0  0  0  0  0  0  0  0  0
    0.5629   -1.2080    1.4283 H   0  0  0  0  0  0  0  0  0  0  0  0
   -1.4739   -2.7266   -0.3564 H   0  0  0  0  0  0  0  0  0  0  0  0
   -0.3052   -3.9296   -0.8828 H   0  0  0  0  0  0  0  0  0  0  0  0
   -0.3274   -3.4086    0.8019 H   0  0  0  0  0  0  0  0  0  0  0  0
    2.9020   -1.0982    1.0603 H   0  0  0  0  0  0  0  0  0  0  0  0
    4.9467    2.0511   -2.3313 H   0  0  0  0  0  0  0  0  0  0  0  0
    6.1345    1.8132    1.5420 H   0  0  0  0  0  0  0  0  0  0  0  0
    7.1827    0.4087    1.7145 H   0  0  0  0  0  0  0  0  0  0  0  0
    6.8378    1.0478    0.1154 H   0  0  0  0  0  0  0  0  0  0  0  0
   -3.7900   -1.5059   -1.4433 O   0  0  0  0  0  0  0  0  0  0  0  0
   -4.1441   -2.4091   -1.4373 H   0  0  0  0  0  0  0  0  0  0  0  0
   -0.4465   -3.0688   -0.2276 C   0  0  0  0  0  0  0  0  0  0  0  0
    6.4033    0.8547    1.0964 C   0  0  0  0  0  0  0  0  0  0  0  0
 11 10  2  0
 10  1  1  0
 13 12  1  0
  3  2  1  0
  1 12  1  0
  1  2  1  0
 12 14  1  0
  2  4  1  0
 14 15  2  0
 14 16  1  0
 16 17  1  0
  6  5  1  0
 17  5  1  0
 17 18  1  0
  5 55  1  0
 19 18  2  0
 18 20  1  0
  9  8  1  0
 20  7  1  0
  7  8  1  0
  7 21  1  0
  8 56  1  0
 22 21  2  0
 21 23  1  0
  1 24  1  6
  2 25  1  1
  3 26  1  0
  3 27  1  0
  3 28  1  0
  4 29  1  0
  4 30  1  0
  4 31  1  0
  5 32  1  6
  6 33  1  0
  6 34  1  0
  6 35  1  0
  7 36  1  1
  8 37  1  1
  9 38  1  0
  9 39  1  0
  9 40  1  0
 12 41  1  6
 13 42  1  0
 16 43  1  0
 17 44  1  1
 55 45  1  0
 55 46  1  0
 55 47  1  0
 20 48  1  0
 23 49  1  0
 56 50  1  0
 56 51  1  0
 56 52  1  0
 10 53  1  0
 53 54  1  0
M  END
