
     RDKit          3D

 50 52  0  0  0  0  0  0  0  0999 V2000
    8.5302    3.1850   -0.0674 C   0  0  0  0  0  0  0  0  0  0  0  0
    7.2004    2.7055   -0.0986 O   0  0  0  0  0  0  0  0  0  0  0  0
    6.9935    1.3782   -0.0091 C   0  0  0  0  0  0  0  0  0  0  0  0
    8.0076    0.4326    0.1266 C   0  0  0  0  0  0  0  0  0  0  0  0
    7.6712   -0.9132    0.2146 C   0  0  0  0  0  0  0  0  0  0  0  0
    6.3529   -1.3290    0.1752 C   0  0  0  0  0  0  0  0  0  0  0  0
    5.3330   -0.3828    0.0400 C   0  0  0  0  0  0  0  0  0  0  0  0
    5.6635    0.9635   -0.0579 C   0  0  0  0  0  0  0  0  0  0  0  0
    3.9120   -0.7899   -0.0106 C   0  0  0  0  0  0  0  0  0  0  0  0
    3.4769   -2.0112    0.5076 C   0  0  0  0  0  0  0  0  0  0  0  0
    2.1389   -2.3400    0.4221 C   0  0  0  0  0  0  0  0  0  0  0  0
    1.2478   -1.4388   -0.1502 C   0  0  0  0  0  0  0  0  0  0  0  0
    1.7764   -0.2461   -0.6341 C   0  0  0  0  0  0  0  0  0  0  0  0
    3.0591    0.0668   -0.5701 N   0  0  0  0  0  0  0  0  0  0  0  0
   -0.1943   -1.8065   -0.2675 C   0  0  0  0  0  0  0  0  0  0  0  0
   -0.5341   -2.9809   -0.3173 O   0  0  0  0  0  0  0  0  0  0  0  0
   -1.0588   -0.7808   -0.3250 N   0  0  0  0  0  0  0  0  0  0  0  0
   -2.4938   -0.9516   -0.4409 C   0  0  2  0  0  0  0  0  0  0  0  0
   -3.1044    0.2451   -1.1582 C   0  0  0  0  0  0  0  0  0  0  0  0
   -4.6155    0.1048   -1.2364 C   0  0  0  0  0  0  0  0  0  0  0  0
   -5.1933   -0.0628    0.0838 N   0  0  0  0  0  0  0  0  0  0  0  0
   -4.6723   -1.2303    0.7712 C   0  0  0  0  0  0  0  0  0  0  0  0
   -3.1621   -1.1398    0.9179 C   0  0  0  0  0  0  0  0  0  0  0  0
   -6.6333    0.0330    0.0989 C   0  0  0  0  0  0  0  0  0  0  0  0
   -7.0567    1.3136    0.7778 C   0  0  1  0  0  0  0  0  0  0  0  0
   -6.5735    2.4015    0.1597 F   0  0  0  0  0  0  0  0  0  0  0  0
   -8.3930    1.4434    0.8071 F   0  0  0  0  0  0  0  0  0  0  0  0
   -6.6309    1.3737    2.0474 F   0  0  0  0  0  0  0  0  0  0  0  0
    8.4706    4.2680   -0.1396 H   0  0  0  0  0  0  0  0  0  0  0  0
    9.0371    2.9211    0.8642 H   0  0  0  0  0  0  0  0  0  0  0  0
    9.1188    2.8082   -0.9079 H   0  0  0  0  0  0  0  0  0  0  0  0
    9.0501    0.7181    0.1628 H   0  0  0  0  0  0  0  0  0  0  0  0
    4.8824    1.7050   -0.1650 H   0  0  0  0  0  0  0  0  0  0  0  0
    8.4611   -1.6465    0.3099 H   0  0  0  0  0  0  0  0  0  0  0  0
    6.1300   -2.3859    0.2271 H   0  0  0  0  0  0  0  0  0  0  0  0
    4.1662   -2.6939    0.9838 H   0  0  0  0  0  0  0  0  0  0  0  0
    1.7874   -3.2856    0.8128 H   0  0  0  0  0  0  0  0  0  0  0  0
    1.1412    0.4858   -1.1225 H   0  0  0  0  0  0  0  0  0  0  0  0
   -0.7296    0.1450   -0.0985 H   0  0  0  0  0  0  0  0  0  0  0  0
   -2.6694   -1.8441   -1.0471 H   0  0  0  0  0  0  0  0  0  0  0  0
   -2.8515    1.1677   -0.6254 H   0  0  0  0  0  0  0  0  0  0  0  0
   -2.6982    0.3291   -2.1684 H   0  0  0  0  0  0  0  0  0  0  0  0
   -2.7891   -2.0461    1.3988 H   0  0  0  0  0  0  0  0  0  0  0  0
   -2.9112   -0.2947    1.5659 H   0  0  0  0  0  0  0  0  0  0  0  0
   -5.0348    0.9990   -1.6996 H   0  0  0  0  0  0  0  0  0  0  0  0
   -4.8658   -0.7414   -1.8992 H   0  0  0  0  0  0  0  0  0  0  0  0
   -5.1250   -1.2891    1.7624 H   0  0  0  0  0  0  0  0  0  0  0  0
   -4.9359   -2.1645    0.2466 H   0  0  0  0  0  0  0  0  0  0  0  0
   -7.0639    0.0138   -0.9077 H   0  0  0  0  0  0  0  0  0  0  0  0
   -7.0885   -0.8013    0.6398 H   0  0  0  0  0  0  0  0  0  0  0  0
  1  2  1  0
  2  3  1  0
  3  4  2  0
  3  8  1  0
  4  5  1  0
  5  6  2  0
  6  7  1  0
  7  8  2  0
  7  9  1  0
  9 10  2  0
  9 14  1  0
 10 11  1  0
 11 12  2  0
 12 13  1  0
 12 15  1  0
 13 14  2  0
 15 16  2  0
 15 17  1  0
 17 18  1  0
 18 19  1  0
 18 23  1  0
 19 20  1  0
 20 21  1  0
 21 22  1  0
 21 24  1  0
 22 23  1  0
 24 25  1  0
 25 26  1  6
 25 27  1  0
 25 28  1  0
  1 29  1  0
  1 30  1  0
  1 31  1  0
  4 32  1  0
  8 33  1  0
  5 34  1  0
  6 35  1  0
 10 36  1  0
 11 37  1  0
 13 38  1  0
 17 39  1  0
 18 40  1  6
 19 41  1  0
 19 42  1  0
 23 43  1  0
 23 44  1  0
 20 45  1  0
 20 46  1  0
 22 47  1  0
 22 48  1  0
 24 49  1  0
 24 50  1  0
M  END
