
     RDKit          3D

 20 20  0  0  0  0  0  0  0  0999 V2000
    2.5781    0.8678    0.0293 C   0  0  0  0  0  0  0  0  0  0  0  0
    1.1185    0.5725    0.0361 C   0  0  0  0  0  0  0  0  0  0  0  0
    0.1537    1.5699    0.0084 C   0  0  0  0  0  0  0  0  0  0  0  0
   -1.1888    1.2730    0.0149 C   0  0  0  0  0  0  0  0  0  0  0  0
   -1.6123   -0.0627    0.0511 C   0  0  0  0  0  0  0  0  0  0  0  0
   -2.9257   -0.4049    0.1082 N   0  0  0  0  0  0  0  0  0  0  0  0
   -0.6136   -1.0276    0.0725 C   0  0  0  0  0  0  0  0  0  0  0  0
    0.6881   -0.7013    0.0666 N   0  0  0  0  0  0  0  0  0  0  0  0
    1.6696   -1.7904    0.0911 C   0  0  0  0  0  0  0  0  0  0  0  0
    3.0763    0.4796    0.9190 H   0  0  0  0  0  0  0  0  0  0  0  0
    3.0755    0.4383   -0.8417 H   0  0  0  0  0  0  0  0  0  0  0  0
    2.7293    1.9435    0.0033 H   0  0  0  0  0  0  0  0  0  0  0  0
    0.4775    2.6001   -0.0206 H   0  0  0  0  0  0  0  0  0  0  0  0
   -1.9189    2.0716   -0.0067 H   0  0  0  0  0  0  0  0  0  0  0  0
   -3.5931    0.2815   -0.2029 H   0  0  0  0  0  0  0  0  0  0  0  0
   -3.1786   -1.3499   -0.1293 H   0  0  0  0  0  0  0  0  0  0  0  0
   -0.8440   -2.0821    0.0967 H   0  0  0  0  0  0  0  0  0  0  0  0
    2.2825   -1.7109    0.9850 H   0  0  0  0  0  0  0  0  0  0  0  0
    1.1490   -2.7408    0.0984 H   0  0  0  0  0  0  0  0  0  0  0  0
    2.3014   -1.7348   -0.7910 H   0  0  0  0  0  0  0  0  0  0  0  0
  1  2  1  0
  2  3  2  0
  2  8  1  0
  3  4  1  0
  4  5  2  0
  5  6  1  0
  5  7  1  0
  7  8  2  0
  8  9  1  0
  1 10  1  0
  1 11  1  0
  1 12  1  0
  3 13  1  0
  4 14  1  0
  6 15  1  0
  6 16  1  0
  7 17  1  0
  9 18  1  0
  9 19  1  0
  9 20  1  0
M  CHG  1   8   1
M  END
