
     RDKit          3D

 61 61  0  0  0  0  0  0  0  0999 V2000
    0.7670    1.0685   -0.9399 O   0  0  0  0  0  0  0  0  0  0  0  0
    0.8290    3.4028   -0.8877 C   0  0  0  0  0  0  0  0  0  0  0  0
    7.5139   -1.1212    0.4972 N   0  0  0  0  0  0  0  0  0  0  0  0
   -0.4967    3.4142   -0.3655 C   0  0  0  0  0  0  0  0  0  0  0  0
   -1.1683    2.2316   -0.1629 C   0  0  0  0  0  0  0  0  0  0  0  0
   -1.1034    4.5575   -0.1077 O   0  0  0  0  0  0  0  0  0  0  0  0
   -0.5097    0.9936   -0.4336 C   0  0  0  0  0  0  0  0  0  0  0  0
    1.4093    2.2192   -1.1636 C   0  0  0  0  0  0  0  0  0  0  0  0
   -2.5433    2.1932    0.4117 C   0  0  0  0  0  0  0  0  0  0  0  0
   -3.5777    1.4110   -0.3017 C   0  0  0  0  0  0  0  0  0  0  0  0
   -0.9464   -0.1183   -0.2505 O   0  0  0  0  0  0  0  0  0  0  0  0
   -4.6567    1.0232    0.4124 C   0  0  0  0  0  0  0  0  0  0  0  0
   -5.7559    0.2496   -0.1055 C   0  0  0  0  0  0  0  0  0  0  0  0
   -6.8251   -0.1730    0.5991 C   0  0  0  0  0  0  0  0  0  0  0  0
   -7.8857   -0.9961   -0.0745 C   0  0  0  0  0  0  0  0  0  0  0  0
   -7.7734   -2.4873    0.2608 C   0  0  0  0  0  0  0  0  0  0  0  0
   -8.8583   -3.3209   -0.4096 C   0  0  0  0  0  0  0  0  0  0  0  0
   -8.7437   -4.8024   -0.0785 C   0  0  0  0  0  0  0  0  0  0  0  0
   -3.4106    1.0949   -1.7615 C   0  0  0  0  0  0  0  0  0  0  0  0
   -7.0557    0.1001    2.0517 C   0  0  0  0  0  0  0  0  0  0  0  0
    2.7788    2.0388   -1.7122 C   0  0  0  0  0  0  0  0  0  0  0  0
    3.7480    1.4081   -0.7063 C   0  0  0  0  0  0  0  0  0  0  0  0
    5.1146    1.1556   -1.3439 C   0  0  0  0  0  0  0  0  0  0  0  0
    6.1173    0.6358   -0.3641 C   0  0  0  0  0  0  0  0  0  0  0  0
    6.5884   -0.6086   -0.4031 C   0  0  0  0  0  0  0  0  0  0  0  0
    7.9641   -2.3995    0.4498 C   0  0  0  0  0  0  0  0  0  0  0  0
    9.4060   -3.9257    1.5018 C   0  0  0  0  0  0  0  0  0  0  0  0
   -2.7820    2.8102    1.4347 O   0  0  0  0  0  0  0  0  0  0  0  0
    8.8424   -2.6192    1.4257 O   0  0  0  0  0  0  0  0  0  0  0  0
    7.6179   -3.2287   -0.3631 O   0  0  0  0  0  0  0  0  0  0  0  0
    1.3632    4.3237   -1.0780 H   0  0  0  0  0  0  0  0  0  0  0  0
    7.8743   -0.5110    1.2160 H   0  0  0  0  0  0  0  0  0  0  0  0
   -0.5366    5.3114   -0.3145 H   0  0  0  0  0  0  0  0  0  0  0  0
   -4.6885    1.2999    1.4597 H   0  0  0  0  0  0  0  0  0  0  0  0
   -5.7206   -0.0178   -1.1567 H   0  0  0  0  0  0  0  0  0  0  0  0
   -8.8741   -0.6369    0.2331 H   0  0  0  0  0  0  0  0  0  0  0  0
   -7.8246   -0.8707   -1.1584 H   0  0  0  0  0  0  0  0  0  0  0  0
   -6.7889   -2.8494   -0.0510 H   0  0  0  0  0  0  0  0  0  0  0  0
   -7.8275   -2.6326    1.3439 H   0  0  0  0  0  0  0  0  0  0  0  0
   -9.8407   -2.9511   -0.1006 H   0  0  0  0  0  0  0  0  0  0  0  0
   -8.8067   -3.1792   -1.4934 H   0  0  0  0  0  0  0  0  0  0  0  0
   -7.7804   -5.2060   -0.3960 H   0  0  0  0  0  0  0  0  0  0  0  0
   -8.8343   -4.9729    0.9958 H   0  0  0  0  0  0  0  0  0  0  0  0
   -9.5242   -5.3838   -0.5708 H   0  0  0  0  0  0  0  0  0  0  0  0
   -3.1744    0.0440   -1.9324 H   0  0  0  0  0  0  0  0  0  0  0  0
   -4.3246    1.3159   -2.3133 H   0  0  0  0  0  0  0  0  0  0  0  0
   -2.6189    1.6876   -2.2167 H   0  0  0  0  0  0  0  0  0  0  0  0
   -7.9214    0.7565    2.1721 H   0  0  0  0  0  0  0  0  0  0  0  0
   -7.2951   -0.8231    2.5832 H   0  0  0  0  0  0  0  0  0  0  0  0
   -6.2126    0.5631    2.5579 H   0  0  0  0  0  0  0  0  0  0  0  0
    2.7204    1.4117   -2.6074 H   0  0  0  0  0  0  0  0  0  0  0  0
    3.1572    3.0125   -2.0269 H   0  0  0  0  0  0  0  0  0  0  0  0
    3.8530    2.0705    0.1567 H   0  0  0  0  0  0  0  0  0  0  0  0
    3.3483    0.4623   -0.3345 H   0  0  0  0  0  0  0  0  0  0  0  0
    4.9992    0.4475   -2.1694 H   0  0  0  0  0  0  0  0  0  0  0  0
    5.4792    2.0899   -1.7835 H   0  0  0  0  0  0  0  0  0  0  0  0
    6.4514    1.3164    0.4150 H   0  0  0  0  0  0  0  0  0  0  0  0
    6.2644   -1.3064   -1.1646 H   0  0  0  0  0  0  0  0  0  0  0  0
    8.6418   -4.6841    1.6714 H   0  0  0  0  0  0  0  0  0  0  0  0
    9.9673   -4.1742    0.6013 H   0  0  0  0  0  0  0  0  0  0  0  0
   10.0832   -3.9066    2.3506 H   0  0  0  0  0  0  0  0  0  0  0  0
  1  7  1  0
  1  8  1  0
  2  4  1  0
  2  8  2  0
  3 25  1  0
  3 26  1  0
  4  5  2  0
  4  6  1  0
  5  7  1  0
  5  9  1  0
  7 11  2  0
  8 21  1  0
  9 10  1  0
  9 28  2  0
 10 12  2  0
 10 19  1  0
 12 13  1  0
 13 14  2  0
 14 15  1  0
 14 20  1  0
 15 16  1  0
 16 17  1  0
 17 18  1  0
 21 22  1  0
 22 23  1  0
 23 24  1  0
 24 25  2  0
 26 29  1  0
 26 30  2  0
 27 29  1  0
  2 31  1  0
  3 32  1  0
  6 33  1  0
 12 34  1  0
 13 35  1  0
 15 36  1  0
 15 37  1  0
 16 38  1  0
 16 39  1  0
 17 40  1  0
 17 41  1  0
 18 42  1  0
 18 43  1  0
 18 44  1  0
 19 45  1  0
 19 46  1  0
 19 47  1  0
 20 48  1  0
 20 49  1  0
 20 50  1  0
 21 51  1  0
 21 52  1  0
 22 53  1  0
 22 54  1  0
 23 55  1  0
 23 56  1  0
 24 57  1  0
 25 58  1  0
 27 59  1  0
 27 60  1  0
 27 61  1  0
M  END
