
     RDKit          3D

 49 52  0  0  0  0  0  0  0  0999 V2000
    1.5416    0.2870   -2.6629 C   0  0  0  0  0  0  0  0  0  0  0  0
    1.3888   -1.1132   -3.2327 C   0  0  0  0  0  0  0  0  0  0  0  0
    0.0878   -1.2401   -3.9765 C   0  0  0  0  0  0  0  0  0  0  0  0
   -0.0443   -1.9555   -4.9555 O   0  0  0  0  0  0  0  0  0  0  0  0
   -1.0403   -0.5145   -3.3973 C   0  0  0  0  0  0  0  0  0  0  0  0
   -0.9293    0.3160   -2.3458 C   0  0  0  0  0  0  0  0  0  0  0  0
   -2.1439    0.7613   -1.6015 C   0  0  0  0  0  0  0  0  0  0  0  0
   -2.1031    0.0845   -0.2253 C   0  0  0  0  0  0  0  0  0  0  0  0
   -0.8002    0.3699    0.5135 C   0  0  2  0  0  0  0  0  0  0  0  0
    0.4400    0.0196   -0.3383 C   0  0  1  0  0  0  0  0  0  0  0  0
    0.3957    0.7130   -1.7340 C   0  0  1  0  0  0  0  0  0  0  0  0
    1.7360    0.2861    0.4348 C   0  0  0  0  0  0  0  0  0  0  0  0
    1.7752   -0.4290    1.7891 C   0  0  0  0  0  0  0  0  0  0  0  0
    0.5511   -0.0952    2.6330 C   0  0  1  0  0  0  0  0  0  0  0  0
   -0.7090   -0.4097    1.8153 C   0  0  1  0  0  0  0  0  0  0  0  0
   -1.8426   -0.3147    2.8379 C   0  0  0  0  0  0  0  0  0  0  0  0
   -1.1975   -0.8335    4.1439 C   0  0  0  0  0  0  0  0  0  0  0  0
    0.3042   -1.0214    3.8264 C   0  0  2  0  0  0  0  0  0  0  0  0
    1.1730   -0.7463    4.8979 O   0  0  0  0  0  0  0  0  0  0  0  0
    0.6052    1.3619    3.1054 C   0  0  0  0  0  0  0  0  0  0  0  0
    0.4795    2.2431   -1.6050 C   0  0  0  0  0  0  0  0  0  0  0  0
    2.5007    0.3803   -2.1526 H   0  0  0  0  0  0  0  0  0  0  0  0
    1.5791    0.9961   -3.4963 H   0  0  0  0  0  0  0  0  0  0  0  0
    1.3830   -1.8604   -2.4305 H   0  0  0  0  0  0  0  0  0  0  0  0
    2.2208   -1.3649   -3.8923 H   0  0  0  0  0  0  0  0  0  0  0  0
   -2.0233   -0.7438   -3.7973 H   0  0  0  0  0  0  0  0  0  0  0  0
   -3.0527    0.4786   -2.1346 H   0  0  0  0  0  0  0  0  0  0  0  0
   -2.1631    1.8473   -1.4778 H   0  0  0  0  0  0  0  0  0  0  0  0
   -2.2244   -0.9964   -0.3583 H   0  0  0  0  0  0  0  0  0  0  0  0
   -2.9535    0.4266    0.3689 H   0  0  0  0  0  0  0  0  0  0  0  0
   -0.7805    1.4419    0.7426 H   0  0  0  0  0  0  0  0  0  0  0  0
    0.3890   -1.0639   -0.5218 H   0  0  0  0  0  0  0  0  0  0  0  0
    1.8668    1.3623    0.5808 H   0  0  0  0  0  0  0  0  0  0  0  0
    2.5947   -0.0479   -0.1508 H   0  0  0  0  0  0  0  0  0  0  0  0
    2.6984   -0.1647    2.3121 H   0  0  0  0  0  0  0  0  0  0  0  0
    1.8110   -1.5120    1.6224 H   0  0  0  0  0  0  0  0  0  0  0  0
   -0.6322   -1.4706    1.5288 H   0  0  0  0  0  0  0  0  0  0  0  0
   -2.1795    0.7191    2.9518 H   0  0  0  0  0  0  0  0  0  0  0  0
   -2.7156   -0.8973    2.5409 H   0  0  0  0  0  0  0  0  0  0  0  0
   -1.3173   -0.1148    4.9573 H   0  0  0  0  0  0  0  0  0  0  0  0
   -1.6482   -1.7689    4.4792 H   0  0  0  0  0  0  0  0  0  0  0  0
    0.4610   -2.0534    3.4748 H   0  0  0  0  0  0  0  0  0  0  0  0
    0.9749   -1.3612    5.6105 H   0  0  0  0  0  0  0  0  0  0  0  0
    0.5547    2.0663    2.2762 H   0  0  0  0  0  0  0  0  0  0  0  0
   -0.2087    1.6124    3.7868 H   0  0  0  0  0  0  0  0  0  0  0  0
    1.5391    1.5571    3.6340 H   0  0  0  0  0  0  0  0  0  0  0  0
    0.1894    2.7227   -2.5414 H   0  0  0  0  0  0  0  0  0  0  0  0
   -0.1479    2.6507   -0.8146 H   0  0  0  0  0  0  0  0  0  0  0  0
    1.5058    2.5455   -1.3917 H   0  0  0  0  0  0  0  0  0  0  0  0
  1  2  1  0
  1 11  1  0
  1 22  1  0
  1 23  1  0
  2  3  1  0
  2 24  1  0
  2 25  1  0
  3  4  2  0
  3  5  1  0
  5  6  2  0
  5 26  1  0
  6  7  1  0
  6 11  1  0
  7  8  1  0
  7 27  1  0
  7 28  1  0
  8  9  1  0
  8 29  1  0
  8 30  1  0
  9 10  1  0
  9 15  1  0
  9 31  1  1
 10 11  1  0
 10 12  1  0
 10 32  1  6
 11 21  1  1
 12 13  1  0
 12 33  1  0
 12 34  1  0
 13 14  1  0
 13 35  1  0
 13 36  1  0
 14 15  1  0
 14 18  1  0
 14 20  1  1
 15 16  1  0
 15 37  1  6
 16 17  1  0
 16 38  1  0
 16 39  1  0
 17 18  1  0
 17 40  1  0
 17 41  1  0
 18 19  1  0
 18 42  1  6
 19 43  1  0
 20 44  1  0
 20 45  1  0
 20 46  1  0
 21 47  1  0
 21 48  1  0
 21 49  1  0
M  END
