
     RDKit          3D

 20 20  0  0  0  0  0  0  0  0999 V2000
   -0.0655   -1.5712    0.7793 O   0  0  0  0  0  0  0  0  0  0  0  0
   -0.8583   -0.7519    0.3801 C   0  0  0  0  0  0  0  0  0  0  0  0
   -2.3619   -0.8166    0.5323 C   0  0  0  0  0  0  0  0  0  0  0  0
   -2.8807    0.4265   -0.1904 C   0  0  0  0  0  0  0  0  0  0  0  0
   -1.7197    1.4226   -0.0944 C   0  0  0  0  0  0  0  0  0  0  0  0
   -0.4868    0.5464   -0.3082 C   0  0  1  0  0  0  0  0  0  0  0  0
    0.8362    1.1086    0.1777 C   0  0  0  0  0  0  0  0  0  0  0  0
    2.0104    0.2499   -0.2107 C   0  0  0  0  0  0  0  0  0  0  0  0
    2.1182   -0.3201   -1.2686 O   0  0  0  0  0  0  0  0  0  0  0  0
    2.9569    0.2335    0.7204 O   0  0  0  0  0  0  0  0  0  0  0  0
   -2.7616   -1.7627    0.1642 H   0  0  0  0  0  0  0  0  0  0  0  0
   -2.5852   -0.7729    1.6034 H   0  0  0  0  0  0  0  0  0  0  0  0
   -3.0812    0.1950   -1.2387 H   0  0  0  0  0  0  0  0  0  0  0  0
   -3.8033    0.8105    0.2420 H   0  0  0  0  0  0  0  0  0  0  0  0
   -1.7898    2.2305   -0.8219 H   0  0  0  0  0  0  0  0  0  0  0  0
   -1.6911    1.8744    0.9018 H   0  0  0  0  0  0  0  0  0  0  0  0
   -0.4174    0.3161   -1.3801 H   0  0  0  0  0  0  0  0  0  0  0  0
    1.0035    2.0911   -0.2761 H   0  0  0  0  0  0  0  0  0  0  0  0
    0.8142    1.2683    1.2568 H   0  0  0  0  0  0  0  0  0  0  0  0
    3.7129   -0.2892    0.4129 H   0  0  0  0  0  0  0  0  0  0  0  0
  1  2  2  0
  3  2  1  0
  3  4  1  0
  2  6  1  0
  9  8  2  0
 10  8  1  0
  8  7  1  0
  4  5  1  0
  6  7  1  0
  6  5  1  0
  3 11  1  0
  3 12  1  0
  4 13  1  0
  4 14  1  0
  5 15  1  0
  5 16  1  0
  6 17  1  6
  7 18  1  0
  7 19  1  0
 10 20  1  0
M  END
