
     RDKit          3D

 57 61  0  0  0  0  0  0  0  0999 V2000
   -6.7253    0.7665    3.1962 C   0  0  0  0  0  0  0  0  0  0  0  0
   -7.2103    0.3113    1.9463 O   0  0  0  0  0  0  0  0  0  0  0  0
   -6.3557    0.1265    0.9383 C   0  0  0  0  0  0  0  0  0  0  0  0
   -4.9933    0.3574    1.0720 C   0  0  0  0  0  0  0  0  0  0  0  0
   -6.8728   -0.3114   -0.3026 C   0  0  0  0  0  0  0  0  0  0  0  0
   -8.3076   -0.5794   -0.5046 C   0  0  0  0  0  0  0  0  0  0  0  0
   -9.1664   -0.5451    0.3458 O   0  0  0  0  0  0  0  0  0  0  0  0
   -8.5920   -0.8826   -1.7734 O   0  0  0  0  0  0  0  0  0  0  0  0
   -5.9655   -0.4924   -1.3480 C   0  0  0  0  0  0  0  0  0  0  0  0
   -4.6099   -0.2701   -1.2245 C   0  0  0  0  0  0  0  0  0  0  0  0
   -4.1079    0.1660    0.0053 C   0  0  0  0  0  0  0  0  0  0  0  0
   -2.7815    0.4374    0.2685 N   0  0  0  0  0  0  0  0  0  0  0  0
   -1.6650    0.3805   -0.5189 C   0  0  0  0  0  0  0  0  0  0  0  0
   -0.5512    0.7713    0.0974 N   0  0  0  0  0  0  0  0  0  0  0  0
   -1.7478   -0.0401   -1.7741 N   0  0  0  0  0  0  0  0  0  0  0  0
   -0.6168   -0.0488   -2.4632 C   0  0  0  0  0  0  0  0  0  0  0  0
    0.5983    0.3508   -1.9378 C   0  0  0  0  0  0  0  0  0  0  0  0
    1.8717    0.3550   -2.7169 C   0  0  0  0  0  0  0  0  0  0  0  0
    2.7651   -0.6694   -2.2093 N   0  0  0  0  0  0  0  0  0  0  0  0
    0.5740    0.7509   -0.5990 C   0  0  0  0  0  0  0  0  0  0  0  0
    1.7933    1.2236    0.0775 C   0  0  0  0  0  0  0  0  0  0  0  0
    1.6758    2.2557    1.0089 C   0  0  0  0  0  0  0  0  0  0  0  0
    2.7782    2.7585    1.6711 C   0  0  0  0  0  0  0  0  0  0  0  0
    4.0211    2.1955    1.4196 C   0  0  0  0  0  0  0  0  0  0  0  0
    5.4156    2.8121    2.2337 Cl  0  0  0  0  0  0  0  0  0  0  0  0
    4.1615    1.1436    0.5360 C   0  0  0  0  0  0  0  0  0  0  0  0
    3.0545    0.6550   -0.1566 C   0  0  0  0  0  0  0  0  0  0  0  0
    3.2757   -0.5047   -1.0618 C   0  0  0  0  0  0  0  0  0  0  0  0
    4.2098   -1.5458   -0.5620 C   0  0  0  0  0  0  0  0  0  0  0  0
    5.3825   -1.8560   -1.2259 C   0  0  0  0  0  0  0  0  0  0  0  0
    5.6831   -1.1754   -2.3395 F   0  0  0  0  0  0  0  0  0  0  0  0
    6.2743   -2.8109   -0.7734 C   0  0  0  0  0  0  0  0  0  0  0  0
    5.9592   -3.4839    0.3952 C   0  0  0  0  0  0  0  0  0  0  0  0
    4.7901   -3.2164    1.0961 C   0  0  0  0  0  0  0  0  0  0  0  0
    3.9133   -2.2478    0.6163 C   0  0  0  0  0  0  0  0  0  0  0  0
    2.7511   -1.9179    1.1923 O   0  0  0  0  0  0  0  0  0  0  0  0
    2.4000   -2.5200    2.4245 C   0  0  0  0  0  0  0  0  0  0  0  0
   -7.5925    0.8452    3.8462 H   0  0  0  0  0  0  0  0  0  0  0  0
   -6.0150    0.0642    3.6388 H   0  0  0  0  0  0  0  0  0  0  0  0
   -6.2537    1.7491    3.1180 H   0  0  0  0  0  0  0  0  0  0  0  0
   -4.5909    0.6974    2.0170 H   0  0  0  0  0  0  0  0  0  0  0  0
   -9.5402   -1.0602   -1.8515 H   0  0  0  0  0  0  0  0  0  0  0  0
   -6.3268   -0.8280   -2.3093 H   0  0  0  0  0  0  0  0  0  0  0  0
   -3.9575   -0.4305   -2.0653 H   0  0  0  0  0  0  0  0  0  0  0  0
   -2.5808    0.7592    1.2037 H   0  0  0  0  0  0  0  0  0  0  0  0
   -0.6818   -0.3834   -3.4936 H   0  0  0  0  0  0  0  0  0  0  0  0
    1.6656    0.1461   -3.7665 H   0  0  0  0  0  0  0  0  0  0  0  0
    2.3385    1.3466   -2.6697 H   0  0  0  0  0  0  0  0  0  0  0  0
    0.7021    2.6830    1.2049 H   0  0  0  0  0  0  0  0  0  0  0  0
    2.6723    3.5749    2.3718 H   0  0  0  0  0  0  0  0  0  0  0  0
    5.1364    0.7008    0.3811 H   0  0  0  0  0  0  0  0  0  0  0  0
    7.1873   -3.0144   -1.3159 H   0  0  0  0  0  0  0  0  0  0  0  0
    6.6379   -4.2361    0.7740 H   0  0  0  0  0  0  0  0  0  0  0  0
    4.5780   -3.7672    2.0014 H   0  0  0  0  0  0  0  0  0  0  0  0
    1.4544   -2.0751    2.7218 H   0  0  0  0  0  0  0  0  0  0  0  0
    2.2688   -3.6000    2.3248 H   0  0  0  0  0  0  0  0  0  0  0  0
    3.1443   -2.3214    3.1992 H   0  0  0  0  0  0  0  0  0  0  0  0
 16 15  2  0
 16 17  1  0
 15 13  1  0
 18 17  1  0
 18 19  1  0
 17 20  2  0
 13 12  1  0
 13 14  2  0
 12 11  1  0
 20 14  1  0
 20 21  1  0
 19 28  2  0
 37 36  1  0
 10 11  2  0
 10  9  1  0
 11  4  1  0
 36 35  1  0
 21 22  2  0
 21 27  1  0
 22 23  1  0
 28 27  1  0
 28 29  1  0
 27 26  2  0
  9  5  2  0
  4  3  2  0
 23 24  2  0
 26 24  1  0
 35 29  1  0
 35 34  2  0
 29 30  2  0
 24 25  1  0
  5  3  1  0
  5  6  1  0
  3  2  1  0
 34 33  1  0
  7  6  2  0
 30 31  1  0
 30 32  1  0
  6  8  1  0
  2  1  1  0
 33 32  2  0
  1 38  1  0
  1 39  1  0
  1 40  1  0
  4 41  1  0
  8 42  1  0
  9 43  1  0
 10 44  1  0
 12 45  1  0
 16 46  1  0
 18 47  1  0
 18 48  1  0
 22 49  1  0
 23 50  1  0
 26 51  1  0
 32 52  1  0
 33 53  1  0
 34 54  1  0
 37 55  1  0
 37 56  1  0
 37 57  1  0
M  END
