
     RDKit          3D

 38 39  0  0  0  0  0  0  0  0999 V2000
    3.6595   -0.2182   -0.4067 N   0  0  0  0  0  0  0  0  0  0  0  0
    1.0669    1.6944   -0.7715 S   0  0  0  0  0  0  0  0  0  0  0  0
    0.6265    0.7664    0.7368 C   0  0  2  0  0  0  0  0  0  0  0  0
    1.9931   -1.3377    0.5051 N   0  0  0  0  0  0  0  0  0  0  0  0
    3.0415   -1.4302   -0.3560 C   0  0  0  0  0  0  0  0  0  0  0  0
    3.3665   -2.4341   -0.9722 O   0  0  0  0  0  0  0  0  0  0  0  0
    1.8894   -0.0353    1.1163 C   0  0  1  0  0  0  0  0  0  0  0  0
    3.1386    0.7075    0.5670 C   0  0  2  0  0  0  0  0  0  0  0  0
    2.6896    2.0276   -0.0501 C   0  0  0  0  0  0  0  0  0  0  0  0
   -0.6350   -0.0560    0.5518 C   0  0  0  0  0  0  0  0  0  0  0  0
   -1.8820    0.7765    0.2848 C   0  0  0  0  0  0  0  0  0  0  0  0
   -3.1256   -0.0973    0.1681 C   0  0  0  0  0  0  0  0  0  0  0  0
   -4.3763    0.7265   -0.0852 C   0  0  0  0  0  0  0  0  0  0  0  0
   -5.6268   -0.0960   -0.2231 C   0  0  0  0  0  0  0  0  0  0  0  0
   -6.7023    0.6664   -0.4047 O   0  0  0  0  0  0  0  0  0  0  0  0
   -5.6780   -1.3002   -0.1845 O   0  0  0  0  0  0  0  0  0  0  0  0
    1.3137   -2.5077    1.0002 C   0  0  0  0  0  0  0  0  0  0  0  0
    4.9397   -0.0151   -1.0246 C   0  0  0  0  0  0  0  0  0  0  0  0
    0.4612    1.5000    1.5332 H   0  0  0  0  0  0  0  0  0  0  0  0
    1.9158   -0.1347    2.2056 H   0  0  0  0  0  0  0  0  0  0  0  0
    3.8849    0.9003    1.3469 H   0  0  0  0  0  0  0  0  0  0  0  0
    3.3791    2.4025   -0.8055 H   0  0  0  0  0  0  0  0  0  0  0  0
    2.5961    2.7866    0.7282 H   0  0  0  0  0  0  0  0  0  0  0  0
   -0.4897   -0.7706   -0.2634 H   0  0  0  0  0  0  0  0  0  0  0  0
   -0.7927   -0.6451    1.4610 H   0  0  0  0  0  0  0  0  0  0  0  0
   -2.0158    1.5084    1.0881 H   0  0  0  0  0  0  0  0  0  0  0  0
   -1.7571    1.3515   -0.6385 H   0  0  0  0  0  0  0  0  0  0  0  0
   -2.9822   -0.8170   -0.6421 H   0  0  0  0  0  0  0  0  0  0  0  0
   -3.2466   -0.6845    1.0825 H   0  0  0  0  0  0  0  0  0  0  0  0
   -4.5298    1.4500    0.7219 H   0  0  0  0  0  0  0  0  0  0  0  0
   -4.2614    1.3240   -0.9955 H   0  0  0  0  0  0  0  0  0  0  0  0
   -7.4899    0.1088   -0.4913 H   0  0  0  0  0  0  0  0  0  0  0  0
    1.9970   -3.3548    1.0555 H   0  0  0  0  0  0  0  0  0  0  0  0
    0.9459   -2.3125    2.0062 H   0  0  0  0  0  0  0  0  0  0  0  0
    0.4618   -2.7976    0.3824 H   0  0  0  0  0  0  0  0  0  0  0  0
    5.1504   -0.8414   -1.6981 H   0  0  0  0  0  0  0  0  0  0  0  0
    4.9537    0.9051   -1.6095 H   0  0  0  0  0  0  0  0  0  0  0  0
    5.7413    0.0423   -0.2827 H   0  0  0  0  0  0  0  0  0  0  0  0
  1  5  1  0
  1  8  1  0
  1 18  1  0
  2  3  1  0
  2  9  1  0
  3  7  1  0
  3 10  1  0
  4  5  1  0
  4  7  1  0
  4 17  1  0
  5  6  2  0
  7  8  1  0
  8  9  1  0
 10 11  1  0
 11 12  1  0
 12 13  1  0
 13 14  1  0
 14 15  1  0
 14 16  2  0
  3 19  1  1
  7 20  1  1
  8 21  1  1
  9 22  1  0
  9 23  1  0
 10 24  1  0
 10 25  1  0
 11 26  1  0
 11 27  1  0
 12 28  1  0
 12 29  1  0
 13 30  1  0
 13 31  1  0
 15 32  1  0
 17 33  1  0
 17 34  1  0
 17 35  1  0
 18 36  1  0
 18 37  1  0
 18 38  1  0
M  END
