
     RDKit          3D

 46 46  0  0  0  0  0  0  0  0999 V2000
   -0.1399   -0.2841   -0.2782 C   0  0  2  0  0  0  0  0  0  0  0  0
   -0.3097   -1.7370   -0.2794 N   0  0  0  0  0  0  0  0  0  0  0  0
   -0.7427    0.2333    1.0439 C   0  0  1  0  0  0  0  0  0  0  0  0
   -1.9931   -0.3796    1.2450 O   0  0  0  0  0  0  0  0  0  0  0  0
    0.1921    0.0069    2.2464 C   0  0  1  0  0  0  0  0  0  0  0  0
    1.4118    0.6990    2.0527 O   0  0  0  0  0  0  0  0  0  0  0  0
   -0.4757    0.3918    3.5630 C   0  0  0  0  0  0  0  0  0  0  0  0
    0.4169    0.2890    4.8017 C   0  0  1  0  0  0  0  0  0  0  0  0
   -0.3615    0.7361    6.0359 C   0  0  0  0  0  0  0  0  0  0  0  0
    0.9627   -1.1217    5.0029 C   0  0  0  0  0  0  0  0  0  0  0  0
   -0.8518    0.3494   -1.4716 C   0  0  0  0  0  0  0  0  0  0  0  0
   -0.3868   -0.1090   -2.8547 C   0  0  1  0  0  0  0  0  0  0  0  0
   -1.1427    0.6578   -3.9414 C   0  0  0  0  0  0  0  0  0  0  0  0
    1.1215    0.0389   -3.0567 C   0  0  0  0  0  0  0  0  0  0  0  0
   -0.7185    0.2399   -5.3453 C   0  0  0  0  0  0  0  0  0  0  0  0
    1.5510   -0.3796   -4.4601 C   0  0  0  0  0  0  0  0  0  0  0  0
    0.7875    0.3868   -5.5344 C   0  0  0  0  0  0  0  0  0  0  0  0
    0.9149    0.0088   -0.3149 H   0  0  0  0  0  0  0  0  0  0  0  0
   -0.2614   -2.1127   -1.2164 H   0  0  0  0  0  0  0  0  0  0  0  0
    0.4347   -2.1842    0.2398 H   0  0  0  0  0  0  0  0  0  0  0  0
   -0.9059    1.3176    0.9564 H   0  0  0  0  0  0  0  0  0  0  0  0
   -1.8759   -1.2616    0.8463 H   0  0  0  0  0  0  0  0  0  0  0  0
    0.4646   -1.0543    2.2885 H   0  0  0  0  0  0  0  0  0  0  0  0
    1.2278    1.6442    2.0876 H   0  0  0  0  0  0  0  0  0  0  0  0
   -1.3530   -0.2442    3.7086 H   0  0  0  0  0  0  0  0  0  0  0  0
   -0.8561    1.4189    3.4829 H   0  0  0  0  0  0  0  0  0  0  0  0
    1.2652    0.9703    4.6796 H   0  0  0  0  0  0  0  0  0  0  0  0
    0.2673    0.7254    6.9282 H   0  0  0  0  0  0  0  0  0  0  0  0
   -0.7501    1.7499    5.9202 H   0  0  0  0  0  0  0  0  0  0  0  0
   -1.2124    0.0761    6.2230 H   0  0  0  0  0  0  0  0  0  0  0  0
    0.1487   -1.8476    5.0794 H   0  0  0  0  0  0  0  0  0  0  0  0
    1.6099   -1.4359    4.1834 H   0  0  0  0  0  0  0  0  0  0  0  0
    1.5488   -1.1862    5.9215 H   0  0  0  0  0  0  0  0  0  0  0  0
   -1.9298    0.1765   -1.3868 H   0  0  0  0  0  0  0  0  0  0  0  0
   -0.7095    1.4333   -1.4007 H   0  0  0  0  0  0  0  0  0  0  0  0
   -0.6401   -1.1715   -2.9844 H   0  0  0  0  0  0  0  0  0  0  0  0
   -2.2197    0.5122   -3.8135 H   0  0  0  0  0  0  0  0  0  0  0  0
   -0.9600    1.7317   -3.8108 H   0  0  0  0  0  0  0  0  0  0  0  0
    1.4050    1.0844   -2.8817 H   0  0  0  0  0  0  0  0  0  0  0  0
    1.6677   -0.5544   -2.3185 H   0  0  0  0  0  0  0  0  0  0  0  0
   -1.0057   -0.8037   -5.5146 H   0  0  0  0  0  0  0  0  0  0  0  0
   -1.2546    0.8319   -6.0914 H   0  0  0  0  0  0  0  0  0  0  0  0
    1.3716   -1.4537   -4.5840 H   0  0  0  0  0  0  0  0  0  0  0  0
    2.6274   -0.2328   -4.5803 H   0  0  0  0  0  0  0  0  0  0  0  0
    1.0817    0.0410   -6.5284 H   0  0  0  0  0  0  0  0  0  0  0  0
    1.0565    1.4478   -5.4817 H   0  0  0  0  0  0  0  0  0  0  0  0
  1  2  1  0
  1  3  1  0
  1 11  1  0
  1 18  1  1
  2 19  1  0
  2 20  1  0
  3  4  1  0
  3  5  1  0
  3 21  1  6
  4 22  1  0
  5  6  1  0
  5  7  1  0
  5 23  1  1
  6 24  1  0
  7  8  1  0
  7 25  1  0
  7 26  1  0
  8  9  1  0
  8 10  1  0
  8 27  1  6
  9 28  1  0
  9 29  1  0
  9 30  1  0
 10 31  1  0
 10 32  1  0
 10 33  1  0
 11 12  1  0
 11 34  1  0
 11 35  1  0
 12 13  1  0
 12 14  1  0
 12 36  1  6
 13 15  1  0
 13 37  1  0
 13 38  1  0
 14 16  1  0
 14 39  1  0
 14 40  1  0
 15 17  1  0
 15 41  1  0
 15 42  1  0
 16 17  1  0
 16 43  1  0
 16 44  1  0
 17 45  1  0
 17 46  1  0
M  END
