
     RDKit          3D

 26 27  0  0  0  0  0  0  0  0999 V2000
    3.9684    0.5359    0.1147 C   0  0  0  0  0  0  0  0  0  0  0  0
    5.2474    0.9535    0.1530 O   0  0  0  0  0  0  0  0  0  0  0  0
    3.5687   -0.7133    0.5830 C   0  0  0  0  0  0  0  0  0  0  0  0
   -2.5058   -0.0775    0.0658 C   0  0  0  0  0  0  0  0  0  0  0  0
   -3.5291    0.9714    0.3059 C   0  0  0  0  0  0  0  0  0  0  0  0
   -1.1657    0.2930    0.1265 C   0  0  0  0  0  0  0  0  0  0  0  0
    2.2361   -1.0856    0.5150 C   0  0  0  0  0  0  0  0  0  0  0  0
    3.0146    1.4008   -0.4189 C   0  0  0  0  0  0  0  0  0  0  0  0
    1.6875    1.0154   -0.4786 C   0  0  0  0  0  0  0  0  0  0  0  0
    1.2679   -0.2336   -0.0154 C   0  0  0  0  0  0  0  0  0  0  0  0
   -0.1497   -0.6363   -0.0812 C   0  0  0  0  0  0  0  0  0  0  0  0
   -0.5119   -1.9580   -0.3518 C   0  0  0  0  0  0  0  0  0  0  0  0
   -1.8447   -2.3346   -0.4080 C   0  0  0  0  0  0  0  0  0  0  0  0
   -2.8487   -1.4015   -0.2021 C   0  0  0  0  0  0  0  0  0  0  0  0
   -3.2661    2.1267    0.5412 O   0  0  0  0  0  0  0  0  0  0  0  0
   -4.7695    0.5103    0.2363 O   0  0  0  0  0  0  0  0  0  0  0  0
    5.8132    0.2702    0.5292 H   0  0  0  0  0  0  0  0  0  0  0  0
    4.2951   -1.3958    1.0101 H   0  0  0  0  0  0  0  0  0  0  0  0
   -0.9125    1.3192    0.3597 H   0  0  0  0  0  0  0  0  0  0  0  0
    1.9505   -2.0538    0.9071 H   0  0  0  0  0  0  0  0  0  0  0  0
    3.3175    2.3700   -0.7945 H   0  0  0  0  0  0  0  0  0  0  0  0
    0.9695    1.6991   -0.9151 H   0  0  0  0  0  0  0  0  0  0  0  0
    0.2544   -2.6997   -0.5393 H   0  0  0  0  0  0  0  0  0  0  0  0
   -2.1026   -3.3627   -0.6239 H   0  0  0  0  0  0  0  0  0  0  0  0
   -3.8828   -1.7117   -0.2548 H   0  0  0  0  0  0  0  0  0  0  0  0
   -5.3993    1.2277    0.4011 H   0  0  0  0  0  0  0  0  0  0  0  0
  2  1  1  0
  3  1  2  0
  3  7  1  0
  1  8  1  0
  7 10  2  0
  8  9  2  0
 10  9  1  0
 10 11  1  0
 12 11  2  0
 12 13  1  0
 11  6  1  0
 13 14  2  0
  6  4  2  0
 14  4  1  0
  4  5  1  0
  5 15  2  0
  5 16  1  0
  2 17  1  0
  3 18  1  0
  6 19  1  0
  7 20  1  0
  8 21  1  0
  9 22  1  0
 12 23  1  0
 13 24  1  0
 14 25  1  0
 16 26  1  0
M  END
