
     RDKit          3D

 33 34  0  0  0  0  0  0  0  0999 V2000
    0.4356   -0.0882   -0.7715 O   0  0  0  0  0  0  0  0  0  0  0  0
   -0.7788   -0.0140   -0.9206 C   0  0  0  0  0  0  0  0  0  0  0  0
   -1.6798    0.0660    0.0882 N   0  0  0  0  0  0  0  0  0  0  0  0
   -1.2146    0.0609    1.3093 C   0  0  0  0  0  0  0  0  0  0  0  0
   -2.0167    0.1318    2.3787 N   0  0  0  0  0  0  0  0  0  0  0  0
   -1.3999    0.1142    3.6098 C   0  0  0  0  0  0  0  0  0  0  0  0
    0.4401   -0.0321    1.8548 S   0  0  0  0  0  0  0  0  0  0  0  0
   -0.0647    0.0283    3.5338 C   0  0  0  0  0  0  0  0  0  0  0  0
    0.9284   -0.0142    4.6515 C   0  0  1  0  0  0  0  0  0  0  0  0
    1.7234   -1.3203    4.6447 C   0  0  0  0  0  0  0  0  0  0  0  0
    1.8641    1.1948    4.6153 C   0  0  0  0  0  0  0  0  0  0  0  0
   -1.4194   -0.0136   -2.2948 C   0  0  0  0  0  0  0  0  0  0  0  0
   -0.4278   -0.0314   -3.4141 C   0  0  0  0  0  0  0  0  0  0  0  0
    0.2690   -1.1851   -3.7565 C   0  0  0  0  0  0  0  0  0  0  0  0
    1.1823   -1.1435   -4.7966 C   0  0  0  0  0  0  0  0  0  0  0  0
    1.3723    0.0587   -5.4634 C   0  0  0  0  0  0  0  0  0  0  0  0
    0.7172    1.1697   -5.1518 N   0  0  0  0  0  0  0  0  0  0  0  0
   -0.1561    1.1144   -4.1525 C   0  0  0  0  0  0  0  0  0  0  0  0
   -3.0190    0.1861    2.2652 H   0  0  0  0  0  0  0  0  0  0  0  0
   -2.0065    0.1673    4.5000 H   0  0  0  0  0  0  0  0  0  0  0  0
    0.3472    0.0294    5.5775 H   0  0  0  0  0  0  0  0  0  0  0  0
    2.3889   -1.3626    5.5078 H   0  0  0  0  0  0  0  0  0  0  0  0
    1.0666   -2.1894    4.6805 H   0  0  0  0  0  0  0  0  0  0  0  0
    2.3418   -1.4016    3.7480 H   0  0  0  0  0  0  0  0  0  0  0  0
    2.4873    1.1853    3.7186 H   0  0  0  0  0  0  0  0  0  0  0  0
    1.3072    2.1315    4.6290 H   0  0  0  0  0  0  0  0  0  0  0  0
    2.5296    1.1828    5.4790 H   0  0  0  0  0  0  0  0  0  0  0  0
   -2.0824   -0.8820   -2.3528 H   0  0  0  0  0  0  0  0  0  0  0  0
   -2.0733    0.8592   -2.3681 H   0  0  0  0  0  0  0  0  0  0  0  0
    0.0932   -2.1101   -3.2207 H   0  0  0  0  0  0  0  0  0  0  0  0
    1.7391   -2.0232   -5.0895 H   0  0  0  0  0  0  0  0  0  0  0  0
    2.0798    0.1232   -6.2826 H   0  0  0  0  0  0  0  0  0  0  0  0
   -0.6798    2.0375   -3.9210 H   0  0  0  0  0  0  0  0  0  0  0  0
  1  2  2  0
  2  3  1  0
  2 12  1  0
  3  4  2  0
  4  5  1  0
  4  7  1  0
  5  6  1  0
  5 19  1  0
  6  8  2  0
  6 20  1  0
  7  8  1  0
  8  9  1  0
  9 10  1  0
  9 11  1  0
  9 21  1  1
 10 22  1  0
 10 23  1  0
 10 24  1  0
 11 25  1  0
 11 26  1  0
 11 27  1  0
 12 13  1  0
 12 28  1  0
 12 29  1  0
 13 14  2  0
 13 18  1  0
 14 15  1  0
 14 30  1  0
 15 16  2  0
 15 31  1  0
 16 17  1  0
 16 32  1  0
 17 18  2  0
 18 33  1  0
M  END
