
     RDKit          3D

 26 27  0  0  0  0  0  0  0  0999 V2000
    3.5372   -0.7386    0.4665 C   0  0  0  0  0  0  0  0  0  0  0  0
    3.3839   -1.9006    0.7583 O   0  0  0  0  0  0  0  0  0  0  0  0
    2.4225    0.1817    0.1259 C   0  0  0  0  0  0  0  0  0  0  0  0
    0.2664    1.8175   -0.4808 C   0  0  0  0  0  0  0  0  0  0  0  0
    1.5532    2.3333   -0.4890 C   0  0  0  0  0  0  0  0  0  0  0  0
    2.6362    1.5225   -0.1880 C   0  0  0  0  0  0  0  0  0  0  0  0
    1.1284   -0.3304    0.1317 C   0  0  0  0  0  0  0  0  0  0  0  0
    0.0357    0.4762   -0.1710 C   0  0  0  0  0  0  0  0  0  0  0  0
   -1.3335   -0.0800   -0.1699 C   0  0  0  0  0  0  0  0  0  0  0  0
   -2.3923    0.6712    0.3329 C   0  0  0  0  0  0  0  0  0  0  0  0
   -3.6865    0.1584    0.3326 C   0  0  0  0  0  0  0  0  0  0  0  0
   -3.9277   -1.1153   -0.1760 C   0  0  0  0  0  0  0  0  0  0  0  0
   -2.8702   -1.8617   -0.6746 C   0  0  0  0  0  0  0  0  0  0  0  0
   -1.5791   -1.3581   -0.6748 C   0  0  0  0  0  0  0  0  0  0  0  0
   -4.6630    0.9348    0.8417 O   0  0  0  0  0  0  0  0  0  0  0  0
    4.7254   -0.1545    0.4158 O   0  0  0  0  0  0  0  0  0  0  0  0
   -0.5647    2.4622   -0.7383 H   0  0  0  0  0  0  0  0  0  0  0  0
    1.7139    3.3734   -0.7387 H   0  0  0  0  0  0  0  0  0  0  0  0
    3.6330    1.9402   -0.2026 H   0  0  0  0  0  0  0  0  0  0  0  0
    0.9706   -1.3690    0.3920 H   0  0  0  0  0  0  0  0  0  0  0  0
   -2.2167    1.6552    0.7513 H   0  0  0  0  0  0  0  0  0  0  0  0
   -4.9328   -1.5214   -0.1852 H   0  0  0  0  0  0  0  0  0  0  0  0
   -3.0632   -2.8479   -1.0763 H   0  0  0  0  0  0  0  0  0  0  0  0
   -0.7706   -1.9470   -1.0885 H   0  0  0  0  0  0  0  0  0  0  0  0
   -5.5084    0.4731    0.8140 H   0  0  0  0  0  0  0  0  0  0  0  0
    5.4175   -0.7945    0.6389 H   0  0  0  0  0  0  0  0  0  0  0  0
 12 13  2  0
 12 11  1  0
 13 14  1  0
 15 11  1  0
 11 10  2  0
 14  9  2  0
 10  9  1  0
  9  8  1  0
  2  1  2  0
  7  8  1  0
  7  3  2  0
  8  4  2  0
  1  3  1  0
  1 16  1  0
  3  6  1  0
  4  5  1  0
  6  5  2  0
  4 17  1  0
  5 18  1  0
  6 19  1  0
  7 20  1  0
 10 21  1  0
 12 22  1  0
 13 23  1  0
 14 24  1  0
 15 25  1  0
 16 26  1  0
M  END
