
     RDKit          3D

 59 62  0  0  0  0  0  0  0  0999 V2000
    6.8069   -2.2531    0.4191 O   0  0  0  0  0  0  0  0  0  0  0  0
    7.2544   -0.9127    0.0868 S   0  0  1  0  0  0  0  0  0  0  0  0
    8.6012   -0.4941    0.4289 O   0  0  0  0  0  0  0  0  0  0  0  0
    6.9819   -0.6430   -1.6473 C   0  0  0  0  0  0  0  0  0  0  0  0
    6.2455    0.1594    0.8765 N   0  0  0  0  0  0  0  0  0  0  0  0
    4.8449    0.0359    0.7659 C   0  0  0  0  0  0  0  0  0  0  0  0
    4.1807   -1.0357    1.3603 C   0  0  0  0  0  0  0  0  0  0  0  0
    4.1131    1.0091    0.0944 C   0  0  0  0  0  0  0  0  0  0  0  0
    2.7378    0.8944    0.0290 C   0  0  0  0  0  0  0  0  0  0  0  0
    1.7834    2.1685   -0.7288 S   0  0  2  0  0  0  0  0  0  0  0  0
    2.5394    2.7736   -1.8172 O   0  0  0  0  0  0  0  0  0  0  0  0
    1.2442    3.0298    0.3147 O   0  0  0  0  0  0  0  0  0  0  0  0
    0.4729    1.1477   -1.3685 C   0  0  0  0  0  0  0  0  0  0  0  0
   -0.0601    0.2543   -0.2777 C   0  0  0  0  0  0  0  0  0  0  0  0
    0.6679   -0.3463    0.5729 N   0  0  0  0  0  0  0  0  0  0  0  0
    2.0501   -0.1798    0.6034 C   0  0  0  0  0  0  0  0  0  0  0  0
    2.8051   -1.1410    1.2715 C   0  0  0  0  0  0  0  0  0  0  0  0
   -1.5107   -0.0066   -0.2753 C   0  0  0  0  0  0  0  0  0  0  0  0
   -2.4100    1.0007   -0.0870 C   0  0  0  0  0  0  0  0  0  0  0  0
   -1.9635    2.2280    0.1360 O   0  0  0  0  0  0  0  0  0  0  0  0
   -1.9677   -1.3549   -0.5095 C   0  0  0  0  0  0  0  0  0  0  0  0
   -1.2429   -2.3223   -0.6789 O   0  0  0  0  0  0  0  0  0  0  0  0
   -3.3508   -1.4842   -0.5716 N   0  0  0  0  0  0  0  0  0  0  0  0
   -3.9463   -2.7987   -0.8068 C   0  0  0  0  0  0  0  0  0  0  0  0
   -4.1794   -3.5590    0.4916 C   0  0  0  0  0  0  0  0  0  0  0  0
   -4.9500   -4.8646    0.2889 C   0  0  1  0  0  0  0  0  0  0  0  0
   -4.1851   -5.8582   -0.5808 C   0  0  0  0  0  0  0  0  0  0  0  0
   -5.2848   -5.4870    1.6407 C   0  0  0  0  0  0  0  0  0  0  0  0
   -4.2132   -0.5177   -0.3601 N   0  0  0  0  0  0  0  0  0  0  0  0
   -3.8098    0.6886   -0.1217 C   0  0  0  0  0  0  0  0  0  0  0  0
   -4.8360    1.7195    0.0495 C   0  0  0  0  0  0  0  0  0  0  0  0
   -5.8422    2.0345   -0.8175 C   0  0  0  0  0  0  0  0  0  0  0  0
   -4.9374    2.6792    1.4859 S   0  0  0  0  0  0  0  0  0  0  0  0
   -6.3131    3.5092    0.9015 C   0  0  0  0  0  0  0  0  0  0  0  0
   -6.6897    3.0606   -0.3273 C   0  0  0  0  0  0  0  0  0  0  0  0
    5.9409   -0.8487   -1.8875 H   0  0  0  0  0  0  0  0  0  0  0  0
    7.2343    0.3859   -1.8930 H   0  0  0  0  0  0  0  0  0  0  0  0
    7.6274   -1.3279   -2.1947 H   0  0  0  0  0  0  0  0  0  0  0  0
    6.5934    1.1114    0.8148 H   0  0  0  0  0  0  0  0  0  0  0  0
    4.7368   -1.7788    1.9125 H   0  0  0  0  0  0  0  0  0  0  0  0
    4.6198    1.8429   -0.3756 H   0  0  0  0  0  0  0  0  0  0  0  0
   -0.2813    1.7965   -1.8116 H   0  0  0  0  0  0  0  0  0  0  0  0
    0.9049    0.5303   -2.1632 H   0  0  0  0  0  0  0  0  0  0  0  0
    2.2919   -1.9706    1.7388 H   0  0  0  0  0  0  0  0  0  0  0  0
   -2.6689    2.8901    0.1129 H   0  0  0  0  0  0  0  0  0  0  0  0
   -4.8893   -2.6232   -1.3230 H   0  0  0  0  0  0  0  0  0  0  0  0
   -3.2924   -3.3450   -1.4818 H   0  0  0  0  0  0  0  0  0  0  0  0
   -3.2194   -3.7716    0.9729 H   0  0  0  0  0  0  0  0  0  0  0  0
   -4.7422   -2.9147    1.1741 H   0  0  0  0  0  0  0  0  0  0  0  0
   -5.8937   -4.6221   -0.2141 H   0  0  0  0  0  0  0  0  0  0  0  0
   -4.7439   -6.7891   -0.6899 H   0  0  0  0  0  0  0  0  0  0  0  0
   -3.9952   -5.4764   -1.5848 H   0  0  0  0  0  0  0  0  0  0  0  0
   -3.2203   -6.1025   -0.1296 H   0  0  0  0  0  0  0  0  0  0  0  0
   -5.8507   -4.7972    2.2692 H   0  0  0  0  0  0  0  0  0  0  0  0
   -5.8795   -6.3938    1.5197 H   0  0  0  0  0  0  0  0  0  0  0  0
   -4.3748   -5.7602    2.1805 H   0  0  0  0  0  0  0  0  0  0  0  0
   -5.9607    1.5561   -1.7792 H   0  0  0  0  0  0  0  0  0  0  0  0
   -6.7728    4.2812    1.4990 H   0  0  0  0  0  0  0  0  0  0  0  0
   -7.5365    3.4546   -0.8699 H   0  0  0  0  0  0  0  0  0  0  0  0
  1  2  2  0
  2  3  2  0
  2  4  1  0
  2  5  1  1
  5  6  1  0
  6  7  2  0
  6  8  1  0
  7 17  1  0
  8  9  2  0
  9 10  1  0
  9 16  1  0
 10 11  2  0
 10 12  2  0
 10 13  1  6
 13 14  1  0
 14 15  2  0
 14 18  1  0
 15 16  1  0
 16 17  2  0
 18 19  2  0
 18 21  1  0
 19 20  1  0
 19 30  1  0
 21 22  2  0
 21 23  1  0
 23 24  1  0
 23 29  1  0
 24 25  1  0
 25 26  1  0
 26 27  1  0
 26 28  1  0
 29 30  2  0
 30 31  1  0
 31 32  2  0
 31 33  1  0
 32 35  1  0
 33 34  1  0
 34 35  2  0
  4 36  1  0
  4 37  1  0
  4 38  1  0
  5 39  1  0
  7 40  1  0
  8 41  1  0
 13 42  1  0
 13 43  1  0
 17 44  1  0
 20 45  1  0
 24 46  1  0
 24 47  1  0
 25 48  1  0
 25 49  1  0
 26 50  1  6
 27 51  1  0
 27 52  1  0
 27 53  1  0
 28 54  1  0
 28 55  1  0
 28 56  1  0
 32 57  1  0
 34 58  1  0
 35 59  1  0
M  END
