
     RDKit          3D

 63 67  0  0  0  0  0  0  0  0999 V2000
   -5.3939    1.1393   -8.3647 N   0  0  0  0  0  0  0  0  0  0  0  0
   -5.6330    1.3564   -7.1271 C   0  0  0  0  0  0  0  0  0  0  0  0
   -6.5854    2.2655   -6.7695 N   0  0  0  0  0  0  0  0  0  0  0  0
   -4.9736    0.6542   -5.9910 C   0  0  0  0  0  0  0  0  0  0  0  0
   -5.6380    0.4502   -4.7815 C   0  0  0  0  0  0  0  0  0  0  0  0
   -5.0012   -0.1828   -3.7273 C   0  0  0  0  0  0  0  0  0  0  0  0
   -3.6893   -0.6284   -3.8449 C   0  0  0  0  0  0  0  0  0  0  0  0
   -3.0324   -0.4394   -5.0557 C   0  0  0  0  0  0  0  0  0  0  0  0
   -3.6653    0.1934   -6.1129 C   0  0  0  0  0  0  0  0  0  0  0  0
   -3.0093   -1.2837   -2.6690 C   0  0  2  0  0  0  0  0  0  0  0  0
   -1.5649   -1.0821   -2.7055 N   0  0  0  0  0  0  0  0  0  0  0  0
   -1.1207    0.1278   -2.0315 C   0  0  0  0  0  0  0  0  0  0  0  0
   -0.9963   -0.2260   -0.5293 C   0  0  0  0  0  0  0  0  0  0  0  0
   -0.9816   -1.7657   -0.4920 C   0  0  0  0  0  0  0  0  0  0  0  0
   -0.9456   -2.1774   -1.9760 C   0  0  1  0  0  0  0  0  0  0  0  0
   -1.7788   -3.3854   -2.3522 C   0  0  2  0  0  0  0  0  0  0  0  0
   -1.3942   -4.0082   -3.7093 C   0  0  2  0  0  0  0  0  0  0  0  0
   -2.6772   -4.1725   -4.3771 N   0  0  0  0  0  0  0  0  0  0  0  0
   -3.7006   -3.5121   -3.8006 C   0  0  0  0  0  0  0  0  0  0  0  0
   -4.8471   -3.4924   -4.2134 O   0  0  0  0  0  0  0  0  0  0  0  0
   -3.1911   -2.8276   -2.5561 C   0  0  2  0  0  0  0  0  0  0  0  0
   -2.8316   -4.7973   -5.6738 C   0  0  0  0  0  0  0  0  0  0  0  0
   -2.7559   -3.8012   -6.8020 C   0  0  0  0  0  0  0  0  0  0  0  0
   -3.9111   -3.3459   -7.4259 C   0  0  0  0  0  0  0  0  0  0  0  0
   -3.8514   -2.4162   -8.4530 C   0  0  0  0  0  0  0  0  0  0  0  0
   -2.6168   -1.9259   -8.8434 C   0  0  0  0  0  0  0  0  0  0  0  0
   -1.4473   -2.3598   -8.2399 C   0  0  0  0  0  0  0  0  0  0  0  0
   -1.5276   -3.3033   -7.2270 C   0  0  0  0  0  0  0  0  0  0  0  0
   -0.5972   -5.3139   -3.5997 C   0  0  1  0  0  0  0  0  0  0  0  0
    0.7176   -5.0714   -2.8643 C   0  0  0  0  0  0  0  0  0  0  0  0
   -1.3828   -6.4525   -2.9599 C   0  0  0  0  0  0  0  0  0  0  0  0
   -2.5340   -0.7310  -10.1008 Cl  0  0  0  0  0  0  0  0  0  0  0  0
   -4.7380    0.3769   -8.4787 H   0  0  0  0  0  0  0  0  0  0  0  0
   -6.9342    2.8505   -7.5122 H   0  0  0  0  0  0  0  0  0  0  0  0
   -6.4873    2.7396   -5.8875 H   0  0  0  0  0  0  0  0  0  0  0  0
   -6.6609    0.7811   -4.6538 H   0  0  0  0  0  0  0  0  0  0  0  0
   -5.5333   -0.3188   -2.7929 H   0  0  0  0  0  0  0  0  0  0  0  0
   -2.0076   -0.7666   -5.1663 H   0  0  0  0  0  0  0  0  0  0  0  0
   -3.1091    0.3575   -7.0274 H   0  0  0  0  0  0  0  0  0  0  0  0
   -3.4561   -0.8518   -1.7613 H   0  0  0  0  0  0  0  0  0  0  0  0
   -1.8072    0.9534   -2.2237 H   0  0  0  0  0  0  0  0  0  0  0  0
   -0.1475    0.4204   -2.4324 H   0  0  0  0  0  0  0  0  0  0  0  0
   -1.8355    0.1714    0.0421 H   0  0  0  0  0  0  0  0  0  0  0  0
   -0.0905    0.2058   -0.1034 H   0  0  0  0  0  0  0  0  0  0  0  0
   -0.1289   -2.1676    0.0562 H   0  0  0  0  0  0  0  0  0  0  0  0
   -1.8811   -2.1506   -0.0044 H   0  0  0  0  0  0  0  0  0  0  0  0
    0.0964   -2.2831   -2.2958 H   0  0  0  0  0  0  0  0  0  0  0  0
   -1.7635   -4.1470   -1.5711 H   0  0  0  0  0  0  0  0  0  0  0  0
   -0.7802   -3.2942   -4.2759 H   0  0  0  0  0  0  0  0  0  0  0  0
   -3.8677   -3.0486   -1.7305 H   0  0  0  0  0  0  0  0  0  0  0  0
   -3.7877   -5.3211   -5.6968 H   0  0  0  0  0  0  0  0  0  0  0  0
   -2.0593   -5.5578   -5.7904 H   0  0  0  0  0  0  0  0  0  0  0  0
   -4.8762   -3.7149   -7.1051 H   0  0  0  0  0  0  0  0  0  0  0  0
   -4.7591   -2.0814   -8.9378 H   0  0  0  0  0  0  0  0  0  0  0  0
   -0.4871   -1.9777   -8.5585 H   0  0  0  0  0  0  0  0  0  0  0  0
   -0.6100   -3.6595   -6.7743 H   0  0  0  0  0  0  0  0  0  0  0  0
   -0.3303   -5.6203   -4.6174 H   0  0  0  0  0  0  0  0  0  0  0  0
    0.5590   -4.8115   -1.8155 H   0  0  0  0  0  0  0  0  0  0  0  0
    1.3334   -5.9709   -2.8859 H   0  0  0  0  0  0  0  0  0  0  0  0
    1.2958   -4.2677   -3.3243 H   0  0  0  0  0  0  0  0  0  0  0  0
   -1.6743   -6.2213   -1.9338 H   0  0  0  0  0  0  0  0  0  0  0  0
   -0.7724   -7.3559   -2.9240 H   0  0  0  0  0  0  0  0  0  0  0  0
   -2.2912   -6.6954   -3.5124 H   0  0  0  0  0  0  0  0  0  0  0  0
  1  2  2  0
  1 33  1  0
  2  3  1  0
  2  4  1  0
  3 34  1  0
  3 35  1  0
  4  5  2  0
  4  9  1  0
  5  6  1  0
  5 36  1  0
  6  7  2  0
  6 37  1  0
  7  8  1  0
  7 10  1  0
  8  9  2  0
  8 38  1  0
  9 39  1  0
 10 11  1  0
 10 21  1  0
 10 40  1  1
 11 12  1  0
 11 15  1  0
 12 13  1  0
 12 41  1  0
 12 42  1  0
 13 14  1  0
 13 43  1  0
 13 44  1  0
 14 15  1  0
 14 45  1  0
 14 46  1  0
 15 16  1  0
 15 47  1  6
 16 17  1  0
 16 21  1  0
 16 48  1  1
 17 18  1  0
 17 29  1  0
 17 49  1  6
 18 19  1  0
 18 22  1  0
 19 20  2  0
 19 21  1  0
 21 50  1  1
 22 23  1  0
 22 51  1  0
 22 52  1  0
 23 24  2  0
 23 28  1  0
 24 25  1  0
 24 53  1  0
 25 26  2  0
 25 54  1  0
 26 27  1  0
 26 32  1  0
 27 28  2  0
 27 55  1  0
 28 56  1  0
 29 30  1  0
 29 31  1  0
 29 57  1  6
 30 58  1  0
 30 59  1  0
 30 60  1  0
 31 61  1  0
 31 62  1  0
 31 63  1  0
M  END
