
     RDKit          3D

 43 44  0  0  0  0  0  0  0  0999 V2000
   -4.6404    1.6807   -0.2395 C   0  0  0  0  0  0  0  0  0  0  0  0
   -1.2932   -2.2200   -1.7131 C   0  0  0  0  0  0  0  0  0  0  0  0
    3.0689    0.4862    0.2293 C   0  0  0  0  0  0  0  0  0  0  0  0
    3.8896    0.0369   -0.8083 C   0  0  0  0  0  0  0  0  0  0  0  0
    5.2288    0.3969   -0.8459 C   0  0  0  0  0  0  0  0  0  0  0  0
    5.7611    1.2141    0.1361 C   0  0  0  0  0  0  0  0  0  0  0  0
    4.9595    1.6818    1.1650 C   0  0  0  0  0  0  0  0  0  0  0  0
    3.6267    1.3148    1.2078 C   0  0  0  0  0  0  0  0  0  0  0  0
   -2.5978   -1.4616    0.2292 C   0  0  0  0  0  0  0  0  0  0  0  0
    1.0288   -0.8546   -0.2285 C   0  0  0  0  0  0  0  0  0  0  0  0
   -1.2200   -1.9636   -0.2010 C   0  0  1  0  0  0  0  0  0  0  0  0
   -0.8142   -3.2505    0.5202 C   0  0  0  0  0  0  0  0  0  0  0  0
   -3.4957   -2.2572    0.9337 C   0  0  0  0  0  0  0  0  0  0  0  0
   -4.7639   -1.7872    1.2494 C   0  0  0  0  0  0  0  0  0  0  0  0
   -5.1615   -0.5172    0.8666 C   0  0  0  0  0  0  0  0  0  0  0  0
   -4.2730    0.2964    0.1661 C   0  0  0  0  0  0  0  0  0  0  0  0
   -3.0052   -0.1825   -0.1451 C   0  0  0  0  0  0  0  0  0  0  0  0
   -5.9451    1.7787   -0.6625 N   0  0  0  0  0  0  0  0  0  0  0  0
   -3.8795    2.6972   -0.1704 N   0  0  0  0  0  0  0  0  0  0  0  0
   -0.2823   -0.8837    0.1246 N   0  0  0  0  0  0  0  0  0  0  0  0
    1.7118    0.1978    0.3404 N   0  0  0  0  0  0  0  0  0  0  0  0
   -6.2993    2.9582   -1.2723 O   0  0  0  0  0  0  0  0  0  0  0  0
    1.5570   -1.6528   -0.9859 O   0  0  0  0  0  0  0  0  0  0  0  0
    7.4366    1.6613    0.0759 Cl  0  0  0  0  0  0  0  0  0  0  0  0
   -1.4916   -1.2977   -2.2591 H   0  0  0  0  0  0  0  0  0  0  0  0
   -0.3743   -2.6572   -2.0937 H   0  0  0  0  0  0  0  0  0  0  0  0
   -2.1089   -2.9142   -1.9173 H   0  0  0  0  0  0  0  0  0  0  0  0
    3.4997   -0.5858   -1.5962 H   0  0  0  0  0  0  0  0  0  0  0  0
    5.8495    0.0368   -1.6554 H   0  0  0  0  0  0  0  0  0  0  0  0
    5.3652    2.3224    1.9363 H   0  0  0  0  0  0  0  0  0  0  0  0
    3.0105    1.6813    2.0201 H   0  0  0  0  0  0  0  0  0  0  0  0
    0.1953   -3.5327    0.2264 H   0  0  0  0  0  0  0  0  0  0  0  0
   -0.8329   -3.1247    1.6036 H   0  0  0  0  0  0  0  0  0  0  0  0
   -1.4716   -4.0800    0.2582 H   0  0  0  0  0  0  0  0  0  0  0  0
   -3.2213   -3.2539    1.2496 H   0  0  0  0  0  0  0  0  0  0  0  0
   -5.4436   -2.4177    1.8072 H   0  0  0  0  0  0  0  0  0  0  0  0
   -6.1467   -0.1564    1.1314 H   0  0  0  0  0  0  0  0  0  0  0  0
   -2.3287    0.4500   -0.7085 H   0  0  0  0  0  0  0  0  0  0  0  0
   -6.3011    0.9874   -1.1828 H   0  0  0  0  0  0  0  0  0  0  0  0
   -2.9959    2.4402    0.2547 H   0  0  0  0  0  0  0  0  0  0  0  0
   -0.5608   -0.3048    0.9022 H   0  0  0  0  0  0  0  0  0  0  0  0
    1.2154    0.7610    1.0137 H   0  0  0  0  0  0  0  0  0  0  0  0
   -6.8809    3.4030   -0.6453 H   0  0  0  0  0  0  0  0  0  0  0  0
 14 15  1  0
 14 13  2  0
 15 16  2  0
 13  9  1  0
 18 22  1  0
 18  1  1  0
 16  1  1  0
 16 17  1  0
  1 19  2  0
  9 17  2  0
  9 11  1  0
  2 11  1  0
 11 12  1  0
 11 20  1  6
 20 10  1  0
 23 10  2  0
 10 21  1  0
 21  3  1  0
  3  4  2  0
  3  8  1  0
  4  5  1  0
  8  7  2  0
  5  6  2  0
  7  6  1  0
  6 24  1  0
  2 25  1  0
  2 26  1  0
  2 27  1  0
  4 28  1  0
  5 29  1  0
  7 30  1  0
  8 31  1  0
 12 32  1  0
 12 33  1  0
 12 34  1  0
 13 35  1  0
 14 36  1  0
 15 37  1  0
 17 38  1  0
 18 39  1  0
 19 40  1  0
 20 41  1  0
 21 42  1  0
 22 43  1  0
M  END
