
     RDKit          3D

 35 37  0  0  0  0  0  0  0  0999 V2000
    0.2413    2.1758   -0.5727 C   0  0  0  0  0  0  0  0  0  0  0  0
   -3.3371   -0.0787    0.0722 C   0  0  0  0  0  0  0  0  0  0  0  0
   -4.5065    0.2028   -0.6362 C   0  0  0  0  0  0  0  0  0  0  0  0
   -3.3578   -1.1158    1.0066 C   0  0  0  0  0  0  0  0  0  0  0  0
   -4.5140   -1.8504    1.2253 C   0  0  0  0  0  0  0  0  0  0  0  0
   -5.6714   -1.5612    0.5145 C   0  0  0  0  0  0  0  0  0  0  0  0
   -0.9952    2.7995   -0.6236 C   0  0  0  0  0  0  0  0  0  0  0  0
   -2.1048    0.7015   -0.1598 C   0  0  0  0  0  0  0  0  0  0  0  0
    4.0141   -1.1359   -0.5657 C   0  0  0  0  0  0  0  0  0  0  0  0
    0.3109    0.8079   -0.3199 C   0  0  0  0  0  0  0  0  0  0  0  0
    1.6061    0.0911   -0.3447 C   0  0  0  0  0  0  0  0  0  0  0  0
    1.7199   -0.9058   -1.1569 N   0  0  0  0  0  0  0  0  0  0  0  0
    2.9172   -1.5384   -1.2503 C   0  0  0  0  0  0  0  0  0  0  0  0
    3.9073   -0.0262    0.3579 C   0  0  0  0  0  0  0  0  0  0  0  0
    2.6320    0.5155    0.4549 N   0  0  0  0  0  0  0  0  0  0  0  0
    4.8355    0.3980    1.0266 O   0  0  0  0  0  0  0  0  0  0  0  0
    2.4478    1.5186    1.5016 C   0  0  0  0  0  0  0  0  0  0  0  0
   -0.8573    0.0802   -0.1279 C   0  0  0  0  0  0  0  0  0  0  0  0
   -2.1573    2.0726   -0.4140 C   0  0  0  0  0  0  0  0  0  0  0  0
   -5.6628   -0.5316   -0.4176 C   0  0  0  0  0  0  0  0  0  0  0  0
    1.1422    2.7511   -0.7447 H   0  0  0  0  0  0  0  0  0  0  0  0
   -4.5099    0.9885   -1.3814 H   0  0  0  0  0  0  0  0  0  0  0  0
   -2.4690   -1.3407    1.5837 H   0  0  0  0  0  0  0  0  0  0  0  0
   -4.5114   -2.6462    1.9585 H   0  0  0  0  0  0  0  0  0  0  0  0
   -6.5733   -2.1347    0.6846 H   0  0  0  0  0  0  0  0  0  0  0  0
   -1.0540    3.8614   -0.8219 H   0  0  0  0  0  0  0  0  0  0  0  0
    2.9620   -2.3833   -1.9297 H   0  0  0  0  0  0  0  0  0  0  0  0
    5.2352   -2.4305   -1.2422 H   0  0  0  0  0  0  0  0  0  0  0  0
    2.9825    1.2048    2.3932 H   0  0  0  0  0  0  0  0  0  0  0  0
    2.8264    2.4892    1.1874 H   0  0  0  0  0  0  0  0  0  0  0  0
    1.3959    1.6076    1.7452 H   0  0  0  0  0  0  0  0  0  0  0  0
   -0.7902   -0.9874    0.0392 H   0  0  0  0  0  0  0  0  0  0  0  0
   -3.1117    2.5835   -0.4341 H   0  0  0  0  0  0  0  0  0  0  0  0
   -6.5569   -0.3035   -0.9836 H   0  0  0  0  0  0  0  0  0  0  0  0
    5.2364   -1.6810   -0.6350 O   0  0  0  0  0  0  0  0  0  0  0  0
 35  9  1  0
 16 14  2  0
  9 14  1  0
  9 13  2  0
 14 15  1  0
 13 12  1  0
 15 17  1  0
 15 11  1  0
 12 11  2  0
 11 10  1  0
 10  1  2  0
 10 18  1  0
  1  7  1  0
 18  8  2  0
  7 19  2  0
  8 19  1  0
  8  2  1  0
  2  3  2  0
  2  4  1  0
  3 20  1  0
  4  5  2  0
 20  6  2  0
  5  6  1  0
  1 21  1  0
  3 22  1  0
  4 23  1  0
  5 24  1  0
  6 25  1  0
  7 26  1  0
 13 27  1  0
 35 28  1  0
 17 29  1  0
 17 30  1  0
 17 31  1  0
 18 32  1  0
 19 33  1  0
 20 34  1  0
M  END
