
     RDKit          3D

 75 78  0  0  0  0  0  0  0  0999 V2000
    5.3463   -4.6602   -2.3550 C   0  0  0  0  0  0  0  0  0  0  0  0
    4.7013   -3.4090   -2.1857 O   0  0  0  0  0  0  0  0  0  0  0  0
    3.9864   -3.1962   -1.0799 C   0  0  0  0  0  0  0  0  0  0  0  0
    3.3843   -1.9426   -0.9547 C   0  0  0  0  0  0  0  0  0  0  0  0
    3.5952   -0.7687   -2.1949 Cl  0  0  0  0  0  0  0  0  0  0  0  0
    3.8112   -4.1371   -0.0695 C   0  0  0  0  0  0  0  0  0  0  0  0
    3.0460   -3.8412    1.0557 C   0  0  0  0  0  0  0  0  0  0  0  0
    2.8337   -4.6910    2.0620 O   0  0  0  0  0  0  0  0  0  0  0  0
    3.4215   -5.9801    2.0065 C   0  0  0  0  0  0  0  0  0  0  0  0
    2.4552   -2.5819    1.1652 C   0  0  0  0  0  0  0  0  0  0  0  0
    1.5073   -2.2069    2.5525 Cl  0  0  0  0  0  0  0  0  0  0  0  0
    2.6224   -1.6358    0.1636 C   0  0  0  0  0  0  0  0  0  0  0  0
    2.0701   -0.3477    0.2961 N   0  0  0  0  0  0  0  0  0  0  0  0
    0.7394   -0.2073    0.0475 C   0  0  0  0  0  0  0  0  0  0  0  0
    0.0592   -1.1410   -0.3286 O   0  0  0  0  0  0  0  0  0  0  0  0
    2.8797    0.6624    0.9615 C   0  0  0  0  0  0  0  0  0  0  0  0
    2.3914    2.0047    0.5520 C   0  0  0  0  0  0  0  0  0  0  0  0
    3.1573    3.1466    0.4837 C   0  0  0  0  0  0  0  0  0  0  0  0
    2.6698    4.3451    0.1920 N   0  0  0  0  0  0  0  0  0  0  0  0
    1.3557    4.4017   -0.0361 C   0  0  0  0  0  0  0  0  0  0  0  0
    0.7949    5.5976   -0.2763 N   0  0  0  0  0  0  0  0  0  0  0  0
    1.5242    6.8445   -0.4210 C   0  0  1  0  0  0  0  0  0  0  0  0
    2.1548    6.9783   -1.8038 C   0  0  0  0  0  0  0  0  0  0  0  0
    0.5796    7.9998   -0.1248 C   0  0  0  0  0  0  0  0  0  0  0  0
    0.5248    3.3475   -0.0433 N   0  0  0  0  0  0  0  0  0  0  0  0
    1.0404    2.1747    0.2464 C   0  0  0  0  0  0  0  0  0  0  0  0
    0.2062    1.0636    0.2315 N   0  0  0  0  0  0  0  0  0  0  0  0
   -1.2345    1.2651    0.1416 C   0  0  2  0  0  0  0  0  0  0  0  0
   -2.0648    0.4136    1.1086 C   0  0  0  0  0  0  0  0  0  0  0  0
   -1.8895    1.0630   -1.2214 C   0  0  0  0  0  0  0  0  0  0  0  0
   -3.3658    1.0150   -0.8556 C   0  0  0  0  0  0  0  0  0  0  0  0
   -3.3700    0.3904    0.4675 N   0  0  0  0  0  0  0  0  0  0  0  0
   -4.4202   -0.1791    1.0841 C   0  0  0  0  0  0  0  0  0  0  0  0
   -4.2939   -0.7439    2.1685 O   0  0  0  0  0  0  0  0  0  0  0  0
   -5.7300   -0.0871    0.3932 C   0  0  0  0  0  0  0  0  0  0  0  0
   -6.7755   -0.8080    0.7913 C   0  0  0  0  0  0  0  0  0  0  0  0
   -8.1326   -0.7282    0.1736 C   0  0  0  0  0  0  0  0  0  0  0  0
   -8.6386   -2.0400   -0.1807 N   0  0  0  0  0  0  0  0  0  0  0  0
  -10.0485   -1.9889   -0.5018 C   0  0  0  0  0  0  0  0  0  0  0  0
   -7.8759   -2.6348   -1.2580 C   0  0  0  0  0  0  0  0  0  0  0  0
    4.6305   -5.4845   -2.3871 H   0  0  0  0  0  0  0  0  0  0  0  0
    5.8649   -4.6072   -3.3081 H   0  0  0  0  0  0  0  0  0  0  0  0
    6.0761   -4.8484   -1.5643 H   0  0  0  0  0  0  0  0  0  0  0  0
    4.2738   -5.1096   -0.1574 H   0  0  0  0  0  0  0  0  0  0  0  0
    3.1186   -6.4907    2.9164 H   0  0  0  0  0  0  0  0  0  0  0  0
    3.0658   -6.5502    1.1452 H   0  0  0  0  0  0  0  0  0  0  0  0
    4.5120   -5.9256    1.9770 H   0  0  0  0  0  0  0  0  0  0  0  0
    2.8291    0.5311    2.0484 H   0  0  0  0  0  0  0  0  0  0  0  0
    3.9201    0.5226    0.6670 H   0  0  0  0  0  0  0  0  0  0  0  0
    4.2237    3.0941    0.6830 H   0  0  0  0  0  0  0  0  0  0  0  0
   -0.1789    5.5861   -0.5354 H   0  0  0  0  0  0  0  0  0  0  0  0
    2.3207    6.8443    0.3254 H   0  0  0  0  0  0  0  0  0  0  0  0
    2.7106    7.9141   -1.8799 H   0  0  0  0  0  0  0  0  0  0  0  0
    2.8483    6.1607   -2.0014 H   0  0  0  0  0  0  0  0  0  0  0  0
    1.3889    6.9765   -2.5816 H   0  0  0  0  0  0  0  0  0  0  0  0
    0.1478    7.9161    0.8730 H   0  0  0  0  0  0  0  0  0  0  0  0
    1.1143    8.9473   -0.1827 H   0  0  0  0  0  0  0  0  0  0  0  0
   -0.2380    8.0369   -0.8487 H   0  0  0  0  0  0  0  0  0  0  0  0
   -1.3865    2.3064    0.4185 H   0  0  0  0  0  0  0  0  0  0  0  0
   -1.6769   -0.5962    1.2392 H   0  0  0  0  0  0  0  0  0  0  0  0
   -2.1182    0.8791    2.0943 H   0  0  0  0  0  0  0  0  0  0  0  0
   -1.6668    1.8760   -1.9112 H   0  0  0  0  0  0  0  0  0  0  0  0
   -1.5813    0.1244   -1.6777 H   0  0  0  0  0  0  0  0  0  0  0  0
   -3.7924    2.0213   -0.8122 H   0  0  0  0  0  0  0  0  0  0  0  0
   -3.9405    0.4337   -1.5747 H   0  0  0  0  0  0  0  0  0  0  0  0
   -5.8384    0.5860   -0.4490 H   0  0  0  0  0  0  0  0  0  0  0  0
   -6.6710   -1.4956    1.6254 H   0  0  0  0  0  0  0  0  0  0  0  0
   -8.8120   -0.2946    0.9159 H   0  0  0  0  0  0  0  0  0  0  0  0
   -8.1221   -0.0362   -0.6854 H   0  0  0  0  0  0  0  0  0  0  0  0
  -10.2774   -1.3548   -1.3728 H   0  0  0  0  0  0  0  0  0  0  0  0
  -10.4177   -2.9924   -0.7178 H   0  0  0  0  0  0  0  0  0  0  0  0
  -10.6131   -1.6019    0.3476 H   0  0  0  0  0  0  0  0  0  0  0  0
   -6.8309   -2.7530   -0.9693 H   0  0  0  0  0  0  0  0  0  0  0  0
   -8.2698   -3.6255   -1.4862 H   0  0  0  0  0  0  0  0  0  0  0  0
   -7.9002   -2.0399   -2.1851 H   0  0  0  0  0  0  0  0  0  0  0  0
  2  1  1  0
  2  3  1  0
  3  6  2  0
  3  4  1  0
  5  4  1  0
  6  7  1  0
  4 12  2  0
 34 33  2  0
  7  8  1  0
  7 10  2  0
 15 14  2  0
  9  8  1  0
 12 10  1  0
 12 13  1  0
 29 32  1  0
 29 28  1  0
 33 32  1  0
 33 35  1  0
 10 11  1  0
 13 14  1  0
 13 16  1  0
 32 31  1  0
 14 27  1  0
 36 35  2  0
 36 37  1  0
 28 27  1  0
 28 30  1  0
 37 38  1  0
 27 26  1  0
 31 30  1  0
 16 17  1  0
 26 17  2  0
 26 25  1  0
 38 40  1  0
 38 39  1  0
 17 18  1  0
 23 22  1  0
 25 20  2  0
 18 19  2  0
 20 19  1  0
 20 21  1  0
 22 21  1  0
 22 24  1  0
  1 41  1  0
  1 42  1  0
  1 43  1  0
  6 44  1  0
  9 45  1  0
  9 46  1  0
  9 47  1  0
 16 48  1  0
 16 49  1  0
 18 50  1  0
 21 51  1  0
 22 52  1  1
 23 53  1  0
 23 54  1  0
 23 55  1  0
 24 56  1  0
 24 57  1  0
 24 58  1  0
 28 59  1  1
 29 60  1  0
 29 61  1  0
 30 62  1  0
 30 63  1  0
 31 64  1  0
 31 65  1  0
 35 66  1  0
 36 67  1  0
 37 68  1  0
 37 69  1  0
 39 70  1  0
 39 71  1  0
 39 72  1  0
 40 73  1  0
 40 74  1  0
 40 75  1  0
M  END
