
     RDKit          3D

 50 53  0  0  0  0  0  0  0  0999 V2000
   -4.9915   -1.3628   -0.8372 C   0  0  0  0  0  0  0  0  0  0  0  0
   -4.1654   -2.3979   -1.2787 C   0  0  0  0  0  0  0  0  0  0  0  0
   -2.7980   -2.3843   -1.0764 C   0  0  0  0  0  0  0  0  0  0  0  0
   -2.2030   -1.3296   -0.3920 C   0  0  0  0  0  0  0  0  0  0  0  0
   -3.0015   -0.2809    0.0552 C   0  0  0  0  0  0  0  0  0  0  0  0
   -4.3696   -0.3069   -0.1704 C   0  0  0  0  0  0  0  0  0  0  0  0
   -0.7185   -1.3385   -0.2191 C   0  0  0  0  0  0  0  0  0  0  0  0
   -0.0001   -1.8988   -1.0301 O   0  0  0  0  0  0  0  0  0  0  0  0
   -5.5020    1.3302    0.5239 I   0  0  0  0  0  0  0  0  0  0  0  0
   -6.4640   -1.4182   -1.0964 C   0  0  0  0  0  0  0  0  0  0  0  0
   -0.2670   -0.6986    0.8849 N   0  0  0  0  0  0  0  0  0  0  0  0
    1.0530   -0.4502    1.2872 C   0  0  0  0  0  0  0  0  0  0  0  0
    2.1715   -0.7986    0.5384 C   0  0  0  0  0  0  0  0  0  0  0  0
    3.4043   -0.4508    1.0772 C   0  0  0  0  0  0  0  0  0  0  0  0
    3.5631    0.2147    2.3023 C   0  0  0  0  0  0  0  0  0  0  0  0
    2.4295    0.5475    3.0401 C   0  0  0  0  0  0  0  0  0  0  0  0
    1.1948    0.2115    2.5258 C   0  0  0  0  0  0  0  0  0  0  0  0
    4.6795   -0.6246    0.6165 N   0  0  0  0  0  0  0  0  0  0  0  0
    5.5224   -0.0707    1.5263 C   0  0  0  0  0  0  0  0  0  0  0  0
    4.8979    0.4406    2.5507 N   0  0  0  0  0  0  0  0  0  0  0  0
    7.0002   -0.1177    1.3224 C   0  0  0  0  0  0  0  0  0  0  0  0
    7.3280   -0.0225   -0.0816 N   0  0  0  0  0  0  0  0  0  0  0  0
    8.6823   -0.4727   -0.3601 C   0  0  0  0  0  0  0  0  0  0  0  0
    8.9569   -0.4867   -1.8561 C   0  0  0  0  0  0  0  0  0  0  0  0
    8.7059    0.8855   -2.4696 C   0  0  0  0  0  0  0  0  0  0  0  0
    7.3093    1.3690   -2.1032 C   0  0  0  0  0  0  0  0  0  0  0  0
    7.0988    1.3188   -0.5987 C   0  0  0  0  0  0  0  0  0  0  0  0
   -4.6148   -3.2356   -1.7968 H   0  0  0  0  0  0  0  0  0  0  0  0
   -2.1957   -3.2039   -1.4446 H   0  0  0  0  0  0  0  0  0  0  0  0
   -2.5581    0.5726    0.5514 H   0  0  0  0  0  0  0  0  0  0  0  0
   -6.7883   -0.5865   -1.7242 H   0  0  0  0  0  0  0  0  0  0  0  0
   -6.7315   -2.3431   -1.6040 H   0  0  0  0  0  0  0  0  0  0  0  0
   -7.0379   -1.3667   -0.1701 H   0  0  0  0  0  0  0  0  0  0  0  0
   -0.9659   -0.3873    1.5421 H   0  0  0  0  0  0  0  0  0  0  0  0
    2.1004   -1.3087   -0.4081 H   0  0  0  0  0  0  0  0  0  0  0  0
    2.5080    1.0604    3.9898 H   0  0  0  0  0  0  0  0  0  0  0  0
    0.3032    0.4674    3.0861 H   0  0  0  0  0  0  0  0  0  0  0  0
    4.9725   -1.0336   -0.2577 H   0  0  0  0  0  0  0  0  0  0  0  0
    7.4657    0.6642    1.9413 H   0  0  0  0  0  0  0  0  0  0  0  0
    7.3678   -1.0762    1.7036 H   0  0  0  0  0  0  0  0  0  0  0  0
    9.4292    0.1677    0.1408 H   0  0  0  0  0  0  0  0  0  0  0  0
    8.8056   -1.4787    0.0485 H   0  0  0  0  0  0  0  0  0  0  0  0
    9.9869   -0.8073   -2.0272 H   0  0  0  0  0  0  0  0  0  0  0  0
    8.3080   -1.2286   -2.3309 H   0  0  0  0  0  0  0  0  0  0  0  0
    9.4476    1.5953   -2.0878 H   0  0  0  0  0  0  0  0  0  0  0  0
    8.8327    0.8517   -3.5538 H   0  0  0  0  0  0  0  0  0  0  0  0
    7.1449    2.3899   -2.4546 H   0  0  0  0  0  0  0  0  0  0  0  0
    6.5585    0.7381   -2.5883 H   0  0  0  0  0  0  0  0  0  0  0  0
    6.0770    1.6274   -0.3645 H   0  0  0  0  0  0  0  0  0  0  0  0
    7.7653    2.0489   -0.1065 H   0  0  0  0  0  0  0  0  0  0  0  0
 10  1  1  0
  2  1  2  0
  2  3  1  0
  1  6  1  0
  3  4  2  0
  6  9  1  0
  6  5  2  0
  8  7  2  0
  4  5  1  0
  4  7  1  0
  7 11  1  0
 11 12  1  0
 13 12  2  0
 13 14  1  0
 12 17  1  0
 18 14  1  0
 18 19  1  0
 14 15  2  0
 17 16  2  0
 19 21  1  0
 19 20  2  0
 15 16  1  0
 15 20  1  0
 21 22  1  0
 22 23  1  0
 22 27  1  0
 23 24  1  0
 24 25  1  0
 27 26  1  0
 25 26  1  0
  2 28  1  0
  3 29  1  0
  5 30  1  0
 10 31  1  0
 10 32  1  0
 10 33  1  0
 11 34  1  0
 13 35  1  0
 16 36  1  0
 17 37  1  0
 18 38  1  0
 21 39  1  0
 21 40  1  0
 23 41  1  0
 23 42  1  0
 24 43  1  0
 24 44  1  0
 25 45  1  0
 25 46  1  0
 26 47  1  0
 26 48  1  0
 27 49  1  0
 27 50  1  0
M  END
