
     RDKit          3D

 22 21  0  0  0  0  0  0  0  0999 V2000
    1.7142    0.3214   -1.5680 N   0  0  0  0  0  0  0  0  0  0  0  0
    0.4113   -0.3036   -1.5656 C   0  0  1  0  0  0  0  0  0  0  0  0
   -0.4909   -0.0050   -0.3602 C   0  0  0  0  0  0  0  0  0  0  0  0
    0.3187   -0.5947    1.0955 S   0  0  0  0  0  0  0  0  0  0  0  0
   -0.4592    0.3831    2.3520 C   0  0  0  0  0  0  0  0  0  0  0  0
   -0.0076   -0.1942    3.6870 C   0  0  0  0  0  0  0  0  0  0  0  0
   -0.5185    0.5465    4.8163 N   0  0  0  0  0  0  0  0  0  0  0  0
   -0.3714    0.1135   -2.8024 C   0  0  0  0  0  0  0  0  0  0  0  0
   -0.5565    1.2451   -3.2530 O   0  0  0  0  0  0  0  0  0  0  0  0
   -0.9254   -0.9310   -3.4724 O   0  0  0  0  0  0  0  0  0  0  0  0
    2.1942    0.1103   -0.7129 H   0  0  0  0  0  0  0  0  0  0  0  0
    1.6392    1.3142   -1.6803 H   0  0  0  0  0  0  0  0  0  0  0  0
    0.5787   -1.4241   -1.6157 H   0  0  0  0  0  0  0  0  0  0  0  0
   -1.4678   -0.5298   -0.4947 H   0  0  0  0  0  0  0  0  0  0  0  0
   -0.6973    1.0899   -0.2821 H   0  0  0  0  0  0  0  0  0  0  0  0
   -1.5710    0.3331    2.2562 H   0  0  0  0  0  0  0  0  0  0  0  0
   -0.1544    1.4529    2.2496 H   0  0  0  0  0  0  0  0  0  0  0  0
    1.1230   -0.2500    3.6788 H   0  0  0  0  0  0  0  0  0  0  0  0
   -0.3932   -1.2517    3.7740 H   0  0  0  0  0  0  0  0  0  0  0  0
   -0.2059    0.1326    5.6713 H   0  0  0  0  0  0  0  0  0  0  0  0
   -0.2264    1.5023    4.7840 H   0  0  0  0  0  0  0  0  0  0  0  0
   -1.4096   -0.6020   -4.2483 H   0  0  0  0  0  0  0  0  0  0  0  0
  1  2  1  0
  1 11  1  0
  1 12  1  0
  2  3  1  0
  2  8  1  0
  2 13  1  6
  3  4  1  0
  3 14  1  0
  3 15  1  0
  4  5  1  0
  5  6  1  0
  5 16  1  0
  5 17  1  0
  6  7  1  0
  6 18  1  0
  6 19  1  0
  7 20  1  0
  7 21  1  0
  8  9  2  0
  8 10  1  0
 10 22  1  0
M  END
