
     RDKit          3D

 25 26  0  0  0  0  0  0  0  0999 V2000
    4.6371   -0.1368   -0.5511 C   0  0  0  0  0  0  0  0  0  0  0  0
   -1.5489    0.4611   -0.0210 C   0  0  0  0  0  0  0  0  0  0  0  0
   -1.0900   -0.8322   -0.2467 C   0  0  0  0  0  0  0  0  0  0  0  0
   -3.1782   -1.5629   -0.3587 C   0  0  0  0  0  0  0  0  0  0  0  0
   -2.9281    0.6912    0.0272 C   0  0  0  0  0  0  0  0  0  0  0  0
   -0.4162    1.2300    0.1001 N   0  0  0  0  0  0  0  0  0  0  0  0
   -1.9010   -1.8818   -0.4203 N   0  0  0  0  0  0  0  0  0  0  0  0
    3.2290   -1.2926    1.2012 C   0  0  0  0  0  0  0  0  0  0  0  0
   -3.7242   -0.3663   -0.1490 N   0  0  0  0  0  0  0  0  0  0  0  0
    0.6327    0.3891   -0.0596 C   0  0  0  0  0  0  0  0  0  0  0  0
    2.2565    1.0035   -0.0096 S   0  0  0  0  0  0  0  0  0  0  0  0
    3.2364   -0.5433   -0.1181 C   0  0  1  0  0  0  0  0  0  0  0  0
    0.2732   -0.8545   -0.2676 N   0  0  0  0  0  0  0  0  0  0  0  0
    5.2594   -1.0288   -0.6256 H   0  0  0  0  0  0  0  0  0  0  0  0
    4.6336    0.3543   -1.5236 H   0  0  0  0  0  0  0  0  0  0  0  0
    5.1045    0.5329    0.1725 H   0  0  0  0  0  0  0  0  0  0  0  0
   -3.8853   -2.3746   -0.4956 H   0  0  0  0  0  0  0  0  0  0  0  0
   -0.3611    2.2234    0.2637 H   0  0  0  0  0  0  0  0  0  0  0  0
    3.6799   -0.6956    1.9945 H   0  0  0  0  0  0  0  0  0  0  0  0
    2.2191   -1.5656    1.5020 H   0  0  0  0  0  0  0  0  0  0  0  0
    3.8083   -2.2128    1.1002 H   0  0  0  0  0  0  0  0  0  0  0  0
    2.7695   -1.1460   -0.8971 H   0  0  0  0  0  0  0  0  0  0  0  0
   -2.9396    2.6884    0.5072 H   0  0  0  0  0  0  0  0  0  0  0  0
   -4.4798    1.9583    0.3369 H   0  0  0  0  0  0  0  0  0  0  0  0
   -3.4838    1.8983    0.2101 N   0  0  0  0  0  0  0  0  0  0  0  0
  8 12  1  0
 12 11  1  0
 12  1  1  0
 11 10  1  0
 10 13  2  0
 10  6  1  0
 13  3  1  0
  6  2  1  0
  3  2  2  0
  3  7  1  0
  2  5  1  0
  7  4  2  0
  5 25  1  0
  5  9  2  0
  4  9  1  0
  1 14  1  0
  1 15  1  0
  1 16  1  0
  4 17  1  0
  6 18  1  0
  8 19  1  0
  8 20  1  0
  8 21  1  0
 12 22  1  6
 25 23  1  0
 25 24  1  0
M  END
