
     RDKit          3D

 35 37  0  0  0  0  0  0  0  0999 V2000
    0.5562    0.6678   -2.2017 O   0  0  0  0  0  0  0  0  0  0  0  0
    0.3481    1.0669   -1.0816 C   0  0  0  0  0  0  0  0  0  0  0  0
    0.0634    0.1987    0.1533 C   0  0  1  0  0  0  0  0  0  0  0  0
    0.0379    1.2019    1.1931 N   0  0  0  0  0  0  0  0  0  0  0  0
    0.0458    2.4716    0.6932 C   0  0  0  0  0  0  0  0  0  0  0  0
    0.3268    2.3594   -0.6717 N   0  0  0  0  0  0  0  0  0  0  0  0
   -0.1493    3.5216    1.3733 N   0  0  0  0  0  0  0  0  0  0  0  0
    0.5410    3.5026   -1.5276 C   0  0  0  0  0  0  0  0  0  0  0  0
   -1.2896   -0.4975    0.0591 C   0  0  0  0  0  0  0  0  0  0  0  0
   -2.2955   -0.0542   -0.7940 C   0  0  0  0  0  0  0  0  0  0  0  0
   -3.5471   -0.6569   -0.7813 C   0  0  0  0  0  0  0  0  0  0  0  0
   -3.8126   -1.7031    0.0896 C   0  0  0  0  0  0  0  0  0  0  0  0
   -2.8164   -2.1452    0.9501 C   0  0  0  0  0  0  0  0  0  0  0  0
   -1.5652   -1.5478    0.9324 C   0  0  0  0  0  0  0  0  0  0  0  0
    1.2120   -0.7874    0.3013 C   0  0  0  0  0  0  0  0  0  0  0  0
    2.2242   -0.5815    1.2299 C   0  0  0  0  0  0  0  0  0  0  0  0
    3.2864   -1.4739    1.3221 C   0  0  0  0  0  0  0  0  0  0  0  0
    3.3483   -2.5756    0.4826 C   0  0  0  0  0  0  0  0  0  0  0  0
    2.3395   -2.7834   -0.4508 C   0  0  0  0  0  0  0  0  0  0  0  0
    1.2786   -1.8962   -0.5408 C   0  0  0  0  0  0  0  0  0  0  0  0
   -0.0947    4.3617    0.8112 H   0  0  0  0  0  0  0  0  0  0  0  0
   -0.3850    4.0576   -1.6741 H   0  0  0  0  0  0  0  0  0  0  0  0
    1.2897    4.1628   -1.0933 H   0  0  0  0  0  0  0  0  0  0  0  0
    0.9002    3.1578   -2.4923 H   0  0  0  0  0  0  0  0  0  0  0  0
   -2.1302    0.7625   -1.4852 H   0  0  0  0  0  0  0  0  0  0  0  0
   -4.3143   -0.3043   -1.4581 H   0  0  0  0  0  0  0  0  0  0  0  0
   -4.7878   -2.1720    0.0976 H   0  0  0  0  0  0  0  0  0  0  0  0
   -3.0093   -2.9601    1.6357 H   0  0  0  0  0  0  0  0  0  0  0  0
   -0.7969   -1.9108    1.6039 H   0  0  0  0  0  0  0  0  0  0  0  0
    2.1836    0.2750    1.8893 H   0  0  0  0  0  0  0  0  0  0  0  0
    4.0652   -1.3037    2.0541 H   0  0  0  0  0  0  0  0  0  0  0  0
    4.1743   -3.2710    0.5551 H   0  0  0  0  0  0  0  0  0  0  0  0
    2.3773   -3.6416   -1.1091 H   0  0  0  0  0  0  0  0  0  0  0  0
    0.4961   -2.0771   -1.2664 H   0  0  0  0  0  0  0  0  0  0  0  0
   -0.4521    1.0269    2.0565 H   0  0  0  0  0  0  0  0  0  0  0  0
 18 17  1  0
 18 19  2  0
 17 16  2  0
 19 20  1  0
 16 15  1  0
 11 10  2  0
 11 12  1  0
 20 15  2  0
 10  9  1  0
  3 15  1  1
 12 13  2  0
  9  3  1  0
  9 14  2  0
 13 14  1  0
  3  4  1  0
  3  2  1  0
  4  5  1  0
  1  2  2  0
  2  6  1  0
  5  6  1  0
  5  7  2  0
  6  8  1  0
  7 21  1  0
  8 22  1  0
  8 23  1  0
  8 24  1  0
 10 25  1  0
 11 26  1  0
 12 27  1  0
 13 28  1  0
 14 29  1  0
 16 30  1  0
 17 31  1  0
 18 32  1  0
 19 33  1  0
 20 34  1  0
  4 35  1  0
M  END
