
     RDKit          3D

 31 31  0  0  0  0  0  0  0  0999 V2000
   -2.7782    2.5162   -0.4889 O   0  0  0  0  0  0  0  0  0  0  0  0
   -3.1138    1.4192   -0.1053 C   0  0  0  0  0  0  0  0  0  0  0  0
   -4.3261    1.1454    0.3361 O   0  0  0  0  0  0  0  0  0  0  0  0
   -2.1577    0.2760   -0.0478 C   0  0  0  0  0  0  0  0  0  0  0  0
   -2.5154   -1.0230   -0.0674 C   0  0  0  0  0  0  0  0  0  0  0  0
   -3.9074   -1.5685   -0.2267 C   0  0  0  0  0  0  0  0  0  0  0  0
   -1.5023   -2.1287    0.0429 C   0  0  0  0  0  0  0  0  0  0  0  0
    0.0808   -1.6310    0.7523 S   0  0  0  0  0  0  0  0  0  0  0  0
   -0.8479    0.7487    0.0437 N   0  0  0  0  0  0  0  0  0  0  0  0
    0.2351   -0.1291   -0.2676 C   0  0  1  0  0  0  0  0  0  0  0  0
    1.5696    0.5530    0.0432 C   0  0  1  0  0  0  0  0  0  0  0  0
    1.6789    0.8683    1.5262 C   0  0  0  0  0  0  0  0  0  0  0  0
    2.6089    0.5324    2.2089 O   0  0  0  0  0  0  0  0  0  0  0  0
    2.6603   -0.2422   -0.4340 N   0  0  0  0  0  0  0  0  0  0  0  0
    3.8743    0.2872   -0.6929 C   0  0  0  0  0  0  0  0  0  0  0  0
    4.0901    1.4873   -0.6245 O   0  0  0  0  0  0  0  0  0  0  0  0
    4.9397   -0.7026   -1.0842 C   0  0  0  0  0  0  0  0  0  0  0  0
   -4.8938    1.9264    0.2470 H   0  0  0  0  0  0  0  0  0  0  0  0
   -3.8510   -2.5343   -0.7326 H   0  0  0  0  0  0  0  0  0  0  0  0
   -4.3775   -1.7518    0.7424 H   0  0  0  0  0  0  0  0  0  0  0  0
   -1.8931   -2.9096    0.6997 H   0  0  0  0  0  0  0  0  0  0  0  0
   -1.3399   -2.5981   -0.9313 H   0  0  0  0  0  0  0  0  0  0  0  0
   -0.7432    1.6740   -0.3517 H   0  0  0  0  0  0  0  0  0  0  0  0
    0.2362   -0.4458   -1.3187 H   0  0  0  0  0  0  0  0  0  0  0  0
    1.5667    1.5161   -0.4825 H   0  0  0  0  0  0  0  0  0  0  0  0
    0.8382    1.4528    1.9325 H   0  0  0  0  0  0  0  0  0  0  0  0
    2.5553   -1.2454   -0.4283 H   0  0  0  0  0  0  0  0  0  0  0  0
    4.5685   -1.7185   -1.2034 H   0  0  0  0  0  0  0  0  0  0  0  0
    5.4023   -0.3887   -2.0192 H   0  0  0  0  0  0  0  0  0  0  0  0
    5.7189   -0.7099   -0.3217 H   0  0  0  0  0  0  0  0  0  0  0  0
   -4.5691   -0.9360   -0.8098 H   0  0  0  0  0  0  0  0  0  0  0  0
  7  5  1  0
  7  8  1  0
  1  2  2  0
  5  6  1  0
  5  4  2  0
  8 10  1  0
 10  9  1  0
 10 11  1  0
  4  2  1  0
  4  9  1  0
  2  3  1  0
 11 12  1  0
 11 14  1  0
 12 13  2  0
 14 15  1  0
 16 15  2  0
 15 17  1  0
  3 18  1  0
  6 19  1  0
  6 20  1  0
  7 21  1  0
  7 22  1  0
  9 23  1  0
 10 24  1  6
 11 25  1  6
 12 26  1  0
 14 27  1  0
 17 28  1  0
 17 29  1  0
 17 30  1  0
  6 31  1  0
M  END
