
     RDKit          3D

 31 32  0  0  0  0  0  0  0  0999 V2000
    2.7402   -1.1791   -0.4111 N   0  0  0  0  0  0  0  0  0  0  0  0
   -0.8021   -0.4142    0.1075 C   0  0  2  0  0  0  0  0  0  0  0  0
   -1.8340   -1.5224    0.3281 C   0  0  0  0  0  0  0  0  0  0  0  0
   -3.1864   -1.0757    0.8691 C   0  0  0  0  0  0  0  0  0  0  0  0
   -3.9129    0.0160    0.0857 C   0  0  0  0  0  0  0  0  0  0  0  0
   -3.2705    1.3946    0.2336 C   0  0  0  0  0  0  0  0  0  0  0  0
   -1.1882    0.5082   -1.0579 C   0  0  0  0  0  0  0  0  0  0  0  0
    1.7113    0.7959    0.4350 N   0  0  0  0  0  0  0  0  0  0  0  0
    4.0792    0.6929    0.1972 C   0  0  0  0  0  0  0  0  0  0  0  0
    2.9098    1.3463    0.5469 C   0  0  0  0  0  0  0  0  0  0  0  0
    1.6713   -0.4562   -0.0360 C   0  0  0  0  0  0  0  0  0  0  0  0
    3.9184   -0.5976   -0.2886 C   0  0  0  0  0  0  0  0  0  0  0  0
   -2.0893    1.6875   -0.6979 C   0  0  0  0  0  0  0  0  0  0  0  0
    0.4756   -1.0617   -0.1331 N   0  0  0  0  0  0  0  0  0  0  0  0
   -0.7020    0.1777    1.0225 H   0  0  0  0  0  0  0  0  0  0  0  0
   -1.9791   -2.0469   -0.6237 H   0  0  0  0  0  0  0  0  0  0  0  0
   -1.4150   -2.2557    1.0231 H   0  0  0  0  0  0  0  0  0  0  0  0
   -3.8247   -1.9614    0.9237 H   0  0  0  0  0  0  0  0  0  0  0  0
   -3.0644   -0.7312    1.9017 H   0  0  0  0  0  0  0  0  0  0  0  0
   -4.0010   -0.2624   -0.9699 H   0  0  0  0  0  0  0  0  0  0  0  0
   -4.9373    0.0705    0.4628 H   0  0  0  0  0  0  0  0  0  0  0  0
   -4.0260    2.1677    0.0735 H   0  0  0  0  0  0  0  0  0  0  0  0
   -2.9565    1.5109    1.2756 H   0  0  0  0  0  0  0  0  0  0  0  0
   -0.2796    0.9158   -1.5054 H   0  0  0  0  0  0  0  0  0  0  0  0
   -1.6570   -0.1011   -1.8377 H   0  0  0  0  0  0  0  0  0  0  0  0
    5.0492    1.1563    0.2931 H   0  0  0  0  0  0  0  0  0  0  0  0
    2.9381    2.3597    0.9342 H   0  0  0  0  0  0  0  0  0  0  0  0
    4.7795   -1.1852   -0.5905 H   0  0  0  0  0  0  0  0  0  0  0  0
   -2.4668    2.1090   -1.6334 H   0  0  0  0  0  0  0  0  0  0  0  0
   -1.4782    2.4717   -0.2434 H   0  0  0  0  0  0  0  0  0  0  0  0
    0.4753   -1.9706   -0.5687 H   0  0  0  0  0  0  0  0  0  0  0  0
  9 10  2  0
  9 12  1  0
 10  8  1  0
 12  1  2  0
  8 11  2  0
  1 11  1  0
 11 14  1  0
 14  2  1  0
  7 13  1  0
  7  2  1  0
 13  6  1  0
  2  3  1  0
  6  5  1  0
  3  4  1  0
  5  4  1  0
  2 15  1  1
  3 16  1  0
  3 17  1  0
  4 18  1  0
  4 19  1  0
  5 20  1  0
  5 21  1  0
  6 22  1  0
  6 23  1  0
  7 24  1  0
  7 25  1  0
  9 26  1  0
 10 27  1  0
 12 28  1  0
 13 29  1  0
 13 30  1  0
 14 31  1  0
M  END
