
     RDKit          3D

 17 17  0  0  0  0  0  0  0  0999 V2000
   -2.1646   -2.1155   -0.7632 N   0  0  0  0  0  0  0  0  0  0  0  0
   -1.5165   -1.7654    0.4903 C   0  0  0  0  0  0  0  0  0  0  0  0
   -0.5481   -0.6351    0.2716 C   0  0  0  0  0  0  0  0  0  0  0  0
   -0.9615    0.6762    0.0446 C   0  0  0  0  0  0  0  0  0  0  0  0
   -0.0528    1.6967   -0.1855 C   0  0  0  0  0  0  0  0  0  0  0  0
    1.3061    1.4227   -0.2075 C   0  0  0  0  0  0  0  0  0  0  0  0
    1.7286    0.1232    0.0112 C   0  0  0  0  0  0  0  0  0  0  0  0
    0.8181   -0.8941    0.2488 C   0  0  0  0  0  0  0  0  0  0  0  0
   -2.6475    1.0716    0.0743 Cl  0  0  0  0  0  0  0  0  0  0  0  0
    3.4216   -0.2412   -0.0124 Cl  0  0  0  0  0  0  0  0  0  0  0  0
   -1.5075   -2.6060   -1.3565 H   0  0  0  0  0  0  0  0  0  0  0  0
   -2.2864   -1.4556    1.1993 H   0  0  0  0  0  0  0  0  0  0  0  0
   -0.9765   -2.5954    0.9617 H   0  0  0  0  0  0  0  0  0  0  0  0
   -0.3979    2.7084   -0.3498 H   0  0  0  0  0  0  0  0  0  0  0  0
    2.0164    2.2175   -0.3879 H   0  0  0  0  0  0  0  0  0  0  0  0
    1.1659   -1.9049    0.4219 H   0  0  0  0  0  0  0  0  0  0  0  0
   -2.9161   -2.7675   -0.5794 H   0  0  0  0  0  0  0  0  0  0  0  0
  1  2  1  0
  1 11  1  0
  2  3  1  0
  2 12  1  0
  2 13  1  0
  3  4  2  0
  3  8  1  0
  4  5  1  0
  4  9  1  0
  5  6  2  0
  5 14  1  0
  6  7  1  0
  6 15  1  0
  7  8  2  0
  7 10  1  0
  8 16  1  0
  1 17  1  0
M  END
