
     RDKit          3D

 47 49  0  0  0  0  0  0  0  0999 V2000
   -0.0603   -0.1466    0.8559 C   0  0  0  0  0  0  0  0  0  0  0  0
   -1.3152   -0.6113    0.4751 C   0  0  0  0  0  0  0  0  0  0  0  0
   -2.4753    0.0848    0.8056 C   0  0  0  0  0  0  0  0  0  0  0  0
    5.6423   -0.8676   -1.0403 C   0  0  0  0  0  0  0  0  0  0  0  0
    6.0744   -1.9614   -0.3071 C   0  0  0  0  0  0  0  0  0  0  0  0
    5.2392   -2.5131    0.6542 C   0  0  0  0  0  0  0  0  0  0  0  0
    3.9881   -1.9639    0.8825 C   0  0  0  0  0  0  0  0  0  0  0  0
    3.9416    0.8358   -1.7069 C   0  0  0  0  0  0  0  0  0  0  0  0
    3.9628    2.1695   -1.0016 C   0  0  0  0  0  0  0  0  0  0  0  0
   -3.8025   -0.4196    0.3962 C   0  0  0  0  0  0  0  0  0  0  0  0
   -4.8172    0.4660    0.0326 C   0  0  0  0  0  0  0  0  0  0  0  0
   -6.0760    0.0122   -0.3459 C   0  0  0  0  0  0  0  0  0  0  0  0
   -6.3128   -1.3594   -0.3702 C   0  0  0  0  0  0  0  0  0  0  0  0
   -5.3147   -2.2534   -0.0089 C   0  0  0  0  0  0  0  0  0  0  0  0
   -4.0656   -1.7899    0.3731 C   0  0  0  0  0  0  0  0  0  0  0  0
   -7.1809    0.9773   -0.6996 C   0  0  0  0  0  0  0  0  0  0  0  0
   -2.3534    1.2630    1.5449 C   0  0  0  0  0  0  0  0  0  0  0  0
   -1.1087    1.7257    1.9401 C   0  0  0  0  0  0  0  0  0  0  0  0
    0.0397    1.0277    1.5988 C   0  0  0  0  0  0  0  0  0  0  0  0
    1.1305   -0.9654    0.4744 C   0  0  0  0  0  0  0  0  0  0  0  0
    2.2995   -0.2856    0.3986 N   0  0  0  0  0  0  0  0  0  0  0  0
    3.5558   -0.8668    0.1425 C   0  0  0  0  0  0  0  0  0  0  0  0
    4.3816   -0.3126   -0.8399 C   0  0  0  0  0  0  0  0  0  0  0  0
    3.6747    2.3269    0.1622 O   0  0  0  0  0  0  0  0  0  0  0  0
    4.2989    3.1607   -1.8071 O   0  0  0  0  0  0  0  0  0  0  0  0
    1.0355   -2.1577    0.2397 O   0  0  0  0  0  0  0  0  0  0  0  0
   -6.6790    2.1943   -1.3101 N   0  0  0  0  0  0  0  0  0  0  0  0
   -1.3834   -1.5207   -0.1085 H   0  0  0  0  0  0  0  0  0  0  0  0
    6.2894   -0.4397   -1.7964 H   0  0  0  0  0  0  0  0  0  0  0  0
    7.0566   -2.3784   -0.4855 H   0  0  0  0  0  0  0  0  0  0  0  0
    5.5636   -3.3659    1.2360 H   0  0  0  0  0  0  0  0  0  0  0  0
    3.3536   -2.3788    1.6533 H   0  0  0  0  0  0  0  0  0  0  0  0
    2.9139    0.6817   -2.0562 H   0  0  0  0  0  0  0  0  0  0  0  0
    4.5628    0.8822   -2.6009 H   0  0  0  0  0  0  0  0  0  0  0  0
   -4.6246    1.5316    0.0197 H   0  0  0  0  0  0  0  0  0  0  0  0
   -7.2828   -1.7320   -0.6784 H   0  0  0  0  0  0  0  0  0  0  0  0
   -5.5111   -3.3177   -0.0252 H   0  0  0  0  0  0  0  0  0  0  0  0
   -3.3009   -2.4973    0.6689 H   0  0  0  0  0  0  0  0  0  0  0  0
   -7.9243    0.4452   -1.3076 H   0  0  0  0  0  0  0  0  0  0  0  0
   -7.6986    1.2578    0.2229 H   0  0  0  0  0  0  0  0  0  0  0  0
   -3.2397    1.8119    1.8370 H   0  0  0  0  0  0  0  0  0  0  0  0
   -1.0330    2.6281    2.5317 H   0  0  0  0  0  0  0  0  0  0  0  0
    0.9961    1.3957    1.9479 H   0  0  0  0  0  0  0  0  0  0  0  0
    2.2917    0.7199    0.4849 H   0  0  0  0  0  0  0  0  0  0  0  0
    4.2546    4.0068   -1.3351 H   0  0  0  0  0  0  0  0  0  0  0  0
   -6.3526    1.9964   -2.2476 H   0  0  0  0  0  0  0  0  0  0  0  0
   -7.4376    2.8558   -1.4101 H   0  0  0  0  0  0  0  0  0  0  0  0
 19 18  2  0
 19  1  1  0
 26 20  2  0
 18 17  1  0
 20  1  1  0
 20 21  1  0
  1  2  2  0
 17  3  2  0
  7  6  2  0
  7 22  1  0
  6  5  1  0
 21 22  1  0
  2  3  1  0
 22 23  2  0
  3 10  1  0
  5  4  2  0
 23  4  1  0
 23  8  1  0
 10 11  2  0
 10 15  1  0
 11 12  1  0
  8  9  1  0
 24  9  2  0
 15 14  2  0
 16 12  1  0
 16 27  1  0
  9 25  1  0
 12 13  2  0
 14 13  1  0
  2 28  1  0
  4 29  1  0
  5 30  1  0
  6 31  1  0
  7 32  1  0
  8 33  1  0
  8 34  1  0
 11 35  1  0
 13 36  1  0
 14 37  1  0
 15 38  1  0
 16 39  1  0
 16 40  1  0
 17 41  1  0
 18 42  1  0
 19 43  1  0
 21 44  1  0
 25 45  1  0
 27 46  1  0
 27 47  1  0
M  END
