
     RDKit          3D

 27 28  0  0  0  0  0  0  0  0999 V2000
    5.1555   -1.0077   -0.0161 O   0  0  0  0  0  0  0  0  0  0  0  0
    4.8246    0.1519   -0.0186 C   0  0  0  0  0  0  0  0  0  0  0  0
    5.6975    1.1544   -0.0350 O   0  0  0  0  0  0  0  0  0  0  0  0
    3.4071    0.6532   -0.0036 C   0  0  0  0  0  0  0  0  0  0  0  0
    2.3925   -0.4735    0.0007 C   0  0  0  0  0  0  0  0  0  0  0  0
    0.9718   -0.0071    0.0098 C   0  0  0  0  0  0  0  0  0  0  0  0
   -0.0918   -1.0393    0.0054 C   0  0  0  0  0  0  0  0  0  0  0  0
    0.2052   -2.2291    0.0039 O   0  0  0  0  0  0  0  0  0  0  0  0
   -1.4228   -0.5013    0.0018 C   0  0  0  0  0  0  0  0  0  0  0  0
   -2.6055   -1.3296   -0.0152 C   0  0  0  0  0  0  0  0  0  0  0  0
   -2.6529   -2.5436   -0.0318 O   0  0  0  0  0  0  0  0  0  0  0  0
    0.7304    1.2545    0.0202 N   0  0  0  0  0  0  0  0  0  0  0  0
   -0.5277    1.6760    0.0258 N   0  0  0  0  0  0  0  0  0  0  0  0
   -1.6130    0.8832    0.0144 C   0  0  0  0  0  0  0  0  0  0  0  0
   -2.7914    1.5148    0.0157 N   0  0  0  0  0  0  0  0  0  0  0  0
   -3.8621    0.7543   -0.0013 C   0  0  0  0  0  0  0  0  0  0  0  0
   -5.0644    1.3125   -0.0047 N   0  0  0  0  0  0  0  0  0  0  0  0
   -3.7917   -0.6003   -0.0135 N   0  0  0  0  0  0  0  0  0  0  0  0
    6.6018    0.8069   -0.0428 H   0  0  0  0  0  0  0  0  0  0  0  0
    3.2838    1.2991    0.8703 H   0  0  0  0  0  0  0  0  0  0  0  0
    3.2666    1.3080   -0.8678 H   0  0  0  0  0  0  0  0  0  0  0  0
    2.5359   -1.1188   -0.8702 H   0  0  0  0  0  0  0  0  0  0  0  0
    2.5464   -1.1240    0.8659 H   0  0  0  0  0  0  0  0  0  0  0  0
   -5.1411    2.3155   -0.0033 H   0  0  0  0  0  0  0  0  0  0  0  0
   -5.9129    0.7732   -0.0342 H   0  0  0  0  0  0  0  0  0  0  0  0
   -4.6477   -1.1406   -0.0295 H   0  0  0  0  0  0  0  0  0  0  0  0
   -0.6507    2.6780    0.0331 H   0  0  0  0  0  0  0  0  0  0  0  0
 17 16  1  0
 18 16  1  0
 18 10  1  0
 16 15  2  0
 11 10  2  0
 10  9  1  0
 15 14  1  0
  9 14  2  0
  9  7  1  0
 14 13  1  0
  8  7  2  0
  7  6  1  0
 13 12  1  0
  6 12  2  0
  6  5  1  0
  5  4  1  0
  1  2  2  0
  4  2  1  0
  2  3  1  0
  3 19  1  0
  4 20  1  0
  4 21  1  0
  5 22  1  0
  5 23  1  0
 17 24  1  0
 17 25  1  0
 18 26  1  0
 13 27  1  0
M  END
