
     RDKit          3D

 47 50  0  0  0  0  0  0  0  0999 V2000
   -1.5469    0.7852    0.5359 C   0  0  0  0  0  0  0  0  0  0  0  0
   -1.1810    0.0101    1.6370 C   0  0  0  0  0  0  0  0  0  0  0  0
   -1.8525   -1.1778    1.8920 C   0  0  0  0  0  0  0  0  0  0  0  0
   -0.8487    2.0268    0.2149 C   0  0  0  0  0  0  0  0  0  0  0  0
    2.5672    1.1414    0.8179 C   0  0  0  0  0  0  0  0  0  0  0  0
    3.5204    0.1456    0.8130 C   0  0  0  0  0  0  0  0  0  0  0  0
    2.2089   -1.0154   -0.9097 C   0  0  0  0  0  0  0  0  0  0  0  0
    3.4978   -2.8190   -1.2053 C   0  0  0  0  0  0  0  0  0  0  0  0
    5.3327   -2.3288    0.4317 C   0  0  0  0  0  0  0  0  0  0  0  0
   -3.8295   -2.1622   -2.0602 C   0  0  0  0  0  0  0  0  0  0  0  0
   -2.8947   -1.5874    1.0660 C   0  0  0  0  0  0  0  0  0  0  0  0
   -3.3080   -0.8114   -0.0267 C   0  0  0  0  0  0  0  0  0  0  0  0
   -2.6084    0.3607   -0.2598 C   0  0  0  0  0  0  0  0  0  0  0  0
    0.5057    2.1237   -0.0054 N   0  0  0  0  0  0  0  0  0  0  0  0
    0.7903    3.4359   -0.3473 C   0  0  0  0  0  0  0  0  0  0  0  0
   -0.4300    4.0208   -0.2960 N   0  0  0  0  0  0  0  0  0  0  0  0
   -1.4269    3.1681    0.0465 N   0  0  0  0  0  0  0  0  0  0  0  0
    1.4555    1.0738   -0.0360 C   0  0  0  0  0  0  0  0  0  0  0  0
    1.2673    0.0169   -0.9031 C   0  0  0  0  0  0  0  0  0  0  0  0
    3.3289   -0.9310   -0.0527 C   0  0  0  0  0  0  0  0  0  0  0  0
    2.3416   -2.2358   -1.6376 C   0  0  0  0  0  0  0  0  0  0  0  0
    4.0965   -2.0408   -0.2528 N   0  0  0  0  0  0  0  0  0  0  0  0
   -5.2416   -0.1496   -1.5323 C   0  0  0  0  0  0  0  0  0  0  0  0
   -3.5410   -2.7449    1.2909 O   0  0  0  0  0  0  0  0  0  0  0  0
   -0.1998    0.4721    2.4262 O   0  0  0  0  0  0  0  0  0  0  0  0
    1.8732    3.9181   -0.6312 O   0  0  0  0  0  0  0  0  0  0  0  0
   -1.5685   -1.7858    2.7461 H   0  0  0  0  0  0  0  0  0  0  0  0
    2.6682    1.9773    1.4965 H   0  0  0  0  0  0  0  0  0  0  0  0
    4.3776    0.2007    1.4715 H   0  0  0  0  0  0  0  0  0  0  0  0
    3.9511   -3.7503   -1.5073 H   0  0  0  0  0  0  0  0  0  0  0  0
    6.0749   -1.5541    0.2392 H   0  0  0  0  0  0  0  0  0  0  0  0
    5.1752   -2.4020    1.5076 H   0  0  0  0  0  0  0  0  0  0  0  0
    5.7263   -3.2775    0.0769 H   0  0  0  0  0  0  0  0  0  0  0  0
   -5.0934   -1.9102   -0.3621 H   0  0  0  0  0  0  0  0  0  0  0  0
   -3.1661   -1.5799   -2.7031 H   0  0  0  0  0  0  0  0  0  0  0  0
   -3.2542   -2.9964   -1.6562 H   0  0  0  0  0  0  0  0  0  0  0  0
   -4.6232   -2.5762   -2.6850 H   0  0  0  0  0  0  0  0  0  0  0  0
   -2.8798    0.9793   -1.1061 H   0  0  0  0  0  0  0  0  0  0  0  0
   -0.6295    4.9925   -0.4701 H   0  0  0  0  0  0  0  0  0  0  0  0
    0.4075   -0.0090   -1.5609 H   0  0  0  0  0  0  0  0  0  0  0  0
    1.6701   -2.6320   -2.3824 H   0  0  0  0  0  0  0  0  0  0  0  0
   -4.6615    0.4858   -2.2041 H   0  0  0  0  0  0  0  0  0  0  0  0
   -6.0696   -0.5559   -2.1150 H   0  0  0  0  0  0  0  0  0  0  0  0
   -5.6640    0.4835   -0.7511 H   0  0  0  0  0  0  0  0  0  0  0  0
   -3.1820   -3.1898    2.0670 H   0  0  0  0  0  0  0  0  0  0  0  0
    0.0252   -0.1713    3.1074 H   0  0  0  0  0  0  0  0  0  0  0  0
   -4.4113   -1.2878   -0.9465 C   0  0  1  0  0  0  0  0  0  0  0  0
 13  1  1  0
  4  1  1  0
  1  2  2  0
  2  3  1  0
  2 25  1  0
 11  3  2  0
  3 27  1  0
 14  4  1  0
  4 17  2  0
  6  5  2  0
  5 18  1  0
  5 28  1  0
 20  6  1  0
  6 29  1  0
 21  7  1  0
  7 20  2  0
  7 19  1  0
  8 21  2  0
  8 22  1  0
  8 30  1  0
  9 22  1  0
  9 31  1  0
  9 32  1  0
  9 33  1  0
 10 47  1  0
 47 23  1  0
 47 12  1  0
 47 34  1  1
 10 35  1  0
 10 36  1  0
 10 37  1  0
 12 11  1  0
 11 24  1  0
 13 12  2  0
 13 38  1  0
 18 14  1  0
 15 14  1  0
 26 15  2  0
 15 16  1  0
 16 17  1  0
 16 39  1  0
 19 18  2  0
 19 40  1  0
 22 20  1  0
 21 41  1  0
 23 42  1  0
 23 43  1  0
 23 44  1  0
 24 45  1  0
 25 46  1  0
M  END
