
     RDKit          3D

 56 59  0  0  0  0  0  0  0  0999 V2000
   -1.5103    0.0471    0.2367 C   0  0  0  0  0  0  0  0  0  0  0  0
   -0.1447    0.2620    0.1551 C   0  0  0  0  0  0  0  0  0  0  0  0
    0.3512    1.5258   -0.1900 C   0  0  0  0  0  0  0  0  0  0  0  0
   -0.5553    2.5466   -0.4329 C   0  0  0  0  0  0  0  0  0  0  0  0
   -1.9253    2.3183   -0.3493 C   0  0  0  0  0  0  0  0  0  0  0  0
   -2.4376    1.0671   -0.0118 C   0  0  0  0  0  0  0  0  0  0  0  0
    1.6884    1.6444   -0.2998 O   0  0  0  0  0  0  0  0  0  0  0  0
    2.2493    2.9386   -0.4092 C   0  0  0  0  0  0  0  0  0  0  0  0
    3.7389    2.8207   -0.2672 C   0  0  0  0  0  0  0  0  0  0  0  0
   -3.8041    0.8080    0.1261 N   0  0  0  0  0  0  0  0  0  0  0  0
    0.7951   -0.8433    0.5194 C   0  0  0  0  0  0  0  0  0  0  0  0
    0.5752   -1.9870   -0.1821 N   0  0  0  0  0  0  0  0  0  0  0  0
    1.6491   -0.7223    1.3756 O   0  0  0  0  0  0  0  0  0  0  0  0
    1.2017   -3.2243   -0.0525 C   0  0  0  0  0  0  0  0  0  0  0  0
    2.2339   -3.5223    0.8346 C   0  0  0  0  0  0  0  0  0  0  0  0
    2.7473   -4.8106    0.8327 C   0  0  0  0  0  0  0  0  0  0  0  0
    2.2307   -5.7547   -0.0377 C   0  0  0  0  0  0  0  0  0  0  0  0
    1.2466   -5.4751   -0.8862 N   0  0  0  0  0  0  0  0  0  0  0  0
    0.7522   -4.2514   -0.8898 C   0  0  0  0  0  0  0  0  0  0  0  0
    4.3001    2.0249    0.7302 C   0  0  0  0  0  0  0  0  0  0  0  0
    5.6775    1.9609    0.8814 C   0  0  0  0  0  0  0  0  0  0  0  0
    6.5104    2.6923    0.0423 C   0  0  0  0  0  0  0  0  0  0  0  0
    5.9573    3.4843   -0.9535 C   0  0  0  0  0  0  0  0  0  0  0  0
    4.5776    3.5429   -1.1086 C   0  0  0  0  0  0  0  0  0  0  0  0
   -4.3304   -0.3351   -0.6082 C   0  0  0  0  0  0  0  0  0  0  0  0
   -5.7010   -0.7153   -0.0864 C   0  0  0  0  0  0  0  0  0  0  0  0
   -6.6080    0.4097   -0.1691 N   0  0  0  0  0  0  0  0  0  0  0  0
   -6.0809    1.5268    0.5854 C   0  0  0  0  0  0  0  0  0  0  0  0
   -4.7125    1.9348    0.0710 C   0  0  0  0  0  0  0  0  0  0  0  0
   -7.9431    0.0565    0.2536 C   0  0  0  0  0  0  0  0  0  0  0  0
   -1.8635   -0.9275    0.5513 H   0  0  0  0  0  0  0  0  0  0  0  0
   -0.2201    3.5344   -0.7189 H   0  0  0  0  0  0  0  0  0  0  0  0
   -2.5852    3.1473   -0.5643 H   0  0  0  0  0  0  0  0  0  0  0  0
    1.9940    3.3968   -1.3710 H   0  0  0  0  0  0  0  0  0  0  0  0
    1.8479    3.5881    0.3782 H   0  0  0  0  0  0  0  0  0  0  0  0
   -0.1311   -1.9374   -0.9015 H   0  0  0  0  0  0  0  0  0  0  0  0
    2.6346   -2.7833    1.5082 H   0  0  0  0  0  0  0  0  0  0  0  0
    3.5498   -5.0741    1.5080 H   0  0  0  0  0  0  0  0  0  0  0  0
    2.6190   -6.7662   -0.0540 H   0  0  0  0  0  0  0  0  0  0  0  0
   -0.0516   -4.0533   -1.5939 H   0  0  0  0  0  0  0  0  0  0  0  0
    3.6610    1.4471    1.3859 H   0  0  0  0  0  0  0  0  0  0  0  0
    6.1041    1.3399    1.6589 H   0  0  0  0  0  0  0  0  0  0  0  0
    7.5847    2.6411    0.1643 H   0  0  0  0  0  0  0  0  0  0  0  0
    6.5973    4.0521   -1.6162 H   0  0  0  0  0  0  0  0  0  0  0  0
    4.1518    4.1545   -1.8955 H   0  0  0  0  0  0  0  0  0  0  0  0
   -4.3983   -0.1084   -1.6826 H   0  0  0  0  0  0  0  0  0  0  0  0
   -3.6677   -1.1918   -0.4999 H   0  0  0  0  0  0  0  0  0  0  0  0
   -6.0912   -1.5383   -0.6900 H   0  0  0  0  0  0  0  0  0  0  0  0
   -5.6043   -1.0886    0.9482 H   0  0  0  0  0  0  0  0  0  0  0  0
   -6.7600    2.3774    0.4904 H   0  0  0  0  0  0  0  0  0  0  0  0
   -6.0025    1.2923    1.6614 H   0  0  0  0  0  0  0  0  0  0  0  0
   -4.3345    2.7403    0.7026 H   0  0  0  0  0  0  0  0  0  0  0  0
   -4.8109    2.3344   -0.9505 H   0  0  0  0  0  0  0  0  0  0  0  0
   -7.9974   -0.2622    1.3064 H   0  0  0  0  0  0  0  0  0  0  0  0
   -8.6122    0.9093    0.1296 H   0  0  0  0  0  0  0  0  0  0  0  0
   -8.3243   -0.7609   -0.3603 H   0  0  0  0  0  0  0  0  0  0  0  0
 21 22  1  0
 21 20  2  0
 22 23  2  0
 20  9  1  0
 23 24  1  0
  9 24  2  0
  9  8  1  0
  8  7  1  0
  7  3  1  0
 18 19  2  0
 18 17  1  0
 19 14  1  0
 17 16  2  0
  4  3  2  0
  4  5  1  0
  3  2  1  0
 14 12  1  0
 14 15  2  0
 12 11  1  0
 16 15  1  0
  5  6  2  0
  2 11  1  0
  2  1  2  0
 11 13  2  0
  6  1  1  0
  6 10  1  0
 10 29  1  0
 10 25  1  0
 29 28  1  0
 28 27  1  0
 25 26  1  0
 26 27  1  0
 27 30  1  0
  1 31  1  0
  4 32  1  0
  5 33  1  0
  8 34  1  0
  8 35  1  0
 12 36  1  0
 15 37  1  0
 16 38  1  0
 17 39  1  0
 19 40  1  0
 20 41  1  0
 21 42  1  0
 22 43  1  0
 23 44  1  0
 24 45  1  0
 25 46  1  0
 25 47  1  0
 26 48  1  0
 26 49  1  0
 28 50  1  0
 28 51  1  0
 29 52  1  0
 29 53  1  0
 30 54  1  0
 30 55  1  0
 30 56  1  0
M  END
