
     RDKit          3D

 55 56  0  0  0  0  0  0  0  0999 V2000
   -7.0442    2.7002   -0.2996 C   0  0  0  0  0  0  0  0  0  0  0  0
   -7.5440    0.3964    0.4809 N   0  0  0  0  0  0  0  0  0  0  0  0
   -7.5712    2.8214   -1.4100 O   0  0  0  0  0  0  0  0  0  0  0  0
    3.6220    1.9892    0.1817 C   0  0  0  0  0  0  0  0  0  0  0  0
    0.7332   -1.9691    2.2246 O   0  0  0  0  0  0  0  0  0  0  0  0
    4.7276    2.6765   -0.2545 C   0  0  0  0  0  0  0  0  0  0  0  0
    5.8716    1.9559   -0.6919 C   0  0  0  0  0  0  0  0  0  0  0  0
    7.0287    2.5587   -1.1476 O   0  0  0  0  0  0  0  0  0  0  0  0
    5.8885    0.5689   -0.6851 C   0  0  0  0  0  0  0  0  0  0  0  0
    4.7508   -0.1427   -0.2361 C   0  0  0  0  0  0  0  0  0  0  0  0
    3.6044    0.5693    0.2024 C   0  0  0  0  0  0  0  0  0  0  0  0
    2.4671   -0.1524    0.6519 C   0  0  0  0  0  0  0  0  0  0  0  0
    2.4646   -1.5316    0.6642 C   0  0  0  0  0  0  0  0  0  0  0  0
    3.6161   -2.2413    0.2253 C   0  0  0  0  0  0  0  0  0  0  0  0
   -6.5405    1.4283    0.3788 C   0  0  1  0  0  0  0  0  0  0  0  0
   -5.2692    0.9784   -0.3583 C   0  0  0  0  0  0  0  0  0  0  0  0
   -3.2882   -0.5253   -0.3362 C   0  0  0  0  0  0  0  0  0  0  0  0
   -2.6185   -1.6975    0.3795 C   0  0  0  0  0  0  0  0  0  0  0  0
   -4.5814   -0.1609    0.3615 C   0  0  0  0  0  0  0  0  0  0  0  0
   -1.3605   -2.0823   -0.2279 N   0  0  0  0  0  0  0  0  0  0  0  0
    4.7263   -1.5663   -0.2128 C   0  0  0  0  0  0  0  0  0  0  0  0
    0.7097   -3.3243    0.2433 C   0  0  0  0  0  0  0  0  0  0  0  0
   -0.8292   -3.3488    0.2580 C   0  0  2  0  0  0  0  0  0  0  0  0
   -1.2943   -4.5861   -0.5125 C   0  0  0  0  0  0  0  0  0  0  0  0
    7.8958    3.0996   -0.1575 C   0  0  0  0  0  0  0  0  0  0  0  0
   -6.8806    3.8347    0.4324 O   0  0  0  0  0  0  0  0  0  0  0  0
   -8.4144    0.7783    0.7981 H   0  0  0  0  0  0  0  0  0  0  0  0
   -7.6856   -0.0597   -0.3988 H   0  0  0  0  0  0  0  0  0  0  0  0
    2.7277    2.5326    0.5239 H   0  0  0  0  0  0  0  0  0  0  0  0
    4.7283    3.7754   -0.2655 H   0  0  0  0  0  0  0  0  0  0  0  0
    6.7797    0.0236   -1.0260 H   0  0  0  0  0  0  0  0  0  0  0  0
    1.5767    0.4027    0.9918 H   0  0  0  0  0  0  0  0  0  0  0  0
    3.6082   -3.3421    0.2392 H   0  0  0  0  0  0  0  0  0  0  0  0
   -6.2537    1.7260    1.4348 H   0  0  0  0  0  0  0  0  0  0  0  0
   -5.5210    0.6709   -1.4065 H   0  0  0  0  0  0  0  0  0  0  0  0
   -4.5781    1.8615   -0.4185 H   0  0  0  0  0  0  0  0  0  0  0  0
   -2.5992    0.3601   -0.3453 H   0  0  0  0  0  0  0  0  0  0  0  0
   -3.5003   -0.7958   -1.4042 H   0  0  0  0  0  0  0  0  0  0  0  0
   -2.3968   -1.3977    1.4441 H   0  0  0  0  0  0  0  0  0  0  0  0
   -3.3549   -2.5549    0.4207 H   0  0  0  0  0  0  0  0  0  0  0  0
   -4.3674    0.1376    1.4218 H   0  0  0  0  0  0  0  0  0  0  0  0
   -5.2573   -1.0557    0.3989 H   0  0  0  0  0  0  0  0  0  0  0  0
   -1.4371   -2.0970   -1.2279 H   0  0  0  0  0  0  0  0  0  0  0  0
    5.6186   -2.1113   -0.5542 H   0  0  0  0  0  0  0  0  0  0  0  0
    1.0829   -3.1848   -0.8035 H   0  0  0  0  0  0  0  0  0  0  0  0
    1.0871   -4.3134    0.6179 H   0  0  0  0  0  0  0  0  0  0  0  0
   -1.1552   -3.4610    1.3373 H   0  0  0  0  0  0  0  0  0  0  0  0
   -0.9228   -5.5075   -0.0040 H   0  0  0  0  0  0  0  0  0  0  0  0
   -2.4087   -4.6314   -0.5504 H   0  0  0  0  0  0  0  0  0  0  0  0
   -0.9029   -4.5750   -1.5576 H   0  0  0  0  0  0  0  0  0  0  0  0
    7.3785    3.8984    0.4272 H   0  0  0  0  0  0  0  0  0  0  0  0
    8.2723    2.2962    0.5210 H   0  0  0  0  0  0  0  0  0  0  0  0
    8.7352    3.5333   -0.7589 H   0  0  0  0  0  0  0  0  0  0  0  0
   -7.2234    4.5971   -0.0637 H   0  0  0  0  0  0  0  0  0  0  0  0
    1.2600   -2.2492    1.1410 C   0  0  0  0  0  0  0  0  0  0  0  0
  1 15  1  0
  1 26  1  0
  2 27  1  0
  2 28  1  0
  3  1  2  0
  4 29  1  0
  6  4  2  0
  6 30  1  0
  7  6  1  0
  8  7  1  0
  8 25  1  0
  9  7  2  0
  9 10  1  0
  9 31  1  0
 10 11  2  0
 11  4  1  0
 11 12  1  0
 12 32  1  0
 13 12  2  0
 13 55  1  0
 14 13  1  0
 14 33  1  0
 15  2  1  0
 15 16  1  0
 15 34  1  1
 16 19  1  0
 16 35  1  0
 16 36  1  0
 17 18  1  0
 17 37  1  0
 17 38  1  0
 18 20  1  0
 18 39  1  0
 18 40  1  0
 19 17  1  0
 19 41  1  0
 19 42  1  0
 20 23  1  0
 20 43  1  0
 21 10  1  0
 21 14  2  0
 21 44  1  0
 55  5  2  0
 22 55  1  0
 22 45  1  0
 22 46  1  0
 23 22  1  0
 23 24  1  0
 23 47  1  1
 24 48  1  0
 24 49  1  0
 24 50  1  0
 25 51  1  0
 25 52  1  0
 25 53  1  0
 26 54  1  0
M  END
