
     RDKit          3D

 32 33  0  0  0  0  0  0  0  0999 V2000
   -2.2183   -0.3128    0.0072 C   0  0  0  0  0  0  0  0  0  0  0  0
   -3.1569   -1.3268    0.0204 C   0  0  0  0  0  0  0  0  0  0  0  0
   -4.4980   -0.9126    0.0626 C   0  0  0  0  0  0  0  0  0  0  0  0
   -4.8310    0.3796    0.0884 N   0  0  0  0  0  0  0  0  0  0  0  0
   -2.5263    0.9765    0.0344 N   0  0  0  0  0  0  0  0  0  0  0  0
    6.6474   -0.4918    0.8157 C   0  0  0  0  0  0  0  0  0  0  0  0
    4.5497   -0.0214   -0.1876 C   0  0  0  0  0  0  0  0  0  0  0  0
    3.8178    0.1844   -1.3598 C   0  0  0  0  0  0  0  0  0  0  0  0
    2.4669    0.4673   -1.2951 C   0  0  0  0  0  0  0  0  0  0  0  0
    3.9026    0.0630    1.0429 C   0  0  0  0  0  0  0  0  0  0  0  0
    2.5434    0.3496    1.0870 C   0  0  0  0  0  0  0  0  0  0  0  0
    1.8065    0.5608   -0.0702 C   0  0  0  0  0  0  0  0  0  0  0  0
    0.3364    0.8436   -0.0090 C   0  0  0  0  0  0  0  0  0  0  0  0
   -0.5210   -0.7649   -0.0544 S   0  0  0  0  0  0  0  0  0  0  0  0
   -3.8332    1.2582    0.0755 C   0  0  0  0  0  0  0  0  0  0  0  0
   -4.1657    2.5662    0.1409 N   0  0  0  0  0  0  0  0  0  0  0  0
   -5.5030   -1.8045    0.1040 N   0  0  0  0  0  0  0  0  0  0  0  0
   -2.8839   -2.3728   -0.0039 H   0  0  0  0  0  0  0  0  0  0  0  0
    6.6483    0.3857    1.4674 H   0  0  0  0  0  0  0  0  0  0  0  0
    6.3119   -1.3587    1.3909 H   0  0  0  0  0  0  0  0  0  0  0  0
    7.6623   -0.6724    0.4708 H   0  0  0  0  0  0  0  0  0  0  0  0
    4.3173    0.1192   -2.3186 H   0  0  0  0  0  0  0  0  0  0  0  0
    1.9168    0.6265   -2.2150 H   0  0  0  0  0  0  0  0  0  0  0  0
    4.4339   -0.0884    1.9726 H   0  0  0  0  0  0  0  0  0  0  0  0
    2.0551    0.4129    2.0526 H   0  0  0  0  0  0  0  0  0  0  0  0
    0.0636    1.3638    0.9077 H   0  0  0  0  0  0  0  0  0  0  0  0
    0.0058    1.4437   -0.8548 H   0  0  0  0  0  0  0  0  0  0  0  0
   -5.1197    2.8237   -0.0446 H   0  0  0  0  0  0  0  0  0  0  0  0
   -3.4628    3.2451   -0.0953 H   0  0  0  0  0  0  0  0  0  0  0  0
   -5.3254   -2.7786   -0.0651 H   0  0  0  0  0  0  0  0  0  0  0  0
   -6.4480   -1.4830   -0.0157 H   0  0  0  0  0  0  0  0  0  0  0  0
    5.8601   -0.2884   -0.3412 O   0  0  0  0  0  0  0  0  0  0  0  0
  1  2  2  0
  1  5  1  0
  1 14  1  0
  2  3  1  0
  3  4  2  0
  3 17  1  0
  4 15  1  0
  5 15  2  0
  6 32  1  0
 32  7  1  0
  7  8  2  0
  7 10  1  0
  8  9  1  0
  9 12  2  0
 10 11  2  0
 11 12  1  0
 12 13  1  0
 13 14  1  0
 15 16  1  0
  2 18  1  0
  6 19  1  0
  6 20  1  0
  6 21  1  0
  8 22  1  0
  9 23  1  0
 10 24  1  0
 11 25  1  0
 13 26  1  0
 13 27  1  0
 16 28  1  0
 16 29  1  0
 17 30  1  0
 17 31  1  0
M  END
