
     RDKit          3D

 14 13  0  0  0  0  0  0  0  0999 V2000
    0.7556   -0.7844    0.3970 C   0  0  0  0  0  0  0  0  0  0  0  0
   -0.4277   -0.0114   -0.1715 C   0  0  2  0  0  0  0  0  0  0  0  0
   -0.3680    1.3551    0.1629 O   0  0  0  0  0  0  0  0  0  0  0  0
   -1.7273   -0.6646    0.2705 C   0  0  0  0  0  0  0  0  0  0  0  0
   -2.8015   -0.0312   -0.3797 O   0  0  0  0  0  0  0  0  0  0  0  0
    2.2898    0.1190    0.0028 S   0  0  0  0  0  0  0  0  0  0  0  0
    0.6632   -0.8979    1.4799 H   0  0  0  0  0  0  0  0  0  0  0  0
    0.7997   -1.7793   -0.0447 H   0  0  0  0  0  0  0  0  0  0  0  0
   -0.3699   -0.0488   -1.2637 H   0  0  0  0  0  0  0  0  0  0  0  0
   -0.4096    1.4412    1.1222 H   0  0  0  0  0  0  0  0  0  0  0  0
   -1.6779   -1.7346    0.0300 H   0  0  0  0  0  0  0  0  0  0  0  0
   -1.8099   -0.5909    1.3645 H   0  0  0  0  0  0  0  0  0  0  0  0
   -3.6180   -0.4302   -0.0664 H   0  0  0  0  0  0  0  0  0  0  0  0
    3.1342   -0.8909    0.2380 H   0  0  0  0  0  0  0  0  0  0  0  0
  1  2  1  0
  1  6  1  0
  1  7  1  0
  1  8  1  0
  2  3  1  0
  2  4  1  0
  2  9  1  6
  3 10  1  0
  4  5  1  0
  4 11  1  0
  4 12  1  0
  5 13  1  0
  6 14  1  0
M  END
