
     RDKit          3D

 25 26  0  0  0  0  0  0  0  0999 V2000
   -1.2058    1.0127    0.0705 C   0  0  0  0  0  0  0  0  0  0  0  0
   -0.7833   -0.3180    0.0113 C   0  0  0  0  0  0  0  0  0  0  0  0
    0.6190   -0.6870    0.0948 C   0  0  0  0  0  0  0  0  0  0  0  0
    1.2675   -1.8864    0.0935 C   0  0  0  0  0  0  0  0  0  0  0  0
    2.6566   -1.5910    0.2013 C   0  0  0  0  0  0  0  0  0  0  0  0
   -1.7670   -1.3020   -0.1269 C   0  0  0  0  0  0  0  0  0  0  0  0
    1.5254    0.3085    0.2001 O   0  0  0  0  0  0  0  0  0  0  0  0
   -3.1065   -0.9779   -0.2024 C   0  0  0  0  0  0  0  0  0  0  0  0
   -3.5284    0.3580   -0.1436 C   0  0  0  0  0  0  0  0  0  0  0  0
   -2.5458    1.3458   -0.0049 C   0  0  0  0  0  0  0  0  0  0  0  0
    2.7619   -0.2417    0.2646 C   0  0  0  0  0  0  0  0  0  0  0  0
    4.0627    1.4091   -0.8134 O   0  0  0  0  0  0  0  0  0  0  0  0
   -0.4852    1.8125    0.1802 H   0  0  0  0  0  0  0  0  0  0  0  0
    0.8185   -2.8640    0.0230 H   0  0  0  0  0  0  0  0  0  0  0  0
    3.4727   -2.2951    0.2285 H   0  0  0  0  0  0  0  0  0  0  0  0
    3.7728    1.3433    1.2438 H   0  0  0  0  0  0  0  0  0  0  0  0
    4.8010    0.0644    0.6057 H   0  0  0  0  0  0  0  0  0  0  0  0
   -5.5169   -0.0349   -0.0301 H   0  0  0  0  0  0  0  0  0  0  0  0
   -5.1295    1.5859    0.0895 H   0  0  0  0  0  0  0  0  0  0  0  0
   -1.4864   -2.3471   -0.1765 H   0  0  0  0  0  0  0  0  0  0  0  0
   -3.8411   -1.7670   -0.3084 H   0  0  0  0  0  0  0  0  0  0  0  0
   -2.8372    2.3882    0.0473 H   0  0  0  0  0  0  0  0  0  0  0  0
    4.6988    2.1129   -0.6528 H   0  0  0  0  0  0  0  0  0  0  0  0
    3.9181    0.6752    0.3858 C   0  0  0  0  0  0  0  0  0  0  0  0
   -4.8564    0.6862   -0.2714 N   0  0  0  0  0  0  0  0  0  0  0  0
 12 24  1  0
 24 11  1  0
 11  5  2  0
 11  7  1  0
  5  4  1  0
  7  3  1  0
  4  3  2  0
  3  2  1  0
  2  1  2  0
  2  6  1  0
  1 10  1  0
 10  9  2  0
  6  8  2  0
  9  8  1  0
  9 25  1  0
  1 13  1  0
  4 14  1  0
  5 15  1  0
 24 16  1  0
 24 17  1  0
 25 18  1  0
 25 19  1  0
  6 20  1  0
  8 21  1  0
 10 22  1  0
 12 23  1  0
M  END
