
     RDKit          3D

 43 45  0  0  0  0  0  0  0  0999 V2000
   -5.7355   -2.3992   -0.5121 O   0  0  0  0  0  0  0  0  0  0  0  0
   -4.1747   -2.1745   -0.3019 P   0  0  1  0  0  0  0  0  0  0  0  0
   -3.3414   -3.3492    0.0097 O   0  0  0  0  0  0  0  0  0  0  0  0
   -3.5893   -1.4329   -1.5892 O   0  0  0  0  0  0  0  0  0  0  0  0
   -4.3040   -1.0685    0.8510 O   0  0  0  0  0  0  0  0  0  0  0  0
   -3.1377   -0.3790    1.2893 C   0  0  0  0  0  0  0  0  0  0  0  0
   -2.9937    0.9622    0.6222 C   0  0  0  0  0  0  0  0  0  0  0  0
   -4.0377    1.5534   -0.0710 C   0  0  0  0  0  0  0  0  0  0  0  0
   -3.9394    2.7412   -0.6580 N   0  0  0  0  0  0  0  0  0  0  0  0
   -2.8056    3.4160   -0.5985 C   0  0  0  0  0  0  0  0  0  0  0  0
   -2.7326    4.7501   -1.2775 C   0  0  0  0  0  0  0  0  0  0  0  0
   -1.6938    2.8995    0.0859 C   0  0  0  0  0  0  0  0  0  0  0  0
   -0.5238    3.5527    0.1538 O   0  0  0  0  0  0  0  0  0  0  0  0
   -1.7940    1.6680    0.7244 C   0  0  0  0  0  0  0  0  0  0  0  0
   -0.6005    1.1077    1.4562 C   0  0  0  0  0  0  0  0  0  0  0  0
    0.0719    0.2162    0.5226 N   0  0  0  0  0  0  0  0  0  0  0  0
    1.2015    0.5786    0.2130 N   0  0  0  0  0  0  0  0  0  0  0  0
    1.8180   -0.2525   -0.7715 C   0  0  0  0  0  0  0  0  0  0  0  0
    1.2594   -0.6644   -1.7478 O   0  0  0  0  0  0  0  0  0  0  0  0
    3.2473   -0.4610   -0.4819 C   0  0  0  0  0  0  0  0  0  0  0  0
    3.9859   -1.2660   -1.1649 N   0  0  0  0  0  0  0  0  0  0  0  0
    5.2543   -1.2994   -0.6618 C   0  0  0  0  0  0  0  0  0  0  0  0
    6.3063   -2.0712   -1.1685 C   0  0  0  0  0  0  0  0  0  0  0  0
    7.5340   -1.9977   -0.5504 C   0  0  0  0  0  0  0  0  0  0  0  0
    7.7351   -1.1668    0.5638 C   0  0  0  0  0  0  0  0  0  0  0  0
    6.7128   -0.3973    1.0807 C   0  0  0  0  0  0  0  0  0  0  0  0
    5.4692   -0.4724    0.4579 C   0  0  0  0  0  0  0  0  0  0  0  0
    4.0093    0.3550    0.8495 S   0  0  0  0  0  0  0  0  0  0  0  0
   -5.9534   -3.1913   -1.0219 H   0  0  0  0  0  0  0  0  0  0  0  0
   -4.0984   -0.6827   -1.9247 H   0  0  0  0  0  0  0  0  0  0  0  0
   -3.2427   -0.2513    2.3688 H   0  0  0  0  0  0  0  0  0  0  0  0
   -2.2428   -0.9871    1.1309 H   0  0  0  0  0  0  0  0  0  0  0  0
   -5.0010    1.0649   -0.1558 H   0  0  0  0  0  0  0  0  0  0  0  0
   -2.5210    5.5570   -0.5712 H   0  0  0  0  0  0  0  0  0  0  0  0
   -1.9613    4.7777   -2.0513 H   0  0  0  0  0  0  0  0  0  0  0  0
   -3.6844    4.9722   -1.7540 H   0  0  0  0  0  0  0  0  0  0  0  0
   -0.5618    4.3982   -0.3075 H   0  0  0  0  0  0  0  0  0  0  0  0
    0.0624    1.8892    1.8270 H   0  0  0  0  0  0  0  0  0  0  0  0
   -0.9172    0.4983    2.3047 H   0  0  0  0  0  0  0  0  0  0  0  0
    6.1443   -2.7085   -2.0275 H   0  0  0  0  0  0  0  0  0  0  0  0
    8.3586   -2.5887   -0.9253 H   0  0  0  0  0  0  0  0  0  0  0  0
    8.7119   -1.1290    1.0272 H   0  0  0  0  0  0  0  0  0  0  0  0
    6.8728    0.2394    1.9399 H   0  0  0  0  0  0  0  0  0  0  0  0
  9  8  1  0
  9 10  2  0
  8  7  2  0
 11 10  1  0
 10 12  1  0
  7  6  1  0
  7 14  1  0
  6  5  1  0
 12 14  2  0
 12 13  1  0
 14 15  1  0
  3  2  2  0
  2  5  1  1
  2  1  1  0
  2  4  1  0
 15 16  1  0
 16 17  2  0
 17 18  1  0
 18 19  2  0
 18 20  1  0
 20 21  2  0
 20 28  1  0
 21 22  1  0
 28 27  1  0
 22 27  2  0
 22 23  1  0
 27 26  1  0
 23 24  2  0
 26 25  2  0
 24 25  1  0
  1 29  1  0
  4 30  1  0
  6 31  1  0
  6 32  1  0
  8 33  1  0
 11 34  1  0
 11 35  1  0
 11 36  1  0
 13 37  1  0
 15 38  1  0
 15 39  1  0
 23 40  1  0
 24 41  1  0
 25 42  1  0
 26 43  1  0
M  END
