
     RDKit          3D

 45 48  0  0  0  0  0  0  0  0999 V2000
   -8.7159   -2.1173   -0.0638 O   0  0  0  0  0  0  0  0  0  0  0  0
   -7.5580   -1.4396   -0.0077 C   0  0  0  0  0  0  0  0  0  0  0  0
   -6.5167   -1.9917    0.7374 C   0  0  0  0  0  0  0  0  0  0  0  0
   -5.3036   -1.3342    0.8275 C   0  0  0  0  0  0  0  0  0  0  0  0
   -7.3643   -0.2254   -0.6643 C   0  0  0  0  0  0  0  0  0  0  0  0
   -6.1445    0.4237   -0.5855 C   0  0  0  0  0  0  0  0  0  0  0  0
   -5.1153   -0.1319    0.1594 C   0  0  0  0  0  0  0  0  0  0  0  0
   -3.8660    0.5270    0.2365 N   0  0  0  0  0  0  0  0  0  0  0  0
   -2.6388   -0.0074    0.1288 C   0  0  0  0  0  0  0  0  0  0  0  0
   -3.7980    1.8412    0.4250 N   0  0  0  0  0  0  0  0  0  0  0  0
   -2.5585    2.1719    0.4377 N   0  0  0  0  0  0  0  0  0  0  0  0
   -1.7959    1.0693    0.2608 C   0  0  0  0  0  0  0  0  0  0  0  0
   -0.3377    1.0953    0.2121 C   0  0  0  0  0  0  0  0  0  0  0  0
    0.2627   -0.0468   -0.0054 N   0  0  0  0  0  0  0  0  0  0  0  0
    0.3661    2.3145    0.3903 C   0  0  0  0  0  0  0  0  0  0  0  0
    1.7268    2.3046    0.3290 C   0  0  0  0  0  0  0  0  0  0  0  0
    2.4085    1.0873    0.0895 C   0  0  0  0  0  0  0  0  0  0  0  0
    3.8078    0.9980    0.0064 C   0  0  0  0  0  0  0  0  0  0  0  0
    1.6117   -0.0743   -0.0681 C   0  0  0  0  0  0  0  0  0  0  0  0
    2.2611   -1.3037   -0.3030 C   0  0  0  0  0  0  0  0  0  0  0  0
    3.6257   -1.3783   -0.3823 C   0  0  0  0  0  0  0  0  0  0  0  0
    4.4171   -0.2147   -0.2298 C   0  0  0  0  0  0  0  0  0  0  0  0
    5.7595   -0.2180   -0.3017 O   0  0  0  0  0  0  0  0  0  0  0  0
    6.4440   -1.4338   -0.5548 C   0  0  0  0  0  0  0  0  0  0  0  0
    7.9182   -1.1391   -0.6335 C   0  0  0  0  0  0  0  0  0  0  0  0
    8.3817   -0.7041    0.6167 O   0  0  0  0  0  0  0  0  0  0  0  0
    9.7574   -0.4191    0.6093 C   0  0  0  0  0  0  0  0  0  0  0  0
   -9.3654   -1.6407   -0.5935 H   0  0  0  0  0  0  0  0  0  0  0  0
   -6.6631   -2.9295    1.2572 H   0  0  0  0  0  0  0  0  0  0  0  0
   -4.5102   -1.7604    1.4279 H   0  0  0  0  0  0  0  0  0  0  0  0
   -8.1621    0.2134   -1.2512 H   0  0  0  0  0  0  0  0  0  0  0  0
   -5.9981    1.3557   -1.1143 H   0  0  0  0  0  0  0  0  0  0  0  0
   -2.4624   -1.0544   -0.0447 H   0  0  0  0  0  0  0  0  0  0  0  0
   -0.1770    3.2308    0.5749 H   0  0  0  0  0  0  0  0  0  0  0  0
    2.2919    3.2192    0.4607 H   0  0  0  0  0  0  0  0  0  0  0  0
    4.4103    1.8911    0.1231 H   0  0  0  0  0  0  0  0  0  0  0  0
    1.6589   -2.1949   -0.4242 H   0  0  0  0  0  0  0  0  0  0  0  0
    4.0831   -2.3402   -0.5686 H   0  0  0  0  0  0  0  0  0  0  0  0
    6.2453   -2.1657    0.2360 H   0  0  0  0  0  0  0  0  0  0  0  0
    6.1268   -1.8729   -1.5064 H   0  0  0  0  0  0  0  0  0  0  0  0
    8.4262   -2.0609   -0.9495 H   0  0  0  0  0  0  0  0  0  0  0  0
    8.1087   -0.3882   -1.4134 H   0  0  0  0  0  0  0  0  0  0  0  0
   10.3586   -1.2970    0.3437 H   0  0  0  0  0  0  0  0  0  0  0  0
   10.0080    0.3827   -0.0956 H   0  0  0  0  0  0  0  0  0  0  0  0
   10.0404   -0.0981    1.6110 H   0  0  0  0  0  0  0  0  0  0  0  0
 27 26  1  0
 26 25  1  0
 25 24  1  0
 23 24  1  0
 23 22  1  0
 21 22  1  0
 21 20  2  0
 22 18  2  0
 20 19  1  0
 18 17  1  0
 19 17  1  0
 19 14  2  0
 17 16  2  0
 14 13  1  0
 16 15  1  0
 13 15  2  0
 13 12  1  0
 11 12  1  0
 11 10  2  0
 12  9  2  0
 10  8  1  0
  9  8  1  0
  8  7  1  0
  7  6  2  0
  7  4  1  0
  6  5  1  0
  4  3  2  0
  5  2  2  0
  3  2  1  0
  2  1  1  0
  1 28  1  0
  3 29  1  0
  4 30  1  0
  5 31  1  0
  6 32  1  0
  9 33  1  0
 15 34  1  0
 16 35  1  0
 18 36  1  0
 20 37  1  0
 21 38  1  0
 24 39  1  0
 24 40  1  0
 25 41  1  0
 25 42  1  0
 27 43  1  0
 27 44  1  0
 27 45  1  0
M  END
