
     RDKit          3D

 16 17  0  0  0  0  0  0  0  0999 V2000
    1.9695    0.6098   -0.0000 N   0  0  0  0  0  0  0  0  0  0  0  0
    2.1194   -0.7577    0.0364 C   0  0  0  0  0  0  0  0  0  0  0  0
    3.2040   -1.2952    0.1317 O   0  0  0  0  0  0  0  0  0  0  0  0
    0.9489   -1.4690   -0.0726 N   0  0  0  0  0  0  0  0  0  0  0  0
   -0.2333   -0.8012   -0.0889 C   0  0  0  0  0  0  0  0  0  0  0  0
   -0.3667    0.5602   -0.0872 C   0  0  0  0  0  0  0  0  0  0  0  0
    0.8020    1.3801   -0.0322 C   0  0  0  0  0  0  0  0  0  0  0  0
    0.8585    2.5948    0.0049 O   0  0  0  0  0  0  0  0  0  0  0  0
   -1.7012    0.9081   -0.1022 N   0  0  0  0  0  0  0  0  0  0  0  0
   -2.3253   -0.2220   -0.1214 C   0  0  0  0  0  0  0  0  0  0  0  0
   -3.6256   -0.4546   -0.1433 O   0  0  0  0  0  0  0  0  0  0  0  0
   -1.4849   -1.3062   -0.1229 N   0  0  0  0  0  0  0  0  0  0  0  0
    2.8383    1.1279    0.0388 H   0  0  0  0  0  0  0  0  0  0  0  0
    0.9796   -2.4589    0.1270 H   0  0  0  0  0  0  0  0  0  0  0  0
   -4.1109    0.3665   -0.2972 H   0  0  0  0  0  0  0  0  0  0  0  0
   -1.7590   -2.2788   -0.1274 H   0  0  0  0  0  0  0  0  0  0  0  0
  8  7  2  0
  7  1  1  0
  7  6  1  0
  1  2  1  0
  6  9  1  0
  6  5  2  0
  9 10  2  0
  2  3  2  0
  2  4  1  0
  5  4  1  0
  5 12  1  0
 10 11  1  0
 10 12  1  0
  1 13  1  0
  4 14  1  0
 11 15  1  0
 12 16  1  0
M  END
