
     RDKit          3D

 38 42  0  0  0  0  0  0  0  0999 V2000
   -3.1140   -3.9574    0.1567 C   0  0  0  0  0  0  0  0  0  0  0  0
   -3.5710   -2.6897   -0.0012 C   0  0  0  0  0  0  0  0  0  0  0  0
   -2.6801   -1.6629    0.0082 N   0  0  0  0  0  0  0  0  0  0  0  0
   -1.3257   -1.8451    0.1603 C   0  0  0  0  0  0  0  0  0  0  0  0
   -0.8427   -3.1589    0.3379 C   0  0  0  0  0  0  0  0  0  0  0  0
   -1.7274   -4.1968    0.3342 C   0  0  0  0  0  0  0  0  0  0  0  0
   -3.0159   -0.3833   -0.1276 N   0  0  0  0  0  0  0  0  0  0  0  0
   -1.8709    0.2893   -0.0611 C   0  0  0  0  0  0  0  0  0  0  0  0
   -0.7703   -0.5670    0.1212 C   0  0  0  0  0  0  0  0  0  0  0  0
    0.6415   -0.2328    0.3042 C   0  0  0  0  0  0  0  0  0  0  0  0
   -1.8870    1.7500   -0.2029 C   0  0  0  0  0  0  0  0  0  0  0  0
   -0.8693    2.4175   -0.8847 C   0  0  0  0  0  0  0  0  0  0  0  0
   -0.9095    3.7952   -1.0365 C   0  0  0  0  0  0  0  0  0  0  0  0
   -1.9671    4.5267   -0.5109 C   0  0  0  0  0  0  0  0  0  0  0  0
   -2.9881    3.8692    0.1629 C   0  0  0  0  0  0  0  0  0  0  0  0
   -2.9505    2.4907    0.3132 C   0  0  0  0  0  0  0  0  0  0  0  0
    1.6398   -0.8759   -0.4262 C   0  0  0  0  0  0  0  0  0  0  0  0
    2.9322   -0.4823   -0.1568 C   0  0  0  0  0  0  0  0  0  0  0  0
    3.0977    0.5299    0.8053 C   0  0  0  0  0  0  0  0  0  0  0  0
    2.1133    1.1218    1.4696 N   0  0  0  0  0  0  0  0  0  0  0  0
    0.9033    0.7217    1.2154 N   0  0  0  0  0  0  0  0  0  0  0  0
    4.2656   -0.7797   -0.5878 C   0  0  0  0  0  0  0  0  0  0  0  0
    5.1193   -0.0238    0.0526 N   0  0  0  0  0  0  0  0  0  0  0  0
    4.4155    0.7610    0.9009 N   0  0  0  0  0  0  0  0  0  0  0  0
    4.6345   -1.7533   -1.4774 N   0  0  0  0  0  0  0  0  0  0  0  0
   -3.8199   -4.7742    0.1490 H   0  0  0  0  0  0  0  0  0  0  0  0
   -4.6083   -2.4209   -0.1328 H   0  0  0  0  0  0  0  0  0  0  0  0
    0.2168   -3.3233    0.4766 H   0  0  0  0  0  0  0  0  0  0  0  0
   -1.3752   -5.2099    0.4695 H   0  0  0  0  0  0  0  0  0  0  0  0
   -0.0494    1.8608   -1.3188 H   0  0  0  0  0  0  0  0  0  0  0  0
   -0.1150    4.2977   -1.5724 H   0  0  0  0  0  0  0  0  0  0  0  0
   -1.9965    5.6020   -0.6291 H   0  0  0  0  0  0  0  0  0  0  0  0
   -3.8165    4.4302    0.5754 H   0  0  0  0  0  0  0  0  0  0  0  0
   -3.7480    1.9854    0.8422 H   0  0  0  0  0  0  0  0  0  0  0  0
    1.3957   -1.6226   -1.1711 H   0  0  0  0  0  0  0  0  0  0  0  0
    4.8918    1.4292    1.4834 H   0  0  0  0  0  0  0  0  0  0  0  0
    5.5738   -1.6588   -1.8329 H   0  0  0  0  0  0  0  0  0  0  0  0
    3.9762   -1.9133   -2.2239 H   0  0  0  0  0  0  0  0  0  0  0  0
  1  2  2  0
  1  6  1  0
  1 26  1  0
  2  3  1  0
  2 27  1  0
  3  4  1  0
  3  7  1  0
  4  5  1  0
  4  9  2  0
  5  6  2  0
  5 28  1  0
  6 29  1  0
  7  8  2  0
  8  9  1  0
  8 11  1  0
  9 10  1  0
 10 17  2  0
 10 21  1  0
 11 12  2  0
 11 16  1  0
 12 13  1  0
 12 30  1  0
 13 14  2  0
 13 31  1  0
 14 15  1  0
 14 32  1  0
 15 16  2  0
 15 33  1  0
 16 34  1  0
 17 18  1  0
 17 35  1  0
 18 19  2  0
 18 22  1  0
 19 20  1  0
 19 24  1  0
 20 21  2  0
 22 23  2  0
 22 25  1  0
 23 24  1  0
 24 36  1  0
 25 37  1  0
 25 38  1  0
M  END
