
     RDKit          3D

 42 45  0  0  0  0  0  0  0  0999 V2000
    0.0918  -12.9689    4.9677 C   0  0  1  0  0  0  0  0  0  0  0  0
   -0.8342   -8.8410    3.8370 C   0  0  0  0  0  0  0  0  0  0  0  0
   -1.4497   -9.4851    4.8583 C   0  0  0  0  0  0  0  0  0  0  0  0
   -0.8616  -11.9593    5.5198 C   0  0  0  0  0  0  0  0  0  0  0  0
   -0.8369  -10.7891    4.8781 C   0  0  0  0  0  0  0  0  0  0  0  0
    0.1347  -10.7358    3.7851 C   0  0  0  0  0  0  0  0  0  0  0  0
   -1.1037   -7.4498    3.4056 C   0  0  0  0  0  0  0  0  0  0  0  0
   -0.4717   -5.7250    1.8105 C   0  0  1  0  0  0  0  0  0  0  0  0
    0.0416   -3.3394    0.4829 C   0  0  0  0  0  0  0  0  0  0  0  0
    0.3476   -4.6736    2.5503 C   0  0  0  0  0  0  0  0  0  0  0  0
    0.1328   -3.3553    1.8776 C   0  0  0  0  0  0  0  0  0  0  0  0
   -0.0580   -5.7636    0.3489 C   0  0  0  0  0  0  0  0  0  0  0  0
    0.0494   -6.8068   -0.2642 O   0  0  0  0  0  0  0  0  0  0  0  0
   -1.8941   -4.6490   -1.9686 O   0  0  0  0  0  0  0  0  0  0  0  0
   -0.8041   -4.3998   -2.4528 C   0  0  0  0  0  0  0  0  0  0  0  0
   -0.6085   -4.0285   -3.7228 N   0  0  0  0  0  0  0  0  0  0  0  0
    0.1995   -4.5506   -0.2194 N   0  0  0  0  0  0  0  0  0  0  0  0
   -0.1632   -2.1337   -0.1822 C   0  0  0  0  0  0  0  0  0  0  0  0
   -0.2703   -0.9524    0.5393 C   0  0  0  0  0  0  0  0  0  0  0  0
   -0.1858   -0.9614    1.9224 C   0  0  0  0  0  0  0  0  0  0  0  0
    0.0090   -2.1678    2.5815 C   0  0  0  0  0  0  0  0  0  0  0  0
   -0.3565   -7.0405    2.3704 N   0  0  0  0  0  0  0  0  0  0  0  0
   -1.9428   -6.7592    3.9666 O   0  0  0  0  0  0  0  0  0  0  0  0
    0.1439   -9.6137    3.1671 N   0  0  0  0  0  0  0  0  0  0  0  0
    1.0230  -12.2064    3.5894 S   0  0  0  0  0  0  0  0  0  0  0  0
    1.2052  -13.5233    6.2512 Cl  0  0  0  0  0  0  0  0  0  0  0  0
   -0.4286  -13.8517    4.5951 H   0  0  0  0  0  0  0  0  0  0  0  0
   -2.2214   -9.1088    5.5090 H   0  0  0  0  0  0  0  0  0  0  0  0
   -1.4929  -12.2295    6.3555 H   0  0  0  0  0  0  0  0  0  0  0  0
   -1.5256   -5.4216    1.8386 H   0  0  0  0  0  0  0  0  0  0  0  0
    1.4066   -4.9523    2.5303 H   0  0  0  0  0  0  0  0  0  0  0  0
    0.0427   -4.6279    3.5954 H   0  0  0  0  0  0  0  0  0  0  0  0
    1.1700   -3.7035   -1.8505 H   0  0  0  0  0  0  0  0  0  0  0  0
    0.9833   -5.4387   -1.9201 H   0  0  0  0  0  0  0  0  0  0  0  0
   -1.3829   -3.9671   -4.3635 H   0  0  0  0  0  0  0  0  0  0  0  0
    0.3075   -3.8242   -4.0848 H   0  0  0  0  0  0  0  0  0  0  0  0
   -0.2401   -2.0859   -1.2595 H   0  0  0  0  0  0  0  0  0  0  0  0
   -0.4304   -0.0239    0.0074 H   0  0  0  0  0  0  0  0  0  0  0  0
   -0.2757   -0.0418    2.4849 H   0  0  0  0  0  0  0  0  0  0  0  0
    0.0702   -2.1917    3.6628 H   0  0  0  0  0  0  0  0  0  0  0  0
    0.3033   -7.6908    1.9675 H   0  0  0  0  0  0  0  0  0  0  0  0
    0.4770   -4.5170   -1.6327 C   0  0  0  0  0  0  0  0  0  0  0  0
  1 26  1  0
  1  4  1  0
  1 25  1  0
  1 27  1  6
  2  3  2  0
  2 24  1  0
  2  7  1  0
  3  5  1  0
  3 28  1  0
  4  5  2  0
  4 29  1  0
  5  6  1  0
  6 25  1  0
  6 24  2  0
  7 22  1  0
  7 23  2  0
  8 22  1  0
  8 12  1  0
  8 10  1  0
  8 30  1  6
  9 17  1  0
  9 11  2  0
  9 18  1  0
 10 11  1  0
 10 31  1  0
 10 32  1  0
 11 21  1  0
 12 13  2  0
 12 17  1  0
 42 15  1  0
 42 17  1  0
 42 33  1  0
 42 34  1  0
 14 15  2  0
 15 16  1  0
 16 35  1  0
 16 36  1  0
 18 19  2  0
 18 37  1  0
 19 20  1  0
 19 38  1  0
 20 21  2  0
 20 39  1  0
 21 40  1  0
 22 41  1  0
M  END
