
     RDKit          3D

 46 48  0  0  0  0  0  0  0  0999 V2000
    5.3825   -0.0087    0.3206 C   0  0  0  0  0  0  0  0  0  0  0  0
    4.0881    0.6197   -0.1988 C   0  0  2  0  0  0  0  0  0  0  0  0
    4.1858    2.1446   -0.2728 C   0  0  0  0  0  0  0  0  0  0  0  0
    2.9129    0.2116    0.6589 C   0  0  0  0  0  0  0  0  0  0  0  0
    2.8376    0.5758    2.0035 C   0  0  0  0  0  0  0  0  0  0  0  0
    1.7600    0.1890    2.7845 C   0  0  0  0  0  0  0  0  0  0  0  0
    0.7404   -0.5819    2.2432 C   0  0  0  0  0  0  0  0  0  0  0  0
    0.8094   -0.9427    0.9075 C   0  0  0  0  0  0  0  0  0  0  0  0
    1.8784   -0.5408    0.1178 C   0  0  0  0  0  0  0  0  0  0  0  0
   -1.5232   -1.2165    0.1698 C   0  0  0  0  0  0  0  0  0  0  0  0
   -2.0801   -0.0076    0.5832 C   0  0  0  0  0  0  0  0  0  0  0  0
   -3.4047    0.1909    0.2682 C   0  0  0  0  0  0  0  0  0  0  0  0
   -2.2583   -2.1715   -0.5617 C   0  0  0  0  0  0  0  0  0  0  0  0
   -1.3640   -3.2388   -0.8538 C   0  0  0  0  0  0  0  0  0  0  0  0
   -0.1565   -2.9114   -0.3041 C   0  0  0  0  0  0  0  0  0  0  0  0
    1.0675   -3.7447   -0.2208 C   0  0  0  0  0  0  0  0  0  0  0  0
    5.1436    2.6402   -1.3235 C   0  0  0  0  0  0  0  0  0  0  0  0
    5.5407    3.8852   -1.0830 O   0  0  0  0  0  0  0  0  0  0  0  0
   -0.2485   -1.6907    0.3319 N   0  0  0  0  0  0  0  0  0  0  0  0
   -4.1787   -0.7485   -0.4267 C   0  0  0  0  0  0  0  0  0  0  0  0
   -3.6072   -1.9302   -0.8446 C   0  0  0  0  0  0  0  0  0  0  0  0
    1.8167   -3.6846    0.7413 O   0  0  0  0  0  0  0  0  0  0  0  0
    1.2431   -4.5712   -1.2610 N   0  0  0  0  0  0  0  0  0  0  0  0
   -4.0288    2.4108   -0.1149 C   0  0  2  0  0  0  0  0  0  0  0  0
   -4.6272    3.4116    0.5117 F   0  0  0  0  0  0  0  0  0  0  0  0
   -2.8025    2.8066   -0.4620 F   0  0  0  0  0  0  0  0  0  0  0  0
   -4.6906    2.1732   -1.2496 F   0  0  0  0  0  0  0  0  0  0  0  0
    5.6203    0.3461    1.3249 H   0  0  0  0  0  0  0  0  0  0  0  0
    5.2949   -1.0945    0.3623 H   0  0  0  0  0  0  0  0  0  0  0  0
    6.2264    0.2298   -0.3269 H   0  0  0  0  0  0  0  0  0  0  0  0
    3.9050    0.2450   -1.2089 H   0  0  0  0  0  0  0  0  0  0  0  0
    3.2066    2.5686   -0.5227 H   0  0  0  0  0  0  0  0  0  0  0  0
    4.4561    2.5693    0.6968 H   0  0  0  0  0  0  0  0  0  0  0  0
    3.6266    1.1659    2.4534 H   0  0  0  0  0  0  0  0  0  0  0  0
    1.7165    0.4785    3.8261 H   0  0  0  0  0  0  0  0  0  0  0  0
   -0.0912   -0.9065    2.8555 H   0  0  0  0  0  0  0  0  0  0  0  0
    1.9043   -0.8182   -0.9299 H   0  0  0  0  0  0  0  0  0  0  0  0
   -1.5170    0.7305    1.1387 H   0  0  0  0  0  0  0  0  0  0  0  0
   -1.6009   -4.1565   -1.3696 H   0  0  0  0  0  0  0  0  0  0  0  0
    6.1194    4.1916   -1.7974 H   0  0  0  0  0  0  0  0  0  0  0  0
   -5.2229   -0.5464   -0.6228 H   0  0  0  0  0  0  0  0  0  0  0  0
   -4.1948   -2.6566   -1.3902 H   0  0  0  0  0  0  0  0  0  0  0  0
    0.6712   -4.5223   -2.0867 H   0  0  0  0  0  0  0  0  0  0  0  0
    2.0211   -5.2104   -1.2710 H   0  0  0  0  0  0  0  0  0  0  0  0
   -4.0203    1.3593    0.7122 O   0  0  0  0  0  0  0  0  0  0  0  0
    5.4922    2.0152   -2.2943 O   0  0  0  0  0  0  0  0  0  0  0  0
 24 25  1  1
 26 24  1  0
 24 45  1  0
 24 27  1  0
 45 12  1  0
 12 20  1  0
 12 11  2  0
  1  2  1  0
 20 21  2  0
 11 10  1  0
  2  4  1  0
  2  3  1  0
 21 13  1  0
 10 13  2  0
 10 19  1  0
  5  4  2  0
  5  6  1  0
  4  9  1  0
  6  7  2  0
  9  8  2  0
  7  8  1  0
 13 14  1  0
  8 19  1  0
 19 15  1  0
  3 17  1  0
 14 15  2  0
 15 16  1  0
 17 46  2  0
 17 18  1  0
 16 23  1  0
 16 22  2  0
  1 28  1  0
  1 29  1  0
  1 30  1  0
  2 31  1  6
  3 32  1  0
  3 33  1  0
  5 34  1  0
  6 35  1  0
  7 36  1  0
  9 37  1  0
 11 38  1  0
 14 39  1  0
 18 40  1  0
 20 41  1  0
 21 42  1  0
 23 43  1  0
 23 44  1  0
M  END
