
     RDKit          3D

108112  0  0  0  0  0  0  0  0999 V2000
    7.6699    1.8898   -2.3083 O   0  0  0  0  0  0  0  0  0  0  0  0
    6.6854    0.9589   -1.9373 C   0  0  1  0  0  0  0  0  0  0  0  0
    7.3453   -0.1395   -1.1090 C   0  0  1  0  0  0  0  0  0  0  0  0
    8.4372   -0.7342   -1.7708 O   0  0  0  0  0  0  0  0  0  0  0  0
    7.8525    0.4166    0.2167 C   0  0  2  0  0  0  0  0  0  0  0  0
    8.3316   -0.6136    1.0484 O   0  0  0  0  0  0  0  0  0  0  0  0
    6.6999    1.1072    0.9480 C   0  0  1  0  0  0  0  0  0  0  0  0
    7.1639    1.7996    2.2111 C   0  0  0  0  0  0  0  0  0  0  0  0
    6.0438    2.3352    2.8756 O   0  0  0  0  0  0  0  0  0  0  0  0
    6.1150    2.0988    0.1172 O   0  0  0  0  0  0  0  0  0  0  0  0
    5.5999    1.6393   -1.0962 C   0  0  2  0  0  0  0  0  0  0  0  0
    4.5634    0.7254   -0.9343 O   0  0  0  0  0  0  0  0  0  0  0  0
    3.3090    1.2368   -0.5587 C   0  0  1  0  0  0  0  0  0  0  0  0
    2.2497    0.5101   -1.3818 C   0  0  2  0  0  0  0  0  0  0  0  0
    2.4346    0.8806   -2.7280 O   0  0  0  0  0  0  0  0  0  0  0  0
    3.0618    1.1259    0.9432 C   0  0  2  0  0  0  0  0  0  0  0  0
    3.3306   -0.1923    1.3654 O   0  0  0  0  0  0  0  0  0  0  0  0
    1.6139    1.5197    1.2231 C   0  0  2  0  0  0  0  0  0  0  0  0
    1.3715    1.3377    2.5677 O   0  0  0  0  0  0  0  0  0  0  0  0
    0.7313    0.7119    0.4911 O   0  0  0  0  0  0  0  0  0  0  0  0
    0.8444    0.9048   -0.8982 C   0  0  2  0  0  0  0  0  0  0  0  0
   -0.2149    0.0592   -1.5715 C   0  0  0  0  0  0  0  0  0  0  0  0
   -1.4974    0.4942   -1.1667 O   0  0  0  0  0  0  0  0  0  0  0  0
   -2.4979   -0.4663   -1.3121 C   0  0  1  0  0  0  0  0  0  0  0  0
   -2.3281   -1.5487   -0.4492 O   0  0  0  0  0  0  0  0  0  0  0  0
   -3.8540    0.2113   -1.0854 C   0  0  1  0  0  0  0  0  0  0  0  0
   -4.8891   -0.6650   -1.4572 O   0  0  0  0  0  0  0  0  0  0  0  0
   -4.0346    0.5448    0.3934 C   0  0  1  0  0  0  0  0  0  0  0  0
   -5.3413    1.0052    0.6530 O   0  0  0  0  0  0  0  0  0  0  0  0
   -5.4810    2.3510    0.9644 C   0  0  1  0  0  0  0  0  0  0  0  0
   -5.3702    3.1752   -0.1591 O   0  0  0  0  0  0  0  0  0  0  0  0
   -6.3530    2.9733   -1.1613 C   0  0  2  0  0  0  0  0  0  0  0  0
   -6.0429    3.9311   -2.2914 C   0  0  0  0  0  0  0  0  0  0  0  0
   -7.7544    3.1952   -0.5900 C   0  0  1  0  0  0  0  0  0  0  0  0
   -8.6823    2.8788   -1.6016 O   0  0  0  0  0  0  0  0  0  0  0  0
   -7.9491    2.2993    0.6285 C   0  0  2  0  0  0  0  0  0  0  0  0
   -9.2301    2.5640    1.1499 O   0  0  0  0  0  0  0  0  0  0  0  0
   -6.8394    2.5291    1.6498 C   0  0  2  0  0  0  0  0  0  0  0  0
   -6.9642    3.8338    2.1563 O   0  0  0  0  0  0  0  0  0  0  0  0
   -3.7682   -0.6683    1.2790 C   0  0  2  0  0  0  0  0  0  0  0  0
   -3.8061   -0.2323    2.6179 O   0  0  0  0  0  0  0  0  0  0  0  0
   -2.3845   -1.2243    0.9315 C   0  0  1  0  0  0  0  0  0  0  0  0
   -2.0130   -2.4768    1.6979 C   0  0  0  0  0  0  0  0  0  0  0  0
   -0.6101   -2.5993    1.6125 O   0  0  0  0  0  0  0  0  0  0  0  0
   -0.0431   -3.8601    1.7399 C   0  0  1  0  0  0  0  0  0  0  0  0
   -0.3736   -4.7190    0.6901 O   0  0  0  0  0  0  0  0  0  0  0  0
    0.0018   -4.2858   -0.6081 C   0  0  2  0  0  0  0  0  0  0  0  0
   -0.3471   -5.4031   -1.5686 C   0  0  0  0  0  0  0  0  0  0  0  0
   -1.7432   -5.5853   -1.5826 O   0  0  0  0  0  0  0  0  0  0  0  0
    1.4946   -3.9516   -0.6787 C   0  0  1  0  0  0  0  0  0  0  0  0
    1.7264   -3.3274   -1.9235 O   0  0  0  0  0  0  0  0  0  0  0  0
    1.9001   -3.0302    0.4648 C   0  0  2  0  0  0  0  0  0  0  0  0
    3.2880   -2.8065    0.3804 O   0  0  0  0  0  0  0  0  0  0  0  0
    1.4700   -3.6199    1.8028 C   0  0  2  0  0  0  0  0  0  0  0  0
    2.1666   -4.8198    2.0205 O   0  0  0  0  0  0  0  0  0  0  0  0
   -4.7894    3.5951   -2.8394 O   0  0  0  0  0  0  0  0  0  0  0  0
    7.2818    2.5130   -2.9303 H   0  0  0  0  0  0  0  0  0  0  0  0
    6.2063    0.5126   -2.8201 H   0  0  0  0  0  0  0  0  0  0  0  0
    6.5746   -0.8889   -0.8837 H   0  0  0  0  0  0  0  0  0  0  0  0
    8.0986   -1.3589   -2.4190 H   0  0  0  0  0  0  0  0  0  0  0  0
    8.6408    1.1584    0.0201 H   0  0  0  0  0  0  0  0  0  0  0  0
    9.0216   -1.0830    0.5679 H   0  0  0  0  0  0  0  0  0  0  0  0
    5.9545    0.3464    1.2144 H   0  0  0  0  0  0  0  0  0  0  0  0
    7.6903    1.0682    2.8331 H   0  0  0  0  0  0  0  0  0  0  0  0
    7.8921    2.5793    1.9461 H   0  0  0  0  0  0  0  0  0  0  0  0
    6.3452    2.7216    3.7026 H   0  0  0  0  0  0  0  0  0  0  0  0
    5.2393    2.5404   -1.6122 H   0  0  0  0  0  0  0  0  0  0  0  0
    3.2406    2.3074   -0.8087 H   0  0  0  0  0  0  0  0  0  0  0  0
    2.3790   -0.5725   -1.2543 H   0  0  0  0  0  0  0  0  0  0  0  0
    2.2250    0.1338   -3.2941 H   0  0  0  0  0  0  0  0  0  0  0  0
    3.7194    1.8323    1.4638 H   0  0  0  0  0  0  0  0  0  0  0  0
    3.1507   -0.2575    2.3099 H   0  0  0  0  0  0  0  0  0  0  0  0
    0.6820    1.9665   -1.1513 H   0  0  0  0  0  0  0  0  0  0  0  0
   -0.1172    0.1490   -2.6599 H   0  0  0  0  0  0  0  0  0  0  0  0
   -0.0469   -0.9905   -1.3090 H   0  0  0  0  0  0  0  0  0  0  0  0
   -2.4729   -0.8997   -2.3224 H   0  0  0  0  0  0  0  0  0  0  0  0
   -3.8818    1.1350   -1.6766 H   0  0  0  0  0  0  0  0  0  0  0  0
   -4.9229   -0.7080   -2.4174 H   0  0  0  0  0  0  0  0  0  0  0  0
   -3.2975    1.3173    0.6543 H   0  0  0  0  0  0  0  0  0  0  0  0
   -4.6770    2.6793    1.6376 H   0  0  0  0  0  0  0  0  0  0  0  0
   -6.3026    1.9447   -1.5454 H   0  0  0  0  0  0  0  0  0  0  0  0
   -6.8418    3.8583   -3.0364 H   0  0  0  0  0  0  0  0  0  0  0  0
   -6.0566    4.9591   -1.9023 H   0  0  0  0  0  0  0  0  0  0  0  0
   -7.8531    4.2477   -0.2842 H   0  0  0  0  0  0  0  0  0  0  0  0
   -9.5646    2.9366   -1.2198 H   0  0  0  0  0  0  0  0  0  0  0  0
   -7.8764    1.2573    0.2877 H   0  0  0  0  0  0  0  0  0  0  0  0
   -9.4924    1.8294    1.7128 H   0  0  0  0  0  0  0  0  0  0  0  0
   -6.9191    1.7806    2.4504 H   0  0  0  0  0  0  0  0  0  0  0  0
   -6.3677    3.9297    2.9050 H   0  0  0  0  0  0  0  0  0  0  0  0
   -4.5313   -1.4342    1.0875 H   0  0  0  0  0  0  0  0  0  0  0  0
   -4.1691   -0.9324    3.1659 H   0  0  0  0  0  0  0  0  0  0  0  0
   -1.6376   -0.4564    1.1738 H   0  0  0  0  0  0  0  0  0  0  0  0
   -2.3161   -2.3865    2.7473 H   0  0  0  0  0  0  0  0  0  0  0  0
   -2.5315   -3.3440    1.2745 H   0  0  0  0  0  0  0  0  0  0  0  0
   -0.3981   -4.3713    2.6468 H   0  0  0  0  0  0  0  0  0  0  0  0
   -0.5660   -3.3887   -0.8864 H   0  0  0  0  0  0  0  0  0  0  0  0
    0.0341   -5.1349   -2.5603 H   0  0  0  0  0  0  0  0  0  0  0  0
    0.1797   -6.3169   -1.2581 H   0  0  0  0  0  0  0  0  0  0  0  0
   -1.9420   -6.2828   -2.2134 H   0  0  0  0  0  0  0  0  0  0  0  0
    2.0730   -4.8852   -0.6054 H   0  0  0  0  0  0  0  0  0  0  0  0
    2.6620   -3.1025   -1.9596 H   0  0  0  0  0  0  0  0  0  0  0  0
    1.3544   -2.0866    0.3465 H   0  0  0  0  0  0  0  0  0  0  0  0
    3.4503   -1.8871    0.6461 H   0  0  0  0  0  0  0  0  0  0  0  0
    1.6703   -2.8910    2.6007 H   0  0  0  0  0  0  0  0  0  0  0  0
    1.9790   -5.1268    2.9128 H   0  0  0  0  0  0  0  0  0  0  0  0
   -4.6213    4.1851   -3.5794 H   0  0  0  0  0  0  0  0  0  0  0  0
    1.4767    2.5738    0.9200 H   0  0  0  0  0  0  0  0  0  0  0  0
    0.5007    1.6857    2.7885 H   0  0  0  0  0  0  0  0  0  0  0  0
  1  2  1  0
  1 57  1  0
  2  3  1  0
  2 11  1  0
  2 58  1  6
  3  4  1  0
  3  5  1  0
  3 59  1  1
  4 60  1  0
  5  6  1  0
  5  7  1  0
  5 61  1  6
  6 62  1  0
  7  8  1  0
  7 10  1  0
  7 63  1  1
  8  9  1  0
  8 64  1  0
  8 65  1  0
  9 66  1  0
 10 11  1  0
 11 12  1  0
 11 67  1  6
 12 13  1  0
 13 14  1  0
 13 16  1  0
 13 68  1  6
 14 15  1  0
 14 21  1  0
 14 69  1  6
 15 70  1  0
 16 17  1  0
 16 18  1  0
 16 71  1  1
 17 72  1  0
 18 19  1  0
 18 20  1  0
 20 21  1  0
 21 22  1  0
 21 73  1  1
 22 23  1  0
 22 74  1  0
 22 75  1  0
 23 24  1  0
 24 25  1  0
 24 26  1  0
 24 76  1  6
 25 42  1  0
 26 27  1  0
 26 28  1  0
 26 77  1  6
 27 78  1  0
 28 29  1  0
 28 40  1  0
 28 79  1  1
 29 30  1  0
 30 31  1  0
 30 38  1  0
 30 80  1  1
 31 32  1  0
 32 33  1  0
 32 34  1  0
 32 81  1  6
 33 56  1  0
 33 82  1  0
 33 83  1  0
 34 35  1  0
 34 36  1  0
 34 84  1  1
 35 85  1  0
 36 37  1  0
 36 38  1  0
 36 86  1  6
 37 87  1  0
 38 39  1  0
 38 88  1  1
 39 89  1  0
 40 41  1  0
 40 42  1  0
 40 90  1  1
 41 91  1  0
 42 43  1  0
 42 92  1  6
 43 44  1  0
 43 93  1  0
 43 94  1  0
 44 45  1  0
 45 46  1  0
 45 54  1  0
 45 95  1  1
 46 47  1  0
 47 48  1  0
 47 50  1  0
 47 96  1  6
 48 49  1  0
 48 97  1  0
 48 98  1  0
 49 99  1  0
 50 51  1  0
 50 52  1  0
 50100  1  6
 51101  1  0
 52 53  1  0
 52 54  1  0
 52102  1  6
 53103  1  0
 54 55  1  0
 54104  1  1
 55105  1  0
 56106  1  0
 18107  1  6
 19108  1  0
M  END
