
     RDKit          3D

 84 87  0  0  0  0  0  0  0  0999 V2000
   -5.0272   -2.4732   -1.5001 O   0  0  0  0  0  0  0  0  0  0  0  0
   -4.5984   -3.7926   -1.9427 S   0  0  1  0  0  0  0  0  0  0  0  0
   -5.2244   -4.9752   -1.3744 O   0  0  0  0  0  0  0  0  0  0  0  0
   -4.7940   -3.8515   -3.6959 C   0  0  0  0  0  0  0  0  0  0  0  0
   -4.8845   -2.6731   -4.4223 C   0  0  0  0  0  0  0  0  0  0  0  0
   -4.9785   -2.7109   -5.8050 C   0  0  0  0  0  0  0  0  0  0  0  0
   -4.9816   -3.9383   -6.4671 C   0  0  0  0  0  0  0  0  0  0  0  0
   -5.0665   -4.0774   -7.7936 O   0  0  0  0  0  0  0  0  0  0  0  0
   -5.1737   -2.9153   -8.5980 C   0  0  0  0  0  0  0  0  0  0  0  0
   -4.8990   -5.1236   -5.7264 C   0  0  0  0  0  0  0  0  0  0  0  0
   -4.8068   -5.0819   -4.3524 C   0  0  0  0  0  0  0  0  0  0  0  0
   -2.9804   -3.8966   -1.6413 N   0  0  0  0  0  0  0  0  0  0  0  0
   -2.3241   -5.1866   -1.8707 C   0  0  0  0  0  0  0  0  0  0  0  0
   -1.4064   -5.6066   -0.7250 C   0  0  1  0  0  0  0  0  0  0  0  0
   -2.1788   -5.7457    0.5787 C   0  0  0  0  0  0  0  0  0  0  0  0
   -0.7238   -6.9162   -1.1042 C   0  0  0  0  0  0  0  0  0  0  0  0
   -2.1932   -2.6954   -1.9215 C   0  0  0  0  0  0  0  0  0  0  0  0
   -2.0344   -1.7817   -0.7147 C   0  0  1  0  0  0  0  0  0  0  0  0
   -1.2239   -2.4632    0.2066 O   0  0  0  0  0  0  0  0  0  0  0  0
   -1.4197   -0.4156   -1.0735 C   0  0  2  0  0  0  0  0  0  0  0  0
   -2.2840    0.4088   -2.0300 C   0  0  0  0  0  0  0  0  0  0  0  0
   -1.7643    1.8103   -2.1852 C   0  0  0  0  0  0  0  0  0  0  0  0
   -2.0077    2.7650   -1.1999 C   0  0  0  0  0  0  0  0  0  0  0  0
   -1.5051    4.0529   -1.3182 C   0  0  0  0  0  0  0  0  0  0  0  0
   -0.7474    4.4060   -2.4284 C   0  0  0  0  0  0  0  0  0  0  0  0
   -0.4995    3.4632   -3.4166 C   0  0  0  0  0  0  0  0  0  0  0  0
   -1.0050    2.1751   -3.2929 C   0  0  0  0  0  0  0  0  0  0  0  0
   -0.0756   -0.5649   -1.5876 N   0  0  0  0  0  0  0  0  0  0  0  0
    1.0138   -0.6100   -0.8061 C   0  0  0  0  0  0  0  0  0  0  0  0
    1.0478   -0.3239    0.3751 O   0  0  0  0  0  0  0  0  0  0  0  0
    2.2564   -1.1281   -1.5294 C   0  0  1  0  0  0  0  0  0  0  0  0
    3.3959   -0.8678   -0.7329 O   0  0  0  0  0  0  0  0  0  0  0  0
    3.6834   -1.9452    0.0165 C   0  0  0  0  0  0  0  0  0  0  0  0
    4.5116   -1.9207    0.8868 O   0  0  0  0  0  0  0  0  0  0  0  0
    2.2185   -2.6557   -1.6245 C   0  0  0  0  0  0  0  0  0  0  0  0
    2.9217   -2.9948   -0.4059 N   0  0  0  0  0  0  0  0  0  0  0  0
    3.0302   -4.3101    0.0644 C   0  0  0  0  0  0  0  0  0  0  0  0
    3.2547   -4.5809    1.4159 C   0  0  0  0  0  0  0  0  0  0  0  0
    3.3312   -5.8931    1.8492 C   0  0  0  0  0  0  0  0  0  0  0  0
    3.1700   -6.9470    0.9613 C   0  0  0  0  0  0  0  0  0  0  0  0
    2.8678   -5.3629   -0.8250 C   0  0  0  0  0  0  0  0  0  0  0  0
    2.9344   -6.6831   -0.3837 C   0  0  0  0  0  0  0  0  0  0  0  0
    2.7619   -7.7765   -1.3844 C   0  0  0  0  0  0  0  0  0  0  0  0
    2.6799   -7.5185   -2.5671 O   0  0  0  0  0  0  0  0  0  0  0  0
    2.6910   -9.1921   -0.8845 C   0  0  0  0  0  0  0  0  0  0  0  0
   -4.9009   -1.7134   -3.9238 H   0  0  0  0  0  0  0  0  0  0  0  0
   -5.0544   -1.7774   -6.3449 H   0  0  0  0  0  0  0  0  0  0  0  0
   -6.0768   -2.3457   -8.3675 H   0  0  0  0  0  0  0  0  0  0  0  0
   -5.2265   -3.2594   -9.6272 H   0  0  0  0  0  0  0  0  0  0  0  0
   -4.3039   -2.2639   -8.4864 H   0  0  0  0  0  0  0  0  0  0  0  0
   -4.9163   -6.0758   -6.2408 H   0  0  0  0  0  0  0  0  0  0  0  0
   -4.7554   -6.0101   -3.7990 H   0  0  0  0  0  0  0  0  0  0  0  0
   -1.7612   -5.1453   -2.8100 H   0  0  0  0  0  0  0  0  0  0  0  0
   -3.0819   -5.9621   -1.9912 H   0  0  0  0  0  0  0  0  0  0  0  0
   -0.6345   -4.8432   -0.5910 H   0  0  0  0  0  0  0  0  0  0  0  0
   -2.9730   -6.4898    0.4820 H   0  0  0  0  0  0  0  0  0  0  0  0
   -1.5190   -6.0666    1.3864 H   0  0  0  0  0  0  0  0  0  0  0  0
   -2.6321   -4.8010    0.8732 H   0  0  0  0  0  0  0  0  0  0  0  0
   -1.4548   -7.7182   -1.2340 H   0  0  0  0  0  0  0  0  0  0  0  0
   -0.0277   -7.2260   -0.3236 H   0  0  0  0  0  0  0  0  0  0  0  0
   -0.1580   -6.8252   -2.0331 H   0  0  0  0  0  0  0  0  0  0  0  0
   -1.2103   -3.0328   -2.2555 H   0  0  0  0  0  0  0  0  0  0  0  0
   -2.6125   -2.1436   -2.7670 H   0  0  0  0  0  0  0  0  0  0  0  0
   -3.0273   -1.5759   -0.2980 H   0  0  0  0  0  0  0  0  0  0  0  0
   -1.1706   -1.9488    1.0183 H   0  0  0  0  0  0  0  0  0  0  0  0
   -1.3454    0.1485   -0.1397 H   0  0  0  0  0  0  0  0  0  0  0  0
   -2.3431   -0.0717   -3.0104 H   0  0  0  0  0  0  0  0  0  0  0  0
   -3.3021    0.4246   -1.6331 H   0  0  0  0  0  0  0  0  0  0  0  0
   -2.5998    2.4975   -0.3318 H   0  0  0  0  0  0  0  0  0  0  0  0
   -1.7083    4.7835   -0.5457 H   0  0  0  0  0  0  0  0  0  0  0  0
   -0.3563    5.4108   -2.5232 H   0  0  0  0  0  0  0  0  0  0  0  0
    0.0868    3.7298   -4.2867 H   0  0  0  0  0  0  0  0  0  0  0  0
   -0.8116    1.4469   -4.0723 H   0  0  0  0  0  0  0  0  0  0  0  0
    0.0311   -0.7810   -2.5677 H   0  0  0  0  0  0  0  0  0  0  0  0
    2.3866   -0.6569   -2.5042 H   0  0  0  0  0  0  0  0  0  0  0  0
    1.2049   -3.0569   -1.6234 H   0  0  0  0  0  0  0  0  0  0  0  0
    2.7384   -3.0154   -2.5157 H   0  0  0  0  0  0  0  0  0  0  0  0
    3.3513   -3.7787    2.1320 H   0  0  0  0  0  0  0  0  0  0  0  0
    3.5040   -6.0940    2.8978 H   0  0  0  0  0  0  0  0  0  0  0  0
    3.2290   -7.9625    1.3283 H   0  0  0  0  0  0  0  0  0  0  0  0
    2.6841   -5.1744   -1.8746 H   0  0  0  0  0  0  0  0  0  0  0  0
    1.8919   -9.3092   -0.1506 H   0  0  0  0  0  0  0  0  0  0  0  0
    3.6218   -9.4757   -0.3899 H   0  0  0  0  0  0  0  0  0  0  0  0
    2.5147   -9.8757   -1.7114 H   0  0  0  0  0  0  0  0  0  0  0  0
  1  2  2  0
  2  3  2  0
  2 12  1  6
  2  4  1  0
  4  5  2  0
  4 11  1  0
  5  6  1  0
  5 46  1  0
  6  7  2  0
  6 47  1  0
  7 10  1  0
  7  8  1  0
  8  9  1  0
  9 48  1  0
  9 49  1  0
  9 50  1  0
 10 11  2  0
 10 51  1  0
 11 52  1  0
 12 17  1  0
 12 13  1  0
 13 14  1  0
 13 53  1  0
 13 54  1  0
 14 15  1  0
 14 16  1  0
 14 55  1  1
 15 56  1  0
 15 57  1  0
 15 58  1  0
 16 59  1  0
 16 60  1  0
 16 61  1  0
 17 18  1  0
 17 62  1  0
 17 63  1  0
 18 20  1  0
 18 19  1  0
 18 64  1  1
 19 65  1  0
 20 28  1  0
 20 21  1  0
 20 66  1  1
 21 22  1  0
 21 67  1  0
 21 68  1  0
 22 27  1  0
 22 23  2  0
 23 24  1  0
 23 69  1  0
 24 25  2  0
 24 70  1  0
 25 26  1  0
 25 71  1  0
 26 27  2  0
 26 72  1  0
 27 73  1  0
 28 29  1  0
 28 74  1  0
 29 31  1  0
 29 30  2  0
 31 35  1  0
 31 32  1  0
 31 75  1  6
 32 33  1  0
 33 36  1  0
 33 34  2  0
 35 36  1  0
 35 76  1  0
 35 77  1  0
 36 37  1  0
 37 41  1  0
 37 38  2  0
 38 39  1  0
 38 78  1  0
 39 40  2  0
 39 79  1  0
 40 42  1  0
 40 80  1  0
 41 42  2  0
 41 81  1  0
 42 43  1  0
 43 45  1  0
 43 44  2  0
 45 82  1  0
 45 83  1  0
 45 84  1  0
M  END
