
     RDKit          3D

 34 36  0  0  0  0  0  0  0  0999 V2000
    1.5558    0.2435   -0.0987 N   0  0  0  0  0  0  0  0  0  0  0  0
    1.4414   -2.1277    0.2517 C   0  0  0  0  0  0  0  0  0  0  0  0
   -1.1685    0.6239    0.1010 C   0  0  0  0  0  0  0  0  0  0  0  0
   -1.4776   -1.7439   -0.1335 C   0  0  0  0  0  0  0  0  0  0  0  0
    2.7868   -2.2617    0.3034 C   0  0  0  0  0  0  0  0  0  0  0  0
   -2.8568   -1.5560   -0.1652 C   0  0  0  0  0  0  0  0  0  0  0  0
   -3.3991   -0.2861   -0.0725 C   0  0  0  0  0  0  0  0  0  0  0  0
   -5.6271   -1.0726   -0.1792 C   0  0  0  0  0  0  0  0  0  0  0  0
    0.8422   -0.8354    0.0433 C   0  0  0  0  0  0  0  0  0  0  0  0
    3.5591   -1.0889    0.1415 C   0  0  0  0  0  0  0  0  0  0  0  0
    3.8206    1.0491   -0.1624 C   0  0  0  0  0  0  0  0  0  0  0  0
   -0.6196   -0.6652    0.0043 C   0  0  0  0  0  0  0  0  0  0  0  0
   -2.5320    0.8233    0.0652 C   0  0  0  0  0  0  0  0  0  0  0  0
    4.8467   -0.8435    0.1384 N   0  0  0  0  0  0  0  0  0  0  0  0
    4.9956    0.4834   -0.0531 N   0  0  0  0  0  0  0  0  0  0  0  0
    2.8744    0.0826   -0.0421 N   0  0  0  0  0  0  0  0  0  0  0  0
   -3.1384    2.0192    0.1488 O   0  0  0  0  0  0  0  0  0  0  0  0
    0.8150   -2.9968    0.3826 H   0  0  0  0  0  0  0  0  0  0  0  0
   -0.4981    1.4647    0.2081 H   0  0  0  0  0  0  0  0  0  0  0  0
   -1.1092   -2.7564   -0.2222 H   0  0  0  0  0  0  0  0  0  0  0  0
    3.2684   -3.2160    0.4614 H   0  0  0  0  0  0  0  0  0  0  0  0
   -3.4937   -2.4227   -0.2737 H   0  0  0  0  0  0  0  0  0  0  0  0
    2.9891    2.9060    0.4801 H   0  0  0  0  0  0  0  0  0  0  0  0
    4.4359    3.0336   -0.5258 H   0  0  0  0  0  0  0  0  0  0  0  0
    2.8783    2.6150   -1.2503 H   0  0  0  0  0  0  0  0  0  0  0  0
   -5.5189   -1.6236   -1.1165 H   0  0  0  0  0  0  0  0  0  0  0  0
   -5.5237   -1.7679    0.6572 H   0  0  0  0  0  0  0  0  0  0  0  0
   -6.6184   -0.6286   -0.1445 H   0  0  0  0  0  0  0  0  0  0  0  0
   -3.0096    4.0170    0.3604 H   0  0  0  0  0  0  0  0  0  0  0  0
   -1.7492    3.1302    1.2345 H   0  0  0  0  0  0  0  0  0  0  0  0
   -1.6511    3.3127   -0.5326 H   0  0  0  0  0  0  0  0  0  0  0  0
    3.5137    2.4783   -0.3750 C   0  0  0  0  0  0  0  0  0  0  0  0
   -4.7070   -0.0011   -0.0872 O   0  0  0  0  0  0  0  0  0  0  0  0
   -2.3319    3.1686    0.3104 C   0  0  0  0  0  0  0  0  0  0  0  0
 32 11  1  0
 15 11  2  0
 15 14  1  0
 11 16  1  0
 14 10  2  0
 16 10  1  0
 16  1  1  0
 10  5  1  0
  1  9  2  0
  5  2  2  0
  9  2  1  0
  9 12  1  0
  4 12  1  0
  4  6  2  0
 12  3  2  0
  6  7  1  0
  3 13  1  0
  7 13  2  0
  7 33  1  0
  8 33  1  0
 13 17  1  0
 17 34  1  0
  2 18  1  0
  3 19  1  0
  4 20  1  0
  5 21  1  0
  6 22  1  0
 32 23  1  0
 32 24  1  0
 32 25  1  0
  8 26  1  0
  8 27  1  0
  8 28  1  0
 34 29  1  0
 34 30  1  0
 34 31  1  0
M  END
