
     RDKit          3D

 17 16  0  0  0  0  0  0  0  0999 V2000
   -1.6437   -0.0986    0.0237 C   0  0  0  0  0  0  0  0  0  0  0  0
   -2.6914    0.7216    0.0588 O   0  0  0  0  0  0  0  0  0  0  0  0
   -0.3435    0.6561    0.0285 C   0  0  0  0  0  0  0  0  0  0  0  0
    0.8878   -0.2347    0.0068 C   0  0  0  0  0  0  0  0  0  0  0  0
    2.1767    0.5786    0.0148 C   0  0  0  0  0  0  0  0  0  0  0  0
    3.4172   -0.3032   -0.0079 C   0  0  0  0  0  0  0  0  0  0  0  0
   -1.7540   -1.2990   -0.0088 O   0  0  0  0  0  0  0  0  0  0  0  0
   -3.5127    0.2080    0.0547 H   0  0  0  0  0  0  0  0  0  0  0  0
   -0.3418    1.3329   -0.8323 H   0  0  0  0  0  0  0  0  0  0  0  0
   -0.3310    1.3069    0.9089 H   0  0  0  0  0  0  0  0  0  0  0  0
    0.8777   -0.9044    0.8710 H   0  0  0  0  0  0  0  0  0  0  0  0
    0.8693   -0.8735   -0.8805 H   0  0  0  0  0  0  0  0  0  0  0  0
    2.1881    1.2521   -0.8477 H   0  0  0  0  0  0  0  0  0  0  0  0
    2.1971    1.2202    0.9012 H   0  0  0  0  0  0  0  0  0  0  0  0
    3.4451   -0.9641    0.8604 H   0  0  0  0  0  0  0  0  0  0  0  0
    3.4367   -0.9306   -0.9009 H   0  0  0  0  0  0  0  0  0  0  0  0
    4.3319    0.2902   -0.0009 H   0  0  0  0  0  0  0  0  0  0  0  0
  1  2  1  0
  1  3  1  0
  1  7  2  0
  2  8  1  0
  3  4  1  0
  3  9  1  0
  3 10  1  0
  4  5  1  0
  4 11  1  0
  4 12  1  0
  5  6  1  0
  5 13  1  0
  5 14  1  0
  6 15  1  0
  6 16  1  0
  6 17  1  0
M  END
