
     RDKit          3D

 16 16  0  0  0  0  0  0  0  0999 V2000
    0.9549    2.0448    1.1510 N   0  0  0  0  0  0  0  0  0  0  0  0
    1.7560    1.2637    0.2005 C   0  0  2  0  0  0  0  0  0  0  0  0
    1.1471   -0.0778   -0.1570 C   0  0  0  0  0  0  0  0  0  0  0  0
    0.2633   -0.7056    0.4325 O   0  0  0  0  0  0  0  0  0  0  0  0
    3.1738    1.0656    0.7789 C   0  0  0  0  0  0  0  0  0  0  0  0
    3.1121    1.6461    2.1693 C   0  0  0  0  0  0  0  0  0  0  0  0
    1.7230    2.2295    2.3776 C   0  0  0  0  0  0  0  0  0  0  0  0
    4.0190    1.6512    2.9943 O   0  0  0  0  0  0  0  0  0  0  0  0
    1.6655   -0.6377   -1.2827 O   0  0  0  0  0  0  0  0  0  0  0  0
    0.0727    1.5993    1.3333 H   0  0  0  0  0  0  0  0  0  0  0  0
    1.8039    1.8627   -0.7565 H   0  0  0  0  0  0  0  0  0  0  0  0
    3.9298    1.6160    0.1642 H   0  0  0  0  0  0  0  0  0  0  0  0
    3.4686   -0.0125    0.8036 H   0  0  0  0  0  0  0  0  0  0  0  0
    1.2424    1.7556    3.2778 H   0  0  0  0  0  0  0  0  0  0  0  0
    1.8062    3.3362    2.5676 H   0  0  0  0  0  0  0  0  0  0  0  0
    1.2318   -1.4911   -1.4515 H   0  0  0  0  0  0  0  0  0  0  0  0
  1  2  1  0
  1  7  1  0
  1 10  1  0
  2  3  1  0
  2  5  1  0
  2 11  1  6
  3  4  2  0
  3  9  1  0
  5  6  1  0
  5 12  1  0
  5 13  1  0
  6  7  1  0
  6  8  2  0
  7 14  1  0
  7 15  1  0
  9 16  1  0
M  END
