
     RDKit          3D

 47 48  0  0  0  0  0  0  0  0999 V2000
   -7.8061   -0.3574   -0.4809 O   0  0  0  0  0  0  0  0  0  0  0  0
   -7.7152   -0.2150    1.1105 S   0  0  2  0  0  0  0  0  0  0  0  0
   -8.3769   -1.3374    1.7306 O   0  0  0  0  0  0  0  0  0  0  0  0
   -8.0937    1.1312    1.4690 O   0  0  0  0  0  0  0  0  0  0  0  0
   -6.1086   -0.4184    1.3522 N   0  0  0  0  0  0  0  0  0  0  0  0
   -5.1730    0.4735    0.7614 C   0  0  0  0  0  0  0  0  0  0  0  0
   -5.0431    1.7679    1.2456 C   0  0  0  0  0  0  0  0  0  0  0  0
   -4.1033    2.6140    0.6737 C   0  0  0  0  0  0  0  0  0  0  0  0
   -4.3576    0.0256   -0.2719 C   0  0  0  0  0  0  0  0  0  0  0  0
   -3.3983    0.8631   -0.8254 C   0  0  0  0  0  0  0  0  0  0  0  0
   -3.2823    2.1667   -0.3500 C   0  0  0  0  0  0  0  0  0  0  0  0
   -2.4749    0.3567   -1.8982 C   0  0  0  0  0  0  0  0  0  0  0  0
   -1.1930    0.0153   -1.3116 N   0  0  0  0  0  0  0  0  0  0  0  0
   -0.1121   -0.2909   -2.0487 C   0  0  0  0  0  0  0  0  0  0  0  0
   -0.1137   -0.2384   -3.2704 O   0  0  0  0  0  0  0  0  0  0  0  0
    1.0960   -0.7220   -1.2424 C   0  0  0  0  0  0  0  0  0  0  0  0
    2.4093   -0.6055   -2.0108 C   0  0  0  0  0  0  0  0  0  0  0  0
    3.5666   -1.0268   -1.1483 C   0  0  0  0  0  0  0  0  0  0  0  0
    4.1024   -0.1456   -0.2148 C   0  0  0  0  0  0  0  0  0  0  0  0
    5.1283   -0.5446    0.6319 C   0  0  0  0  0  0  0  0  0  0  0  0
    5.6075    0.3618    1.6172 N   0  0  0  0  0  0  0  0  0  0  0  0
    7.1135    0.9961    1.5051 S   0  0  2  0  0  0  0  0  0  0  0  0
    7.0446    1.7080    0.0735 O   0  0  0  0  0  0  0  0  0  0  0  0
    8.0908   -0.0645    1.4379 O   0  0  0  0  0  0  0  0  0  0  0  0
    7.2140    2.0028    2.5341 O   0  0  0  0  0  0  0  0  0  0  0  0
    5.6491   -1.8301    0.5494 C   0  0  0  0  0  0  0  0  0  0  0  0
    5.1376   -2.7015   -0.4002 C   0  0  0  0  0  0  0  0  0  0  0  0
    4.1031   -2.3078   -1.2379 C   0  0  0  0  0  0  0  0  0  0  0  0
   -8.6335    0.0145   -0.8315 H   0  0  0  0  0  0  0  0  0  0  0  0
   -5.8415   -1.3978    1.3344 H   0  0  0  0  0  0  0  0  0  0  0  0
   -5.6549    2.1105    2.0682 H   0  0  0  0  0  0  0  0  0  0  0  0
   -4.0026    3.6258    1.0427 H   0  0  0  0  0  0  0  0  0  0  0  0
   -4.4694   -0.9874   -0.6410 H   0  0  0  0  0  0  0  0  0  0  0  0
   -2.5445    2.8328   -0.7801 H   0  0  0  0  0  0  0  0  0  0  0  0
   -2.3288    1.1233   -2.6612 H   0  0  0  0  0  0  0  0  0  0  0  0
   -2.9153   -0.5111   -2.3973 H   0  0  0  0  0  0  0  0  0  0  0  0
   -1.1467   -0.1005   -0.3119 H   0  0  0  0  0  0  0  0  0  0  0  0
    0.9385   -1.7614   -0.9358 H   0  0  0  0  0  0  0  0  0  0  0  0
    1.1446   -0.1409   -0.3179 H   0  0  0  0  0  0  0  0  0  0  0  0
    2.5519    0.4246   -2.3445 H   0  0  0  0  0  0  0  0  0  0  0  0
    2.3721   -1.2288   -2.9050 H   0  0  0  0  0  0  0  0  0  0  0  0
    3.7125    0.8638   -0.1397 H   0  0  0  0  0  0  0  0  0  0  0  0
    4.9308    1.0552    1.9207 H   0  0  0  0  0  0  0  0  0  0  0  0
    7.9270    1.8229   -0.3180 H   0  0  0  0  0  0  0  0  0  0  0  0
    6.4300   -2.1527    1.2235 H   0  0  0  0  0  0  0  0  0  0  0  0
    5.5394   -3.7033   -0.4756 H   0  0  0  0  0  0  0  0  0  0  0  0
    3.7031   -3.0049   -1.9645 H   0  0  0  0  0  0  0  0  0  0  0  0
  2  1  1  6
  1 29  1  0
  2  3  2  0
  2  4  2  0
  2  5  1  0
  5  6  1  0
  5 30  1  0
  6  7  2  0
  6  9  1  0
  7  8  1  0
  7 31  1  0
  8 11  2  0
  8 32  1  0
  9 10  2  0
  9 33  1  0
 10 11  1  0
 10 12  1  0
 11 34  1  0
 12 13  1  0
 12 35  1  0
 12 36  1  0
 13 14  1  0
 13 37  1  0
 14 15  2  0
 14 16  1  0
 16 17  1  0
 16 38  1  0
 16 39  1  0
 17 18  1  0
 17 40  1  0
 17 41  1  0
 18 19  2  0
 18 28  1  0
 19 20  1  0
 19 42  1  0
 20 21  1  0
 20 26  2  0
 21 22  1  0
 21 43  1  0
 22 23  1  6
 22 24  2  0
 22 25  2  0
 23 44  1  0
 26 27  1  0
 26 45  1  0
 27 28  2  0
 27 46  1  0
 28 47  1  0
M  END
