
     RDKit          3D

 28 29  0  0  0  0  0  0  0  0999 V2000
   -2.1051   -0.7215    0.0527 C   0  0  0  0  0  0  0  0  0  0  0  0
   -4.3887    0.8420   -0.0549 C   0  0  0  0  0  0  0  0  0  0  0  0
    4.9023    0.1082   -0.7611 C   0  0  0  0  0  0  0  0  0  0  0  0
    4.0460    1.0499   -0.1231 C   0  0  0  0  0  0  0  0  0  0  0  0
    2.8048    0.5509    0.1339 C   0  0  0  0  0  0  0  0  0  0  0  0
    2.6682   -1.0771   -0.4158 S   0  0  0  0  0  0  0  0  0  0  0  0
    4.2897   -1.0867   -0.9804 C   0  0  0  0  0  0  0  0  0  0  0  0
    1.6530    1.1960    0.8306 C   0  0  0  0  0  0  0  0  0  0  0  0
    0.3990    0.7208    0.2876 N   0  0  0  0  0  0  0  0  0  0  0  0
   -0.7582    1.1826    1.0270 C   0  0  0  0  0  0  0  0  0  0  0  0
   -2.0351    0.6014    0.4804 C   0  0  0  0  0  0  0  0  0  0  0  0
   -3.2905   -1.2637   -0.4212 C   0  0  0  0  0  0  0  0  0  0  0  0
   -4.4432   -0.4836   -0.4760 C   0  0  0  0  0  0  0  0  0  0  0  0
   -3.1940    1.3688    0.4115 C   0  0  0  0  0  0  0  0  0  0  0  0
   -5.6240   -0.9564   -0.9278 O   0  0  0  0  0  0  0  0  0  0  0  0
   -1.2163   -1.3393    0.0804 H   0  0  0  0  0  0  0  0  0  0  0  0
   -5.2768    1.4601   -0.1003 H   0  0  0  0  0  0  0  0  0  0  0  0
    4.3398    2.0580    0.1360 H   0  0  0  0  0  0  0  0  0  0  0  0
    4.6969   -1.9635   -1.4596 H   0  0  0  0  0  0  0  0  0  0  0  0
    1.6751    0.9335    1.8938 H   0  0  0  0  0  0  0  0  0  0  0  0
    1.7775    2.2879    0.7851 H   0  0  0  0  0  0  0  0  0  0  0  0
    0.3162    1.0071   -0.6810 H   0  0  0  0  0  0  0  0  0  0  0  0
   -0.6282    0.8704    2.0693 H   0  0  0  0  0  0  0  0  0  0  0  0
   -0.8450    2.2795    1.0522 H   0  0  0  0  0  0  0  0  0  0  0  0
   -3.3156   -2.2973   -0.7490 H   0  0  0  0  0  0  0  0  0  0  0  0
   -3.1667    2.4058    0.7262 H   0  0  0  0  0  0  0  0  0  0  0  0
   -5.5332   -1.8760   -1.2006 H   0  0  0  0  0  0  0  0  0  0  0  0
    5.9223    0.3187   -1.0499 H   0  0  0  0  0  0  0  0  0  0  0  0
  6  7  1  0
  6  5  1  0
  2 14  2  0
  2 13  1  0
 14 11  1  0
  7  3  2  0
 15 13  1  0
  9  8  1  0
  9 10  1  0
 13 12  2  0
  5  8  1  0
  5  4  2  0
 11 10  1  0
 11  1  2  0
  3  4  1  0
 12  1  1  0
  1 16  1  0
  2 17  1  0
  3 28  1  0
  4 18  1  0
  7 19  1  0
  8 20  1  0
  8 21  1  0
  9 22  1  0
 10 23  1  0
 10 24  1  0
 12 25  1  0
 14 26  1  0
 15 27  1  0
M  END
