
     RDKit          3D

 36 38  0  0  0  0  0  0  0  0999 V2000
    5.2953    1.6710    0.7654 C   0  0  0  0  0  0  0  0  0  0  0  0
    4.4378    0.6470    0.0424 C   0  0  0  0  0  0  0  0  0  0  0  0
    2.9936    1.0869   -0.1111 C   0  0  0  0  0  0  0  0  0  0  0  0
    2.6302    2.1916    0.2689 O   0  0  0  0  0  0  0  0  0  0  0  0
    2.1343    0.2110   -0.6886 N   0  0  0  0  0  0  0  0  0  0  0  0
    2.4935   -1.1295   -1.1186 C   0  0  0  0  0  0  0  0  0  0  0  0
    1.9739   -2.1770   -0.1339 C   0  0  0  0  0  0  0  0  0  0  0  0
    0.7095    0.5076   -0.7376 C   0  0  0  0  0  0  0  0  0  0  0  0
   -0.0503   -0.6372   -0.1405 C   0  0  0  0  0  0  0  0  0  0  0  0
    0.5496   -1.8449    0.1273 C   0  0  0  0  0  0  0  0  0  0  0  0
   -0.4127   -2.6496    0.6054 N   0  0  0  0  0  0  0  0  0  0  0  0
   -1.5990   -2.0599    0.6618 N   0  0  0  0  0  0  0  0  0  0  0  0
   -1.4088   -0.8287    0.2063 C   0  0  0  0  0  0  0  0  0  0  0  0
   -2.5461    0.0932    0.0983 C   0  0  0  0  0  0  0  0  0  0  0  0
   -3.8352   -0.4056   -0.1071 C   0  0  0  0  0  0  0  0  0  0  0  0
   -4.9205    0.4513   -0.2013 C   0  0  0  0  0  0  0  0  0  0  0  0
   -4.7407    1.8252   -0.0948 C   0  0  0  0  0  0  0  0  0  0  0  0
   -3.4652    2.3318    0.1112 C   0  0  0  0  0  0  0  0  0  0  0  0
   -2.3786    1.4738    0.2088 C   0  0  0  0  0  0  0  0  0  0  0  0
    4.9137    1.8865    1.7626 H   0  0  0  0  0  0  0  0  0  0  0  0
    6.3096    1.2882    0.8735 H   0  0  0  0  0  0  0  0  0  0  0  0
    5.3521    2.6103    0.2173 H   0  0  0  0  0  0  0  0  0  0  0  0
    4.8601    0.4427   -0.9455 H   0  0  0  0  0  0  0  0  0  0  0  0
    4.4681   -0.3057    0.5785 H   0  0  0  0  0  0  0  0  0  0  0  0
    2.0464   -1.3028   -2.1009 H   0  0  0  0  0  0  0  0  0  0  0  0
    3.5674   -1.2214   -1.2465 H   0  0  0  0  0  0  0  0  0  0  0  0
    2.0818   -3.1761   -0.5605 H   0  0  0  0  0  0  0  0  0  0  0  0
    2.5613   -2.1569    0.7884 H   0  0  0  0  0  0  0  0  0  0  0  0
    0.5383    1.4366   -0.2006 H   0  0  0  0  0  0  0  0  0  0  0  0
    0.4011    0.6803   -1.7753 H   0  0  0  0  0  0  0  0  0  0  0  0
   -0.3149   -3.6038    0.9148 H   0  0  0  0  0  0  0  0  0  0  0  0
   -3.9850   -1.4730   -0.2031 H   0  0  0  0  0  0  0  0  0  0  0  0
   -5.9103    0.0451   -0.3657 H   0  0  0  0  0  0  0  0  0  0  0  0
   -5.5872    2.4949   -0.1717 H   0  0  0  0  0  0  0  0  0  0  0  0
   -3.3124    3.3993    0.2022 H   0  0  0  0  0  0  0  0  0  0  0  0
   -1.3986    1.8915    0.3962 H   0  0  0  0  0  0  0  0  0  0  0  0
 11 12  1  0
 11 10  1  0
 12 13  2  0
 10  7  1  0
 10  9  2  0
 19 18  2  0
 19 14  1  0
  7  6  1  0
 13 14  1  0
 13  9  1  0
 18 17  1  0
 14 15  2  0
  9  8  1  0
  6  5  1  0
 17 16  2  0
  4  3  2  0
 15 16  1  0
  5  8  1  0
  5  3  1  0
  3  2  1  0
  2  1  1  0
  1 20  1  0
  1 21  1  0
  1 22  1  0
  2 23  1  0
  2 24  1  0
  6 25  1  0
  6 26  1  0
  7 27  1  0
  7 28  1  0
  8 29  1  0
  8 30  1  0
 11 31  1  0
 15 32  1  0
 16 33  1  0
 17 34  1  0
 18 35  1  0
 19 36  1  0
M  END
