
     RDKit          3D

 42 45  0  0  0  0  0  0  0  0999 V2000
   -4.7656   -3.0409    0.8559 C   0  0  0  0  0  0  0  0  0  0  0  0
   -5.9210   -2.3760    0.4604 C   0  0  0  0  0  0  0  0  0  0  0  0
   -3.5183   -2.4336    0.7637 C   0  0  0  0  0  0  0  0  0  0  0  0
   -0.2215    1.5456   -0.4202 C   0  0  0  0  0  0  0  0  0  0  0  0
   -5.8508   -1.0802   -0.0399 C   0  0  0  0  0  0  0  0  0  0  0  0
   -1.5381    1.8696   -0.7085 C   0  0  0  0  0  0  0  0  0  0  0  0
   -0.9286   -0.6325    0.3755 C   0  0  0  0  0  0  0  0  0  0  0  0
   -3.4350   -1.1417    0.2685 C   0  0  0  0  0  0  0  0  0  0  0  0
   -2.2370   -0.3097    0.0828 C   0  0  0  0  0  0  0  0  0  0  0  0
    0.0925    0.2976    0.1345 C   0  0  0  0  0  0  0  0  0  0  0  0
   -4.6047   -0.4971   -0.1224 C   0  0  0  0  0  0  0  0  0  0  0  0
   -2.5251    0.9428   -0.4495 C   0  0  0  0  0  0  0  0  0  0  0  0
    5.6799    1.0790   -0.0541 C   0  0  0  0  0  0  0  0  0  0  0  0
    4.7946   -1.0827   -0.9929 C   0  0  0  0  0  0  0  0  0  0  0  0
    4.8337    0.8180    1.1898 C   0  0  0  0  0  0  0  0  0  0  0  0
    3.9756   -1.2547    0.2865 C   0  0  0  0  0  0  0  0  0  0  0  0
    6.0132   -0.2276   -0.7345 C   0  0  2  0  0  0  0  0  0  0  0  0
    3.6489    0.0418    0.8626 N   0  0  0  0  0  0  0  0  0  0  0  0
    1.3844   -0.1120    0.4194 N   0  0  0  0  0  0  0  0  0  0  0  0
    2.3609    1.9105    0.7975 O   0  0  0  0  0  0  0  0  0  0  0  0
    6.8952   -0.9321    0.0513 F   0  0  0  0  0  0  0  0  0  0  0  0
   -4.2570    1.1370   -0.7165 S   0  0  1  0  0  0  0  0  0  0  0  0
   -4.8375   -4.0486    1.2426 H   0  0  0  0  0  0  0  0  0  0  0  0
   -6.8807   -2.8673    0.5427 H   0  0  0  0  0  0  0  0  0  0  0  0
   -2.6301   -2.9681    1.0744 H   0  0  0  0  0  0  0  0  0  0  0  0
   -6.7449   -0.5550   -0.3492 H   0  0  0  0  0  0  0  0  0  0  0  0
    0.5506    2.2643   -0.6379 H   0  0  0  0  0  0  0  0  0  0  0  0
   -1.7716    2.8353   -1.1370 H   0  0  0  0  0  0  0  0  0  0  0  0
   -0.6819   -1.6006    0.7947 H   0  0  0  0  0  0  0  0  0  0  0  0
    1.4660   -1.0851    0.6659 H   0  0  0  0  0  0  0  0  0  0  0  0
    5.1220    1.7083   -0.7511 H   0  0  0  0  0  0  0  0  0  0  0  0
    6.5952    1.6105    0.2160 H   0  0  0  0  0  0  0  0  0  0  0  0
    5.4104    0.2569    1.9294 H   0  0  0  0  0  0  0  0  0  0  0  0
    4.5470    1.7562    1.6547 H   0  0  0  0  0  0  0  0  0  0  0  0
    5.0935   -2.0599   -1.3786 H   0  0  0  0  0  0  0  0  0  0  0  0
    4.1793   -0.5979   -1.7540 H   0  0  0  0  0  0  0  0  0  0  0  0
    3.0895   -1.8397    0.0580 H   0  0  0  0  0  0  0  0  0  0  0  0
    4.5385   -1.8275    1.0260 H   0  0  0  0  0  0  0  0  0  0  0  0
   -4.5685    1.2530   -2.1360 O   0  0  0  0  0  0  0  0  0  0  0  0
    2.4679    0.7009    0.6872 C   0  0  0  0  0  0  0  0  0  0  0  0
   -4.8155    2.1426    0.1797 O   0  0  0  0  0  0  0  0  0  0  0  0
    6.6841    0.0034   -1.9050 F   0  0  0  0  0  0  0  0  0  0  0  0
  1  2  2  0
  1  3  1  0
  2  5  1  0
  3  8  2  0
  4  6  1  0
  4 10  2  0
  5 11  2  0
  6 12  2  0
  7  9  2  0
  7 10  1  0
  8  9  1  0
  8 11  1  0
  9 12  1  0
 10 19  1  0
 22 11  1  1
 12 22  1  0
 40 18  1  0
 40 19  1  0
 40 20  2  0
 13 15  1  0
 13 17  1  0
 14 16  1  0
 14 17  1  0
 15 18  1  0
 16 18  1  0
 17 42  1  6
 17 21  1  0
 39 22  2  0
 41 22  2  0
  1 23  1  0
  2 24  1  0
  3 25  1  0
  5 26  1  0
  4 27  1  0
  6 28  1  0
  7 29  1  0
 19 30  1  0
 13 31  1  0
 13 32  1  0
 15 33  1  0
 15 34  1  0
 14 35  1  0
 14 36  1  0
 16 37  1  0
 16 38  1  0
M  END
