
     RDKit          3D

 18 17  0  0  0  0  0  0  0  0999 V2000
    2.8123    0.2343    0.0009 C   0  0  0  0  0  0  0  0  0  0  0  0
    1.5641   -1.9153   -0.0573 N   0  0  0  0  0  0  0  0  0  0  0  0
    3.5557    0.0337    0.9652 O   0  0  0  0  0  0  0  0  0  0  0  0
    1.5345   -0.5101   -0.3798 C   0  0  1  0  0  0  0  0  0  0  0  0
    0.3510    0.2354    0.2621 C   0  0  0  0  0  0  0  0  0  0  0  0
   -3.5732    0.1217   -0.0886 C   0  0  0  0  0  0  0  0  0  0  0  0
   -2.1980    0.8230    0.3723 S   0  0  0  0  0  0  0  0  0  0  0  0
   -0.9625   -0.2818   -0.2655 C   0  0  0  0  0  0  0  0  0  0  0  0
   -4.5719   -0.3877   -0.4233 N   0  0  0  0  0  0  0  0  0  0  0  0
    3.1506    1.2408   -0.8472 O   0  0  0  0  0  0  0  0  0  0  0  0
    2.3861   -2.3484   -0.4325 H   0  0  0  0  0  0  0  0  0  0  0  0
    0.3892    0.1259    1.3781 H   0  0  0  0  0  0  0  0  0  0  0  0
    0.4645    1.3277    0.0179 H   0  0  0  0  0  0  0  0  0  0  0  0
   -0.9705   -0.2794   -1.3825 H   0  0  0  0  0  0  0  0  0  0  0  0
   -1.1452   -1.3312    0.0709 H   0  0  0  0  0  0  0  0  0  0  0  0
    3.9698    1.6662   -0.5425 H   0  0  0  0  0  0  0  0  0  0  0  0
    1.5349   -2.0626    0.9324 H   0  0  0  0  0  0  0  0  0  0  0  0
    1.4424   -0.4221   -1.5066 H   0  0  0  0  0  0  0  0  0  0  0  0
  1  4  1  0
  2 11  1  0
  3  1  2  0
  4  2  1  0
  4  5  1  0
  5  8  1  0
  5 12  1  0
  5 13  1  0
  6  9  3  0
  7  6  1  0
  8  7  1  0
  8 14  1  0
  8 15  1  0
 10  1  1  0
 10 16  1  0
  2 17  1  0
  4 18  1  6
M  END
