
     RDKit          3D

 46 48  0  0  0  0  0  0  0  0999 V2000
   -2.3137   -1.4493    0.7358 O   0  0  0  0  0  0  0  0  0  0  0  0
   -2.1590   -0.3052    0.3471 C   0  0  0  0  0  0  0  0  0  0  0  0
   -3.3416    0.6217    0.1172 C   0  0  0  0  0  0  0  0  0  0  0  0
   -4.6227   -0.0165    0.2625 N   0  0  0  0  0  0  0  0  0  0  0  0
   -4.9529   -0.8394   -0.8913 C   0  0  0  0  0  0  0  0  0  0  0  0
   -6.2539   -1.5963   -0.6725 C   0  0  0  0  0  0  0  0  0  0  0  0
   -7.3934   -0.6364   -0.3578 C   0  0  0  0  0  0  0  0  0  0  0  0
   -7.0023    0.2737    0.7994 C   0  0  0  0  0  0  0  0  0  0  0  0
   -5.6709    0.9567    0.5272 C   0  0  0  0  0  0  0  0  0  0  0  0
   -0.8452    0.2708    0.0964 C   0  0  0  0  0  0  0  0  0  0  0  0
   -0.5569    1.5876   -0.3808 C   0  0  0  0  0  0  0  0  0  0  0  0
    0.7951    1.7200   -0.4597 C   0  0  0  0  0  0  0  0  0  0  0  0
    1.6292    2.8654   -0.9078 C   0  0  0  0  0  0  0  0  0  0  0  0
    0.3704   -0.3670    0.2982 C   0  0  0  0  0  0  0  0  0  0  0  0
    0.6844   -1.7367    0.7849 C   0  0  0  0  0  0  0  0  0  0  0  0
    1.3453    0.5205   -0.0434 N   0  0  0  0  0  0  0  0  0  0  0  0
    2.7387    0.2607   -0.0093 C   0  0  0  0  0  0  0  0  0  0  0  0
    3.5192    0.8120    0.9969 C   0  0  0  0  0  0  0  0  0  0  0  0
    4.8838    0.5705    1.0289 C   0  0  0  0  0  0  0  0  0  0  0  0
    3.3172   -0.5380   -0.9858 C   0  0  0  0  0  0  0  0  0  0  0  0
    4.6793   -0.7924   -0.9570 C   0  0  0  0  0  0  0  0  0  0  0  0
    5.4500   -0.2326    0.0506 C   0  0  0  0  0  0  0  0  0  0  0  0
    7.1518   -0.5441    0.0890 Cl  0  0  0  0  0  0  0  0  0  0  0  0
   -3.2528    1.4253    0.8575 H   0  0  0  0  0  0  0  0  0  0  0  0
   -3.2233    1.1183   -0.8618 H   0  0  0  0  0  0  0  0  0  0  0  0
   -5.0397   -0.2195   -1.8029 H   0  0  0  0  0  0  0  0  0  0  0  0
   -4.1448   -1.5492   -1.0697 H   0  0  0  0  0  0  0  0  0  0  0  0
   -6.4783   -2.1896   -1.5616 H   0  0  0  0  0  0  0  0  0  0  0  0
   -6.1207   -2.2981    0.1563 H   0  0  0  0  0  0  0  0  0  0  0  0
   -7.6081   -0.0273   -1.2428 H   0  0  0  0  0  0  0  0  0  0  0  0
   -8.3095   -1.1835   -0.1246 H   0  0  0  0  0  0  0  0  0  0  0  0
   -7.7674    1.0346    0.9697 H   0  0  0  0  0  0  0  0  0  0  0  0
   -6.9233   -0.3129    1.7199 H   0  0  0  0  0  0  0  0  0  0  0  0
   -5.3798    1.5542    1.3946 H   0  0  0  0  0  0  0  0  0  0  0  0
   -5.7922    1.6611   -0.3159 H   0  0  0  0  0  0  0  0  0  0  0  0
   -1.2679    2.3562   -0.6414 H   0  0  0  0  0  0  0  0  0  0  0  0
    2.2084    3.3055   -0.0940 H   0  0  0  0  0  0  0  0  0  0  0  0
    2.3345    2.5808   -1.6909 H   0  0  0  0  0  0  0  0  0  0  0  0
    0.9855    3.6457   -1.3096 H   0  0  0  0  0  0  0  0  0  0  0  0
    0.5733   -2.4756   -0.0112 H   0  0  0  0  0  0  0  0  0  0  0  0
    1.7061   -1.8064    1.1544 H   0  0  0  0  0  0  0  0  0  0  0  0
    0.0130   -2.0268    1.5883 H   0  0  0  0  0  0  0  0  0  0  0  0
    3.0628    1.4249    1.7635 H   0  0  0  0  0  0  0  0  0  0  0  0
    5.4931    0.9994    1.8123 H   0  0  0  0  0  0  0  0  0  0  0  0
    2.7077   -0.9616   -1.7733 H   0  0  0  0  0  0  0  0  0  0  0  0
    5.1325   -1.4143   -1.7165 H   0  0  0  0  0  0  0  0  0  0  0  0
  6  5  1  0
  6  7  1  0
  5  4  1  0
  7  8  1  0
  3  4  1  0
  3  2  1  0
  4  9  1  0
  8  9  1  0
  2  1  2  0
  2 10  1  0
 11 10  1  0
 11 12  2  0
 10 14  2  0
 12 13  1  0
 12 16  1  0
 14 16  1  0
 14 15  1  0
 16 17  1  0
 20 17  1  0
 20 21  2  0
 17 18  2  0
 21 22  1  0
 18 19  1  0
 22 19  2  0
 22 23  1  0
  3 24  1  0
  3 25  1  0
  5 26  1  0
  5 27  1  0
  6 28  1  0
  6 29  1  0
  7 30  1  0
  7 31  1  0
  8 32  1  0
  8 33  1  0
  9 34  1  0
  9 35  1  0
 11 36  1  0
 13 37  1  0
 13 38  1  0
 13 39  1  0
 15 40  1  0
 15 41  1  0
 15 42  1  0
 18 43  1  0
 19 44  1  0
 20 45  1  0
 21 46  1  0
M  END
