
     RDKit          3D

 19 20  0  0  0  0  0  0  0  0999 V2000
   -1.8519    0.2127    0.0209 C   0  0  0  0  0  0  0  0  0  0  0  0
   -1.5276   -1.1601    0.0756 C   0  0  0  0  0  0  0  0  0  0  0  0
   -0.2232   -1.6091    0.0749 C   0  0  0  0  0  0  0  0  0  0  0  0
    0.7895   -0.6520    0.0182 C   0  0  0  0  0  0  0  0  0  0  0  0
    2.1480   -0.7905    0.0034 N   0  0  0  0  0  0  0  0  0  0  0  0
   -0.8349    1.1476   -0.0357 C   0  0  0  0  0  0  0  0  0  0  0  0
    0.5031    0.7285   -0.0375 C   0  0  0  0  0  0  0  0  0  0  0  0
    1.7601    1.4076   -0.0850 C   0  0  0  0  0  0  0  0  0  0  0  0
    2.7277    0.4435   -0.0578 C   0  0  0  0  0  0  0  0  0  0  0  0
   -3.2951    0.6338    0.0245 C   0  0  0  0  0  0  0  0  0  0  0  0
   -2.3311   -1.8860    0.1186 H   0  0  0  0  0  0  0  0  0  0  0  0
   -1.0704    2.2052   -0.0780 H   0  0  0  0  0  0  0  0  0  0  0  0
   -3.8113    0.2861    0.9214 H   0  0  0  0  0  0  0  0  0  0  0  0
   -3.3937    1.7184   -0.0129 H   0  0  0  0  0  0  0  0  0  0  0  0
   -3.8347    0.2232   -0.8311 H   0  0  0  0  0  0  0  0  0  0  0  0
    0.0013   -2.6676    0.1166 H   0  0  0  0  0  0  0  0  0  0  0  0
    2.6501   -1.6614    0.0401 H   0  0  0  0  0  0  0  0  0  0  0  0
    3.8012    0.5428   -0.0738 H   0  0  0  0  0  0  0  0  0  0  0  0
    1.9258    2.4720   -0.1350 H   0  0  0  0  0  0  0  0  0  0  0  0
  1  2  2  0
  1  6  1  0
  1 10  1  0
  2  3  1  0
  3  4  2  0
  4  5  1  0
  4  7  1  0
  5  9  1  0
  6  7  2  0
  7  8  1  0
  8  9  2  0
  2 11  1  0
  6 12  1  0
 10 13  1  0
 10 14  1  0
 10 15  1  0
  3 16  1  0
  5 17  1  0
  9 18  1  0
  8 19  1  0
M  END
