
     RDKit          3D

 21 20  0  0  0  0  0  0  0  0999 V2000
    1.2214    1.3811    0.8293 N   0  0  0  0  0  0  0  0  0  0  0  0
    1.5890    0.0378    0.4478 C   0  0  2  0  0  0  0  0  0  0  0  0
    2.9284    0.0534   -0.2769 C   0  0  0  0  0  0  0  0  0  0  0  0
    3.2986    0.7792   -1.2010 O   0  0  0  0  0  0  0  0  0  0  0  0
    0.6134   -0.7153   -0.4673 C   0  0  0  0  0  0  0  0  0  0  0  0
   -0.8747   -1.2197    0.3191 S   0  0  0  0  0  0  0  0  0  0  0  0
   -2.0330    0.5159    0.5967 S   0  0  0  0  0  0  0  0  0  0  0  0
   -4.0483   -0.4098   -1.0346 C   0  0  0  0  0  0  0  0  0  0  0  0
   -3.0678    0.7033   -0.8258 C   0  0  0  0  0  0  0  0  0  0  0  0
    3.8071   -0.8734    0.1878 O   0  0  0  0  0  0  0  0  0  0  0  0
    1.2489    2.0042    0.0451 H   0  0  0  0  0  0  0  0  0  0  0  0
    0.3076    1.3909    1.2428 H   0  0  0  0  0  0  0  0  0  0  0  0
    0.4166   -0.1244   -1.3945 H   0  0  0  0  0  0  0  0  0  0  0  0
    1.0809   -1.6912   -0.7715 H   0  0  0  0  0  0  0  0  0  0  0  0
   -3.5175   -1.3785   -1.2071 H   0  0  0  0  0  0  0  0  0  0  0  0
   -4.7146   -0.5271   -0.1458 H   0  0  0  0  0  0  0  0  0  0  0  0
   -4.6870   -0.1961   -1.9282 H   0  0  0  0  0  0  0  0  0  0  0  0
   -3.6021    1.6659   -0.6043 H   0  0  0  0  0  0  0  0  0  0  0  0
   -2.4482    0.8546   -1.7429 H   0  0  0  0  0  0  0  0  0  0  0  0
    4.6390   -0.8147   -0.3114 H   0  0  0  0  0  0  0  0  0  0  0  0
    1.7112   -0.5600    1.4037 H   0  0  0  0  0  0  0  0  0  0  0  0
  1  2  1  0
  1 11  1  0
  1 12  1  0
  2  3  1  0
  2  5  1  0
  3  4  2  0
  3 10  1  0
  5  6  1  0
  5 13  1  0
  5 14  1  0
  6  7  1  0
  7  9  1  0
  8  9  1  0
  8 15  1  0
  8 16  1  0
  8 17  1  0
  9 18  1  0
  9 19  1  0
 10 20  1  0
  2 21  1  1
M  END
