
     RDKit          3D

 27 26  0  0  0  0  0  0  0  0999 V2000
    0.4624   -0.1270    1.9880 C   0  0  0  0  0  0  0  0  0  0  0  0
   -0.7770    3.9097   -0.3939 O   0  0  0  0  0  0  0  0  0  0  0  0
   -1.4970   -1.2074   -0.1432 P   0  0  1  0  0  0  0  0  0  0  0  0
    0.4955    0.4982    0.5979 C   0  0  2  0  0  0  0  0  0  0  0  0
    3.8539   -0.5636   -0.6045 O   0  0  0  0  0  0  0  0  0  0  0  0
   -0.0918    1.9140    0.6728 C   0  0  0  0  0  0  0  0  0  0  0  0
    2.1266   -1.8573   -0.0533 O   0  0  0  0  0  0  0  0  0  0  0  0
   -0.3838    2.5816   -0.6621 C   0  0  0  0  0  0  0  0  0  0  0  0
   -0.2501   -0.2554   -0.3857 O   0  0  0  0  0  0  0  0  0  0  0  0
    1.9225    0.5595    0.0565 C   0  0  0  0  0  0  0  0  0  0  0  0
   -1.3149   -2.4309    0.6579 O   0  0  0  0  0  0  0  0  0  0  0  0
    2.6050   -0.7616   -0.1895 C   0  0  0  0  0  0  0  0  0  0  0  0
   -2.6559   -0.3150    0.5141 O   0  0  0  0  0  0  0  0  0  0  0  0
   -1.8647   -1.4064   -1.6849 O   0  0  0  0  0  0  0  0  0  0  0  0
    1.0873    0.4688    2.6537 H   0  0  0  0  0  0  0  0  0  0  0  0
   -0.5448   -0.1192    2.4051 H   0  0  0  0  0  0  0  0  0  0  0  0
    0.8345   -1.1475    1.9946 H   0  0  0  0  0  0  0  0  0  0  0  0
   -1.0024    4.3275   -1.2298 H   0  0  0  0  0  0  0  0  0  0  0  0
    4.2840   -1.4151   -0.7735 H   0  0  0  0  0  0  0  0  0  0  0  0
   -1.0097    1.8902    1.2671 H   0  0  0  0  0  0  0  0  0  0  0  0
    0.6144    2.5335    1.2327 H   0  0  0  0  0  0  0  0  0  0  0  0
   -1.1734    2.0364   -1.1923 H   0  0  0  0  0  0  0  0  0  0  0  0
    0.5010    2.5560   -1.3097 H   0  0  0  0  0  0  0  0  0  0  0  0
    1.9500    1.1141   -0.8858 H   0  0  0  0  0  0  0  0  0  0  0  0
    2.5368    1.1405    0.7493 H   0  0  0  0  0  0  0  0  0  0  0  0
   -2.9355    0.4611    0.0109 H   0  0  0  0  0  0  0  0  0  0  0  0
   -2.4834   -2.1325   -1.8411 H   0  0  0  0  0  0  0  0  0  0  0  0
  1  4  1  0
  1 15  1  0
  1 16  1  0
  1 17  1  0
  2  8  1  0
  2 18  1  0
 11  3  2  0
  3 13  1  1
 14  3  1  0
  3  9  1  0
  6  4  1  0
  4  9  1  6
  4 10  1  0
 12  5  1  0
  5 19  1  0
  8  6  1  0
  6 20  1  0
  6 21  1  0
  7 12  2  0
  8 22  1  0
  8 23  1  0
 10 12  1  0
 10 24  1  0
 10 25  1  0
 13 26  1  0
 14 27  1  0
M  END
