
     RDKit          3D

 37 40  0  0  0  0  0  0  0  0999 V2000
    2.8138    0.3558    0.2160 N   0  0  0  0  0  0  0  0  0  0  0  0
    0.4965   -1.0384    0.3650 N   0  0  0  0  0  0  0  0  0  0  0  0
   -0.4572   -2.0017    0.4314 N   0  0  0  0  0  0  0  0  0  0  0  0
   -2.4233    2.5363   -0.3386 N   0  0  0  0  0  0  0  0  0  0  0  0
   -2.2813   -3.2518    0.5031 O   0  0  0  0  0  0  0  0  0  0  0  0
   -4.9753   -0.1136   -0.0476 C   0  0  0  0  0  0  0  0  0  0  0  0
   -4.5278    1.1816   -0.2248 C   0  0  0  0  0  0  0  0  0  0  0  0
   -4.0819   -1.1731    0.1473 C   0  0  0  0  0  0  0  0  0  0  0  0
   -1.1029    2.2563   -0.2364 C   0  0  0  0  0  0  0  0  0  0  0  0
    5.1757    0.4135    0.7823 C   0  0  0  0  0  0  0  0  0  0  0  0
    4.4637   -1.0659   -0.8618 C   0  0  0  0  0  0  0  0  0  0  0  0
    3.8998    1.2217    0.6423 C   0  0  0  0  0  0  0  0  0  0  0  0
    3.1722   -0.2905   -1.0347 C   0  0  0  0  0  0  0  0  0  0  0  0
    1.5667    1.0695    0.1379 C   0  0  0  0  0  0  0  0  0  0  0  0
    5.5166   -0.2344   -0.4236 O   0  0  0  0  0  0  0  0  0  0  0  0
    0.3238    0.2062    0.1614 C   0  0  0  0  0  0  0  0  0  0  0  0
   -1.8205   -2.1273    0.3766 C   0  0  0  0  0  0  0  0  0  0  0  0
   -3.1523    1.3893   -0.1988 C   0  0  0  0  0  0  0  0  0  0  0  0
   -0.9288    0.9063   -0.0282 C   0  0  0  0  0  0  0  0  0  0  0  0
   -2.7118   -0.9644    0.1723 C   0  0  0  0  0  0  0  0  0  0  0  0
   -2.2373    0.3370   -0.0019 C   0  0  0  0  0  0  0  0  0  0  0  0
   -0.0200   -2.8979    0.5883 H   0  0  0  0  0  0  0  0  0  0  0  0
   -6.0379   -0.3152   -0.0603 H   0  0  0  0  0  0  0  0  0  0  0  0
   -5.2200    1.9997   -0.3756 H   0  0  0  0  0  0  0  0  0  0  0  0
   -4.4717   -2.1722    0.2818 H   0  0  0  0  0  0  0  0  0  0  0  0
   -0.3736    3.0458   -0.3169 H   0  0  0  0  0  0  0  0  0  0  0  0
    6.0073    1.0679    1.0484 H   0  0  0  0  0  0  0  0  0  0  0  0
    5.0487   -0.3210    1.5901 H   0  0  0  0  0  0  0  0  0  0  0  0
    4.2988   -1.8860   -0.1486 H   0  0  0  0  0  0  0  0  0  0  0  0
    4.7687   -1.5041   -1.8133 H   0  0  0  0  0  0  0  0  0  0  0  0
    4.0652    2.0546   -0.0627 H   0  0  0  0  0  0  0  0  0  0  0  0
    3.6553    1.6628    1.6118 H   0  0  0  0  0  0  0  0  0  0  0  0
    2.3869   -0.9844   -1.3338 H   0  0  0  0  0  0  0  0  0  0  0  0
    3.2898    0.4482   -1.8469 H   0  0  0  0  0  0  0  0  0  0  0  0
    1.5025    1.7491    0.9949 H   0  0  0  0  0  0  0  0  0  0  0  0
    1.5198    1.7171   -0.7549 H   0  0  0  0  0  0  0  0  0  0  0  0
   -2.8023    3.4576   -0.4866 H   0  0  0  0  0  0  0  0  0  0  0  0
 13  1  1  0
 12  1  1  0
  1 14  1  0
 16  2  2  0
  2  3  1  0
  3 17  1  0
  3 22  1  0
  9  4  1  0
  4 18  1  0
 17  5  2  0
  7  6  2  0
  6  8  1  0
  6 23  1  0
 18  7  1  0
  7 24  1  0
 20  8  2  0
  8 25  1  0
  9 19  2  0
  9 26  1  0
 15 10  1  0
 10 12  1  0
 10 27  1  0
 10 28  1  0
 15 11  1  0
 11 13  1  0
 11 29  1  0
 11 30  1  0
 12 31  1  0
 12 32  1  0
 13 33  1  0
 13 34  1  0
 14 16  1  0
 14 35  1  0
 14 36  1  0
 16 19  1  0
 20 17  1  0
 18 21  2  0
 19 21  1  0
 21 20  1  0
  4 37  1  0
M  END
