
     RDKit          3D

 61 61  0  0  0  0  0  0  0  0999 V2000
   -3.6200   -0.1176   -0.8491 O   0  0  0  0  0  0  0  0  0  0  0  0
   -3.1491    0.2258    0.2049 C   0  0  0  0  0  0  0  0  0  0  0  0
   -3.0548    1.4849    0.6018 O   0  0  0  0  0  0  0  0  0  0  0  0
   -3.4877    2.5165   -0.2951 C   0  0  0  0  0  0  0  0  0  0  0  0
   -3.3708    3.8386    0.4325 C   0  0  0  0  0  0  0  0  0  0  0  0
   -3.7254    5.0117   -0.4735 C   0  0  0  0  0  0  0  0  0  0  0  0
   -3.6560    6.3516    0.2492 C   0  0  0  0  0  0  0  0  0  0  0  0
   -3.9664    7.5303   -0.6620 C   0  0  0  0  0  0  0  0  0  0  0  0
   -2.6622   -0.7218    1.2753 C   0  0  0  0  0  0  0  0  0  0  0  0
   -2.2416   -2.0484    0.7084 C   0  0  0  0  0  0  0  0  0  0  0  0
   -3.1127   -3.1169    0.8181 C   0  0  0  0  0  0  0  0  0  0  0  0
   -2.7655   -4.3628    0.2968 C   0  0  0  0  0  0  0  0  0  0  0  0
   -3.6545   -5.3586    0.4258 O   0  0  0  0  0  0  0  0  0  0  0  0
   -0.9839   -2.2156    0.1096 C   0  0  0  0  0  0  0  0  0  0  0  0
   -0.6607   -3.4665   -0.4287 C   0  0  0  0  0  0  0  0  0  0  0  0
    0.5092   -3.5814   -1.0782 O   0  0  0  0  0  0  0  0  0  0  0  0
   -1.5432   -4.5367   -0.3373 C   0  0  0  0  0  0  0  0  0  0  0  0
   -0.0403   -1.0699    0.0014 C   0  0  0  0  0  0  0  0  0  0  0  0
   -0.4262    0.0018   -0.4208 O   0  0  0  0  0  0  0  0  0  0  0  0
    1.3577   -1.2249    0.5495 C   0  0  0  0  0  0  0  0  0  0  0  0
    2.4212   -0.4461   -0.2143 C   0  0  0  0  0  0  0  0  0  0  0  0
    3.7672   -0.4487    0.4985 C   0  0  0  0  0  0  0  0  0  0  0  0
    4.8370    0.3247   -0.2616 C   0  0  0  0  0  0  0  0  0  0  0  0
    6.1578    0.4278    0.4901 C   0  0  0  0  0  0  0  0  0  0  0  0
    7.2203    1.2103   -0.2707 C   0  0  0  0  0  0  0  0  0  0  0  0
    8.5252    1.3683    0.5001 C   0  0  0  0  0  0  0  0  0  0  0  0
    9.5745    2.1554   -0.2725 C   0  0  0  0  0  0  0  0  0  0  0  0
   -2.8575    2.5070   -1.1886 H   0  0  0  0  0  0  0  0  0  0  0  0
   -4.5185    2.3345   -0.6084 H   0  0  0  0  0  0  0  0  0  0  0  0
   -4.0310    3.8341    1.3050 H   0  0  0  0  0  0  0  0  0  0  0  0
   -2.3496    3.9635    0.8043 H   0  0  0  0  0  0  0  0  0  0  0  0
   -3.0451    5.0277   -1.3317 H   0  0  0  0  0  0  0  0  0  0  0  0
   -4.7316    4.8732   -0.8834 H   0  0  0  0  0  0  0  0  0  0  0  0
   -4.3552    6.3447    1.0907 H   0  0  0  0  0  0  0  0  0  0  0  0
   -2.6595    6.4765    0.6837 H   0  0  0  0  0  0  0  0  0  0  0  0
   -4.9643    7.4428   -1.0960 H   0  0  0  0  0  0  0  0  0  0  0  0
   -3.9254    8.4758   -0.1201 H   0  0  0  0  0  0  0  0  0  0  0  0
   -3.2538    7.5913   -1.4867 H   0  0  0  0  0  0  0  0  0  0  0  0
   -1.8693   -0.2519    1.8583 H   0  0  0  0  0  0  0  0  0  0  0  0
   -3.4934   -0.8721    1.9711 H   0  0  0  0  0  0  0  0  0  0  0  0
   -4.0707   -2.9929    1.3079 H   0  0  0  0  0  0  0  0  0  0  0  0
   -3.3184   -6.1714    0.0305 H   0  0  0  0  0  0  0  0  0  0  0  0
    0.6401   -4.4843   -1.3906 H   0  0  0  0  0  0  0  0  0  0  0  0
   -1.2798   -5.4963   -0.7707 H   0  0  0  0  0  0  0  0  0  0  0  0
    1.2899   -0.8455    1.5784 H   0  0  0  0  0  0  0  0  0  0  0  0
    1.6357   -2.2733    0.6453 H   0  0  0  0  0  0  0  0  0  0  0  0
    2.5343   -0.8747   -1.2150 H   0  0  0  0  0  0  0  0  0  0  0  0
    2.0922    0.5862   -0.3542 H   0  0  0  0  0  0  0  0  0  0  0  0
    3.6434   -0.0121    1.4959 H   0  0  0  0  0  0  0  0  0  0  0  0
    4.1035   -1.4787    0.6582 H   0  0  0  0  0  0  0  0  0  0  0  0
    5.0072   -0.1482   -1.2352 H   0  0  0  0  0  0  0  0  0  0  0  0
    4.4667    1.3332   -0.4779 H   0  0  0  0  0  0  0  0  0  0  0  0
    5.9816    0.9053    1.4607 H   0  0  0  0  0  0  0  0  0  0  0  0
    6.5346   -0.5767    0.7128 H   0  0  0  0  0  0  0  0  0  0  0  0
    7.4224    0.7153   -1.2274 H   0  0  0  0  0  0  0  0  0  0  0  0
    6.8283    2.2023   -0.5229 H   0  0  0  0  0  0  0  0  0  0  0  0
    8.3211    1.8653    1.4537 H   0  0  0  0  0  0  0  0  0  0  0  0
    8.9203    0.3795    0.7534 H   0  0  0  0  0  0  0  0  0  0  0  0
   10.4966    2.2674    0.2990 H   0  0  0  0  0  0  0  0  0  0  0  0
    9.8261    1.6590   -1.2116 H   0  0  0  0  0  0  0  0  0  0  0  0
    9.2134    3.1560   -0.5179 H   0  0  0  0  0  0  0  0  0  0  0  0
 26 27  1  0
 26 25  1  0
 23 24  1  0
 23 22  1  0
 24 25  1  0
 22 21  1  0
 21 20  1  0
 20 18  1  0
  9 10  1  0
  9  2  1  0
  6  7  1  0
  6  5  1  0
 11 10  2  0
 11 12  1  0
 10 14  1  0
  4  3  1  0
  4  5  1  0
 13 12  1  0
 12 17  2  0
 14 18  1  0
 14 15  2  0
  7  8  1  0
 18 19  2  0
  3  2  1  0
 17 15  1  0
 15 16  1  0
  2  1  2  0
  4 28  1  0
  4 29  1  0
  5 30  1  0
  5 31  1  0
  6 32  1  0
  6 33  1  0
  7 34  1  0
  7 35  1  0
  8 36  1  0
  8 37  1  0
  8 38  1  0
  9 39  1  0
  9 40  1  0
 11 41  1  0
 13 42  1  0
 16 43  1  0
 17 44  1  0
 20 45  1  0
 20 46  1  0
 21 47  1  0
 21 48  1  0
 22 49  1  0
 22 50  1  0
 23 51  1  0
 23 52  1  0
 24 53  1  0
 24 54  1  0
 25 55  1  0
 25 56  1  0
 26 57  1  0
 26 58  1  0
 27 59  1  0
 27 60  1  0
 27 61  1  0
M  END
