
     RDKit          3D

 25 24  0  0  0  0  0  0  0  0999 V2000
    0.6024    1.9210    0.3102 N   0  0  0  0  0  0  0  0  0  0  0  0
    0.4159    0.5045    0.5581 C   0  0  1  0  0  0  0  0  0  0  0  0
   -0.7929   -0.2026   -0.1505 C   0  0  1  0  0  0  0  0  0  0  0  0
   -0.8927    0.2513   -1.5995 C   0  0  0  0  0  0  0  0  0  0  0  0
   -0.5764   -1.7114   -0.1097 C   0  0  0  0  0  0  0  0  0  0  0  0
   -2.0497    0.1621    0.6562 C   0  0  0  0  0  0  0  0  0  0  0  0
   -3.3783   -0.0612   -0.0263 C   0  0  0  0  0  0  0  0  0  0  0  0
    1.7213   -0.2021    0.2178 C   0  0  0  0  0  0  0  0  0  0  0  0
    2.3195   -0.2705   -0.8584 O   0  0  0  0  0  0  0  0  0  0  0  0
    2.2857   -0.8389    1.2802 O   0  0  0  0  0  0  0  0  0  0  0  0
    1.1252    2.0768   -0.5315 H   0  0  0  0  0  0  0  0  0  0  0  0
   -0.2754    2.3987    0.2588 H   0  0  0  0  0  0  0  0  0  0  0  0
    0.2569    0.3867    1.6747 H   0  0  0  0  0  0  0  0  0  0  0  0
    0.1263    0.3048   -2.0584 H   0  0  0  0  0  0  0  0  0  0  0  0
   -1.5038   -0.4705   -2.1940 H   0  0  0  0  0  0  0  0  0  0  0  0
   -1.3691    1.2590   -1.6744 H   0  0  0  0  0  0  0  0  0  0  0  0
   -0.1870   -2.0238    0.8886 H   0  0  0  0  0  0  0  0  0  0  0  0
   -1.5340   -2.2508   -0.3008 H   0  0  0  0  0  0  0  0  0  0  0  0
    0.1507   -2.0305   -0.8970 H   0  0  0  0  0  0  0  0  0  0  0  0
   -2.0381   -0.4315    1.6095 H   0  0  0  0  0  0  0  0  0  0  0  0
   -1.9912    1.2448    0.9467 H   0  0  0  0  0  0  0  0  0  0  0  0
   -3.6068    0.7613   -0.7468 H   0  0  0  0  0  0  0  0  0  0  0  0
   -3.3943   -1.0305   -0.5809 H   0  0  0  0  0  0  0  0  0  0  0  0
   -4.1922   -0.0903    0.7396 H   0  0  0  0  0  0  0  0  0  0  0  0
    3.1121   -1.2683    1.0017 H   0  0  0  0  0  0  0  0  0  0  0  0
  1  2  1  0
  2  3  1  0
  2  8  1  0
  3  4  1  6
  3  5  1  0
  3  6  1  0
  6  7  1  0
  8  9  2  0
  8 10  1  0
  1 11  1  0
  1 12  1  0
  2 13  1  1
  4 14  1  0
  4 15  1  0
  4 16  1  0
  5 17  1  0
  5 18  1  0
  5 19  1  0
  6 20  1  0
  6 21  1  0
  7 22  1  0
  7 23  1  0
  7 24  1  0
 10 25  1  0
M  END
