
     RDKit          3D

 29 30  0  0  0  0  0  0  0  0999 V2000
   -4.1054   -0.5601    0.1238 N   0  0  0  0  0  0  0  0  0  0  0  0
   -4.1736    1.1521    1.6382 N   0  0  0  0  0  0  0  0  0  0  0  0
   -3.3906   -1.3382   -0.6736 C   0  0  0  0  0  0  0  0  0  0  0  0
   -4.1267   -2.3552   -1.4852 C   0  0  0  0  0  0  0  0  0  0  0  0
    0.0385    0.0214   -0.0598 C   0  0  0  0  0  0  0  0  0  0  0  0
    0.6072    1.2390   -0.4108 C   0  0  0  0  0  0  0  0  0  0  0  0
    1.9855    1.3949   -0.4344 C   0  0  0  0  0  0  0  0  0  0  0  0
    2.2617   -0.9091    0.2556 C   0  0  0  0  0  0  0  0  0  0  0  0
    0.8782   -1.0422    0.2640 C   0  0  0  0  0  0  0  0  0  0  0  0
   -2.0080   -1.1963   -0.7800 C   0  0  0  0  0  0  0  0  0  0  0  0
    2.7996    0.3327   -0.0975 C   0  0  0  0  0  0  0  0  0  0  0  0
   -1.4271   -0.1960   -0.0168 C   0  0  0  0  0  0  0  0  0  0  0  0
   -3.4464    0.3724    0.8241 C   0  0  0  0  0  0  0  0  0  0  0  0
    2.6149   -3.1529    0.9231 C   0  0  0  0  0  0  0  0  0  0  0  0
   -2.1283    0.5884    0.7867 N   0  0  0  0  0  0  0  0  0  0  0  0
    3.1247   -1.8795    0.5640 O   0  0  0  0  0  0  0  0  0  0  0  0
   -0.3718    2.5809   -0.8938 Cl  0  0  0  0  0  0  0  0  0  0  0  0
    4.5122    0.5276   -0.1169 Cl  0  0  0  0  0  0  0  0  0  0  0  0
   -5.1689    1.0353    1.6997 H   0  0  0  0  0  0  0  0  0  0  0  0
   -3.7354    1.8814    2.1716 H   0  0  0  0  0  0  0  0  0  0  0  0
   -4.4013   -1.9276   -2.4519 H   0  0  0  0  0  0  0  0  0  0  0  0
   -3.5137   -3.2335   -1.6801 H   0  0  0  0  0  0  0  0  0  0  0  0
   -5.0443   -2.6612   -0.9867 H   0  0  0  0  0  0  0  0  0  0  0  0
    2.4243    2.3410   -0.7194 H   0  0  0  0  0  0  0  0  0  0  0  0
    0.4236   -1.9833    0.5435 H   0  0  0  0  0  0  0  0  0  0  0  0
   -1.4224   -1.8242   -1.4362 H   0  0  0  0  0  0  0  0  0  0  0  0
    2.0060   -3.1034    1.8289 H   0  0  0  0  0  0  0  0  0  0  0  0
    2.0231   -3.5935    0.1175 H   0  0  0  0  0  0  0  0  0  0  0  0
    3.4788   -3.7833    1.1139 H   0  0  0  0  0  0  0  0  0  0  0  0
  1 13  2  0
  1  3  1  0
  2 13  1  0
  2 19  1  0
  2 20  1  0
  4  3  1  0
  3 10  2  0
  4 21  1  0
  4 22  1  0
  4 23  1  0
  6  5  2  0
 12  5  1  0
  5  9  1  0
 17  6  1  0
  6  7  1  0
  7 11  2  0
  7 24  1  0
 11  8  1  0
  9  8  2  0
  8 16  1  0
  9 25  1  0
 10 12  1  0
 10 26  1  0
 11 18  1  0
 15 12  2  0
 13 15  1  0
 16 14  1  0
 14 27  1  0
 14 28  1  0
 14 29  1  0
M  END
