
     RDKit          3D

 29 28  0  0  0  0  0  0  0  0999 V2000
    4.8312   -0.8110    1.1241 O   0  0  0  0  0  0  0  0  0  0  0  0
    4.7375    0.0926    0.3231 C   0  0  0  0  0  0  0  0  0  0  0  0
    5.9270    0.9105   -0.1028 C   0  0  0  0  0  0  0  0  0  0  0  0
    3.4231    0.4735   -0.3090 C   0  0  0  0  0  0  0  0  0  0  0  0
    2.2232   -0.3389    0.1486 C   0  0  0  0  0  0  0  0  0  0  0  0
    0.9372    0.1113   -0.5343 C   0  0  0  0  0  0  0  0  0  0  0  0
   -0.2708   -0.7165   -0.1167 C   0  0  0  0  0  0  0  0  0  0  0  0
   -1.5612   -0.2480   -0.7945 C   0  0  0  0  0  0  0  0  0  0  0  0
   -2.6984   -1.1546   -0.4714 C   0  0  0  0  0  0  0  0  0  0  0  0
   -3.9135   -0.8945    0.0216 C   0  0  0  0  0  0  0  0  0  0  0  0
   -4.4470    0.4342    0.3636 C   0  0  0  0  0  0  0  0  0  0  0  0
   -5.6678    0.3306    0.8889 O   0  0  0  0  0  0  0  0  0  0  0  0
   -3.8982    1.5010    0.2074 O   0  0  0  0  0  0  0  0  0  0  0  0
    6.8425    0.5643    0.3722 H   0  0  0  0  0  0  0  0  0  0  0  0
    6.0463    0.8674   -1.1869 H   0  0  0  0  0  0  0  0  0  0  0  0
    5.7689    1.9606    0.1511 H   0  0  0  0  0  0  0  0  0  0  0  0
    3.2640    1.5416   -0.1205 H   0  0  0  0  0  0  0  0  0  0  0  0
    3.5457    0.4006   -1.3960 H   0  0  0  0  0  0  0  0  0  0  0  0
    2.3909   -1.3992   -0.0594 H   0  0  0  0  0  0  0  0  0  0  0  0
    2.1082   -0.2511    1.2324 H   0  0  0  0  0  0  0  0  0  0  0  0
    0.7552    1.1675   -0.3092 H   0  0  0  0  0  0  0  0  0  0  0  0
    1.0579    0.0479   -1.6212 H   0  0  0  0  0  0  0  0  0  0  0  0
   -0.0930   -1.7694   -0.3588 H   0  0  0  0  0  0  0  0  0  0  0  0
   -0.3938   -0.6670    0.9695 H   0  0  0  0  0  0  0  0  0  0  0  0
   -1.7709    0.7867   -0.5362 H   0  0  0  0  0  0  0  0  0  0  0  0
   -1.4139   -0.2848   -1.8806 H   0  0  0  0  0  0  0  0  0  0  0  0
   -2.4915   -2.2041   -0.6644 H   0  0  0  0  0  0  0  0  0  0  0  0
   -4.5841   -1.7281    0.1909 H   0  0  0  0  0  0  0  0  0  0  0  0
   -6.0086    1.2119    1.1011 H   0  0  0  0  0  0  0  0  0  0  0  0
  1  2  2  0
  2  3  1  0
  2  4  1  0
  4  5  1  0
  5  6  1  0
  6  7  1  0
  7  8  1  0
  8  9  1  0
  9 10  2  0
 10 11  1  0
 11 12  1  0
 11 13  2  0
  3 14  1  0
  3 15  1  0
  3 16  1  0
  4 17  1  0
  4 18  1  0
  5 19  1  0
  5 20  1  0
  6 21  1  0
  6 22  1  0
  7 23  1  0
  7 24  1  0
  8 25  1  0
  8 26  1  0
  9 27  1  0
 10 28  1  0
 12 29  1  0
M  END
