
     RDKit          3D

 36 37  0  0  0  0  0  0  0  0999 V2000
   -4.8292    2.7437    1.9134 C   0  0  0  0  0  0  0  0  0  0  0  0
   -3.9039   -3.2289   -1.9349 C   0  0  0  0  0  0  0  0  0  0  0  0
    4.3029    0.5695    0.1295 N   0  0  0  0  0  0  0  0  0  0  0  0
    3.7184   -2.4833    0.0145 Br  0  0  0  0  0  0  0  0  0  0  0  0
    2.4824    3.0857    0.1895 Br  0  0  0  0  0  0  0  0  0  0  0  0
   -1.2384   -0.7287    0.0177 C   0  0  0  0  0  0  0  0  0  0  0  0
   -6.4782   -0.5829    0.0035 C   0  0  0  0  0  0  0  0  0  0  0  0
   -5.9690    0.5247    0.6607 C   0  0  0  0  0  0  0  0  0  0  0  0
   -5.6464   -1.4936   -0.6248 C   0  0  0  0  0  0  0  0  0  0  0  0
    1.1406   -1.3476    0.0186 C   0  0  0  0  0  0  0  0  0  0  0  0
    0.6233    0.9754    0.0897 C   0  0  0  0  0  0  0  0  0  0  0  0
   -4.0112    1.7601    1.3119 O   0  0  0  0  0  0  0  0  0  0  0  0
    0.1722   -0.3451    0.0438 C   0  0  0  0  0  0  0  0  0  0  0  0
    2.9738    0.2734    0.0731 C   0  0  0  0  0  0  0  0  0  0  0  0
    2.4890   -1.0456    0.0351 C   0  0  0  0  0  0  0  0  0  0  0  0
    1.9713    1.2650    0.1080 C   0  0  0  0  0  0  0  0  0  0  0  0
   -3.7058   -0.1847    0.0627 C   0  0  0  0  0  0  0  0  0  0  0  0
   -4.5909    0.7186    0.6879 C   0  0  0  0  0  0  0  0  0  0  0  0
   -4.2667   -1.2963   -0.5965 C   0  0  0  0  0  0  0  0  0  0  0  0
   -4.1564    3.4949    2.3195 H   0  0  0  0  0  0  0  0  0  0  0  0
   -5.4952    3.2201    1.1897 H   0  0  0  0  0  0  0  0  0  0  0  0
   -5.4296    2.3321    2.7284 H   0  0  0  0  0  0  0  0  0  0  0  0
   -4.5435   -2.9134   -2.7629 H   0  0  0  0  0  0  0  0  0  0  0  0
   -3.0366   -3.7446   -2.3392 H   0  0  0  0  0  0  0  0  0  0  0  0
   -4.4613   -3.9231   -1.3015 H   0  0  0  0  0  0  0  0  0  0  0  0
    4.9497   -0.1296   -0.1974 H   0  0  0  0  0  0  0  0  0  0  0  0
    4.5864    1.4981   -0.1364 H   0  0  0  0  0  0  0  0  0  0  0  0
   -1.4063   -1.7956   -0.0459 H   0  0  0  0  0  0  0  0  0  0  0  0
   -2.0541    1.1755    0.1958 H   0  0  0  0  0  0  0  0  0  0  0  0
   -7.5484   -0.7418   -0.0180 H   0  0  0  0  0  0  0  0  0  0  0  0
   -6.6457    1.2130    1.1464 H   0  0  0  0  0  0  0  0  0  0  0  0
   -6.0812   -2.3446   -1.1288 H   0  0  0  0  0  0  0  0  0  0  0  0
    0.8256   -2.3831   -0.0156 H   0  0  0  0  0  0  0  0  0  0  0  0
   -0.0870    1.7911    0.1079 H   0  0  0  0  0  0  0  0  0  0  0  0
   -2.2754    0.1198    0.0873 C   0  0  0  0  0  0  0  0  0  0  0  0
   -3.4043   -2.1277   -1.2028 O   0  0  0  0  0  0  0  0  0  0  0  0
  1 12  1  0
  1 20  1  0
  1 21  1  0
  1 22  1  0
  2 36  1  0
  2 23  1  0
  2 24  1  0
  2 25  1  0
 14  3  1  0
  3 26  1  0
  3 27  1  0
 15  4  1  0
 16  5  1  0
 35  6  2  0
  6 13  1  0
  6 28  1  0
 17 35  1  0
 35 29  1  0
  7  8  2  0
  7  9  1  0
  7 30  1  0
  8 18  1  0
  8 31  1  0
  9 19  2  0
  9 32  1  0
 13 10  2  0
 10 15  1  0
 10 33  1  0
 13 11  1  0
 11 16  2  0
 11 34  1  0
 18 12  1  0
 19 36  1  0
 15 14  2  0
 16 14  1  0
 18 17  2  0
 19 17  1  0
M  END
