
     RDKit          3D

 42 43  0  0  0  0  0  0  0  0999 V2000
    5.1961   -2.8091   -3.4781 C   0  0  0  0  0  0  0  0  0  0  0  0
    2.0110   -1.0166   -0.0813 C   0  0  0  0  0  0  0  0  0  0  0  0
    4.0739   -3.5332   -3.0929 C   0  0  0  0  0  0  0  0  0  0  0  0
    3.0136   -1.5595    0.7032 C   0  0  0  0  0  0  0  0  0  0  0  0
    3.0431   -2.9112   -2.4074 C   0  0  0  0  0  0  0  0  0  0  0  0
    2.8958   -1.6202    2.0896 C   0  0  0  0  0  0  0  0  0  0  0  0
    3.1035   -1.5575   -2.0900 C   0  0  0  0  0  0  0  0  0  0  0  0
    1.7338   -1.1157    2.6788 C   0  0  0  0  0  0  0  0  0  0  0  0
    4.2333   -0.8435   -2.4782 C   0  0  0  0  0  0  0  0  0  0  0  0
    0.7345   -0.5594    1.8837 C   0  0  0  0  0  0  0  0  0  0  0  0
    5.2657   -1.4545   -3.1706 C   0  0  0  0  0  0  0  0  0  0  0  0
    0.8647   -0.5085    0.5067 C   0  0  0  0  0  0  0  0  0  0  0  0
    6.3403   -3.4905   -4.1751 C   0  0  0  0  0  0  0  0  0  0  0  0
    7.4261   -3.8740   -3.1747 C   0  0  0  0  0  0  0  0  0  0  0  0
    1.5253   -3.8958   -1.9027 Br  0  0  0  0  0  0  0  0  0  0  0  0
    3.9941   -2.2615    2.9092 C   0  0  2  0  0  0  0  0  0  0  0  0
    4.3380    0.9836   -2.0542 Br  0  0  0  0  0  0  0  0  0  0  0  0
    2.0820   -0.9384   -1.4555 O   0  0  0  0  0  0  0  0  0  0  0  0
    1.6107   -1.1872    4.0251 O   0  0  0  0  0  0  0  0  0  0  0  0
    8.5849   -4.5916   -3.8102 C   0  0  0  0  0  0  0  0  0  0  0  0
    5.3726   -1.6869    2.5862 C   0  0  0  0  0  0  0  0  0  0  0  0
    9.4951   -4.9491   -2.9110 O   0  0  0  0  0  0  0  0  0  0  0  0
    8.6945   -4.8227   -4.9884 O   0  0  0  0  0  0  0  0  0  0  0  0
    3.9802   -3.7808    2.7260 C   0  0  0  0  0  0  0  0  0  0  0  0
    4.0069   -4.5863   -3.3347 H   0  0  0  0  0  0  0  0  0  0  0  0
    6.1320   -0.8797   -3.4738 H   0  0  0  0  0  0  0  0  0  0  0  0
    5.9768   -4.3828   -4.6865 H   0  0  0  0  0  0  0  0  0  0  0  0
    6.7552   -2.8310   -4.9389 H   0  0  0  0  0  0  0  0  0  0  0  0
    3.9104   -1.9568    0.2442 H   0  0  0  0  0  0  0  0  0  0  0  0
    0.0778   -0.0783   -0.0992 H   0  0  0  0  0  0  0  0  0  0  0  0
    3.8008   -2.0559    3.9630 H   0  0  0  0  0  0  0  0  0  0  0  0
   -0.1634   -0.1616    2.3431 H   0  0  0  0  0  0  0  0  0  0  0  0
    0.7754   -0.7969    4.3034 H   0  0  0  0  0  0  0  0  0  0  0  0
    7.8125   -2.9853   -2.6660 H   0  0  0  0  0  0  0  0  0  0  0  0
    7.0138   -4.5089   -2.3853 H   0  0  0  0  0  0  0  0  0  0  0  0
    5.6841   -1.9067    1.5633 H   0  0  0  0  0  0  0  0  0  0  0  0
    6.1232   -2.1205    3.2489 H   0  0  0  0  0  0  0  0  0  0  0  0
    5.3969   -0.6047    2.7175 H   0  0  0  0  0  0  0  0  0  0  0  0
    3.0088   -4.2057    2.9818 H   0  0  0  0  0  0  0  0  0  0  0  0
    4.7309   -4.2504    3.3637 H   0  0  0  0  0  0  0  0  0  0  0  0
    4.2033   -4.0573    1.6932 H   0  0  0  0  0  0  0  0  0  0  0  0
   10.2297   -5.4064   -3.3467 H   0  0  0  0  0  0  0  0  0  0  0  0
  1  3  2  0
  1 11  1  0
  1 13  1  0
  2  4  2  0
  2 12  1  0
  2 18  1  0
  3  5  1  0
  3 25  1  0
  4  6  1  0
  4 29  1  0
  5  7  2  0
  5 15  1  0
  6  8  2  0
  6 16  1  0
  7  9  1  0
  7 18  1  0
  8 10  1  0
  8 19  1  0
  9 11  2  0
  9 17  1  0
 10 12  2  0
 10 32  1  0
 11 26  1  0
 12 30  1  0
 13 14  1  0
 13 27  1  0
 13 28  1  0
 14 20  1  0
 14 34  1  0
 14 35  1  0
 16 21  1  0
 16 24  1  0
 16 31  1  1
 19 33  1  0
 20 22  1  0
 20 23  2  0
 21 36  1  0
 21 37  1  0
 21 38  1  0
 22 42  1  0
 24 39  1  0
 24 40  1  0
 24 41  1  0
M  END
