
     RDKit          3D

 54 58  0  0  0  0  0  0  0  0999 V2000
   -3.3046    0.6635   -0.2430 C   0  0  0  0  0  0  0  0  0  0  0  0
   -2.1522    0.0848    0.3721 C   0  0  0  0  0  0  0  0  0  0  0  0
   -0.9922    0.3671   -0.2795 C   0  0  0  0  0  0  0  0  0  0  0  0
    0.3953   -0.1058    0.0625 C   0  0  1  0  0  0  0  0  0  0  0  0
   -0.0435   -2.2491    1.1830 C   0  0  0  0  0  0  0  0  0  0  0  0
    1.0746   -0.9057   -1.0487 C   0  0  1  0  0  0  0  0  0  0  0  0
    3.8451    0.9268    0.4146 C   0  0  0  0  0  0  0  0  0  0  0  0
    6.0999    0.6871    0.4993 C   0  0  0  0  0  0  0  0  0  0  0  0
    7.1215   -1.2334   -0.3972 C   0  0  0  0  0  0  0  0  0  0  0  0
    6.1870    1.9268    1.1460 C   0  0  0  0  0  0  0  0  0  0  0  0
    5.0186    2.5960    1.3842 C   0  0  0  0  0  0  0  0  0  0  0  0
   -4.6724    0.5044    0.2671 C   0  0  0  0  0  0  0  0  0  0  0  0
   -5.7622    0.5219   -0.5989 C   0  0  0  0  0  0  0  0  0  0  0  0
   -6.1987    0.1902    2.1252 C   0  0  0  0  0  0  0  0  0  0  0  0
   -4.9103    0.3347    1.6328 C   0  0  0  0  0  0  0  0  0  0  0  0
   -8.1596    0.4015   -1.0026 C   0  0  0  0  0  0  0  0  0  0  0  0
   -9.0529    0.4172   -1.7299 N   0  0  0  0  0  0  0  0  0  0  0  0
   -7.0541    0.3832   -0.0986 C   0  0  0  0  0  0  0  0  0  0  0  0
   -7.2838    0.2146    1.2662 C   0  0  0  0  0  0  0  0  0  0  0  0
   -2.9746    1.3811   -1.3571 C   0  0  0  0  0  0  0  0  0  0  0  0
   -1.2945    1.3584   -1.6606 S   0  0  0  0  0  0  0  0  0  0  0  0
    1.3944    1.0327    0.2869 C   0  0  0  0  0  0  0  0  0  0  0  0
    2.6669    0.3984    0.0355 N   0  0  0  0  0  0  0  0  0  0  0  0
    2.5602   -0.8613   -0.6724 C   0  0  0  0  0  0  0  0  0  0  0  0
    0.5460   -2.3050   -1.1910 C   0  0  0  0  0  0  0  0  0  0  0  0
    0.6405   -2.9036   -2.2421 O   0  0  0  0  0  0  0  0  0  0  0  0
   -0.0333   -2.8627   -0.0795 N   0  0  0  0  0  0  0  0  0  0  0  0
   -0.4120   -2.8110    2.2625 N   0  0  0  0  0  0  0  0  0  0  0  0
    0.4049   -0.9580    1.2211 N   0  0  0  0  0  0  0  0  0  0  0  0
    3.8323    2.1115    1.0205 N   0  0  0  0  0  0  0  0  0  0  0  0
    7.3791    2.4231    1.5106 F   0  0  0  0  0  0  0  0  0  0  0  0
    4.9382    0.2000    0.1430 N   0  0  0  0  0  0  0  0  0  0  0  0
    7.2169    0.0262    0.2656 O   0  0  0  0  0  0  0  0  0  0  0  0
   -2.2028   -0.5398    1.2533 H   0  0  0  0  0  0  0  0  0  0  0  0
   -1.6021   -4.2119    0.2437 H   0  0  0  0  0  0  0  0  0  0  0  0
   -0.6545   -4.4922   -1.2142 H   0  0  0  0  0  0  0  0  0  0  0  0
    0.0200   -4.9289    0.3551 H   0  0  0  0  0  0  0  0  0  0  0  0
    0.9330   -0.4103   -2.0109 H   0  0  0  0  0  0  0  0  0  0  0  0
    8.1400   -1.6031   -0.4725 H   0  0  0  0  0  0  0  0  0  0  0  0
    6.5157   -1.9387    0.1709 H   0  0  0  0  0  0  0  0  0  0  0  0
    6.6966   -1.1258   -1.3951 H   0  0  0  0  0  0  0  0  0  0  0  0
    5.0322    3.5591    1.8838 H   0  0  0  0  0  0  0  0  0  0  0  0
   -5.6127    0.6265   -1.6655 H   0  0  0  0  0  0  0  0  0  0  0  0
   -6.3569    0.0648    3.1875 H   0  0  0  0  0  0  0  0  0  0  0  0
   -4.0809    0.3307    2.3279 H   0  0  0  0  0  0  0  0  0  0  0  0
   -8.2914    0.1026    1.6418 H   0  0  0  0  0  0  0  0  0  0  0  0
   -3.6300    1.9455   -2.0033 H   0  0  0  0  0  0  0  0  0  0  0  0
    1.2060    1.8577   -0.4074 H   0  0  0  0  0  0  0  0  0  0  0  0
    1.3250    1.4344    1.2988 H   0  0  0  0  0  0  0  0  0  0  0  0
    2.8549   -1.7020   -0.0380 H   0  0  0  0  0  0  0  0  0  0  0  0
    3.1919   -0.8828   -1.5601 H   0  0  0  0  0  0  0  0  0  0  0  0
   -0.6446   -3.7881    2.1530 H   0  0  0  0  0  0  0  0  0  0  0  0
    0.2708   -0.5173    2.1195 H   0  0  0  0  0  0  0  0  0  0  0  0
   -0.5965   -4.2011   -0.1725 C   0  0  0  0  0  0  0  0  0  0  0  0
  9 33  1  0
 33  8  1  0
 20 21  1  0
 20  1  2  0
 21  3  1  0
  8 32  2  0
  8 10  1  0
 15 14  2  0
 15 12  1  0
 31 10  1  0
 14 19  1  0
 32  7  1  0
 10 11  2  0
  1 12  1  0
  1  2  1  0
 12 13  2  0
 22 23  1  0
 22  4  1  0
  3  2  2  0
  4  3  1  6
 19 18  2  0
  7 23  1  0
  7 30  2  0
 11 30  1  0
 13 18  1  0
 23 24  1  0
  4  6  1  0
  4 29  1  0
 18 16  1  0
  6 24  1  0
  6 25  1  0
 29  5  1  0
 16 17  3  0
 25 26  2  0
 25 27  1  0
  5 27  1  0
  5 28  2  0
 27 54  1  0
  2 34  1  0
 54 35  1  0
 54 36  1  0
 54 37  1  0
  6 38  1  6
  9 39  1  0
  9 40  1  0
  9 41  1  0
 11 42  1  0
 13 43  1  0
 14 44  1  0
 15 45  1  0
 19 46  1  0
 20 47  1  0
 22 48  1  0
 22 49  1  0
 24 50  1  0
 24 51  1  0
 28 52  1  0
 29 53  1  0
M  END
