
     RDKit          3D

 23 24  0  0  0  0  0  0  0  0999 V2000
   -0.1796    0.9277    0.0044 N   0  0  0  0  0  0  0  0  0  0  0  0
   -1.5437    0.9126   -0.0070 C   0  0  0  0  0  0  0  0  0  0  0  0
   -2.3468    1.9819    0.0047 N   0  0  0  0  0  0  0  0  0  0  0  0
   -3.6263    1.6669   -0.0156 C   0  0  0  0  0  0  0  0  0  0  0  0
   -4.1808    0.4560   -0.0423 N   0  0  0  0  0  0  0  0  0  0  0  0
   -3.3929   -0.6212   -0.0541 C   0  0  0  0  0  0  0  0  0  0  0  0
   -3.9570   -1.8385   -0.1144 N   0  0  0  0  0  0  0  0  0  0  0  0
   -2.0121   -0.3964   -0.0370 C   0  0  0  0  0  0  0  0  0  0  0  0
   -0.8861   -1.1838   -0.0458 N   0  0  0  0  0  0  0  0  0  0  0  0
    0.1683   -0.3358   -0.0201 C   0  0  0  0  0  0  0  0  0  0  0  0
    1.7890   -0.9642   -0.0237 S   0  0  0  0  0  0  0  0  0  0  0  0
    2.6921    0.6018    0.0077 C   0  0  0  0  0  0  0  0  0  0  0  0
    4.1673    0.2544   -0.0100 C   0  0  0  0  0  0  0  0  0  0  0  0
    4.5431   -0.9074   -0.0317 O   0  0  0  0  0  0  0  0  0  0  0  0
    4.9836    1.3107    0.0004 N   0  0  0  0  0  0  0  0  0  0  0  0
   -4.3273    2.4951   -0.0079 H   0  0  0  0  0  0  0  0  0  0  0  0
   -3.4234   -2.6677    0.0797 H   0  0  0  0  0  0  0  0  0  0  0  0
   -4.9523   -1.9082    0.0165 H   0  0  0  0  0  0  0  0  0  0  0  0
   -0.8403   -2.1909   -0.0705 H   0  0  0  0  0  0  0  0  0  0  0  0
    2.4386    1.1687    0.9041 H   0  0  0  0  0  0  0  0  0  0  0  0
    2.4274    1.2105   -0.8576 H   0  0  0  0  0  0  0  0  0  0  0  0
    5.9824    1.1823   -0.0114 H   0  0  0  0  0  0  0  0  0  0  0  0
    4.6364    2.2547    0.0137 H   0  0  0  0  0  0  0  0  0  0  0  0
  1  2  1  0
  1 10  2  0
  2  3  2  0
  2  8  1  0
  3  4  1  0
  4  5  2  0
  4 16  1  0
  5  6  1  0
  6  7  1  0
  6  8  2  0
  7 17  1  0
  7 18  1  0
  8  9  1  0
  9 10  1  0
  9 19  1  0
 10 11  1  0
 11 12  1  0
 12 13  1  0
 12 20  1  0
 12 21  1  0
 13 14  2  0
 13 15  1  0
 15 22  1  0
 15 23  1  0
M  END
