
     RDKit          3D

 52 56  0  0  0  0  0  0  0  0999 V2000
   -2.5733    0.8571   -0.2734 C   0  0  0  0  0  0  0  0  0  0  0  0
   -2.3640    0.1394    0.8793 N   0  0  0  0  0  0  0  0  0  0  0  0
   -2.4485    2.9096   -1.4074 O   0  0  0  0  0  0  0  0  0  0  0  0
   -5.3471   -4.6996   -0.3525 Cl  0  0  0  0  0  0  0  0  0  0  0  0
   -1.9901    2.1832   -0.5460 C   0  0  0  0  0  0  0  0  0  0  0  0
   -3.3432    0.1250   -1.1359 C   0  0  0  0  0  0  0  0  0  0  0  0
   -3.6328   -1.1054   -0.4844 C   0  0  0  0  0  0  0  0  0  0  0  0
   -3.0151   -1.0524    0.7835 C   0  0  0  0  0  0  0  0  0  0  0  0
   -4.3610   -2.2441   -0.8542 C   0  0  0  0  0  0  0  0  0  0  0  0
   -3.1222   -2.0964    1.7020 C   0  0  0  0  0  0  0  0  0  0  0  0
   -3.8459   -3.2063    1.3260 C   0  0  0  0  0  0  0  0  0  0  0  0
   -4.4510   -3.2678    0.0587 C   0  0  0  0  0  0  0  0  0  0  0  0
    1.2762    6.0682   -0.0064 C   0  0  0  0  0  0  0  0  0  0  0  0
    1.9249    4.8478   -0.1027 C   0  0  0  0  0  0  0  0  0  0  0  0
   -0.1046    6.1145    0.1336 C   0  0  0  0  0  0  0  0  0  0  0  0
   -0.8390    4.9415    0.1900 C   0  0  0  0  0  0  0  0  0  0  0  0
    2.8984    1.9892    0.4865 C   0  0  0  0  0  0  0  0  0  0  0  0
    3.5333    2.6788    1.2557 O   0  0  0  0  0  0  0  0  0  0  0  0
   -0.1950    3.7127    0.1049 C   0  0  0  0  0  0  0  0  0  0  0  0
   -0.9040    2.5034    0.2072 N   0  0  0  0  0  0  0  0  0  0  0  0
    1.1935    3.6668   -0.0565 C   0  0  0  0  0  0  0  0  0  0  0  0
    1.8028    2.4035   -0.1964 N   0  0  0  0  0  0  0  0  0  0  0  0
    3.2714    0.5685    0.2451 C   0  0  0  0  0  0  0  0  0  0  0  0
    4.4808    0.1342    0.3940 N   0  0  0  0  0  0  0  0  0  0  0  0
    2.1189   -0.6519   -0.1695 S   0  0  0  0  0  0  0  0  0  0  0  0
    3.3754   -1.8092   -0.1537 C   0  0  0  0  0  0  0  0  0  0  0  0
    4.5248   -3.8489   -0.6708 N   0  0  0  0  0  0  0  0  0  0  0  0
    3.2210   -3.2698   -0.4150 C   0  0  0  0  0  0  0  0  0  0  0  0
    5.4901   -3.4755    0.3503 C   0  0  0  0  0  0  0  0  0  0  0  0
    5.8199   -1.9891    0.2659 C   0  0  0  0  0  0  0  0  0  0  0  0
    4.5549   -1.2048    0.1679 C   0  0  0  0  0  0  0  0  0  0  0  0
    4.4212   -5.2828   -0.8293 C   0  0  0  0  0  0  0  0  0  0  0  0
   -1.9790    0.5010    1.7376 H   0  0  0  0  0  0  0  0  0  0  0  0
   -3.6383    0.4210   -2.1295 H   0  0  0  0  0  0  0  0  0  0  0  0
   -4.8382   -2.3105   -1.8229 H   0  0  0  0  0  0  0  0  0  0  0  0
   -2.6527   -2.0479    2.6757 H   0  0  0  0  0  0  0  0  0  0  0  0
   -3.9484   -4.0377    2.0096 H   0  0  0  0  0  0  0  0  0  0  0  0
    1.8514    6.9832   -0.0499 H   0  0  0  0  0  0  0  0  0  0  0  0
    2.9961    4.8149   -0.2392 H   0  0  0  0  0  0  0  0  0  0  0  0
   -0.6129    7.0663    0.2096 H   0  0  0  0  0  0  0  0  0  0  0  0
   -1.9104    4.9810    0.3270 H   0  0  0  0  0  0  0  0  0  0  0  0
   -0.4785    1.7865    0.7754 H   0  0  0  0  0  0  0  0  0  0  0  0
    1.4287    1.8067   -0.9207 H   0  0  0  0  0  0  0  0  0  0  0  0
    2.7168   -3.7388    0.4485 H   0  0  0  0  0  0  0  0  0  0  0  0
    2.5762   -3.4395   -1.2810 H   0  0  0  0  0  0  0  0  0  0  0  0
    5.1251   -3.7165    1.3627 H   0  0  0  0  0  0  0  0  0  0  0  0
    6.3997   -4.0568    0.1948 H   0  0  0  0  0  0  0  0  0  0  0  0
    6.3893   -1.6811    1.1447 H   0  0  0  0  0  0  0  0  0  0  0  0
    6.4502   -1.7934   -0.6059 H   0  0  0  0  0  0  0  0  0  0  0  0
    3.7190   -5.5184   -1.6303 H   0  0  0  0  0  0  0  0  0  0  0  0
    5.3919   -5.6967   -1.1028 H   0  0  0  0  0  0  0  0  0  0  0  0
    4.0771   -5.7990    0.0799 H   0  0  0  0  0  0  0  0  0  0  0  0
  1  2  1  0
  1  5  1  0
  1  6  2  0
  2  8  1  0
  3  5  2  0
  4 12  1  0
  5 20  1  0
  6  7  1  0
  7  8  2  0
  7  9  1  0
  8 10  1  0
  9 12  2  0
 10 11  2  0
 11 12  1  0
 13 14  2  0
 13 15  1  0
 14 21  1  0
 15 16  2  0
 16 19  1  0
 17 18  2  0
 17 22  1  0
 17 23  1  0
 19 20  1  0
 19 21  2  0
 21 22  1  0
 23 24  2  0
 23 25  1  0
 24 31  1  0
 25 26  1  0
 26 28  1  0
 26 31  2  0
 27 28  1  0
 27 29  1  0
 27 32  1  0
 29 30  1  0
 30 31  1  0
  2 33  1  0
  6 34  1  0
  9 35  1  0
 10 36  1  0
 11 37  1  0
 13 38  1  0
 14 39  1  0
 15 40  1  0
 16 41  1  0
 20 42  1  0
 22 43  1  0
 28 44  1  0
 28 45  1  0
 29 46  1  0
 29 47  1  0
 30 48  1  0
 30 49  1  0
 32 50  1  0
 32 51  1  0
 32 52  1  0
M  END
