
     RDKit          3D

 20 21  0  0  0  0  0  0  0  0999 V2000
   -2.6351    0.3304    0.0083 C   0  0  0  0  0  0  0  0  0  0  0  0
   -3.4562   -0.7138   -0.0054 O   0  0  0  0  0  0  0  0  0  0  0  0
   -1.2080   -0.0460    0.0100 C   0  0  0  0  0  0  0  0  0  0  0  0
   -3.0326    1.4737    0.0189 O   0  0  0  0  0  0  0  0  0  0  0  0
   -0.7881   -1.3778    0.0123 C   0  0  0  0  0  0  0  0  0  0  0  0
    2.8054   -0.8287    0.0271 O   0  0  0  0  0  0  0  0  0  0  0  0
    0.5591   -1.7111    0.0195 C   0  0  0  0  0  0  0  0  0  0  0  0
    1.4765   -0.6727    0.0215 C   0  0  0  0  0  0  0  0  0  0  0  0
    3.4160    0.4683    0.2095 C   0  0  0  0  0  0  0  0  0  0  0  0
    2.3160    1.5121   -0.0375 C   0  0  0  0  0  0  0  0  0  0  0  0
    1.0807    0.6620    0.0135 C   0  0  0  0  0  0  0  0  0  0  0  0
   -0.2550    0.9826    0.0067 C   0  0  0  0  0  0  0  0  0  0  0  0
   -4.3752   -0.4085   -0.0096 H   0  0  0  0  0  0  0  0  0  0  0  0
   -1.5126   -2.1800    0.0139 H   0  0  0  0  0  0  0  0  0  0  0  0
    0.8754   -2.7456    0.0259 H   0  0  0  0  0  0  0  0  0  0  0  0
    3.7982    0.5214    1.2305 H   0  0  0  0  0  0  0  0  0  0  0  0
    4.2516    0.5480   -0.4826 H   0  0  0  0  0  0  0  0  0  0  0  0
    2.3286    2.2956    0.7196 H   0  0  0  0  0  0  0  0  0  0  0  0
    2.4207    1.9930   -1.0122 H   0  0  0  0  0  0  0  0  0  0  0  0
   -0.5717    2.0175   -0.0031 H   0  0  0  0  0  0  0  0  0  0  0  0
  4  1  2  0
  1  2  1  0
  1  3  1  0
  2 13  1  0
  5  3  2  0
  3 12  1  0
  5  7  1  0
  5 14  1  0
  8  6  1  0
  6  9  1  0
  7  8  2  0
  7 15  1  0
  8 11  1  0
 10  9  1  0
  9 16  1  0
  9 17  1  0
 11 10  1  0
 10 18  1  0
 10 19  1  0
 12 11  2  0
 12 20  1  0
M  END
