
     RDKit          3D

 39 40  0  0  0  0  0  0  0  0999 V2000
    2.4127   -0.6177   -0.3886 C   0  0  0  0  0  0  0  0  0  0  0  0
    2.7314    0.6722   -0.1916 N   0  0  0  0  0  0  0  0  0  0  0  0
    3.9679    1.1231    0.4283 C   0  0  2  0  0  0  0  0  0  0  0  0
    4.2345    2.5560    0.0007 C   0  0  0  0  0  0  0  0  0  0  0  0
    3.1302    3.3369    0.3998 O   0  0  0  0  0  0  0  0  0  0  0  0
    5.1176    0.1995    0.0489 C   0  0  1  0  0  0  0  0  0  0  0  0
    6.2295    0.5806    0.8133 O   0  0  0  0  0  0  0  0  0  0  0  0
    4.7239   -1.2474    0.3178 C   0  0  2  0  0  0  0  0  0  0  0  0
    5.8432   -2.0463    0.0297 O   0  0  0  0  0  0  0  0  0  0  0  0
    3.5393   -1.6170   -0.5621 C   0  0  1  0  0  0  0  0  0  0  0  0
    3.1434   -2.9231   -0.2637 O   0  0  0  0  0  0  0  0  0  0  0  0
    1.2426   -1.1191   -0.5580 N   0  0  0  0  0  0  0  0  0  0  0  0
   -5.9811    0.5416    0.1999 C   0  0  0  0  0  0  0  0  0  0  0  0
   -5.2937   -0.6006    0.5709 C   0  0  0  0  0  0  0  0  0  0  0  0
   -3.9171   -0.6714    0.4139 C   0  0  0  0  0  0  0  0  0  0  0  0
   -5.3009    1.6263   -0.3306 C   0  0  0  0  0  0  0  0  0  0  0  0
   -3.9295    1.5542   -0.4913 C   0  0  0  0  0  0  0  0  0  0  0  0
   -3.2188    0.4088   -0.1261 C   0  0  0  0  0  0  0  0  0  0  0  0
   -1.8366    0.4416   -0.3104 N   0  0  0  0  0  0  0  0  0  0  0  0
   -0.9660   -0.5986   -0.2461 C   0  0  0  0  0  0  0  0  0  0  0  0
   -1.2305   -1.7505   -0.0190 O   0  0  0  0  0  0  0  0  0  0  0  0
    0.2697   -0.1225   -0.4782 O   0  0  0  0  0  0  0  0  0  0  0  0
    3.8622    1.0955    1.5216 H   0  0  0  0  0  0  0  0  0  0  0  0
    5.1627    2.9017    0.4664 H   0  0  0  0  0  0  0  0  0  0  0  0
    4.3770    2.5805   -1.0869 H   0  0  0  0  0  0  0  0  0  0  0  0
    3.2007    4.2001   -0.0175 H   0  0  0  0  0  0  0  0  0  0  0  0
    5.3192    0.3107   -1.0292 H   0  0  0  0  0  0  0  0  0  0  0  0
    6.9419   -0.0425    0.6323 H   0  0  0  0  0  0  0  0  0  0  0  0
    4.4283   -1.3439    1.3737 H   0  0  0  0  0  0  0  0  0  0  0  0
    5.7348   -2.9043    0.4510 H   0  0  0  0  0  0  0  0  0  0  0  0
    3.8602   -1.5286   -1.6129 H   0  0  0  0  0  0  0  0  0  0  0  0
    2.2599   -3.0613   -0.6273 H   0  0  0  0  0  0  0  0  0  0  0  0
   -3.4091   -1.5701    0.7222 H   0  0  0  0  0  0  0  0  0  0  0  0
   -5.8291    2.5227   -0.6247 H   0  0  0  0  0  0  0  0  0  0  0  0
   -3.4062    2.4042   -0.9114 H   0  0  0  0  0  0  0  0  0  0  0  0
   -1.4537    1.3351   -0.5839 H   0  0  0  0  0  0  0  0  0  0  0  0
    1.9662    1.3261   -0.1153 H   0  0  0  0  0  0  0  0  0  0  0  0
   -5.8209   -1.4466    0.9904 H   0  0  0  0  0  0  0  0  0  0  0  0
   -7.7017    0.6188    0.4014 Cl  0  0  0  0  0  0  0  0  0  0  0  0
  1 12  2  0
  2  1  1  0
  3  2  1  0
  3 23  1  1
  4  3  1  0
  4  5  1  0
  4 24  1  0
  4 25  1  0
  5 26  1  0
  6  3  1  0
  6  8  1  0
  6 27  1  6
  7  6  1  0
  7 28  1  0
  8 10  1  0
  8 29  1  1
  9  8  1  0
  9 30  1  0
 10  1  1  0
 10 11  1  0
 10 31  1  6
 11 32  1  0
 12 22  1  0
 13 39  1  0
 14 13  2  0
 14 38  1  0
 15 14  1  0
 15 33  1  0
 16 13  1  0
 16 34  1  0
 17 16  2  0
 17 35  1  0
 18 15  2  0
 18 17  1  0
 19 18  1  0
 19 36  1  0
 20 19  1  0
 20 22  1  0
 21 20  2  0
  2 37  1  0
M  END
