
     RDKit          3D

 33 35  0  0  0  0  0  0  0  0999 V2000
   -4.7238    1.1957   -0.0103 C   0  0  0  0  0  0  0  0  0  0  0  0
    3.4396    1.2862    0.0928 C   0  0  0  0  0  0  0  0  0  0  0  0
    4.5329   -0.8792   -0.0123 C   0  0  0  0  0  0  0  0  0  0  0  0
    3.3023   -1.5094   -0.0432 C   0  0  0  0  0  0  0  0  0  0  0  0
    2.1264   -0.7579   -0.0071 C   0  0  0  0  0  0  0  0  0  0  0  0
    0.8535   -1.2633   -0.0299 N   0  0  0  0  0  0  0  0  0  0  0  0
   -0.0321   -0.3221    0.0142 C   0  0  0  0  0  0  0  0  0  0  0  0
   -1.4524   -0.5916    0.0024 C   0  0  0  0  0  0  0  0  0  0  0  0
   -2.4082    0.3469    0.0355 C   0  0  0  0  0  0  0  0  0  0  0  0
   -3.8460    0.1121    0.0261 C   0  0  0  0  0  0  0  0  0  0  0  0
   -6.0891    0.9684   -0.0223 C   0  0  0  0  0  0  0  0  0  0  0  0
   -6.5406   -0.3413    0.0048 C   0  0  0  0  0  0  0  0  0  0  0  0
   -5.7216   -1.3893    0.0441 N   0  0  0  0  0  0  0  0  0  0  0  0
   -4.4190   -1.1646    0.0549 C   0  0  0  0  0  0  0  0  0  0  0  0
    0.6171    1.3076    0.0896 S   0  0  0  0  0  0  0  0  0  0  0  0
    2.2117    0.6385    0.0589 C   0  0  0  0  0  0  0  0  0  0  0  0
    4.6031    0.5327    0.0603 C   0  0  0  0  0  0  0  0  0  0  0  0
    5.9363    1.2183    0.1077 C   0  0  0  0  0  0  0  0  0  0  0  0
   -4.3378    2.2077   -0.0314 H   0  0  0  0  0  0  0  0  0  0  0  0
    3.4955    2.3662    0.1442 H   0  0  0  0  0  0  0  0  0  0  0  0
    6.4261   -1.5093    0.8099 H   0  0  0  0  0  0  0  0  0  0  0  0
    5.5709   -2.7582   -0.0895 H   0  0  0  0  0  0  0  0  0  0  0  0
    6.3908   -1.4542   -0.9414 H   0  0  0  0  0  0  0  0  0  0  0  0
    3.2400   -2.5897   -0.0949 H   0  0  0  0  0  0  0  0  0  0  0  0
   -1.6950   -1.6469   -0.0389 H   0  0  0  0  0  0  0  0  0  0  0  0
   -2.1224    1.3950    0.0700 H   0  0  0  0  0  0  0  0  0  0  0  0
   -6.7925    1.7886   -0.0524 H   0  0  0  0  0  0  0  0  0  0  0  0
   -7.6031   -0.5557   -0.0040 H   0  0  0  0  0  0  0  0  0  0  0  0
   -3.7886   -2.0471    0.0922 H   0  0  0  0  0  0  0  0  0  0  0  0
    6.5457    0.9777   -0.7655 H   0  0  0  0  0  0  0  0  0  0  0  0
    5.8217    2.3005    0.1445 H   0  0  0  0  0  0  0  0  0  0  0  0
    6.5099    0.9152    0.9860 H   0  0  0  0  0  0  0  0  0  0  0  0
    5.7922   -1.6924   -0.0597 C   0  0  0  0  0  0  0  0  0  0  0  0
 33  3  1  0
 18 17  1  0
  3 17  1  0
  3  4  2  0
 17  2  2  0
  4  5  1  0
  2 16  1  0
  5 16  2  0
  5  6  1  0
 16 15  1  0
  6  7  2  0
 15  7  1  0
  7  8  1  0
  8  9  2  0
  9 10  1  0
 14 10  1  0
 14 13  2  0
 10  1  2  0
 13 12  1  0
  1 11  1  0
 12 11  2  0
  1 19  1  0
  2 20  1  0
 33 21  1  0
 33 22  1  0
 33 23  1  0
  4 24  1  0
  8 25  1  0
  9 26  1  0
 11 27  1  0
 12 28  1  0
 14 29  1  0
 18 30  1  0
 18 31  1  0
 18 32  1  0
M  END
