
     RDKit          3D

 50 51  0  0  0  0  0  0  0  0999 V2000
   -4.0463   -0.7478   -1.2961 C   0  0  0  0  0  0  0  0  0  0  0  0
   -5.3239   -0.5719   -1.6101 N   0  0  0  0  0  0  0  0  0  0  0  0
   -6.1220   -0.0926   -0.6552 C   0  0  0  0  0  0  0  0  0  0  0  0
   -5.7681    0.2066    0.5902 N   0  0  0  0  0  0  0  0  0  0  0  0
   -4.4805    0.0337    0.9108 C   0  0  0  0  0  0  0  0  0  0  0  0
   -3.5662   -0.4367   -0.0063 C   0  0  0  0  0  0  0  0  0  0  0  0
   -3.2147   -1.2137   -2.2514 N   0  0  0  0  0  0  0  0  0  0  0  0
   -7.4139    0.1402   -1.0049 N   0  0  0  0  0  0  0  0  0  0  0  0
   -4.1049    0.3116    2.3366 C   0  0  0  0  0  0  0  0  0  0  0  0
   -4.4168   -0.8904    3.2284 C   0  0  0  0  0  0  0  0  0  0  0  0
   -2.2486   -0.6421    0.2948 O   0  0  0  0  0  0  0  0  0  0  0  0
   -1.4096    0.4769    0.0176 C   0  0  0  0  0  0  0  0  0  0  0  0
    0.0241    0.0689    0.2848 C   0  0  0  0  0  0  0  0  0  0  0  0
    0.9664    1.2325    0.0499 C   0  0  0  0  0  0  0  0  0  0  0  0
    2.2842    0.7635    0.2647 O   0  0  0  0  0  0  0  0  0  0  0  0
    3.3242    1.6035    0.0879 C   0  0  0  0  0  0  0  0  0  0  0  0
    4.5992    1.0396    0.2562 C   0  0  0  0  0  0  0  0  0  0  0  0
    5.7061    1.8595    0.0890 C   0  0  0  0  0  0  0  0  0  0  0  0
    5.5802    3.2053   -0.2390 C   0  0  0  0  0  0  0  0  0  0  0  0
    4.3155    3.7427   -0.4031 C   0  0  0  0  0  0  0  0  0  0  0  0
    3.1856    2.9487   -0.2411 C   0  0  0  0  0  0  0  0  0  0  0  0
    4.7638   -0.4217    0.5726 C   0  0  0  0  0  0  0  0  0  0  0  0
    4.5225   -1.2903   -0.6588 C   0  0  0  0  0  0  0  0  0  0  0  0
    4.6806   -2.7610   -0.3921 C   0  0  0  0  0  0  0  0  0  0  0  0
    4.4498   -3.4862   -1.4830 O   0  0  0  0  0  0  0  0  0  0  0  0
    4.9786   -3.2490    0.6695 O   0  0  0  0  0  0  0  0  0  0  0  0
   -2.3351   -1.6174   -1.9773 H   0  0  0  0  0  0  0  0  0  0  0  0
   -3.6339   -1.6056   -3.0780 H   0  0  0  0  0  0  0  0  0  0  0  0
   -8.0781    0.2507   -0.2581 H   0  0  0  0  0  0  0  0  0  0  0  0
   -7.7605   -0.3232   -1.8273 H   0  0  0  0  0  0  0  0  0  0  0  0
   -3.0485    0.5643    2.4253 H   0  0  0  0  0  0  0  0  0  0  0  0
   -4.6729    1.1780    2.6796 H   0  0  0  0  0  0  0  0  0  0  0  0
   -5.4743   -1.1501    3.1801 H   0  0  0  0  0  0  0  0  0  0  0  0
   -3.8407   -1.7651    2.9247 H   0  0  0  0  0  0  0  0  0  0  0  0
   -4.1709   -0.6718    4.2675 H   0  0  0  0  0  0  0  0  0  0  0  0
   -1.5307    0.7966   -1.0240 H   0  0  0  0  0  0  0  0  0  0  0  0
   -1.6948    1.3242    0.6522 H   0  0  0  0  0  0  0  0  0  0  0  0
    0.1204   -0.2775    1.3169 H   0  0  0  0  0  0  0  0  0  0  0  0
    0.2986   -0.7605   -0.3724 H   0  0  0  0  0  0  0  0  0  0  0  0
    0.8578    1.6132   -0.9725 H   0  0  0  0  0  0  0  0  0  0  0  0
    0.7338    2.0559    0.7348 H   0  0  0  0  0  0  0  0  0  0  0  0
    6.6933    1.4317    0.2206 H   0  0  0  0  0  0  0  0  0  0  0  0
    6.4611    3.8208   -0.3635 H   0  0  0  0  0  0  0  0  0  0  0  0
    4.1931    4.7876   -0.6577 H   0  0  0  0  0  0  0  0  0  0  0  0
    2.2093    3.3946   -0.3756 H   0  0  0  0  0  0  0  0  0  0  0  0
    5.7770   -0.5892    0.9413 H   0  0  0  0  0  0  0  0  0  0  0  0
    4.0866   -0.7218    1.3745 H   0  0  0  0  0  0  0  0  0  0  0  0
    3.5200   -1.1232   -1.0603 H   0  0  0  0  0  0  0  0  0  0  0  0
    5.2128   -1.0123   -1.4610 H   0  0  0  0  0  0  0  0  0  0  0  0
    4.5562   -4.4278   -1.2820 H   0  0  0  0  0  0  0  0  0  0  0  0
  8  3  1  0
  3  4  2  0
  3  2  1  0
  4  5  1  0
  2  1  2  0
 10  9  1  0
  5  9  1  0
  5  6  2  0
 26 24  2  0
 25 24  1  0
  1  6  1  0
  1  7  1  0
 24 23  1  0
  6 11  1  0
 23 22  1  0
 11 12  1  0
 12 13  1  0
 22 17  1  0
 17 18  2  0
 17 16  1  0
 18 19  1  0
 15 16  1  0
 15 14  1  0
 13 14  1  0
 16 21  2  0
 19 20  2  0
 21 20  1  0
  7 27  1  0
  7 28  1  0
  8 29  1  0
  8 30  1  0
  9 31  1  0
  9 32  1  0
 10 33  1  0
 10 34  1  0
 10 35  1  0
 12 36  1  0
 12 37  1  0
 13 38  1  0
 13 39  1  0
 14 40  1  0
 14 41  1  0
 18 42  1  0
 19 43  1  0
 20 44  1  0
 21 45  1  0
 22 46  1  0
 22 47  1  0
 23 48  1  0
 23 49  1  0
 25 50  1  0
M  END
