
     RDKit          3D

 32 33  0  0  0  0  0  0  0  0999 V2000
   -0.7351   -0.2066   -0.0078 C   0  0  0  0  0  0  0  0  0  0  0  0
   -1.8218    0.5874    0.1635 N   0  0  0  0  0  0  0  0  0  0  0  0
   -3.1700    0.2372    0.1229 C   0  0  0  0  0  0  0  0  0  0  0  0
   -5.0403   -1.2303   -0.0654 C   0  0  0  0  0  0  0  0  0  0  0  0
    3.8688   -0.8988    0.0274 C   0  0  0  0  0  0  0  0  0  0  0  0
    5.1974   -0.5092   -0.0584 C   0  0  0  0  0  0  0  0  0  0  0  0
    5.5646    0.8289   -0.1666 C   0  0  0  0  0  0  0  0  0  0  0  0
    4.5800    1.8000   -0.1881 C   0  0  0  0  0  0  0  0  0  0  0  0
    3.2374    1.4427   -0.1043 C   0  0  0  0  0  0  0  0  0  0  0  0
    2.8853    0.1020    0.0004 C   0  0  0  0  0  0  0  0  0  0  0  0
    0.5656    0.5811    0.0153 C   0  0  0  0  0  0  0  0  0  0  0  0
   -3.6650   -1.0537   -0.0485 C   0  0  0  0  0  0  0  0  0  0  0  0
   -5.8750   -0.1367    0.0881 C   0  0  0  0  0  0  0  0  0  0  0  0
   -4.0992    1.2725    0.2694 C   0  0  0  0  0  0  0  0  0  0  0  0
   -5.4073    1.0961    0.2539 N   0  0  0  0  0  0  0  0  0  0  0  0
    1.6110   -0.3424    0.0829 O   0  0  0  0  0  0  0  0  0  0  0  0
   -0.7730   -1.4044   -0.1846 O   0  0  0  0  0  0  0  0  0  0  0  0
   -1.6435    1.5699    0.3172 H   0  0  0  0  0  0  0  0  0  0  0  0
   -5.4575   -2.2193   -0.1971 H   0  0  0  0  0  0  0  0  0  0  0  0
    3.0005   -2.5501    1.1086 H   0  0  0  0  0  0  0  0  0  0  0  0
    2.7804   -2.6453   -0.6275 H   0  0  0  0  0  0  0  0  0  0  0  0
    4.3599   -2.9824    0.0783 H   0  0  0  0  0  0  0  0  0  0  0  0
    5.9653   -1.2734   -0.0412 H   0  0  0  0  0  0  0  0  0  0  0  0
    6.6096    1.1012   -0.2334 H   0  0  0  0  0  0  0  0  0  0  0  0
    4.8418    2.8468   -0.2709 H   0  0  0  0  0  0  0  0  0  0  0  0
    2.4886    2.2229   -0.1197 H   0  0  0  0  0  0  0  0  0  0  0  0
    0.6121    1.1905   -0.8971 H   0  0  0  0  0  0  0  0  0  0  0  0
    0.5711    1.2715    0.8679 H   0  0  0  0  0  0  0  0  0  0  0  0
   -3.0096   -1.9010   -0.1642 H   0  0  0  0  0  0  0  0  0  0  0  0
   -6.9520   -0.2552    0.0785 H   0  0  0  0  0  0  0  0  0  0  0  0
   -3.7463    2.2912    0.4048 H   0  0  0  0  0  0  0  0  0  0  0  0
    3.4819   -2.3426    0.1510 C   0  0  0  0  0  0  0  0  0  0  0  0
  8  7  2  0
  8  9  1  0
  7  6  1  0
  9 10  2  0
  6  5  2  0
 10  5  1  0
 10 16  1  0
  5 32  1  0
 11 16  1  0
 11  1  1  0
 17  1  2  0
  1  2  1  0
  2  3  1  0
 14  3  2  0
 14 15  1  0
  3 12  1  0
 15 13  2  0
 12  4  2  0
 13  4  1  0
  2 18  1  0
  4 19  1  0
 32 20  1  0
 32 21  1  0
 32 22  1  0
  6 23  1  0
  7 24  1  0
  8 25  1  0
  9 26  1  0
 11 27  1  0
 11 28  1  0
 12 29  1  0
 13 30  1  0
 14 31  1  0
M  END
