
     RDKit          3D

 18 18  0  0  0  0  0  0  0  0999 V2000
   -2.2361    0.3264    0.0102 C   0  0  0  0  0  0  0  0  0  0  0  0
   -3.2447    1.2080    0.1409 O   0  0  0  0  0  0  0  0  0  0  0  0
   -0.9091    0.7213   -0.1102 C   0  0  0  0  0  0  0  0  0  0  0  0
    0.0968   -0.2335   -0.2284 C   0  0  0  0  0  0  0  0  0  0  0  0
    1.4992    0.2603   -0.3815 C   0  0  0  0  0  0  0  0  0  0  0  0
    1.7617    1.3153   -0.9337 O   0  0  0  0  0  0  0  0  0  0  0  0
    2.4283   -0.5392    0.1683 N   0  0  0  0  0  0  0  0  0  0  0  0
   -0.2242   -1.5873   -0.2561 C   0  0  0  0  0  0  0  0  0  0  0  0
   -1.5545   -1.9722   -0.1474 C   0  0  0  0  0  0  0  0  0  0  0  0
   -2.5589   -1.0304   -0.0097 C   0  0  0  0  0  0  0  0  0  0  0  0
    3.7493   -0.2989   -0.0446 O   0  0  0  0  0  0  0  0  0  0  0  0
   -2.9079    2.1111    0.1333 H   0  0  0  0  0  0  0  0  0  0  0  0
   -0.6549    1.7755   -0.1058 H   0  0  0  0  0  0  0  0  0  0  0  0
   -3.5941   -1.3369    0.0757 H   0  0  0  0  0  0  0  0  0  0  0  0
    0.5365   -2.3450   -0.3890 H   0  0  0  0  0  0  0  0  0  0  0  0
    2.2170   -1.4083    0.6360 H   0  0  0  0  0  0  0  0  0  0  0  0
    4.0539    0.2320    0.7035 H   0  0  0  0  0  0  0  0  0  0  0  0
   -1.8114   -3.0228   -0.1787 H   0  0  0  0  0  0  0  0  0  0  0  0
  1  2  1  0
  1  3  2  0
  1 10  1  0
  3  4  1  0
  4  5  1  0
  4  8  2  0
  5  6  2  0
  5  7  1  0
  7 11  1  0
  8  9  1  0
  9 10  2  0
  2 12  1  0
  3 13  1  0
 10 14  1  0
  8 15  1  0
  7 16  1  0
 11 17  1  0
  9 18  1  0
M  END
