
     RDKit          3D

 45 47  0  0  0  0  0  0  0  0999 V2000
    4.7292    2.0718   -0.2194 C   0  0  0  0  0  0  0  0  0  0  0  0
    5.7438   -0.0329   -0.7610 C   0  0  0  0  0  0  0  0  0  0  0  0
    4.5153   -0.6632   -0.4379 C   0  0  0  0  0  0  0  0  0  0  0  0
   -1.6760   -2.1181    0.7979 C   0  0  0  0  0  0  0  0  0  0  0  0
    5.8614    1.3145   -0.6571 C   0  0  0  0  0  0  0  0  0  0  0  0
    4.3133   -2.0540   -0.5182 C   0  0  0  0  0  0  0  0  0  0  0  0
   -2.8216   -1.1827    0.5344 C   0  0  0  0  0  0  0  0  0  0  0  0
   -3.8281   -1.5019   -0.3678 C   0  0  0  0  0  0  0  0  0  0  0  0
   -4.9748    0.6066    0.0118 C   0  0  0  0  0  0  0  0  0  0  0  0
   -3.9435    0.9360    0.9137 C   0  0  0  0  0  0  0  0  0  0  0  0
   -2.9020    0.0595    1.1601 C   0  0  0  0  0  0  0  0  0  0  0  0
   -5.9702    2.8079    0.2922 C   0  0  0  0  0  0  0  0  0  0  0  0
   -6.9120    1.1895   -1.3293 C   0  0  0  0  0  0  0  0  0  0  0  0
    4.8580    3.4128   -0.0635 N   0  0  0  0  0  0  0  0  0  0  0  0
    3.5758    1.5181    0.0746 N   0  0  0  0  0  0  0  0  0  0  0  0
    3.4508    0.1727   -0.0260 C   0  0  0  0  0  0  0  0  0  0  0  0
    3.0958   -2.6000   -0.2074 C   0  0  0  0  0  0  0  0  0  0  0  0
    2.0228   -1.7786    0.2028 C   0  0  0  0  0  0  0  0  0  0  0  0
    2.2081   -0.4189    0.2891 C   0  0  0  0  0  0  0  0  0  0  0  0
   -0.4128   -1.5205    0.4018 N   0  0  0  0  0  0  0  0  0  0  0  0
   -4.8807   -0.6388   -0.6331 C   0  0  0  0  0  0  0  0  0  0  0  0
   -6.0249    1.4600   -0.2228 N   0  0  0  0  0  0  0  0  0  0  0  0
    6.5840   -0.6322   -1.0909 H   0  0  0  0  0  0  0  0  0  0  0  0
    0.5973   -3.3501   -0.0233 H   0  0  0  0  0  0  0  0  0  0  0  0
    0.7446   -2.7376    1.6068 H   0  0  0  0  0  0  0  0  0  0  0  0
   -1.6145   -2.3503    1.8665 H   0  0  0  0  0  0  0  0  0  0  0  0
   -1.8725   -3.0761    0.2913 H   0  0  0  0  0  0  0  0  0  0  0  0
    6.7877    1.8187   -0.8999 H   0  0  0  0  0  0  0  0  0  0  0  0
    5.1325   -2.6883   -0.8368 H   0  0  0  0  0  0  0  0  0  0  0  0
   -3.7949   -2.4519   -0.8901 H   0  0  0  0  0  0  0  0  0  0  0  0
   -3.9456    1.8867    1.4286 H   0  0  0  0  0  0  0  0  0  0  0  0
   -2.1267    0.3570    1.8568 H   0  0  0  0  0  0  0  0  0  0  0  0
   -6.8922    3.3249    0.0390 H   0  0  0  0  0  0  0  0  0  0  0  0
   -5.8858    2.8170    1.3804 H   0  0  0  0  0  0  0  0  0  0  0  0
   -5.1347    3.3906   -0.1135 H   0  0  0  0  0  0  0  0  0  0  0  0
   -6.3962    1.1713   -2.2963 H   0  0  0  0  0  0  0  0  0  0  0  0
   -7.4258    0.2339   -1.2081 H   0  0  0  0  0  0  0  0  0  0  0  0
   -7.6773    1.9598   -1.3747 H   0  0  0  0  0  0  0  0  0  0  0  0
    5.6205    3.8865   -0.5163 H   0  0  0  0  0  0  0  0  0  0  0  0
    4.0173    3.9537    0.0508 H   0  0  0  0  0  0  0  0  0  0  0  0
    2.9487   -3.6709   -0.2824 H   0  0  0  0  0  0  0  0  0  0  0  0
    1.3934    0.2239    0.5982 H   0  0  0  0  0  0  0  0  0  0  0  0
   -0.4753   -1.2309   -0.5673 H   0  0  0  0  0  0  0  0  0  0  0  0
   -5.6271   -0.9477   -1.3516 H   0  0  0  0  0  0  0  0  0  0  0  0
    0.7069   -2.4206    0.5580 C   0  0  0  0  0  0  0  0  0  0  0  0
 12 22  1  0
 13 22  1  0
 22  9  1  0
  9 10  2  0
  9 21  1  0
 10 11  1  0
 21  8  2  0
 11  7  2  0
  8  7  1  0
  7  4  1  0
 20  4  1  0
 20 45  1  0
 45 18  1  0
 18 19  1  0
 18 17  2  0
 19 16  2  0
 17  6  1  0
 16 15  1  0
 16  3  1  0
 15  1  2  0
  6  3  2  0
  3  2  1  0
  1 14  1  0
  1  5  1  0
  2  5  2  0
  2 23  1  0
 45 24  1  0
 45 25  1  0
  4 26  1  0
  4 27  1  0
  5 28  1  0
  6 29  1  0
  8 30  1  0
 10 31  1  0
 11 32  1  0
 12 33  1  0
 12 34  1  0
 12 35  1  0
 13 36  1  0
 13 37  1  0
 13 38  1  0
 14 39  1  0
 14 40  1  0
 17 41  1  0
 19 42  1  0
 20 43  1  0
 21 44  1  0
M  END
