
     RDKit          3D

 52 56  0  0  0  0  0  0  0  0999 V2000
   -1.1333    1.8331    0.9757 C   0  0  0  0  0  0  0  0  0  0  0  0
   -0.7074    0.4317    0.7103 C   0  0  0  0  0  0  0  0  0  0  0  0
    0.5386   -0.1175    0.7657 C   0  0  0  0  0  0  0  0  0  0  0  0
    0.5339   -1.4432    0.4463 O   0  0  0  0  0  0  0  0  0  0  0  0
    1.8403    0.4056    1.0707 C   0  0  0  0  0  0  0  0  0  0  0  0
    2.9669   -0.2326    1.0328 N   0  0  0  0  0  0  0  0  0  0  0  0
    3.8595    0.7277    1.4027 C   0  0  0  0  0  0  0  0  0  0  0  0
    5.3258    0.4861    1.4827 C   0  0  0  0  0  0  0  0  0  0  0  0
    5.8845    0.1532    0.1213 C   0  0  0  0  0  0  0  0  0  0  0  0
    6.1230    1.1702   -0.7994 C   0  0  0  0  0  0  0  0  0  0  0  0
    6.6156    0.8774   -2.0632 C   0  0  0  0  0  0  0  0  0  0  0  0
    6.8730   -0.4402   -2.4217 C   0  0  0  0  0  0  0  0  0  0  0  0
    6.6349   -1.4593   -1.5097 C   0  0  0  0  0  0  0  0  0  0  0  0
    6.1416   -1.1632   -0.2452 C   0  0  0  0  0  0  0  0  0  0  0  0
    3.3208    1.8807    1.6526 N   0  0  0  0  0  0  0  0  0  0  0  0
    1.9797    1.6728    1.4353 O   0  0  0  0  0  0  0  0  0  0  0  0
   -0.7399   -1.7726    0.1775 C   0  0  0  0  0  0  0  0  0  0  0  0
   -1.5609   -0.6561    0.3207 C   0  0  0  0  0  0  0  0  0  0  0  0
   -1.1934   -3.0299   -0.1911 C   0  0  0  0  0  0  0  0  0  0  0  0
   -2.5528   -3.1223   -0.4186 C   0  0  0  0  0  0  0  0  0  0  0  0
   -3.4210   -2.0289   -0.2885 C   0  0  0  0  0  0  0  0  0  0  0  0
   -2.9429   -0.7803    0.0850 C   0  0  0  0  0  0  0  0  0  0  0  0
   -3.6749    0.3244    0.2578 O   0  0  0  0  0  0  0  0  0  0  0  0
   -5.0720    0.3259   -0.0320 C   0  0  1  0  0  0  0  0  0  0  0  0
   -5.6763    1.5297    0.6691 C   0  0  0  0  0  0  0  0  0  0  0  0
   -7.1624    1.6159    0.3454 C   0  0  0  0  0  0  0  0  0  0  0  0
   -7.3508    1.7037   -1.0912 N   0  0  0  0  0  0  0  0  0  0  0  0
   -6.8407    0.5269   -1.7695 C   0  0  0  0  0  0  0  0  0  0  0  0
   -5.3413    0.3976   -1.5293 C   0  0  0  0  0  0  0  0  0  0  0  0
   -1.6188    2.2552    0.0963 H   0  0  0  0  0  0  0  0  0  0  0  0
   -1.8618    1.8642    1.7856 H   0  0  0  0  0  0  0  0  0  0  0  0
   -0.3037    2.4789    1.2448 H   0  0  0  0  0  0  0  0  0  0  0  0
    5.8101    1.3739    1.8907 H   0  0  0  0  0  0  0  0  0  0  0  0
    5.5064   -0.3345    2.1796 H   0  0  0  0  0  0  0  0  0  0  0  0
    5.9248    2.1996   -0.5240 H   0  0  0  0  0  0  0  0  0  0  0  0
    5.9619   -1.9634    0.4626 H   0  0  0  0  0  0  0  0  0  0  0  0
    6.8008    1.6784   -2.7672 H   0  0  0  0  0  0  0  0  0  0  0  0
    7.2596   -0.6715   -3.4057 H   0  0  0  0  0  0  0  0  0  0  0  0
    6.8326   -2.4879   -1.7823 H   0  0  0  0  0  0  0  0  0  0  0  0
   -0.5302   -3.8768   -0.2961 H   0  0  0  0  0  0  0  0  0  0  0  0
   -2.9736   -4.0743   -0.7135 H   0  0  0  0  0  0  0  0  0  0  0  0
   -4.4710   -2.1890   -0.4876 H   0  0  0  0  0  0  0  0  0  0  0  0
   -5.5349   -0.5798    0.3822 H   0  0  0  0  0  0  0  0  0  0  0  0
   -5.5345    1.4506    1.7491 H   0  0  0  0  0  0  0  0  0  0  0  0
   -5.1756    2.4415    0.3308 H   0  0  0  0  0  0  0  0  0  0  0  0
   -4.8259    1.2689   -1.9438 H   0  0  0  0  0  0  0  0  0  0  0  0
   -4.9643   -0.4872   -2.0467 H   0  0  0  0  0  0  0  0  0  0  0  0
   -7.6732    0.7425    0.7841 H   0  0  0  0  0  0  0  0  0  0  0  0
   -7.5888    2.5030    0.8167 H   0  0  0  0  0  0  0  0  0  0  0  0
   -8.3348    1.8143   -1.2974 H   0  0  0  0  0  0  0  0  0  0  0  0
   -7.3339   -0.4015   -1.4345 H   0  0  0  0  0  0  0  0  0  0  0  0
   -7.0339    0.6194   -2.8395 H   0  0  0  0  0  0  0  0  0  0  0  0
  1  2  1  0
  2  3  2  0
  2 18  1  0
  3  4  1  0
  3  5  1  0
  4 17  1  0
  5  6  2  0
  5 16  1  0
  6  7  1  0
  7  8  1  0
  7 15  2  0
  8  9  1  0
  9 10  2  0
  9 14  1  0
 10 11  1  0
 11 12  2  0
 12 13  1  0
 13 14  2  0
 15 16  1  0
 17 18  2  0
 17 19  1  0
 18 22  1  0
 19 20  2  0
 20 21  1  0
 21 22  2  0
 22 23  1  0
 23 24  1  0
 24 25  1  0
 24 29  1  0
 25 26  1  0
 26 27  1  0
 27 28  1  0
 28 29  1  0
  1 30  1  0
  1 31  1  0
  1 32  1  0
  8 33  1  0
  8 34  1  0
 10 35  1  0
 14 36  1  0
 11 37  1  0
 12 38  1  0
 13 39  1  0
 19 40  1  0
 20 41  1  0
 21 42  1  0
 24 43  1  1
 25 44  1  0
 25 45  1  0
 29 46  1  0
 29 47  1  0
 26 48  1  0
 26 49  1  0
 27 50  1  0
 28 51  1  0
 28 52  1  0
M  END
