
     RDKit          3D

 46 48  0  0  0  0  0  0  0  0999 V2000
    3.9611    2.8889    2.1242 C   0  0  0  0  0  0  0  0  0  0  0  0
    3.6727    1.5472    1.7272 O   0  0  0  0  0  0  0  0  0  0  0  0
    4.5894    0.8877    1.0377 C   0  0  0  0  0  0  0  0  0  0  0  0
    5.7001    1.3041    0.8271 O   0  0  0  0  0  0  0  0  0  0  0  0
    4.0804   -0.4286    0.5597 C   0  0  0  0  0  0  0  0  0  0  0  0
    4.8117   -1.5785    0.8848 C   0  0  0  0  0  0  0  0  0  0  0  0
    5.8982   -1.4289    1.6531 O   0  0  0  0  0  0  0  0  0  0  0  0
    4.3952   -2.8262    0.4500 C   0  0  0  0  0  0  0  0  0  0  0  0
    3.2556   -2.9465   -0.3320 C   0  0  0  0  0  0  0  0  0  0  0  0
    2.9055   -4.1711   -0.7286 O   0  0  0  0  0  0  0  0  0  0  0  0
    2.5391   -1.7941   -0.6647 C   0  0  0  0  0  0  0  0  0  0  0  0
    1.1339   -1.9992   -1.6723 Cl  0  0  0  0  0  0  0  0  0  0  0  0
    2.9305   -0.5318   -0.2310 C   0  0  0  0  0  0  0  0  0  0  0  0
    2.1254    0.6786   -0.6205 C   0  0  0  0  0  0  0  0  0  0  0  0
    0.9147    0.8874    0.3061 C   0  0  0  0  0  0  0  0  0  0  0  0
    0.2362    2.1873    0.0478 C   0  0  0  0  0  0  0  0  0  0  0  0
    0.4505    3.2887    0.7261 N   0  0  0  0  0  0  0  0  0  0  0  0
   -0.3108    4.2525    0.1292 C   0  0  0  0  0  0  0  0  0  0  0  0
   -0.9909    3.7260   -0.9277 C   0  0  0  0  0  0  0  0  0  0  0  0
   -0.6295    2.4059   -0.9746 N   0  0  0  0  0  0  0  0  0  0  0  0
   -1.1808    1.4149   -1.8815 C   0  0  0  0  0  0  0  0  0  0  0  0
   -2.4564    0.8070   -1.3561 C   0  0  0  0  0  0  0  0  0  0  0  0
   -3.6450    1.5310   -1.3774 C   0  0  0  0  0  0  0  0  0  0  0  0
   -4.8183    0.9960   -0.8693 C   0  0  0  0  0  0  0  0  0  0  0  0
   -4.8001   -0.2857   -0.3366 C   0  0  0  0  0  0  0  0  0  0  0  0
   -6.3920   -1.0244    0.3581 Br  0  0  0  0  0  0  0  0  0  0  0  0
   -3.6338   -1.0329   -0.3142 C   0  0  0  0  0  0  0  0  0  0  0  0
   -2.4692   -0.4775   -0.8269 C   0  0  0  0  0  0  0  0  0  0  0  0
    3.0197    3.2992    2.4756 H   0  0  0  0  0  0  0  0  0  0  0  0
    4.6985    2.9108    2.9257 H   0  0  0  0  0  0  0  0  0  0  0  0
    4.3209    3.4850    1.2863 H   0  0  0  0  0  0  0  0  0  0  0  0
    6.3050   -2.2835    1.8357 H   0  0  0  0  0  0  0  0  0  0  0  0
    4.9508   -3.7194    0.7123 H   0  0  0  0  0  0  0  0  0  0  0  0
    2.1020   -4.1550   -1.2649 H   0  0  0  0  0  0  0  0  0  0  0  0
    2.7419    1.5754   -0.6096 H   0  0  0  0  0  0  0  0  0  0  0  0
    1.7911    0.5725   -1.6540 H   0  0  0  0  0  0  0  0  0  0  0  0
    0.2201    0.0511    0.2134 H   0  0  0  0  0  0  0  0  0  0  0  0
    1.2513    0.8969    1.3403 H   0  0  0  0  0  0  0  0  0  0  0  0
   -0.3269    5.2709    0.4860 H   0  0  0  0  0  0  0  0  0  0  0  0
   -1.6736    4.1622   -1.6379 H   0  0  0  0  0  0  0  0  0  0  0  0
   -1.3522    1.9011   -2.8418 H   0  0  0  0  0  0  0  0  0  0  0  0
   -0.4309    0.6423   -2.0497 H   0  0  0  0  0  0  0  0  0  0  0  0
   -3.6699    2.5270   -1.8024 H   0  0  0  0  0  0  0  0  0  0  0  0
   -5.7307    1.5760   -0.8995 H   0  0  0  0  0  0  0  0  0  0  0  0
   -3.6173   -2.0348    0.0928 H   0  0  0  0  0  0  0  0  0  0  0  0
   -1.5636   -1.0713   -0.8133 H   0  0  0  0  0  0  0  0  0  0  0  0
 19 18  2  0
 19 20  1  0
 18 17  1  0
 28 27  2  0
 28 22  1  0
 27 25  1  0
 20 21  1  0
 20 16  1  0
 17 16  2  0
 21 22  1  0
 22 23  2  0
 25 26  1  0
 25 24  2  0
 16 15  1  0
 23 24  1  0
 15 14  1  0
 12 11  1  0
 14 13  1  0
 11 13  1  0
 11  9  2  0
 13  5  2  0
  2  1  1  0
  2  3  1  0
 10  9  1  0
  9  8  1  0
  5  3  1  0
  5  6  1  0
  3  4  2  0
  8  6  2  0
  6  7  1  0
  1 29  1  0
  1 30  1  0
  1 31  1  0
  7 32  1  0
  8 33  1  0
 10 34  1  0
 14 35  1  0
 14 36  1  0
 15 37  1  0
 15 38  1  0
 18 39  1  0
 19 40  1  0
 21 41  1  0
 21 42  1  0
 23 43  1  0
 24 44  1  0
 27 45  1  0
 28 46  1  0
M  END
