
     RDKit          3D

 52 54  0  0  0  0  0  0  0  0999 V2000
   -5.6059    2.4917   -0.2664 C   0  0  0  0  0  0  0  0  0  0  0  0
   -5.4521    1.1182    0.0306 O   0  0  0  0  0  0  0  0  0  0  0  0
   -4.2089    0.6122    0.1091 C   0  0  0  0  0  0  0  0  0  0  0  0
   -3.0474    1.3537   -0.0841 C   0  0  0  0  0  0  0  0  0  0  0  0
   -1.7997    0.7399    0.0197 C   0  0  0  0  0  0  0  0  0  0  0  0
   -0.5489    1.4980   -0.1823 C   0  0  0  0  0  0  0  0  0  0  0  0
   -0.4969    2.8262   -0.5603 C   0  0  0  0  0  0  0  0  0  0  0  0
    0.6550    3.4878   -0.6753 N   0  0  0  0  0  0  0  0  0  0  0  0
    1.7793    2.8406   -0.4490 C   0  0  0  0  0  0  0  0  0  0  0  0
    2.9600    3.5112   -0.5287 N   0  0  0  0  0  0  0  0  0  0  0  0
    1.7476    1.4454   -0.1370 C   0  0  0  0  0  0  0  0  0  0  0  0
    2.9433    0.7647    0.0766 N   0  0  0  0  0  0  0  0  0  0  0  0
    2.8458   -0.4519    0.8709 C   0  0  0  0  0  0  0  0  0  0  0  0
    4.2321   -0.8975    1.3128 C   0  0  0  0  0  0  0  0  0  0  0  0
    5.1807   -1.0899    0.1325 C   0  0  1  0  0  0  0  0  0  0  0  0
    4.8594   -2.3483   -0.6474 C   0  0  0  0  0  0  0  0  0  0  0  0
    4.1689   -3.2526   -0.2453 O   0  0  0  0  0  0  0  0  0  0  0  0
    5.4673   -2.3880   -1.8282 O   0  0  0  0  0  0  0  0  0  0  0  0
    5.1821    0.1790   -0.7245 C   0  0  0  0  0  0  0  0  0  0  0  0
    3.7714    0.5786   -1.1175 C   0  0  0  0  0  0  0  0  0  0  0  0
    0.6039    0.8356    0.0068 N   0  0  0  0  0  0  0  0  0  0  0  0
   -1.7223   -0.6176    0.3245 C   0  0  0  0  0  0  0  0  0  0  0  0
   -2.8818   -1.3603    0.5188 C   0  0  0  0  0  0  0  0  0  0  0  0
   -2.8992   -2.6724    0.8121 O   0  0  0  0  0  0  0  0  0  0  0  0
   -1.6645   -3.3435    0.9639 C   0  0  0  0  0  0  0  0  0  0  0  0
   -4.1334   -0.7482    0.4198 C   0  0  0  0  0  0  0  0  0  0  0  0
   -5.2633   -1.4670    0.6465 O   0  0  0  0  0  0  0  0  0  0  0  0
   -5.8358   -2.0469   -0.5183 C   0  0  0  0  0  0  0  0  0  0  0  0
   -5.1723    2.7515   -1.2354 H   0  0  0  0  0  0  0  0  0  0  0  0
   -6.6758    2.6811   -0.2994 H   0  0  0  0  0  0  0  0  0  0  0  0
   -5.1596    3.1284    0.5021 H   0  0  0  0  0  0  0  0  0  0  0  0
   -3.1200    2.4079   -0.3063 H   0  0  0  0  0  0  0  0  0  0  0  0
   -0.7467   -1.0746    0.4052 H   0  0  0  0  0  0  0  0  0  0  0  0
   -1.3906    3.4039   -0.7611 H   0  0  0  0  0  0  0  0  0  0  0  0
    2.8928    4.5166   -0.5012 H   0  0  0  0  0  0  0  0  0  0  0  0
    3.7227    3.1357    0.0139 H   0  0  0  0  0  0  0  0  0  0  0  0
    2.2311   -0.2499    1.7479 H   0  0  0  0  0  0  0  0  0  0  0  0
    2.3454   -1.2540    0.3139 H   0  0  0  0  0  0  0  0  0  0  0  0
    3.3245   -0.1850   -1.7725 H   0  0  0  0  0  0  0  0  0  0  0  0
    3.7968    1.5038   -1.6928 H   0  0  0  0  0  0  0  0  0  0  0  0
    4.6576   -0.1364    1.9709 H   0  0  0  0  0  0  0  0  0  0  0  0
    4.1488   -1.8115    1.9009 H   0  0  0  0  0  0  0  0  0  0  0  0
    6.1962   -1.2464    0.5170 H   0  0  0  0  0  0  0  0  0  0  0  0
    5.6260    0.9851   -0.1355 H   0  0  0  0  0  0  0  0  0  0  0  0
    5.7977    0.0679   -1.6165 H   0  0  0  0  0  0  0  0  0  0  0  0
    5.2672   -3.2278   -2.2681 H   0  0  0  0  0  0  0  0  0  0  0  0
   -1.9035   -4.3779    1.1981 H   0  0  0  0  0  0  0  0  0  0  0  0
   -1.0693   -3.3203    0.0473 H   0  0  0  0  0  0  0  0  0  0  0  0
   -1.0712   -2.9263    1.7817 H   0  0  0  0  0  0  0  0  0  0  0  0
   -6.2149   -1.2857   -1.2043 H   0  0  0  0  0  0  0  0  0  0  0  0
   -5.1194   -2.6754   -1.0525 H   0  0  0  0  0  0  0  0  0  0  0  0
   -6.6688   -2.6675   -0.1921 H   0  0  0  0  0  0  0  0  0  0  0  0
  1  2  1  0
  2  3  1  0
  3  4  2  0
  3 26  1  0
  4  5  1  0
  5  6  1  0
  5 22  2  0
  6  7  2  0
  6 21  1  0
  7  8  1  0
  8  9  2  0
  9 10  1  0
  9 11  1  0
 11 12  1  0
 11 21  2  0
 12 13  1  0
 12 20  1  0
 13 14  1  0
 14 15  1  0
 15 16  1  0
 15 19  1  0
 16 17  2  0
 16 18  1  0
 19 20  1  0
 22 23  1  0
 23 24  1  0
 23 26  2  0
 24 25  1  0
 26 27  1  0
 27 28  1  0
  1 29  1  0
  1 30  1  0
  1 31  1  0
  4 32  1  0
 22 33  1  0
  7 34  1  0
 10 35  1  0
 10 36  1  0
 13 37  1  0
 13 38  1  0
 20 39  1  0
 20 40  1  0
 14 41  1  0
 14 42  1  0
 15 43  1  1
 19 44  1  0
 19 45  1  0
 18 46  1  0
 25 47  1  0
 25 48  1  0
 25 49  1  0
 28 50  1  0
 28 51  1  0
 28 52  1  0
M  END
