
     RDKit          3D

 43 43  0  0  0  0  0  0  0  0999 V2000
  -11.6150    5.1640    6.4955 N   0  0  0  0  0  0  0  0  0  0  0  0
  -12.0871    4.0053    6.9341 C   0  0  0  0  0  0  0  0  0  0  0  0
  -13.1278    4.0400    8.0117 C   0  0  0  0  0  0  0  0  0  0  0  0
  -11.7132    2.8051    6.5160 N   0  0  0  0  0  0  0  0  0  0  0  0
  -10.7801    2.7158    5.5595 C   0  0  0  0  0  0  0  0  0  0  0  0
  -10.4235    1.4870    5.1780 N   0  0  0  0  0  0  0  0  0  0  0  0
  -10.2456    3.9003    4.9817 C   0  0  0  0  0  0  0  0  0  0  0  0
  -10.7061    5.0758    5.5187 C   0  0  0  0  0  0  0  0  0  0  0  0
   -9.2770    3.9109    3.8345 C   0  0  0  0  0  0  0  0  0  0  0  0
   -7.9786    3.3514    4.1655 N   0  0  0  0  0  0  0  0  0  0  0  0
   -6.3982    1.7125    6.1168 S   0  0  0  0  0  0  0  0  0  0  0  0
   -6.6985    1.3412    4.4019 C   0  0  0  0  0  0  0  0  0  0  0  0
   -7.5178    2.1480    3.6851 C   0  0  0  0  0  0  0  0  0  0  0  0
   -7.9543    1.8054    2.2879 C   0  0  0  0  0  0  0  0  0  0  0  0
   -6.1341    0.0326    3.9315 C   0  0  0  0  0  0  0  0  0  0  0  0
   -6.9385   -1.1616    4.4184 C   0  0  0  0  0  0  0  0  0  0  0  0
   -8.2571   -1.0686    3.9138 O   0  0  0  0  0  0  0  0  0  0  0  0
   -9.3069   -2.2984    4.1591 P   0  0  1  0  0  0  0  0  0  0  0  0
  -10.5550   -1.9447    3.4204 O   0  0  0  0  0  0  0  0  0  0  0  0
   -8.6098   -3.6062    3.9415 O   0  0  0  0  0  0  0  0  0  0  0  0
   -9.5410   -2.1403    5.7841 O   0  0  0  0  0  0  0  0  0  0  0  0
  -11.0002   -2.0850    6.5308 P   0  0  1  0  0  0  0  0  0  0  0  0
  -10.4724   -2.1323    8.0788 O   0  0  0  0  0  0  0  0  0  0  0  0
  -11.6533   -0.7534    6.2710 O   0  0  0  0  0  0  0  0  0  0  0  0
  -11.7449   -3.3576    6.2961 O   0  0  0  0  0  0  0  0  0  0  0  0
  -10.2138   -1.2650    8.4089 H   0  0  0  0  0  0  0  0  0  0  0  0
   -6.9424   -1.1722    5.5149 H   0  0  0  0  0  0  0  0  0  0  0  0
   -6.4571   -2.0860    4.0840 H   0  0  0  0  0  0  0  0  0  0  0  0
   -6.0576   -0.0066    2.8432 H   0  0  0  0  0  0  0  0  0  0  0  0
   -5.1124   -0.0884    4.3035 H   0  0  0  0  0  0  0  0  0  0  0  0
   -5.1733    2.2537    6.0205 H   0  0  0  0  0  0  0  0  0  0  0  0
   -7.6728    3.5609    5.1059 H   0  0  0  0  0  0  0  0  0  0  0  0
   -9.7014    3.3697    2.9880 H   0  0  0  0  0  0  0  0  0  0  0  0
   -9.1613    4.9461    3.4997 H   0  0  0  0  0  0  0  0  0  0  0  0
  -10.3271    6.0177    5.1300 H   0  0  0  0  0  0  0  0  0  0  0  0
  -10.8537    0.6676    5.6288 H   0  0  0  0  0  0  0  0  0  0  0  0
   -9.6054    1.3180    4.6189 H   0  0  0  0  0  0  0  0  0  0  0  0
  -13.9823    3.4192    7.7417 H   0  0  0  0  0  0  0  0  0  0  0  0
  -12.7253    3.6413    8.9443 H   0  0  0  0  0  0  0  0  0  0  0  0
  -13.4723    5.0553    8.1933 H   0  0  0  0  0  0  0  0  0  0  0  0
   -7.9349    2.6897    1.6512 H   0  0  0  0  0  0  0  0  0  0  0  0
   -7.3214    1.0497    1.8365 H   0  0  0  0  0  0  0  0  0  0  0  0
   -8.9716    1.4102    2.2720 H   0  0  0  0  0  0  0  0  0  0  0  0
  1  8  2  0
  1  2  1  0
  2  4  2  0
  2  3  1  0
  3 38  1  0
  3 39  1  0
  3 40  1  0
  4  5  1  0
  5  7  2  0
  5  6  1  0
  6 36  1  0
  6 37  1  0
  7  9  1  0
  7  8  1  0
  8 35  1  0
  9 10  1  0
  9 33  1  0
  9 34  1  0
 10 13  1  0
 10 32  1  0
 11 12  1  0
 11 31  1  0
 12 15  1  0
 12 13  2  0
 13 14  1  0
 14 41  1  0
 14 42  1  0
 14 43  1  0
 15 16  1  0
 15 29  1  0
 15 30  1  0
 16 17  1  0
 16 27  1  0
 16 28  1  0
 17 18  1  0
 18 21  1  0
 18 19  1  6
 18 20  2  0
 21 22  1  0
 22 23  1  0
 22 24  1  1
 22 25  2  0
 23 26  1  0
M  CHG  2  19  -1  24  -1
M  END
