
     RDKit          3D

 25 27  0  0  0  0  0  0  0  0999 V2000
   -2.6051   -1.7244   -0.0426 N   0  0  0  0  0  0  0  0  0  0  0  0
    4.3095   -0.2520    0.0555 N   0  0  0  0  0  0  0  0  0  0  0  0
    0.9060    0.4671    0.0213 C   0  0  0  0  0  0  0  0  0  0  0  0
    2.9765   -0.2830    0.0353 C   0  0  0  0  0  0  0  0  0  0  0  0
    5.0874    0.9609   -0.0071 C   0  0  0  0  0  0  0  0  0  0  0  0
    0.9548   -0.9521    0.0083 C   0  0  0  0  0  0  0  0  0  0  0  0
   -0.2244   -1.6768   -0.0115 C   0  0  0  0  0  0  0  0  0  0  0  0
   -3.7098   -1.0802   -0.0516 C   0  0  0  0  0  0  0  0  0  0  0  0
   -1.4382   -0.9843   -0.0200 C   0  0  0  0  0  0  0  0  0  0  0  0
   -1.4568    0.4310   -0.0066 C   0  0  0  0  0  0  0  0  0  0  0  0
   -0.2667    1.1726    0.0148 C   0  0  0  0  0  0  0  0  0  0  0  0
    2.2261    0.8548    0.0395 N   0  0  0  0  0  0  0  0  0  0  0  0
    2.2484   -1.3846    0.0176 N   0  0  0  0  0  0  0  0  0  0  0  0
   -2.7324    1.1253   -0.0160 C   0  0  0  0  0  0  0  0  0  0  0  0
   -2.8835    2.3374   -0.0055 O   0  0  0  0  0  0  0  0  0  0  0  0
   -3.8151    0.2741   -0.0388 N   0  0  0  0  0  0  0  0  0  0  0  0
    4.8878    1.6147    0.8439 H   0  0  0  0  0  0  0  0  0  0  0  0
    6.1391    0.6938    0.0208 H   0  0  0  0  0  0  0  0  0  0  0  0
   -0.2231   -2.7589   -0.0232 H   0  0  0  0  0  0  0  0  0  0  0  0
   -4.6518   -1.6146   -0.0711 H   0  0  0  0  0  0  0  0  0  0  0  0
   -0.2889    2.2542    0.0246 H   0  0  0  0  0  0  0  0  0  0  0  0
   -4.7387    0.6858   -0.0506 H   0  0  0  0  0  0  0  0  0  0  0  0
    2.5664    1.8034    0.0427 H   0  0  0  0  0  0  0  0  0  0  0  0
    4.7794   -1.1389   -0.0058 H   0  0  0  0  0  0  0  0  0  0  0  0
    4.9059    1.5222   -0.9266 H   0  0  0  0  0  0  0  0  0  0  0  0
  1  8  2  0
  2  4  1  0
  3 11  1  0
  4 13  2  0
  4 12  1  0
  5  2  1  0
  5 17  1  0
  5 18  1  0
  6  3  2  0
  6  7  1  0
  7  9  2  0
  7 19  1  0
  8 16  1  0
  8 20  1  0
  9  1  1  0
  9 10  1  0
 10 14  1  0
 11 10  2  0
 11 21  1  0
 12  3  1  0
 12 23  1  0
 13  6  1  0
 14 15  2  0
 14 16  1  0
 16 22  1  0
  2 24  1  0
  5 25  1  0
M  END
