
     RDKit          3D

 71 75  0  0  0  0  0  0  0  0999 V2000
   -8.2076   -0.8153    0.7457 C   0  0  0  0  0  0  0  0  0  0  0  0
   -6.3518    0.0739   -1.1106 C   0  0  0  0  0  0  0  0  0  0  0  0
   -6.8580   -1.0518    0.9473 C   0  0  0  0  0  0  0  0  0  0  0  0
    2.8728    3.7915    0.8329 C   0  0  0  0  0  0  0  0  0  0  0  0
   -8.6645   -0.1319   -0.3769 C   0  0  0  0  0  0  0  0  0  0  0  0
    6.1182   -0.5433   -2.6875 C   0  0  0  0  0  0  0  0  0  0  0  0
    4.7233   -0.1855   -2.1876 C   0  0  0  0  0  0  0  0  0  0  0  0
   -1.0183   -0.2629    0.0648 C   0  0  0  0  0  0  0  0  0  0  0  0
   -3.4531   -0.4511   -0.3091 C   0  0  0  0  0  0  0  0  0  0  0  0
    2.9692    1.6713    0.2530 C   0  0  0  0  0  0  0  0  0  0  0  0
    7.8955   -0.7256    0.2711 C   0  0  0  0  0  0  0  0  0  0  0  0
  -10.4484    1.6260   -0.5624 C   0  0  0  0  0  0  0  0  0  0  0  0
   -0.8481   -2.8098    1.1399 C   0  0  0  0  0  0  0  0  0  0  0  0
    0.2928   -2.0342    1.0218 C   0  0  0  0  0  0  0  0  0  0  0  0
   -2.0797   -2.3120    0.7384 C   0  0  0  0  0  0  0  0  0  0  0  0
   -7.7081    0.3008   -1.2916 C   0  0  0  0  0  0  0  0  0  0  0  0
    1.6423    1.4418    0.6266 C   0  0  0  0  0  0  0  0  0  0  0  0
    0.2143   -0.7471    0.4894 C   0  0  0  0  0  0  0  0  0  0  0  0
   -2.1715   -1.0309    0.2007 C   0  0  0  0  0  0  0  0  0  0  0  0
   -5.9113   -0.6098    0.0235 C   0  0  0  0  0  0  0  0  0  0  0  0
    1.4248    0.0670    0.3367 C   0  0  0  0  0  0  0  0  0  0  0  0
    0.9766    2.5474    1.2073 C   0  0  0  0  0  0  0  0  0  0  0  0
    6.7667   -1.5832   -1.7836 C   0  0  0  0  0  0  0  0  0  0  0  0
    5.4671   -0.8522    0.1266 C   0  0  0  0  0  0  0  0  0  0  0  0
    4.7747    0.2228   -0.7174 C   0  0  2  0  0  0  0  0  0  0  0  0
   10.4117   -0.5297    0.4678 C   0  0  0  0  0  0  0  0  0  0  0  0
  -10.6375   -0.5068   -1.8874 C   0  0  0  0  0  0  0  0  0  0  0  0
    9.2371   -0.9277   -0.4092 C   0  0  0  0  0  0  0  0  0  0  0  0
  -10.1369    0.1293   -0.5908 C   0  0  1  0  0  0  0  0  0  0  0  0
    3.6239    2.8325    0.3329 N   0  0  0  0  0  0  0  0  0  0  0  0
    1.6179    3.7162    1.2728 N   0  0  0  0  0  0  0  0  0  0  0  0
    2.5228   -0.4650   -0.1464 N   0  0  0  0  0  0  0  0  0  0  0  0
    3.4532    0.4974   -0.1954 N   0  0  0  0  0  0  0  0  0  0  0  0
    6.7876   -1.1118   -0.4086 N   0  0  0  0  0  0  0  0  0  0  0  0
   -0.2655    2.4902    1.6922 N   0  0  0  0  0  0  0  0  0  0  0  0
   -4.5715   -0.9152    0.2966 N   0  0  0  0  0  0  0  0  0  0  0  0
   -3.4527    0.3828   -1.1987 O   0  0  0  0  0  0  0  0  0  0  0  0
    7.8263   -0.2397    1.3919 O   0  0  0  0  0  0  0  0  0  0  0  0
   -8.9168   -1.1729    1.4829 H   0  0  0  0  0  0  0  0  0  0  0  0
   -5.6565    0.4274   -1.8538 H   0  0  0  0  0  0  0  0  0  0  0  0
   -6.5370   -1.5866    1.8341 H   0  0  0  0  0  0  0  0  0  0  0  0
    3.3332    4.7710    0.9101 H   0  0  0  0  0  0  0  0  0  0  0  0
    6.0626   -0.9286   -3.7069 H   0  0  0  0  0  0  0  0  0  0  0  0
    6.7483    0.3500   -2.7146 H   0  0  0  0  0  0  0  0  0  0  0  0
    4.2963    0.6239   -2.7830 H   0  0  0  0  0  0  0  0  0  0  0  0
    4.0623   -1.0502   -2.2945 H   0  0  0  0  0  0  0  0  0  0  0  0
   -1.0837    0.7124   -0.4019 H   0  0  0  0  0  0  0  0  0  0  0  0
  -11.5222    1.7962   -0.6565 H   0  0  0  0  0  0  0  0  0  0  0  0
  -10.1169    2.0838    0.3703 H   0  0  0  0  0  0  0  0  0  0  0  0
   -9.9595    2.1510   -1.3859 H   0  0  0  0  0  0  0  0  0  0  0  0
   -0.7807   -3.8099    1.5464 H   0  0  0  0  0  0  0  0  0  0  0  0
    1.2488   -2.4230    1.3467 H   0  0  0  0  0  0  0  0  0  0  0  0
   -2.9505   -2.9499    0.8207 H   0  0  0  0  0  0  0  0  0  0  0  0
   -8.0176    0.8320   -2.1842 H   0  0  0  0  0  0  0  0  0  0  0  0
    6.1913   -2.5141   -1.8164 H   0  0  0  0  0  0  0  0  0  0  0  0
    7.7677   -1.8231   -2.1275 H   0  0  0  0  0  0  0  0  0  0  0  0
    5.5435   -0.5357    1.1634 H   0  0  0  0  0  0  0  0  0  0  0  0
    4.8812   -1.7763    0.0975 H   0  0  0  0  0  0  0  0  0  0  0  0
    5.3330    1.1563   -0.6184 H   0  0  0  0  0  0  0  0  0  0  0  0
   10.3609    0.5166    0.7651 H   0  0  0  0  0  0  0  0  0  0  0  0
   10.4614   -1.1342    1.3726 H   0  0  0  0  0  0  0  0  0  0  0  0
   11.3430   -0.6748   -0.0792 H   0  0  0  0  0  0  0  0  0  0  0  0
  -10.4452   -1.5801   -1.9059 H   0  0  0  0  0  0  0  0  0  0  0  0
  -11.7125   -0.3567   -1.9996 H   0  0  0  0  0  0  0  0  0  0  0  0
  -10.1511   -0.0651   -2.7594 H   0  0  0  0  0  0  0  0  0  0  0  0
    9.3424   -1.9727   -0.7128 H   0  0  0  0  0  0  0  0  0  0  0  0
    9.2544   -0.3479   -1.3369 H   0  0  0  0  0  0  0  0  0  0  0  0
  -10.6741   -0.3376    0.2408 H   0  0  0  0  0  0  0  0  0  0  0  0
   -0.7317    1.6122    1.8394 H   0  0  0  0  0  0  0  0  0  0  0  0
   -0.6304    3.2895    2.1834 H   0  0  0  0  0  0  0  0  0  0  0  0
   -4.4370   -1.4968    1.1091 H   0  0  0  0  0  0  0  0  0  0  0  0
 27 29  1  0
 29 12  1  0
 29  5  1  0
  1  5  2  0
  1  3  1  0
  5 16  1  0
  3 20  2  0
 16  2  2  0
 20  2  1  0
 20 36  1  0
 36  9  1  0
 15 13  2  0
 15 19  1  0
  9 19  1  0
  9 37  2  0
 13 14  1  0
 19  8  2  0
 14 18  2  0
  8 18  1  0
 18 21  1  0
 26 28  1  0
 21 32  2  0
 21 17  1  0
 32 33  1  0
 23 34  1  0
 23  6  1  0
 24 34  1  0
 24 25  1  0
 34 11  1  0
 35 22  1  0
 28 11  1  0
 17 22  2  0
 17 10  1  0
 11 38  2  0
 33 25  1  0
 33 10  1  0
  6  7  1  0
  7 25  1  0
 22 31  1  0
 10 30  2  0
 31  4  2  0
 30  4  1  0
  1 39  1  0
  2 40  1  0
  3 41  1  0
  4 42  1  0
  6 43  1  0
  6 44  1  0
  7 45  1  0
  7 46  1  0
  8 47  1  0
 12 48  1  0
 12 49  1  0
 12 50  1  0
 13 51  1  0
 14 52  1  0
 15 53  1  0
 16 54  1  0
 23 55  1  0
 23 56  1  0
 24 57  1  0
 24 58  1  0
 25 59  1  6
 26 60  1  0
 26 61  1  0
 26 62  1  0
 27 63  1  0
 27 64  1  0
 27 65  1  0
 28 66  1  0
 28 67  1  0
 29 68  1  1
 35 69  1  0
 35 70  1  0
 36 71  1  0
M  END
