
     RDKit          3D

 26 27  0  0  0  0  0  0  0  0999 V2000
    2.7389    0.1607    0.4087 C   0  0  0  0  0  0  0  0  0  0  0  0
    2.0240   -0.9738    0.0364 C   0  0  0  0  0  0  0  0  0  0  0  0
    0.6884   -0.8523   -0.2918 C   0  0  0  0  0  0  0  0  0  0  0  0
    2.1558    1.4009    0.3912 C   0  0  0  0  0  0  0  0  0  0  0  0
    0.8046    1.5079    0.0512 C   0  0  0  0  0  0  0  0  0  0  0  0
   -0.0035    0.3797   -0.2232 C   0  0  0  0  0  0  0  0  0  0  0  0
   -1.4313    0.6331   -0.3989 C   0  0  0  0  0  0  0  0  0  0  0  0
   -2.4430   -0.4839   -0.3592 C   0  0  0  0  0  0  0  0  0  0  0  0
   -1.8575    1.9096   -0.5295 C   0  0  0  0  0  0  0  0  0  0  0  0
   -1.0015    3.0677   -0.3857 C   0  0  0  0  0  0  0  0  0  0  0  0
    0.2769    2.7660   -0.0156 N   0  0  0  0  0  0  0  0  0  0  0  0
   -4.6898   -1.5356    0.4065 O   0  0  0  0  0  0  0  0  0  0  0  0
   -3.9820    0.6235    1.6418 O   0  0  0  0  0  0  0  0  0  0  0  0
   -4.9308    0.8263   -0.6852 O   0  0  0  0  0  0  0  0  0  0  0  0
   -1.3754    4.2234   -0.5196 O   0  0  0  0  0  0  0  0  0  0  0  0
   -4.1197   -0.0507    0.1925 P   0  0  1  0  0  0  0  0  0  0  0  0
    4.5477   -0.0148    0.8831 Br  0  0  0  0  0  0  0  0  0  0  0  0
   -0.0631   -2.4412   -0.9921 Br  0  0  0  0  0  0  0  0  0  0  0  0
    2.5176   -1.9337   -0.0198 H   0  0  0  0  0  0  0  0  0  0  0  0
    2.7163    2.2968    0.6250 H   0  0  0  0  0  0  0  0  0  0  0  0
   -2.5513   -0.9510   -1.3411 H   0  0  0  0  0  0  0  0  0  0  0  0
   -2.1122   -1.2670    0.3233 H   0  0  0  0  0  0  0  0  0  0  0  0
   -2.8996    2.1364   -0.7057 H   0  0  0  0  0  0  0  0  0  0  0  0
    0.8945    3.5464    0.1686 H   0  0  0  0  0  0  0  0  0  0  0  0
   -5.6517   -1.5765    0.5017 H   0  0  0  0  0  0  0  0  0  0  0  0
   -3.4931    0.1130    2.3005 H   0  0  0  0  0  0  0  0  0  0  0  0
 14 16  2  0
 15 10  2  0
 16 12  1  1
 16 13  1  0
 16  8  1  0
 10  9  1  0
 10 11  1  0
  9  7  2  0
 11  5  1  0
  7  8  1  0
  7  6  1  0
  5  6  2  0
  5  4  1  0
  6  3  1  0
  4  1  2  0
  3 18  1  0
  3  2  2  0
  1  2  1  0
  1 17  1  0
  2 19  1  0
  4 20  1  0
  8 21  1  0
  8 22  1  0
  9 23  1  0
 11 24  1  0
 12 25  1  0
 13 26  1  0
M  END
