
     RDKit          3D

 15 15  0  0  0  0  0  0  0  0999 V2000
   -1.0584   -0.0946   -0.7289 N   0  0  0  0  0  0  0  0  0  0  0  0
   -0.1104    0.2118    0.1826 C   0  0  0  0  0  0  0  0  0  0  0  0
    1.0751    0.2506   -0.3785 N   0  0  0  0  0  0  0  0  0  0  0  0
    0.8751   -0.0401   -1.6996 C   0  0  0  0  0  0  0  0  0  0  0  0
   -0.4499   -0.2578   -1.9411 C   0  0  0  0  0  0  0  0  0  0  0  0
   -0.4072    0.4486    1.6253 C   0  0  0  0  0  0  0  0  0  0  0  0
    0.3177   -0.5361    2.5383 C   0  0  0  0  0  0  0  0  0  0  0  0
   -2.0469   -0.1780   -0.5512 H   0  0  0  0  0  0  0  0  0  0  0  0
    1.6910   -0.0793   -2.4049 H   0  0  0  0  0  0  0  0  0  0  0  0
   -0.9975   -0.5093   -2.8332 H   0  0  0  0  0  0  0  0  0  0  0  0
   -1.4848    0.3862    1.7875 H   0  0  0  0  0  0  0  0  0  0  0  0
   -0.1150    1.4684    1.8869 H   0  0  0  0  0  0  0  0  0  0  0  0
    0.0942   -0.3271    3.5843 H   0  0  0  0  0  0  0  0  0  0  0  0
    0.0170   -1.5630    2.3303 H   0  0  0  0  0  0  0  0  0  0  0  0
    1.3970   -0.4683    2.4063 H   0  0  0  0  0  0  0  0  0  0  0  0
  1  2  1  0
  1  5  1  0
  1  8  1  0
  2  3  2  0
  2  6  1  0
  3  4  1  0
  4  5  2  0
  4  9  1  0
  5 10  1  0
  6  7  1  0
  6 11  1  0
  6 12  1  0
  7 13  1  0
  7 14  1  0
  7 15  1  0
M  END
