
     RDKit          3D

 19 18  0  0  0  0  0  0  0  0999 V2000
    0.9062   -0.6577   -0.0274 C   0  0  0  0  0  0  0  0  0  0  0  0
   -0.2890    0.2805    0.0026 C   0  0  0  0  0  0  0  0  0  0  0  0
   -1.6050   -0.4857   -0.0340 C   0  0  0  0  0  0  0  0  0  0  0  0
   -2.8154    0.4349   -0.0119 C   0  0  0  0  0  0  0  0  0  0  0  0
    2.2351    0.0429    0.0226 C   0  0  0  0  0  0  0  0  0  0  0  0
    2.3938    1.2375    0.0735 O   0  0  0  0  0  0  0  0  0  0  0  0
    3.2486   -0.8193    0.0039 O   0  0  0  0  0  0  0  0  0  0  0  0
    0.8609   -1.3624    0.8092 H   0  0  0  0  0  0  0  0  0  0  0  0
   -0.2515    0.8996    0.9033 H   0  0  0  0  0  0  0  0  0  0  0  0
   -0.2428    0.9674   -0.8470 H   0  0  0  0  0  0  0  0  0  0  0  0
   -1.6485   -1.1131   -0.9301 H   0  0  0  0  0  0  0  0  0  0  0  0
   -1.6540   -1.1673    0.8230 H   0  0  0  0  0  0  0  0  0  0  0  0
   -2.7349    1.1059    0.8559 H   0  0  0  0  0  0  0  0  0  0  0  0
   -2.7901    1.0763   -0.8972 H   0  0  0  0  0  0  0  0  0  0  0  0
    4.0904   -0.3405    0.0304 H   0  0  0  0  0  0  0  0  0  0  0  0
   -4.0528   -0.3323   -0.0391 N   0  0  0  0  0  0  0  0  0  0  0  0
    0.8844   -1.2776   -0.9297 H   0  0  0  0  0  0  0  0  0  0  0  0
   -4.1470   -0.8383    0.8335 H   0  0  0  0  0  0  0  0  0  0  0  0
   -4.8424    0.2998   -0.0710 H   0  0  0  0  0  0  0  0  0  0  0  0
  6  5  2  0
  5  1  1  0
  1  2  1  0
  2  3  1  0
  3  4  1  0
  5  7  1  0
  1  8  1  0
  2  9  1  0
  2 10  1  0
  3 11  1  0
  3 12  1  0
  4 13  1  0
  4 16  1  0
  4 14  1  0
  7 15  1  0
  1 17  1  0
 16 18  1  0
 16 19  1  0
M  END
