
     RDKit          3D

 48 50  0  0  0  0  0  0  0  0999 V2000
    6.0359   -0.8672   -1.9303 O   0  0  0  0  0  0  0  0  0  0  0  0
    5.9941   -1.5522   -0.6998 C   0  0  0  0  0  0  0  0  0  0  0  0
    5.7031   -0.5795    0.4439 C   0  0  1  0  0  0  0  0  0  0  0  0
    6.8793    0.3143    0.8068 C   0  0  0  0  0  0  0  0  0  0  0  0
    7.1426    1.2401   -0.2243 O   0  0  0  0  0  0  0  0  0  0  0  0
    4.5127    0.2323    0.2725 N   0  0  0  0  0  0  0  0  0  0  0  0
    3.2800   -0.5080    0.1305 C   0  0  0  0  0  0  0  0  0  0  0  0
    2.0413    1.2099    1.3533 O   0  0  0  0  0  0  0  0  0  0  0  0
    0.7968   -0.3815    0.0215 C   0  0  0  0  0  0  0  0  0  0  0  0
   -0.2841    0.5283   -0.0317 O   0  0  0  0  0  0  0  0  0  0  0  0
   -1.5382    0.0579   -0.0591 C   0  0  0  0  0  0  0  0  0  0  0  0
   -2.5561    1.0823   -0.0470 C   0  0  0  0  0  0  0  0  0  0  0  0
   -2.2042    2.4443   -0.0077 C   0  0  0  0  0  0  0  0  0  0  0  0
   -3.1718    3.4201    0.0017 C   0  0  0  0  0  0  0  0  0  0  0  0
   -4.5226    3.0594   -0.0272 C   0  0  0  0  0  0  0  0  0  0  0  0
   -4.8831    1.7334   -0.0628 C   0  0  0  0  0  0  0  0  0  0  0  0
   -3.9182    0.7093   -0.0734 C   0  0  0  0  0  0  0  0  0  0  0  0
   -4.2801   -0.6946   -0.1070 C   0  0  0  0  0  0  0  0  0  0  0  0
   -5.6137   -1.1414   -0.1287 C   0  0  0  0  0  0  0  0  0  0  0  0
   -5.9185   -2.4828   -0.1592 C   0  0  0  0  0  0  0  0  0  0  0  0
   -4.8922   -3.4354   -0.1704 C   0  0  0  0  0  0  0  0  0  0  0  0
   -3.5812   -3.0255   -0.1500 C   0  0  0  0  0  0  0  0  0  0  0  0
   -3.2492   -1.6577   -0.1175 C   0  0  0  0  0  0  0  0  0  0  0  0
   -1.8781   -1.2557   -0.0944 C   0  0  0  0  0  0  0  0  0  0  0  0
    2.0741    0.4257    0.1869 C   0  0  2  0  0  0  0  0  0  0  0  0
    5.9777   -1.5182   -2.6343 H   0  0  0  0  0  0  0  0  0  0  0  0
    5.2163   -2.3260   -0.7082 H   0  0  0  0  0  0  0  0  0  0  0  0
    6.9399   -2.0702   -0.4864 H   0  0  0  0  0  0  0  0  0  0  0  0
    5.5473   -1.2124    1.3267 H   0  0  0  0  0  0  0  0  0  0  0  0
    6.6330    0.8262    1.7449 H   0  0  0  0  0  0  0  0  0  0  0  0
    7.7526   -0.3213    1.0084 H   0  0  0  0  0  0  0  0  0  0  0  0
    4.6356    0.8406   -0.5278 H   0  0  0  0  0  0  0  0  0  0  0  0
    7.7032    1.9311    0.1378 H   0  0  0  0  0  0  0  0  0  0  0  0
    3.2170   -1.0969   -0.7965 H   0  0  0  0  0  0  0  0  0  0  0  0
    3.2111   -1.2293    0.9543 H   0  0  0  0  0  0  0  0  0  0  0  0
    2.1430    1.1318   -0.6488 H   0  0  0  0  0  0  0  0  0  0  0  0
    2.2332    0.6430    2.1080 H   0  0  0  0  0  0  0  0  0  0  0  0
    0.6744   -1.0750    0.8636 H   0  0  0  0  0  0  0  0  0  0  0  0
    0.8404   -0.9788   -0.8964 H   0  0  0  0  0  0  0  0  0  0  0  0
   -1.1276   -2.0349   -0.1087 H   0  0  0  0  0  0  0  0  0  0  0  0
   -1.1619    2.7295    0.0190 H   0  0  0  0  0  0  0  0  0  0  0  0
   -2.8888    4.4641    0.0317 H   0  0  0  0  0  0  0  0  0  0  0  0
   -5.2884    3.8235   -0.0207 H   0  0  0  0  0  0  0  0  0  0  0  0
   -5.9357    1.4890   -0.0832 H   0  0  0  0  0  0  0  0  0  0  0  0
   -6.4281   -0.4301   -0.1207 H   0  0  0  0  0  0  0  0  0  0  0  0
   -6.9533   -2.7987   -0.1746 H   0  0  0  0  0  0  0  0  0  0  0  0
   -5.1300   -4.4912   -0.1939 H   0  0  0  0  0  0  0  0  0  0  0  0
   -2.7828   -3.7576   -0.1574 H   0  0  0  0  0  0  0  0  0  0  0  0
  1  2  1  0
  1 26  1  0
  2  3  1  0
  2 27  1  0
  2 28  1  0
  3  4  1  0
  3  6  1  0
  3 29  1  1
  4  5  1  0
  4 30  1  0
  4 31  1  0
  5 33  1  0
  6  7  1  0
  6 32  1  0
  7 25  1  0
  7 34  1  0
  7 35  1  0
  8 25  1  0
  8 37  1  0
  9 10  1  0
  9 25  1  0
  9 38  1  0
  9 39  1  0
 10 11  1  0
 11 12  2  0
 11 24  1  0
 12 13  1  0
 12 17  1  0
 13 14  2  0
 13 41  1  0
 14 15  1  0
 14 42  1  0
 15 16  2  0
 15 43  1  0
 16 17  1  0
 16 44  1  0
 17 18  2  0
 18 19  1  0
 18 23  1  0
 19 20  2  0
 19 45  1  0
 20 21  1  0
 20 46  1  0
 21 22  2  0
 21 47  1  0
 22 23  1  0
 22 48  1  0
 23 24  2  0
 24 40  1  0
 25 36  1  6
M  END
