
     RDKit          3D

 46 49  0  0  0  0  0  0  0  0999 V2000
   -4.8691   -0.4391   -1.0745 C   0  0  0  0  0  0  0  0  0  0  0  0
   -6.1009    0.1579   -1.2739 C   0  0  0  0  0  0  0  0  0  0  0  0
   -6.7938    0.6405   -0.1730 C   0  0  0  0  0  0  0  0  0  0  0  0
   -6.2822    0.5382    1.1122 C   0  0  0  0  0  0  0  0  0  0  0  0
   -5.0497   -0.0644    1.2913 C   0  0  0  0  0  0  0  0  0  0  0  0
   -4.3357   -0.5635    0.2057 C   0  0  0  0  0  0  0  0  0  0  0  0
   -2.9983   -1.2072    0.4087 C   0  0  0  0  0  0  0  0  0  0  0  0
   -0.2685   -0.7871    0.4655 C   0  0  0  0  0  0  0  0  0  0  0  0
    0.8698   -2.7290    0.8908 C   0  0  0  0  0  0  0  0  0  0  0  0
    2.0871   -0.9297    0.5447 C   0  0  0  0  0  0  0  0  0  0  0  0
    0.9568   -0.1315    0.3637 C   0  0  0  0  0  0  0  0  0  0  0  0
    2.6157    1.1493    0.1422 C   0  0  0  0  0  0  0  0  0  0  0  0
    4.5508   -0.4475    0.4397 C   0  0  2  0  0  0  0  0  0  0  0  0
    5.1372   -0.7574   -0.9415 C   0  0  1  0  0  0  0  0  0  0  0  0
    6.5898   -0.3101   -0.7608 C   0  0  1  0  0  0  0  0  0  0  0  0
    6.3889    0.9357    0.1003 C   0  0  1  0  0  0  0  0  0  0  0  0
    6.1321    2.1767   -0.7354 C   0  0  0  0  0  0  0  0  0  0  0  0
   -0.2883   -2.0841    0.7281 N   0  0  0  0  0  0  0  0  0  0  0  0
    2.0881   -2.2268    0.8117 N   0  0  0  0  0  0  0  0  0  0  0  0
    1.3138    1.1639    0.1163 N   0  0  0  0  0  0  0  0  0  0  0  0
    3.1452   -0.0856    0.3951 N   0  0  0  0  0  0  0  0  0  0  0  0
   -8.0911    1.2688   -0.3711 N   0  0  0  0  0  0  0  0  0  0  0  0
    5.2729    0.6302    0.9444 O   0  0  0  0  0  0  0  0  0  0  0  0
    5.7400    3.2203    0.1201 O   0  0  0  0  0  0  0  0  0  0  0  0
    7.2720   -1.3304   -0.0841 O   0  0  0  0  0  0  0  0  0  0  0  0
    4.9279   -2.0959   -1.2525 O   0  0  0  0  0  0  0  0  0  0  0  0
   -8.5403    1.3034   -1.4924 O   0  0  0  0  0  0  0  0  0  0  0  0
   -8.6543    1.7259    0.5953 O   0  0  0  0  0  0  0  0  0  0  0  0
   -1.7479    0.1081    0.2425 S   0  0  0  0  0  0  0  0  0  0  0  0
   -4.3213   -0.8189   -1.9273 H   0  0  0  0  0  0  0  0  0  0  0  0
   -6.5029    0.2422   -2.2727 H   0  0  0  0  0  0  0  0  0  0  0  0
   -6.8272    0.9133    1.9658 H   0  0  0  0  0  0  0  0  0  0  0  0
   -4.6456   -0.1545    2.2912 H   0  0  0  0  0  0  0  0  0  0  0  0
   -2.9175   -1.6564    1.3971 H   0  0  0  0  0  0  0  0  0  0  0  0
   -2.8087   -1.9728   -0.3416 H   0  0  0  0  0  0  0  0  0  0  0  0
    0.7926   -3.7871    1.1110 H   0  0  0  0  0  0  0  0  0  0  0  0
    3.2431    2.0182    0.0086 H   0  0  0  0  0  0  0  0  0  0  0  0
    4.6231   -1.3244    1.0919 H   0  0  0  0  0  0  0  0  0  0  0  0
    4.6674   -0.0953   -1.6814 H   0  0  0  0  0  0  0  0  0  0  0  0
    7.0657   -0.0640   -1.7189 H   0  0  0  0  0  0  0  0  0  0  0  0
    7.2483    1.1182    0.7528 H   0  0  0  0  0  0  0  0  0  0  0  0
    7.0602    2.4099   -1.2734 H   0  0  0  0  0  0  0  0  0  0  0  0
    5.3682    1.9760   -1.4992 H   0  0  0  0  0  0  0  0  0  0  0  0
    5.5972    4.0063   -0.4147 H   0  0  0  0  0  0  0  0  0  0  0  0
    8.1784   -1.0438    0.0664 H   0  0  0  0  0  0  0  0  0  0  0  0
    5.1479   -2.2354   -2.1790 H   0  0  0  0  0  0  0  0  0  0  0  0
 17 24  1  0
 17 16  1  0
 12 20  2  0
 12 21  1  0
 20 11  1  0
 23 16  1  0
 23 13  1  0
 15 16  1  0
 15 14  1  0
 15 25  1  0
 21 13  1  0
 21 10  1  0
 29  8  1  0
 29  7  1  0
 14 13  1  0
 14 26  1  0
 11 10  1  0
 11  8  2  0
  1  2  2  0
  1  6  1  0
  2  3  1  0
 28 22  1  0
 10 19  2  0
  8 18  1  0
  7  6  1  0
  6  5  2  0
  3 22  1  0
  3  4  2  0
 22 27  2  0
 18  9  2  0
 19  9  1  0
  5  4  1  0
  1 30  1  0
  2 31  1  0
  4 32  1  0
  5 33  1  0
  7 34  1  0
  7 35  1  0
  9 36  1  0
 12 37  1  0
 13 38  1  1
 14 39  1  6
 15 40  1  6
 16 41  1  1
 17 42  1  0
 17 43  1  0
 24 44  1  0
 25 45  1  0
 26 46  1  0
M  CHG  2  22   1  28  -1
M  END
