
     RDKit          3D

 30 31  0  0  0  0  0  0  0  0999 V2000
   -0.5586   -1.4045    0.0549 C   0  0  0  0  0  0  0  0  0  0  0  0
   -2.7671    0.1473   -1.1230 C   0  0  0  0  0  0  0  0  0  0  0  0
   -4.4361    1.7242   -0.3849 C   0  0  0  0  0  0  0  0  0  0  0  0
   -3.4440    0.1967    1.1941 C   0  0  0  0  0  0  0  0  0  0  0  0
    3.2142    1.0354    0.7338 C   0  0  0  0  0  0  0  0  0  0  0  0
    4.4167    0.9502    0.7122 O   0  0  0  0  0  0  0  0  0  0  0  0
    2.3639    0.9402   -0.5248 C   0  0  1  0  0  0  0  0  0  0  0  0
    3.1719    0.9728   -1.6592 O   0  0  0  0  0  0  0  0  0  0  0  0
    1.5289   -0.3238   -0.4451 C   0  0  0  0  0  0  0  0  0  0  0  0
    2.0923   -1.5571   -0.7547 C   0  0  0  0  0  0  0  0  0  0  0  0
    1.3242   -2.7068   -0.6450 C   0  0  0  0  0  0  0  0  0  0  0  0
   -0.0029   -2.6402   -0.2467 C   0  0  0  0  0  0  0  0  0  0  0  0
   -1.8527   -1.3933    0.4869 O   0  0  0  0  0  0  0  0  0  0  0  0
   -2.6673   -0.3374    0.1762 C   0  0  0  0  0  0  0  0  0  0  0  0
   -3.6510    1.1814   -1.3946 C   0  0  0  0  0  0  0  0  0  0  0  0
   -4.3330    1.2239    0.9058 C   0  0  0  0  0  0  0  0  0  0  0  0
    0.2040   -0.2463   -0.0384 C   0  0  0  0  0  0  0  0  0  0  0  0
   -2.1671   -0.2772   -1.9181 H   0  0  0  0  0  0  0  0  0  0  0  0
   -5.1255    2.5288   -0.6033 H   0  0  0  0  0  0  0  0  0  0  0  0
   -3.3580   -0.1928    2.2005 H   0  0  0  0  0  0  0  0  0  0  0  0
    3.0491    1.2239    2.6090 H   0  0  0  0  0  0  0  0  0  0  0  0
    1.6885    1.8045   -0.5349 H   0  0  0  0  0  0  0  0  0  0  0  0
    4.0896    0.8405   -1.3881 H   0  0  0  0  0  0  0  0  0  0  0  0
    3.1223   -1.6298   -1.0795 H   0  0  0  0  0  0  0  0  0  0  0  0
    1.7586   -3.6691   -0.8816 H   0  0  0  0  0  0  0  0  0  0  0  0
   -0.6036   -3.5373   -0.1687 H   0  0  0  0  0  0  0  0  0  0  0  0
   -3.7292    1.5589   -2.4058 H   0  0  0  0  0  0  0  0  0  0  0  0
   -4.9426    1.6370    1.6986 H   0  0  0  0  0  0  0  0  0  0  0  0
   -0.2271    0.7181    0.2038 H   0  0  0  0  0  0  0  0  0  0  0  0
    2.4874    1.1987    1.8190 O   0  0  0  0  0  0  0  0  0  0  0  0
 15  2  2  0
 15  3  1  0
  2 14  1  0
  3 16  2  0
 14 13  1  0
 14  4  2  0
 13  1  1  0
 16  4  1  0
  1 12  2  0
  1 17  1  0
 12 11  1  0
 17  9  2  0
  6  5  2  0
 30  5  1  0
 11 10  2  0
  5  7  1  0
  9 10  1  0
  9  7  1  0
  7  8  1  0
  2 18  1  0
  3 19  1  0
  4 20  1  0
 30 21  1  0
  7 22  1  6
  8 23  1  0
 10 24  1  0
 11 25  1  0
 12 26  1  0
 15 27  1  0
 16 28  1  0
 17 29  1  0
M  END
