
     RDKit          3D

 77 82  0  0  0  0  0  0  0  0999 V2000
    6.7546   -0.9492    0.8360 O   0  0  0  0  0  0  0  0  0  0  0  0
    5.9924   -0.7069   -0.0956 C   0  0  0  0  0  0  0  0  0  0  0  0
    6.2658    0.1841   -1.0647 N   0  0  0  0  0  0  0  0  0  0  0  0
    7.3954    1.1001   -1.0093 C   0  0  2  0  0  0  0  0  0  0  0  0
    6.9386    2.4712   -0.5025 C   0  0  0  0  0  0  0  0  0  0  0  0
    6.2970    2.4298    0.7820 N   0  0  0  0  0  0  0  0  0  0  0  0
    5.5420    3.6241    1.1120 C   0  0  0  0  0  0  0  0  0  0  0  0
    5.1648    3.4154    2.5795 C   0  0  0  0  0  0  0  0  0  0  0  0
    6.2544    2.4627    3.1185 C   0  0  0  0  0  0  0  0  0  0  0  0
    7.1718    2.2230    1.9192 C   0  0  0  0  0  0  0  0  0  0  0  0
    7.8820    1.1992   -2.4715 C   0  0  0  0  0  0  0  0  0  0  0  0
    6.8932    0.3577   -3.2914 C   0  0  0  0  0  0  0  0  0  0  0  0
    5.6701    0.2347   -2.3887 C   0  0  0  0  0  0  0  0  0  0  0  0
    4.6915   -1.4066   -0.1893 C   0  0  0  0  0  0  0  0  0  0  0  0
    3.4174   -0.8304   -0.2809 C   0  0  0  0  0  0  0  0  0  0  0  0
    3.0911    0.6216   -0.3732 C   0  0  0  0  0  0  0  0  0  0  0  0
    4.5292   -2.7904   -0.0589 C   0  0  0  0  0  0  0  0  0  0  0  0
    5.5505   -3.8550    0.1058 C   0  0  0  0  0  0  0  0  0  0  0  0
    3.2218   -3.0516   -0.1002 N   0  0  0  0  0  0  0  0  0  0  0  0
    2.4961   -1.8882   -0.2249 C   0  0  0  0  0  0  0  0  0  0  0  0
    1.0970   -1.7835   -0.2947 C   0  0  0  0  0  0  0  0  0  0  0  0
    0.1008   -2.7190   -0.2831 C   0  0  0  0  0  0  0  0  0  0  0  0
    0.2095   -4.1810   -0.1824 C   0  0  0  0  0  0  0  0  0  0  0  0
    1.2018   -4.8947   -0.0742 O   0  0  0  0  0  0  0  0  0  0  0  0
   -1.0737   -4.6651   -0.2295 N   0  0  0  0  0  0  0  0  0  0  0  0
   -2.0009   -3.6585   -0.3522 C   0  0  0  0  0  0  0  0  0  0  0  0
   -3.3790   -3.7429   -0.4411 C   0  0  0  0  0  0  0  0  0  0  0  0
   -4.0924   -2.5599   -0.5715 C   0  0  0  0  0  0  0  0  0  0  0  0
   -1.3177   -2.4307   -0.3853 C   0  0  0  0  0  0  0  0  0  0  0  0
   -2.0319   -1.2556   -0.5105 C   0  0  0  0  0  0  0  0  0  0  0  0
   -3.4191   -1.3412   -0.6046 C   0  0  0  0  0  0  0  0  0  0  0  0
   -4.3530    0.1460   -0.7562 S   0  0  1  0  0  0  0  0  0  0  0  0
   -3.4750    1.2082   -1.2368 O   0  0  0  0  0  0  0  0  0  0  0  0
   -5.5804   -0.1301   -1.4953 O   0  0  0  0  0  0  0  0  0  0  0  0
   -4.8070    0.5269    0.9560 C   0  0  0  0  0  0  0  0  0  0  0  0
   -5.5933    1.7941    0.9881 C   0  0  0  0  0  0  0  0  0  0  0  0
   -6.9856    1.7991    0.8630 C   0  0  0  0  0  0  0  0  0  0  0  0
   -7.8556    0.3086    0.7515 Cl  0  0  0  0  0  0  0  0  0  0  0  0
   -4.9732    3.0396    1.1237 C   0  0  0  0  0  0  0  0  0  0  0  0
   -3.2608    3.1391    1.3465 Cl  0  0  0  0  0  0  0  0  0  0  0  0
   -5.6890    4.2254    1.1220 C   0  0  0  0  0  0  0  0  0  0  0  0
   -7.0654    4.1851    0.9787 C   0  0  0  0  0  0  0  0  0  0  0  0
   -7.7220    2.9722    0.8586 C   0  0  0  0  0  0  0  0  0  0  0  0
    8.1626    0.6900   -0.3524 H   0  0  0  0  0  0  0  0  0  0  0  0
    5.0721   -0.6512   -2.5905 H   0  0  0  0  0  0  0  0  0  0  0  0
    5.0189    1.1082   -2.4895 H   0  0  0  0  0  0  0  0  0  0  0  0
    7.8118    3.1489   -0.5161 H   0  0  0  0  0  0  0  0  0  0  0  0
    6.2249    2.8839   -1.2235 H   0  0  0  0  0  0  0  0  0  0  0  0
    7.8766    2.2404   -2.7999 H   0  0  0  0  0  0  0  0  0  0  0  0
    8.9043    0.8397   -2.5813 H   0  0  0  0  0  0  0  0  0  0  0  0
    6.1532    4.5371    1.0045 H   0  0  0  0  0  0  0  0  0  0  0  0
    4.6770    3.7307    0.4539 H   0  0  0  0  0  0  0  0  0  0  0  0
    7.6074    1.2245    1.9094 H   0  0  0  0  0  0  0  0  0  0  0  0
    8.0026    2.9515    1.9230 H   0  0  0  0  0  0  0  0  0  0  0  0
    5.1279    4.3601    3.1217 H   0  0  0  0  0  0  0  0  0  0  0  0
    4.1782    2.9589    2.6625 H   0  0  0  0  0  0  0  0  0  0  0  0
    6.7995    2.8829    3.9634 H   0  0  0  0  0  0  0  0  0  0  0  0
    5.8123    1.5241    3.4529 H   0  0  0  0  0  0  0  0  0  0  0  0
    6.6496    0.8076   -4.2532 H   0  0  0  0  0  0  0  0  0  0  0  0
    7.3034   -0.6347   -3.4843 H   0  0  0  0  0  0  0  0  0  0  0  0
    2.8801    0.9221   -1.4014 H   0  0  0  0  0  0  0  0  0  0  0  0
    2.2156    0.8773    0.2238 H   0  0  0  0  0  0  0  0  0  0  0  0
    3.9238    1.2268   -0.0152 H   0  0  0  0  0  0  0  0  0  0  0  0
    5.7780   -4.0161    1.1609 H   0  0  0  0  0  0  0  0  0  0  0  0
    5.2034   -4.8006   -0.3081 H   0  0  0  0  0  0  0  0  0  0  0  0
    6.4802   -3.5840   -0.3895 H   0  0  0  0  0  0  0  0  0  0  0  0
    2.7718   -3.9662   -0.0548 H   0  0  0  0  0  0  0  0  0  0  0  0
    0.7588   -0.7553   -0.3814 H   0  0  0  0  0  0  0  0  0  0  0  0
   -1.2936   -5.6485   -0.1812 H   0  0  0  0  0  0  0  0  0  0  0  0
   -3.8905   -4.6955   -0.4182 H   0  0  0  0  0  0  0  0  0  0  0  0
   -5.1704   -2.5987   -0.6522 H   0  0  0  0  0  0  0  0  0  0  0  0
   -1.5299   -0.2971   -0.5429 H   0  0  0  0  0  0  0  0  0  0  0  0
   -5.3708   -0.3261    1.3322 H   0  0  0  0  0  0  0  0  0  0  0  0
   -3.8785    0.5945    1.5221 H   0  0  0  0  0  0  0  0  0  0  0  0
   -8.7980    2.9382    0.7639 H   0  0  0  0  0  0  0  0  0  0  0  0
   -5.1761    5.1703    1.2333 H   0  0  0  0  0  0  0  0  0  0  0  0
   -7.6329    5.1054    0.9715 H   0  0  0  0  0  0  0  0  0  0  0  0
  1  2  2  0
  2  3  1  0
  2 14  1  0
  3  4  1  0
  3 13  1  0
  4  5  1  0
  4 11  1  0
  5  6  1  0
  6  7  1  0
  6 10  1  0
  7  8  1  0
  8  9  1  0
  9 10  1  0
 11 12  1  0
 12 13  1  0
 14 15  1  0
 14 17  2  0
 15 16  1  0
 15 20  2  0
 17 18  1  0
 17 19  1  0
 19 20  1  0
 20 21  1  0
 21 22  2  0
 22 23  1  0
 22 29  1  0
 23 24  2  0
 23 25  1  0
 25 26  1  0
 26 27  1  0
 26 29  2  0
 27 28  2  0
 28 31  1  0
 29 30  1  0
 30 31  2  0
 31 32  1  0
 32 33  2  0
 32 34  2  0
 32 35  1  1
 35 36  1  0
 36 37  2  0
 36 39  1  0
 37 38  1  0
 37 43  1  0
 39 40  1  0
 39 41  2  0
 41 42  1  0
 42 43  2  0
  4 44  1  1
 13 45  1  0
 13 46  1  0
  5 47  1  0
  5 48  1  0
 11 49  1  0
 11 50  1  0
  7 51  1  0
  7 52  1  0
 10 53  1  0
 10 54  1  0
  8 55  1  0
  8 56  1  0
  9 57  1  0
  9 58  1  0
 12 59  1  0
 12 60  1  0
 16 61  1  0
 16 62  1  0
 16 63  1  0
 18 64  1  0
 18 65  1  0
 18 66  1  0
 19 67  1  0
 21 68  1  0
 25 69  1  0
 27 70  1  0
 28 71  1  0
 30 72  1  0
 35 73  1  0
 35 74  1  0
 43 75  1  0
 41 76  1  0
 42 77  1  0
M  END
