
     RDKit          3D

 34 35  0  0  0  0  0  0  0  0999 V2000
    1.8854    2.0108   -0.9396 C   0  0  0  0  0  0  0  0  0  0  0  0
   -4.1090    0.2867    1.1612 C   0  0  0  0  0  0  0  0  0  0  0  0
    4.9574   -1.3264    0.2572 C   0  0  0  0  0  0  0  0  0  0  0  0
    3.7671   -0.4030    0.4945 C   0  0  2  0  0  0  0  0  0  0  0  0
    3.0442   -0.2263   -0.8641 C   0  0  0  0  0  0  0  0  0  0  0  0
    1.8306    0.6371   -0.7264 C   0  0  0  0  0  0  0  0  0  0  0  0
    0.6088    0.1009   -0.3349 C   0  0  0  0  0  0  0  0  0  0  0  0
   -0.4776    0.9490   -0.1760 C   0  0  0  0  0  0  0  0  0  0  0  0
    0.7405    2.7744   -0.7598 C   0  0  0  0  0  0  0  0  0  0  0  0
   -1.7948    0.4316    0.2259 C   0  0  0  0  0  0  0  0  0  0  0  0
   -3.4415   -1.0260    0.6986 C   0  0  1  0  0  0  0  0  0  0  0  0
   -4.0986   -1.5486   -0.5722 C   0  0  0  0  0  0  0  0  0  0  0  0
   -0.4196    2.2605   -0.3828 N   0  0  0  0  0  0  0  0  0  0  0  0
   -2.0433   -0.7899    0.4337 N   0  0  0  0  0  0  0  0  0  0  0  0
    4.2455    0.8148    1.1072 N   0  0  0  0  0  0  0  0  0  0  0  0
   -3.6063   -1.5009   -1.6671 O   0  0  0  0  0  0  0  0  0  0  0  0
    6.0095   -0.8950   -0.1910 O   0  0  0  0  0  0  0  0  0  0  0  0
   -3.1051    1.6014    0.4092 S   0  0  0  0  0  0  0  0  0  0  0  0
    2.8043    2.4857   -1.2577 H   0  0  0  0  0  0  0  0  0  0  0  0
   -5.1489    0.3827    0.8563 H   0  0  0  0  0  0  0  0  0  0  0  0
   -4.0592    0.3775    2.2454 H   0  0  0  0  0  0  0  0  0  0  0  0
    3.0716   -0.8817    1.1904 H   0  0  0  0  0  0  0  0  0  0  0  0
    3.7408    0.2221   -1.5765 H   0  0  0  0  0  0  0  0  0  0  0  0
    2.7572   -1.2052   -1.2553 H   0  0  0  0  0  0  0  0  0  0  0  0
    0.4944   -0.9617   -0.1625 H   0  0  0  0  0  0  0  0  0  0  0  0
    0.7666    3.8445   -0.9287 H   0  0  0  0  0  0  0  0  0  0  0  0
   -3.5553   -1.7835    1.4777 H   0  0  0  0  0  0  0  0  0  0  0  0
   -5.7291   -2.3312   -1.1335 H   0  0  0  0  0  0  0  0  0  0  0  0
    5.4485   -3.3094    0.3316 H   0  0  0  0  0  0  0  0  0  0  0  0
    3.8712   -2.9441    0.9103 H   0  0  0  0  0  0  0  0  0  0  0  0
    4.8616    1.3065    0.4710 H   0  0  0  0  0  0  0  0  0  0  0  0
    3.4740    1.4376    1.3102 H   0  0  0  0  0  0  0  0  0  0  0  0
   -5.3005   -2.0426   -0.3134 O   0  0  0  0  0  0  0  0  0  0  0  0
    4.7424   -2.6184    0.5294 N   0  0  0  0  0  0  0  0  0  0  0  0
 16 12  2  0
  2 11  1  0
  2 18  1  0
 11 12  1  0
 11 14  1  0
 18 10  1  0
 14 10  2  0
 10  8  1  0
 13  8  2  0
 13  9  1  0
  8  7  1  0
  9  1  2  0
  7  6  2  0
  1  6  1  0
  6  5  1  0
  5  4  1  0
 15  4  1  0
  4  3  1  0
  3 17  2  0
  3 34  1  0
  1 19  1  0
  2 20  1  0
  2 21  1  0
  4 22  1  1
  5 23  1  0
  5 24  1  0
  7 25  1  0
  9 26  1  0
 11 27  1  1
 34 29  1  0
 34 30  1  0
 15 31  1  0
 15 32  1  0
 12 33  1  0
 33 28  1  0
M  END
