
     RDKit          3D

 19 20  0  0  0  0  0  0  0  0999 V2000
   -2.3220    0.9441   -0.0976 Br  0  0  0  0  0  0  0  0  0  0  0  0
   -0.8722   -0.2496   -0.0369 C   0  0  0  0  0  0  0  0  0  0  0  0
   -1.0832   -1.6252   -0.0073 C   0  0  0  0  0  0  0  0  0  0  0  0
   -0.0288   -2.5397    0.0407 C   0  0  0  0  0  0  0  0  0  0  0  0
   -0.3122   -4.0133    0.0519 C   0  0  0  0  0  0  0  0  0  0  0  0
    1.2739   -2.0507    0.0626 C   0  0  0  0  0  0  0  0  0  0  0  0
    0.4234    0.2238   -0.0180 C   0  0  0  0  0  0  0  0  0  0  0  0
    0.8856    1.5343   -0.0370 N   0  0  0  0  0  0  0  0  0  0  0  0
    2.2428    1.5841    0.0006 C   0  0  0  0  0  0  0  0  0  0  0  0
    2.9580    2.5516   -0.0024 O   0  0  0  0  0  0  0  0  0  0  0  0
    2.7099    0.1044    0.0492 C   0  0  0  0  0  0  0  0  0  0  0  0
    1.4830   -0.6838    0.0328 C   0  0  0  0  0  0  0  0  0  0  0  0
    3.8622   -0.2312    0.0903 O   0  0  0  0  0  0  0  0  0  0  0  0
   -2.0993   -2.0011   -0.0203 H   0  0  0  0  0  0  0  0  0  0  0  0
   -0.6612   -4.3519   -0.9247 H   0  0  0  0  0  0  0  0  0  0  0  0
    0.5807   -4.5847    0.3001 H   0  0  0  0  0  0  0  0  0  0  0  0
   -1.0853   -4.2648    0.7778 H   0  0  0  0  0  0  0  0  0  0  0  0
    2.1166   -2.7295    0.1020 H   0  0  0  0  0  0  0  0  0  0  0  0
    0.2934    2.3514   -0.0749 H   0  0  0  0  0  0  0  0  0  0  0  0
  1  2  1  0
  3  2  2  0
  3  4  1  0
  2  7  1  0
  5  4  1  0
  4  6  2  0
  7  8  1  0
  7 12  2  0
  8  9  1  0
  6 12  1  0
 12 11  1  0
  9 11  1  0
  9 10  2  0
 11 13  2  0
  3 14  1  0
  5 15  1  0
  5 16  1  0
  5 17  1  0
  6 18  1  0
  8 19  1  0
M  END
