
     RDKit          3D

 54 58  0  0  0  0  0  0  0  0999 V2000
    7.5294    1.5920    1.0045 C   0  0  0  0  0  0  0  0  0  0  0  0
    5.3537    0.3896    0.7811 C   0  0  0  0  0  0  0  0  0  0  0  0
    4.1913    0.6126    0.0644 C   0  0  0  0  0  0  0  0  0  0  0  0
    4.4559    1.8179   -0.6173 C   0  0  0  0  0  0  0  0  0  0  0  0
    2.9869   -0.2107    0.0290 C   0  0  0  0  0  0  0  0  0  0  0  0
    2.7570   -1.1943    0.9924 C   0  0  0  0  0  0  0  0  0  0  0  0
    0.8877   -0.8251   -1.0105 C   0  0  0  0  0  0  0  0  0  0  0  0
    2.0284   -0.0435   -0.9744 C   0  0  0  0  0  0  0  0  0  0  0  0
   -2.4868   -4.5409   -0.4699 C   0  0  0  0  0  0  0  0  0  0  0  0
   -2.8201   -3.1991   -0.3548 C   0  0  0  0  0  0  0  0  0  0  0  0
   -1.8285   -2.2226   -0.1932 C   0  0  0  0  0  0  0  0  0  0  0  0
   -1.7480   -0.1866    1.1619 C   0  0  0  0  0  0  0  0  0  0  0  0
   -2.1938    2.0212    0.0294 C   0  0  1  0  0  0  0  0  0  0  0  0
   -3.4820    2.4478    0.7480 C   0  0  0  0  0  0  0  0  0  0  0  0
   -1.5885    3.3608   -0.3836 C   0  0  0  0  0  0  0  0  0  0  0  0
   -0.4404    3.5405   -0.7568 O   0  0  0  0  0  0  0  0  0  0  0  0
   -3.0164   -0.1719   -0.9284 C   0  0  0  0  0  0  0  0  0  0  0  0
    6.1877    1.4032    0.5074 N   0  0  0  0  0  0  0  0  0  0  0  0
    5.6589    2.2808   -0.3393 N   0  0  0  0  0  0  0  0  0  0  0  0
    1.6206   -1.9851    0.9485 C   0  0  0  0  0  0  0  0  0  0  0  0
    0.6663   -1.8125   -0.0515 C   0  0  0  0  0  0  0  0  0  0  0  0
   -0.5049   -2.7089   -0.1387 C   0  0  0  0  0  0  0  0  0  0  0  0
   -0.2876   -4.0772   -0.2296 C   0  0  0  0  0  0  0  0  0  0  0  0
   -1.2433   -4.9819   -0.4008 N   0  0  0  0  0  0  0  0  0  0  0  0
   -2.0732   -0.8694   -0.0792 N   0  0  0  0  0  0  0  0  0  0  0  0
   -1.2315    1.2180    0.8979 C   0  0  0  0  0  0  0  0  0  0  0  0
   -3.8403    3.7959    0.1211 C   0  0  0  0  0  0  0  0  0  0  0  0
   -2.5479    4.2946   -0.2944 N   0  0  0  0  0  0  0  0  0  0  0  0
   -2.4854    1.2191   -1.2510 C   0  0  0  0  0  0  0  0  0  0  0  0
    7.6160    2.5617    1.4899 H   0  0  0  0  0  0  0  0  0  0  0  0
    7.7496    0.8137    1.7291 H   0  0  0  0  0  0  0  0  0  0  0  0
    8.2494    1.5323    0.1907 H   0  0  0  0  0  0  0  0  0  0  0  0
    5.6391   -0.4133    1.4423 H   0  0  0  0  0  0  0  0  0  0  0  0
    3.8089    2.3647   -1.2869 H   0  0  0  0  0  0  0  0  0  0  0  0
    3.4697   -1.3434    1.7939 H   0  0  0  0  0  0  0  0  0  0  0  0
    0.1687   -0.6782   -1.8056 H   0  0  0  0  0  0  0  0  0  0  0  0
    2.1772    0.6982   -1.7490 H   0  0  0  0  0  0  0  0  0  0  0  0
   -3.2721   -5.2778   -0.5975 H   0  0  0  0  0  0  0  0  0  0  0  0
   -2.6363   -0.1519    1.8094 H   0  0  0  0  0  0  0  0  0  0  0  0
   -0.9943   -0.7565    1.7046 H   0  0  0  0  0  0  0  0  0  0  0  0
   -4.2948    1.7272    0.6622 H   0  0  0  0  0  0  0  0  0  0  0  0
   -3.2798    2.5829    1.8134 H   0  0  0  0  0  0  0  0  0  0  0  0
   -3.1469   -0.7275   -1.8571 H   0  0  0  0  0  0  0  0  0  0  0  0
   -4.0064   -0.0831   -0.4659 H   0  0  0  0  0  0  0  0  0  0  0  0
    1.4700   -2.7397    1.7109 H   0  0  0  0  0  0  0  0  0  0  0  0
    0.7304   -4.4511   -0.1958 H   0  0  0  0  0  0  0  0  0  0  0  0
   -1.0687    1.7252    1.8526 H   0  0  0  0  0  0  0  0  0  0  0  0
   -0.2658    1.1501    0.3935 H   0  0  0  0  0  0  0  0  0  0  0  0
   -4.5177    3.6890   -0.7308 H   0  0  0  0  0  0  0  0  0  0  0  0
   -4.3118    4.4718    0.8339 H   0  0  0  0  0  0  0  0  0  0  0  0
   -2.4101    5.2365   -0.6271 H   0  0  0  0  0  0  0  0  0  0  0  0
   -3.2211    1.7359   -1.8742 H   0  0  0  0  0  0  0  0  0  0  0  0
   -1.5683    1.1332   -1.8405 H   0  0  0  0  0  0  0  0  0  0  0  0
   -4.5031   -2.8031   -0.3116 Cl  0  0  0  0  0  0  0  0  0  0  0  0
  1 18  1  0
 18 19  1  0
 18  2  1  0
 19  4  2  0
  2  3  2  0
  4  3  1  0
  3  5  1  0
  6  5  2  0
  6 20  1  0
  5  8  1  0
 20 21  2  0
  8  7  2  0
 21  7  1  0
 21 22  1  0
 23 22  2  0
 23 24  1  0
 22 11  1  0
 24  9  2  0
 17 25  1  0
 17 29  1  0
 11 25  1  0
 11 10  2  0
 25 12  1  0
 14 13  1  0
 14 27  1  0
  9 10  1  0
 29 13  1  0
 10 54  1  0
 12 26  1  0
 13 26  1  0
 13 15  1  6
 27 28  1  0
 15 28  1  0
 15 16  2  0
  1 30  1  0
  1 31  1  0
  1 32  1  0
  2 33  1  0
  4 34  1  0
  6 35  1  0
  7 36  1  0
  8 37  1  0
  9 38  1  0
 12 39  1  0
 12 40  1  0
 14 41  1  0
 14 42  1  0
 17 43  1  0
 17 44  1  0
 20 45  1  0
 23 46  1  0
 26 47  1  0
 26 48  1  0
 27 49  1  0
 27 50  1  0
 28 51  1  0
 29 52  1  0
 29 53  1  0
M  END
