
     RDKit          3D

 58 58  0  0  0  0  0  0  0  0999 V2000
   -5.2980    0.7232    0.0402 C   0  0  2  0  0  0  0  0  0  0  0  0
   -5.6657    0.0403    1.3356 C   0  0  0  0  0  0  0  0  0  0  0  0
   -5.2139   -1.1490    1.7256 C   0  0  0  0  0  0  0  0  0  0  0  0
   -4.3198   -1.9966    0.8742 C   0  0  0  0  0  0  0  0  0  0  0  0
   -4.3115   -1.5012   -0.5674 C   0  0  1  0  0  0  0  0  0  0  0  0
   -4.0628    0.0198   -0.5991 C   0  0  2  0  0  0  0  0  0  0  0  0
   -2.7464    0.4765    0.0486 C   0  0  0  0  0  0  0  0  0  0  0  0
   -1.4518   -0.0263   -0.5873 C   0  0  0  0  0  0  0  0  0  0  0  0
   -0.1983    0.7083   -0.0943 C   0  0  1  0  0  0  0  0  0  0  0  0
    1.0577   -0.0386   -0.5513 C   0  0  0  0  0  0  0  0  0  0  0  0
    2.3631    0.4662    0.0544 C   0  0  0  0  0  0  0  0  0  0  0  0
    3.5564   -0.3849   -0.3626 C   0  0  0  0  0  0  0  0  0  0  0  0
    4.9069    0.0980    0.1724 C   0  0  2  0  0  0  0  0  0  0  0  0
    6.0161   -0.7663   -0.4221 C   0  0  0  0  0  0  0  0  0  0  0  0
    7.4075   -0.2477   -0.1834 C   0  0  0  0  0  0  0  0  0  0  0  0
   -5.0471    2.2074    0.3417 C   0  0  0  0  0  0  0  0  0  0  0  0
   -6.4954    0.6769   -0.9245 C   0  0  0  0  0  0  0  0  0  0  0  0
   -3.4185   -2.3551   -1.4639 C   0  0  0  0  0  0  0  0  0  0  0  0
   -0.1674    2.1657   -0.5474 C   0  0  0  0  0  0  0  0  0  0  0  0
    4.9521    0.0778    1.6978 C   0  0  0  0  0  0  0  0  0  0  0  0
    8.3204   -1.2127   -0.2546 O   0  0  0  0  0  0  0  0  0  0  0  0
    7.6937    0.9079    0.0130 O   0  0  0  0  0  0  0  0  0  0  0  0
   -6.3437    0.5873    1.9868 H   0  0  0  0  0  0  0  0  0  0  0  0
   -5.5131   -1.5425    2.6920 H   0  0  0  0  0  0  0  0  0  0  0  0
   -3.3011   -2.0093    1.2833 H   0  0  0  0  0  0  0  0  0  0  0  0
   -4.6575   -3.0374    0.9102 H   0  0  0  0  0  0  0  0  0  0  0  0
   -5.3276   -1.6506   -0.9449 H   0  0  0  0  0  0  0  0  0  0  0  0
   -4.0227    0.3333   -1.6519 H   0  0  0  0  0  0  0  0  0  0  0  0
   -2.7254    1.5657    0.0051 H   0  0  0  0  0  0  0  0  0  0  0  0
   -2.7380    0.2272    1.1150 H   0  0  0  0  0  0  0  0  0  0  0  0
   -1.3157   -1.0882   -0.3755 H   0  0  0  0  0  0  0  0  0  0  0  0
   -1.5130    0.0606   -1.6792 H   0  0  0  0  0  0  0  0  0  0  0  0
   -0.2148    0.6885    1.0042 H   0  0  0  0  0  0  0  0  0  0  0  0
    0.9466   -1.0990   -0.2985 H   0  0  0  0  0  0  0  0  0  0  0  0
    1.1203    0.0039   -1.6455 H   0  0  0  0  0  0  0  0  0  0  0  0
    2.5461    1.5040   -0.2410 H   0  0  0  0  0  0  0  0  0  0  0  0
    2.2637    0.4714    1.1442 H   0  0  0  0  0  0  0  0  0  0  0  0
    3.3945   -1.4218   -0.0442 H   0  0  0  0  0  0  0  0  0  0  0  0
    3.6020   -0.4096   -1.4570 H   0  0  0  0  0  0  0  0  0  0  0  0
    5.0559    1.1283   -0.1676 H   0  0  0  0  0  0  0  0  0  0  0  0
    5.9376   -1.7951   -0.0604 H   0  0  0  0  0  0  0  0  0  0  0  0
    5.8970   -0.8262   -1.5109 H   0  0  0  0  0  0  0  0  0  0  0  0
   -4.3169    2.3595    1.1357 H   0  0  0  0  0  0  0  0  0  0  0  0
   -4.6965    2.7359   -0.5478 H   0  0  0  0  0  0  0  0  0  0  0  0
   -5.9757    2.6852    0.6618 H   0  0  0  0  0  0  0  0  0  0  0  0
   -7.3768    1.1342   -0.4705 H   0  0  0  0  0  0  0  0  0  0  0  0
   -6.2671    1.2325   -1.8375 H   0  0  0  0  0  0  0  0  0  0  0  0
   -6.7706   -0.3377   -1.2105 H   0  0  0  0  0  0  0  0  0  0  0  0
   -3.9081   -3.3061   -1.6816 H   0  0  0  0  0  0  0  0  0  0  0  0
   -3.2184   -1.8639   -2.4175 H   0  0  0  0  0  0  0  0  0  0  0  0
   -2.4601   -2.5920   -1.0059 H   0  0  0  0  0  0  0  0  0  0  0  0
   -1.0558    2.7152   -0.2350 H   0  0  0  0  0  0  0  0  0  0  0  0
    0.6916    2.6992   -0.1393 H   0  0  0  0  0  0  0  0  0  0  0  0
   -0.1076    2.2294   -1.6372 H   0  0  0  0  0  0  0  0  0  0  0  0
    5.9286    0.3757    2.0812 H   0  0  0  0  0  0  0  0  0  0  0  0
    4.2200    0.7605    2.1288 H   0  0  0  0  0  0  0  0  0  0  0  0
    4.7357   -0.9236    2.0793 H   0  0  0  0  0  0  0  0  0  0  0  0
    9.2077   -0.8362   -0.1544 H   0  0  0  0  0  0  0  0  0  0  0  0
 19  9  1  0
 10  9  1  0
 10 11  1  0
 14 15  1  0
 14 13  1  0
  9  8  1  0
 12 11  1  0
 12 13  1  0
 15 22  2  0
 15 21  1  0
 13 20  1  0
  8  7  1  0
  7  6  1  0
  1 17  1  6
 16  1  1  0
  6  1  1  0
  6  5  1  0
  1  2  1  0
 18  5  1  0
  5  4  1  0
  2  3  2  0
  4  3  1  0
  2 23  1  0
  3 24  1  0
  4 25  1  0
  4 26  1  0
  5 27  1  6
  6 28  1  6
  7 29  1  0
  7 30  1  0
  8 31  1  0
  8 32  1  0
  9 33  1  1
 10 34  1  0
 10 35  1  0
 11 36  1  0
 11 37  1  0
 12 38  1  0
 12 39  1  0
 13 40  1  6
 14 41  1  0
 14 42  1  0
 16 43  1  0
 16 44  1  0
 16 45  1  0
 17 46  1  0
 17 47  1  0
 17 48  1  0
 18 49  1  0
 18 50  1  0
 18 51  1  0
 19 52  1  0
 19 53  1  0
 19 54  1  0
 20 55  1  0
 20 56  1  0
 20 57  1  0
 21 58  1  0
M  END
