
     RDKit          3D

 23 23  0  0  0  0  0  0  0  0999 V2000
    2.6227    0.0569    0.0600 N   0  0  0  0  0  0  0  0  0  0  0  0
    1.1761    0.0274    0.2679 C   0  0  2  0  0  0  0  0  0  0  0  0
    0.6673   -1.3312   -0.2164 C   0  0  0  0  0  0  0  0  0  0  0  0
   -0.7816   -1.6701    0.1133 C   0  0  0  0  0  0  0  0  0  0  0  0
   -1.8323   -0.6519   -0.3248 C   0  0  0  0  0  0  0  0  0  0  0  0
   -1.7855    0.6452    0.4834 C   0  0  0  0  0  0  0  0  0  0  0  0
   -0.7917    1.6974   -0.0117 C   0  0  0  0  0  0  0  0  0  0  0  0
    0.5522    1.1789   -0.5258 C   0  0  0  0  0  0  0  0  0  0  0  0
    2.9961    0.9336    0.4039 H   0  0  0  0  0  0  0  0  0  0  0  0
    3.0603   -0.6645    0.6207 H   0  0  0  0  0  0  0  0  0  0  0  0
    0.9124    0.1443    1.3327 H   0  0  0  0  0  0  0  0  0  0  0  0
    0.8168   -1.3771   -1.3011 H   0  0  0  0  0  0  0  0  0  0  0  0
    1.2980   -2.1174    0.2125 H   0  0  0  0  0  0  0  0  0  0  0  0
   -1.0113   -2.6377   -0.3421 H   0  0  0  0  0  0  0  0  0  0  0  0
   -0.8813   -1.8191    1.1943 H   0  0  0  0  0  0  0  0  0  0  0  0
   -1.7388   -0.4419   -1.3961 H   0  0  0  0  0  0  0  0  0  0  0  0
   -2.8169   -1.1092   -0.1964 H   0  0  0  0  0  0  0  0  0  0  0  0
   -2.7781    1.1023    0.5055 H   0  0  0  0  0  0  0  0  0  0  0  0
   -1.5621    0.3899    1.5241 H   0  0  0  0  0  0  0  0  0  0  0  0
   -1.2555    2.2772   -0.8146 H   0  0  0  0  0  0  0  0  0  0  0  0
   -0.6168    2.4094    0.8000 H   0  0  0  0  0  0  0  0  0  0  0  0
    1.2484    2.0231   -0.5360 H   0  0  0  0  0  0  0  0  0  0  0  0
    0.4592    0.8629   -1.5696 H   0  0  0  0  0  0  0  0  0  0  0  0
  1  2  1  0
  2  3  1  0
  2  8  1  0
  3  4  1  0
  4  5  1  0
  5  6  1  0
  6  7  1  0
  7  8  1  0
  1  9  1  0
  1 10  1  0
  2 11  1  1
  3 12  1  0
  3 13  1  0
  4 14  1  0
  4 15  1  0
  5 16  1  0
  5 17  1  0
  6 18  1  0
  6 19  1  0
  7 20  1  0
  7 21  1  0
  8 22  1  0
  8 23  1  0
M  END
