
     RDKit          3D

 41 44  0  0  0  0  0  0  0  0999 V2000
   -0.0869   -2.2489    0.3211 C   0  0  0  0  0  0  0  0  0  0  0  0
    1.2734   -2.4964    0.4090 C   0  0  0  0  0  0  0  0  0  0  0  0
    2.1846   -1.5907    0.1178 N   0  0  0  0  0  0  0  0  0  0  0  0
    1.7308   -0.3911   -0.2644 C   0  0  0  0  0  0  0  0  0  0  0  0
    4.0530    0.4391   -0.3847 C   0  0  1  0  0  0  0  0  0  0  0  0
    4.7840    1.4514   -1.2586 C   0  0  0  0  0  0  0  0  0  0  0  0
    5.9841    0.6111    1.1913 C   0  0  0  0  0  0  0  0  0  0  0  0
    4.4680    0.6392    1.0728 C   0  0  0  0  0  0  0  0  0  0  0  0
   -0.4754   -0.9752   -0.0998 C   0  0  0  0  0  0  0  0  0  0  0  0
   -1.8846   -0.5473   -0.2298 C   0  0  0  0  0  0  0  0  0  0  0  0
   -2.8157   -1.3154   -0.9377 C   0  0  0  0  0  0  0  0  0  0  0  0
   -5.8389    0.9877   -0.4834 C   0  0  0  0  0  0  0  0  0  0  0  0
   -4.2593    2.2793    0.6947 C   0  0  0  0  0  0  0  0  0  0  0  0
   -3.5880    1.0594    0.1871 C   0  0  0  0  0  0  0  0  0  0  0  0
   -2.2707    0.6676    0.3289 C   0  0  0  0  0  0  0  0  0  0  0  0
   -1.2048   -3.4728    0.8032 Cl  0  0  0  0  0  0  0  0  0  0  0  0
    2.6251    0.5590   -0.5821 N   0  0  0  0  0  0  0  0  0  0  0  0
    6.2817    1.3823   -0.9959 C   0  0  0  0  0  0  0  0  0  0  0  0
    6.5931    1.5796    0.3651 O   0  0  0  0  0  0  0  0  0  0  0  0
    0.4385   -0.0609   -0.3774 N   0  0  0  0  0  0  0  0  0  0  0  0
   -4.1313   -0.9003   -1.0904 C   0  0  0  0  0  0  0  0  0  0  0  0
   -4.5112    0.2956   -0.5076 C   0  0  0  0  0  0  0  0  0  0  0  0
   -5.5393    2.1797    0.2769 N   0  0  0  0  0  0  0  0  0  0  0  0
   -3.7647    3.1821    1.3489 O   0  0  0  0  0  0  0  0  0  0  0  0
    1.6293   -3.4665    0.7394 H   0  0  0  0  0  0  0  0  0  0  0  0
    4.3511   -0.5664   -0.6971 H   0  0  0  0  0  0  0  0  0  0  0  0
    4.5925    1.2566   -2.3163 H   0  0  0  0  0  0  0  0  0  0  0  0
    4.4209    2.4612   -1.0385 H   0  0  0  0  0  0  0  0  0  0  0  0
    6.2945    0.8233    2.2155 H   0  0  0  0  0  0  0  0  0  0  0  0
    6.3548   -0.3937    0.9373 H   0  0  0  0  0  0  0  0  0  0  0  0
    4.0845    1.5998    1.4313 H   0  0  0  0  0  0  0  0  0  0  0  0
    4.0400   -0.1431    1.7038 H   0  0  0  0  0  0  0  0  0  0  0  0
   -2.5053   -2.2432   -1.3990 H   0  0  0  0  0  0  0  0  0  0  0  0
   -6.1938    1.2277   -1.4889 H   0  0  0  0  0  0  0  0  0  0  0  0
   -6.6064    0.3808    0.0037 H   0  0  0  0  0  0  0  0  0  0  0  0
   -1.5604    1.2792    0.8708 H   0  0  0  0  0  0  0  0  0  0  0  0
    2.2477    1.4732   -0.7780 H   0  0  0  0  0  0  0  0  0  0  0  0
    6.6683    0.4111   -1.3389 H   0  0  0  0  0  0  0  0  0  0  0  0
    6.8013    2.1583   -1.5597 H   0  0  0  0  0  0  0  0  0  0  0  0
   -4.8307   -1.5031   -1.6546 H   0  0  0  0  0  0  0  0  0  0  0  0
   -6.2388    2.8714    0.4943 H   0  0  0  0  0  0  0  0  0  0  0  0
 19  7  1  0
 19 18  1  0
  7  8  1  0
  8  5  1  0
 18  6  1  0
  6  5  1  0
  5 17  1  0
 17  4  1  0
  4 20  2  0
  4  3  1  0
 20  9  1  0
  3  2  2  0
 11 21  2  0
 11 10  1  0
 21 22  1  0
  9 10  1  0
  9  1  2  0
 10 15  2  0
 22 12  1  0
 22 14  2  0
 12 23  1  0
 15 14  1  0
 14 13  1  0
  2  1  1  0
 23 13  1  0
  1 16  1  0
 13 24  2  0
  2 25  1  0
  5 26  1  6
  6 27  1  0
  6 28  1  0
  7 29  1  0
  7 30  1  0
  8 31  1  0
  8 32  1  0
 11 33  1  0
 12 34  1  0
 12 35  1  0
 15 36  1  0
 17 37  1  0
 18 38  1  0
 18 39  1  0
 21 40  1  0
 23 41  1  0
M  END
