
     RDKit          3D

 65 68  0  0  0  0  0  0  0  0999 V2000
    2.1422    0.1010   -3.0543 Cl  0  0  0  0  0  0  0  0  0  0  0  0
    1.8015   -0.8398   -1.6344 C   0  0  0  0  0  0  0  0  0  0  0  0
    2.7889   -1.0461   -0.6713 C   0  0  0  0  0  0  0  0  0  0  0  0
    4.1417   -0.5164   -0.8143 C   0  0  0  0  0  0  0  0  0  0  0  0
    4.9842   -0.2913    0.2024 C   0  0  0  0  0  0  0  0  0  0  0  0
    6.3493    0.2181    0.0851 C   0  0  0  0  0  0  0  0  0  0  0  0
    7.0342    0.5628    1.2490 C   0  0  0  0  0  0  0  0  0  0  0  0
    8.3301    1.0683    1.2056 C   0  0  0  0  0  0  0  0  0  0  0  0
    8.9882    1.4152    2.4907 C   0  0  0  0  0  0  0  0  0  0  0  0
   10.2139    1.8929    2.3328 O   0  0  0  0  0  0  0  0  0  0  0  0
    8.4655    1.2788    3.5710 O   0  0  0  0  0  0  0  0  0  0  0  0
    8.9657    1.2320   -0.0225 C   0  0  0  0  0  0  0  0  0  0  0  0
    8.2965    0.8830   -1.1879 C   0  0  0  0  0  0  0  0  0  0  0  0
    7.0084    0.3806   -1.1389 C   0  0  0  0  0  0  0  0  0  0  0  0
    2.4060   -1.8074    0.4427 C   0  0  0  0  0  0  0  0  0  0  0  0
    1.1259   -2.2854    0.6088 C   0  0  0  0  0  0  0  0  0  0  0  0
    0.5084   -1.3243   -1.5064 C   0  0  0  0  0  0  0  0  0  0  0  0
    0.1578   -2.0328   -0.3642 C   0  0  0  0  0  0  0  0  0  0  0  0
   -1.0813   -2.5002   -0.1259 O   0  0  0  0  0  0  0  0  0  0  0  0
   -2.1758   -1.9120   -0.8219 C   0  0  0  0  0  0  0  0  0  0  0  0
   -3.3847   -2.0332    0.0273 C   0  0  0  0  0  0  0  0  0  0  0  0
   -4.5979   -2.5481   -0.2938 C   0  0  0  0  0  0  0  0  0  0  0  0
   -5.1502   -3.1502   -1.5394 C   0  0  1  0  0  0  0  0  0  0  0  0
   -5.7265   -4.5437   -1.2870 C   0  0  0  0  0  0  0  0  0  0  0  0
   -6.1841   -2.2200   -2.1805 C   0  0  0  0  0  0  0  0  0  0  0  0
   -3.5464   -1.5930    1.3757 C   0  0  0  0  0  0  0  0  0  0  0  0
   -4.7535   -1.8503    1.7995 N   0  0  0  0  0  0  0  0  0  0  0  0
   -5.4121   -2.4350    0.7564 O   0  0  0  0  0  0  0  0  0  0  0  0
   -2.5990   -0.8696    2.2404 C   0  0  0  0  0  0  0  0  0  0  0  0
   -2.9409    1.0575    2.3373 S   0  0  2  0  0  0  0  0  0  0  0  0
   -3.6151    2.8227    2.3302 O   0  0  0  0  0  0  0  0  0  0  0  0
   -2.5913    1.2866    0.6084 C   0  0  0  0  0  0  0  0  0  0  0  0
   -3.5750    1.3690   -0.3762 C   0  0  0  0  0  0  0  0  0  0  0  0
   -5.2411    1.1783    0.0152 Cl  0  0  0  0  0  0  0  0  0  0  0  0
   -3.2351    1.5956   -1.6997 C   0  0  0  0  0  0  0  0  0  0  0  0
   -1.9049    1.7672   -2.0508 C   0  0  0  0  0  0  0  0  0  0  0  0
   -0.9116    1.6939   -1.0904 C   0  0  0  0  0  0  0  0  0  0  0  0
   -1.2617    1.4477    0.2278 C   0  0  0  0  0  0  0  0  0  0  0  0
   -0.0071    1.3193    1.4055 Cl  0  0  0  0  0  0  0  0  0  0  0  0
    4.4598   -0.2842   -1.8237 H   0  0  0  0  0  0  0  0  0  0  0  0
    4.6507   -0.4675    1.2204 H   0  0  0  0  0  0  0  0  0  0  0  0
    6.5433    0.4347    2.2059 H   0  0  0  0  0  0  0  0  0  0  0  0
   10.6016    2.1007    3.1958 H   0  0  0  0  0  0  0  0  0  0  0  0
    9.9720    1.6217   -0.0842 H   0  0  0  0  0  0  0  0  0  0  0  0
    8.7890    1.0021   -2.1436 H   0  0  0  0  0  0  0  0  0  0  0  0
    6.5204    0.1082   -2.0658 H   0  0  0  0  0  0  0  0  0  0  0  0
    3.1427   -2.0300    1.2035 H   0  0  0  0  0  0  0  0  0  0  0  0
    0.8649   -2.8564    1.4905 H   0  0  0  0  0  0  0  0  0  0  0  0
   -0.2021   -1.1438   -2.3009 H   0  0  0  0  0  0  0  0  0  0  0  0
   -1.9644   -0.8596   -1.0252 H   0  0  0  0  0  0  0  0  0  0  0  0
   -2.3243   -2.4003   -1.7898 H   0  0  0  0  0  0  0  0  0  0  0  0
   -4.3123   -3.2503   -2.2351 H   0  0  0  0  0  0  0  0  0  0  0  0
   -6.5922   -4.5075   -0.6251 H   0  0  0  0  0  0  0  0  0  0  0  0
   -6.0498   -4.9849   -2.2298 H   0  0  0  0  0  0  0  0  0  0  0  0
   -4.9849   -5.2087   -0.8441 H   0  0  0  0  0  0  0  0  0  0  0  0
   -5.7641   -1.2345   -2.3828 H   0  0  0  0  0  0  0  0  0  0  0  0
   -6.5229   -2.6413   -3.1270 H   0  0  0  0  0  0  0  0  0  0  0  0
   -7.0562   -2.0914   -1.5387 H   0  0  0  0  0  0  0  0  0  0  0  0
   -2.7126   -1.1713    3.2836 H   0  0  0  0  0  0  0  0  0  0  0  0
   -1.5631   -1.0293    1.9509 H   0  0  0  0  0  0  0  0  0  0  0  0
   -2.8632    3.3850    2.5491 H   0  0  0  0  0  0  0  0  0  0  0  0
   -4.0096    1.6422   -2.4522 H   0  0  0  0  0  0  0  0  0  0  0  0
   -1.6427    1.9524   -3.0830 H   0  0  0  0  0  0  0  0  0  0  0  0
    0.1275    1.8226   -1.3582 H   0  0  0  0  0  0  0  0  0  0  0  0
   -4.2412    0.7563    2.4301 H   0  0  0  0  0  0  0  0  0  0  0  0
  1  2  1  0
  3  2  2  0
  2 17  1  0
  4  3  1  0
  3 15  1  0
  5  4  2  0
  4 40  1  0
  6  5  1  0
  5 41  1  0
  7  6  2  0
 14  6  1  0
  8  7  1  0
  7 42  1  0
  9  8  1  0
 12  8  2  0
 11  9  2  0
  9 10  1  0
 10 43  1  0
 12 13  1  0
 12 44  1  0
 13 14  2  0
 13 45  1  0
 14 46  1  0
 15 16  2  0
 15 47  1  0
 16 18  1  0
 16 48  1  0
 17 18  2  0
 17 49  1  0
 18 19  1  0
 19 20  1  0
 20 21  1  0
 20 50  1  0
 20 51  1  0
 22 21  2  0
 21 26  1  0
 23 22  1  0
 22 28  1  0
 25 23  1  0
 23 24  1  0
 23 52  1  6
 24 53  1  0
 24 54  1  0
 24 55  1  0
 25 56  1  0
 25 57  1  0
 25 58  1  0
 26 29  1  0
 26 27  2  0
 28 27  1  0
 29 30  1  0
 29 59  1  0
 29 60  1  0
 32 30  1  0
 30 31  1  0
 31 61  1  0
 33 32  2  0
 38 32  1  0
 35 33  1  0
 34 33  1  0
 36 35  2  0
 35 62  1  0
 36 37  1  0
 36 63  1  0
 37 38  2  0
 37 64  1  0
 38 39  1  0
 30 65  1  1
M  END
