
     RDKit          3D

 26 27  0  0  0  0  0  0  0  0999 V2000
    0.8473   -0.1125   -0.7889 N   0  0  0  0  0  0  0  0  0  0  0  0
   -2.0829    1.2874    0.0460 C   0  0  0  0  0  0  0  0  0  0  0  0
   -1.6446    2.6652   -0.2995 C   0  0  0  0  0  0  0  0  0  0  0  0
   -2.3377   -0.8843    0.1611 C   0  0  0  0  0  0  0  0  0  0  0  0
   -2.3736   -2.3627    0.1073 C   0  0  0  0  0  0  0  0  0  0  0  0
    1.4539   -1.2238   -0.2949 C   0  0  0  0  0  0  0  0  0  0  0  0
    1.4301    1.0846   -0.5666 N   0  0  0  0  0  0  0  0  0  0  0  0
   -3.2140   -0.2752    0.9617 O   0  0  0  0  0  0  0  0  0  0  0  0
    2.5274    0.9731    0.0783 C   0  0  0  0  0  0  0  0  0  0  0  0
   -0.4609   -0.1450   -1.4255 C   0  0  0  0  0  0  0  0  0  0  0  0
   -1.5761    0.0544   -0.4579 C   0  0  0  0  0  0  0  0  0  0  0  0
   -3.0525    1.0805    0.8867 N   0  0  0  0  0  0  0  0  0  0  0  0
    1.0664   -2.3665   -0.3703 O   0  0  0  0  0  0  0  0  0  0  0  0
    2.9486   -0.6680    0.4898 S   0  0  0  0  0  0  0  0  0  0  0  0
   -1.7525    2.8417   -1.3704 H   0  0  0  0  0  0  0  0  0  0  0  0
   -2.2363    3.4077    0.2318 H   0  0  0  0  0  0  0  0  0  0  0  0
   -0.5943    2.8107   -0.0523 H   0  0  0  0  0  0  0  0  0  0  0  0
   -2.0968   -2.7968    1.0689 H   0  0  0  0  0  0  0  0  0  0  0  0
   -3.3711   -2.7213   -0.1472 H   0  0  0  0  0  0  0  0  0  0  0  0
   -1.6747   -2.7335   -0.6371 H   0  0  0  0  0  0  0  0  0  0  0  0
    3.4753    2.1901    1.5441 H   0  0  0  0  0  0  0  0  0  0  0  0
    4.3902    2.0081    0.0516 H   0  0  0  0  0  0  0  0  0  0  0  0
    2.9546    3.0442    0.0833 H   0  0  0  0  0  0  0  0  0  0  0  0
   -0.4620    0.6280   -2.1935 H   0  0  0  0  0  0  0  0  0  0  0  0
   -0.5549   -1.1001   -1.9401 H   0  0  0  0  0  0  0  0  0  0  0  0
    3.3859    2.1193    0.4600 C   0  0  0  0  0  0  0  0  0  0  0  0
 12  8  1  0
 12  2  2  0
  8  4  1  0
  2  3  1  0
  2 11  1  0
  4  5  1  0
  4 11  2  0
 11 10  1  0
 10  1  1  0
  1  6  1  0
  1  7  1  0
 13  6  2  0
  6 14  1  0
  7  9  2  0
  9 14  1  0
  9 26  1  0
  3 15  1  0
  3 16  1  0
  3 17  1  0
  5 18  1  0
  5 19  1  0
  5 20  1  0
 26 21  1  0
 26 22  1  0
 26 23  1  0
 10 24  1  0
 10 25  1  0
M  END
