
     RDKit          3D

 34 36  0  0  0  0  0  0  0  0999 V2000
   -2.1414    1.5483    0.2147 C   0  0  0  0  0  0  0  0  0  0  0  0
   -0.7524    1.6070   -0.0996 C   0  0  0  0  0  0  0  0  0  0  0  0
   -0.0602   -2.0926   -0.3557 C   0  0  0  0  0  0  0  0  0  0  0  0
   -0.6648   -0.8357   -0.1801 C   0  0  0  0  0  0  0  0  0  0  0  0
   -2.0534   -0.7639    0.1294 C   0  0  0  0  0  0  0  0  0  0  0  0
   -2.7695   -1.9720    0.2486 C   0  0  0  0  0  0  0  0  0  0  0  0
   -2.1560   -3.1884    0.0721 C   0  0  0  0  0  0  0  0  0  0  0  0
   -0.7904   -3.2515   -0.2338 C   0  0  0  0  0  0  0  0  0  0  0  0
    4.2509   -1.3534    0.0560 C   0  0  0  0  0  0  0  0  0  0  0  0
    3.4705    0.6269    1.3994 C   0  0  0  0  0  0  0  0  0  0  0  0
   -2.7489    0.3939    0.3161 N   0  0  0  0  0  0  0  0  0  0  0  0
   -0.0366    0.4396   -0.2896 C   0  0  0  0  0  0  0  0  0  0  0  0
    0.0345    2.7075   -0.2771 N   0  0  0  0  0  0  0  0  0  0  0  0
    1.2052    2.2172   -0.5675 C   0  0  0  0  0  0  0  0  0  0  0  0
    1.2302    0.8574   -0.5940 N   0  0  0  0  0  0  0  0  0  0  0  0
   -2.8204    2.6929    0.4379 N   0  0  0  0  0  0  0  0  0  0  0  0
    2.4258    0.0708   -0.8321 C   0  0  0  0  0  0  0  0  0  0  0  0
    3.0589   -0.4855    0.4425 C   0  0  1  0  0  0  0  0  0  0  0  0
    0.9915   -2.1678   -0.5917 H   0  0  0  0  0  0  0  0  0  0  0  0
   -3.8251   -1.9151    0.4828 H   0  0  0  0  0  0  0  0  0  0  0  0
   -2.7302   -4.1007    0.1704 H   0  0  0  0  0  0  0  0  0  0  0  0
   -0.3075   -4.2091   -0.3754 H   0  0  0  0  0  0  0  0  0  0  0  0
    4.7120   -1.7938    0.9400 H   0  0  0  0  0  0  0  0  0  0  0  0
    3.9570   -2.1691   -0.6070 H   0  0  0  0  0  0  0  0  0  0  0  0
    5.0135   -0.7645   -0.4586 H   0  0  0  0  0  0  0  0  0  0  0  0
    4.1642    1.3227    0.9210 H   0  0  0  0  0  0  0  0  0  0  0  0
    2.6144    1.1989    1.7600 H   0  0  0  0  0  0  0  0  0  0  0  0
    3.9708    0.2108    2.2744 H   0  0  0  0  0  0  0  0  0  0  0  0
    2.0937    2.7934   -0.7818 H   0  0  0  0  0  0  0  0  0  0  0  0
   -3.8255    2.6569    0.4525 H   0  0  0  0  0  0  0  0  0  0  0  0
   -2.4075    3.5661    0.1589 H   0  0  0  0  0  0  0  0  0  0  0  0
    2.1884   -0.7279   -1.5357 H   0  0  0  0  0  0  0  0  0  0  0  0
    3.1392    0.7230   -1.3391 H   0  0  0  0  0  0  0  0  0  0  0  0
    2.3251   -1.1182    0.9528 H   0  0  0  0  0  0  0  0  0  0  0  0
 16  1  1  0
  1 11  2  0
  1  2  1  0
 11  5  1  0
  2 13  1  0
  2 12  2  0
  5  6  2  0
  5  4  1  0
  6  7  1  0
 13 14  2  0
 10 18  1  0
  9 18  1  0
 12  4  1  0
 12 15  1  0
  7  8  2  0
  4  3  2  0
 14 15  1  0
 15 17  1  0
 18 17  1  0
  8  3  1  0
  3 19  1  0
  6 20  1  0
  7 21  1  0
  8 22  1  0
  9 23  1  0
  9 24  1  0
  9 25  1  0
 10 26  1  0
 10 27  1  0
 10 28  1  0
 14 29  1  0
 16 30  1  0
 16 31  1  0
 17 32  1  0
 17 33  1  0
 18 34  1  1
M  END
