
     RDKit          3D

 26 26  0  0  0  0  0  0  0  0999 V2000
   -1.0564    1.5225   -2.5489 N   0  0  0  0  0  0  0  0  0  0  0  0
    0.0728    0.6869   -2.1437 C   0  0  2  0  0  0  0  0  0  0  0  0
   -0.0604   -0.7045   -2.7879 C   0  0  0  0  0  0  0  0  0  0  0  0
    0.1055    0.4524   -0.6275 C   0  0  0  0  0  0  0  0  0  0  0  0
   -0.9854   -0.2393   -0.0744 C   0  0  0  0  0  0  0  0  0  0  0  0
    1.1313    0.8772    0.2328 C   0  0  0  0  0  0  0  0  0  0  0  0
   -1.0565   -0.5041    1.2887 C   0  0  0  0  0  0  0  0  0  0  0  0
    1.0643    0.6136    1.6018 C   0  0  0  0  0  0  0  0  0  0  0  0
   -0.0273   -0.0769    2.1368 C   0  0  0  0  0  0  0  0  0  0  0  0
   -0.1346   -0.3734    3.5709 C   0  0  0  0  0  0  0  0  0  0  0  0
    0.9057    0.0565    4.3450 O   0  0  0  0  0  0  0  0  0  0  0  0
   -1.0446   -0.9613    4.1659 O   0  0  0  0  0  0  0  0  0  0  0  0
    0.7642   -1.6198   -2.7821 O   0  0  0  0  0  0  0  0  0  0  0  0
   -1.2343   -0.9403   -3.4392 O   0  0  0  0  0  0  0  0  0  0  0  0
    1.3743    1.2675   -2.7320 C   0  0  0  0  0  0  0  0  0  0  0  0
   -1.8593    0.9566   -2.7415 H   0  0  0  0  0  0  0  0  0  0  0  0
   -1.2658    2.1834   -1.8282 H   0  0  0  0  0  0  0  0  0  0  0  0
   -1.8056   -0.5826   -0.7289 H   0  0  0  0  0  0  0  0  0  0  0  0
    2.0163    1.4249   -0.1242 H   0  0  0  0  0  0  0  0  0  0  0  0
   -1.9172   -1.0488    1.7118 H   0  0  0  0  0  0  0  0  0  0  0  0
    1.8768    0.9519    2.2648 H   0  0  0  0  0  0  0  0  0  0  0  0
    0.7367   -0.1884    5.2703 H   0  0  0  0  0  0  0  0  0  0  0  0
   -1.2253   -1.8386   -3.8104 H   0  0  0  0  0  0  0  0  0  0  0  0
    2.2255    0.5878   -2.4895 H   0  0  0  0  0  0  0  0  0  0  0  0
    1.2878    1.3374   -3.8435 H   0  0  0  0  0  0  0  0  0  0  0  0
    1.5724    2.2853   -2.3219 H   0  0  0  0  0  0  0  0  0  0  0  0
  1  2  1  0
  1 16  1  0
  1 17  1  0
  2  3  1  6
  2  4  1  0
  2 15  1  0
  3 13  2  0
  3 14  1  0
  4  5  2  0
  4  6  1  0
  5  7  1  0
  5 18  1  0
  6  8  2  0
  6 19  1  0
  7  9  2  0
  7 20  1  0
  8  9  1  0
  8 21  1  0
  9 10  1  0
 10 11  1  0
 10 12  2  0
 11 22  1  0
 14 23  1  0
 15 24  1  0
 15 25  1  0
 15 26  1  0
M  END
