
     RDKit          3D

 50 53  0  0  0  0  0  0  0  0999 V2000
   -8.9417    0.6845    1.3619 C   0  0  0  0  0  0  0  0  0  0  0  0
   -8.2070   -0.4963    1.1194 O   0  0  0  0  0  0  0  0  0  0  0  0
   -6.9133   -0.3785    0.7427 C   0  0  0  0  0  0  0  0  0  0  0  0
   -6.2306    0.8295    0.6202 C   0  0  0  0  0  0  0  0  0  0  0  0
   -4.9043    0.8439    0.2143 C   0  0  0  0  0  0  0  0  0  0  0  0
   -6.2318   -1.5575    0.4578 C   0  0  0  0  0  0  0  0  0  0  0  0
   -4.9012   -1.5355    0.0701 C   0  0  0  0  0  0  0  0  0  0  0  0
   -4.2035   -0.3311   -0.0671 C   0  0  0  0  0  0  0  0  0  0  0  0
   -2.8691   -0.2650   -0.4980 N   0  0  0  0  0  0  0  0  0  0  0  0
   -2.2726   -1.4863   -0.9970 C   0  0  0  0  0  0  0  0  0  0  0  0
   -0.9676   -1.1856   -1.7101 C   0  0  0  0  0  0  0  0  0  0  0  0
   -1.9517    0.4632    0.3665 C   0  0  0  0  0  0  0  0  0  0  0  0
   -0.6486    0.7410   -0.3535 C   0  0  0  0  0  0  0  0  0  0  0  0
   -0.0533   -0.4959   -0.8229 N   0  0  0  0  0  0  0  0  0  0  0  0
    1.2503   -0.2932   -1.4014 C   0  0  0  0  0  0  0  0  0  0  0  0
    2.3468   -0.1999   -0.3764 C   0  0  0  0  0  0  0  0  0  0  0  0
    2.1403   -0.5581    0.9092 C   0  0  0  0  0  0  0  0  0  0  0  0
    3.1801   -0.4892    1.9048 C   0  0  0  0  0  0  0  0  0  0  0  0
    3.0761   -0.7849    3.0696 O   0  0  0  0  0  0  0  0  0  0  0  0
    4.3966   -0.0428    1.4868 O   0  0  0  0  0  0  0  0  0  0  0  0
    4.6464    0.3058    0.2028 C   0  0  0  0  0  0  0  0  0  0  0  0
    3.6578    0.2491   -0.7813 C   0  0  0  0  0  0  0  0  0  0  0  0
    4.0101    0.6207   -2.0826 C   0  0  0  0  0  0  0  0  0  0  0  0
    5.2929    1.0311   -2.3750 C   0  0  0  0  0  0  0  0  0  0  0  0
    6.2661    1.0869   -1.3775 C   0  0  0  0  0  0  0  0  0  0  0  0
    7.5016    1.4928   -1.7044 O   0  0  0  0  0  0  0  0  0  0  0  0
    5.9437    0.7197   -0.0706 C   0  0  0  0  0  0  0  0  0  0  0  0
    6.9231    0.7890    0.8537 O   0  0  0  0  0  0  0  0  0  0  0  0
   -9.9498    0.3752    1.6277 H   0  0  0  0  0  0  0  0  0  0  0  0
   -8.5257    1.2662    2.1894 H   0  0  0  0  0  0  0  0  0  0  0  0
   -8.9943    1.3239    0.4761 H   0  0  0  0  0  0  0  0  0  0  0  0
   -6.7141    1.7760    0.8216 H   0  0  0  0  0  0  0  0  0  0  0  0
   -4.4173    1.8041    0.0992 H   0  0  0  0  0  0  0  0  0  0  0  0
   -6.7448   -2.5070    0.5530 H   0  0  0  0  0  0  0  0  0  0  0  0
   -4.4178   -2.4831   -0.1238 H   0  0  0  0  0  0  0  0  0  0  0  0
   -2.0830   -2.2161   -0.1940 H   0  0  0  0  0  0  0  0  0  0  0  0
   -2.9514   -1.9561   -1.7106 H   0  0  0  0  0  0  0  0  0  0  0  0
   -0.5181   -2.1296   -2.0250 H   0  0  0  0  0  0  0  0  0  0  0  0
   -1.1815   -0.6039   -2.6218 H   0  0  0  0  0  0  0  0  0  0  0  0
   -2.3903    1.4149    0.6615 H   0  0  0  0  0  0  0  0  0  0  0  0
   -1.7444   -0.0999    1.2897 H   0  0  0  0  0  0  0  0  0  0  0  0
   -0.8313    1.4407   -1.1865 H   0  0  0  0  0  0  0  0  0  0  0  0
    0.0329    1.2391    0.3389 H   0  0  0  0  0  0  0  0  0  0  0  0
    1.4882   -1.1398   -2.0540 H   0  0  0  0  0  0  0  0  0  0  0  0
    1.2802    0.5970   -2.0487 H   0  0  0  0  0  0  0  0  0  0  0  0
    1.1729   -0.9122    1.2362 H   0  0  0  0  0  0  0  0  0  0  0  0
    3.2789    0.5881   -2.8773 H   0  0  0  0  0  0  0  0  0  0  0  0
    5.5611    1.3150   -3.3841 H   0  0  0  0  0  0  0  0  0  0  0  0
    8.0808    1.5009   -0.9325 H   0  0  0  0  0  0  0  0  0  0  0  0
    6.6157    0.5065    1.7231 H   0  0  0  0  0  0  0  0  0  0  0  0
  2  1  1  0
  2  3  1  0
  4  3  2  0
  4  5  1  0
  3  6  1  0
  5  8  2  0
  6  7  2  0
  8  7  1  0
  8  9  1  0
  9 10  1  0
  9 12  1  0
 10 11  1  0
 12 13  1  0
 11 14  1  0
 13 14  1  0
 14 15  1  0
 15 16  1  0
 17 16  2  0
 17 18  1  0
 16 22  1  0
 19 18  2  0
 18 20  1  0
 22 23  1  0
 22 21  2  0
 23 24  2  0
 20 21  1  0
 21 27  1  0
 24 25  1  0
 27 25  2  0
 27 28  1  0
 25 26  1  0
  1 29  1  0
  1 30  1  0
  1 31  1  0
  4 32  1  0
  5 33  1  0
  6 34  1  0
  7 35  1  0
 10 36  1  0
 10 37  1  0
 11 38  1  0
 11 39  1  0
 12 40  1  0
 12 41  1  0
 13 42  1  0
 13 43  1  0
 15 44  1  0
 15 45  1  0
 17 46  1  0
 23 47  1  0
 24 48  1  0
 26 49  1  0
 28 50  1  0
M  END
