
     RDKit          3D

 59 61  0  0  0  0  0  0  0  0999 V2000
    5.5875    0.7839   -2.8127 O   0  0  0  0  0  0  0  0  0  0  0  0
    6.3281    1.4477   -2.1399 C   0  0  0  0  0  0  0  0  0  0  0  0
    6.2411    1.5611   -0.6322 C   0  0  2  0  0  0  0  0  0  0  0  0
    7.5929    1.2352   -0.0134 C   0  0  0  0  0  0  0  0  0  0  0  0
    7.6717    1.6366    1.4375 C   0  0  0  0  0  0  0  0  0  0  0  0
    6.9363    2.4248    1.9730 O   0  0  0  0  0  0  0  0  0  0  0  0
    8.6793    1.0331    2.0523 O   0  0  0  0  0  0  0  0  0  0  0  0
    5.2106    0.7299   -0.0836 N   0  0  0  0  0  0  0  0  0  0  0  0
    3.9146    1.0905   -0.0885 C   0  0  0  0  0  0  0  0  0  0  0  0
    3.5397    2.1902   -0.4590 O   0  0  0  0  0  0  0  0  0  0  0  0
    2.9484    0.0445    0.4777 C   0  0  2  0  0  0  0  0  0  0  0  0
    3.3417   -1.3530    0.1112 C   0  0  0  0  0  0  0  0  0  0  0  0
    3.2427   -1.9084   -1.5197 S   0  0  0  0  0  0  0  0  0  0  0  0
    3.8113   -3.4687   -1.0926 C   0  0  0  0  0  0  0  0  0  0  0  0
    4.0669   -3.5598    0.2400 C   0  0  0  0  0  0  0  0  0  0  0  0
    3.7957   -2.3448    0.9291 C   0  0  0  0  0  0  0  0  0  0  0  0
    1.4964    0.3607    0.1116 C   0  0  0  0  0  0  0  0  0  0  0  0
    0.5107   -0.5675    0.8066 C   0  0  0  0  0  0  0  0  0  0  0  0
   -0.9358   -0.2292    0.4705 C   0  0  0  0  0  0  0  0  0  0  0  0
   -1.9071   -1.1397    1.2027 C   0  0  0  0  0  0  0  0  0  0  0  0
   -3.2751   -0.7922    0.8855 N   0  0  0  0  0  0  0  0  0  0  0  0
   -4.3216   -1.4990    1.3119 C   0  0  0  0  0  0  0  0  0  0  0  0
   -4.2354   -2.5129    1.9938 O   0  0  0  0  0  0  0  0  0  0  0  0
   -5.6607   -0.9579    0.8895 C   0  0  0  0  0  0  0  0  0  0  0  0
   -5.6678    0.1422    0.1847 N   0  0  0  0  0  0  0  0  0  0  0  0
   -6.8342   -1.6435    1.2641 C   0  0  0  0  0  0  0  0  0  0  0  0
   -8.0371   -1.1318    0.8695 C   0  0  0  0  0  0  0  0  0  0  0  0
   -8.0836    0.0569    0.1094 C   0  0  0  0  0  0  0  0  0  0  0  0
   -9.2909    0.6428   -0.3271 C   0  0  0  0  0  0  0  0  0  0  0  0
   -6.8427    0.6629   -0.2104 C   0  0  0  0  0  0  0  0  0  0  0  0
   -6.8337    1.8658   -0.9765 C   0  0  0  0  0  0  0  0  0  0  0  0
   -5.6341    2.3939   -1.2487 O   0  0  0  0  0  0  0  0  0  0  0  0
   -8.0248    2.4125   -1.3874 C   0  0  0  0  0  0  0  0  0  0  0  0
   -9.2484    1.7977   -1.0588 C   0  0  0  0  0  0  0  0  0  0  0  0
    7.1363    2.0533   -2.5881 H   0  0  0  0  0  0  0  0  0  0  0  0
    6.0117    2.6127   -0.4273 H   0  0  0  0  0  0  0  0  0  0  0  0
    8.3846    1.7753   -0.5429 H   0  0  0  0  0  0  0  0  0  0  0  0
    7.8290    0.1740   -0.1253 H   0  0  0  0  0  0  0  0  0  0  0  0
    8.7382    1.3336    2.9719 H   0  0  0  0  0  0  0  0  0  0  0  0
    5.4437   -0.2276    0.1349 H   0  0  0  0  0  0  0  0  0  0  0  0
    3.0450    0.1151    1.5690 H   0  0  0  0  0  0  0  0  0  0  0  0
    3.9278   -4.2302   -1.8479 H   0  0  0  0  0  0  0  0  0  0  0  0
    4.4329   -4.4572    0.7173 H   0  0  0  0  0  0  0  0  0  0  0  0
    3.9300   -2.2092    1.9938 H   0  0  0  0  0  0  0  0  0  0  0  0
    1.2797    1.3926    0.3921 H   0  0  0  0  0  0  0  0  0  0  0  0
    1.3652    0.3000   -0.9736 H   0  0  0  0  0  0  0  0  0  0  0  0
    0.7125   -1.6060    0.5290 H   0  0  0  0  0  0  0  0  0  0  0  0
    0.6591   -0.5053    1.8900 H   0  0  0  0  0  0  0  0  0  0  0  0
   -1.1407    0.8127    0.7355 H   0  0  0  0  0  0  0  0  0  0  0  0
   -1.0922   -0.3184   -0.6089 H   0  0  0  0  0  0  0  0  0  0  0  0
   -1.7211   -2.1810    0.9266 H   0  0  0  0  0  0  0  0  0  0  0  0
   -1.7430   -1.0647    2.2824 H   0  0  0  0  0  0  0  0  0  0  0  0
   -3.4690    0.0386    0.3451 H   0  0  0  0  0  0  0  0  0  0  0  0
   -6.7752   -2.5505    1.8479 H   0  0  0  0  0  0  0  0  0  0  0  0
   -8.9625   -1.6287    1.1336 H   0  0  0  0  0  0  0  0  0  0  0  0
  -10.2338    0.1733   -0.0791 H   0  0  0  0  0  0  0  0  0  0  0  0
   -5.7369    3.1982   -1.7706 H   0  0  0  0  0  0  0  0  0  0  0  0
   -8.0296    3.3259   -1.9710 H   0  0  0  0  0  0  0  0  0  0  0  0
  -10.1671    2.2589   -1.3962 H   0  0  0  0  0  0  0  0  0  0  0  0
  1  2  2  0
  2  3  1  0
  2 35  1  0
  3  4  1  0
  3  8  1  0
  3 36  1  6
  4  5  1  0
  4 37  1  0
  4 38  1  0
  5  6  2  0
  5  7  1  0
  7 39  1  0
  8  9  1  0
  8 40  1  0
  9 10  2  0
  9 11  1  0
 11 12  1  0
 11 17  1  0
 11 41  1  1
 12 13  1  0
 12 16  2  0
 13 14  1  0
 14 15  2  0
 14 42  1  0
 15 16  1  0
 15 43  1  0
 16 44  1  0
 17 18  1  0
 17 45  1  0
 17 46  1  0
 18 19  1  0
 18 47  1  0
 18 48  1  0
 19 20  1  0
 19 49  1  0
 19 50  1  0
 20 21  1  0
 20 51  1  0
 20 52  1  0
 21 22  1  0
 21 53  1  0
 22 23  2  0
 22 24  1  0
 24 25  2  0
 24 26  1  0
 25 30  1  0
 26 27  2  0
 26 54  1  0
 27 28  1  0
 27 55  1  0
 28 29  1  0
 28 30  2  0
 29 34  2  0
 29 56  1  0
 30 31  1  0
 31 32  1  0
 31 33  2  0
 32 57  1  0
 33 34  1  0
 33 58  1  0
 34 59  1  0
M  END
