
     RDKit          3D

 33 36  0  0  0  0  0  0  0  0999 V2000
   -0.4230   -0.1407    0.2129 C   0  0  0  0  0  0  0  0  0  0  0  0
    1.4970    1.2447   -0.3076 C   0  0  0  0  0  0  0  0  0  0  0  0
   -2.5310   -0.3085    1.5417 C   0  0  0  0  0  0  0  0  0  0  0  0
    1.7950   -1.0820    0.4348 C   0  0  0  0  0  0  0  0  0  0  0  0
    3.7569    0.2490   -0.1062 C   0  0  0  0  0  0  0  0  0  0  0  0
   -4.0655   -0.3240   -0.7776 C   0  0  0  0  0  0  0  0  0  0  0  0
   -3.9126   -0.4041    1.6252 C   0  0  0  0  0  0  0  0  0  0  0  0
    2.6449   -2.1528    0.7489 C   0  0  0  0  0  0  0  0  0  0  0  0
    4.5764   -0.8161    0.2074 C   0  0  0  0  0  0  0  0  0  0  0  0
   -4.6765   -0.4085    0.4664 C   0  0  0  0  0  0  0  0  0  0  0  0
    4.0132   -2.0206    0.6370 C   0  0  0  0  0  0  0  0  0  0  0  0
    0.1348    1.0302   -0.2132 N   0  0  0  0  0  0  0  0  0  0  0  0
   -0.5483    2.2984   -0.4472 C   0  0  0  0  0  0  0  0  0  0  0  0
   -1.8956   -0.2153    0.3061 C   0  0  0  0  0  0  0  0  0  0  0  0
    0.3653   -1.1901    0.5385 C   0  0  0  0  0  0  0  0  0  0  0  0
    2.3712    0.1259    0.0036 C   0  0  0  0  0  0  0  0  0  0  0  0
    1.8512    2.4243   -0.6484 N   0  0  0  0  0  0  0  0  0  0  0  0
    0.6367    3.1993   -0.8617 C   0  0  0  0  0  0  0  0  0  0  0  0
   -2.6902   -0.2319   -0.8311 C   0  0  0  0  0  0  0  0  0  0  0  0
   -2.0891   -0.1654   -2.0290 F   0  0  0  0  0  0  0  0  0  0  0  0
    4.1786    1.1877   -0.4407 H   0  0  0  0  0  0  0  0  0  0  0  0
   -4.6471   -0.3383   -1.6898 H   0  0  0  0  0  0  0  0  0  0  0  0
   -4.3904   -0.4732    2.5929 H   0  0  0  0  0  0  0  0  0  0  0  0
    2.2154   -3.0890    1.0832 H   0  0  0  0  0  0  0  0  0  0  0  0
    5.6503   -0.7195    0.1205 H   0  0  0  0  0  0  0  0  0  0  0  0
   -5.7542   -0.4797    0.5243 H   0  0  0  0  0  0  0  0  0  0  0  0
    4.6548   -2.8565    0.8846 H   0  0  0  0  0  0  0  0  0  0  0  0
   -1.2997    2.2112   -1.2292 H   0  0  0  0  0  0  0  0  0  0  0  0
   -1.0393    2.6394    0.4661 H   0  0  0  0  0  0  0  0  0  0  0  0
   -0.0846   -2.1192    0.8586 H   0  0  0  0  0  0  0  0  0  0  0  0
    0.5592    3.4949   -1.9115 H   0  0  0  0  0  0  0  0  0  0  0  0
    0.6611    4.1212   -0.2776 H   0  0  0  0  0  0  0  0  0  0  0  0
   -1.9288   -0.2985    2.4409 H   0  0  0  0  0  0  0  0  0  0  0  0
 18 13  1  0
 18 17  1  0
 13 12  1  0
 17  2  2  0
 12  2  1  0
 12  1  1  0
  2 16  1  0
 10  6  2  0
 10  7  1  0
  6 19  1  0
  7  3  2  0
 19 20  1  0
 19 14  2  0
  3 14  1  0
 14  1  1  0
  1 15  2  0
 16  5  2  0
 16  4  1  0
  5  9  1  0
 15  4  1  0
  4  8  2  0
  9 11  2  0
  8 11  1  0
  3 33  1  0
  5 21  1  0
  6 22  1  0
  7 23  1  0
  8 24  1  0
  9 25  1  0
 10 26  1  0
 11 27  1  0
 13 28  1  0
 13 29  1  0
 15 30  1  0
 18 31  1  0
 18 32  1  0
M  END
