
     RDKit          3D

 33 32  0  0  0  0  0  0  0  0999 V2000
    7.0224   -0.4819    0.0297 C   0  0  0  0  0  0  0  0  0  0  0  0
    5.7810    0.3998    0.0257 C   0  0  0  0  0  0  0  0  0  0  0  0
    4.4875   -0.4058    0.0217 C   0  0  0  0  0  0  0  0  0  0  0  0
    3.2339    0.4608    0.0146 C   0  0  0  0  0  0  0  0  0  0  0  0
    1.9443   -0.3503    0.0114 C   0  0  0  0  0  0  0  0  0  0  0  0
    0.6886    0.5130    0.0092 C   0  0  0  0  0  0  0  0  0  0  0  0
   -0.5982   -0.3025    0.0046 C   0  0  0  0  0  0  0  0  0  0  0  0
   -1.8543    0.5604    0.0007 C   0  0  0  0  0  0  0  0  0  0  0  0
   -3.1361   -0.2653   -0.0052 C   0  0  0  0  0  0  0  0  0  0  0  0
   -4.3765    0.6148   -0.0093 C   0  0  0  0  0  0  0  0  0  0  0  0
   -5.8640   -0.4428   -0.0276 S   0  0  0  0  0  0  0  0  0  0  0  0
    7.9387    0.1097    0.0338 H   0  0  0  0  0  0  0  0  0  0  0  0
    7.0422   -1.1275    0.9098 H   0  0  0  0  0  0  0  0  0  0  0  0
    7.0491   -1.1260   -0.8514 H   0  0  0  0  0  0  0  0  0  0  0  0
    5.7944    1.0577    0.9004 H   0  0  0  0  0  0  0  0  0  0  0  0
    5.8001    1.0582   -0.8486 H   0  0  0  0  0  0  0  0  0  0  0  0
    4.4757   -1.0672   -0.8523 H   0  0  0  0  0  0  0  0  0  0  0  0
    4.4684   -1.0638    0.8981 H   0  0  0  0  0  0  0  0  0  0  0  0
    3.2449    1.1225    0.8882 H   0  0  0  0  0  0  0  0  0  0  0  0
    3.2521    1.1177   -0.8622 H   0  0  0  0  0  0  0  0  0  0  0  0
    1.9323   -1.0087   -0.8646 H   0  0  0  0  0  0  0  0  0  0  0  0
    1.9282   -1.0108    0.8858 H   0  0  0  0  0  0  0  0  0  0  0  0
    0.6992    1.1711    0.8854 H   0  0  0  0  0  0  0  0  0  0  0  0
    0.7037    1.1729   -0.8655 H   0  0  0  0  0  0  0  0  0  0  0  0
   -0.6082   -0.9606   -0.8714 H   0  0  0  0  0  0  0  0  0  0  0  0
   -0.6140   -0.9618    0.8795 H   0  0  0  0  0  0  0  0  0  0  0  0
   -1.8479    1.2169    0.8775 H   0  0  0  0  0  0  0  0  0  0  0  0
   -1.8402    1.2185   -0.8748 H   0  0  0  0  0  0  0  0  0  0  0  0
   -3.1460   -0.9179   -0.8836 H   0  0  0  0  0  0  0  0  0  0  0  0
   -3.1536   -0.9197    0.8717 H   0  0  0  0  0  0  0  0  0  0  0  0
   -4.3959    1.2482    0.8780 H   0  0  0  0  0  0  0  0  0  0  0  0
   -4.3825    1.2600   -0.8882 H   0  0  0  0  0  0  0  0  0  0  0  0
   -6.7846    0.5272   -0.0338 H   0  0  0  0  0  0  0  0  0  0  0  0
  1  2  1  0
  1 12  1  0
  1 13  1  0
  1 14  1  0
  2  3  1  0
  2 15  1  0
  2 16  1  0
  3  4  1  0
  3 17  1  0
  3 18  1  0
  4  5  1  0
  4 19  1  0
  4 20  1  0
  5  6  1  0
  5 21  1  0
  5 22  1  0
  6  7  1  0
  6 23  1  0
  6 24  1  0
  7  8  1  0
  7 25  1  0
  7 26  1  0
  8  9  1  0
  8 27  1  0
  8 28  1  0
  9 10  1  0
  9 29  1  0
  9 30  1  0
 10 11  1  0
 10 31  1  0
 10 32  1  0
 11 33  1  0
M  END
