
     RDKit          3D

 41 40  0  0  0  0  0  0  0  0999 V2000
   -4.8261   -0.0787   -0.0162 N   0  0  2  0  0  0  0  0  0  0  0  0
   -4.8740   -0.8380   -1.1347 O   0  0  0  0  0  0  0  0  0  0  0  0
   -5.0411   -0.9274    1.1839 C   0  0  0  0  0  0  0  0  0  0  0  0
   -5.9047    0.9419   -0.0589 C   0  0  0  0  0  0  0  0  0  0  0  0
   -3.5139    0.6446    0.0804 C   0  0  0  0  0  0  0  0  0  0  0  0
   -2.3003   -0.2616    0.0519 C   0  0  0  0  0  0  0  0  0  0  0  0
   -1.0183    0.5651    0.0352 C   0  0  0  0  0  0  0  0  0  0  0  0
    0.2380   -0.2967    0.0222 C   0  0  0  0  0  0  0  0  0  0  0  0
    1.5218    0.5236    0.0100 C   0  0  0  0  0  0  0  0  0  0  0  0
    2.7825   -0.3319    0.0022 C   0  0  0  0  0  0  0  0  0  0  0  0
    4.0661    0.4893   -0.0041 C   0  0  0  0  0  0  0  0  0  0  0  0
    5.3269   -0.3660   -0.0088 C   0  0  0  0  0  0  0  0  0  0  0  0
    6.6130    0.4518   -0.0108 C   0  0  0  0  0  0  0  0  0  0  0  0
    7.8629   -0.4180   -0.0171 C   0  0  0  0  0  0  0  0  0  0  0  0
   -4.9896   -0.3386    2.0987 H   0  0  0  0  0  0  0  0  0  0  0  0
   -6.0256   -1.3805    1.0996 H   0  0  0  0  0  0  0  0  0  0  0  0
   -4.2900   -1.7106    1.2071 H   0  0  0  0  0  0  0  0  0  0  0  0
   -5.7615    1.5544   -0.9453 H   0  0  0  0  0  0  0  0  0  0  0  0
   -6.8592    0.4259   -0.1221 H   0  0  0  0  0  0  0  0  0  0  0  0
   -5.8859    1.5713    0.8294 H   0  0  0  0  0  0  0  0  0  0  0  0
   -3.5213    1.2504    0.9900 H   0  0  0  0  0  0  0  0  0  0  0  0
   -3.4893    1.3251   -0.7725 H   0  0  0  0  0  0  0  0  0  0  0  0
   -2.3460   -0.8998   -0.8315 H   0  0  0  0  0  0  0  0  0  0  0  0
   -2.2834   -0.9179    0.9262 H   0  0  0  0  0  0  0  0  0  0  0  0
   -0.9937    1.2249    0.9094 H   0  0  0  0  0  0  0  0  0  0  0  0
   -1.0161    1.2214   -0.8419 H   0  0  0  0  0  0  0  0  0  0  0  0
    0.2174   -0.9558   -0.8528 H   0  0  0  0  0  0  0  0  0  0  0  0
    0.2358   -0.9547    0.8983 H   0  0  0  0  0  0  0  0  0  0  0  0
    1.5379    1.1842    0.8843 H   0  0  0  0  0  0  0  0  0  0  0  0
    1.5241    1.1818   -0.8663 H   0  0  0  0  0  0  0  0  0  0  0  0
    2.7689   -0.9909   -0.8733 H   0  0  0  0  0  0  0  0  0  0  0  0
    2.7783   -0.9915    0.8774 H   0  0  0  0  0  0  0  0  0  0  0  0
    4.0787    1.1490    0.8710 H   0  0  0  0  0  0  0  0  0  0  0  0
    4.0712    1.1485   -0.8797 H   0  0  0  0  0  0  0  0  0  0  0  0
    5.3159   -1.0247   -0.8848 H   0  0  0  0  0  0  0  0  0  0  0  0
    5.3209   -1.0270    0.8655 H   0  0  0  0  0  0  0  0  0  0  0  0
    6.6257    1.1075    0.8655 H   0  0  0  0  0  0  0  0  0  0  0  0
    6.6206    1.1126   -0.8834 H   0  0  0  0  0  0  0  0  0  0  0  0
    7.8940   -1.0662    0.8610 H   0  0  0  0  0  0  0  0  0  0  0  0
    7.8900   -1.0592   -0.9003 H   0  0  0  0  0  0  0  0  0  0  0  0
    8.7734    0.1824   -0.0166 H   0  0  0  0  0  0  0  0  0  0  0  0
  1  2  1  6
  1  3  1  0
  1  4  1  0
  1  5  1  0
  3 15  1  0
  3 16  1  0
  3 17  1  0
  4 18  1  0
  4 19  1  0
  4 20  1  0
  5  6  1  0
  5 21  1  0
  5 22  1  0
  6  7  1  0
  6 23  1  0
  6 24  1  0
  7  8  1  0
  7 25  1  0
  7 26  1  0
  8  9  1  0
  8 27  1  0
  8 28  1  0
  9 10  1  0
  9 29  1  0
  9 30  1  0
 10 11  1  0
 10 31  1  0
 10 32  1  0
 11 12  1  0
 11 33  1  0
 11 34  1  0
 12 13  1  0
 12 35  1  0
 12 36  1  0
 13 14  1  0
 13 37  1  0
 13 38  1  0
 14 39  1  0
 14 40  1  0
 14 41  1  0
M  CHG  2   1   1   2  -1
M  END
