
     RDKit          3D

 35 37  0  0  0  0  0  0  0  0999 V2000
    1.2000   -0.1145   -2.8464 C   0  0  0  0  0  0  0  0  0  0  0  0
    0.1076   -0.0737   -1.9426 C   0  0  0  0  0  0  0  0  0  0  0  0
   -1.1923    0.0486   -2.5651 C   0  0  0  0  0  0  0  0  0  0  0  0
   -1.3108    0.1115   -3.8778 N   0  0  0  0  0  0  0  0  0  0  0  0
   -0.1957    0.0610   -4.6244 C   0  0  0  0  0  0  0  0  0  0  0  0
    1.0406   -0.0443   -4.1851 N   0  0  0  0  0  0  0  0  0  0  0  0
   -2.3288    0.1046   -1.8686 N   0  0  0  0  0  0  0  0  0  0  0  0
    2.5112   -0.2301   -2.3378 C   0  0  0  0  0  0  0  0  0  0  0  0
    2.7208   -0.3021   -0.9872 C   0  0  0  0  0  0  0  0  0  0  0  0
    1.6564   -0.2604   -0.0772 C   0  0  0  0  0  0  0  0  0  0  0  0
    0.3689   -0.1466   -0.5525 C   0  0  0  0  0  0  0  0  0  0  0  0
   -0.3888    0.0915   -5.9632 N   0  0  0  0  0  0  0  0  0  0  0  0
   -0.7087   -0.1018    0.2730 O   0  0  0  0  0  0  0  0  0  0  0  0
   -0.5236   -0.0797    1.6394 C   0  0  0  0  0  0  0  0  0  0  0  0
   -0.5645   -1.2669    2.3559 C   0  0  0  0  0  0  0  0  0  0  0  0
   -0.4273   -1.2393    3.7314 C   0  0  0  0  0  0  0  0  0  0  0  0
   -0.2461   -0.0266    4.4009 C   0  0  0  0  0  0  0  0  0  0  0  0
   -0.2064    1.1591    3.6704 C   0  0  0  0  0  0  0  0  0  0  0  0
   -0.3454    1.1269    2.2881 C   0  0  0  0  0  0  0  0  0  0  0  0
   -0.1243   -0.0975    5.7392 O   0  0  0  0  0  0  0  0  0  0  0  0
    0.0731    1.1013    6.4629 C   0  0  0  0  0  0  0  0  0  0  0  0
   -3.1955    0.1964   -2.3706 H   0  0  0  0  0  0  0  0  0  0  0  0
   -2.3500    0.0718   -0.8667 H   0  0  0  0  0  0  0  0  0  0  0  0
    3.3350   -0.2601   -3.0382 H   0  0  0  0  0  0  0  0  0  0  0  0
    3.7288   -0.3938   -0.6030 H   0  0  0  0  0  0  0  0  0  0  0  0
    1.8555   -0.3210    0.9831 H   0  0  0  0  0  0  0  0  0  0  0  0
   -1.2811    0.4025   -6.3060 H   0  0  0  0  0  0  0  0  0  0  0  0
    0.4062    0.2838   -6.5479 H   0  0  0  0  0  0  0  0  0  0  0  0
   -0.7086   -2.2096    1.8434 H   0  0  0  0  0  0  0  0  0  0  0  0
   -0.4608   -2.1611    4.2982 H   0  0  0  0  0  0  0  0  0  0  0  0
   -0.0699    2.1168    4.1534 H   0  0  0  0  0  0  0  0  0  0  0  0
   -0.3155    2.0504    1.7235 H   0  0  0  0  0  0  0  0  0  0  0  0
    0.1423    0.8218    7.5110 H   0  0  0  0  0  0  0  0  0  0  0  0
    0.9976    1.6064    6.1712 H   0  0  0  0  0  0  0  0  0  0  0  0
   -0.7613    1.7960    6.3375 H   0  0  0  0  0  0  0  0  0  0  0  0
  1  2  1  0
  1  6  2  0
  1  8  1  0
  2  3  2  0
  2 11  1  0
  3  4  1  0
  3  7  1  0
  4  5  2  0
  5  6  1  0
  5 12  1  0
  7 22  1  0
  7 23  1  0
  8  9  2  0
  8 24  1  0
  9 10  1  0
  9 25  1  0
 10 11  2  0
 10 26  1  0
 11 13  1  0
 12 27  1  0
 12 28  1  0
 13 14  1  0
 14 15  2  0
 14 19  1  0
 15 16  1  0
 15 29  1  0
 16 17  2  0
 16 30  1  0
 17 18  1  0
 17 20  1  0
 18 19  2  0
 18 31  1  0
 19 32  1  0
 20 21  1  0
 21 33  1  0
 21 34  1  0
 21 35  1  0
M  END
