
     RDKit          3D

 49 50  0  0  0  0  0  0  0  0999 V2000
    7.4656    0.5570   -0.5401 C   0  0  0  0  0  0  0  0  0  0  0  0
    5.0910    0.7902   -0.1325 C   0  0  0  0  0  0  0  0  0  0  0  0
    2.6601    0.9535    0.0015 C   0  0  0  0  0  0  0  0  0  0  0  0
    8.6279   -0.1477    0.1283 C   0  0  0  0  0  0  0  0  0  0  0  0
    6.1565   -1.4596   -0.2060 C   0  0  0  0  0  0  0  0  0  0  0  0
    7.3903   -2.0761    0.4323 C   0  0  0  0  0  0  0  0  0  0  0  0
    5.1809    2.0123   -0.2204 O   0  0  0  0  0  0  0  0  0  0  0  0
   -2.2226    1.5874    1.3313 O   0  0  0  0  0  0  0  0  0  0  0  0
   -9.7330   -1.0862   -0.2347 O   0  0  0  0  0  0  0  0  0  0  0  0
   -4.5680    0.8066   -0.0209 O   0  0  0  0  0  0  0  0  0  0  0  0
    8.5833   -1.5409   -0.0859 O   0  0  0  0  0  0  0  0  0  0  0  0
    6.2055   -0.0122   -0.0883 N   0  0  0  0  0  0  0  0  0  0  0  0
    3.8840    0.1859   -0.0510 N   0  0  0  0  0  0  0  0  0  0  0  0
    1.4631    0.0154    0.0130 C   0  0  0  0  0  0  0  0  0  0  0  0
    0.2396    0.7828    0.0997 N   0  0  0  0  0  0  0  0  0  0  0  0
   -0.9491   -0.0412    0.0469 C   0  0  0  0  0  0  0  0  0  0  0  0
   -2.2036    0.8171    0.1492 C   0  0  1  0  0  0  0  0  0  0  0  0
   -3.4452   -0.0470    0.0133 C   0  0  0  0  0  0  0  0  0  0  0  0
   -5.8024    0.2554   -0.0778 C   0  0  0  0  0  0  0  0  0  0  0  0
   -6.0607   -1.1090   -0.1325 C   0  0  0  0  0  0  0  0  0  0  0  0
   -7.3722   -1.5727   -0.1859 C   0  0  0  0  0  0  0  0  0  0  0  0
   -8.4403   -0.6874   -0.1868 C   0  0  0  0  0  0  0  0  0  0  0  0
   -8.1796    0.6814   -0.1362 C   0  0  0  0  0  0  0  0  0  0  0  0
   -6.8786    1.1442   -0.0822 C   0  0  0  0  0  0  0  0  0  0  0  0
    7.5034    1.6151   -0.2935 H   0  0  0  0  0  0  0  0  0  0  0  0
    7.5565    0.4671   -1.6306 H   0  0  0  0  0  0  0  0  0  0  0  0
    2.6378    1.5832    0.8972 H   0  0  0  0  0  0  0  0  0  0  0  0
    2.5840    1.6190   -0.8611 H   0  0  0  0  0  0  0  0  0  0  0  0
    9.5665    0.2200   -0.2876 H   0  0  0  0  0  0  0  0  0  0  0  0
    8.6226    0.0747    1.2045 H   0  0  0  0  0  0  0  0  0  0  0  0
    6.0785   -1.7653   -1.2571 H   0  0  0  0  0  0  0  0  0  0  0  0
    5.2995   -1.8733    0.3248 H   0  0  0  0  0  0  0  0  0  0  0  0
    7.3425   -1.9271    1.5201 H   0  0  0  0  0  0  0  0  0  0  0  0
    7.3969   -3.1498    0.2411 H   0  0  0  0  0  0  0  0  0  0  0  0
   -2.2718    0.9912    2.0870 H   0  0  0  0  0  0  0  0  0  0  0  0
   -9.7847   -2.0476   -0.2579 H   0  0  0  0  0  0  0  0  0  0  0  0
    3.8024   -0.8135    0.0008 H   0  0  0  0  0  0  0  0  0  0  0  0
    1.4485   -0.5618   -0.9167 H   0  0  0  0  0  0  0  0  0  0  0  0
    1.5721   -0.7133    0.8329 H   0  0  0  0  0  0  0  0  0  0  0  0
    0.2370    1.3007    0.9709 H   0  0  0  0  0  0  0  0  0  0  0  0
   -0.9622   -0.5715   -0.9098 H   0  0  0  0  0  0  0  0  0  0  0  0
   -0.9675   -0.8179    0.8317 H   0  0  0  0  0  0  0  0  0  0  0  0
   -2.1878    1.5401   -0.6722 H   0  0  0  0  0  0  0  0  0  0  0  0
   -3.5119   -0.7472    0.8576 H   0  0  0  0  0  0  0  0  0  0  0  0
   -3.3809   -0.6446   -0.9036 H   0  0  0  0  0  0  0  0  0  0  0  0
   -5.2621   -1.8378   -0.1356 H   0  0  0  0  0  0  0  0  0  0  0  0
   -7.5474   -2.6420   -0.2279 H   0  0  0  0  0  0  0  0  0  0  0  0
   -9.0010    1.3869   -0.1376 H   0  0  0  0  0  0  0  0  0  0  0  0
   -6.6904    2.2101   -0.0433 H   0  0  0  0  0  0  0  0  0  0  0  0
 11  6  1  0
 11  4  1  0
  6  5  1  0
  4  1  1  0
  5 12  1  0
  1 12  1  0
 12  2  1  0
  2  7  2  0
  2 13  1  0
 13  3  1  0
  3 14  1  0
 14 15  1  0
 15 16  1  0
  8 17  1  0
 16 17  1  0
 17 18  1  0
 18 10  1  0
 10 19  1  0
 19 24  1  0
 19 20  2  0
 24 23  2  0
 20 21  1  0
 23 22  1  0
 21 22  2  0
 22  9  1  0
  1 25  1  0
  1 26  1  0
  3 27  1  0
  3 28  1  0
  4 29  1  0
  4 30  1  0
  5 31  1  0
  5 32  1  0
  6 33  1  0
  6 34  1  0
  8 35  1  0
  9 36  1  0
 13 37  1  0
 14 38  1  0
 14 39  1  0
 15 40  1  0
 16 41  1  0
 16 42  1  0
 17 43  1  6
 18 44  1  0
 18 45  1  0
 20 46  1  0
 21 47  1  0
 23 48  1  0
 24 49  1  0
M  END
