
     RDKit          3D

 34 36  0  0  0  0  0  0  0  0999 V2000
    1.2969    1.3991   -0.3011 C   0  0  0  0  0  0  0  0  0  0  0  0
    0.9624    1.1463    1.0251 C   0  0  0  0  0  0  0  0  0  0  0  0
    1.7121    0.2309    1.7478 C   0  0  0  0  0  0  0  0  0  0  0  0
    2.7873   -0.4202    1.1600 C   0  0  0  0  0  0  0  0  0  0  0  0
   -3.0137    2.7483   -0.3790 N   0  0  0  0  0  0  0  0  0  0  0  0
   -3.1283    1.3761   -0.3447 C   0  0  0  0  0  0  0  0  0  0  0  0
   -3.9614   -0.8370   -0.7473 C   0  0  0  0  0  0  0  0  0  0  0  0
   -2.9115   -1.3751    0.0417 C   0  0  0  0  0  0  0  0  0  0  0  0
   -2.0995    0.8273    0.4279 C   0  0  0  0  0  0  0  0  0  0  0  0
    3.6956   -1.5511    2.0876 Cl  0  0  0  0  0  0  0  0  0  0  0  0
    3.1159   -0.1629   -0.1645 C   0  0  0  0  0  0  0  0  0  0  0  0
    4.4417   -0.9649   -0.9149 Cl  0  0  0  0  0  0  0  0  0  0  0  0
    2.3647    0.7493   -0.8931 C   0  0  0  0  0  0  0  0  0  0  0  0
   -0.1858    1.8629    1.6900 C   0  0  0  0  0  0  0  0  0  0  0  0
   -1.3639    1.9037    0.8595 N   0  0  0  0  0  0  0  0  0  0  0  0
   -1.9620    3.0090    0.3413 C   0  0  0  0  0  0  0  0  0  0  0  0
   -1.9737   -0.5419    0.6313 C   0  0  0  0  0  0  0  0  0  0  0  0
   -4.9609   -1.7585   -1.3860 C   0  0  0  0  0  0  0  0  0  0  0  0
   -4.0667    0.5310   -0.9364 C   0  0  0  0  0  0  0  0  0  0  0  0
    0.7232    2.1044   -0.8887 H   0  0  0  0  0  0  0  0  0  0  0  0
    1.4597    0.0133    2.7779 H   0  0  0  0  0  0  0  0  0  0  0  0
    2.6195    0.9487   -1.9249 H   0  0  0  0  0  0  0  0  0  0  0  0
   -0.4267    1.3861    2.6420 H   0  0  0  0  0  0  0  0  0  0  0  0
    0.0956    2.8930    1.9144 H   0  0  0  0  0  0  0  0  0  0  0  0
   -1.5666    3.9956    0.5376 H   0  0  0  0  0  0  0  0  0  0  0  0
   -1.1693   -0.9597    1.2243 H   0  0  0  0  0  0  0  0  0  0  0  0
   -2.7112   -3.3896   -0.7086 H   0  0  0  0  0  0  0  0  0  0  0  0
   -1.9492   -3.1175    0.8553 H   0  0  0  0  0  0  0  0  0  0  0  0
   -3.6994   -3.2626    0.7322 H   0  0  0  0  0  0  0  0  0  0  0  0
   -5.5063   -2.3456   -0.6442 H   0  0  0  0  0  0  0  0  0  0  0  0
   -5.6948   -1.2002   -1.9654 H   0  0  0  0  0  0  0  0  0  0  0  0
   -4.4805   -2.4725   -2.0588 H   0  0  0  0  0  0  0  0  0  0  0  0
   -4.8704    0.9415   -1.5364 H   0  0  0  0  0  0  0  0  0  0  0  0
   -2.8109   -2.8597    0.2410 C   0  0  0  0  0  0  0  0  0  0  0  0
  5  6  1  0
  5 16  2  0
 19  6  2  0
 19  7  1  0
  6  9  1  0
 18  7  1  0
 16 15  1  0
  7  8  2  0
  9 15  1  0
  9 17  2  0
 15 14  1  0
  8 17  1  0
  8 34  1  0
 14  2  1  0
  1  2  2  0
  1 13  1  0
  2  3  1  0
 13 11  2  0
  3  4  2  0
 11  4  1  0
 11 12  1  0
  4 10  1  0
  1 20  1  0
  3 21  1  0
 13 22  1  0
 14 23  1  0
 14 24  1  0
 16 25  1  0
 17 26  1  0
 34 27  1  0
 34 28  1  0
 34 29  1  0
 18 30  1  0
 18 31  1  0
 18 32  1  0
 19 33  1  0
M  END
