
     RDKit          3D

 20 20  0  0  0  0  0  0  0  0999 V2000
    3.3580    0.1498    0.9644 C   0  0  0  0  0  0  0  0  0  0  0  0
    4.4671    0.5381   -0.1983 S   0  0  0  0  0  0  0  0  0  0  0  0
    2.0860   -0.1276    0.7672 N   0  0  0  0  0  0  0  0  0  0  0  0
    1.4434   -0.1303   -0.5346 C   0  0  0  0  0  0  0  0  0  0  0  0
   -0.0486   -0.0896   -0.3662 C   0  0  0  0  0  0  0  0  0  0  0  0
   -0.7133    1.1320   -0.2959 C   0  0  0  0  0  0  0  0  0  0  0  0
   -2.0808    1.1793   -0.0940 C   0  0  0  0  0  0  0  0  0  0  0  0
   -2.7951   -0.0119    0.0334 C   0  0  0  0  0  0  0  0  0  0  0  0
   -4.2073    0.0306    0.2388 C   0  0  0  0  0  0  0  0  0  0  0  0
   -5.3479    0.0672    0.3972 N   0  0  0  0  0  0  0  0  0  0  0  0
   -2.1424   -1.2414   -0.0379 C   0  0  0  0  0  0  0  0  0  0  0  0
   -0.7729   -1.2711   -0.2349 C   0  0  0  0  0  0  0  0  0  0  0  0
    3.6385    0.1012    2.0140 H   0  0  0  0  0  0  0  0  0  0  0  0
    1.7985    0.7371   -1.0926 H   0  0  0  0  0  0  0  0  0  0  0  0
    1.7480   -1.0177   -1.0953 H   0  0  0  0  0  0  0  0  0  0  0  0
   -0.1569    2.0551   -0.3976 H   0  0  0  0  0  0  0  0  0  0  0  0
   -2.5928    2.1265   -0.0090 H   0  0  0  0  0  0  0  0  0  0  0  0
   -2.7013   -2.1617    0.0629 H   0  0  0  0  0  0  0  0  0  0  0  0
   -0.2643   -2.2253   -0.2918 H   0  0  0  0  0  0  0  0  0  0  0  0
    1.5304   -0.3827    1.5709 H   0  0  0  0  0  0  0  0  0  0  0  0
 10  9  3  0
  9  8  1  0
 11  8  2  0
 11 12  1  0
  8  7  1  0
 12  5  2  0
  7  6  2  0
  5  6  1  0
  5  4  1  0
  4  3  1  0
  3  1  1  0
  2  1  2  0
  1 13  1  0
  4 14  1  0
  4 15  1  0
  6 16  1  0
  7 17  1  0
 11 18  1  0
 12 19  1  0
  3 20  1  0
M  END
