
     RDKit          3D

 30 31  0  0  0  0  0  0  0  0999 V2000
    1.9545   -0.6700   -0.3083 C   0  0  0  0  0  0  0  0  0  0  0  0
    2.9941   -0.3970   -1.0480 N   0  0  0  0  0  0  0  0  0  0  0  0
    2.7948    0.1378   -2.2665 C   0  0  0  0  0  0  0  0  0  0  0  0
    1.5552    0.4059   -2.7725 C   0  0  0  0  0  0  0  0  0  0  0  0
   -0.9108    0.3718   -2.4335 C   0  0  0  0  0  0  0  0  0  0  0  0
   -1.1755    1.0406   -3.9980 Cl  0  0  0  0  0  0  0  0  0  0  0  0
   -1.9835    0.0909   -1.6422 C   0  0  0  0  0  0  0  0  0  0  0  0
   -1.7866   -0.4464   -0.3578 C   0  0  0  0  0  0  0  0  0  0  0  0
   -0.5280   -0.7058    0.1061 C   0  0  0  0  0  0  0  0  0  0  0  0
    0.6121   -0.4326   -0.7020 C   0  0  0  0  0  0  0  0  0  0  0  0
    0.4170    0.1251   -1.9920 C   0  0  0  0  0  0  0  0  0  0  0  0
   -0.3894   -1.3492    1.7660 S   0  0  2  0  0  0  0  0  0  0  0  0
    0.5124   -2.4881    1.7584 O   0  0  0  0  0  0  0  0  0  0  0  0
   -1.7420   -1.5103    2.2673 O   0  0  0  0  0  0  0  0  0  0  0  0
    0.3274   -0.1804    2.6590 N   0  0  0  0  0  0  0  0  0  0  0  0
   -0.2969    1.1354    2.7623 C   0  0  0  0  0  0  0  0  0  0  0  0
    0.3385    1.9068    3.9095 C   0  0  0  0  0  0  0  0  0  0  0  0
   -0.2337    3.2399    3.9642 N   0  0  0  0  0  0  0  0  0  0  0  0
    2.1752   -1.1222    0.6492 H   0  0  0  0  0  0  0  0  0  0  0  0
    3.6823    0.3499   -2.8491 H   0  0  0  0  0  0  0  0  0  0  0  0
    1.4605    0.8307   -3.7613 H   0  0  0  0  0  0  0  0  0  0  0  0
   -2.9900    0.2805   -1.9870 H   0  0  0  0  0  0  0  0  0  0  0  0
   -2.6572   -0.6467    0.2495 H   0  0  0  0  0  0  0  0  0  0  0  0
    1.3368   -0.1653    2.5613 H   0  0  0  0  0  0  0  0  0  0  0  0
   -1.3600    1.0079    2.9622 H   0  0  0  0  0  0  0  0  0  0  0  0
   -0.1961    1.7026    1.8297 H   0  0  0  0  0  0  0  0  0  0  0  0
    1.4315    1.8954    3.7924 H   0  0  0  0  0  0  0  0  0  0  0  0
    0.1170    1.3893    4.8445 H   0  0  0  0  0  0  0  0  0  0  0  0
    0.0653    3.6996    4.8139 H   0  0  0  0  0  0  0  0  0  0  0  0
    0.1351    3.7998    3.2056 H   0  0  0  0  0  0  0  0  0  0  0  0
  1  2  2  0
  1 10  1  0
  1 19  1  0
  2  3  1  0
  3  4  2  0
  3 20  1  0
  4 11  1  0
  4 21  1  0
  5  6  1  0
  5  7  1  0
  5 11  2  0
  7  8  2  0
  7 22  1  0
  8  9  1  0
  8 23  1  0
  9 10  2  0
  9 12  1  0
 10 11  1  0
 12 13  2  0
 12 14  2  0
 12 15  1  1
 15 16  1  0
 15 24  1  0
 16 17  1  0
 16 25  1  0
 16 26  1  0
 17 18  1  0
 17 27  1  0
 17 28  1  0
 18 29  1  0
 18 30  1  0
M  END
