
     RDKit          3D

 13 12  0  0  0  0  0  0  0  0999 V2000
   -0.6113    0.0571   -2.2431 O   0  0  0  0  0  0  0  0  0  0  0  0
   -0.1651   -0.2192   -1.0282 C   0  0  0  0  0  0  0  0  0  0  0  0
    0.6392   -1.0836   -0.7861 O   0  0  0  0  0  0  0  0  0  0  0  0
   -0.8145    0.6425    0.0233 C   0  0  0  0  0  0  0  0  0  0  0  0
   -0.0092    0.5855    1.3095 C   0  0  0  0  0  0  0  0  0  0  0  0
    0.9707    1.2771    1.4509 O   0  0  0  0  0  0  0  0  0  0  0  0
   -0.5051   -0.3635    2.3548 C   0  0  0  0  0  0  0  0  0  0  0  0
   -0.2166   -0.5485   -2.8892 H   0  0  0  0  0  0  0  0  0  0  0  0
   -1.8293    0.2624    0.1753 H   0  0  0  0  0  0  0  0  0  0  0  0
   -0.9059    1.6724   -0.3259 H   0  0  0  0  0  0  0  0  0  0  0  0
    0.1860   -0.4432    3.1908 H   0  0  0  0  0  0  0  0  0  0  0  0
   -1.4732   -0.0145    2.7229 H   0  0  0  0  0  0  0  0  0  0  0  0
   -0.6752   -1.3516    1.9237 H   0  0  0  0  0  0  0  0  0  0  0  0
  1  2  1  0
  1  8  1  0
  2  3  2  0
  2  4  1  0
  4  5  1  0
  4  9  1  0
  4 10  1  0
  5  6  2  0
  5  7  1  0
  7 11  1  0
  7 12  1  0
  7 13  1  0
M  END
