
     RDKit          3D

 75 79  0  0  0  0  0  0  0  0999 V2000
   -4.8977    1.2572   -1.1626 O   0  0  0  0  0  0  0  0  0  0  0  0
   -4.0595    1.3483   -0.2783 C   0  0  0  0  0  0  0  0  0  0  0  0
   -2.8889    2.3057   -0.3508 C   0  0  1  0  0  0  0  0  0  0  0  0
   -1.7468    1.6417   -1.1331 C   0  0  0  0  0  0  0  0  0  0  0  0
   -0.5827    2.6109   -1.2578 C   0  0  0  0  0  0  0  0  0  0  0  0
   -0.9703    3.8199   -1.8718 O   0  0  0  0  0  0  0  0  0  0  0  0
   -1.9865    4.4842   -1.1508 C   0  0  0  0  0  0  0  0  0  0  0  0
   -3.2409    3.6354   -1.0071 C   0  0  0  0  0  0  0  0  0  0  0  0
   -4.0729    0.5708    0.8217 N   0  0  0  0  0  0  0  0  0  0  0  0
   -4.9042   -0.5979    0.9636 C   0  0  0  0  0  0  0  0  0  0  0  0
   -4.3906   -1.7739    0.1448 C   0  0  2  0  0  0  0  0  0  0  0  0
   -5.0831   -3.0699    0.5082 C   0  0  0  0  0  0  0  0  0  0  0  0
   -4.5479   -4.1421   -0.2487 O   0  0  0  0  0  0  0  0  0  0  0  0
   -3.2012   -4.1371   -0.3964 C   0  0  0  0  0  0  0  0  0  0  0  0
   -2.5953   -5.2702   -0.9227 C   0  0  0  0  0  0  0  0  0  0  0  0
   -1.2229   -5.2956   -1.1111 C   0  0  0  0  0  0  0  0  0  0  0  0
   -0.4531   -4.1948   -0.7666 C   0  0  0  0  0  0  0  0  0  0  0  0
   -3.0041   -1.8973    0.4188 O   0  0  0  0  0  0  0  0  0  0  0  0
   -2.4280   -3.0242   -0.0525 C   0  0  0  0  0  0  0  0  0  0  0  0
   -1.0423   -3.0477   -0.2389 C   0  0  0  0  0  0  0  0  0  0  0  0
   -0.2170   -1.8628    0.0733 C   0  0  0  0  0  0  0  0  0  0  0  0
   -0.3773   -1.2762    1.2676 N   0  0  0  0  0  0  0  0  0  0  0  0
    0.6944   -1.3701   -0.8410 C   0  0  0  0  0  0  0  0  0  0  0  0
    1.4554   -0.2504   -0.5141 C   0  0  0  0  0  0  0  0  0  0  0  0
    1.3051    0.3534    0.7229 C   0  0  0  0  0  0  0  0  0  0  0  0
    0.3381   -0.2334    1.5778 C   0  0  0  0  0  0  0  0  0  0  0  0
    0.1667    0.3720    2.7609 O   0  0  0  0  0  0  0  0  0  0  0  0
   -0.8256   -0.1445    3.6329 C   0  0  0  0  0  0  0  0  0  0  0  0
    1.9756    1.4765    1.1574 N   0  0  0  0  0  0  0  0  0  0  0  0
    3.0840    2.0792    0.5757 C   0  0  0  0  0  0  0  0  0  0  0  0
    3.2132    3.4688    0.6728 C   0  0  0  0  0  0  0  0  0  0  0  0
    4.3306    4.0992    0.1559 C   0  0  0  0  0  0  0  0  0  0  0  0
    5.3266    3.3667   -0.4787 C   0  0  0  0  0  0  0  0  0  0  0  0
    5.2086    1.9859   -0.5838 C   0  0  0  0  0  0  0  0  0  0  0  0
    4.0959    1.3477   -0.0456 C   0  0  0  0  0  0  0  0  0  0  0  0
    6.2627    1.1809   -1.3001 C   0  0  0  0  0  0  0  0  0  0  0  0
    6.6035   -0.0479   -0.6142 N   0  0  0  0  0  0  0  0  0  0  0  0
    7.3858   -0.9212   -1.4620 C   0  0  0  0  0  0  0  0  0  0  0  0
    7.2814    0.2010    0.6400 C   0  0  0  0  0  0  0  0  0  0  0  0
   -2.5278    2.5073    0.6656 H   0  0  0  0  0  0  0  0  0  0  0  0
   -1.4145    0.7275   -0.6361 H   0  0  0  0  0  0  0  0  0  0  0  0
   -2.0984    1.3556   -2.1284 H   0  0  0  0  0  0  0  0  0  0  0  0
   -0.1602    2.8066   -0.2602 H   0  0  0  0  0  0  0  0  0  0  0  0
    0.2125    2.1797   -1.8685 H   0  0  0  0  0  0  0  0  0  0  0  0
   -1.6206    4.7679   -0.1528 H   0  0  0  0  0  0  0  0  0  0  0  0
   -2.2082    5.4061   -1.6909 H   0  0  0  0  0  0  0  0  0  0  0  0
   -3.6860    3.4613   -1.9897 H   0  0  0  0  0  0  0  0  0  0  0  0
   -3.9728    4.1823   -0.4081 H   0  0  0  0  0  0  0  0  0  0  0  0
   -3.3009    0.6569    1.4614 H   0  0  0  0  0  0  0  0  0  0  0  0
   -4.9296   -0.8590    2.0226 H   0  0  0  0  0  0  0  0  0  0  0  0
   -5.9270   -0.3721    0.6618 H   0  0  0  0  0  0  0  0  0  0  0  0
   -4.5323   -1.5725   -0.9248 H   0  0  0  0  0  0  0  0  0  0  0  0
   -4.9679   -3.2678    1.5802 H   0  0  0  0  0  0  0  0  0  0  0  0
   -6.1476   -3.0203    0.2813 H   0  0  0  0  0  0  0  0  0  0  0  0
   -3.2085   -6.1230   -1.1866 H   0  0  0  0  0  0  0  0  0  0  0  0
   -0.7536   -6.1813   -1.5170 H   0  0  0  0  0  0  0  0  0  0  0  0
    0.6204   -4.2209   -0.9042 H   0  0  0  0  0  0  0  0  0  0  0  0
    0.8038   -1.8268   -1.8150 H   0  0  0  0  0  0  0  0  0  0  0  0
    2.1412    0.1534   -1.2456 H   0  0  0  0  0  0  0  0  0  0  0  0
   -0.8503    0.5238    4.4893 H   0  0  0  0  0  0  0  0  0  0  0  0
   -1.8096   -0.1660    3.1619 H   0  0  0  0  0  0  0  0  0  0  0  0
   -0.5855   -1.1550    3.9663 H   0  0  0  0  0  0  0  0  0  0  0  0
    1.5021    2.0265    1.8569 H   0  0  0  0  0  0  0  0  0  0  0  0
    2.4358    4.0482    1.1566 H   0  0  0  0  0  0  0  0  0  0  0  0
    4.4232    5.1741    0.2448 H   0  0  0  0  0  0  0  0  0  0  0  0
    6.1962    3.8679   -0.8863 H   0  0  0  0  0  0  0  0  0  0  0  0
    4.0480    0.2672   -0.0893 H   0  0  0  0  0  0  0  0  0  0  0  0
    5.8798    0.9150   -2.2908 H   0  0  0  0  0  0  0  0  0  0  0  0
    7.1464    1.8182   -1.4754 H   0  0  0  0  0  0  0  0  0  0  0  0
    7.5776   -1.8638   -0.9476 H   0  0  0  0  0  0  0  0  0  0  0  0
    6.8395   -1.1448   -2.3795 H   0  0  0  0  0  0  0  0  0  0  0  0
    8.3595   -0.4932   -1.7469 H   0  0  0  0  0  0  0  0  0  0  0  0
    6.6593    0.8038    1.3015 H   0  0  0  0  0  0  0  0  0  0  0  0
    7.4834   -0.7446    1.1449 H   0  0  0  0  0  0  0  0  0  0  0  0
    8.2434    0.7229    0.5130 H   0  0  0  0  0  0  0  0  0  0  0  0
 15 16  2  0
 15 14  1  0
 16 17  1  0
 13 14  1  0
 13 12  1  0
 14 19  2  0
 12 11  1  0
 17 20  2  0
 19 20  1  0
 19 18  1  0
 20 21  1  0
 11 18  1  0
 11 10  1  0
 23 21  1  0
 23 24  2  0
 21 22  2  0
 10  9  1  0
 24 25  1  0
 22 26  1  0
 38 37  1  0
  9  2  1  0
  1  2  2  0
 25 26  2  0
 25 29  1  0
 32 31  2  0
 32 33  1  0
 26 27  1  0
  2  3  1  0
 31 30  1  0
 37 39  1  0
 37 36  1  0
 33 34  2  0
 30 29  1  0
 30 35  2  0
 34 35  1  0
 34 36  1  0
 27 28  1  0
  3  8  1  0
  3  4  1  0
  8  7  1  0
  4  5  1  0
  7  6  1  0
  5  6  1  0
  3 40  1  1
  4 41  1  0
  4 42  1  0
  5 43  1  0
  5 44  1  0
  7 45  1  0
  7 46  1  0
  8 47  1  0
  8 48  1  0
  9 49  1  0
 10 50  1  0
 10 51  1  0
 11 52  1  6
 12 53  1  0
 12 54  1  0
 15 55  1  0
 16 56  1  0
 17 57  1  0
 23 58  1  0
 24 59  1  0
 28 60  1  0
 28 61  1  0
 28 62  1  0
 29 63  1  0
 31 64  1  0
 32 65  1  0
 33 66  1  0
 35 67  1  0
 36 68  1  0
 36 69  1  0
 38 70  1  0
 38 71  1  0
 38 72  1  0
 39 73  1  0
 39 74  1  0
 39 75  1  0
M  END
