
     RDKit          3D

 61 64  0  0  0  0  0  0  0  0999 V2000
   -0.1442    1.2321   -0.2254 C   0  0  0  0  0  0  0  0  0  0  0  0
   -1.2590    2.0523   -0.2280 C   0  0  0  0  0  0  0  0  0  0  0  0
   -1.1159    3.4228   -0.4663 C   0  0  0  0  0  0  0  0  0  0  0  0
    3.5558    3.0286   -0.9842 C   0  0  0  0  0  0  0  0  0  0  0  0
    2.6061   -0.2555   -0.1136 C   0  0  0  0  0  0  0  0  0  0  0  0
    0.5592   -3.4088   -0.1248 C   0  0  0  0  0  0  0  0  0  0  0  0
   -0.0095   -3.3560    1.1471 C   0  0  0  0  0  0  0  0  0  0  0  0
    0.2657   -2.2940    1.9973 C   0  0  0  0  0  0  0  0  0  0  0  0
   -5.8829    2.8764    0.6100 C   0  0  1  0  0  0  0  0  0  0  0  0
   -5.9174    3.2886   -0.8569 C   0  0  0  0  0  0  0  0  0  0  0  0
    0.1301    3.9580   -0.7031 C   0  0  0  0  0  0  0  0  0  0  0  0
    1.4067   -2.3689   -0.5176 C   0  0  0  0  0  0  0  0  0  0  0  0
    1.6845   -1.3072    0.3278 C   0  0  0  0  0  0  0  0  0  0  0  0
    1.2725    3.1526   -0.6865 C   0  0  0  0  0  0  0  0  0  0  0  0
    1.1157    1.7814   -0.4161 C   0  0  0  0  0  0  0  0  0  0  0  0
    1.1115   -1.2788    1.5982 C   0  0  0  0  0  0  0  0  0  0  0  0
    3.4921    1.6217   -0.6962 C   0  0  0  0  0  0  0  0  0  0  0  0
   -2.5918    1.4019   -0.0093 C   0  0  0  0  0  0  0  0  0  0  0  0
    4.8793    3.6333   -1.2947 C   0  0  0  0  0  0  0  0  0  0  0  0
   -7.2604    2.4300    1.0862 C   0  0  0  0  0  0  0  0  0  0  0  0
   -0.5603   -6.4112   -0.0490 C   0  0  0  0  0  0  0  0  0  0  0  0
   -0.5490   -5.9224   -2.4870 C   0  0  0  0  0  0  0  0  0  0  0  0
   -2.0375   -4.5894   -0.9978 C   0  0  0  0  0  0  0  0  0  0  0  0
   -0.6989   -5.3120   -1.0977 C   0  0  1  0  0  0  0  0  0  0  0  0
    3.8930   -0.4293   -0.2793 N   0  0  0  0  0  0  0  0  0  0  0  0
    4.4503    0.7344   -0.6397 N   0  0  0  0  0  0  0  0  0  0  0  0
    2.4871    3.7444   -0.9569 N   0  0  0  0  0  0  0  0  0  0  0  0
    2.2953    1.0423   -0.3849 N   0  0  0  0  0  0  0  0  0  0  0  0
   -3.5222    2.1794    0.5618 N   0  0  0  0  0  0  0  0  0  0  0  0
   -2.7782    0.2382   -0.3357 O   0  0  0  0  0  0  0  0  0  0  0  0
    1.4541    0.0356    2.6696 Cl  0  0  0  0  0  0  0  0  0  0  0  0
   -0.2778    0.1707   -0.0816 H   0  0  0  0  0  0  0  0  0  0  0  0
   -1.9797    4.0735   -0.5024 H   0  0  0  0  0  0  0  0  0  0  0  0
   -0.6606   -4.1334    1.5154 H   0  0  0  0  0  0  0  0  0  0  0  0
   -0.1806   -2.2751    2.9820 H   0  0  0  0  0  0  0  0  0  0  0  0
   -5.5793    3.7430    1.2102 H   0  0  0  0  0  0  0  0  0  0  0  0
   -4.9429    3.6240   -1.2132 H   0  0  0  0  0  0  0  0  0  0  0  0
   -6.2322    2.4518   -1.4855 H   0  0  0  0  0  0  0  0  0  0  0  0
   -6.6247    4.1040   -1.0154 H   0  0  0  0  0  0  0  0  0  0  0  0
    0.2484    5.0116   -0.9162 H   0  0  0  0  0  0  0  0  0  0  0  0
    1.8481   -2.3914   -1.5058 H   0  0  0  0  0  0  0  0  0  0  0  0
    4.7719    4.6966   -1.4920 H   0  0  0  0  0  0  0  0  0  0  0  0
    5.5703    3.4934   -0.4623 H   0  0  0  0  0  0  0  0  0  0  0  0
    5.3270    3.1517   -2.1651 H   0  0  0  0  0  0  0  0  0  0  0  0
   -7.2510    2.1538    2.1417 H   0  0  0  0  0  0  0  0  0  0  0  0
   -7.9947    3.2253    0.9566 H   0  0  0  0  0  0  0  0  0  0  0  0
   -7.6066    1.5644    0.5169 H   0  0  0  0  0  0  0  0  0  0  0  0
   -1.3210   -7.1715   -0.2265 H   0  0  0  0  0  0  0  0  0  0  0  0
    0.4155   -6.8936   -0.1165 H   0  0  0  0  0  0  0  0  0  0  0  0
   -0.6957   -6.0577    0.9713 H   0  0  0  0  0  0  0  0  0  0  0  0
   -0.6468   -5.1643   -3.2651 H   0  0  0  0  0  0  0  0  0  0  0  0
    0.4206   -6.4103   -2.5984 H   0  0  0  0  0  0  0  0  0  0  0  0
   -1.3200   -6.6749   -2.6505 H   0  0  0  0  0  0  0  0  0  0  0  0
   -2.2344   -4.1725   -0.0112 H   0  0  0  0  0  0  0  0  0  0  0  0
   -2.1060   -3.7833   -1.7299 H   0  0  0  0  0  0  0  0  0  0  0  0
   -2.8384   -5.2990   -1.2074 H   0  0  0  0  0  0  0  0  0  0  0  0
   -4.9400    1.4226    1.8972 H   0  0  0  0  0  0  0  0  0  0  0  0
   -5.1151    0.8969    0.2293 H   0  0  0  0  0  0  0  0  0  0  0  0
   -3.2388    3.0675    0.9453 H   0  0  0  0  0  0  0  0  0  0  0  0
    0.4119   -4.3856   -1.0296 O   0  0  0  0  0  0  0  0  0  0  0  0
   -4.8741    1.7562    0.8563 C   0  0  0  0  0  0  0  0  0  0  0  0
 23 24  1  0
 24 21  1  0
 24 22  1  0
 24 60  1  1
  7  8  1  0
  7  6  2  0
  8 16  2  0
 60  6  1  0
  6 12  1  0
 16 31  1  0
 16 13  1  0
 20  9  1  0
 12 13  2  0
 30 18  2  0
 13  5  1  0
  9 61  1  0
  9 10  1  0
 61 29  1  0
 18 29  1  0
 18  2  1  0
  5 25  2  0
  5 28  1  0
  1  2  2  0
  1 15  1  0
 25 26  1  0
  2  3  1  0
 28 15  1  0
 28 17  1  0
 15 14  2  0
 26 17  2  0
  3 11  2  0
 17  4  1  0
 14 11  1  0
 14 27  1  0
  4 27  2  0
  4 19  1  0
  1 32  1  0
  3 33  1  0
  7 34  1  0
  8 35  1  0
  9 36  1  1
 10 37  1  0
 10 38  1  0
 10 39  1  0
 11 40  1  0
 12 41  1  0
 19 42  1  0
 19 43  1  0
 19 44  1  0
 20 45  1  0
 20 46  1  0
 20 47  1  0
 21 48  1  0
 21 49  1  0
 21 50  1  0
 22 51  1  0
 22 52  1  0
 22 53  1  0
 23 54  1  0
 23 55  1  0
 23 56  1  0
 61 57  1  0
 61 58  1  0
 29 59  1  0
M  END
