
     RDKit          3D

 42 41  0  0  0  0  0  0  0  0999 V2000
    0.2853   -0.4841    4.9115 C   0  0  0  0  0  0  0  0  0  0  0  0
    0.1324    0.3421    5.7748 O   0  0  0  0  0  0  0  0  0  0  0  0
   -0.2311   -1.7004    4.9414 O   0  0  0  0  0  0  0  0  0  0  0  0
    1.0751   -0.2301    3.6396 C   0  0  2  0  0  0  0  0  0  0  0  0
    1.8750    0.9167    3.7853 O   0  0  0  0  0  0  0  0  0  0  0  0
    0.1287   -0.1542    2.4350 C   0  0  0  0  0  0  0  0  0  0  0  0
    0.8845    0.0454    1.1211 C   0  0  2  0  0  0  0  0  0  0  0  0
    1.4574    1.3288    1.0150 O   0  0  0  0  0  0  0  0  0  0  0  0
   -0.0418   -0.1447   -0.0835 C   0  0  1  0  0  0  0  0  0  0  0  0
   -1.1197    0.8161   -0.0526 N   0  0  0  0  0  0  0  0  0  0  0  0
   -2.4173    0.5069    0.1341 C   0  0  0  0  0  0  0  0  0  0  0  0
   -2.8229   -0.6372    0.2825 O   0  0  0  0  0  0  0  0  0  0  0  0
   -3.3598    1.6850    0.1321 C   0  0  0  0  0  0  0  0  0  0  0  0
    0.7142   -0.0410   -1.4229 C   0  0  1  0  0  0  0  0  0  0  0  0
    1.8545   -0.8718   -1.4295 O   0  0  0  0  0  0  0  0  0  0  0  0
   -0.1955   -0.3464   -2.6201 C   0  0  2  0  0  0  0  0  0  0  0  0
   -0.6991   -1.6648   -2.5600 O   0  0  0  0  0  0  0  0  0  0  0  0
    0.5082   -0.0747   -3.9620 C   0  0  2  0  0  0  0  0  0  0  0  0
    1.0253    1.2355   -4.0072 O   0  0  0  0  0  0  0  0  0  0  0  0
   -0.4224   -0.3487   -5.1339 C   0  0  0  0  0  0  0  0  0  0  0  0
    0.2914   -0.1525   -6.3323 O   0  0  0  0  0  0  0  0  0  0  0  0
   -0.7653   -1.8220    5.7413 H   0  0  0  0  0  0  0  0  0  0  0  0
    1.7623   -1.0687    3.4891 H   0  0  0  0  0  0  0  0  0  0  0  0
    1.3502    1.6182    4.1910 H   0  0  0  0  0  0  0  0  0  0  0  0
   -0.5996    0.6496    2.5815 H   0  0  0  0  0  0  0  0  0  0  0  0
   -0.4335   -1.0889    2.3759 H   0  0  0  0  0  0  0  0  0  0  0  0
    1.6587   -0.7342    1.0700 H   0  0  0  0  0  0  0  0  0  0  0  0
    1.9166    1.5091    1.8449 H   0  0  0  0  0  0  0  0  0  0  0  0
   -0.4895   -1.1384   -0.0101 H   0  0  0  0  0  0  0  0  0  0  0  0
   -0.8687    1.7892   -0.1276 H   0  0  0  0  0  0  0  0  0  0  0  0
   -4.0307    1.6049   -0.7236 H   0  0  0  0  0  0  0  0  0  0  0  0
   -3.9750    1.6590    1.0307 H   0  0  0  0  0  0  0  0  0  0  0  0
   -2.8565    2.6488    0.0829 H   0  0  0  0  0  0  0  0  0  0  0  0
    1.0859    0.9802   -1.5326 H   0  0  0  0  0  0  0  0  0  0  0  0
    1.5932   -1.7655   -1.1818 H   0  0  0  0  0  0  0  0  0  0  0  0
   -1.0697    0.3125   -2.5653 H   0  0  0  0  0  0  0  0  0  0  0  0
   -0.0081   -2.2810   -2.8277 H   0  0  0  0  0  0  0  0  0  0  0  0
    1.3772   -0.7384   -4.0422 H   0  0  0  0  0  0  0  0  0  0  0  0
    0.2886    1.8569   -4.0131 H   0  0  0  0  0  0  0  0  0  0  0  0
   -0.8115   -1.3696   -5.0606 H   0  0  0  0  0  0  0  0  0  0  0  0
   -1.2896    0.3267   -5.0648 H   0  0  0  0  0  0  0  0  0  0  0  0
   -0.3039   -0.3382   -7.0637 H   0  0  0  0  0  0  0  0  0  0  0  0
  1  2  2  0
  1  3  1  0
  1  4  1  0
  3 22  1  0
  4  5  1  0
  4  6  1  0
  4 23  1  6
  5 24  1  0
  6  7  1  0
  6 25  1  0
  6 26  1  0
  7  8  1  0
  7  9  1  0
  7 27  1  6
  8 28  1  0
  9 10  1  0
  9 14  1  0
  9 29  1  1
 10 11  1  0
 10 30  1  0
 11 12  2  0
 11 13  1  0
 13 31  1  0
 13 32  1  0
 13 33  1  0
 14 15  1  0
 14 16  1  0
 14 34  1  6
 15 35  1  0
 16 17  1  0
 16 18  1  0
 16 36  1  1
 17 37  1  0
 18 19  1  0
 18 20  1  0
 18 38  1  6
 19 39  1  0
 20 21  1  0
 20 40  1  0
 20 41  1  0
 21 42  1  0
M  END
