
     RDKit          3D

 22 23  0  0  0  0  0  0  0  0999 V2000
   -4.0129    1.1207    0.1129 O   0  0  0  0  0  0  0  0  0  0  0  0
   -3.0067    0.4275    0.0577 C   0  0  0  0  0  0  0  0  0  0  0  0
   -1.6868    1.0157   -0.0393 C   0  0  0  0  0  0  0  0  0  0  0  0
   -0.5508    0.2751   -0.0661 C   0  0  0  0  0  0  0  0  0  0  0  0
   -0.5764   -1.2207   -0.1040 C   0  0  0  0  0  0  0  0  0  0  0  0
   -1.9233   -1.7352   -0.5913 C   0  0  0  0  0  0  0  0  0  0  0  0
   -3.0773   -1.0767    0.1446 C   0  0  0  0  0  0  0  0  0  0  0  0
    0.6528    0.9359   -0.0786 N   0  0  0  0  0  0  0  0  0  0  0  0
    1.9057    0.4227    0.0351 C   0  0  0  0  0  0  0  0  0  0  0  0
    2.2867   -0.7896    0.3690 N   0  0  0  0  0  0  0  0  0  0  0  0
    3.6227   -0.7666    0.3516 N   0  0  0  0  0  0  0  0  0  0  0  0
    4.0689    0.3792    0.0423 N   0  0  0  0  0  0  0  0  0  0  0  0
    3.0082    1.1515   -0.1693 N   0  0  0  0  0  0  0  0  0  0  0  0
   -1.6266    2.0992   -0.0368 H   0  0  0  0  0  0  0  0  0  0  0  0
    0.2168   -1.5943   -0.7505 H   0  0  0  0  0  0  0  0  0  0  0  0
   -0.3547   -1.6046    0.8965 H   0  0  0  0  0  0  0  0  0  0  0  0
   -2.0147   -1.5417   -1.6631 H   0  0  0  0  0  0  0  0  0  0  0  0
   -1.9608   -2.8171   -0.4625 H   0  0  0  0  0  0  0  0  0  0  0  0
   -3.0462   -1.3460    1.2072 H   0  0  0  0  0  0  0  0  0  0  0  0
   -4.0409   -1.4157   -0.2381 H   0  0  0  0  0  0  0  0  0  0  0  0
    0.5992    1.9445   -0.1131 H   0  0  0  0  0  0  0  0  0  0  0  0
    3.1128    2.1205   -0.4362 H   0  0  0  0  0  0  0  0  0  0  0  0
  1  2  2  0
  2  3  1  0
  2  7  1  0
  3  4  2  0
  4  5  1  0
  4  8  1  0
  5  6  1  0
  6  7  1  0
  8  9  1  0
  9 10  2  0
  9 13  1  0
 10 11  1  0
 11 12  2  0
 12 13  1  0
  3 14  1  0
  5 15  1  0
  5 16  1  0
  6 17  1  0
  6 18  1  0
  7 19  1  0
  7 20  1  0
  8 21  1  0
 13 22  1  0
M  END
