
     RDKit          3D

 37 36  0  0  0  0  0  0  0  0999 V2000
   -0.3234    0.3813   -6.1518 C   0  0  0  0  0  0  0  0  0  0  0  0
    0.1797    0.1935   -3.8442 C   0  0  0  0  0  0  0  0  0  0  0  0
   -0.4911   -0.2337   -2.5542 C   0  0  0  0  0  0  0  0  0  0  0  0
    0.3441    0.1097   -1.3258 C   0  0  0  0  0  0  0  0  0  0  0  0
   -0.4045   -0.1429   -0.0227 C   0  0  0  0  0  0  0  0  0  0  0  0
    0.4395    0.1014    1.2216 C   0  0  0  0  0  0  0  0  0  0  0  0
   -0.3405   -0.0938    2.5158 C   0  0  0  0  0  0  0  0  0  0  0  0
    0.4990    0.1148    3.7696 C   0  0  0  0  0  0  0  0  0  0  0  0
   -0.2929   -0.0724    5.0575 C   0  0  0  0  0  0  0  0  0  0  0  0
    0.5415    0.1230    6.3172 C   0  0  0  0  0  0  0  0  0  0  0  0
   -0.2615   -0.0757    7.5952 C   0  0  0  0  0  0  0  0  0  0  0  0
   -0.5960   -0.2526   -4.9403 O   0  0  0  0  0  0  0  0  0  0  0  0
    0.9103    0.0375   -6.7043 O   0  0  0  0  0  0  0  0  0  0  0  0
   -1.0919    0.0378   -6.8451 H   0  0  0  0  0  0  0  0  0  0  0  0
   -0.4075    1.4717   -6.0355 H   0  0  0  0  0  0  0  0  0  0  0  0
    0.2752    1.2889   -3.8643 H   0  0  0  0  0  0  0  0  0  0  0  0
    1.1969   -0.2169   -3.8906 H   0  0  0  0  0  0  0  0  0  0  0  0
   -0.6724   -1.3126   -2.5769 H   0  0  0  0  0  0  0  0  0  0  0  0
   -1.4706    0.2489   -2.4817 H   0  0  0  0  0  0  0  0  0  0  0  0
    0.6507    1.1605   -1.3653 H   0  0  0  0  0  0  0  0  0  0  0  0
    1.2673   -0.4788   -1.3388 H   0  0  0  0  0  0  0  0  0  0  0  0
   -0.7767   -1.1731   -0.0099 H   0  0  0  0  0  0  0  0  0  0  0  0
   -1.2908    0.5000    0.0080 H   0  0  0  0  0  0  0  0  0  0  0  0
    0.8482    1.1176    1.1940 H   0  0  0  0  0  0  0  0  0  0  0  0
    1.3027   -0.5733    1.2121 H   0  0  0  0  0  0  0  0  0  0  0  0
   -0.7694   -1.1021    2.5313 H   0  0  0  0  0  0  0  0  0  0  0  0
   -1.1915    0.5963    2.5308 H   0  0  0  0  0  0  0  0  0  0  0  0
    0.9346    1.1202    3.7539 H   0  0  0  0  0  0  0  0  0  0  0  0
    1.3450   -0.5816    3.7599 H   0  0  0  0  0  0  0  0  0  0  0  0
   -0.7350   -1.0752    5.0684 H   0  0  0  0  0  0  0  0  0  0  0  0
   -1.1356    0.6282    5.0699 H   0  0  0  0  0  0  0  0  0  0  0  0
    0.9792    1.1262    6.3097 H   0  0  0  0  0  0  0  0  0  0  0  0
    1.3850   -0.5745    6.3045 H   0  0  0  0  0  0  0  0  0  0  0  0
    0.3556    0.0626    8.4839 H   0  0  0  0  0  0  0  0  0  0  0  0
   -1.0908    0.6317    7.6558 H   0  0  0  0  0  0  0  0  0  0  0  0
   -0.6848   -1.0811    7.6406 H   0  0  0  0  0  0  0  0  0  0  0  0
    1.5945    0.6099   -6.3444 H   0  0  0  0  0  0  0  0  0  0  0  0
  1 12  1  0
  1 13  1  0
  1 14  1  0
  1 15  1  0
  2  3  1  0
  2 12  1  0
  2 16  1  0
  2 17  1  0
  3  4  1  0
  3 18  1  0
  3 19  1  0
  4  5  1  0
  4 20  1  0
  4 21  1  0
  5  6  1  0
  5 22  1  0
  5 23  1  0
  6  7  1  0
  6 24  1  0
  6 25  1  0
  7  8  1  0
  7 26  1  0
  7 27  1  0
  8  9  1  0
  8 28  1  0
  8 29  1  0
  9 10  1  0
  9 30  1  0
  9 31  1  0
 10 11  1  0
 10 32  1  0
 10 33  1  0
 11 34  1  0
 11 35  1  0
 11 36  1  0
 13 37  1  0
M  END
