
     RDKit          3D

 17 18  0  0  0  0  0  0  0  0999 V2000
   -2.1208    1.2477    0.0385 C   0  0  0  0  0  0  0  0  0  0  0  0
   -2.5928   -0.0803   -0.0096 C   0  0  0  0  0  0  0  0  0  0  0  0
   -0.7698    1.5161    0.0686 C   0  0  0  0  0  0  0  0  0  0  0  0
   -1.7382   -1.1600   -0.0252 C   0  0  0  0  0  0  0  0  0  0  0  0
    0.1199    0.4367    0.0482 C   0  0  0  0  0  0  0  0  0  0  0  0
   -0.3652   -0.8826    0.0061 C   0  0  0  0  0  0  0  0  0  0  0  0
    1.5420    0.2859    0.0681 C   0  0  0  0  0  0  0  0  0  0  0  0
    1.8736   -0.9792    0.0406 N   0  0  0  0  0  0  0  0  0  0  0  0
    0.7187   -1.6826    0.0130 N   0  0  0  0  0  0  0  0  0  0  0  0
    2.4670    1.3023    0.1742 N   0  0  0  0  0  0  0  0  0  0  0  0
   -2.8341    2.0607    0.0542 H   0  0  0  0  0  0  0  0  0  0  0  0
   -3.6611   -0.2542   -0.0318 H   0  0  0  0  0  0  0  0  0  0  0  0
   -0.4103    2.5370    0.1092 H   0  0  0  0  0  0  0  0  0  0  0  0
   -2.1111   -2.1753   -0.0591 H   0  0  0  0  0  0  0  0  0  0  0  0
    0.7507   -2.6869   -0.0130 H   0  0  0  0  0  0  0  0  0  0  0  0
    2.2274    2.1276   -0.3544 H   0  0  0  0  0  0  0  0  0  0  0  0
    3.4102    1.0123   -0.0378 H   0  0  0  0  0  0  0  0  0  0  0  0
  1  2  2  0
  1  3  1  0
  2  4  1  0
  3  5  2  0
  4  6  2  0
  5  6  1  0
  5  7  1  0
  6  9  1  0
  7  8  2  0
  7 10  1  0
  8  9  1  0
  1 11  1  0
  2 12  1  0
  3 13  1  0
  4 14  1  0
  9 15  1  0
 10 16  1  0
 10 17  1  0
M  END
