
     RDKit          3D

 25 25  0  0  0  0  0  0  0  0999 V2000
   -1.9255    1.8005   -0.5510 N   0  0  0  0  0  0  0  0  0  0  0  0
   -1.6881    0.3796   -0.4838 C   0  0  2  0  0  0  0  0  0  0  0  0
   -2.9700   -0.4444   -0.4720 C   0  0  0  0  0  0  0  0  0  0  0  0
   -4.0429   -0.1817    0.0781 O   0  0  0  0  0  0  0  0  0  0  0  0
   -0.8035   -0.0521    0.7293 C   0  0  2  0  0  0  0  0  0  0  0  0
   -1.0601    0.7413    1.8730 O   0  0  0  0  0  0  0  0  0  0  0  0
    0.6454   -0.0881    0.3395 C   0  0  0  0  0  0  0  0  0  0  0  0
    1.3462   -1.2939    0.4545 C   0  0  0  0  0  0  0  0  0  0  0  0
    1.3107    1.0508   -0.1363 C   0  0  0  0  0  0  0  0  0  0  0  0
    2.6910   -1.3711    0.1034 C   0  0  0  0  0  0  0  0  0  0  0  0
    2.6534    0.9947   -0.4917 C   0  0  0  0  0  0  0  0  0  0  0  0
    3.3424   -0.2236   -0.3699 C   0  0  0  0  0  0  0  0  0  0  0  0
    4.6676   -0.2185   -0.7366 O   0  0  0  0  0  0  0  0  0  0  0  0
   -2.9007   -1.6154   -1.1621 O   0  0  0  0  0  0  0  0  0  0  0  0
   -1.9140    2.1135   -1.5028 H   0  0  0  0  0  0  0  0  0  0  0  0
   -2.8128    2.0290   -0.1428 H   0  0  0  0  0  0  0  0  0  0  0  0
   -1.1343    0.0751   -1.4241 H   0  0  0  0  0  0  0  0  0  0  0  0
   -1.1426   -1.0855    1.0431 H   0  0  0  0  0  0  0  0  0  0  0  0
   -3.7534   -2.0785   -1.1060 H   0  0  0  0  0  0  0  0  0  0  0  0
   -0.6740    1.6162    1.7376 H   0  0  0  0  0  0  0  0  0  0  0  0
    0.8338   -2.1947    0.8263 H   0  0  0  0  0  0  0  0  0  0  0  0
    0.7710    2.0070   -0.2314 H   0  0  0  0  0  0  0  0  0  0  0  0
    3.2359   -2.3210    0.1962 H   0  0  0  0  0  0  0  0  0  0  0  0
    3.1826    1.8827   -0.8649 H   0  0  0  0  0  0  0  0  0  0  0  0
    5.1039   -0.9598   -0.2927 H   0  0  0  0  0  0  0  0  0  0  0  0
  1  2  1  0
  2  3  1  0
  2  5  1  0
  3  4  2  0
  3 14  1  0
  5  6  1  0
  5  7  1  0
  7  8  2  0
  7  9  1  0
  8 10  1  0
  9 11  2  0
 10 12  2  0
 11 12  1  0
 12 13  1  0
  1 15  1  0
  1 16  1  0
  2 17  1  6
  5 18  1  1
 14 19  1  0
  6 20  1  0
  8 21  1  0
  9 22  1  0
 10 23  1  0
 11 24  1  0
 13 25  1  0
M  END
