
     RDKit          3D

  8  8  0  0  0  0  0  0  0  0999 V2000
   -0.6667    0.0640    0.9740 N   0  0  0  0  0  0  0  0  0  0  0  0
    0.6915    0.0279    0.9886 N   0  0  0  0  0  0  0  0  0  0  0  0
    1.0951   -0.0261   -0.2482 C   0  0  0  0  0  0  0  0  0  0  0  0
    0.0328   -0.0264   -1.0786 N   0  0  0  0  0  0  0  0  0  0  0  0
   -1.0458    0.0309   -0.2713 C   0  0  0  0  0  0  0  0  0  0  0  0
    2.1180   -0.0651   -0.5855 H   0  0  0  0  0  0  0  0  0  0  0  0
    0.0420   -0.0604   -2.0862 H   0  0  0  0  0  0  0  0  0  0  0  0
   -2.0616    0.0458   -0.6308 H   0  0  0  0  0  0  0  0  0  0  0  0
  1  2  1  0
  1  5  2  0
  2  3  2  0
  3  4  1  0
  3  6  1  0
  4  5  1  0
  4  7  1  0
  5  8  1  0
M  END
