
     RDKit          3D

 19 20  0  0  0  0  0  0  0  0999 V2000
   -3.3658    0.0544    0.0119 F   0  0  0  0  0  0  0  0  0  0  0  0
   -2.1642   -0.5167    0.0023 C   0  0  1  0  0  0  0  0  0  0  0  0
   -2.0963   -1.3237    1.0720 F   0  0  0  0  0  0  0  0  0  0  0  0
   -2.1087   -1.3133   -1.0758 F   0  0  0  0  0  0  0  0  0  0  0  0
   -1.0508    0.4802    0.0006 C   0  0  0  0  0  0  0  0  0  0  0  0
   -1.2984    1.8538   -0.0031 C   0  0  0  0  0  0  0  0  0  0  0  0
   -0.2704    2.7874   -0.0072 C   0  0  0  0  0  0  0  0  0  0  0  0
    1.0508    2.3650   -0.0082 C   0  0  0  0  0  0  0  0  0  0  0  0
    1.3062    1.0063   -0.0046 C   0  0  0  0  0  0  0  0  0  0  0  0
    0.2722    0.0648   -0.0002 C   0  0  0  0  0  0  0  0  0  0  0  0
    0.7878   -1.2261    0.0032 N   0  0  0  0  0  0  0  0  0  0  0  0
    2.1500   -1.2249    0.0033 C   0  0  0  0  0  0  0  0  0  0  0  0
    2.8952   -2.1679    0.0079 O   0  0  0  0  0  0  0  0  0  0  0  0
    2.5620    0.2680   -0.0040 C   0  0  0  0  0  0  0  0  0  0  0  0
    3.7008    0.6484   -0.0076 O   0  0  0  0  0  0  0  0  0  0  0  0
   -2.3187    2.2120   -0.0022 H   0  0  0  0  0  0  0  0  0  0  0  0
   -0.5070    3.8415   -0.0093 H   0  0  0  0  0  0  0  0  0  0  0  0
    1.8652    3.0770   -0.0108 H   0  0  0  0  0  0  0  0  0  0  0  0
    0.2443   -2.0765    0.0142 H   0  0  0  0  0  0  0  0  0  0  0  0
  2  4  1  6
  6  7  1  0
  6  5  2  0
  7  8  2  0
  1  2  1  0
  2  5  1  0
  2  3  1  0
  5 10  1  0
  8  9  1  0
 10  9  2  0
 10 11  1  0
  9 14  1  0
 11 12  1  0
 15 14  2  0
 14 12  1  0
 12 13  2  0
  6 16  1  0
  7 17  1  0
  8 18  1  0
 11 19  1  0
M  END
