
     RDKit          3D

 76 80  0  0  0  0  0  0  0  0999 V2000
    7.6929   -0.5002   -1.4938 C   0  0  2  0  0  0  0  0  0  0  0  0
    6.3641   -1.2265   -1.2651 C   0  0  1  0  0  0  0  0  0  0  0  0
    6.7407   -2.4756   -0.4449 C   0  0  2  0  0  0  0  0  0  0  0  0
    8.5573   -0.9888   -0.4875 O   0  0  0  0  0  0  0  0  0  0  0  0
    5.5551   -0.2576   -0.5302 N   0  0  0  0  0  0  0  0  0  0  0  0
    7.3980    0.9724   -1.2614 C   0  0  1  0  0  0  0  0  0  0  0  0
    6.3187    0.9256   -0.1730 C   0  0  0  0  0  0  0  0  0  0  0  0
    3.5144    0.4642    0.6324 C   0  0  2  0  0  0  0  0  0  0  0  0
    4.2642   -0.5205   -0.2681 C   0  0  0  0  0  0  0  0  0  0  0  0
    3.7994    0.1113    2.0948 C   0  0  0  0  0  0  0  0  0  0  0  0
    3.5047    0.5572    4.5274 C   0  0  0  0  0  0  0  0  0  0  0  0
    0.1287    0.7428   -0.9850 C   0  0  0  0  0  0  0  0  0  0  0  0
   -0.3605    0.8550   -2.2819 C   0  0  0  0  0  0  0  0  0  0  0  0
   -2.6421    0.5289   -1.4936 C   0  0  0  0  0  0  0  0  0  0  0  0
   -4.0885    0.4146   -1.7108 C   0  0  0  0  0  0  0  0  0  0  0  0
   -6.0998   -0.1387   -0.9772 C   0  0  0  0  0  0  0  0  0  0  0  0
   -8.4584   -0.3582   -0.4115 C   0  0  0  0  0  0  0  0  0  0  0  0
   -9.3379   -1.4464    0.1735 C   0  0  0  0  0  0  0  0  0  0  0  0
    3.7160   -1.5345   -0.6739 O   0  0  0  0  0  0  0  0  0  0  0  0
    8.2712   -2.3617   -0.3502 C   0  0  0  0  0  0  0  0  0  0  0  0
    6.3069   -3.6425   -1.0922 O   0  0  0  0  0  0  0  0  0  0  0  0
    8.5745    1.7627   -1.0028 N   0  0  0  0  0  0  0  0  0  0  0  0
    3.1270    1.0226    3.1245 C   0  0  1  0  0  0  0  0  0  0  0  0
    3.5039    2.4864    2.9239 C   0  0  0  0  0  0  0  0  0  0  0  0
    2.1015    0.4074    0.3680 N   0  0  0  0  0  0  0  0  0  0  0  0
    2.3019    1.4468   -1.6162 O   0  0  0  0  0  0  0  0  0  0  0  0
   -0.7703    0.5313    0.0572 C   0  0  0  0  0  0  0  0  0  0  0  0
   -2.1251    0.4232   -0.1994 C   0  0  0  0  0  0  0  0  0  0  0  0
   -1.7133    0.7405   -2.5094 C   0  0  0  0  0  0  0  0  0  0  0  0
   -2.1379    0.8306   -3.7786 F   0  0  0  0  0  0  0  0  0  0  0  0
   -4.8352   -0.1129   -0.6885 N   0  0  0  0  0  0  0  0  0  0  0  0
   -6.4784    0.5318   -2.5493 S   0  0  0  0  0  0  0  0  0  0  0  0
   -4.7966    0.8149   -2.8012 C   0  0  0  0  0  0  0  0  0  0  0  0
   -7.0580   -0.6608   -0.1832 N   0  0  0  0  0  0  0  0  0  0  0  0
   -6.7165   -0.9935    1.1905 C   0  0  0  0  0  0  0  0  0  0  0  0
   -7.6490   -2.0661    1.7159 C   0  0  0  0  0  0  0  0  0  0  0  0
   -9.0323   -1.6653    1.5700 N   0  0  0  0  0  0  0  0  0  0  0  0
   -9.9358   -2.6204    2.1706 C   0  0  0  0  0  0  0  0  0  0  0  0
    8.1053   -0.6982   -2.4905 H   0  0  0  0  0  0  0  0  0  0  0  0
    5.8697   -1.5106   -2.1958 H   0  0  0  0  0  0  0  0  0  0  0  0
    6.3046   -2.3922    0.5577 H   0  0  0  0  0  0  0  0  0  0  0  0
    6.9293    1.3474   -2.1763 H   0  0  0  0  0  0  0  0  0  0  0  0
    5.7062    1.8256   -0.1798 H   0  0  0  0  0  0  0  0  0  0  0  0
    6.7726    0.8332    0.8200 H   0  0  0  0  0  0  0  0  0  0  0  0
    3.8507    1.4830    0.4372 H   0  0  0  0  0  0  0  0  0  0  0  0
    3.4994   -0.9271    2.2719 H   0  0  0  0  0  0  0  0  0  0  0  0
    4.8822    0.1454    2.2514 H   0  0  0  0  0  0  0  0  0  0  0  0
    4.5796    0.6609    4.6937 H   0  0  0  0  0  0  0  0  0  0  0  0
    2.9921    1.1458    5.2893 H   0  0  0  0  0  0  0  0  0  0  0  0
    3.2434   -0.4905    4.6849 H   0  0  0  0  0  0  0  0  0  0  0  0
    0.3077    1.0202   -3.1168 H   0  0  0  0  0  0  0  0  0  0  0  0
   -8.7173    0.6124    0.0278 H   0  0  0  0  0  0  0  0  0  0  0  0
  -10.3794   -1.1328    0.0753 H   0  0  0  0  0  0  0  0  0  0  0  0
   -9.2194   -2.3673   -0.4235 H   0  0  0  0  0  0  0  0  0  0  0  0
    8.6778   -2.7110    0.5996 H   0  0  0  0  0  0  0  0  0  0  0  0
    8.7255   -2.9481   -1.1611 H   0  0  0  0  0  0  0  0  0  0  0  0
    6.5065   -4.3945   -0.5263 H   0  0  0  0  0  0  0  0  0  0  0  0
    8.3203    2.7384   -0.9202 H   0  0  0  0  0  0  0  0  0  0  0  0
    8.9896    1.4993   -0.1178 H   0  0  0  0  0  0  0  0  0  0  0  0
    2.0406    0.9293    3.0205 H   0  0  0  0  0  0  0  0  0  0  0  0
    3.1540    2.8791    1.9679 H   0  0  0  0  0  0  0  0  0  0  0  0
    3.0692    3.1104    3.7062 H   0  0  0  0  0  0  0  0  0  0  0  0
    4.5886    2.6171    2.9621 H   0  0  0  0  0  0  0  0  0  0  0  0
    1.5496   -0.2376    0.9104 H   0  0  0  0  0  0  0  0  0  0  0  0
   -0.4359    0.4736    1.0848 H   0  0  0  0  0  0  0  0  0  0  0  0
   -2.8110    0.2649    0.6207 H   0  0  0  0  0  0  0  0  0  0  0  0
   -4.4660    1.2863   -3.7100 H   0  0  0  0  0  0  0  0  0  0  0  0
   -5.6903   -1.3518    1.2247 H   0  0  0  0  0  0  0  0  0  0  0  0
   -6.7778   -0.0996    1.8231 H   0  0  0  0  0  0  0  0  0  0  0  0
   -7.4386   -3.0160    1.1947 H   0  0  0  0  0  0  0  0  0  0  0  0
   -7.4292   -2.2247    2.7740 H   0  0  0  0  0  0  0  0  0  0  0  0
   -9.7057   -2.7338    3.2308 H   0  0  0  0  0  0  0  0  0  0  0  0
  -10.9637   -2.2648    2.0871 H   0  0  0  0  0  0  0  0  0  0  0  0
   -9.8870   -3.6176    1.7068 H   0  0  0  0  0  0  0  0  0  0  0  0
    1.6002    0.8928   -0.7823 C   0  0  0  0  0  0  0  0  0  0  0  0
   -8.6595   -0.3035   -1.4826 H   0  0  0  0  0  0  0  0  0  0  0  0
 21  3  1  0
 20  4  1  0
 20  3  1  0
  4  1  1  0
  3  2  1  0
  1  2  1  0
  1  6  1  0
  2  5  1  0
 22  6  1  0
  6  7  1  0
  5  7  1  0
  5  9  1  0
 19  9  2  0
  9  8  1  0
  8 10  1  0
  8 25  1  0
 10 23  1  0
 25 75  1  0
 26 75  2  0
 23 11  1  0
 23 24  1  0
 75 12  1  0
 27 12  1  0
 27 28  2  0
 12 13  2  0
 28 14  1  0
 13 29  1  0
 14 29  2  0
 14 15  1  0
 29 30  1  0
 35 36  1  0
 35 34  1  0
 31 15  1  0
 31 16  2  0
 15 33  2  0
 37 36  1  0
 37 38  1  0
 37 18  1  0
 16 34  1  0
 16 32  1  0
 34 17  1  0
 33 32  1  0
 17 18  1  0
  1 39  1  6
  2 40  1  6
  3 41  1  1
  6 42  1  6
  7 43  1  0
  7 44  1  0
  8 45  1  6
 10 46  1  0
 10 47  1  0
 11 48  1  0
 11 49  1  0
 11 50  1  0
 13 51  1  0
 17 76  1  0
 17 52  1  0
 18 53  1  0
 18 54  1  0
 20 55  1  0
 20 56  1  0
 21 57  1  0
 22 58  1  0
 22 59  1  0
 23 60  1  1
 24 61  1  0
 24 62  1  0
 24 63  1  0
 25 64  1  0
 27 65  1  0
 28 66  1  0
 33 67  1  0
 35 68  1  0
 35 69  1  0
 36 70  1  0
 36 71  1  0
 38 72  1  0
 38 73  1  0
 38 74  1  0
M  END
