
     RDKit          3D

 35 37  0  0  0  0  0  0  0  0999 V2000
   -2.8224    2.1242   -0.0643 O   0  0  0  0  0  0  0  0  0  0  0  0
   -2.6261    0.9284   -0.0601 C   0  0  0  0  0  0  0  0  0  0  0  0
   -3.7380   -0.0525   -0.0376 C   0  0  0  0  0  0  0  0  0  0  0  0
   -5.0501    0.4223    0.0010 C   0  0  0  0  0  0  0  0  0  0  0  0
   -6.1320   -0.4475    0.0239 C   0  0  0  0  0  0  0  0  0  0  0  0
   -7.5396    0.0722    0.0355 C   0  0  0  0  0  0  0  0  0  0  0  0
   -5.8746   -1.8188    0.0113 C   0  0  0  0  0  0  0  0  0  0  0  0
   -4.5761   -2.3048   -0.0267 C   0  0  0  0  0  0  0  0  0  0  0  0
   -3.5042   -1.4268   -0.0515 C   0  0  0  0  0  0  0  0  0  0  0  0
   -1.2157    0.3929   -0.0766 C   0  0  0  0  0  0  0  0  0  0  0  0
   -0.0893    1.8050   -0.0936 S   0  0  0  0  0  0  0  0  0  0  0  0
    1.4159    0.9239   -0.0770 C   0  0  0  0  0  0  0  0  0  0  0  0
    2.6016    1.6108   -0.0623 N   0  0  0  0  0  0  0  0  0  0  0  0
    3.5949    0.6835   -0.0476 C   0  0  0  0  0  0  0  0  0  0  0  0
    2.9451   -0.5358   -0.0553 C   0  0  0  0  0  0  0  0  0  0  0  0
    1.5806   -0.3634   -0.0737 N   0  0  0  0  0  0  0  0  0  0  0  0
    4.9114    0.9269   -0.0241 N   0  0  0  0  0  0  0  0  0  0  0  0
    5.6348   -0.1655   -0.0124 C   0  0  0  0  0  0  0  0  0  0  0  0
    6.9747   -0.0812   -0.0290 N   0  0  0  0  0  0  0  0  0  0  0  0
    5.0918   -1.4172   -0.0216 N   0  0  0  0  0  0  0  0  0  0  0  0
    3.7245   -1.7259   -0.0428 C   0  0  0  0  0  0  0  0  0  0  0  0
    3.3512   -2.8878   -0.0484 O   0  0  0  0  0  0  0  0  0  0  0  0
   -5.2258    1.4910    0.0173 H   0  0  0  0  0  0  0  0  0  0  0  0
   -7.9273    0.1628   -0.9812 H   0  0  0  0  0  0  0  0  0  0  0  0
   -8.2077   -0.5951    0.5788 H   0  0  0  0  0  0  0  0  0  0  0  0
   -7.5973    1.0585    0.4938 H   0  0  0  0  0  0  0  0  0  0  0  0
   -6.7025   -2.5171    0.0334 H   0  0  0  0  0  0  0  0  0  0  0  0
   -4.3995   -3.3720   -0.0344 H   0  0  0  0  0  0  0  0  0  0  0  0
   -2.4982   -1.8242   -0.0787 H   0  0  0  0  0  0  0  0  0  0  0  0
   -1.0315   -0.2280    0.8023 H   0  0  0  0  0  0  0  0  0  0  0  0
   -1.0528   -0.2339   -0.9555 H   0  0  0  0  0  0  0  0  0  0  0  0
    2.7265    2.6125   -0.0618 H   0  0  0  0  0  0  0  0  0  0  0  0
    7.3791    0.8220    0.1529 H   0  0  0  0  0  0  0  0  0  0  0  0
    7.5386   -0.8741    0.2272 H   0  0  0  0  0  0  0  0  0  0  0  0
    5.7194   -2.2114   -0.0219 H   0  0  0  0  0  0  0  0  0  0  0  0
 19 18  1  0
 18 17  2  0
 18 20  1  0
 17 14  1  0
 20 21  1  0
 14 13  1  0
 14 15  2  0
 13 12  1  0
 21 15  1  0
 21 22  2  0
 15 16  1  0
 12 16  2  0
 12 11  1  0
 11 10  1  0
 10  2  1  0
  9  8  2  0
  9  3  1  0
  8  7  1  0
  2  3  1  0
  2  1  2  0
  3  4  2  0
  7  5  2  0
  4  5  1  0
  5  6  1  0
  4 23  1  0
  6 24  1  0
  6 25  1  0
  6 26  1  0
  7 27  1  0
  8 28  1  0
  9 29  1  0
 10 30  1  0
 10 31  1  0
 13 32  1  0
 19 33  1  0
 19 34  1  0
 20 35  1  0
M  END
