
     RDKit          3D

 26 25  0  0  0  0  0  0  0  0999 V2000
    0.3404    0.7147    0.0321 P   0  0  2  0  0  0  0  0  0  0  0  0
    0.9608    2.0532    0.0177 O   0  0  0  0  0  0  0  0  0  0  0  0
    0.7752   -0.2788    1.1973 O   0  0  0  0  0  0  0  0  0  0  0  0
    0.8330    0.2031    2.5559 C   0  0  0  0  0  0  0  0  0  0  0  0
    0.7677   -0.9817    3.4857 C   0  0  0  0  0  0  0  0  0  0  0  0
    0.6635   -0.2519   -1.1912 O   0  0  0  0  0  0  0  0  0  0  0  0
    0.3354    0.1559   -2.5349 C   0  0  0  0  0  0  0  0  0  0  0  0
    0.9625   -0.8230   -3.4950 C   0  0  0  0  0  0  0  0  0  0  0  0
   -1.2471    0.8634    0.1072 O   0  0  0  0  0  0  0  0  0  0  0  0
   -2.1275   -0.2688    0.2290 C   0  0  0  0  0  0  0  0  0  0  0  0
   -3.5091    0.1543   -0.2043 C   0  0  0  0  0  0  0  0  0  0  0  0
    0.0035    0.8865    2.7550 H   0  0  0  0  0  0  0  0  0  0  0  0
    1.7626    0.7574    2.6924 H   0  0  0  0  0  0  0  0  0  0  0  0
    0.8311   -0.6303    4.5153 H   0  0  0  0  0  0  0  0  0  0  0  0
   -0.1699   -1.5265    3.3745 H   0  0  0  0  0  0  0  0  0  0  0  0
    1.5951   -1.6704    3.3155 H   0  0  0  0  0  0  0  0  0  0  0  0
   -0.7507    0.1710   -2.6526 H   0  0  0  0  0  0  0  0  0  0  0  0
    0.7090    1.1658   -2.7181 H   0  0  0  0  0  0  0  0  0  0  0  0
    0.6991   -0.5420   -4.5142 H   0  0  0  0  0  0  0  0  0  0  0  0
    2.0492   -0.8186   -3.4143 H   0  0  0  0  0  0  0  0  0  0  0  0
    0.6016   -1.8371   -3.3238 H   0  0  0  0  0  0  0  0  0  0  0  0
   -1.7730   -1.0979   -0.3882 H   0  0  0  0  0  0  0  0  0  0  0  0
   -2.1340   -0.6046    1.2679 H   0  0  0  0  0  0  0  0  0  0  0  0
   -4.1937   -0.6859   -0.0924 H   0  0  0  0  0  0  0  0  0  0  0  0
   -3.8844    0.9754    0.4062 H   0  0  0  0  0  0  0  0  0  0  0  0
   -3.5221    0.4621   -1.2499 H   0  0  0  0  0  0  0  0  0  0  0  0
  1  2  2  0
  1  3  1  1
  1  6  1  0
  1  9  1  0
  3  4  1  0
  4  5  1  0
  4 12  1  0
  4 13  1  0
  5 14  1  0
  5 15  1  0
  5 16  1  0
  6  7  1  0
  7  8  1  0
  7 17  1  0
  7 18  1  0
  8 19  1  0
  8 20  1  0
  8 21  1  0
  9 10  1  0
 10 11  1  0
 10 22  1  0
 10 23  1  0
 11 24  1  0
 11 25  1  0
 11 26  1  0
M  END
