
     RDKit          3D

 31 33  0  0  0  0  0  0  0  0999 V2000
   -3.0507   -0.4200   -1.1736 C   0  0  0  0  0  0  0  0  0  0  0  0
   -4.1214    0.0245   -0.4083 C   0  0  0  0  0  0  0  0  0  0  0  0
   -4.0071    0.0205    0.9711 C   0  0  0  0  0  0  0  0  0  0  0  0
   -2.8480   -0.4222    1.5929 C   0  0  0  0  0  0  0  0  0  0  0  0
   -1.7918   -0.8640    0.8132 C   0  0  0  0  0  0  0  0  0  0  0  0
    2.6252   -1.7583    1.0394 C   0  0  0  0  0  0  0  0  0  0  0  0
    3.5660    0.1105    0.3558 C   0  0  0  0  0  0  0  0  0  0  0  0
    4.4472    1.1184    0.2279 N   0  0  0  0  0  0  0  0  0  0  0  0
    4.0310    2.0213   -0.6750 N   0  0  0  0  0  0  0  0  0  0  0  0
    2.8813    1.6008   -1.1412 C   0  0  0  0  0  0  0  0  0  0  0  0
    2.5183    0.3815   -0.5258 C   0  0  0  0  0  0  0  0  0  0  0  0
    1.4701   -0.5680   -0.5510 C   0  0  0  0  0  0  0  0  0  0  0  0
    0.4156   -0.4297   -1.3600 N   0  0  0  0  0  0  0  0  0  0  0  0
   -1.8776   -0.8672   -0.5779 C   0  0  0  0  0  0  0  0  0  0  0  0
   -5.3344    0.5752    1.9398 Cl  0  0  0  0  0  0  0  0  0  0  0  0
    1.5560   -1.6294    0.2514 N   0  0  0  0  0  0  0  0  0  0  0  0
    3.6599   -0.9547    1.1610 N   0  0  0  0  0  0  0  0  0  0  0  0
   -3.1405   -0.4139   -2.2532 H   0  0  0  0  0  0  0  0  0  0  0  0
   -5.0279    0.3709   -0.8856 H   0  0  0  0  0  0  0  0  0  0  0  0
   -2.7696   -0.4271    2.6717 H   0  0  0  0  0  0  0  0  0  0  0  0
   -0.8909   -1.2191    1.2973 H   0  0  0  0  0  0  0  0  0  0  0  0
    2.6332   -2.6465    1.6625 H   0  0  0  0  0  0  0  0  0  0  0  0
    5.6020    2.1621    1.6244 H   0  0  0  0  0  0  0  0  0  0  0  0
    5.8857    0.4172    1.5290 H   0  0  0  0  0  0  0  0  0  0  0  0
    6.4985    1.4790    0.2522 H   0  0  0  0  0  0  0  0  0  0  0  0
    2.3558    2.1729   -1.8909 H   0  0  0  0  0  0  0  0  0  0  0  0
    0.3525    0.4145   -1.9057 H   0  0  0  0  0  0  0  0  0  0  0  0
   -1.0223   -1.4102   -2.4621 H   0  0  0  0  0  0  0  0  0  0  0  0
   -0.3843   -2.3197   -1.1040 H   0  0  0  0  0  0  0  0  0  0  0  0
   -0.7145   -1.3316   -1.4192 C   0  0  0  0  0  0  0  0  0  0  0  0
    5.6796    1.3121    0.9487 C   0  0  0  0  0  0  0  0  0  0  0  0
 31  8  1  0
  8  9  1  0
  8  7  1  0
  9 10  2  0
  7 17  1  0
  7 11  2  0
 17  6  2  0
 10 11  1  0
 11 12  1  0
  6 16  1  0
 12 16  2  0
 12 13  1  0
 13 30  1  0
  1  2  2  0
  1 14  1  0
  2  3  1  0
 30 14  1  0
 14  5  2  0
  3 15  1  0
  3  4  2  0
  5  4  1  0
  1 18  1  0
  2 19  1  0
  4 20  1  0
  5 21  1  0
  6 22  1  0
 31 23  1  0
 31 24  1  0
 31 25  1  0
 10 26  1  0
 13 27  1  0
 30 28  1  0
 30 29  1  0
M  END
