
     RDKit          3D

 41 44  0  0  0  0  0  0  0  0999 V2000
   -6.6562    0.2024    0.2481 O   0  0  0  0  0  0  0  0  0  0  0  0
   -5.3158    0.3182    0.3612 C   0  0  0  0  0  0  0  0  0  0  0  0
   -4.4614   -0.7609    0.0777 C   0  0  0  0  0  0  0  0  0  0  0  0
   -5.0910   -1.8927   -0.3088 O   0  0  0  0  0  0  0  0  0  0  0  0
   -4.3105   -3.0301   -0.6162 C   0  0  0  0  0  0  0  0  0  0  0  0
   -3.0907   -0.6094    0.2076 C   0  0  0  0  0  0  0  0  0  0  0  0
   -2.5381    0.6083    0.6141 C   0  0  0  0  0  0  0  0  0  0  0  0
   -3.3903    1.6661    0.8887 C   0  0  0  0  0  0  0  0  0  0  0  0
   -4.7693    1.5223    0.7659 C   0  0  0  0  0  0  0  0  0  0  0  0
   -1.0458    0.7669    0.6993 C   0  0  0  0  0  0  0  0  0  0  0  0
   -0.4231    1.0566   -0.6743 C   0  0  0  0  0  0  0  0  0  0  0  0
    1.0575    1.1979   -0.6020 C   0  0  0  0  0  0  0  0  0  0  0  0
    2.0636    0.3073   -0.3131 C   0  0  0  0  0  0  0  0  0  0  0  0
    2.3642   -1.1164    0.0271 C   0  0  0  0  0  0  0  0  0  0  0  0
    3.8785   -1.0747    0.1452 C   0  0  0  0  0  0  0  0  0  0  0  0
    4.3866    0.2148   -0.0977 C   0  0  0  0  0  0  0  0  0  0  0  0
    3.2408    1.0644   -0.3801 C   0  0  0  0  0  0  0  0  0  0  0  0
    3.0224    2.3289   -0.6825 N   0  0  0  0  0  0  0  0  0  0  0  0
    1.6934    2.3781   -0.8088 N   0  0  0  0  0  0  0  0  0  0  0  0
    5.7490    0.4677   -0.0423 C   0  0  0  0  0  0  0  0  0  0  0  0
    6.6093   -0.5818    0.2600 C   0  0  0  0  0  0  0  0  0  0  0  0
    6.1121   -1.8583    0.5018 C   0  0  0  0  0  0  0  0  0  0  0  0
    4.7431   -2.1111    0.4457 C   0  0  0  0  0  0  0  0  0  0  0  0
   -6.8901   -0.6924   -0.0263 H   0  0  0  0  0  0  0  0  0  0  0  0
   -3.7430   -3.3784    0.2506 H   0  0  0  0  0  0  0  0  0  0  0  0
   -5.0044   -3.8095   -0.9202 H   0  0  0  0  0  0  0  0  0  0  0  0
   -3.6154   -2.8345   -1.4367 H   0  0  0  0  0  0  0  0  0  0  0  0
   -2.4285   -1.4420    0.0020 H   0  0  0  0  0  0  0  0  0  0  0  0
   -2.9846    2.6179    1.2092 H   0  0  0  0  0  0  0  0  0  0  0  0
   -5.4279    2.3525    0.9904 H   0  0  0  0  0  0  0  0  0  0  0  0
   -0.7983    1.5819    1.3828 H   0  0  0  0  0  0  0  0  0  0  0  0
   -0.5944   -0.1383    1.1139 H   0  0  0  0  0  0  0  0  0  0  0  0
   -0.6718    0.2456   -1.3630 H   0  0  0  0  0  0  0  0  0  0  0  0
   -0.8663    1.9640   -1.0919 H   0  0  0  0  0  0  0  0  0  0  0  0
    1.9006   -1.4441    0.9618 H   0  0  0  0  0  0  0  0  0  0  0  0
    2.0455   -1.8236   -0.7433 H   0  0  0  0  0  0  0  0  0  0  0  0
    1.2524    3.2545   -1.0402 H   0  0  0  0  0  0  0  0  0  0  0  0
    6.1370    1.4608   -0.2310 H   0  0  0  0  0  0  0  0  0  0  0  0
    7.6760   -0.4046    0.3076 H   0  0  0  0  0  0  0  0  0  0  0  0
    6.7964   -2.6641    0.7348 H   0  0  0  0  0  0  0  0  0  0  0  0
    4.3663   -3.1092    0.6351 H   0  0  0  0  0  0  0  0  0  0  0  0
 18 19  1  0
 18 17  2  0
 20 21  1  0
 20 16  2  0
 19 12  1  0
 17 16  1  0
 17 13  1  0
 21 22  2  0
 16 15  1  0
 12 13  2  0
 12 11  1  0
 13 14  1  0
 22 23  1  0
 15 14  1  0
 15 23  2  0
 11 10  1  0
 10  7  1  0
  7  6  2  0
  7  8  1  0
  6  3  1  0
  8  9  2  0
  3  2  2  0
  3  4  1  0
  9  2  1  0
  5  4  1  0
  2  1  1  0
  1 24  1  0
  5 25  1  0
  5 26  1  0
  5 27  1  0
  6 28  1  0
  8 29  1  0
  9 30  1  0
 10 31  1  0
 10 32  1  0
 11 33  1  0
 11 34  1  0
 14 35  1  0
 14 36  1  0
 19 37  1  0
 20 38  1  0
 21 39  1  0
 22 40  1  0
 23 41  1  0
M  END
