
     RDKit          3D

 85 88  0  0  0  0  0  0  0  0999 V2000
   -2.2578   -0.5789    0.9903 C   0  0  0  0  0  0  0  0  0  0  0  0
   -1.5592   -0.6499    1.9986 O   0  0  0  0  0  0  0  0  0  0  0  0
   -3.2840    0.4656    0.7929 C   0  0  0  0  0  0  0  0  0  0  0  0
   -3.3984    1.4870    1.6469 C   0  0  0  0  0  0  0  0  0  0  0  0
   -4.3391    2.5997    1.5511 C   0  0  0  0  0  0  0  0  0  0  0  0
   -5.1710    2.7992    0.4441 C   0  0  0  0  0  0  0  0  0  0  0  0
   -6.0461    3.8705    0.4037 C   0  0  0  0  0  0  0  0  0  0  0  0
   -6.1094    4.7653    1.4675 C   0  0  0  0  0  0  0  0  0  0  0  0
   -5.2871    4.5823    2.5701 C   0  0  0  0  0  0  0  0  0  0  0  0
   -4.4075    3.5104    2.6082 C   0  0  0  0  0  0  0  0  0  0  0  0
    0.1129   -2.1116   -0.6617 C   0  0  0  0  0  0  0  0  0  0  0  0
   -1.2193   -2.5553   -0.0393 C   0  0  2  0  0  0  0  0  0  0  0  0
   -1.8147   -3.7288   -0.7954 C   0  0  0  0  0  0  0  0  0  0  0  0
   -2.9927   -4.3481   -0.0612 C   0  0  0  0  0  0  0  0  0  0  0  0
   -3.6070   -5.3864   -0.6653 N   0  0  0  0  0  0  0  0  0  0  0  0
   -3.1962   -5.9556   -1.9399 C   0  0  0  0  0  0  0  0  0  0  0  0
   -2.2361   -7.1258   -1.7858 C   0  0  0  0  0  0  0  0  0  0  0  0
   -4.7350   -6.0341   -0.0118 C   0  0  0  0  0  0  0  0  0  0  0  0
   -6.0713   -5.4592   -0.4545 C   0  0  0  0  0  0  0  0  0  0  0  0
   -3.3501   -3.9269    1.0319 O   0  0  0  0  0  0  0  0  0  0  0  0
   -2.1353   -1.4365   -0.0376 N   0  0  0  0  0  0  0  0  0  0  0  0
    0.8490   -1.3319    0.1490 N   0  0  0  0  0  0  0  0  0  0  0  0
    2.0578   -0.6739   -0.2641 C   0  0  2  0  0  0  0  0  0  0  0  0
    3.1132   -0.8128    0.8280 C   0  0  0  0  0  0  0  0  0  0  0  0
    2.7979   -0.8635    2.0079 O   0  0  0  0  0  0  0  0  0  0  0  0
    1.8278    0.8288   -0.5288 C   0  0  0  0  0  0  0  0  0  0  0  0
    0.7307    1.0656   -1.5261 C   0  0  0  0  0  0  0  0  0  0  0  0
   -0.5142    1.5297   -1.1176 C   0  0  0  0  0  0  0  0  0  0  0  0
    0.9266    0.8005   -2.8796 C   0  0  0  0  0  0  0  0  0  0  0  0
   -1.5449    1.7324   -2.0261 C   0  0  0  0  0  0  0  0  0  0  0  0
   -0.0868    0.9942   -3.8048 C   0  0  0  0  0  0  0  0  0  0  0  0
   -1.3103    1.4565   -3.3571 C   0  0  0  0  0  0  0  0  0  0  0  0
   -2.2985    1.6474   -4.2484 F   0  0  0  0  0  0  0  0  0  0  0  0
    8.2238    2.4023    0.0234 C   0  0  0  0  0  0  0  0  0  0  0  0
    8.5359    1.0930   -0.2050 C   0  0  0  0  0  0  0  0  0  0  0  0
    7.0202    2.7480    0.6833 C   0  0  0  0  0  0  0  0  0  0  0  0
    4.9470    2.1003    1.7844 C   0  0  0  0  0  0  0  0  0  0  0  0
    6.1326    1.7223    1.1082 C   0  0  0  0  0  0  0  0  0  0  0  0
    4.6540    3.4184    2.0112 C   0  0  0  0  0  0  0  0  0  0  0  0
    4.3763   -0.7966    0.3829 N   0  0  0  0  0  0  0  0  0  0  0  0
    5.5513   -0.7639    1.2314 C   0  0  0  0  0  0  0  0  0  0  0  0
    6.4740    0.3629    0.8472 C   0  0  0  0  0  0  0  0  0  0  0  0
    7.6524    0.0753    0.2086 C   0  0  0  0  0  0  0  0  0  0  0  0
    5.5297    4.4323    1.5763 C   0  0  0  0  0  0  0  0  0  0  0  0
    6.6894    4.1009    0.9316 C   0  0  0  0  0  0  0  0  0  0  0  0
   -3.9319    0.3781   -0.0724 H   0  0  0  0  0  0  0  0  0  0  0  0
   -2.7303    1.5138    2.5023 H   0  0  0  0  0  0  0  0  0  0  0  0
   -5.1355    2.1199   -0.3983 H   0  0  0  0  0  0  0  0  0  0  0  0
   -6.6803    4.0124   -0.4615 H   0  0  0  0  0  0  0  0  0  0  0  0
   -6.7943    5.6022    1.4325 H   0  0  0  0  0  0  0  0  0  0  0  0
   -5.3288    5.2739    3.4011 H   0  0  0  0  0  0  0  0  0  0  0  0
   -3.7655    3.3734    3.4701 H   0  0  0  0  0  0  0  0  0  0  0  0
   -1.0413   -2.8412    0.9987 H   0  0  0  0  0  0  0  0  0  0  0  0
   -2.1115   -3.4093   -1.7976 H   0  0  0  0  0  0  0  0  0  0  0  0
   -1.0439   -4.4882   -0.9462 H   0  0  0  0  0  0  0  0  0  0  0  0
   -4.0979   -6.2843   -2.4612 H   0  0  0  0  0  0  0  0  0  0  0  0
   -2.7586   -5.1875   -2.5745 H   0  0  0  0  0  0  0  0  0  0  0  0
   -1.9833   -7.5362   -2.7635 H   0  0  0  0  0  0  0  0  0  0  0  0
   -1.3094   -6.8212   -1.2986 H   0  0  0  0  0  0  0  0  0  0  0  0
   -2.6801   -7.9264   -1.1935 H   0  0  0  0  0  0  0  0  0  0  0  0
   -4.6917   -7.0990   -0.2484 H   0  0  0  0  0  0  0  0  0  0  0  0
   -4.6250   -5.9504    1.0674 H   0  0  0  0  0  0  0  0  0  0  0  0
   -6.1524   -4.4047   -0.1915 H   0  0  0  0  0  0  0  0  0  0  0  0
   -6.2040   -5.5517   -1.5335 H   0  0  0  0  0  0  0  0  0  0  0  0
   -6.8912   -5.9919    0.0278 H   0  0  0  0  0  0  0  0  0  0  0  0
   -2.6906   -1.2861   -0.8655 H   0  0  0  0  0  0  0  0  0  0  0  0
    0.4792   -1.1028    1.0620 H   0  0  0  0  0  0  0  0  0  0  0  0
    2.4019   -1.1521   -1.1824 H   0  0  0  0  0  0  0  0  0  0  0  0
    1.5785    1.3198    0.4151 H   0  0  0  0  0  0  0  0  0  0  0  0
    2.7640    1.2701   -0.8791 H   0  0  0  0  0  0  0  0  0  0  0  0
   -0.6900    1.7483   -0.0715 H   0  0  0  0  0  0  0  0  0  0  0  0
    1.8874    0.4378   -3.2246 H   0  0  0  0  0  0  0  0  0  0  0  0
   -2.5093    2.0995   -1.6997 H   0  0  0  0  0  0  0  0  0  0  0  0
    0.0725    0.7906   -4.8556 H   0  0  0  0  0  0  0  0  0  0  0  0
    9.4570    0.8275   -0.7066 H   0  0  0  0  0  0  0  0  0  0  0  0
    4.2626    1.3453    2.1462 H   0  0  0  0  0  0  0  0  0  0  0  0
    3.7431    3.6846    2.5314 H   0  0  0  0  0  0  0  0  0  0  0  0
    4.5338   -0.7990   -0.6131 H   0  0  0  0  0  0  0  0  0  0  0  0
    5.2208   -0.6805    2.2660 H   0  0  0  0  0  0  0  0  0  0  0  0
    6.0883   -1.7112    1.1491 H   0  0  0  0  0  0  0  0  0  0  0  0
    7.9127   -0.9580    0.0127 H   0  0  0  0  0  0  0  0  0  0  0  0
    5.2838    5.4700    1.7594 H   0  0  0  0  0  0  0  0  0  0  0  0
    7.3734    4.8744    0.6032 H   0  0  0  0  0  0  0  0  0  0  0  0
    8.8940    3.1918   -0.2948 H   0  0  0  0  0  0  0  0  0  0  0  0
    0.4479   -2.4333   -1.7888 O   0  0  0  0  0  0  0  0  0  0  0  0
 35 34  2  0
 35 43  1  0
 34 36  1  0
 43 42  2  0
 36 45  2  0
 36 38  1  0
 42 38  1  0
 42 41  1  0
 45 44  1  0
 38 37  2  0
 41 40  1  0
 40 24  1  0
 44 39  2  0
 37 39  1  0
 29 31  2  0
 29 27  1  0
 24 23  1  0
 24 25  2  0
 31 32  1  0
 23 26  1  0
 23 22  1  0
 85 11  2  0
 26 27  1  0
 27 28  2  0
 32 33  1  0
 32 30  2  0
 19 18  1  0
 22 11  1  0
 11 12  1  0
 18 15  1  0
 28 30  1  0
  6  7  2  0
  6  5  1  0
  7  8  1  0
 13 12  1  0
 13 14  1  0
 12 21  1  0
  4  5  1  0
  4  3  2  0
 21  1  1  0
  5 10  2  0
  8  9  2  0
 15 14  1  0
 15 16  1  0
 14 20  2  0
  1  3  1  0
  1  2  2  0
 10  9  1  0
 16 17  1  0
 22 67  1  0
 23 68  1  6
 40 78  1  0
 41 79  1  0
 41 80  1  0
 43 81  1  0
 35 75  1  0
 34 84  1  0
 37 76  1  0
 39 77  1  0
 44 82  1  0
 45 83  1  0
 26 69  1  0
 26 70  1  0
 28 71  1  0
 30 73  1  0
 31 74  1  0
 29 72  1  0
 12 53  1  1
 13 55  1  0
 13 54  1  0
 16 57  1  0
 16 56  1  0
 17 59  1  0
 17 60  1  0
 17 58  1  0
 18 62  1  0
 18 61  1  0
 19 64  1  0
 19 65  1  0
 19 63  1  0
 21 66  1  0
  3 46  1  0
  4 47  1  0
  6 48  1  0
  7 49  1  0
  8 50  1  0
  9 51  1  0
 10 52  1  0
M  END
