
     RDKit          3D

 30 32  0  0  0  0  0  0  0  0999 V2000
    2.0150    0.7149   -0.6827 N   0  0  0  0  0  0  0  0  0  0  0  0
    2.1180   -0.6516   -0.2417 C   0  0  2  0  0  0  0  0  0  0  0  0
    1.1772   -0.9960    0.9165 C   0  0  0  0  0  0  0  0  0  0  0  0
   -0.2617   -0.8567    0.5120 C   0  0  0  0  0  0  0  0  0  0  0  0
   -0.8616   -1.8482   -0.3028 C   0  0  0  0  0  0  0  0  0  0  0  0
   -2.1616   -1.7355   -0.7070 C   0  0  0  0  0  0  0  0  0  0  0  0
   -2.9451   -0.6210   -0.3231 C   0  0  0  0  0  0  0  0  0  0  0  0
   -2.3529    0.3796    0.4891 C   0  0  0  0  0  0  0  0  0  0  0  0
   -1.0028    0.2331    0.8874 C   0  0  0  0  0  0  0  0  0  0  0  0
    3.5757   -0.7305    0.1839 C   0  0  0  0  0  0  0  0  0  0  0  0
    4.1083    0.4942   -0.0685 N   0  0  0  0  0  0  0  0  0  0  0  0
    3.1833    1.3840   -0.6163 C   0  0  0  0  0  0  0  0  0  0  0  0
    3.4227    2.5228   -0.9494 O   0  0  0  0  0  0  0  0  0  0  0  0
    4.1348   -1.6859    0.6661 O   0  0  0  0  0  0  0  0  0  0  0  0
   -3.1307    1.4948    0.8796 C   0  0  0  0  0  0  0  0  0  0  0  0
   -4.4359    1.6078    0.4834 C   0  0  0  0  0  0  0  0  0  0  0  0
   -5.0243    0.6123   -0.3249 C   0  0  0  0  0  0  0  0  0  0  0  0
   -4.2950   -0.4769   -0.7189 C   0  0  0  0  0  0  0  0  0  0  0  0
    1.2126    1.0895   -1.1618 H   0  0  0  0  0  0  0  0  0  0  0  0
    1.9578   -1.3505   -1.0701 H   0  0  0  0  0  0  0  0  0  0  0  0
    1.3870   -2.0215    1.2274 H   0  0  0  0  0  0  0  0  0  0  0  0
    1.3986   -0.3435    1.7635 H   0  0  0  0  0  0  0  0  0  0  0  0
   -0.2788   -2.7112   -0.6041 H   0  0  0  0  0  0  0  0  0  0  0  0
   -0.5569    1.0016    1.5096 H   0  0  0  0  0  0  0  0  0  0  0  0
   -2.6092   -2.5058   -1.3235 H   0  0  0  0  0  0  0  0  0  0  0  0
   -4.7462   -1.2427   -1.3384 H   0  0  0  0  0  0  0  0  0  0  0  0
   -2.6779    2.2601    1.4986 H   0  0  0  0  0  0  0  0  0  0  0  0
    5.0649    0.7531    0.1280 H   0  0  0  0  0  0  0  0  0  0  0  0
   -5.0235    2.4630    0.7909 H   0  0  0  0  0  0  0  0  0  0  0  0
   -6.0567    0.7150   -0.6324 H   0  0  0  0  0  0  0  0  0  0  0  0
  1  2  1  0
  1 12  1  0
  2  3  1  0
  2 10  1  0
  3  4  1  0
  4  5  2  0
  4  9  1  0
  5  6  1  0
  6  7  2  0
  7  8  1  0
  7 18  1  0
  8  9  2  0
  8 15  1  0
 10 11  1  0
 10 14  2  0
 11 12  1  0
 12 13  2  0
 15 16  2  0
 16 17  1  0
 17 18  2  0
  1 19  1  0
  2 20  1  6
  3 21  1  0
  3 22  1  0
  5 23  1  0
  9 24  1  0
  6 25  1  0
 18 26  1  0
 15 27  1  0
 11 28  1  0
 16 29  1  0
 17 30  1  0
M  END
