
     RDKit          3D

 50 53  0  0  0  0  0  0  0  0999 V2000
    0.7063   -2.8879   -1.7247 C   0  0  0  0  0  0  0  0  0  0  0  0
   -3.6599    0.3578    0.4411 C   0  0  0  0  0  0  0  0  0  0  0  0
   -2.3784   -0.0968    0.8165 C   0  0  0  0  0  0  0  0  0  0  0  0
    0.1397   -0.0097    0.6264 C   0  0  0  0  0  0  0  0  0  0  0  0
    0.0505   -2.0244   -0.6627 C   0  0  0  0  0  0  0  0  0  0  0  0
    2.1703   -1.1709    0.0920 C   0  0  1  0  0  0  0  0  0  0  0  0
    2.8975   -2.0520   -0.9296 C   0  0  0  0  0  0  0  0  0  0  0  0
    2.1002   -3.2977   -1.2791 C   0  0  0  0  0  0  0  0  0  0  0  0
    3.0076    0.0573    0.3649 C   0  0  0  0  0  0  0  0  0  0  0  0
    3.6656    0.2089    1.5805 C   0  0  0  0  0  0  0  0  0  0  0  0
    4.4808    1.3095    1.8197 C   0  0  0  0  0  0  0  0  0  0  0  0
    4.6428    2.2793    0.8408 C   0  0  0  0  0  0  0  0  0  0  0  0
    3.9884    2.1375   -0.3778 C   0  0  0  0  0  0  0  0  0  0  0  0
    3.1805    1.0351   -0.6133 C   0  0  0  0  0  0  0  0  0  0  0  0
   -2.5819   -1.0976    1.8211 C   0  0  0  0  0  0  0  0  0  0  0  0
   -3.9303   -1.2007    2.0102 C   0  0  0  0  0  0  0  0  0  0  0  0
   -4.5787   -0.3277    1.1869 N   0  0  0  0  0  0  0  0  0  0  0  0
   -2.7107    1.8375   -1.1189 C   0  0  0  0  0  0  0  0  0  0  0  0
   -1.4121    1.4154   -0.7712 C   0  0  0  0  0  0  0  0  0  0  0  0
   -1.2327    0.4423    0.2048 C   0  0  0  0  0  0  0  0  0  0  0  0
   -3.8592    1.3361   -0.5341 C   0  0  0  0  0  0  0  0  0  0  0  0
    0.8269   -0.8280   -0.3684 N   0  0  0  0  0  0  0  0  0  0  0  0
    0.0793   -3.7618   -1.9150 H   0  0  0  0  0  0  0  0  0  0  0  0
    0.7664   -2.3260   -2.6620 H   0  0  0  0  0  0  0  0  0  0  0  0
    0.7529    0.8727    0.8240 H   0  0  0  0  0  0  0  0  0  0  0  0
    0.0708   -0.5462    1.5876 H   0  0  0  0  0  0  0  0  0  0  0  0
    0.4238    2.5557   -0.7651 H   0  0  0  0  0  0  0  0  0  0  0  0
    0.3746    1.2879   -1.9674 H   0  0  0  0  0  0  0  0  0  0  0  0
   -0.5563    2.7682   -2.2105 H   0  0  0  0  0  0  0  0  0  0  0  0
   -5.7868    2.1726   -0.0540 H   0  0  0  0  0  0  0  0  0  0  0  0
   -5.1915    2.5897   -1.6580 H   0  0  0  0  0  0  0  0  0  0  0  0
   -5.8243    0.9775   -1.3393 H   0  0  0  0  0  0  0  0  0  0  0  0
   -0.9418   -1.7197   -0.9975 H   0  0  0  0  0  0  0  0  0  0  0  0
   -0.0978   -2.6312    0.2502 H   0  0  0  0  0  0  0  0  0  0  0  0
    2.1039   -1.7444    1.0374 H   0  0  0  0  0  0  0  0  0  0  0  0
    3.0788   -1.4680   -1.8372 H   0  0  0  0  0  0  0  0  0  0  0  0
    3.8763   -2.3146   -0.5219 H   0  0  0  0  0  0  0  0  0  0  0  0
    2.0293   -3.9497   -0.4023 H   0  0  0  0  0  0  0  0  0  0  0  0
    2.6112   -3.8703   -2.0564 H   0  0  0  0  0  0  0  0  0  0  0  0
    3.5386   -0.5416    2.3524 H   0  0  0  0  0  0  0  0  0  0  0  0
    4.9822    1.4105    2.7740 H   0  0  0  0  0  0  0  0  0  0  0  0
    5.2744    3.1393    1.0238 H   0  0  0  0  0  0  0  0  0  0  0  0
    4.1101    2.8887   -1.1481 H   0  0  0  0  0  0  0  0  0  0  0  0
    2.6732    0.9370   -1.5649 H   0  0  0  0  0  0  0  0  0  0  0  0
   -1.8335   -1.6749    2.3397 H   0  0  0  0  0  0  0  0  0  0  0  0
   -4.4861   -1.8411    2.6761 H   0  0  0  0  0  0  0  0  0  0  0  0
   -5.5781   -0.2281    1.1295 H   0  0  0  0  0  0  0  0  0  0  0  0
   -2.8127    2.6016   -1.8822 H   0  0  0  0  0  0  0  0  0  0  0  0
   -0.2346    2.0396   -1.4670 C   0  0  0  0  0  0  0  0  0  0  0  0
   -5.2338    1.7937   -0.9163 C   0  0  0  0  0  0  0  0  0  0  0  0
 12 13  2  0
 12 11  1  0
 13 14  1  0
 11 10  2  0
 14  9  2  0
 10  9  1  0
 16 15  2  0
 16 17  1  0
 15  3  1  0
  9  6  1  0
 17  2  1  0
  3  2  2  0
  3 20  1  0
  6  7  1  0
  6 22  1  0
  7  8  1  0
  2 21  1  0
  4 22  1  0
  4 20  1  0
 22  5  1  0
 20 19  2  0
 21 50  1  0
 21 18  2  0
  8  1  1  0
  5  1  1  0
 19 18  1  0
 19 49  1  0
  1 23  1  0
  1 24  1  0
  4 25  1  0
  4 26  1  0
 49 27  1  0
 49 28  1  0
 49 29  1  0
 50 30  1  0
 50 31  1  0
 50 32  1  0
  5 33  1  0
  5 34  1  0
  6 35  1  1
  7 36  1  0
  7 37  1  0
  8 38  1  0
  8 39  1  0
 10 40  1  0
 11 41  1  0
 12 42  1  0
 13 43  1  0
 14 44  1  0
 15 45  1  0
 16 46  1  0
 17 47  1  0
 18 48  1  0
M  END
