
     RDKit          3D

 53 57  0  0  0  0  0  0  0  0999 V2000
    8.8138    1.3186   -0.5181 C   0  0  0  0  0  0  0  0  0  0  0  0
    8.1233    0.0978   -0.3596 O   0  0  0  0  0  0  0  0  0  0  0  0
    6.7804    0.1385   -0.2057 C   0  0  0  0  0  0  0  0  0  0  0  0
    6.1284   -1.0809   -0.0520 C   0  0  0  0  0  0  0  0  0  0  0  0
    4.7525   -1.1372    0.1044 C   0  0  0  0  0  0  0  0  0  0  0  0
    3.9766    0.0257    0.1345 C   0  0  0  0  0  0  0  0  0  0  0  0
    4.6468    1.2422   -0.0100 C   0  0  0  0  0  0  0  0  0  0  0  0
    6.0207    1.3059   -0.1889 C   0  0  0  0  0  0  0  0  0  0  0  0
    2.5863    0.0113    0.3334 N   0  0  0  0  0  0  0  0  0  0  0  0
    1.9834   -1.2471    0.7189 C   0  0  0  0  0  0  0  0  0  0  0  0
    0.5693   -1.0085    1.2086 C   0  0  0  0  0  0  0  0  0  0  0  0
   -0.2194   -0.3357    0.1834 N   0  0  0  0  0  0  0  0  0  0  0  0
    0.3710    0.9434   -0.1690 C   0  0  0  0  0  0  0  0  0  0  0  0
    1.7868    0.7100   -0.6631 C   0  0  0  0  0  0  0  0  0  0  0  0
   -1.5689   -0.4934    0.1035 C   0  0  0  0  0  0  0  0  0  0  0  0
   -2.3125    0.5818   -0.0275 N   0  0  0  0  0  0  0  0  0  0  0  0
   -3.6471    0.4452   -0.0193 C   0  0  0  0  0  0  0  0  0  0  0  0
   -4.4482    1.6892   -0.1831 C   0  0  0  0  0  0  0  0  0  0  0  0
   -5.8346    1.6565   -0.0434 C   0  0  0  0  0  0  0  0  0  0  0  0
   -6.5484    2.8317   -0.2066 C   0  0  0  0  0  0  0  0  0  0  0  0
   -5.8609    3.9971   -0.5079 C   0  0  0  0  0  0  0  0  0  0  0  0
   -4.4802    3.9257   -0.6298 C   0  0  0  0  0  0  0  0  0  0  0  0
   -3.7886    2.8070   -0.4700 N   0  0  0  0  0  0  0  0  0  0  0  0
   -4.3094   -0.6670    0.1484 N   0  0  0  0  0  0  0  0  0  0  0  0
   -3.5833   -1.8098    0.1886 C   0  0  0  0  0  0  0  0  0  0  0  0
   -2.1742   -1.7985    0.1084 C   0  0  0  0  0  0  0  0  0  0  0  0
   -4.2603   -3.0459    0.2543 C   0  0  0  0  0  0  0  0  0  0  0  0
   -3.5599   -4.2203    0.1687 C   0  0  0  0  0  0  0  0  0  0  0  0
   -2.1648   -4.2072   -0.0104 C   0  0  0  0  0  0  0  0  0  0  0  0
   -1.4841   -3.0168   -0.0421 C   0  0  0  0  0  0  0  0  0  0  0  0
    8.4990    1.8539   -1.4185 H   0  0  0  0  0  0  0  0  0  0  0  0
    8.6851    1.9803    0.3431 H   0  0  0  0  0  0  0  0  0  0  0  0
    9.8683    1.0701   -0.6116 H   0  0  0  0  0  0  0  0  0  0  0  0
    6.7030   -1.9991   -0.0682 H   0  0  0  0  0  0  0  0  0  0  0  0
    4.2956   -2.1128    0.2000 H   0  0  0  0  0  0  0  0  0  0  0  0
    4.0935    2.1720    0.0330 H   0  0  0  0  0  0  0  0  0  0  0  0
    6.4792    2.2796   -0.2987 H   0  0  0  0  0  0  0  0  0  0  0  0
    1.9661   -1.9763   -0.1072 H   0  0  0  0  0  0  0  0  0  0  0  0
    2.5544   -1.6883    1.5370 H   0  0  0  0  0  0  0  0  0  0  0  0
    0.1148   -1.9495    1.5024 H   0  0  0  0  0  0  0  0  0  0  0  0
    0.6003   -0.3747    2.1041 H   0  0  0  0  0  0  0  0  0  0  0  0
   -0.2117    1.4123   -0.9582 H   0  0  0  0  0  0  0  0  0  0  0  0
    0.3781    1.6223    0.6920 H   0  0  0  0  0  0  0  0  0  0  0  0
    2.2314    1.6780   -0.8868 H   0  0  0  0  0  0  0  0  0  0  0  0
    1.7477    0.1438   -1.6060 H   0  0  0  0  0  0  0  0  0  0  0  0
   -6.3355    0.7279    0.1878 H   0  0  0  0  0  0  0  0  0  0  0  0
   -7.6252    2.8361   -0.1018 H   0  0  0  0  0  0  0  0  0  0  0  0
   -6.3750    4.9381   -0.6472 H   0  0  0  0  0  0  0  0  0  0  0  0
   -3.9084    4.8161   -0.8685 H   0  0  0  0  0  0  0  0  0  0  0  0
   -5.3388   -3.0410    0.3435 H   0  0  0  0  0  0  0  0  0  0  0  0
   -4.0851   -5.1656    0.2085 H   0  0  0  0  0  0  0  0  0  0  0  0
   -1.6294   -5.1384   -0.1371 H   0  0  0  0  0  0  0  0  0  0  0  0
   -0.4175   -3.0236   -0.2198 H   0  0  0  0  0  0  0  0  0  0  0  0
 22 21  2  0
 22 23  1  0
 21 20  1  0
 23 18  2  0
 20 19  2  0
 18 19  1  0
 18 17  1  0
 24 17  1  0
 24 25  2  0
 17 16  2  0
 27 25  1  0
 27 28  2  0
 25 26  1  0
 16 15  1  0
 28 29  1  0
 26 15  2  0
 26 30  1  0
 15 12  1  0
 29 30  2  0
 12 13  1  0
 12 11  1  0
 13 14  1  0
 14  9  1  0
 11 10  1  0
 10  9  1  0
  9  6  1  0
  6  7  2  0
  6  5  1  0
  7  8  1  0
  5  4  2  0
  8  3  2  0
  4  3  1  0
  3  2  1  0
  2  1  1  0
  1 31  1  0
  1 32  1  0
  1 33  1  0
  4 34  1  0
  5 35  1  0
  7 36  1  0
  8 37  1  0
 10 38  1  0
 10 39  1  0
 11 40  1  0
 11 41  1  0
 13 42  1  0
 13 43  1  0
 14 44  1  0
 14 45  1  0
 19 46  1  0
 20 47  1  0
 21 48  1  0
 22 49  1  0
 27 50  1  0
 28 51  1  0
 29 52  1  0
 30 53  1  0
M  END
