
     RDKit          3D

 57 60  0  0  0  0  0  0  0  0999 V2000
    5.2476   -1.7288    0.6085 C   0  0  0  0  0  0  0  0  0  0  0  0
    4.3792   -2.7852    0.8111 C   0  0  0  0  0  0  0  0  0  0  0  0
    4.9664   -4.0264    1.1102 C   0  0  0  0  0  0  0  0  0  0  0  0
    3.1536   -1.1131    0.3868 C   0  0  0  0  0  0  0  0  0  0  0  0
    6.3024   -4.0868    1.1756 N   0  0  0  0  0  0  0  0  0  0  0  0
    6.5741   -1.7706    0.6677 N   0  0  0  0  0  0  0  0  0  0  0  0
   -6.3531   -0.7778   -0.0049 C   0  0  0  0  0  0  0  0  0  0  0  0
   -7.5931   -0.2040   -0.2407 C   0  0  0  0  0  0  0  0  0  0  0  0
   -8.6337    0.3780    1.2268 Br  0  0  0  0  0  0  0  0  0  0  0  0
   -8.0882   -0.0504   -1.5268 C   0  0  0  0  0  0  0  0  0  0  0  0
   -7.3116   -0.4881   -2.5909 C   0  0  0  0  0  0  0  0  0  0  0  0
   -6.0692   -1.0642   -2.3703 C   0  0  0  0  0  0  0  0  0  0  0  0
   -5.5787   -1.2152   -1.0766 C   0  0  0  0  0  0  0  0  0  0  0  0
   -4.2157   -1.7981   -0.8294 C   0  0  0  0  0  0  0  0  0  0  0  0
   -3.1560   -0.7017   -0.8238 C   0  0  0  0  0  0  0  0  0  0  0  0
   -1.8465   -1.2675   -0.5696 N   0  0  0  0  0  0  0  0  0  0  0  0
   -0.7770   -0.5111   -0.3076 C   0  0  0  0  0  0  0  0  0  0  0  0
   -0.8040    0.7099   -0.2612 O   0  0  0  0  0  0  0  0  0  0  0  0
    0.5036   -1.2820   -0.0533 C   0  0  0  0  0  0  0  0  0  0  0  0
    1.8052   -0.0410    0.1328 S   0  0  0  0  0  0  0  0  0  0  0  0
    3.0762   -2.3800    0.6745 N   0  0  0  0  0  0  0  0  0  0  0  0
    4.2502   -5.1298    1.3341 N   0  0  0  0  0  0  0  0  0  0  0  0
    7.0126   -2.9851    0.9583 C   0  0  0  0  0  0  0  0  0  0  0  0
    4.4491   -0.6498    0.3327 N   0  0  0  0  0  0  0  0  0  0  0  0
    4.9374    0.6546   -0.0418 C   0  0  2  0  0  0  0  0  0  0  0  0
    4.1547    1.6177    0.6129 O   0  0  0  0  0  0  0  0  0  0  0  0
    4.8888    0.9630   -1.5554 C   0  0  2  0  0  0  0  0  0  0  0  0
    6.1696    1.3445   -1.9714 O   0  0  0  0  0  0  0  0  0  0  0  0
    3.9019    2.1472   -1.6372 C   0  0  2  0  0  0  0  0  0  0  0  0
    4.2682    3.1016   -2.5943 O   0  0  0  0  0  0  0  0  0  0  0  0
    3.9958    2.7410   -0.2337 C   0  0  1  0  0  0  0  0  0  0  0  0
    2.7691    3.5291    0.1750 C   0  0  0  0  0  0  0  0  0  0  0  0
    2.8664    4.0621    1.5352 N   0  0  0  0  0  0  0  0  0  0  0  0
    3.5179    5.0814    1.6744 N   0  0  0  0  0  0  0  0  0  0  0  0
    4.0926    6.0177    1.9125 N   0  0  0  0  0  0  0  0  0  0  0  0
   -9.0563    0.3968   -1.7074 H   0  0  0  0  0  0  0  0  0  0  0  0
   -7.6858   -0.3774   -3.6001 H   0  0  0  0  0  0  0  0  0  0  0  0
   -5.4787   -1.4045   -3.2123 H   0  0  0  0  0  0  0  0  0  0  0  0
   -4.2007   -2.3239    0.1284 H   0  0  0  0  0  0  0  0  0  0  0  0
   -3.9830   -2.5319   -1.6051 H   0  0  0  0  0  0  0  0  0  0  0  0
   -3.1642   -0.1731   -1.7816 H   0  0  0  0  0  0  0  0  0  0  0  0
   -3.3886    0.0329   -0.0500 H   0  0  0  0  0  0  0  0  0  0  0  0
   -1.7357   -2.2672   -0.6366 H   0  0  0  0  0  0  0  0  0  0  0  0
    0.4171   -1.8803    0.8548 H   0  0  0  0  0  0  0  0  0  0  0  0
    0.7261   -1.9594   -0.8789 H   0  0  0  0  0  0  0  0  0  0  0  0
    3.2485   -5.1238    1.2576 H   0  0  0  0  0  0  0  0  0  0  0  0
    4.7103   -6.0062    1.5091 H   0  0  0  0  0  0  0  0  0  0  0  0
    8.0890   -3.1010    1.0263 H   0  0  0  0  0  0  0  0  0  0  0  0
    5.9808    0.6913    0.2876 H   0  0  0  0  0  0  0  0  0  0  0  0
    4.5290    0.0943   -2.1207 H   0  0  0  0  0  0  0  0  0  0  0  0
    6.0631    2.0716   -2.6000 H   0  0  0  0  0  0  0  0  0  0  0  0
    2.8909    1.7665   -1.8149 H   0  0  0  0  0  0  0  0  0  0  0  0
    3.8248    2.9006   -3.4244 H   0  0  0  0  0  0  0  0  0  0  0  0
    4.8856    3.3866   -0.1814 H   0  0  0  0  0  0  0  0  0  0  0  0
    2.6091    4.3246   -0.5579 H   0  0  0  0  0  0  0  0  0  0  0  0
    1.8880    2.8895    0.1661 H   0  0  0  0  0  0  0  0  0  0  0  0
   -5.9810   -0.8951    1.0055 H   0  0  0  0  0  0  0  0  0  0  0  0
 30 29  1  0
 33 32  1  0
 33 34  2  0
 29 31  1  0
 29 27  1  0
 32 31  1  0
 28 27  1  0
 31 26  1  0
 34 35  2  0
 27 25  1  0
 26 25  1  0
 25 24  1  0
 20  4  1  0
 20 19  1  0
 24  4  1  0
 24  1  1  0
  4 21  2  0
  6  1  2  0
  6 23  1  0
  1  2  1  0
 19 17  1  0
 11 10  2  0
 11 12  1  0
 10  8  1  0
 23  5  2  0
 18 17  2  0
 21  2  1  0
  2  3  2  0
 17 16  1  0
 12 13  2  0
  8  9  1  0
  8  7  2  0
  5  3  1  0
  3 22  1  0
 16 15  1  0
 13  7  1  0
 13 14  1  0
 15 14  1  0
  7 57  1  0
 10 36  1  0
 11 37  1  0
 12 38  1  0
 14 39  1  0
 14 40  1  0
 15 41  1  0
 15 42  1  0
 16 43  1  0
 19 44  1  0
 19 45  1  0
 22 46  1  0
 22 47  1  0
 23 48  1  0
 25 49  1  1
 27 50  1  6
 28 51  1  0
 29 52  1  6
 30 53  1  0
 31 54  1  6
 32 55  1  0
 32 56  1  0
M  CHG  2  34   1  35  -1
M  END
