
     RDKit          3D

 54 56  0  0  0  0  0  0  0  0999 V2000
    0.1696    1.1088   -8.8258 O   0  0  0  0  0  0  0  0  0  0  0  0
    0.7330    0.9166  -10.0568 N   0  0  0  0  0  0  0  0  0  0  0  0
    0.4059   -0.2885  -10.4253 C   0  0  0  0  0  0  0  0  0  0  0  0
    0.8558   -0.8465  -11.7280 C   0  0  0  0  0  0  0  0  0  0  0  0
   -0.3894   -0.9197   -9.4327 C   0  0  0  0  0  0  0  0  0  0  0  0
   -0.5002    0.0117   -8.4564 C   0  0  0  0  0  0  0  0  0  0  0  0
   -1.1640    0.0139   -7.1292 C   0  0  0  0  0  0  0  0  0  0  0  0
   -0.1745    0.0475   -5.9608 C   0  0  0  0  0  0  0  0  0  0  0  0
   -0.8833   -0.0123   -4.6142 C   0  0  0  0  0  0  0  0  0  0  0  0
    0.0834    0.0232   -3.4375 C   0  0  0  0  0  0  0  0  0  0  0  0
   -0.6205   -0.0678   -2.0895 C   0  0  0  0  0  0  0  0  0  0  0  0
    0.3516   -0.0047   -0.9169 C   0  0  0  0  0  0  0  0  0  0  0  0
   -0.3706   -0.1425    0.4052 C   0  0  0  0  0  0  0  0  0  0  0  0
    0.5922   -0.0305    1.4502 O   0  0  0  0  0  0  0  0  0  0  0  0
    0.1869   -0.0842    2.7172 C   0  0  0  0  0  0  0  0  0  0  0  0
   -1.1251   -0.3035    3.1295 C   0  0  0  0  0  0  0  0  0  0  0  0
   -1.4441   -0.3422    4.4782 C   0  0  0  0  0  0  0  0  0  0  0  0
   -0.4655   -0.1602    5.4479 C   0  0  0  0  0  0  0  0  0  0  0  0
    0.8518    0.0614    5.0434 C   0  0  0  0  0  0  0  0  0  0  0  0
    1.1675    0.0952    3.7048 C   0  0  0  0  0  0  0  0  0  0  0  0
    2.8012    0.3678    3.2120 Cl  0  0  0  0  0  0  0  0  0  0  0  0
   -0.7744   -0.1945    6.8785 C   0  0  0  0  0  0  0  0  0  0  0  0
    0.0559   -0.0087    7.8163 N   0  0  0  0  0  0  0  0  0  0  0  0
   -0.6815   -0.0908    9.0726 C   0  0  1  0  0  0  0  0  0  0  0  0
   -0.6313    1.2305    9.8234 C   0  0  0  0  0  0  0  0  0  0  0  0
   -2.1045   -0.4996    8.6382 C   0  0  0  0  0  0  0  0  0  0  0  0
   -2.0525   -0.4487    7.2048 O   0  0  0  0  0  0  0  0  0  0  0  0
    1.4961   -1.7147  -11.5716 H   0  0  0  0  0  0  0  0  0  0  0  0
    0.0021   -1.1756  -12.3204 H   0  0  0  0  0  0  0  0  0  0  0  0
    1.4118   -0.1082  -12.3023 H   0  0  0  0  0  0  0  0  0  0  0  0
   -0.8087   -1.9116   -9.4505 H   0  0  0  0  0  0  0  0  0  0  0  0
   -1.7810   -0.8841   -7.0642 H   0  0  0  0  0  0  0  0  0  0  0  0
   -1.8443    0.8678   -7.0590 H   0  0  0  0  0  0  0  0  0  0  0  0
    0.4338    0.9547   -6.0151 H   0  0  0  0  0  0  0  0  0  0  0  0
    0.5165   -0.7960   -6.0497 H   0  0  0  0  0  0  0  0  0  0  0  0
   -1.4871   -0.9249   -4.5624 H   0  0  0  0  0  0  0  0  0  0  0  0
   -1.5863    0.8236   -4.5328 H   0  0  0  0  0  0  0  0  0  0  0  0
    0.6745    0.9445   -3.4792 H   0  0  0  0  0  0  0  0  0  0  0  0
    0.7978   -0.8017   -3.5298 H   0  0  0  0  0  0  0  0  0  0  0  0
   -1.1939   -1.0000   -2.0441 H   0  0  0  0  0  0  0  0  0  0  0  0
   -1.3498    0.7444   -2.0029 H   0  0  0  0  0  0  0  0  0  0  0  0
    0.8937    0.9451   -0.9403 H   0  0  0  0  0  0  0  0  0  0  0  0
    1.0947   -0.8014   -1.0113 H   0  0  0  0  0  0  0  0  0  0  0  0
   -0.8776   -1.1119    0.4628 H   0  0  0  0  0  0  0  0  0  0  0  0
   -1.1310    0.6389    0.5142 H   0  0  0  0  0  0  0  0  0  0  0  0
   -1.9146   -0.4468    2.4055 H   0  0  0  0  0  0  0  0  0  0  0  0
   -2.4738   -0.5166    4.7574 H   0  0  0  0  0  0  0  0  0  0  0  0
    1.6275    0.2046    5.7835 H   0  0  0  0  0  0  0  0  0  0  0  0
   -0.2331   -0.8656    9.7003 H   0  0  0  0  0  0  0  0  0  0  0  0
    0.3975    1.5146   10.0438 H   0  0  0  0  0  0  0  0  0  0  0  0
   -1.0903    2.0312    9.2409 H   0  0  0  0  0  0  0  0  0  0  0  0
   -1.1683    1.1510   10.7696 H   0  0  0  0  0  0  0  0  0  0  0  0
   -2.3690   -1.5126    8.9435 H   0  0  0  0  0  0  0  0  0  0  0  0
   -2.8782    0.1865    8.9866 H   0  0  0  0  0  0  0  0  0  0  0  0
  1  2  1  0
  1  6  1  0
  2  3  2  0
  3  4  1  0
  3  5  1  0
  4 28  1  0
  4 29  1  0
  4 30  1  0
  5  6  2  0
  5 31  1  0
  6  7  1  0
  7  8  1  0
  7 32  1  0
  7 33  1  0
  8  9  1  0
  8 34  1  0
  8 35  1  0
  9 10  1  0
  9 36  1  0
  9 37  1  0
 10 11  1  0
 10 38  1  0
 10 39  1  0
 11 12  1  0
 11 40  1  0
 11 41  1  0
 12 13  1  0
 12 42  1  0
 12 43  1  0
 13 14  1  0
 13 44  1  0
 13 45  1  0
 14 15  1  0
 15 16  2  0
 15 20  1  0
 16 17  1  0
 16 46  1  0
 17 18  2  0
 17 47  1  0
 18 19  1  0
 18 22  1  0
 19 20  2  0
 19 48  1  0
 20 21  1  0
 22 23  2  0
 22 27  1  0
 23 24  1  0
 24 25  1  0
 24 26  1  0
 24 49  1  1
 25 50  1  0
 25 51  1  0
 25 52  1  0
 26 27  1  0
 26 53  1  0
 26 54  1  0
M  END
