
     RDKit          3D

 49 48  0  0  0  0  0  0  0  0999 V2000
   -6.8688  -11.8972   -9.6174 O   0  0  0  0  0  0  0  0  0  0  0  0
   -6.7457  -11.6985   -8.3068 C   0  0  0  0  0  0  0  0  0  0  0  0
   -7.4902  -12.1941   -7.4977 O   0  0  0  0  0  0  0  0  0  0  0  0
   -5.5871  -10.7976   -7.9842 C   0  0  0  0  0  0  0  0  0  0  0  0
   -5.4505  -10.4601   -6.5084 C   0  0  0  0  0  0  0  0  0  0  0  0
   -4.2283   -9.5889   -6.2481 C   0  0  0  0  0  0  0  0  0  0  0  0
   -4.0285   -9.2519   -4.7769 C   0  0  0  0  0  0  0  0  0  0  0  0
   -2.7823   -8.4117   -4.5257 C   0  0  0  0  0  0  0  0  0  0  0  0
   -2.5470   -8.1017   -3.0531 C   0  0  0  0  0  0  0  0  0  0  0  0
   -1.2374   -7.3617   -2.8058 C   0  0  0  0  0  0  0  0  0  0  0  0
   -1.0065   -7.0902   -1.3291 C   0  0  0  0  0  0  0  0  0  0  0  0
    0.3124   -6.4438   -0.9852 C   0  0  0  0  0  0  0  0  0  0  0  0
    1.1822   -6.2663   -1.8088 O   0  0  0  0  0  0  0  0  0  0  0  0
    0.4749   -6.0389    0.4589 C   0  0  0  0  0  0  0  0  0  0  0  0
    1.8769   -5.6213    0.8704 C   0  0  0  0  0  0  0  0  0  0  0  0
    1.9437   -5.2533    2.3482 C   0  0  0  0  0  0  0  0  0  0  0  0
    3.3279   -4.8056    2.7973 C   0  0  0  0  0  0  0  0  0  0  0  0
    3.3856   -4.4343    4.2744 C   0  0  0  0  0  0  0  0  0  0  0  0
    4.7648   -3.9655    4.7158 C   0  0  0  0  0  0  0  0  0  0  0  0
   -7.6150  -12.4897   -9.7919 H   0  0  0  0  0  0  0  0  0  0  0  0
   -4.6730  -11.2741   -8.3541 H   0  0  0  0  0  0  0  0  0  0  0  0
   -5.6901   -9.8827   -8.5762 H   0  0  0  0  0  0  0  0  0  0  0  0
   -6.3509   -9.9476   -6.1599 H   0  0  0  0  0  0  0  0  0  0  0  0
   -5.3675  -11.3812   -5.9253 H   0  0  0  0  0  0  0  0  0  0  0  0
   -4.3076   -8.6613   -6.8259 H   0  0  0  0  0  0  0  0  0  0  0  0
   -3.3348  -10.0961   -6.6286 H   0  0  0  0  0  0  0  0  0  0  0  0
   -4.9074   -8.7181   -4.3997 H   0  0  0  0  0  0  0  0  0  0  0  0
   -3.9618  -10.1784   -4.1962 H   0  0  0  0  0  0  0  0  0  0  0  0
   -2.8581   -7.4729   -5.0851 H   0  0  0  0  0  0  0  0  0  0  0  0
   -1.9090   -8.9350   -4.9304 H   0  0  0  0  0  0  0  0  0  0  0  0
   -3.3809   -7.5023   -2.6724 H   0  0  0  0  0  0  0  0  0  0  0  0
   -2.5520   -9.0327   -2.4759 H   0  0  0  0  0  0  0  0  0  0  0  0
   -1.2425   -6.4181   -3.3591 H   0  0  0  0  0  0  0  0  0  0  0  0
   -0.4082   -7.9478   -3.2107 H   0  0  0  0  0  0  0  0  0  0  0  0
   -1.0609   -8.0223   -0.7538 H   0  0  0  0  0  0  0  0  0  0  0  0
   -1.8074   -6.4652   -0.9193 H   0  0  0  0  0  0  0  0  0  0  0  0
    0.1201   -6.8635    1.0866 H   0  0  0  0  0  0  0  0  0  0  0  0
   -0.2364   -5.2242    0.6422 H   0  0  0  0  0  0  0  0  0  0  0  0
    2.2102   -4.7726    0.2671 H   0  0  0  0  0  0  0  0  0  0  0  0
    2.5780   -6.4363    0.6679 H   0  0  0  0  0  0  0  0  0  0  0  0
    1.2179   -4.4597    2.5578 H   0  0  0  0  0  0  0  0  0  0  0  0
    1.6302   -6.1135    2.9501 H   0  0  0  0  0  0  0  0  0  0  0  0
    4.0503   -5.6049    2.5977 H   0  0  0  0  0  0  0  0  0  0  0  0
    3.6505   -3.9497    2.1939 H   0  0  0  0  0  0  0  0  0  0  0  0
    2.6486   -3.6515    4.4793 H   0  0  0  0  0  0  0  0  0  0  0  0
    3.0822   -5.2979    4.8745 H   0  0  0  0  0  0  0  0  0  0  0  0
    4.7802   -3.7056    5.7749 H   0  0  0  0  0  0  0  0  0  0  0  0
    5.0802   -3.0843    4.1543 H   0  0  0  0  0  0  0  0  0  0  0  0
    5.5150   -4.7420    4.5558 H   0  0  0  0  0  0  0  0  0  0  0  0
  3  2  2  0
  1  2  1  0
  2  4  1  0
  4  5  1  0
  5  6  1  0
  6  7  1  0
  8  7  1  0
  8  9  1  0
  9 10  1  0
 10 11  1  0
 13 12  2  0
 11 12  1  0
 12 14  1  0
 14 15  1  0
 15 16  1  0
 16 17  1  0
 18 19  1  0
 18 17  1  0
  1 20  1  0
  4 21  1  0
  4 22  1  0
  5 23  1  0
  5 24  1  0
  6 25  1  0
  6 26  1  0
  7 27  1  0
  7 28  1  0
  8 29  1  0
  8 30  1  0
  9 31  1  0
  9 32  1  0
 10 33  1  0
 10 34  1  0
 11 35  1  0
 11 36  1  0
 14 37  1  0
 14 38  1  0
 15 39  1  0
 15 40  1  0
 16 41  1  0
 16 42  1  0
 17 43  1  0
 17 44  1  0
 18 45  1  0
 18 46  1  0
 19 47  1  0
 19 48  1  0
 19 49  1  0
M  END
