
     RDKit          3D

 67 72  0  0  0  0  0  0  0  0999 V2000
   -9.6651    4.9006    0.2831 N   0  0  0  0  0  0  0  0  0  0  0  0
   -9.5782    3.8583   -0.7256 C   0  0  0  0  0  0  0  0  0  0  0  0
   -8.6197    2.7668   -0.3248 C   0  0  0  0  0  0  0  0  0  0  0  0
   -8.5771    2.2843    0.9817 C   0  0  0  0  0  0  0  0  0  0  0  0
   -7.7157    1.2581    1.3351 C   0  0  0  0  0  0  0  0  0  0  0  0
   -6.8647    0.6752    0.3934 C   0  0  0  0  0  0  0  0  0  0  0  0
   -6.9054    1.1630   -0.9122 C   0  0  0  0  0  0  0  0  0  0  0  0
   -7.7645    2.1945   -1.2610 C   0  0  0  0  0  0  0  0  0  0  0  0
   -5.9475   -0.4185    0.7646 C   0  0  0  0  0  0  0  0  0  0  0  0
   -6.3642   -1.4181    1.6635 C   0  0  0  0  0  0  0  0  0  0  0  0
   -5.6130   -2.4294    2.0637 N   0  0  0  0  0  0  0  0  0  0  0  0
   -4.3971   -2.4734    1.5470 C   0  0  0  0  0  0  0  0  0  0  0  0
   -3.4421   -3.4004    1.8268 N   0  0  0  0  0  0  0  0  0  0  0  0
   -2.3170   -3.1121    1.1143 C   0  0  0  0  0  0  0  0  0  0  0  0
   -2.5076   -1.9888    0.3504 C   0  0  0  0  0  0  0  0  0  0  0  0
   -1.5289   -1.3791   -0.5488 C   0  0  0  0  0  0  0  0  0  0  0  0
   -1.9239   -0.7780   -1.7456 C   0  0  0  0  0  0  0  0  0  0  0  0
   -0.9715   -0.2184   -2.5812 C   0  0  0  0  0  0  0  0  0  0  0  0
    0.3802   -0.2469   -2.2689 C   0  0  0  0  0  0  0  0  0  0  0  0
    0.7893   -0.8610   -1.0839 C   0  0  0  0  0  0  0  0  0  0  0  0
    2.1158   -0.9237   -0.6534 N   0  0  0  0  0  0  0  0  0  0  0  0
    3.2453   -0.8622   -1.4244 C   0  0  0  0  0  0  0  0  0  0  0  0
    3.2415   -0.7036   -2.6312 O   0  0  0  0  0  0  0  0  0  0  0  0
    4.3913   -1.0106   -0.6892 N   0  0  0  0  0  0  0  0  0  0  0  0
    5.6769   -0.9519   -1.2444 C   0  0  0  0  0  0  0  0  0  0  0  0
    6.0365   -1.7109   -2.3512 C   0  0  0  0  0  0  0  0  0  0  0  0
    7.3223   -1.6437   -2.8687 C   0  0  0  0  0  0  0  0  0  0  0  0
    8.2674   -0.8299   -2.2642 C   0  0  0  0  0  0  0  0  0  0  0  0
    7.9312   -0.0763   -1.1475 C   0  0  0  0  0  0  0  0  0  0  0  0
    6.6382   -0.1282   -0.6456 C   0  0  0  0  0  0  0  0  0  0  0  0
    6.2120    0.5962    0.4253 O   0  0  0  0  0  0  0  0  0  0  0  0
    7.1388    1.2526    1.1996 C   0  0  0  0  0  0  0  0  0  0  0  0
    7.3273    2.6133    1.0165 C   0  0  0  0  0  0  0  0  0  0  0  0
    8.2307    3.2864    1.8291 C   0  0  0  0  0  0  0  0  0  0  0  0
    8.9399    2.6020    2.8070 C   0  0  0  0  0  0  0  0  0  0  0  0
    8.7400    1.2378    2.9779 C   0  0  0  0  0  0  0  0  0  0  0  0
    7.8386    0.5549    2.1735 C   0  0  0  0  0  0  0  0  0  0  0  0
   -0.1725   -1.4080   -0.2341 C   0  0  0  0  0  0  0  0  0  0  0  0
   -3.8516   -1.5601    0.6172 C   0  0  0  0  0  0  0  0  0  0  0  0
   -4.6634   -0.4962    0.2374 C   0  0  0  0  0  0  0  0  0  0  0  0
   -8.7914    5.4113    0.3152 H   0  0  0  0  0  0  0  0  0  0  0  0
  -10.3694    5.5726    0.0070 H   0  0  0  0  0  0  0  0  0  0  0  0
  -10.5751    3.4219   -0.8409 H   0  0  0  0  0  0  0  0  0  0  0  0
   -9.2954    4.2230   -1.7221 H   0  0  0  0  0  0  0  0  0  0  0  0
   -9.2177    2.7270    1.7335 H   0  0  0  0  0  0  0  0  0  0  0  0
   -7.6931    0.9224    2.3647 H   0  0  0  0  0  0  0  0  0  0  0  0
   -6.2698    0.7258   -1.6725 H   0  0  0  0  0  0  0  0  0  0  0  0
   -7.7709    2.5539   -2.2836 H   0  0  0  0  0  0  0  0  0  0  0  0
   -7.3722   -1.3886    2.0633 H   0  0  0  0  0  0  0  0  0  0  0  0
   -3.5567   -4.1908    2.4407 H   0  0  0  0  0  0  0  0  0  0  0  0
   -1.4484   -3.7474    1.1852 H   0  0  0  0  0  0  0  0  0  0  0  0
   -2.9657   -0.7681   -2.0373 H   0  0  0  0  0  0  0  0  0  0  0  0
   -1.2840    0.2517   -3.5047 H   0  0  0  0  0  0  0  0  0  0  0  0
    1.0909    0.2110   -2.9374 H   0  0  0  0  0  0  0  0  0  0  0  0
    2.2340   -1.1912    0.3117 H   0  0  0  0  0  0  0  0  0  0  0  0
    4.3296   -0.9431    0.3156 H   0  0  0  0  0  0  0  0  0  0  0  0
    5.3090   -2.3696   -2.8038 H   0  0  0  0  0  0  0  0  0  0  0  0
    7.5833   -2.2371   -3.7345 H   0  0  0  0  0  0  0  0  0  0  0  0
    9.2754   -0.7776   -2.6532 H   0  0  0  0  0  0  0  0  0  0  0  0
    8.6756    0.5582   -0.6850 H   0  0  0  0  0  0  0  0  0  0  0  0
    6.7726    3.1406    0.2508 H   0  0  0  0  0  0  0  0  0  0  0  0
    8.3818    4.3491    1.6919 H   0  0  0  0  0  0  0  0  0  0  0  0
    9.6429    3.1311    3.4365 H   0  0  0  0  0  0  0  0  0  0  0  0
    9.2845    0.6994    3.7424 H   0  0  0  0  0  0  0  0  0  0  0  0
    7.6751   -0.5073    2.3064 H   0  0  0  0  0  0  0  0  0  0  0  0
    0.1438   -1.8553    0.7017 H   0  0  0  0  0  0  0  0  0  0  0  0
   -4.3023    0.2740   -0.4334 H   0  0  0  0  0  0  0  0  0  0  0  0
  1  2  1  0
  2  3  1  0
  3  4  2  0
  3  8  1  0
  4  5  1  0
  5  6  2  0
  6  7  1  0
  6  9  1  0
  7  8  2  0
  9 10  2  0
  9 40  1  0
 10 11  1  0
 11 12  2  0
 12 13  1  0
 12 39  1  0
 13 14  1  0
 14 15  2  0
 15 16  1  0
 15 39  1  0
 16 17  2  0
 16 38  1  0
 17 18  1  0
 18 19  2  0
 19 20  1  0
 20 21  1  0
 20 38  2  0
 21 22  1  0
 22 23  2  0
 22 24  1  0
 24 25  1  0
 25 26  2  0
 25 30  1  0
 26 27  1  0
 27 28  2  0
 28 29  1  0
 29 30  2  0
 30 31  1  0
 31 32  1  0
 32 33  2  0
 32 37  1  0
 33 34  1  0
 34 35  2  0
 35 36  1  0
 36 37  2  0
 39 40  2  0
  1 41  1  0
  1 42  1  0
  2 43  1  0
  2 44  1  0
  4 45  1  0
  5 46  1  0
  7 47  1  0
  8 48  1  0
 10 49  1  0
 13 50  1  0
 14 51  1  0
 17 52  1  0
 18 53  1  0
 19 54  1  0
 21 55  1  0
 24 56  1  0
 26 57  1  0
 27 58  1  0
 28 59  1  0
 29 60  1  0
 33 61  1  0
 34 62  1  0
 35 63  1  0
 36 64  1  0
 37 65  1  0
 38 66  1  0
 40 67  1  0
M  END
