
     RDKit          3D

123126  0  0  0  0  0  0  0  0999 V2000
   -2.0749   -1.3714    3.0147 C   0  0  0  0  0  0  0  0  0  0  0  0
   -2.2104   -1.6886    1.5301 C   0  0  0  0  0  0  0  0  0  0  0  0
   -1.7282   -0.5132    0.7030 C   0  0  1  0  0  0  0  0  0  0  0  0
   -0.2880   -0.1651    1.0557 C   0  0  0  0  0  0  0  0  0  0  0  0
   -0.1266    0.0726    2.5352 C   0  0  0  0  0  0  0  0  0  0  0  0
    0.4450    1.1929    2.9732 C   0  0  0  0  0  0  0  0  0  0  0  0
    0.7141    1.5054    4.4067 C   0  0  0  0  0  0  0  0  0  0  0  0
    0.5655    0.2901    5.3143 C   0  0  2  0  0  0  0  0  0  0  0  0
   -0.6888   -0.5070    4.9255 C   0  0  1  0  0  0  0  0  0  0  0  0
   -0.6403   -1.0159    3.4614 C   0  0  1  0  0  0  0  0  0  0  0  0
   -0.9859   -1.6219    5.9364 C   0  0  0  0  0  0  0  0  0  0  0  0
   -1.0187   -1.1438    7.3896 C   0  0  0  0  0  0  0  0  0  0  0  0
    0.2822   -0.4363    7.7719 C   0  0  1  0  0  0  0  0  0  0  0  0
    0.4641    0.7167    6.7700 C   0  0  1  0  0  0  0  0  0  0  0  0
    1.5945    1.5506    7.3594 C   0  0  0  0  0  0  0  0  0  0  0  0
    1.3794    1.4287    8.8803 C   0  0  0  0  0  0  0  0  0  0  0  0
    0.2742    0.3602    9.1018 C   0  0  2  0  0  0  0  0  0  0  0  0
    1.4625   -1.4126    7.7486 C   0  0  0  0  0  0  0  0  0  0  0  0
    0.2676   -2.2490    3.3250 C   0  0  0  0  0  0  0  0  0  0  0  0
    0.4563   -0.3908   10.4293 C   0  0  2  0  0  0  0  0  0  0  0  0
   -0.5649   -1.5078   10.6332 C   0  0  0  0  0  0  0  0  0  0  0  0
    0.4025    0.6003   11.6024 C   0  0  0  0  0  0  0  0  0  0  0  0
    0.8914    0.0465   12.9363 C   0  0  0  0  0  0  0  0  0  0  0  0
    0.8689    1.0965   14.0423 C   0  0  0  0  0  0  0  0  0  0  0  0
    1.4661    0.6399   15.3744 C   0  0  1  0  0  0  0  0  0  0  0  0
    1.5468    1.8069   16.3540 C   0  0  0  0  0  0  0  0  0  0  0  0
    0.6854   -0.5140   15.9972 C   0  0  0  0  0  0  0  0  0  0  0  0
   -1.9428   -0.5653   -2.9947 C   0  0  0  0  0  0  0  0  0  0  0  0
   -1.9316    0.4535   -4.1229 C   0  0  0  0  0  0  0  0  0  0  0  0
   -1.9731   -0.2200   -5.4892 C   0  0  0  0  0  0  0  0  0  0  0  0
   -1.9474    0.7736   -6.6434 C   0  0  0  0  0  0  0  0  0  0  0  0
   -2.0024    0.1014   -8.0096 C   0  0  0  0  0  0  0  0  0  0  0  0
   -1.9415    1.0908   -9.1660 C   0  0  0  0  0  0  0  0  0  0  0  0
   -2.0388    0.4136  -10.5337 C   0  0  0  0  0  0  0  0  0  0  0  0
   -1.9636    1.4019  -11.6542 C   0  0  0  0  0  0  0  0  0  0  0  0
   -1.1088    1.4171  -12.6760 C   0  0  0  0  0  0  0  0  0  0  0  0
   -0.0378    0.4121  -12.9927 C   0  0  0  0  0  0  0  0  0  0  0  0
   -0.3464   -0.2853  -14.2872 C   0  0  0  0  0  0  0  0  0  0  0  0
    0.3707   -0.2767  -15.4100 C   0  0  0  0  0  0  0  0  0  0  0  0
    1.6909    0.3823  -15.6582 C   0  0  0  0  0  0  0  0  0  0  0  0
    2.7533   -0.6278  -16.0950 C   0  0  0  0  0  0  0  0  0  0  0  0
    4.1076    0.0095  -16.3770 C   0  0  0  0  0  0  0  0  0  0  0  0
    5.1503   -0.9958  -16.8515 C   0  0  0  0  0  0  0  0  0  0  0  0
    6.5091   -0.3633  -17.1189 C   0  0  0  0  0  0  0  0  0  0  0  0
   -1.8879    1.2268   -1.3859 O   0  0  0  0  0  0  0  0  0  0  0  0
   -1.8294   -0.8956   -0.6803 O   0  0  0  0  0  0  0  0  0  0  0  0
   -2.7358   -0.5301    3.2527 H   0  0  0  0  0  0  0  0  0  0  0  0
   -2.4416   -2.2216    3.5940 H   0  0  0  0  0  0  0  0  0  0  0  0
   -3.2568   -1.9037    1.3000 H   0  0  0  0  0  0  0  0  0  0  0  0
   -1.6383   -2.5845    1.2697 H   0  0  0  0  0  0  0  0  0  0  0  0
   -2.3739    0.3505    0.8893 H   0  0  0  0  0  0  0  0  0  0  0  0
    0.3493   -0.9960    0.7318 H   0  0  0  0  0  0  0  0  0  0  0  0
    0.0410    0.7186    0.5062 H   0  0  0  0  0  0  0  0  0  0  0  0
    0.7544    1.9384    2.2455 H   0  0  0  0  0  0  0  0  0  0  0  0
    0.0384    2.3047    4.7405 H   0  0  0  0  0  0  0  0  0  0  0  0
    1.7198    1.9262    4.5001 H   0  0  0  0  0  0  0  0  0  0  0  0
    1.4511   -0.3450    5.1847 H   0  0  0  0  0  0  0  0  0  0  0  0
   -1.5258    0.2061    4.9781 H   0  0  0  0  0  0  0  0  0  0  0  0
   -1.9437   -2.0908    5.6988 H   0  0  0  0  0  0  0  0  0  0  0  0
   -0.2384   -2.4134    5.8463 H   0  0  0  0  0  0  0  0  0  0  0  0
   -1.8522   -0.4448    7.5258 H   0  0  0  0  0  0  0  0  0  0  0  0
   -1.2232   -1.9989    8.0369 H   0  0  0  0  0  0  0  0  0  0  0  0
   -0.4544    1.3205    6.8454 H   0  0  0  0  0  0  0  0  0  0  0  0
    1.5690    2.5875    7.0208 H   0  0  0  0  0  0  0  0  0  0  0  0
    2.5672    1.1486    7.0625 H   0  0  0  0  0  0  0  0  0  0  0  0
    1.0940    2.3859    9.3184 H   0  0  0  0  0  0  0  0  0  0  0  0
    2.3013    1.1243    9.3832 H   0  0  0  0  0  0  0  0  0  0  0  0
   -0.6969    0.8749    9.1486 H   0  0  0  0  0  0  0  0  0  0  0  0
    1.6362   -1.8371    6.7600 H   0  0  0  0  0  0  0  0  0  0  0  0
    2.3959   -0.9399    8.0588 H   0  0  0  0  0  0  0  0  0  0  0  0
    1.2865   -2.2492    8.4272 H   0  0  0  0  0  0  0  0  0  0  0  0
    0.4439   -2.5156    2.2835 H   0  0  0  0  0  0  0  0  0  0  0  0
    1.2456   -2.0727    3.7764 H   0  0  0  0  0  0  0  0  0  0  0  0
   -0.1699   -3.1253    3.8044 H   0  0  0  0  0  0  0  0  0  0  0  0
    1.4586   -0.8403   10.4263 H   0  0  0  0  0  0  0  0  0  0  0  0
   -1.5842   -1.1341   10.5073 H   0  0  0  0  0  0  0  0  0  0  0  0
   -0.4228   -2.3292    9.9330 H   0  0  0  0  0  0  0  0  0  0  0  0
   -0.4929   -1.9354   11.6340 H   0  0  0  0  0  0  0  0  0  0  0  0
    1.0087    1.4786   11.3651 H   0  0  0  0  0  0  0  0  0  0  0  0
   -0.6262    0.9666   11.7107 H   0  0  0  0  0  0  0  0  0  0  0  0
    0.2888   -0.8150   13.2356 H   0  0  0  0  0  0  0  0  0  0  0  0
    1.9152   -0.3256   12.8145 H   0  0  0  0  0  0  0  0  0  0  0  0
    1.4196    1.9796   13.6983 H   0  0  0  0  0  0  0  0  0  0  0  0
   -0.1631    1.4301   14.2076 H   0  0  0  0  0  0  0  0  0  0  0  0
    2.4883    0.2924   15.1795 H   0  0  0  0  0  0  0  0  0  0  0  0
    2.0168    1.5056   17.2922 H   0  0  0  0  0  0  0  0  0  0  0  0
    2.1266    2.6363   15.9446 H   0  0  0  0  0  0  0  0  0  0  0  0
    0.5496    2.1855   16.5921 H   0  0  0  0  0  0  0  0  0  0  0  0
   -0.3435   -0.2129   16.2109 H   0  0  0  0  0  0  0  0  0  0  0  0
    0.6454   -1.3879   15.3463 H   0  0  0  0  0  0  0  0  0  0  0  0
    1.1390   -0.8270   16.9392 H   0  0  0  0  0  0  0  0  0  0  0  0
   -2.8405   -1.1900   -3.0523 H   0  0  0  0  0  0  0  0  0  0  0  0
   -1.1011   -1.2573   -3.0973 H   0  0  0  0  0  0  0  0  0  0  0  0
   -1.0350    1.0760   -4.0522 H   0  0  0  0  0  0  0  0  0  0  0  0
   -2.7854    1.1294   -4.0240 H   0  0  0  0  0  0  0  0  0  0  0  0
   -2.8727   -0.8410   -5.5634 H   0  0  0  0  0  0  0  0  0  0  0  0
   -1.1240   -0.9058   -5.5844 H   0  0  0  0  0  0  0  0  0  0  0  0
   -1.0415    1.3862   -6.5746 H   0  0  0  0  0  0  0  0  0  0  0  0
   -2.7899    1.4669   -6.5453 H   0  0  0  0  0  0  0  0  0  0  0  0
   -2.9202   -0.4925   -8.0850 H   0  0  0  0  0  0  0  0  0  0  0  0
   -1.1739   -0.6098   -8.0996 H   0  0  0  0  0  0  0  0  0  0  0  0
   -1.0084    1.6608   -9.1101 H   0  0  0  0  0  0  0  0  0  0  0  0
   -2.7514    1.8212   -9.0651 H   0  0  0  0  0  0  0  0  0  0  0  0
   -2.9921   -0.1250  -10.5894 H   0  0  0  0  0  0  0  0  0  0  0  0
   -1.2555   -0.3417  -10.6239 H   0  0  0  0  0  0  0  0  0  0  0  0
   -2.6907    2.2087  -11.6029 H   0  0  0  0  0  0  0  0  0  0  0  0
   -1.1950    2.2271  -13.3949 H   0  0  0  0  0  0  0  0  0  0  0  0
    0.0456   -0.3329  -12.1971 H   0  0  0  0  0  0  0  0  0  0  0  0
    0.9293    0.9179  -13.0463 H   0  0  0  0  0  0  0  0  0  0  0  0
   -1.2805   -0.8407  -14.2893 H   0  0  0  0  0  0  0  0  0  0  0  0
   -0.0272   -0.8333  -16.2552 H   0  0  0  0  0  0  0  0  0  0  0  0
    2.0385    0.9217  -14.7746 H   0  0  0  0  0  0  0  0  0  0  0  0
    1.5759    1.1320  -16.4495 H   0  0  0  0  0  0  0  0  0  0  0  0
    2.4043   -1.1494  -16.9925 H   0  0  0  0  0  0  0  0  0  0  0  0
    2.8641   -1.3939  -15.3213 H   0  0  0  0  0  0  0  0  0  0  0  0
    4.4698    0.5090  -15.4718 H   0  0  0  0  0  0  0  0  0  0  0  0
    3.9915    0.7953  -17.1317 H   0  0  0  0  0  0  0  0  0  0  0  0
    4.7905   -1.4841  -17.7625 H   0  0  0  0  0  0  0  0  0  0  0  0
    5.2552   -1.7888  -16.1046 H   0  0  0  0  0  0  0  0  0  0  0  0
    7.2297   -1.1007  -17.4749 H   0  0  0  0  0  0  0  0  0  0  0  0
    6.4363    0.4200  -17.8754 H   0  0  0  0  0  0  0  0  0  0  0  0
    6.9200    0.0902  -16.2151 H   0  0  0  0  0  0  0  0  0  0  0  0
   -1.8839    0.0435   -1.6192 C   0  0  0  0  0  0  0  0  0  0  0  0
  1  2  1  0
  1 10  1  0
  1 47  1  0
  1 48  1  0
  2  3  1  0
  2 49  1  0
  2 50  1  0
  3  4  1  0
  3 46  1  0
  3 51  1  6
  4  5  1  0
  4 52  1  0
  4 53  1  0
  5  6  2  0
  5 10  1  0
  6  7  1  0
  6 54  1  0
  7  8  1  0
  7 55  1  0
  7 56  1  0
  8  9  1  0
  8 14  1  0
  8 57  1  1
  9 10  1  0
  9 11  1  0
  9 58  1  6
 10 19  1  1
 11 12  1  0
 11 59  1  0
 11 60  1  0
 12 13  1  0
 12 61  1  0
 12 62  1  0
 13 14  1  0
 13 17  1  0
 13 18  1  1
 14 15  1  0
 14 63  1  6
 15 16  1  0
 15 64  1  0
 15 65  1  0
 16 17  1  0
 16 66  1  0
 16 67  1  0
 17 20  1  0
 17 68  1  1
 18 69  1  0
 18 70  1  0
 18 71  1  0
 19 72  1  0
 19 73  1  0
 19 74  1  0
 20 21  1  0
 20 22  1  0
 20 75  1  6
 21 76  1  0
 21 77  1  0
 21 78  1  0
 22 23  1  0
 22 79  1  0
 22 80  1  0
 23 24  1  0
 23 81  1  0
 23 82  1  0
 24 25  1  0
 24 83  1  0
 24 84  1  0
 25 26  1  0
 25 27  1  0
 25 85  1  6
 26 86  1  0
 26 87  1  0
 26 88  1  0
 27 89  1  0
 27 90  1  0
 27 91  1  0
123 28  1  0
123 45  2  0
123 46  1  0
 28 29  1  0
 28 92  1  0
 28 93  1  0
 29 30  1  0
 29 94  1  0
 29 95  1  0
 30 31  1  0
 30 96  1  0
 30 97  1  0
 31 32  1  0
 31 98  1  0
 31 99  1  0
 32 33  1  0
 32100  1  0
 32101  1  0
 33 34  1  0
 33102  1  0
 33103  1  0
 34 35  1  0
 34104  1  0
 34105  1  0
 35 36  2  0
 35106  1  0
 36 37  1  0
 36107  1  0
 37 38  1  0
 37108  1  0
 37109  1  0
 38 39  2  0
 38110  1  0
 39 40  1  0
 39111  1  0
 40 41  1  0
 40112  1  0
 40113  1  0
 41 42  1  0
 41114  1  0
 41115  1  0
 42 43  1  0
 42116  1  0
 42117  1  0
 43 44  1  0
 43118  1  0
 43119  1  0
 44120  1  0
 44121  1  0
 44122  1  0
M  END
