
     RDKit          3D

 48 50  0  0  0  0  0  0  0  0999 V2000
   -3.2227   -2.8166    1.7987 C   0  0  0  0  0  0  0  0  0  0  0  0
   -2.9157   -2.1564    0.5711 O   0  0  0  0  0  0  0  0  0  0  0  0
   -3.4664   -0.9283    0.4271 C   0  0  0  0  0  0  0  0  0  0  0  0
   -4.7198   -0.7817   -0.1666 C   0  0  0  0  0  0  0  0  0  0  0  0
   -5.6425   -2.3091   -0.7632 Br  0  0  0  0  0  0  0  0  0  0  0  0
   -5.2894    0.4670   -0.3627 C   0  0  0  0  0  0  0  0  0  0  0  0
   -4.5790    1.5827    0.0498 C   0  0  0  0  0  0  0  0  0  0  0  0
   -5.3312    3.2943   -0.2002 Br  0  0  0  0  0  0  0  0  0  0  0  0
   -3.3266    1.4638    0.6289 C   0  0  0  0  0  0  0  0  0  0  0  0
   -2.7638    0.2092    0.8300 C   0  0  0  0  0  0  0  0  0  0  0  0
   -1.3755    0.1018    1.4048 C   0  0  0  0  0  0  0  0  0  0  0  0
   -0.3887    0.0240    0.3408 N   0  0  0  0  0  0  0  0  0  0  0  0
    0.9682    0.0314    0.8560 C   0  0  0  0  0  0  0  0  0  0  0  0
    1.9756   -0.0575   -0.2781 C   0  0  0  0  0  0  0  0  0  0  0  0
    3.4037   -0.0018    0.2382 C   0  0  0  0  0  0  0  0  0  0  0  0
    4.3341   -0.1304   -0.8640 N   0  0  0  0  0  0  0  0  0  0  0  0
    5.6724   -0.0777   -0.7664 C   0  0  0  0  0  0  0  0  0  0  0  0
    6.5016   -0.3370   -1.8474 C   0  0  0  0  0  0  0  0  0  0  0  0
    7.9132   -0.2630   -1.7581 C   0  0  0  0  0  0  0  0  0  0  0  0
    8.6824   -0.4852   -2.7047 O   0  0  0  0  0  0  0  0  0  0  0  0
    8.4400    0.1043   -0.4270 C   0  0  0  0  0  0  0  0  0  0  0  0
    9.8149    0.2080   -0.1979 C   0  0  0  0  0  0  0  0  0  0  0  0
   10.3053    0.5481    1.0454 C   0  0  0  0  0  0  0  0  0  0  0  0
    9.4158    0.7946    2.0941 C   0  0  0  0  0  0  0  0  0  0  0  0
    8.0548    0.6992    1.8963 C   0  0  0  0  0  0  0  0  0  0  0  0
    7.5634    0.3525    0.6338 C   0  0  0  0  0  0  0  0  0  0  0  0
    6.2057    0.2533    0.4323 N   0  0  0  0  0  0  0  0  0  0  0  0
   -2.8169   -2.2732    2.6545 H   0  0  0  0  0  0  0  0  0  0  0  0
   -4.2993   -2.9358    1.9360 H   0  0  0  0  0  0  0  0  0  0  0  0
   -2.7615   -3.8001    1.7519 H   0  0  0  0  0  0  0  0  0  0  0  0
   -6.2612    0.5622   -0.8276 H   0  0  0  0  0  0  0  0  0  0  0  0
   -2.7751    2.3431    0.9356 H   0  0  0  0  0  0  0  0  0  0  0  0
   -1.1734    1.0042    1.9863 H   0  0  0  0  0  0  0  0  0  0  0  0
   -1.3072   -0.7345    2.1129 H   0  0  0  0  0  0  0  0  0  0  0  0
   -0.5343   -0.8372   -0.1744 H   0  0  0  0  0  0  0  0  0  0  0  0
    1.1169    0.9667    1.4045 H   0  0  0  0  0  0  0  0  0  0  0  0
    1.1525   -0.7810    1.5768 H   0  0  0  0  0  0  0  0  0  0  0  0
    1.8270   -0.9932   -0.8268 H   0  0  0  0  0  0  0  0  0  0  0  0
    1.8080    0.7614   -0.9817 H   0  0  0  0  0  0  0  0  0  0  0  0
    3.5583    0.9541    0.7489 H   0  0  0  0  0  0  0  0  0  0  0  0
    3.5621   -0.7955    0.9776 H   0  0  0  0  0  0  0  0  0  0  0  0
    3.9718   -0.4755   -1.7381 H   0  0  0  0  0  0  0  0  0  0  0  0
    6.0441   -0.6051   -2.7916 H   0  0  0  0  0  0  0  0  0  0  0  0
   10.4935    0.0148   -1.0181 H   0  0  0  0  0  0  0  0  0  0  0  0
   11.3717    0.6237    1.2100 H   0  0  0  0  0  0  0  0  0  0  0  0
    9.7923    1.0637    3.0721 H   0  0  0  0  0  0  0  0  0  0  0  0
    7.3660    0.8903    2.7103 H   0  0  0  0  0  0  0  0  0  0  0  0
    5.6020    0.4288    1.2213 H   0  0  0  0  0  0  0  0  0  0  0  0
  1  2  1  0
  8  7  1  0
  6  7  2  0
  6  4  1  0
  5  4  1  0
  7  9  1  0
  4  3  2  0
  9 10  2  0
  3 10  1  0
  3  2  1  0
 10 11  1  0
 11 12  1  0
 12 13  1  0
 13 14  1  0
 14 15  1  0
 15 16  1  0
 16 17  1  0
 17 18  2  0
 17 27  1  0
 18 19  1  0
 27 26  1  0
 19 20  2  0
 19 21  1  0
 26 21  2  0
 26 25  1  0
 21 22  1  0
 25 24  2  0
 22 23  2  0
 24 23  1  0
  1 28  1  0
  1 29  1  0
  1 30  1  0
  6 31  1  0
  9 32  1  0
 11 33  1  0
 11 34  1  0
 12 35  1  0
 13 36  1  0
 13 37  1  0
 14 38  1  0
 14 39  1  0
 15 40  1  0
 15 41  1  0
 16 42  1  0
 18 43  1  0
 22 44  1  0
 23 45  1  0
 24 46  1  0
 25 47  1  0
 27 48  1  0
M  END
