
     RDKit          3D

 61 65  0  0  0  0  0  0  0  0999 V2000
    0.3816    2.6690   -2.1617 C   0  0  0  0  0  0  0  0  0  0  0  0
   -0.4702    3.5489   -1.2748 C   0  0  1  0  0  0  0  0  0  0  0  0
    0.2158    4.8636   -0.9502 C   0  0  0  0  0  0  0  0  0  0  0  0
   -3.6671    1.8971    1.0160 C   0  0  0  0  0  0  0  0  0  0  0  0
   -3.1926    1.0185    2.1730 C   0  0  0  0  0  0  0  0  0  0  0  0
   -1.6677    0.9247    2.2275 C   0  0  0  0  0  0  0  0  0  0  0  0
   -1.1123    0.5411    0.8338 C   0  0  2  0  0  0  0  0  0  0  0  0
   -1.7869   -0.7459    0.4456 C   0  0  0  0  0  0  0  0  0  0  0  0
   -2.8659   -0.8517   -0.3708 C   0  0  0  0  0  0  0  0  0  0  0  0
   -3.2350   -2.2321   -0.3845 C   0  0  0  0  0  0  0  0  0  0  0  0
   -4.2421   -2.9666   -1.0193 C   0  0  0  0  0  0  0  0  0  0  0  0
   -4.3154   -4.3302   -0.8025 C   0  0  0  0  0  0  0  0  0  0  0  0
   -2.3247   -2.9051    0.4655 C   0  0  0  0  0  0  0  0  0  0  0  0
   -3.4614    0.3446   -1.0225 C   0  0  0  0  0  0  0  0  0  0  0  0
    0.4015    0.3257    0.7494 C   0  0  0  0  0  0  0  0  0  0  0  0
    2.7076    0.4427    1.5657 C   0  0  0  0  0  0  0  0  0  0  0  0
    0.9527   -0.2483   -0.4051 C   0  0  0  0  0  0  0  0  0  0  0  0
    5.2744   -0.8514   -0.7755 C   0  0  0  0  0  0  0  0  0  0  0  0
    6.7415   -0.9901   -0.7695 C   0  0  0  0  0  0  0  0  0  0  0  0
   -1.6349    3.8704   -2.0125 F   0  0  0  0  0  0  0  0  0  0  0  0
   -0.9015    2.8570    0.0192 C   0  0  0  0  0  0  0  0  0  0  0  0
   -1.5037    1.5488   -0.1677 N   0  0  0  0  0  0  0  0  0  0  0  0
   -1.4607   -1.9696    0.9641 N   0  0  0  0  0  0  0  0  0  0  0  0
   -2.3943   -4.2782    0.6844 C   0  0  0  0  0  0  0  0  0  0  0  0
   -3.3991   -4.9787    0.0405 C   0  0  0  0  0  0  0  0  0  0  0  0
   -2.9652    1.6110   -0.3211 C   0  0  2  0  0  0  0  0  0  0  0  0
    0.1345   -0.6117   -1.3939 F   0  0  0  0  0  0  0  0  0  0  0  0
    2.2935   -0.4786   -0.6006 C   0  0  0  0  0  0  0  0  0  0  0  0
    3.2000   -0.1263    0.3989 C   0  0  0  0  0  0  0  0  0  0  0  0
    1.3485    0.6521    1.7145 C   0  0  0  0  0  0  0  0  0  0  0  0
    0.9740    1.2195    2.8676 F   0  0  0  0  0  0  0  0  0  0  0  0
    4.6402   -0.3242    0.2750 C   0  0  0  0  0  0  0  0  0  0  0  0
    7.4694   -0.6644    0.1392 O   0  0  0  0  0  0  0  0  0  0  0  0
    7.1815   -1.5253   -1.9026 O   0  0  0  0  0  0  0  0  0  0  0  0
   -0.1511    1.7605   -2.4332 H   0  0  0  0  0  0  0  0  0  0  0  0
    0.6682    3.1987   -3.0712 H   0  0  0  0  0  0  0  0  0  0  0  0
    1.2962    2.3826   -1.6416 H   0  0  0  0  0  0  0  0  0  0  0  0
    0.4508    5.4127   -1.8628 H   0  0  0  0  0  0  0  0  0  0  0  0
   -0.4104    5.4963   -0.3189 H   0  0  0  0  0  0  0  0  0  0  0  0
    1.1532    4.6858   -0.4227 H   0  0  0  0  0  0  0  0  0  0  0  0
   -4.7484    1.8044    0.8874 H   0  0  0  0  0  0  0  0  0  0  0  0
   -3.4886    2.9437    1.2829 H   0  0  0  0  0  0  0  0  0  0  0  0
   -3.5502    1.4380    3.1161 H   0  0  0  0  0  0  0  0  0  0  0  0
   -3.6269    0.0199    2.1021 H   0  0  0  0  0  0  0  0  0  0  0  0
   -1.2611    1.8891    2.5346 H   0  0  0  0  0  0  0  0  0  0  0  0
   -1.3728    0.1919    2.9814 H   0  0  0  0  0  0  0  0  0  0  0  0
   -4.9557   -2.4739   -1.6692 H   0  0  0  0  0  0  0  0  0  0  0  0
   -5.0901   -4.9104   -1.2872 H   0  0  0  0  0  0  0  0  0  0  0  0
   -3.1845    0.3908   -2.0809 H   0  0  0  0  0  0  0  0  0  0  0  0
   -4.5540    0.3144   -0.9903 H   0  0  0  0  0  0  0  0  0  0  0  0
    3.3751    0.7325    2.3672 H   0  0  0  0  0  0  0  0  0  0  0  0
    4.7461   -1.1919   -1.6573 H   0  0  0  0  0  0  0  0  0  0  0  0
   -0.0013    2.7746    0.6319 H   0  0  0  0  0  0  0  0  0  0  0  0
   -1.5553    3.5479    0.5694 H   0  0  0  0  0  0  0  0  0  0  0  0
   -0.6869   -2.1634    1.5782 H   0  0  0  0  0  0  0  0  0  0  0  0
   -1.6915   -4.7821    1.3362 H   0  0  0  0  0  0  0  0  0  0  0  0
   -3.4819   -6.0471    0.1933 H   0  0  0  0  0  0  0  0  0  0  0  0
   -3.1749    2.4448   -0.9884 H   0  0  0  0  0  0  0  0  0  0  0  0
    2.6151   -0.9283   -1.5307 H   0  0  0  0  0  0  0  0  0  0  0  0
    5.2272   -0.0019    1.1288 H   0  0  0  0  0  0  0  0  0  0  0  0
    8.1465   -1.6074   -1.8786 H   0  0  0  0  0  0  0  0  0  0  0  0
 33 19  2  0
 34 19  1  0
 19 18  1  0
 18 32  2  0
 32 29  1  0
 29 16  2  0
 29 28  1  0
 16 30  1  0
 28 17  2  0
 30 31  1  0
 30 15  2  0
  3  2  1  0
 17 15  1  0
 17 27  1  0
  1  2  1  0
  7 15  1  1
  2 21  1  0
  2 20  1  6
 21 22  1  0
  7 22  1  0
  7  6  1  0
  7  8  1  0
 22 26  1  0
 23  8  1  0
 23 13  1  0
  6  5  1  0
  8  9  2  0
 13 24  2  0
 13 10  1  0
 26 14  1  0
 26  4  1  0
  9 14  1  0
  9 10  1  0
 24 25  1  0
 10 11  2  0
  5  4  1  0
 25 12  2  0
 11 12  1  0
  1 35  1  0
  1 36  1  0
  1 37  1  0
  3 38  1  0
  3 39  1  0
  3 40  1  0
  4 41  1  0
  4 42  1  0
  5 43  1  0
  5 44  1  0
  6 45  1  0
  6 46  1  0
 11 47  1  0
 12 48  1  0
 14 49  1  0
 14 50  1  0
 16 51  1  0
 18 52  1  0
 21 53  1  0
 21 54  1  0
 23 55  1  0
 24 56  1  0
 25 57  1  0
 26 58  1  6
 28 59  1  0
 32 60  1  0
 34 61  1  0
M  END
