
     RDKit          3D

 49 52  0  0  0  0  0  0  0  0999 V2000
    1.0942    2.3889   -0.7763 C   0  0  0  0  0  0  0  0  0  0  0  0
    2.1364    1.5358   -0.0981 C   0  0  0  0  0  0  0  0  0  0  0  0
    3.8045    1.2695    1.6551 C   0  0  0  0  0  0  0  0  0  0  0  0
    3.9907   -0.0433    1.3287 C   0  0  0  0  0  0  0  0  0  0  0  0
    3.2629   -0.6068    0.2579 C   0  0  0  0  0  0  0  0  0  0  0  0
    3.4303   -1.9608   -0.1164 C   0  0  0  0  0  0  0  0  0  0  0  0
    1.9426   -1.7695   -1.8235 C   0  0  0  0  0  0  0  0  0  0  0  0
    1.6846   -0.4546   -1.5543 C   0  0  0  0  0  0  0  0  0  0  0  0
   -1.1780    1.5791   -1.1612 C   0  0  0  0  0  0  0  0  0  0  0  0
   -2.4886    1.1445   -0.5730 C   0  0  0  0  0  0  0  0  0  0  0  0
   -3.5978    1.9533   -0.8088 C   0  0  0  0  0  0  0  0  0  0  0  0
   -4.8497    1.5818   -0.3491 C   0  0  0  0  0  0  0  0  0  0  0  0
   -4.9968    0.3798    0.3311 C   0  0  0  0  0  0  0  0  0  0  0  0
   -2.6218   -0.0697    0.1076 C   0  0  0  0  0  0  0  0  0  0  0  0
   -1.4573   -0.9937    0.3295 C   0  0  1  0  0  0  0  0  0  0  0  0
   -1.2279   -1.4665    1.7657 C   0  0  0  0  0  0  0  0  0  0  0  0
   -1.5615   -2.3413   -0.4009 C   0  0  0  0  0  0  0  0  0  0  0  0
   -1.0072    1.4941   -2.3719 O   0  0  0  0  0  0  0  0  0  0  0  0
   -0.6204   -3.2347    0.2715 N   0  0  0  0  0  0  0  0  0  0  0  0
   -0.2761   -2.6468    1.5764 C   0  0  0  0  0  0  0  0  0  0  0  0
   -3.8956   -0.4331    0.5475 C   0  0  0  0  0  0  0  0  0  0  0  0
   -0.2464    2.0553   -0.3121 N   0  0  0  0  0  0  0  0  0  0  0  0
   -0.4864    2.2677    1.1030 C   0  0  0  0  0  0  0  0  0  0  0  0
    2.3401    0.1791   -0.4739 C   0  0  0  0  0  0  0  0  0  0  0  0
    2.8002   -2.5309   -1.1075 N   0  0  0  0  0  0  0  0  0  0  0  0
    2.8717    2.0490    0.9397 C   0  0  0  0  0  0  0  0  0  0  0  0
    1.2887    3.4397   -0.5495 H   0  0  0  0  0  0  0  0  0  0  0  0
    1.1315    2.2840   -1.8585 H   0  0  0  0  0  0  0  0  0  0  0  0
    4.3599    1.7190    2.4673 H   0  0  0  0  0  0  0  0  0  0  0  0
    4.6929   -0.6614    1.8746 H   0  0  0  0  0  0  0  0  0  0  0  0
    4.1257   -2.5751    0.4488 H   0  0  0  0  0  0  0  0  0  0  0  0
    1.4445   -2.2629   -2.6496 H   0  0  0  0  0  0  0  0  0  0  0  0
    0.9862    0.0835   -2.1805 H   0  0  0  0  0  0  0  0  0  0  0  0
   -3.4778    2.8861   -1.3462 H   0  0  0  0  0  0  0  0  0  0  0  0
   -5.7045    2.2212   -0.5253 H   0  0  0  0  0  0  0  0  0  0  0  0
   -5.9707    0.0724    0.6893 H   0  0  0  0  0  0  0  0  0  0  0  0
   -0.5336   -0.5185   -0.0073 H   0  0  0  0  0  0  0  0  0  0  0  0
   -0.8104   -0.6932    2.4108 H   0  0  0  0  0  0  0  0  0  0  0  0
   -2.1682   -1.7968    2.2150 H   0  0  0  0  0  0  0  0  0  0  0  0
   -2.5855   -2.7225   -0.3214 H   0  0  0  0  0  0  0  0  0  0  0  0
   -1.3304   -2.2565   -1.4642 H   0  0  0  0  0  0  0  0  0  0  0  0
    0.2155   -3.3275   -0.2861 H   0  0  0  0  0  0  0  0  0  0  0  0
    0.7605   -2.2949    1.5858 H   0  0  0  0  0  0  0  0  0  0  0  0
   -0.3747   -3.3741    2.3858 H   0  0  0  0  0  0  0  0  0  0  0  0
   -4.0315   -1.3733    1.0688 H   0  0  0  0  0  0  0  0  0  0  0  0
   -0.0073    3.1982    1.4080 H   0  0  0  0  0  0  0  0  0  0  0  0
   -1.5479    2.3577    1.3104 H   0  0  0  0  0  0  0  0  0  0  0  0
   -0.0787    1.4610    1.7145 H   0  0  0  0  0  0  0  0  0  0  0  0
    2.7274    3.0835    1.2282 H   0  0  0  0  0  0  0  0  0  0  0  0
  6 25  1  0
  6  5  2  0
  4  5  1  0
  4  3  2  0
 25  7  2  0
  5 24  1  0
  3 26  1  0
  7  8  1  0
 24  8  2  0
 24  2  1  0
 26  2  2  0
  2  1  1  0
 20 16  1  0
 20 19  1  0
  1 22  1  0
 16 15  1  0
 19 17  1  0
 22 23  1  0
 22  9  1  0
 15 17  1  0
 15 14  1  0
 18  9  2  0
  9 10  1  0
 14 10  1  0
 14 21  2  0
 10 11  2  0
 21 13  1  0
 11 12  1  0
 13 12  2  0
  1 27  1  0
  1 28  1  0
  3 29  1  0
  4 30  1  0
  6 31  1  0
  7 32  1  0
  8 33  1  0
 11 34  1  0
 12 35  1  0
 13 36  1  0
 15 37  1  6
 16 38  1  0
 16 39  1  0
 17 40  1  0
 17 41  1  0
 19 42  1  0
 20 43  1  0
 20 44  1  0
 21 45  1  0
 23 46  1  0
 23 47  1  0
 23 48  1  0
 26 49  1  0
M  END
