
     RDKit          3D

 61 65  0  0  0  0  0  0  0  0999 V2000
    1.1491    1.3213   -0.1689 N   0  0  0  0  0  0  0  0  0  0  0  0
    5.0394    0.5610    2.6170 N   0  0  0  0  0  0  0  0  0  0  0  0
   -1.7302   -0.0617   -1.8673 C   0  0  0  0  0  0  0  0  0  0  0  0
    0.0361    1.4344   -0.8393 C   0  0  0  0  0  0  0  0  0  0  0  0
    1.4847   -0.0067   -0.2421 C   0  0  0  0  0  0  0  0  0  0  0  0
    2.5832   -0.6794    0.3009 C   0  0  0  0  0  0  0  0  0  0  0  0
    2.6495   -2.0546    0.0805 C   0  0  0  0  0  0  0  0  0  0  0  0
    0.5766   -2.0694   -1.2093 C   0  0  0  0  0  0  0  0  0  0  0  0
    4.3656    1.1584    0.7095 C   0  0  0  0  0  0  0  0  0  0  0  0
    4.0916   -0.3427    2.3231 C   0  0  0  0  0  0  0  0  0  0  0  0
   -0.4525    3.6278   -0.0041 C   0  0  0  0  0  0  0  0  0  0  0  0
   -0.8040    3.1373   -2.3454 C   0  0  0  0  0  0  0  0  0  0  0  0
   -3.1068    0.3385    0.1956 C   0  0  0  0  0  0  0  0  0  0  0  0
   -3.9401   -0.0804    1.2249 C   0  0  0  0  0  0  0  0  0  0  0  0
   -4.2977   -1.4211    1.2349 C   0  0  0  0  0  0  0  0  0  0  0  0
   -0.3995    0.2436   -1.3697 N   0  0  0  0  0  0  0  0  0  0  0  0
   -3.8803   -2.3450    0.2922 C   0  0  0  0  0  0  0  0  0  0  0  0
    0.5210   -0.7023   -0.9890 C   0  0  0  0  0  0  0  0  0  0  0  0
    3.6137    0.0126    1.0732 C   0  0  0  0  0  0  0  0  0  0  0  0
    3.7154   -1.4457    3.2458 C   0  0  0  0  0  0  0  0  0  0  0  0
   -1.5885    4.6320   -0.0664 C   0  0  0  0  0  0  0  0  0  0  0  0
   -1.9364    4.1434   -2.3802 C   0  0  0  0  0  0  0  0  0  0  0  0
   -3.0423   -1.8765   -0.7170 C   0  0  0  0  0  0  0  0  0  0  0  0
   -4.4385    0.8642    2.2769 C   0  0  0  0  0  0  0  0  0  0  0  0
   -2.6482   -0.5471   -0.7750 C   0  0  0  0  0  0  0  0  0  0  0  0
    1.6638   -2.7180   -0.6488 C   0  0  0  0  0  0  0  0  0  0  0  0
    5.2264    1.4693    1.6594 N   0  0  0  0  0  0  0  0  0  0  0  0
   -0.6923    2.5860   -0.9935 N   0  0  0  0  0  0  0  0  0  0  0  0
   -1.6826    5.1846   -1.4036 N   0  0  0  0  0  0  0  0  0  0  0  0
    1.8149   -4.4349   -0.8751 Cl  0  0  0  0  0  0  0  0  0  0  0  0
    5.5862    0.6083    3.4620 H   0  0  0  0  0  0  0  0  0  0  0  0
   -2.1407    0.8299   -2.3344 H   0  0  0  0  0  0  0  0  0  0  0  0
   -1.6369   -0.8086   -2.6563 H   0  0  0  0  0  0  0  0  0  0  0  0
    3.4910   -2.6153    0.4663 H   0  0  0  0  0  0  0  0  0  0  0  0
   -0.1698   -2.6064   -1.7774 H   0  0  0  0  0  0  0  0  0  0  0  0
    0.5054    4.1337   -0.1799 H   0  0  0  0  0  0  0  0  0  0  0  0
   -0.4131    3.1777    0.9872 H   0  0  0  0  0  0  0  0  0  0  0  0
   -0.9902    2.3452   -3.0696 H   0  0  0  0  0  0  0  0  0  0  0  0
    0.1367    3.6253   -2.6336 H   0  0  0  0  0  0  0  0  0  0  0  0
   -2.8161    1.3820    0.1475 H   0  0  0  0  0  0  0  0  0  0  0  0
   -5.4007   -3.8724    0.2810 H   0  0  0  0  0  0  0  0  0  0  0  0
   -3.8734   -4.3522   -0.4491 H   0  0  0  0  0  0  0  0  0  0  0  0
   -4.0205   -4.2445    1.3021 H   0  0  0  0  0  0  0  0  0  0  0  0
    4.3055    1.2932   -1.4261 H   0  0  0  0  0  0  0  0  0  0  0  0
    3.3655    2.5196   -0.6005 H   0  0  0  0  0  0  0  0  0  0  0  0
    5.1328    2.6328   -0.6263 H   0  0  0  0  0  0  0  0  0  0  0  0
    3.7166   -1.1108    4.2832 H   0  0  0  0  0  0  0  0  0  0  0  0
    2.7193   -1.8167    3.0119 H   0  0  0  0  0  0  0  0  0  0  0  0
    4.4077   -2.2858    3.1708 H   0  0  0  0  0  0  0  0  0  0  0  0
   -2.5163    4.1306    0.2546 H   0  0  0  0  0  0  0  0  0  0  0  0
   -1.3900    5.4357    0.6447 H   0  0  0  0  0  0  0  0  0  0  0  0
   -1.9899    4.5859   -3.3763 H   0  0  0  0  0  0  0  0  0  0  0  0
   -2.8838    3.6095   -2.2035 H   0  0  0  0  0  0  0  0  0  0  0  0
   -2.7003   -2.5728   -1.4746 H   0  0  0  0  0  0  0  0  0  0  0  0
   -4.0884    0.5804    3.2702 H   0  0  0  0  0  0  0  0  0  0  0  0
   -4.0878    1.8758    2.0794 H   0  0  0  0  0  0  0  0  0  0  0  0
   -5.5280    0.8919    2.3130 H   0  0  0  0  0  0  0  0  0  0  0  0
   -2.4190    5.8764   -1.4395 H   0  0  0  0  0  0  0  0  0  0  0  0
    4.2909    1.9458   -0.5521 C   0  0  0  0  0  0  0  0  0  0  0  0
   -5.1092   -1.8489    2.2216 F   0  0  0  0  0  0  0  0  0  0  0  0
   -4.3169   -3.7774    0.3620 C   0  0  0  0  0  0  0  0  0  0  0  0
 24 14  1  0
 29 21  1  0
 29 22  1  0
 60 15  1  0
 21 11  1  0
 14 15  1  0
 14 13  2  0
 22 12  1  0
 15 17  2  0
 13 25  1  0
 11 28  1  0
 17 61  1  0
 17 23  1  0
 12 28  1  0
 28  4  1  0
 25 23  2  0
 25  3  1  0
  3 16  1  0
  4 16  1  0
  4  1  2  0
 16 18  1  0
  1  5  1  0
 59  9  1  0
 18  5  2  0
 18  8  1  0
  5  6  1  0
  8 26  2  0
  9 27  2  0
  9 19  1  0
 27  2  1  0
  6 19  1  0
  6  7  2  0
 19 10  2  0
 26  7  1  0
 26 30  1  0
  2 10  1  0
 10 20  1  0
  2 31  1  0
  3 32  1  0
  3 33  1  0
  7 34  1  0
  8 35  1  0
 11 36  1  0
 11 37  1  0
 12 38  1  0
 12 39  1  0
 13 40  1  0
 61 41  1  0
 61 42  1  0
 61 43  1  0
 59 44  1  0
 59 45  1  0
 59 46  1  0
 20 47  1  0
 20 48  1  0
 20 49  1  0
 21 50  1  0
 21 51  1  0
 22 52  1  0
 22 53  1  0
 23 54  1  0
 24 55  1  0
 24 56  1  0
 24 57  1  0
 29 58  1  0
M  END
