
     RDKit          3D

 51 54  0  0  0  0  0  0  0  0999 V2000
   -1.1675   -1.5383    1.8551 O   0  0  0  0  0  0  0  0  0  0  0  0
   -0.8772   -1.4380    0.6710 C   0  0  0  0  0  0  0  0  0  0  0  0
    0.5355   -1.1039    0.2330 C   0  0  0  0  0  0  0  0  0  0  0  0
    1.5264   -1.0852    1.3933 C   0  0  0  0  0  0  0  0  0  0  0  0
    2.9133   -0.7743    0.9099 C   0  0  0  0  0  0  0  0  0  0  0  0
    3.3223    0.5299    0.6266 C   0  0  0  0  0  0  0  0  0  0  0  0
    4.5929    0.7803    0.1503 C   0  0  0  0  0  0  0  0  0  0  0  0
    5.1123    2.1284   -0.2415 C   0  0  0  0  0  0  0  0  0  0  0  0
    6.6037    2.2311    0.0539 C   0  0  0  0  0  0  0  0  0  0  0  0
    3.8407   -1.7788    0.6842 C   0  0  0  0  0  0  0  0  0  0  0  0
    5.0771   -1.5668    0.2416 N   0  0  0  0  0  0  0  0  0  0  0  0
    5.4356   -0.3232   -0.0094 C   0  0  0  0  0  0  0  0  0  0  0  0
    6.7303   -0.1290   -0.4781 N   0  0  0  0  0  0  0  0  0  0  0  0
    7.3896    1.0636   -0.4888 C   0  0  0  0  0  0  0  0  0  0  0  0
    8.5404    1.1479   -0.8740 O   0  0  0  0  0  0  0  0  0  0  0  0
   -1.7877   -1.6239   -0.3123 N   0  0  0  0  0  0  0  0  0  0  0  0
   -1.4894   -1.5212   -1.7266 C   0  0  0  0  0  0  0  0  0  0  0  0
   -3.1443   -2.0237    0.0185 C   0  0  0  0  0  0  0  0  0  0  0  0
   -4.1140   -0.9102   -0.1493 C   0  0  0  0  0  0  0  0  0  0  0  0
   -3.9809    0.1407    0.7141 O   0  0  0  0  0  0  0  0  0  0  0  0
   -4.9313    1.0404    0.3854 C   0  0  0  0  0  0  0  0  0  0  0  0
   -5.6837    0.5686   -0.6905 C   0  0  0  0  0  0  0  0  0  0  0  0
   -5.1234   -0.7150   -1.0296 C   0  0  0  0  0  0  0  0  0  0  0  0
   -5.5823   -1.6060   -2.1303 C   0  0  0  0  0  0  0  0  0  0  0  0
   -5.1590    2.2602    0.9979 C   0  0  0  0  0  0  0  0  0  0  0  0
   -6.1982    3.0224    0.4844 C   0  0  0  0  0  0  0  0  0  0  0  0
   -6.9696    2.5746   -0.5955 C   0  0  0  0  0  0  0  0  0  0  0  0
   -6.7240    1.3494   -1.1929 C   0  0  0  0  0  0  0  0  0  0  0  0
    0.8689   -1.8210   -0.5224 H   0  0  0  0  0  0  0  0  0  0  0  0
    0.5321   -0.1301   -0.2682 H   0  0  0  0  0  0  0  0  0  0  0  0
    1.2194   -0.3475    2.1365 H   0  0  0  0  0  0  0  0  0  0  0  0
    1.5258   -2.0548    1.8950 H   0  0  0  0  0  0  0  0  0  0  0  0
    2.6359    1.3576    0.7720 H   0  0  0  0  0  0  0  0  0  0  0  0
    4.9392    2.2833   -1.3114 H   0  0  0  0  0  0  0  0  0  0  0  0
    4.5718    2.9182    0.2797 H   0  0  0  0  0  0  0  0  0  0  0  0
    7.0240    3.1511   -0.3489 H   0  0  0  0  0  0  0  0  0  0  0  0
    6.7682    2.2514    1.1369 H   0  0  0  0  0  0  0  0  0  0  0  0
    3.5749   -2.8137    0.8764 H   0  0  0  0  0  0  0  0  0  0  0  0
    7.2557   -0.9599   -0.7171 H   0  0  0  0  0  0  0  0  0  0  0  0
   -1.1780   -2.4796   -2.1479 H   0  0  0  0  0  0  0  0  0  0  0  0
   -2.3824   -1.1913   -2.2565 H   0  0  0  0  0  0  0  0  0  0  0  0
   -0.7165   -0.7845   -1.9252 H   0  0  0  0  0  0  0  0  0  0  0  0
   -3.4405   -2.8507   -0.6301 H   0  0  0  0  0  0  0  0  0  0  0  0
   -3.1683   -2.4014    1.0401 H   0  0  0  0  0  0  0  0  0  0  0  0
   -5.6144   -1.0668   -3.0781 H   0  0  0  0  0  0  0  0  0  0  0  0
   -4.9255   -2.4646   -2.2603 H   0  0  0  0  0  0  0  0  0  0  0  0
   -6.5882   -1.9841   -1.9403 H   0  0  0  0  0  0  0  0  0  0  0  0
   -4.5612    2.6045    1.8316 H   0  0  0  0  0  0  0  0  0  0  0  0
   -6.4163    3.9850    0.9277 H   0  0  0  0  0  0  0  0  0  0  0  0
   -7.7700    3.2005   -0.9680 H   0  0  0  0  0  0  0  0  0  0  0  0
   -7.3224    1.0087   -2.0285 H   0  0  0  0  0  0  0  0  0  0  0  0
 24 23  1  0
 17 16  1  0
 28 22  1  0
 28 27  2  0
 23 22  1  0
 23 19  2  0
 22 21  2  0
 27 26  1  0
 18 19  1  0
 18 16  1  0
 19 20  1  0
 16  2  1  0
 21 20  1  0
 21 25  1  0
 26 25  2  0
  1  2  2  0
  2  3  1  0
  3  4  1  0
  4  5  1  0
  5  6  2  0
  5 10  1  0
  6  7  1  0
 10 11  2  0
  7  8  1  0
  7 12  2  0
  8  9  1  0
 11 12  1  0
 12 13  1  0
  9 14  1  0
 13 14  1  0
 14 15  2  0
  3 29  1  0
  3 30  1  0
  4 31  1  0
  4 32  1  0
  6 33  1  0
  8 34  1  0
  8 35  1  0
  9 36  1  0
  9 37  1  0
 10 38  1  0
 13 39  1  0
 17 40  1  0
 17 41  1  0
 17 42  1  0
 18 43  1  0
 18 44  1  0
 24 45  1  0
 24 46  1  0
 24 47  1  0
 25 48  1  0
 26 49  1  0
 27 50  1  0
 28 51  1  0
M  END
