
     RDKit          3D

 24 25  0  0  0  0  0  0  0  0999 V2000
   -1.3348    0.1155   -0.0911 C   0  0  0  0  0  0  0  0  0  0  0  0
   -0.9317    0.3785   -1.5061 C   0  0  1  0  0  0  0  0  0  0  0  0
    0.4371   -0.2584   -1.7286 C   0  0  2  0  0  0  0  0  0  0  0  0
    1.4041    0.2029   -0.6345 C   0  0  1  0  0  0  0  0  0  0  0  0
    0.9890   -0.2951    0.7552 C   0  0  1  0  0  0  0  0  0  0  0  0
    1.7277    0.4687    1.8434 C   0  0  0  0  0  0  0  0  0  0  0  0
   -0.4584   -0.1555    0.8777 N   0  0  0  0  0  0  0  0  0  0  0  0
   -1.1320   -0.3559    2.0020 N   0  0  0  0  0  0  0  0  0  0  0  0
   -2.3649   -0.2011    1.7193 N   0  0  0  0  0  0  0  0  0  0  0  0
   -2.5341    0.0932    0.4302 N   0  0  0  0  0  0  0  0  0  0  0  0
   -1.8450   -0.1645   -2.4134 O   0  0  0  0  0  0  0  0  0  0  0  0
    0.9872    0.1391   -2.9543 O   0  0  0  0  0  0  0  0  0  0  0  0
    2.6918   -0.3008   -0.8512 O   0  0  0  0  0  0  0  0  0  0  0  0
    1.5903   -0.2052    3.0665 O   0  0  0  0  0  0  0  0  0  0  0  0
   -0.8288    1.4646   -1.6366 H   0  0  0  0  0  0  0  0  0  0  0  0
    0.3331   -1.3523   -1.6699 H   0  0  0  0  0  0  0  0  0  0  0  0
    1.4066    1.3054   -0.6260 H   0  0  0  0  0  0  0  0  0  0  0  0
    1.2241   -1.3615    0.8256 H   0  0  0  0  0  0  0  0  0  0  0  0
    1.3362    1.4935    1.8835 H   0  0  0  0  0  0  0  0  0  0  0  0
    2.7769    0.5341    1.5369 H   0  0  0  0  0  0  0  0  0  0  0  0
   -2.6054    0.4214   -2.4808 H   0  0  0  0  0  0  0  0  0  0  0  0
    0.5888   -0.3796   -3.6595 H   0  0  0  0  0  0  0  0  0  0  0  0
    3.0105    0.0425   -1.6928 H   0  0  0  0  0  0  0  0  0  0  0  0
    2.1271    0.2520    3.7204 H   0  0  0  0  0  0  0  0  0  0  0  0
  1  2  1  0
  1  7  1  0
  1 10  2  0
  2  3  1  0
  2 11  1  0
  2 15  1  1
  3  4  1  0
  3 12  1  0
  3 16  1  6
  4  5  1  0
  4 13  1  0
  4 17  1  1
  5  6  1  0
  5  7  1  0
  5 18  1  6
  6 14  1  0
  6 19  1  0
  6 20  1  0
  7  8  1  0
  8  9  2  0
  9 10  1  0
 11 21  1  0
 12 22  1  0
 13 23  1  0
 14 24  1  0
M  END
