
     RDKit          3D

123126  0  0  0  0  0  0  0  0999 V2000
    5.5881   -0.5774    1.9101 N   0  0  0  0  0  0  0  0  0  0  0  0
    4.4618   -1.3348    1.8069 C   0  0  0  0  0  0  0  0  0  0  0  0
    4.2678   -2.3316    2.4905 O   0  0  0  0  0  0  0  0  0  0  0  0
    6.5010   -0.7805    3.0195 C   0  0  0  0  0  0  0  0  0  0  0  0
    7.7866   -1.4471    2.5629 C   0  0  0  0  0  0  0  0  0  0  0  0
    8.4030   -0.6737    1.5029 N   0  0  0  0  0  0  0  0  0  0  0  0
    9.6712   -1.2358    1.0984 C   0  0  0  0  0  0  0  0  0  0  0  0
    7.4956   -0.5408    0.3829 C   0  0  0  0  0  0  0  0  0  0  0  0
    6.1983    0.1363    0.8003 C   0  0  0  0  0  0  0  0  0  0  0  0
    3.1190    0.4877    0.8453 C   0  0  0  0  0  0  0  0  0  0  0  0
    2.6301    0.8227   -0.5372 C   0  0  0  0  0  0  0  0  0  0  0  0
    3.5375   -0.9021    0.8675 N   0  0  0  0  0  0  0  0  0  0  0  0
    2.4766   -1.8381    0.5353 C   0  0  1  0  0  0  0  0  0  0  0  0
    1.3186   -1.2139   -0.2385 C   0  0  0  0  0  0  0  0  0  0  0  0
    0.2764   -1.8426   -0.3047 O   0  0  0  0  0  0  0  0  0  0  0  0
    3.0435   -2.9797   -0.3428 C   0  0  0  0  0  0  0  0  0  0  0  0
    2.1641   -4.1951   -0.4140 C   0  0  0  0  0  0  0  0  0  0  0  0
    1.5049   -4.5586   -1.5833 C   0  0  0  0  0  0  0  0  0  0  0  0
    0.7130   -5.6984   -1.6317 C   0  0  0  0  0  0  0  0  0  0  0  0
    0.5651   -6.4925   -0.5029 C   0  0  0  0  0  0  0  0  0  0  0  0
    1.2201   -6.1410    0.6715 C   0  0  0  0  0  0  0  0  0  0  0  0
    2.0149   -5.0048    0.7112 C   0  0  0  0  0  0  0  0  0  0  0  0
    0.5271    0.5149   -1.7682 C   0  0  2  0  0  0  0  0  0  0  0  0
    1.5431   -0.0668   -0.9157 N   0  0  0  0  0  0  0  0  0  0  0  0
   -0.5328    1.2076   -0.8988 C   0  0  0  0  0  0  0  0  0  0  0  0
   -0.5585    1.0667    0.3112 O   0  0  0  0  0  0  0  0  0  0  0  0
   -0.0694   -0.4275   -2.8222 C   0  0  0  0  0  0  0  0  0  0  0  0
    0.9949   -1.1450   -3.6407 C   0  0  0  0  0  0  0  0  0  0  0  0
    0.3966   -2.1077   -4.6587 C   0  0  0  0  0  0  0  0  0  0  0  0
    1.4582   -2.8479   -5.4603 C   0  0  0  0  0  0  0  0  0  0  0  0
   -3.7774    2.5195   -1.2854 C   0  0  1  0  0  0  0  0  0  0  0  0
   -2.3294    2.9032   -0.9521 C   0  0  2  0  0  0  0  0  0  0  0  0
   -1.9962    4.3497   -1.3202 C   0  0  0  0  0  0  0  0  0  0  0  0
   -0.5867    4.7900   -0.9255 C   0  0  1  0  0  0  0  0  0  0  0  0
   -0.2881    6.2022   -1.4338 C   0  0  0  0  0  0  0  0  0  0  0  0
    1.1294    6.6437   -1.0815 C   0  0  0  0  0  0  0  0  0  0  0  0
    1.3868    6.5534    0.4190 C   0  0  0  0  0  0  0  0  0  0  0  0
    1.0768    5.1563    0.9441 C   0  0  0  0  0  0  0  0  0  0  0  0
   -0.3403    4.7239    0.5822 C   0  0  0  0  0  0  0  0  0  0  0  0
   -1.3873    1.9926   -1.5814 N   0  0  0  0  0  0  0  0  0  0  0  0
   -4.0732    2.7258   -2.6532 O   0  0  0  0  0  0  0  0  0  0  0  0
   -4.0933    1.0993   -0.8117 C   0  0  0  0  0  0  0  0  0  0  0  0
   -5.5657    0.8537   -0.4638 C   0  0  2  0  0  0  0  0  0  0  0  0
   -5.6940   -0.5074    0.2019 C   0  0  0  0  0  0  0  0  0  0  0  0
   -5.2134   -1.5225   -0.2895 O   0  0  0  0  0  0  0  0  0  0  0  0
   -6.5641    1.0055   -1.6325 C   0  0  1  0  0  0  0  0  0  0  0  0
   -6.3101    0.0715   -2.8112 C   0  0  0  0  0  0  0  0  0  0  0  0
   -8.0059    0.8618   -1.1497 C   0  0  0  0  0  0  0  0  0  0  0  0
   -6.6298   -1.6981    2.1532 C   0  0  0  0  0  0  0  0  0  0  0  0
   -6.3687   -0.5145    1.3625 N   0  0  0  0  0  0  0  0  0  0  0  0
   -7.9374   -1.5604    2.9182 C   0  0  0  0  0  0  0  0  0  0  0  0
   -8.2116   -2.7593    3.8164 C   0  0  0  0  0  0  0  0  0  0  0  0
   -9.5208   -2.6268    4.5818 C   0  0  0  0  0  0  0  0  0  0  0  0
    6.7375    0.1974    3.4508 H   0  0  0  0  0  0  0  0  0  0  0  0
    6.0194   -1.3759    3.7906 H   0  0  0  0  0  0  0  0  0  0  0  0
    8.4765   -1.5091    3.4079 H   0  0  0  0  0  0  0  0  0  0  0  0
    7.5685   -2.4807    2.2415 H   0  0  0  0  0  0  0  0  0  0  0  0
    9.5869   -2.2588    0.6999 H   0  0  0  0  0  0  0  0  0  0  0  0
   10.1246   -0.6137    0.3254 H   0  0  0  0  0  0  0  0  0  0  0  0
   10.3541   -1.2649    1.9485 H   0  0  0  0  0  0  0  0  0  0  0  0
    7.9688    0.0652   -0.3936 H   0  0  0  0  0  0  0  0  0  0  0  0
    7.2554   -1.5200   -0.0691 H   0  0  0  0  0  0  0  0  0  0  0  0
    5.5318    0.1568   -0.0578 H   0  0  0  0  0  0  0  0  0  0  0  0
    6.3983    1.1706    1.0960 H   0  0  0  0  0  0  0  0  0  0  0  0
    3.9373    1.1496    1.1146 H   0  0  0  0  0  0  0  0  0  0  0  0
    2.3152    0.6641    1.5720 H   0  0  0  0  0  0  0  0  0  0  0  0
    2.2604    1.8501   -0.5359 H   0  0  0  0  0  0  0  0  0  0  0  0
    3.4474    0.7694   -1.2626 H   0  0  0  0  0  0  0  0  0  0  0  0
    2.0380   -2.2650    1.4428 H   0  0  0  0  0  0  0  0  0  0  0  0
    3.2528   -2.5904   -1.3422 H   0  0  0  0  0  0  0  0  0  0  0  0
    4.0058   -3.2750    0.0776 H   0  0  0  0  0  0  0  0  0  0  0  0
    1.6074   -3.9456   -2.4709 H   0  0  0  0  0  0  0  0  0  0  0  0
    0.2096   -5.9651   -2.5525 H   0  0  0  0  0  0  0  0  0  0  0  0
   -0.0524   -7.3808   -0.5377 H   0  0  0  0  0  0  0  0  0  0  0  0
    1.1157   -6.7565    1.5561 H   0  0  0  0  0  0  0  0  0  0  0  0
    2.5321   -4.7395    1.6270 H   0  0  0  0  0  0  0  0  0  0  0  0
    1.0388    1.3031   -2.3317 H   0  0  0  0  0  0  0  0  0  0  0  0
   -0.7393   -1.1488   -2.3587 H   0  0  0  0  0  0  0  0  0  0  0  0
   -0.6792    0.1737   -3.5018 H   0  0  0  0  0  0  0  0  0  0  0  0
    1.6245   -0.4095   -4.1531 H   0  0  0  0  0  0  0  0  0  0  0  0
    1.6629   -1.7004   -2.9769 H   0  0  0  0  0  0  0  0  0  0  0  0
   -0.2385   -2.8312   -4.1367 H   0  0  0  0  0  0  0  0  0  0  0  0
   -0.2631   -1.5605   -5.3389 H   0  0  0  0  0  0  0  0  0  0  0  0
    2.0869   -2.1536   -6.0201 H   0  0  0  0  0  0  0  0  0  0  0  0
    2.1141   -3.4272   -4.8068 H   0  0  0  0  0  0  0  0  0  0  0  0
    1.0100   -3.5403   -6.1737 H   0  0  0  0  0  0  0  0  0  0  0  0
   -4.4157    3.2225   -0.7377 H   0  0  0  0  0  0  0  0  0  0  0  0
   -2.2213    2.7776    0.1250 H   0  0  0  0  0  0  0  0  0  0  0  0
   -2.1269    4.4866   -2.3984 H   0  0  0  0  0  0  0  0  0  0  0  0
   -2.7307    5.0028   -0.8362 H   0  0  0  0  0  0  0  0  0  0  0  0
    0.1299    4.1161   -1.4146 H   0  0  0  0  0  0  0  0  0  0  0  0
   -0.4371    6.2477   -2.5169 H   0  0  0  0  0  0  0  0  0  0  0  0
   -1.0074    6.9030   -0.9921 H   0  0  0  0  0  0  0  0  0  0  0  0
    1.8470    6.0055   -1.6088 H   0  0  0  0  0  0  0  0  0  0  0  0
    1.3051    7.6627   -1.4357 H   0  0  0  0  0  0  0  0  0  0  0  0
    2.4213    6.8252    0.6434 H   0  0  0  0  0  0  0  0  0  0  0  0
    0.7549    7.2822    0.9384 H   0  0  0  0  0  0  0  0  0  0  0  0
    1.7896    4.4417    0.5154 H   0  0  0  0  0  0  0  0  0  0  0  0
    1.2160    5.1174    2.0274 H   0  0  0  0  0  0  0  0  0  0  0  0
   -1.0622    5.3780    1.0870 H   0  0  0  0  0  0  0  0  0  0  0  0
   -0.5164    3.7160    0.9628 H   0  0  0  0  0  0  0  0  0  0  0  0
   -1.1994    2.1438   -2.5614 H   0  0  0  0  0  0  0  0  0  0  0  0
   -3.7273    1.9844   -3.1602 H   0  0  0  0  0  0  0  0  0  0  0  0
   -3.7380    0.3700   -1.5452 H   0  0  0  0  0  0  0  0  0  0  0  0
   -3.5071    0.9051    0.0917 H   0  0  0  0  0  0  0  0  0  0  0  0
   -5.8416    1.6186    0.2721 H   0  0  0  0  0  0  0  0  0  0  0  0
   -6.4446    2.0303   -1.9931 H   0  0  0  0  0  0  0  0  0  0  0  0
   -6.5063   -0.9696   -2.5548 H   0  0  0  0  0  0  0  0  0  0  0  0
   -6.9689    0.3360   -3.6402 H   0  0  0  0  0  0  0  0  0  0  0  0
   -5.2868    0.1338   -3.1805 H   0  0  0  0  0  0  0  0  0  0  0  0
   -8.2166    1.5204   -0.3048 H   0  0  0  0  0  0  0  0  0  0  0  0
   -8.7029    1.1191   -1.9488 H   0  0  0  0  0  0  0  0  0  0  0  0
   -8.2311   -0.1604   -0.8382 H   0  0  0  0  0  0  0  0  0  0  0  0
   -6.6756   -2.5613    1.4888 H   0  0  0  0  0  0  0  0  0  0  0  0
   -5.8060   -1.8774    2.8530 H   0  0  0  0  0  0  0  0  0  0  0  0
   -6.6936    0.3654    1.7298 H   0  0  0  0  0  0  0  0  0  0  0  0
   -7.9106   -0.6511    3.5289 H   0  0  0  0  0  0  0  0  0  0  0  0
   -8.7583   -1.4346    2.2053 H   0  0  0  0  0  0  0  0  0  0  0  0
   -8.2291   -3.6714    3.2125 H   0  0  0  0  0  0  0  0  0  0  0  0
   -7.3864   -2.8777    4.5250 H   0  0  0  0  0  0  0  0  0  0  0  0
   -9.6893   -3.4856    5.2325 H   0  0  0  0  0  0  0  0  0  0  0  0
   -9.5207   -1.7325    5.2075 H   0  0  0  0  0  0  0  0  0  0  0  0
  -10.3724   -2.5538    3.9031 H   0  0  0  0  0  0  0  0  0  0  0  0
  1  2  1  0
  1  4  1  0
  1  9  1  0
  2  3  2  0
  4  5  1  0
  4 54  1  0
  4 55  1  0
  5  6  1  0
  5 56  1  0
  5 57  1  0
  6  7  1  0
  6  8  1  0
  7 58  1  0
  7 59  1  0
  7 60  1  0
  8  9  1  0
  8 61  1  0
  8 62  1  0
  9 63  1  0
  9 64  1  0
 10 11  1  0
 10 12  1  0
 10 65  1  0
 10 66  1  0
 11 67  1  0
 11 68  1  0
 24 11  1  0
 12 13  1  0
 13 14  1  0
 13 16  1  0
 13 69  1  1
 14 15  2  0
 16 17  1  0
 16 70  1  0
 16 71  1  0
 17 18  2  0
 17 22  1  0
 18 19  1  0
 18 72  1  0
 19 20  2  0
 19 73  1  0
 20 21  1  0
 20 74  1  0
 21 22  2  0
 21 75  1  0
 22 76  1  0
 23 24  1  0
 23 25  1  0
 23 27  1  0
 23 77  1  6
 25 26  2  0
 27 28  1  0
 27 78  1  0
 27 79  1  0
 28 29  1  0
 28 80  1  0
 28 81  1  0
 29 30  1  0
 29 82  1  0
 29 83  1  0
 30 84  1  0
 30 85  1  0
 30 86  1  0
 31 32  1  0
 31 41  1  0
 31 87  1  1
 32 33  1  0
 32 40  1  0
 32 88  1  1
 33 34  1  0
 33 89  1  0
 33 90  1  0
 34 35  1  0
 34 39  1  0
 34 91  1  6
 35 36  1  0
 35 92  1  0
 35 93  1  0
 36 37  1  0
 36 94  1  0
 36 95  1  0
 37 38  1  0
 37 96  1  0
 37 97  1  0
 38 39  1  0
 38 98  1  0
 38 99  1  0
 39100  1  0
 39101  1  0
 40102  1  0
 41103  1  0
 42 43  1  0
 42104  1  0
 42105  1  0
 43 44  1  0
 43 46  1  0
 43106  1  1
 44 45  2  0
 46 47  1  0
 46 48  1  0
 46107  1  6
 47108  1  0
 47109  1  0
 47110  1  0
 48111  1  0
 48112  1  0
 48113  1  0
 49 50  1  0
 49 51  1  0
 49114  1  0
 49115  1  0
 50116  1  0
 51 52  1  0
 51117  1  0
 51118  1  0
 52 53  1  0
 52119  1  0
 52120  1  0
 53121  1  0
 53122  1  0
 53123  1  0
  2 12  1  0
 14 24  1  0
 25 40  1  0
 31 42  1  0
 44 50  1  0
M  END
