
     RDKit          3D

 72 74  0  0  0  0  0  0  0  0999 V2000
   -2.4847   -0.4731    2.9476 S   0  0  1  0  0  0  0  0  0  0  0  0
   -2.3619   -1.8489    2.2602 N   0  0  0  0  0  0  0  0  0  0  0  0
   -2.3844   -0.6896    4.4693 N   0  0  0  0  0  0  0  0  0  0  0  0
   -1.3015    0.7295    2.2618 C   0  0  0  0  0  0  0  0  0  0  0  0
    0.1695    0.3616    2.4730 C   0  0  2  0  0  0  0  0  0  0  0  0
    0.5443   -0.9605    1.8019 C   0  0  0  0  0  0  0  0  0  0  0  0
    1.0301   -1.8972    2.4065 O   0  0  0  0  0  0  0  0  0  0  0  0
    0.3496   -0.9846    0.4604 N   0  0  0  0  0  0  0  0  0  0  0  0
    0.5889   -2.1471   -0.3587 C   0  0  2  0  0  0  0  0  0  0  0  0
    1.9849   -2.1875   -0.9970 C   0  0  0  0  0  0  0  0  0  0  0  0
    2.2895   -3.1417   -1.7008 O   0  0  0  0  0  0  0  0  0  0  0  0
    2.8028   -1.1648   -0.7233 N   0  0  0  0  0  0  0  0  0  0  0  0
    4.2072   -1.1162   -1.0824 C   0  0  0  0  0  0  0  0  0  0  0  0
    4.6718    0.2208   -1.6531 C   0  0  0  0  0  0  0  0  0  0  0  0
    4.1753    0.5331   -3.0655 C   0  0  0  0  0  0  0  0  0  0  0  0
    2.7817    1.1550   -3.1317 C   0  0  0  0  0  0  0  0  0  0  0  0
    2.1741    1.0567   -4.5292 C   0  0  0  0  0  0  0  0  0  0  0  0
    0.6917    1.3989   -4.5993 C   0  0  0  0  0  0  0  0  0  0  0  0
   -0.1020    0.6028   -3.6772 N   0  0  0  0  0  0  0  0  0  0  0  0
    0.6287    0.3951    3.9305 C   0  0  0  0  0  0  0  0  0  0  0  0
    0.3221    1.6923    4.6807 C   0  0  1  0  0  0  0  0  0  0  0  0
    0.7823    1.5591    6.1288 C   0  0  0  0  0  0  0  0  0  0  0  0
    0.9593    2.9123    4.0233 C   0  0  0  0  0  0  0  0  0  0  0  0
   -0.5067   -2.2952   -1.4312 C   0  0  0  0  0  0  0  0  0  0  0  0
   -0.6481   -1.0655   -2.2661 C   0  0  0  0  0  0  0  0  0  0  0  0
    0.1944   -0.6668   -3.2652 C   0  0  0  0  0  0  0  0  0  0  0  0
   -1.5566    0.0225   -2.0633 C   0  0  0  0  0  0  0  0  0  0  0  0
   -1.1740    1.0501   -2.9566 C   0  0  0  0  0  0  0  0  0  0  0  0
   -2.6633    0.2235   -1.2290 C   0  0  0  0  0  0  0  0  0  0  0  0
   -1.8517    2.2680   -3.0114 C   0  0  0  0  0  0  0  0  0  0  0  0
   -3.3358    1.4285   -1.2821 C   0  0  0  0  0  0  0  0  0  0  0  0
   -2.9259    2.4444   -2.1605 C   0  0  0  0  0  0  0  0  0  0  0  0
   -4.0185    0.3744    2.5292 C   0  0  0  0  0  0  0  0  0  0  0  0
   -2.3053   -1.7497    1.2530 H   0  0  0  0  0  0  0  0  0  0  0  0
   -2.5626    0.1764    4.9671 H   0  0  0  0  0  0  0  0  0  0  0  0
   -1.5275    1.6952    2.7169 H   0  0  0  0  0  0  0  0  0  0  0  0
   -1.5529    0.8310    1.2018 H   0  0  0  0  0  0  0  0  0  0  0  0
    0.7202    1.1360    1.9241 H   0  0  0  0  0  0  0  0  0  0  0  0
   -0.0056   -0.1578    0.0022 H   0  0  0  0  0  0  0  0  0  0  0  0
    0.5446   -3.0247    0.2908 H   0  0  0  0  0  0  0  0  0  0  0  0
    2.4668   -0.4497   -0.0981 H   0  0  0  0  0  0  0  0  0  0  0  0
    4.3967   -1.9071   -1.8066 H   0  0  0  0  0  0  0  0  0  0  0  0
    4.8019   -1.3479   -0.1940 H   0  0  0  0  0  0  0  0  0  0  0  0
    5.7634    0.1776   -1.6623 H   0  0  0  0  0  0  0  0  0  0  0  0
    4.4158    1.0342   -0.9658 H   0  0  0  0  0  0  0  0  0  0  0  0
    4.1850   -0.3928   -3.6516 H   0  0  0  0  0  0  0  0  0  0  0  0
    4.8867    1.2006   -3.5591 H   0  0  0  0  0  0  0  0  0  0  0  0
    2.8256    2.2013   -2.8154 H   0  0  0  0  0  0  0  0  0  0  0  0
    2.1350    0.6498   -2.4133 H   0  0  0  0  0  0  0  0  0  0  0  0
    2.3350    0.0493   -4.9244 H   0  0  0  0  0  0  0  0  0  0  0  0
    2.6953    1.7244   -5.2196 H   0  0  0  0  0  0  0  0  0  0  0  0
    0.3270    1.2660   -5.6206 H   0  0  0  0  0  0  0  0  0  0  0  0
    0.5424    2.4469   -4.3368 H   0  0  0  0  0  0  0  0  0  0  0  0
    1.7117    0.2402    3.9477 H   0  0  0  0  0  0  0  0  0  0  0  0
    0.1836   -0.4375    4.4739 H   0  0  0  0  0  0  0  0  0  0  0  0
   -0.7634    1.8433    4.7040 H   0  0  0  0  0  0  0  0  0  0  0  0
    0.5515    2.4590    6.7009 H   0  0  0  0  0  0  0  0  0  0  0  0
    0.2938    0.7166    6.6217 H   0  0  0  0  0  0  0  0  0  0  0  0
    1.8614    1.3965    6.1850 H   0  0  0  0  0  0  0  0  0  0  0  0
    2.0446    2.7985    3.9633 H   0  0  0  0  0  0  0  0  0  0  0  0
    0.5903    3.0840    3.0103 H   0  0  0  0  0  0  0  0  0  0  0  0
    0.7524    3.8170    4.5974 H   0  0  0  0  0  0  0  0  0  0  0  0
   -0.2693   -3.1653   -2.0432 H   0  0  0  0  0  0  0  0  0  0  0  0
   -1.4482   -2.5289   -0.9294 H   0  0  0  0  0  0  0  0  0  0  0  0
    1.0151   -1.2158   -3.7004 H   0  0  0  0  0  0  0  0  0  0  0  0
   -3.0131   -0.5663   -0.5733 H   0  0  0  0  0  0  0  0  0  0  0  0
   -1.5596    3.0509   -3.6993 H   0  0  0  0  0  0  0  0  0  0  0  0
   -4.1998    1.5920   -0.6503 H   0  0  0  0  0  0  0  0  0  0  0  0
   -3.4708    3.3791   -2.1804 H   0  0  0  0  0  0  0  0  0  0  0  0
   -4.8222   -0.2796    2.8627 H   0  0  0  0  0  0  0  0  0  0  0  0
   -4.0733    1.3290    3.0490 H   0  0  0  0  0  0  0  0  0  0  0  0
   -4.0903    0.5307    1.4550 H   0  0  0  0  0  0  0  0  0  0  0  0
  1  2  2  0
  1  3  2  0
  1  4  1  6
  1 33  1  0
  2 34  1  0
  3 35  1  0
  4  5  1  0
  4 36  1  0
  4 37  1  0
  5  6  1  0
  5 20  1  0
  5 38  1  6
  6  7  2  0
  6  8  1  0
  8  9  1  0
  8 39  1  0
  9 10  1  0
  9 24  1  0
  9 40  1  1
 10 11  2  0
 10 12  1  0
 12 13  1  0
 12 41  1  0
 13 14  1  0
 13 42  1  0
 13 43  1  0
 14 15  1  0
 14 44  1  0
 14 45  1  0
 15 16  1  0
 15 46  1  0
 15 47  1  0
 16 17  1  0
 16 48  1  0
 16 49  1  0
 17 18  1  0
 17 50  1  0
 17 51  1  0
 18 19  1  0
 18 52  1  0
 18 53  1  0
 19 26  1  0
 19 28  1  0
 20 21  1  0
 20 54  1  0
 20 55  1  0
 21 22  1  0
 21 23  1  0
 21 56  1  1
 22 57  1  0
 22 58  1  0
 22 59  1  0
 23 60  1  0
 23 61  1  0
 23 62  1  0
 24 25  1  0
 24 63  1  0
 24 64  1  0
 25 26  2  0
 25 27  1  0
 26 65  1  0
 27 28  2  0
 27 29  1  0
 28 30  1  0
 29 31  2  0
 29 66  1  0
 30 32  2  0
 30 67  1  0
 31 32  1  0
 31 68  1  0
 32 69  1  0
 33 70  1  0
 33 71  1  0
 33 72  1  0
M  END
