
     RDKit          3D

 37 39  0  0  0  0  0  0  0  0999 V2000
   -2.1417    3.4527    0.4012 C   0  0  0  0  0  0  0  0  0  0  0  0
   -1.4754    2.3541    0.0470 C   0  0  0  0  0  0  0  0  0  0  0  0
   -2.1870    1.0626   -0.1402 C   0  0  0  0  0  0  0  0  0  0  0  0
   -2.9585    0.8686   -1.2814 C   0  0  0  0  0  0  0  0  0  0  0  0
   -3.6553   -0.3195   -1.4596 C   0  0  0  0  0  0  0  0  0  0  0  0
   -3.5709   -1.2958   -0.4941 C   0  0  0  0  0  0  0  0  0  0  0  0
   -4.2524   -2.4510   -0.6432 F   0  0  0  0  0  0  0  0  0  0  0  0
   -2.7992   -1.1373    0.6533 C   0  0  0  0  0  0  0  0  0  0  0  0
   -2.7094   -2.0801    1.6101 O   0  0  0  0  0  0  0  0  0  0  0  0
   -2.1047    0.0541    0.8140 C   0  0  0  0  0  0  0  0  0  0  0  0
   -0.0138    2.3751   -0.1977 C   0  0  0  0  0  0  0  0  0  0  0  0
    0.6182    3.4986   -0.7317 C   0  0  0  0  0  0  0  0  0  0  0  0
    1.9870    3.4558   -0.9289 C   0  0  0  0  0  0  0  0  0  0  0  0
    2.6833    2.3040   -0.5988 C   0  0  0  0  0  0  0  0  0  0  0  0
    1.9693    1.2282   -0.0776 C   0  0  0  0  0  0  0  0  0  0  0  0
    2.6687   -0.0169    0.3087 C   0  0  0  0  0  0  0  0  0  0  0  0
    3.8516    0.0335    1.0468 C   0  0  0  0  0  0  0  0  0  0  0  0
    4.5022   -1.1341    1.4117 C   0  0  0  0  0  0  0  0  0  0  0  0
    3.9926   -2.3708    1.0462 C   0  0  0  0  0  0  0  0  0  0  0  0
    2.8180   -2.4481    0.3074 C   0  0  0  0  0  0  0  0  0  0  0  0
    2.3515   -3.6566   -0.0541 O   0  0  0  0  0  0  0  0  0  0  0  0
    2.1778   -1.2634   -0.0452 C   0  0  0  0  0  0  0  0  0  0  0  0
    1.0613   -1.3708   -0.7850 F   0  0  0  0  0  0  0  0  0  0  0  0
    0.6553    1.2699    0.1079 N   0  0  0  0  0  0  0  0  0  0  0  0
   -1.6444    4.4031    0.5480 H   0  0  0  0  0  0  0  0  0  0  0  0
   -3.2101    3.4308    0.5698 H   0  0  0  0  0  0  0  0  0  0  0  0
   -3.0190    1.6419   -2.0354 H   0  0  0  0  0  0  0  0  0  0  0  0
   -4.2633   -0.4844   -2.3398 H   0  0  0  0  0  0  0  0  0  0  0  0
   -3.2302   -2.8582    1.3816 H   0  0  0  0  0  0  0  0  0  0  0  0
   -1.5012    0.1882    1.7020 H   0  0  0  0  0  0  0  0  0  0  0  0
    0.0491    4.3745   -1.0105 H   0  0  0  0  0  0  0  0  0  0  0  0
    2.5051    4.3070   -1.3500 H   0  0  0  0  0  0  0  0  0  0  0  0
    3.7505    2.2352   -0.7599 H   0  0  0  0  0  0  0  0  0  0  0  0
    4.2495    0.9941    1.3458 H   0  0  0  0  0  0  0  0  0  0  0  0
    5.4138   -1.0843    1.9915 H   0  0  0  0  0  0  0  0  0  0  0  0
    4.5002   -3.2852    1.3261 H   0  0  0  0  0  0  0  0  0  0  0  0
    1.5219   -3.5796   -0.5394 H   0  0  0  0  0  0  0  0  0  0  0  0
 18 17  2  0
 18 19  1  0
 17 16  1  0
 19 20  2  0
  1  2  2  0
 16 15  1  0
 16 22  2  0
 15 24  2  0
 15 14  1  0
 24 11  1  0
 14 13  2  0
 11  2  1  0
 11 12  2  0
 20 22  1  0
 20 21  1  0
  2  3  1  0
 13 12  1  0
 22 23  1  0
 10  3  1  0
 10  8  2  0
  3  4  2  0
  9  8  1  0
  8  6  1  0
  4  5  1  0
  6  5  2  0
  6  7  1  0
  1 25  1  0
  1 26  1  0
  4 27  1  0
  5 28  1  0
  9 29  1  0
 10 30  1  0
 12 31  1  0
 13 32  1  0
 14 33  1  0
 17 34  1  0
 18 35  1  0
 19 36  1  0
 21 37  1  0
M  END
