
     RDKit          3D

 28 29  0  0  0  0  0  0  0  0999 V2000
    6.2512   47.6858   23.9970 C   0  0  0  0  0  0  0  0  0  0  0  0
    5.5106   48.8518   24.2567 C   0  0  0  0  0  0  0  0  0  0  0  0
    4.3343   48.7709   24.9517 C   0  0  0  0  0  0  0  0  0  0  0  0
    5.8117   46.4660   24.4282 C   0  0  0  0  0  0  0  0  0  0  0  0
    4.5993   46.3606   25.1434 C   0  0  0  0  0  0  0  0  0  0  0  0
    3.8435   47.5276   25.4178 C   0  0  0  0  0  0  0  0  0  0  0  0
    2.6430   47.3617   26.1539 C   0  0  0  0  0  0  0  0  0  0  0  0
    2.2226   46.2138   26.5826 N   0  0  0  0  0  0  0  0  0  0  0  0
    2.9137   45.0833   26.3318 C   0  0  0  0  0  0  0  0  0  0  0  0
    4.0938   45.1125   25.6151 C   0  0  0  0  0  0  0  0  0  0  0  0
    3.2896   50.5650   25.3024 I   0  0  0  0  0  0  0  0  0  0  0  0
    4.7537   43.9698   25.3938 O   0  0  0  0  0  0  0  0  0  0  0  0
    2.2671   43.8600   26.9259 C   0  0  0  0  0  0  0  0  0  0  0  0
    2.0768   41.4561   27.0195 C   0  0  0  0  0  0  0  0  0  0  0  0
    2.7038   40.2460   26.3767 C   0  0  0  0  0  0  0  0  0  0  0  0
    2.1788   39.1315   26.8550 O   0  0  0  0  0  0  0  0  0  0  0  0
    1.3924   43.9845   27.7697 O   0  0  0  0  0  0  0  0  0  0  0  0
    3.5684   40.2862   25.5387 O   0  0  0  0  0  0  0  0  0  0  0  0
    2.6602   42.6548   26.4885 N   0  0  0  0  0  0  0  0  0  0  0  0
    7.1806   47.7651   23.4502 H   0  0  0  0  0  0  0  0  0  0  0  0
    5.8879   49.8014   23.9035 H   0  0  0  0  0  0  0  0  0  0  0  0
    6.4257   45.6024   24.2073 H   0  0  0  0  0  0  0  0  0  0  0  0
    2.0233   48.2193   26.3882 H   0  0  0  0  0  0  0  0  0  0  0  0
    5.5022   44.0718   24.7962 H   0  0  0  0  0  0  0  0  0  0  0  0
    0.9965   41.4213   26.8471 H   0  0  0  0  0  0  0  0  0  0  0  0
    2.2165   41.3856   28.1029 H   0  0  0  0  0  0  0  0  0  0  0  0
    2.5911   38.3582   26.4412 H   0  0  0  0  0  0  0  0  0  0  0  0
    3.3895   42.5644   25.7988 H   0  0  0  0  0  0  0  0  0  0  0  0
  1  2  2  0
  1  4  1  0
  1 20  1  0
  2  3  1  0
  2 21  1  0
  3  6  2  0
  3 11  1  0
  4  5  2  0
  4 22  1  0
  5  6  1  0
  5 10  1  0
  6  7  1  0
  7  8  2  0
  7 23  1  0
  8  9  1  0
  9 10  2  0
  9 13  1  0
 10 12  1  0
 12 24  1  0
 13 17  2  0
 13 19  1  0
 14 15  1  0
 14 19  1  0
 14 25  1  0
 14 26  1  0
 15 16  1  0
 15 18  2  0
 16 27  1  0
 19 28  1  0
M  END
