
     RDKit          3D

 31 32  0  0  0  0  0  0  0  0999 V2000
    1.2841    0.0227   -0.4911 C   0  0  0  0  0  0  0  0  0  0  0  0
    2.5422   -0.4918   -0.7520 C   0  0  0  0  0  0  0  0  0  0  0  0
    3.6470   -0.1233    0.0116 C   0  0  0  0  0  0  0  0  0  0  0  0
    4.9733   -0.7221   -0.3254 C   0  0  0  0  0  0  0  0  0  0  0  0
    5.0521   -1.7424   -0.9976 O   0  0  0  0  0  0  0  0  0  0  0  0
    6.0559   -0.0851    0.1468 N   0  0  0  0  0  0  0  0  0  0  0  0
    3.4571    0.7648    1.0694 C   0  0  0  0  0  0  0  0  0  0  0  0
    2.2029    1.2750    1.3542 C   0  0  0  0  0  0  0  0  0  0  0  0
    1.1167    0.9074    0.5693 C   0  0  0  0  0  0  0  0  0  0  0  0
   -0.0762    1.4894    0.8675 O   0  0  0  0  0  0  0  0  0  0  0  0
   -1.2471    0.8682    0.5354 C   0  0  0  0  0  0  0  0  0  0  0  0
   -1.5231   -0.4283    0.9541 C   0  0  0  0  0  0  0  0  0  0  0  0
   -2.7420   -0.9974    0.6330 C   0  0  0  0  0  0  0  0  0  0  0  0
   -3.7027   -0.2821   -0.0802 C   0  0  0  0  0  0  0  0  0  0  0  0
   -4.9951   -0.9616   -0.4012 C   0  0  0  0  0  0  0  0  0  0  0  0
   -5.0768   -2.1839   -0.4030 O   0  0  0  0  0  0  0  0  0  0  0  0
   -6.0353   -0.1657   -0.6844 N   0  0  0  0  0  0  0  0  0  0  0  0
   -3.4069    1.0169   -0.4867 C   0  0  0  0  0  0  0  0  0  0  0  0
   -2.1810    1.5914   -0.1897 C   0  0  0  0  0  0  0  0  0  0  0  0
    0.4496   -0.2643   -1.1176 H   0  0  0  0  0  0  0  0  0  0  0  0
    2.6641   -1.1818   -1.5758 H   0  0  0  0  0  0  0  0  0  0  0  0
    6.0120    0.8157    0.5897 H   0  0  0  0  0  0  0  0  0  0  0  0
    6.9728   -0.4473   -0.0582 H   0  0  0  0  0  0  0  0  0  0  0  0
    4.2794    1.0553    1.7109 H   0  0  0  0  0  0  0  0  0  0  0  0
    2.0648    1.9554    2.1843 H   0  0  0  0  0  0  0  0  0  0  0  0
   -0.7989   -0.9899    1.5306 H   0  0  0  0  0  0  0  0  0  0  0  0
   -2.9527   -2.0068    0.9585 H   0  0  0  0  0  0  0  0  0  0  0  0
   -6.0123    0.8302   -0.5519 H   0  0  0  0  0  0  0  0  0  0  0  0
   -6.9331   -0.5743   -0.8877 H   0  0  0  0  0  0  0  0  0  0  0  0
   -4.1115    1.5953   -1.0701 H   0  0  0  0  0  0  0  0  0  0  0  0
   -1.9521    2.5956   -0.5215 H   0  0  0  0  0  0  0  0  0  0  0  0
  5  4  2  0
  2  1  2  0
  2  3  1  0
  4  6  1  0
  4  3  1  0
  1  9  1  0
  3  7  2  0
  9 10  1  0
  9  8  2  0
  7  8  1  0
 10 11  1  0
 19 11  1  0
 19 18  2  0
 11 12  2  0
 18 14  1  0
 12 13  1  0
 14 13  2  0
 14 15  1  0
 16 15  2  0
 15 17  1  0
  1 20  1  0
  2 21  1  0
  6 22  1  0
  6 23  1  0
  7 24  1  0
  8 25  1  0
 12 26  1  0
 13 27  1  0
 17 28  1  0
 17 29  1  0
 18 30  1  0
 19 31  1  0
M  END
