
     RDKit          3D

 50 53  0  0  0  0  0  0  0  0999 V2000
   -0.4632    1.4307    2.0105 Cl  0  0  0  0  0  0  0  0  0  0  0  0
   -0.2907    1.5455    0.2884 C   0  0  0  0  0  0  0  0  0  0  0  0
   -0.1912    2.8161   -0.2634 C   0  0  0  0  0  0  0  0  0  0  0  0
   -0.0396    2.9575   -1.6315 C   0  0  0  0  0  0  0  0  0  0  0  0
    0.0064    1.8325   -2.4441 C   0  0  0  0  0  0  0  0  0  0  0  0
   -0.1071    0.5759   -1.8791 C   0  0  0  0  0  0  0  0  0  0  0  0
   -0.2591    0.4058   -0.5052 C   0  0  0  0  0  0  0  0  0  0  0  0
   -0.3567   -0.9994    0.0479 C   0  0  2  0  0  0  0  0  0  0  0  0
    0.8411   -1.7632   -0.2757 N   0  0  0  0  0  0  0  0  0  0  0  0
    2.1274   -1.3313    0.1059 C   0  0  0  0  0  0  0  0  0  0  0  0
    3.1512   -1.2581   -0.8310 C   0  0  0  0  0  0  0  0  0  0  0  0
    4.4078   -0.8218   -0.4428 C   0  0  0  0  0  0  0  0  0  0  0  0
    4.6607   -0.4372    0.8693 C   0  0  0  0  0  0  0  0  0  0  0  0
    6.0162    0.0522    1.2795 C   0  0  0  0  0  0  0  0  0  0  0  0
    6.1527    1.5509    1.1613 C   0  0  0  0  0  0  0  0  0  0  0  0
    5.2791    2.3020    0.8136 O   0  0  0  0  0  0  0  0  0  0  0  0
    7.3747    1.9494    1.4960 O   0  0  0  0  0  0  0  0  0  0  0  0
    3.6231   -0.5053    1.7922 C   0  0  0  0  0  0  0  0  0  0  0  0
    2.3665   -0.9553    1.4221 C   0  0  0  0  0  0  0  0  0  0  0  0
    0.5717   -2.8770   -0.9894 C   0  0  0  0  0  0  0  0  0  0  0  0
    1.3343   -3.7316   -1.3931 O   0  0  0  0  0  0  0  0  0  0  0  0
   -0.9048   -2.8843   -1.1938 C   0  0  0  0  0  0  0  0  0  0  0  0
   -1.4861   -3.8546   -1.8550 O   0  0  0  0  0  0  0  0  0  0  0  0
   -1.4515   -1.8137   -0.5894 C   0  0  0  0  0  0  0  0  0  0  0  0
   -2.8626   -1.4613   -0.5377 C   0  0  0  0  0  0  0  0  0  0  0  0
   -3.6945   -1.9848   -1.2486 O   0  0  0  0  0  0  0  0  0  0  0  0
   -3.2637   -0.4391    0.4832 C   0  0  0  0  0  0  0  0  0  0  0  0
   -3.6586    0.8448    0.1315 C   0  0  0  0  0  0  0  0  0  0  0  0
   -3.5920    1.3385   -1.5253 Cl  0  0  0  0  0  0  0  0  0  0  0  0
   -4.0792    1.7530    1.0894 C   0  0  0  0  0  0  0  0  0  0  0  0
   -4.1251    1.3646    2.4201 C   0  0  0  0  0  0  0  0  0  0  0  0
   -3.7353    0.0860    2.7907 C   0  0  0  0  0  0  0  0  0  0  0  0
   -3.2951   -0.8054    1.8250 C   0  0  0  0  0  0  0  0  0  0  0  0
   -0.2276    3.6865    0.3772 H   0  0  0  0  0  0  0  0  0  0  0  0
    0.0417    3.9479   -2.0594 H   0  0  0  0  0  0  0  0  0  0  0  0
    0.1221    1.9349   -3.5145 H   0  0  0  0  0  0  0  0  0  0  0  0
   -0.0857   -0.2966   -2.5215 H   0  0  0  0  0  0  0  0  0  0  0  0
   -0.4906   -0.9759    1.1316 H   0  0  0  0  0  0  0  0  0  0  0  0
    2.9707   -1.5240   -1.8636 H   0  0  0  0  0  0  0  0  0  0  0  0
    5.1992   -0.7739   -1.1807 H   0  0  0  0  0  0  0  0  0  0  0  0
    6.2332   -0.2270    2.3146 H   0  0  0  0  0  0  0  0  0  0  0  0
    6.8015   -0.4113    0.6769 H   0  0  0  0  0  0  0  0  0  0  0  0
    7.4449    2.9126    1.4160 H   0  0  0  0  0  0  0  0  0  0  0  0
    3.7981   -0.2193    2.8222 H   0  0  0  0  0  0  0  0  0  0  0  0
    1.5823   -1.0197    2.1649 H   0  0  0  0  0  0  0  0  0  0  0  0
   -0.8246   -4.5092   -2.1295 H   0  0  0  0  0  0  0  0  0  0  0  0
   -4.3706    2.7527    0.7978 H   0  0  0  0  0  0  0  0  0  0  0  0
   -4.4606    2.0709    3.1678 H   0  0  0  0  0  0  0  0  0  0  0  0
   -3.7654   -0.2150    3.8291 H   0  0  0  0  0  0  0  0  0  0  0  0
   -2.9768   -1.8004    2.1113 H   0  0  0  0  0  0  0  0  0  0  0  0
 16 15  2  0
 14 15  1  0
 14 13  1  0
 15 17  1  0
 18 13  2  0
 18 19  1  0
 13 12  1  0
 19 10  2  0
 12 11  2  0
 10 11  1  0
 10  9  1  0
 21 20  2  0
  9 20  1  0
  9  8  1  0
 20 22  1  0
  1  2  1  0
  8 24  1  0
  8  7  1  0
 22 23  1  0
 22 24  2  0
 24 25  1  0
  7  2  2  0
  7  6  1  0
  2  3  1  0
 25 26  2  0
 25 27  1  0
 33 27  1  0
 33 32  2  0
 27 28  2  0
  6  5  2  0
  3  4  2  0
 32 31  1  0
 28 29  1  0
 28 30  1  0
  5  4  1  0
 31 30  2  0
  3 34  1  0
  4 35  1  0
  5 36  1  0
  6 37  1  0
  8 38  1  1
 11 39  1  0
 12 40  1  0
 14 41  1  0
 14 42  1  0
 17 43  1  0
 18 44  1  0
 19 45  1  0
 23 46  1  0
 30 47  1  0
 31 48  1  0
 32 49  1  0
 33 50  1  0
M  END
