
     RDKit          3D

 15 15  0  0  0  0  0  0  0  0999 V2000
    0.2590   -0.2793    1.0259 C   0  0  0  0  0  0  0  0  0  0  0  0
   -0.5631   -1.2837    1.5166 C   0  0  0  0  0  0  0  0  0  0  0  0
   -0.3165   -1.9457    2.6386 N   0  0  0  0  0  0  0  0  0  0  0  0
    0.7762   -1.6270    3.3239 C   0  0  0  0  0  0  0  0  0  0  0  0
    1.6647   -0.6422    2.9254 C   0  0  0  0  0  0  0  0  0  0  0  0
    1.4011    0.0479    1.7473 C   0  0  0  0  0  0  0  0  0  0  0  0
    2.3517    1.0870    1.2891 C   0  0  0  0  0  0  0  0  0  0  0  0
    3.3087    1.4561    1.9160 O   0  0  0  0  0  0  0  0  0  0  0  0
    1.9987    1.7251    0.0686 N   0  0  0  0  0  0  0  0  0  0  0  0
    2.7721    1.5335   -0.8623 N   0  0  0  0  0  0  0  0  0  0  0  0
   -0.0076    0.2255    0.1077 H   0  0  0  0  0  0  0  0  0  0  0  0
   -1.4601   -1.5596    0.9747 H   0  0  0  0  0  0  0  0  0  0  0  0
    0.9564   -2.1810    4.2376 H   0  0  0  0  0  0  0  0  0  0  0  0
    2.5401   -0.4271    3.5223 H   0  0  0  0  0  0  0  0  0  0  0  0
    2.4372    2.0851   -1.6590 H   0  0  0  0  0  0  0  0  0  0  0  0
  1  2  2  0
  1  6  1  0
  1 11  1  0
  2  3  1  0
  2 12  1  0
  3  4  2  0
  4  5  1  0
  4 13  1  0
  5  6  2  0
  5 14  1  0
  6  7  1  0
  7  8  2  0
  7  9  1  0
  9 10  2  0
 15 10  1  0
M  END
