
     RDKit          3D

 30 31  0  0  0  0  0  0  0  0999 V2000
   -3.0561    0.9049   -0.1288 N   0  0  0  0  0  0  0  0  0  0  0  0
    1.6808    0.5561    0.6464 C   0  0  0  0  0  0  0  0  0  0  0  0
    1.0731    0.0403   -0.4911 C   0  0  0  0  0  0  0  0  0  0  0  0
    1.8642   -0.6525   -1.4036 C   0  0  0  0  0  0  0  0  0  0  0  0
    3.2184   -0.8299   -1.1884 C   0  0  0  0  0  0  0  0  0  0  0  0
   -0.4058    0.1900   -0.7317 C   0  0  1  0  0  0  0  0  0  0  0  0
   -2.6604   -0.2727    0.1197 C   0  0  0  0  0  0  0  0  0  0  0  0
    5.8064    0.0203    1.2145 C   0  0  0  0  0  0  0  0  0  0  0  0
    3.8210   -0.3043   -0.0440 C   0  0  0  0  0  0  0  0  0  0  0  0
    3.0406    0.3940    0.8762 C   0  0  0  0  0  0  0  0  0  0  0  0
   -1.2274   -0.6815    0.2084 C   0  0  0  0  0  0  0  0  0  0  0  0
   -2.0932    1.9346   -0.2876 C   0  0  0  0  0  0  0  0  0  0  0  0
   -2.4574    3.0901   -0.1897 O   0  0  0  0  0  0  0  0  0  0  0  0
   -0.8255    1.5670   -0.5398 N   0  0  0  0  0  0  0  0  0  0  0  0
   -3.7076   -1.3300    0.3750 C   0  0  0  0  0  0  0  0  0  0  0  0
   -4.9329   -0.8919    0.1923 O   0  0  0  0  0  0  0  0  0  0  0  0
   -3.4097   -2.4437    0.7204 O   0  0  0  0  0  0  0  0  0  0  0  0
    1.0968    1.1027    1.3777 H   0  0  0  0  0  0  0  0  0  0  0  0
    1.4161   -1.0594   -2.3021 H   0  0  0  0  0  0  0  0  0  0  0  0
    3.8194   -1.3701   -1.9093 H   0  0  0  0  0  0  0  0  0  0  0  0
   -0.6183   -0.1214   -1.7617 H   0  0  0  0  0  0  0  0  0  0  0  0
    6.8553   -0.2460    1.1110 H   0  0  0  0  0  0  0  0  0  0  0  0
    5.7233    1.1091    1.2591 H   0  0  0  0  0  0  0  0  0  0  0  0
    5.4278   -0.4011    2.1492 H   0  0  0  0  0  0  0  0  0  0  0  0
    3.4686    0.8173    1.7744 H   0  0  0  0  0  0  0  0  0  0  0  0
   -1.0980   -1.7321   -0.0440 H   0  0  0  0  0  0  0  0  0  0  0  0
   -0.8958   -0.5593    1.2459 H   0  0  0  0  0  0  0  0  0  0  0  0
   -0.1793    2.3016   -0.7907 H   0  0  0  0  0  0  0  0  0  0  0  0
   -5.5712   -1.5985    0.3754 H   0  0  0  0  0  0  0  0  0  0  0  0
    5.1434   -0.5141    0.0855 O   0  0  0  0  0  0  0  0  0  0  0  0
 13 12  2  0
 12 14  1  0
 12  1  1  0
 14  6  1  0
  1  7  2  0
  6 11  1  0
  6  3  1  0
  7 11  1  0
  7 15  1  0
 17 15  2  0
 15 16  1  0
  3  4  1  0
  3  2  2  0
  4  5  2  0
  2 10  1  0
  5  9  1  0
 10  9  2  0
  9 30  1  0
 30  8  1  0
  2 18  1  0
  4 19  1  0
  5 20  1  0
  6 21  1  6
  8 22  1  0
  8 23  1  0
  8 24  1  0
 10 25  1  0
 11 26  1  0
 11 27  1  0
 14 28  1  0
 16 29  1  0
M  END
