
     RDKit          3D

 54 55  0  0  0  0  0  0  0  0999 V2000
   -3.0626    4.3755    1.3874 C   0  0  0  0  0  0  0  0  0  0  0  0
   -3.4610    3.0075    1.2878 O   0  0  0  0  0  0  0  0  0  0  0  0
   -2.9863    2.3076    0.2708 C   0  0  0  0  0  0  0  0  0  0  0  0
   -2.2457    2.7454   -0.5697 O   0  0  0  0  0  0  0  0  0  0  0  0
   -3.5726    0.9045    0.2478 C   0  0  1  0  0  0  0  0  0  0  0  0
   -4.7836    0.8988   -0.7014 C   0  0  0  0  0  0  0  0  0  0  0  0
   -5.4056   -0.4497   -0.8244 C   0  0  0  0  0  0  0  0  0  0  0  0
   -6.5830   -0.9029   -0.2992 C   0  0  0  0  0  0  0  0  0  0  0  0
   -6.6711   -2.2100   -0.6804 N   0  0  0  0  0  0  0  0  0  0  0  0
   -5.5747   -2.5029   -1.4012 C   0  0  0  0  0  0  0  0  0  0  0  0
   -4.7874   -1.4623   -1.5113 N   0  0  0  0  0  0  0  0  0  0  0  0
   -2.5840   -0.0383   -0.2068 N   0  0  0  0  0  0  0  0  0  0  0  0
   -1.4238   -0.1819    0.4462 C   0  0  0  0  0  0  0  0  0  0  0  0
   -1.0982    0.5363    1.3781 O   0  0  0  0  0  0  0  0  0  0  0  0
   -0.5574   -1.3412   -0.0209 C   0  0  0  0  0  0  0  0  0  0  0  0
    0.8227   -1.1405    0.3340 N   0  0  0  0  0  0  0  0  0  0  0  0
    1.3298   -1.8188    1.4920 C   0  0  0  0  0  0  0  0  0  0  0  0
    1.8752   -3.1922    1.1559 C   0  0  0  0  0  0  0  0  0  0  0  0
    2.2504   -3.8367    2.2501 O   0  0  0  0  0  0  0  0  0  0  0  0
    1.9608   -3.6345    0.0411 O   0  0  0  0  0  0  0  0  0  0  0  0
    1.5422   -0.2641   -0.4094 C   0  0  0  0  0  0  0  0  0  0  0  0
    1.0255    0.3236   -1.3464 O   0  0  0  0  0  0  0  0  0  0  0  0
    2.9896   -0.0445   -0.0247 C   0  0  0  0  0  0  0  0  0  0  0  0
    3.7571    0.7853   -1.0506 C   0  0  0  0  0  0  0  0  0  0  0  0
    5.1724    1.0143   -0.5956 C   0  0  0  0  0  0  0  0  0  0  0  0
    5.5030    2.1302    0.1700 C   0  0  0  0  0  0  0  0  0  0  0  0
    6.8016    2.3256    0.6218 C   0  0  0  0  0  0  0  0  0  0  0  0
    7.7927    1.4024    0.3141 C   0  0  0  0  0  0  0  0  0  0  0  0
    7.4753    0.2857   -0.4487 C   0  0  0  0  0  0  0  0  0  0  0  0
    6.1752    0.0955   -0.8978 C   0  0  0  0  0  0  0  0  0  0  0  0
   -3.3542    4.9417    0.5033 H   0  0  0  0  0  0  0  0  0  0  0  0
   -3.5773    4.7734    2.2567 H   0  0  0  0  0  0  0  0  0  0  0  0
   -1.9863    4.4634    1.5327 H   0  0  0  0  0  0  0  0  0  0  0  0
   -3.9162    0.6453    1.2539 H   0  0  0  0  0  0  0  0  0  0  0  0
   -5.5203    1.6104   -0.3271 H   0  0  0  0  0  0  0  0  0  0  0  0
   -4.4631    1.2516   -1.6853 H   0  0  0  0  0  0  0  0  0  0  0  0
   -7.3412   -0.4181    0.2921 H   0  0  0  0  0  0  0  0  0  0  0  0
   -7.4247   -2.8428   -0.4633 H   0  0  0  0  0  0  0  0  0  0  0  0
   -5.4007   -3.4795   -1.8250 H   0  0  0  0  0  0  0  0  0  0  0  0
   -2.8548   -0.6970   -0.9274 H   0  0  0  0  0  0  0  0  0  0  0  0
   -0.9191   -2.2481    0.4682 H   0  0  0  0  0  0  0  0  0  0  0  0
   -0.6684   -1.5035   -1.0937 H   0  0  0  0  0  0  0  0  0  0  0  0
    2.1107   -1.2398    1.9872 H   0  0  0  0  0  0  0  0  0  0  0  0
    0.5375   -1.9221    2.2366 H   0  0  0  0  0  0  0  0  0  0  0  0
    3.0195    0.4578    0.9484 H   0  0  0  0  0  0  0  0  0  0  0  0
    3.4944   -1.0031    0.1194 H   0  0  0  0  0  0  0  0  0  0  0  0
    3.7567    0.2702   -2.0131 H   0  0  0  0  0  0  0  0  0  0  0  0
    3.2572    1.7429   -1.2019 H   0  0  0  0  0  0  0  0  0  0  0  0
    4.7357    2.8568    0.4127 H   0  0  0  0  0  0  0  0  0  0  0  0
    7.0404    3.2016    1.2116 H   0  0  0  0  0  0  0  0  0  0  0  0
    8.8060    1.5535    0.6636 H   0  0  0  0  0  0  0  0  0  0  0  0
    8.2423   -0.4364   -0.6984 H   0  0  0  0  0  0  0  0  0  0  0  0
    5.9361   -0.7764   -1.4962 H   0  0  0  0  0  0  0  0  0  0  0  0
    2.6123   -4.7061    2.0210 H   0  0  0  0  0  0  0  0  0  0  0  0
  1 31  1  0
  1 32  1  0
  1 33  1  0
  2  3  1  0
  2  1  1  0
  3  5  1  0
  3  4  2  0
  5 12  1  0
  5 34  1  1
  6  7  1  0
  6  5  1  0
  6 35  1  0
  6 36  1  0
  7 11  1  0
  8  9  1  0
  8  7  2  0
  8 37  1  0
  9 10  1  0
  9 38  1  0
 10 11  2  0
 10 39  1  0
 12 40  1  0
 13 12  1  0
 13 15  1  0
 14 13  2  0
 15 41  1  0
 15 42  1  0
 16 15  1  0
 16 17  1  0
 17 18  1  0
 17 43  1  0
 17 44  1  0
 18 19  1  0
 18 20  2  0
 21 16  1  0
 22 21  2  0
 23 21  1  0
 23 45  1  0
 23 46  1  0
 24 25  1  0
 24 23  1  0
 24 47  1  0
 24 48  1  0
 25 30  2  0
 26 27  2  0
 26 25  1  0
 26 49  1  0
 27 28  1  0
 27 50  1  0
 28 29  2  0
 28 51  1  0
 29 52  1  0
 30 29  1  0
 30 53  1  0
 19 54  1  0
M  END
