
     RDKit          3D

 47 49  0  0  0  0  0  0  0  0999 V2000
   -2.3994   -3.0115    0.7926 O   0  0  0  0  0  0  0  0  0  0  0  0
   -1.6085   -2.1044    0.6712 C   0  0  0  0  0  0  0  0  0  0  0  0
   -0.2499   -2.2552    0.7284 N   0  0  0  0  0  0  0  0  0  0  0  0
    0.3623   -3.5662    0.8825 C   0  0  0  0  0  0  0  0  0  0  0  0
    0.4438   -4.3171   -0.4307 C   0  0  0  0  0  0  0  0  0  0  0  0
    1.1941   -3.5667   -1.3442 O   0  0  0  0  0  0  0  0  0  0  0  0
    1.2310   -4.1492   -2.6220 C   0  0  0  0  0  0  0  0  0  0  0  0
    0.5101   -1.1169    0.5794 C   0  0  0  0  0  0  0  0  0  0  0  0
   -0.5278    0.3010    0.3115 S   0  0  0  0  0  0  0  0  0  0  0  0
   -1.9665   -0.6804    0.4394 C   0  0  0  0  0  0  0  0  0  0  0  0
   -3.2442   -0.3082    0.2994 C   0  0  0  0  0  0  0  0  0  0  0  0
   -3.7789    1.0192    0.0307 C   0  0  0  0  0  0  0  0  0  0  0  0
   -5.0430    1.1205   -0.5542 C   0  0  0  0  0  0  0  0  0  0  0  0
   -5.5575    2.3713   -0.8471 C   0  0  0  0  0  0  0  0  0  0  0  0
   -4.9187    3.5062   -0.5840 N   0  0  0  0  0  0  0  0  0  0  0  0
   -3.7291    3.4149   -0.0024 C   0  0  0  0  0  0  0  0  0  0  0  0
   -3.1187    2.2137    0.3224 C   0  0  0  0  0  0  0  0  0  0  0  0
    1.7625   -1.0979    0.6807 N   0  0  0  0  0  0  0  0  0  0  0  0
    2.4759    0.0867    0.4801 C   0  0  0  0  0  0  0  0  0  0  0  0
    3.2598    0.5962    1.5142 C   0  0  0  0  0  0  0  0  0  0  0  0
    3.9943    1.7556    1.3259 C   0  0  0  0  0  0  0  0  0  0  0  0
    3.9853    2.4315    0.1067 C   0  0  0  0  0  0  0  0  0  0  0  0
    4.8314    3.6564   -0.1042 C   0  0  0  0  0  0  0  0  0  0  0  0
    6.2326    3.3034   -0.6000 C   0  0  0  0  0  0  0  0  0  0  0  0
    3.2153    1.9021   -0.9248 C   0  0  0  0  0  0  0  0  0  0  0  0
    2.4682    0.7462   -0.7488 C   0  0  0  0  0  0  0  0  0  0  0  0
    1.3522   -3.4222    1.3104 H   0  0  0  0  0  0  0  0  0  0  0  0
   -0.2279   -4.1425    1.5935 H   0  0  0  0  0  0  0  0  0  0  0  0
    0.9028   -5.2961   -0.2324 H   0  0  0  0  0  0  0  0  0  0  0  0
   -0.5655   -4.5143   -0.8168 H   0  0  0  0  0  0  0  0  0  0  0  0
    1.7009   -5.1399   -2.6108 H   0  0  0  0  0  0  0  0  0  0  0  0
    0.2282   -4.2590   -3.0523 H   0  0  0  0  0  0  0  0  0  0  0  0
    1.8155   -3.4983   -3.2709 H   0  0  0  0  0  0  0  0  0  0  0  0
   -3.9769   -1.1063    0.3538 H   0  0  0  0  0  0  0  0  0  0  0  0
   -5.6159    0.2325   -0.7873 H   0  0  0  0  0  0  0  0  0  0  0  0
   -6.5319    2.4583   -1.3139 H   0  0  0  0  0  0  0  0  0  0  0  0
   -3.2262    4.3478    0.2249 H   0  0  0  0  0  0  0  0  0  0  0  0
   -2.1648    2.2407    0.8308 H   0  0  0  0  0  0  0  0  0  0  0  0
    3.2797    0.0848    2.4683 H   0  0  0  0  0  0  0  0  0  0  0  0
    4.5880    2.1431    2.1460 H   0  0  0  0  0  0  0  0  0  0  0  0
    4.3465    4.3203   -0.8233 H   0  0  0  0  0  0  0  0  0  0  0  0
    4.9074    4.2138    0.8324 H   0  0  0  0  0  0  0  0  0  0  0  0
    6.8327    4.2014   -0.7508 H   0  0  0  0  0  0  0  0  0  0  0  0
    6.7529    2.6676    0.1177 H   0  0  0  0  0  0  0  0  0  0  0  0
    6.1885    2.7674   -1.5491 H   0  0  0  0  0  0  0  0  0  0  0  0
    3.1971    2.3980   -1.8885 H   0  0  0  0  0  0  0  0  0  0  0  0
    1.8956    0.3444   -1.5759 H   0  0  0  0  0  0  0  0  0  0  0  0
 24 23  1  0
 23 22  1  0
 22 21  1  0
 22 25  2  0
 21 20  2  0
 25 26  1  0
 16 15  2  0
 16 17  1  0
 20 19  1  0
 26 19  2  0
 15 14  1  0
 19 18  1  0
 17 12  2  0
 14 13  2  0
  9  8  1  0
  9 10  1  0
 12 13  1  0
 12 11  1  0
 18  8  2  0
  8  3  1  0
 10 11  2  0
 10  2  1  0
  3  2  1  0
  3  4  1  0
  2  1  2  0
  6  7  1  0
  6  5  1  0
  4  5  1  0
  4 27  1  0
  4 28  1  0
  5 29  1  0
  5 30  1  0
  7 31  1  0
  7 32  1  0
  7 33  1  0
 11 34  1  0
 13 35  1  0
 14 36  1  0
 16 37  1  0
 17 38  1  0
 20 39  1  0
 21 40  1  0
 23 41  1  0
 23 42  1  0
 24 43  1  0
 24 44  1  0
 24 45  1  0
 25 46  1  0
 26 47  1  0
M  END
