
     RDKit          3D

 32 35  0  0  0  0  0  0  0  0999 V2000
   -0.2852   -0.1699    0.2499 C   0  0  0  0  0  0  0  0  0  0  0  0
   -1.2890   -0.9408   -0.2833 C   0  0  0  0  0  0  0  0  0  0  0  0
   -2.6271   -0.4982   -0.2736 C   0  0  0  0  0  0  0  0  0  0  0  0
   -2.9445    0.7620    0.2963 C   0  0  0  0  0  0  0  0  0  0  0  0
   -1.8938    1.5361    0.8437 C   0  0  0  0  0  0  0  0  0  0  0  0
   -0.6056    1.0860    0.8207 C   0  0  0  0  0  0  0  0  0  0  0  0
   -3.6756   -1.2738   -0.8184 C   0  0  0  0  0  0  0  0  0  0  0  0
   -4.9656   -0.8285   -0.7970 C   0  0  0  0  0  0  0  0  0  0  0  0
   -5.2766    0.4287   -0.2285 C   0  0  0  0  0  0  0  0  0  0  0  0
   -4.2809    1.2072    0.3068 C   0  0  0  0  0  0  0  0  0  0  0  0
   -6.5400    0.8924   -0.1957 O   0  0  0  0  0  0  0  0  0  0  0  0
    1.1020   -0.6348    0.2500 C   0  0  0  0  0  0  0  0  0  0  0  0
    2.2985    0.1307    0.0652 C   0  0  0  0  0  0  0  0  0  0  0  0
    3.3000   -0.8234    0.1558 C   0  0  0  0  0  0  0  0  0  0  0  0
    2.7535   -2.0264    0.3641 O   0  0  0  0  0  0  0  0  0  0  0  0
    1.3868   -1.8894    0.4254 N   0  0  0  0  0  0  0  0  0  0  0  0
    2.6419    1.4598   -0.1955 C   0  0  0  0  0  0  0  0  0  0  0  0
    3.9726    1.7779   -0.3244 C   0  0  0  0  0  0  0  0  0  0  0  0
    4.9719    0.7889   -0.2028 C   0  0  0  0  0  0  0  0  0  0  0  0
    4.6518   -0.5387    0.0328 C   0  0  0  0  0  0  0  0  0  0  0  0
    6.2416    1.2086   -0.3366 O   0  0  0  0  0  0  0  0  0  0  0  0
   -1.0552   -1.8981   -0.7326 H   0  0  0  0  0  0  0  0  0  0  0  0
   -2.1217    2.4948    1.2920 H   0  0  0  0  0  0  0  0  0  0  0  0
    0.1726    1.6869    1.2728 H   0  0  0  0  0  0  0  0  0  0  0  0
   -3.4498   -2.2378   -1.2560 H   0  0  0  0  0  0  0  0  0  0  0  0
   -5.7514   -1.4460   -1.2168 H   0  0  0  0  0  0  0  0  0  0  0  0
   -4.5241    2.1699    0.7389 H   0  0  0  0  0  0  0  0  0  0  0  0
   -7.1456    0.2634   -0.5960 H   0  0  0  0  0  0  0  0  0  0  0  0
    1.8913    2.2301   -0.3044 H   0  0  0  0  0  0  0  0  0  0  0  0
    4.2727    2.7978   -0.5229 H   0  0  0  0  0  0  0  0  0  0  0  0
    5.4042   -1.3125    0.1148 H   0  0  0  0  0  0  0  0  0  0  0  0
    6.8555    0.4834   -0.1905 H   0  0  0  0  0  0  0  0  0  0  0  0
  1  2  2  0
  1  6  1  0
  1 12  1  0
  2  3  1  0
  2 22  1  0
  3  4  2  0
  3  7  1  0
  4  5  1  0
  4 10  1  0
  5  6  2  0
  5 23  1  0
  6 24  1  0
  7  8  2  0
  7 25  1  0
  8  9  1  0
  8 26  1  0
  9 10  2  0
  9 11  1  0
 10 27  1  0
 11 28  1  0
 12 13  1  0
 12 16  2  0
 13 14  2  0
 13 17  1  0
 14 15  1  0
 14 20  1  0
 15 16  1  0
 17 18  2  0
 17 29  1  0
 18 19  1  0
 18 30  1  0
 19 20  2  0
 19 21  1  0
 20 31  1  0
 21 32  1  0
M  END
