
     RDKit          3D

 54 58  0  0  0  0  0  0  0  0999 V2000
   -6.3511   -3.7547   -1.0830 N   0  0  0  0  0  0  0  0  0  0  0  0
   -5.8842   -2.7848   -0.2854 C   0  0  0  0  0  0  0  0  0  0  0  0
   -4.8508   -2.8792    0.3588 O   0  0  0  0  0  0  0  0  0  0  0  0
   -6.7300   -1.5548   -0.2141 C   0  0  0  0  0  0  0  0  0  0  0  0
   -1.8619   -0.0319    0.3598 C   0  0  0  0  0  0  0  0  0  0  0  0
   -0.5515   -0.4699    0.3733 C   0  0  0  0  0  0  0  0  0  0  0  0
    0.5086    0.4302    0.4674 C   0  0  0  0  0  0  0  0  0  0  0  0
    1.9017   -0.1159    0.4563 C   0  0  0  0  0  0  0  0  0  0  0  0
   -8.1217   -1.5855   -0.3028 C   0  0  0  0  0  0  0  0  0  0  0  0
   -8.9090   -0.4388   -0.1980 C   0  0  0  0  0  0  0  0  0  0  0  0
   -8.3203    0.7988   -0.0073 C   0  0  0  0  0  0  0  0  0  0  0  0
   -6.9365    0.8509    0.0851 C   0  0  0  0  0  0  0  0  0  0  0  0
   -6.0057    1.9617    0.2639 C   0  0  0  0  0  0  0  0  0  0  0  0
   -4.6761    1.2980    0.2642 C   0  0  0  0  0  0  0  0  0  0  0  0
   -3.4912    1.9012    0.4011 C   0  0  0  0  0  0  0  0  0  0  0  0
   -2.1524    1.3386    0.4203 C   0  0  0  0  0  0  0  0  0  0  0  0
    2.8443    0.6428    1.0349 N   0  0  0  0  0  0  0  0  0  0  0  0
   -6.2285    3.1469    0.3851 O   0  0  0  0  0  0  0  0  0  0  0  0
    2.1433   -1.2041   -0.0496 O   0  0  0  0  0  0  0  0  0  0  0  0
    4.2417    0.2737    1.0581 C   0  0  0  0  0  0  0  0  0  0  0  0
    4.9460    0.6304   -0.2470 C   0  0  0  0  0  0  0  0  0  0  0  0
    6.3935    0.2858   -0.2191 C   0  0  0  0  0  0  0  0  0  0  0  0
    7.2302    0.6238   -1.2361 N   0  0  0  0  0  0  0  0  0  0  0  0
    8.4802    0.1672   -0.9131 C   0  0  0  0  0  0  0  0  0  0  0  0
    9.7066    0.2277   -1.5633 C   0  0  0  0  0  0  0  0  0  0  0  0
   10.7834   -0.3552   -0.9156 C   0  0  0  0  0  0  0  0  0  0  0  0
   10.6395   -0.9760    0.3339 C   0  0  0  0  0  0  0  0  0  0  0  0
    9.4132   -1.0310    0.9740 C   0  0  0  0  0  0  0  0  0  0  0  0
    8.3174   -0.4487    0.3391 C   0  0  0  0  0  0  0  0  0  0  0  0
    7.0043   -0.3548    0.7402 N   0  0  0  0  0  0  0  0  0  0  0  0
    0.2273    1.7928    0.5268 C   0  0  0  0  0  0  0  0  0  0  0  0
   -1.0823    2.2362    0.5026 C   0  0  0  0  0  0  0  0  0  0  0  0
   -4.8441   -0.0488    0.1018 O   0  0  0  0  0  0  0  0  0  0  0  0
   -6.1692   -0.3022   -0.0019 C   0  0  0  0  0  0  0  0  0  0  0  0
   -5.8414   -4.6192   -1.1711 H   0  0  0  0  0  0  0  0  0  0  0  0
   -7.1308   -3.6180   -1.7028 H   0  0  0  0  0  0  0  0  0  0  0  0
   -2.6485   -0.7692    0.3054 H   0  0  0  0  0  0  0  0  0  0  0  0
   -0.3511   -1.5312    0.3177 H   0  0  0  0  0  0  0  0  0  0  0  0
   -8.6216   -2.5358   -0.4423 H   0  0  0  0  0  0  0  0  0  0  0  0
   -9.9840   -0.5275   -0.2654 H   0  0  0  0  0  0  0  0  0  0  0  0
   -8.9169    1.6983    0.0681 H   0  0  0  0  0  0  0  0  0  0  0  0
   -3.5552    2.9791    0.5068 H   0  0  0  0  0  0  0  0  0  0  0  0
    2.5852    1.5014    1.4906 H   0  0  0  0  0  0  0  0  0  0  0  0
    4.7050    0.7986    1.8912 H   0  0  0  0  0  0  0  0  0  0  0  0
    4.3356   -0.7925    1.2597 H   0  0  0  0  0  0  0  0  0  0  0  0
    4.4690    0.1075   -1.0806 H   0  0  0  0  0  0  0  0  0  0  0  0
    4.8323    1.6989   -0.4493 H   0  0  0  0  0  0  0  0  0  0  0  0
    6.9715    1.1189   -2.0750 H   0  0  0  0  0  0  0  0  0  0  0  0
    9.8207    0.7073   -2.5266 H   0  0  0  0  0  0  0  0  0  0  0  0
   11.7588   -0.3288   -1.3835 H   0  0  0  0  0  0  0  0  0  0  0  0
   11.5073   -1.4201    0.8039 H   0  0  0  0  0  0  0  0  0  0  0  0
    9.3043   -1.5119    1.9378 H   0  0  0  0  0  0  0  0  0  0  0  0
    1.0190    2.5297    0.5666 H   0  0  0  0  0  0  0  0  0  0  0  0
   -1.2792    3.3001    0.5401 H   0  0  0  0  0  0  0  0  0  0  0  0
 20 21  1  0
 20 17  1  0
 21 22  1  0
 17  8  1  0
 31 32  2  0
 31  7  1  0
 32 16  1  0
  8  7  1  0
  8 19  2  0
  7  6  2  0
 22 23  1  0
 22 30  2  0
 16 15  1  0
 16  5  2  0
 23 24  1  0
 15 14  2  0
 18 13  2  0
 30 29  1  0
  6  5  1  0
 14 13  1  0
 14 33  1  0
 13 12  1  0
 24 29  2  0
 24 25  1  0
 29 28  1  0
 33 34  1  0
 25 26  2  0
 12 34  1  0
 12 11  2  0
 28 27  2  0
 34  4  2  0
 11 10  1  0
 26 27  1  0
  4  9  1  0
  4  2  1  0
 10  9  2  0
  1  2  1  0
  2  3  2  0
  1 35  1  0
  1 36  1  0
  5 37  1  0
  6 38  1  0
  9 39  1  0
 10 40  1  0
 11 41  1  0
 15 42  1  0
 17 43  1  0
 20 44  1  0
 20 45  1  0
 21 46  1  0
 21 47  1  0
 23 48  1  0
 25 49  1  0
 26 50  1  0
 27 51  1  0
 28 52  1  0
 31 53  1  0
 32 54  1  0
M  END
