
     RDKit          3D

 75 75  0  0  0  0  0  0  0  0999 V2000
    1.0213    0.1486   -3.1378 C   0  0  0  0  0  0  0  0  0  0  0  0
   -0.0281    0.3237   -4.0684 C   0  0  0  0  0  0  0  0  0  0  0  0
   -1.3542    0.5977   -3.6683 C   0  0  0  0  0  0  0  0  0  0  0  0
   -1.5895    0.6767   -2.3054 C   0  0  0  0  0  0  0  0  0  0  0  0
   -0.5953    0.4693   -1.3483 C   0  0  0  0  0  0  0  0  0  0  0  0
    0.7038    0.2294   -1.7945 C   0  0  0  0  0  0  0  0  0  0  0  0
   -1.0087    0.5594    0.0393 C   0  0  0  0  0  0  0  0  0  0  0  0
   -0.4923    0.0720    1.1944 C   0  0  0  0  0  0  0  0  0  0  0  0
   -1.4225    0.5022    2.6747 P   0  0  1  0  0  0  0  0  0  0  0  0
    0.9078   -1.0521    1.2759 P   0  0  1  0  0  0  0  0  0  0  0  0
    0.3214    0.2280   -5.3610 O   0  0  0  0  0  0  0  0  0  0  0  0
    2.4662   -0.1266   -3.5751 C   0  0  1  0  0  0  0  0  0  0  0  0
   -2.5025    0.8096   -4.6676 C   0  0  1  0  0  0  0  0  0  0  0  0
    3.3915   -0.2984   -2.3642 C   0  0  0  0  0  0  0  0  0  0  0  0
    2.5534   -1.4363   -4.3761 C   0  0  0  0  0  0  0  0  0  0  0  0
    3.0263    1.0487   -4.3903 C   0  0  0  0  0  0  0  0  0  0  0  0
   -3.8295    1.0818   -3.9496 C   0  0  0  0  0  0  0  0  0  0  0  0
   -2.2412    2.0401   -5.5549 C   0  0  0  0  0  0  0  0  0  0  0  0
   -2.7309   -0.4526   -5.5196 C   0  0  0  0  0  0  0  0  0  0  0  0
   -2.5616    1.4147    2.3926 O   0  0  0  0  0  0  0  0  0  0  0  0
   -1.8601   -0.8470    3.4175 O   0  0  0  0  0  0  0  0  0  0  0  0
   -2.7428   -1.7759    2.7775 C   0  0  0  0  0  0  0  0  0  0  0  0
   -2.8694   -2.9941    3.6590 C   0  0  0  0  0  0  0  0  0  0  0  0
   -0.3014    1.0712    3.6500 O   0  0  0  0  0  0  0  0  0  0  0  0
   -0.5272    1.2988    5.0500 C   0  0  0  0  0  0  0  0  0  0  0  0
    0.7324    1.8837    5.6396 C   0  0  0  0  0  0  0  0  0  0  0  0
    0.9187   -2.1462    0.2780 O   0  0  0  0  0  0  0  0  0  0  0  0
    2.2634   -0.2014    1.1396 O   0  0  0  0  0  0  0  0  0  0  0  0
    2.5458    0.9666    1.9238 C   0  0  0  0  0  0  0  0  0  0  0  0
    3.8683    1.5310    1.4669 C   0  0  0  0  0  0  0  0  0  0  0  0
    0.8311   -1.5044    2.8013 O   0  0  0  0  0  0  0  0  0  0  0  0
    1.7333   -2.4776    3.3469 C   0  0  0  0  0  0  0  0  0  0  0  0
    1.6144   -2.4320    4.8503 C   0  0  0  0  0  0  0  0  0  0  0  0
   -2.5863    0.8957   -1.9499 H   0  0  0  0  0  0  0  0  0  0  0  0
    1.4998    0.1562   -1.0760 H   0  0  0  0  0  0  0  0  0  0  0  0
   -1.9337    1.1184    0.1525 H   0  0  0  0  0  0  0  0  0  0  0  0
   -0.4148    0.4008   -5.9529 H   0  0  0  0  0  0  0  0  0  0  0  0
    4.4016   -0.5071   -2.7190 H   0  0  0  0  0  0  0  0  0  0  0  0
    3.4473    0.6046   -1.7535 H   0  0  0  0  0  0  0  0  0  0  0  0
    3.0883   -1.1256   -1.7200 H   0  0  0  0  0  0  0  0  0  0  0  0
    2.1498   -2.2697   -3.7978 H   0  0  0  0  0  0  0  0  0  0  0  0
    2.0224   -1.3958   -5.3234 H   0  0  0  0  0  0  0  0  0  0  0  0
    3.5993   -1.6629   -4.5945 H   0  0  0  0  0  0  0  0  0  0  0  0
    3.0363    1.9605   -3.7896 H   0  0  0  0  0  0  0  0  0  0  0  0
    4.0577    0.8373   -4.6809 H   0  0  0  0  0  0  0  0  0  0  0  0
    2.4650    1.2509   -5.2991 H   0  0  0  0  0  0  0  0  0  0  0  0
   -4.1352    0.2513   -3.3114 H   0  0  0  0  0  0  0  0  0  0  0  0
   -3.7970    1.9886   -3.3437 H   0  0  0  0  0  0  0  0  0  0  0  0
   -4.6128    1.2216   -4.6956 H   0  0  0  0  0  0  0  0  0  0  0  0
   -1.3451    1.9825   -6.1744 H   0  0  0  0  0  0  0  0  0  0  0  0
   -3.0783    2.1871   -6.2399 H   0  0  0  0  0  0  0  0  0  0  0  0
   -2.1470    2.9385   -4.9438 H   0  0  0  0  0  0  0  0  0  0  0  0
   -3.6091   -0.3166   -6.1523 H   0  0  0  0  0  0  0  0  0  0  0  0
   -1.9116   -0.7113   -6.1909 H   0  0  0  0  0  0  0  0  0  0  0  0
   -2.9063   -1.3198   -4.8820 H   0  0  0  0  0  0  0  0  0  0  0  0
   -2.3401   -2.0574    1.7995 H   0  0  0  0  0  0  0  0  0  0  0  0
   -3.7181   -1.3113    2.6132 H   0  0  0  0  0  0  0  0  0  0  0  0
   -3.5298   -3.7194    3.1845 H   0  0  0  0  0  0  0  0  0  0  0  0
   -1.9003   -3.4690    3.8131 H   0  0  0  0  0  0  0  0  0  0  0  0
   -3.2918   -2.7399    4.6311 H   0  0  0  0  0  0  0  0  0  0  0  0
   -1.3687    1.9833    5.1821 H   0  0  0  0  0  0  0  0  0  0  0  0
   -0.7765    0.3548    5.5382 H   0  0  0  0  0  0  0  0  0  0  0  0
    0.5740    2.0915    6.6976 H   0  0  0  0  0  0  0  0  0  0  0  0
    1.5686    1.1893    5.5552 H   0  0  0  0  0  0  0  0  0  0  0  0
    1.0053    2.8177    5.1488 H   0  0  0  0  0  0  0  0  0  0  0  0
    1.7485    1.7022    1.7934 H   0  0  0  0  0  0  0  0  0  0  0  0
    2.5849    0.7009    2.9825 H   0  0  0  0  0  0  0  0  0  0  0  0
    4.1104    2.4123    2.0605 H   0  0  0  0  0  0  0  0  0  0  0  0
    4.6753    0.8092    1.5946 H   0  0  0  0  0  0  0  0  0  0  0  0
    3.8335    1.8311    0.4194 H   0  0  0  0  0  0  0  0  0  0  0  0
    1.4713   -3.4659    2.9643 H   0  0  0  0  0  0  0  0  0  0  0  0
    2.7592   -2.2598    3.0384 H   0  0  0  0  0  0  0  0  0  0  0  0
    2.2765   -3.1778    5.2896 H   0  0  0  0  0  0  0  0  0  0  0  0
    1.8988   -1.4542    5.2396 H   0  0  0  0  0  0  0  0  0  0  0  0
    0.5961   -2.6495    5.1724 H   0  0  0  0  0  0  0  0  0  0  0  0
  1  2  2  0
  1  6  1  0
  1 12  1  0
  2  3  1  0
  2 11  1  0
  3  4  2  0
  3 13  1  0
  4  5  1  0
  4 34  1  0
  5  6  2  0
  5  7  1  0
  6 35  1  0
  7  8  2  0
  7 36  1  0
  8  9  1  0
  8 10  1  0
  9 20  2  0
  9 21  1  1
  9 24  1  0
 10 27  2  0
 10 28  1  1
 10 31  1  0
 11 37  1  0
 12 14  1  1
 12 15  1  0
 12 16  1  0
 13 17  1  1
 13 18  1  0
 13 19  1  0
 14 38  1  0
 14 39  1  0
 14 40  1  0
 15 41  1  0
 15 42  1  0
 15 43  1  0
 16 44  1  0
 16 45  1  0
 16 46  1  0
 17 47  1  0
 17 48  1  0
 17 49  1  0
 18 50  1  0
 18 51  1  0
 18 52  1  0
 19 53  1  0
 19 54  1  0
 19 55  1  0
 21 22  1  0
 22 23  1  0
 22 56  1  0
 22 57  1  0
 23 58  1  0
 23 59  1  0
 23 60  1  0
 24 25  1  0
 25 26  1  0
 25 61  1  0
 25 62  1  0
 26 63  1  0
 26 64  1  0
 26 65  1  0
 28 29  1  0
 29 30  1  0
 29 66  1  0
 29 67  1  0
 30 68  1  0
 30 69  1  0
 30 70  1  0
 31 32  1  0
 32 33  1  0
 32 71  1  0
 32 72  1  0
 33 73  1  0
 33 74  1  0
 33 75  1  0
M  END
