
     RDKit          3D

 55 59  0  0  0  0  0  0  0  0999 V2000
   -0.7340    3.4559    0.8515 C   0  0  0  0  0  0  0  0  0  0  0  0
   -0.6069    2.3513   -0.0082 C   0  0  0  0  0  0  0  0  0  0  0  0
    0.4794    1.4832   -0.0018 C   0  0  0  0  0  0  0  0  0  0  0  0
   -1.9834    1.3175   -1.7646 C   0  0  0  0  0  0  0  0  0  0  0  0
    2.9738   -0.2649    0.5628 C   0  0  0  0  0  0  0  0  0  0  0  0
   -1.8322    1.5640   -3.1211 C   0  0  0  0  0  0  0  0  0  0  0  0
   -2.0658    0.5590   -4.0479 C   0  0  0  0  0  0  0  0  0  0  0  0
   -2.4386   -0.7023   -3.6051 C   0  0  0  0  0  0  0  0  0  0  0  0
   -2.5924   -0.9644   -2.2512 C   0  0  0  0  0  0  0  0  0  0  0  0
   -2.3760    0.0505   -1.3270 C   0  0  0  0  0  0  0  0  0  0  0  0
    2.5565   -2.0945   -0.6757 C   0  0  0  0  0  0  0  0  0  0  0  0
    3.7683   -2.6474   -0.3523 C   0  0  0  0  0  0  0  0  0  0  0  0
    4.5866   -1.8753    0.5025 C   0  0  0  0  0  0  0  0  0  0  0  0
   -2.4307   -1.3532    0.5585 C   0  0  0  0  0  0  0  0  0  0  0  0
   -1.1796   -1.9485    0.6435 C   0  0  0  0  0  0  0  0  0  0  0  0
   -1.0671   -3.1941    1.2441 C   0  0  0  0  0  0  0  0  0  0  0  0
   -2.1895   -3.8353    1.7548 C   0  0  0  0  0  0  0  0  0  0  0  0
   -3.4321   -3.2231    1.6662 C   0  0  0  0  0  0  0  0  0  0  0  0
   -3.5600   -1.9782    1.0621 C   0  0  0  0  0  0  0  0  0  0  0  0
    1.4814    1.7258    0.9300 C   0  0  0  0  0  0  0  0  0  0  0  0
    1.3761    2.8350    1.8016 C   0  0  0  0  0  0  0  0  0  0  0  0
    0.2963    3.6907    1.7660 C   0  0  0  0  0  0  0  0  0  0  0  0
   -1.9794    4.0860    0.5353 C   0  0  0  0  0  0  0  0  0  0  0  0
   -2.5558    3.3710   -0.4730 C   0  0  0  0  0  0  0  0  0  0  0  0
   -1.7177    2.3235   -0.8133 N   0  0  0  0  0  0  0  0  0  0  0  0
   -3.8583    3.5690   -1.1575 C   0  0  0  0  0  0  0  0  0  0  0  0
    2.6322    0.9529    1.0709 N   0  0  0  0  0  0  0  0  0  0  0  0
    2.1301   -0.9083   -0.2385 N   0  0  0  0  0  0  0  0  0  0  0  0
    4.1746   -0.6904    0.9509 N   0  0  0  0  0  0  0  0  0  0  0  0
   -2.5576   -0.0999    0.0079 O   0  0  0  0  0  0  0  0  0  0  0  0
    5.7984   -2.2877    0.8979 N   0  0  0  0  0  0  0  0  0  0  0  0
    6.3942   -3.5424    0.5196 C   0  0  0  0  0  0  0  0  0  0  0  0
    0.5435    0.6533   -0.6871 H   0  0  0  0  0  0  0  0  0  0  0  0
   -1.5142    2.5475   -3.4423 H   0  0  0  0  0  0  0  0  0  0  0  0
   -1.9477    0.7571   -5.1042 H   0  0  0  0  0  0  0  0  0  0  0  0
   -2.6163   -1.4965   -4.3180 H   0  0  0  0  0  0  0  0  0  0  0  0
   -2.8946   -1.9508   -1.9249 H   0  0  0  0  0  0  0  0  0  0  0  0
    1.8762   -2.6318   -1.3279 H   0  0  0  0  0  0  0  0  0  0  0  0
    4.0619   -3.6130   -0.7347 H   0  0  0  0  0  0  0  0  0  0  0  0
   -0.2997   -1.4414    0.2635 H   0  0  0  0  0  0  0  0  0  0  0  0
   -0.0942   -3.6624    1.3203 H   0  0  0  0  0  0  0  0  0  0  0  0
   -2.0934   -4.8046    2.2256 H   0  0  0  0  0  0  0  0  0  0  0  0
   -4.3105   -3.7151    2.0626 H   0  0  0  0  0  0  0  0  0  0  0  0
   -4.5265   -1.4967    0.9848 H   0  0  0  0  0  0  0  0  0  0  0  0
    2.1684    3.0130    2.5196 H   0  0  0  0  0  0  0  0  0  0  0  0
    0.2532    4.5297    2.4491 H   0  0  0  0  0  0  0  0  0  0  0  0
   -2.4028    4.9622    1.0011 H   0  0  0  0  0  0  0  0  0  0  0  0
   -3.7367    3.7797   -2.2215 H   0  0  0  0  0  0  0  0  0  0  0  0
   -4.4950    2.6858   -1.0752 H   0  0  0  0  0  0  0  0  0  0  0  0
   -4.3879    4.4070   -0.7088 H   0  0  0  0  0  0  0  0  0  0  0  0
    3.3266    1.3258    1.6994 H   0  0  0  0  0  0  0  0  0  0  0  0
    6.2994   -1.6821    1.5258 H   0  0  0  0  0  0  0  0  0  0  0  0
    5.8188   -4.3980    0.8800 H   0  0  0  0  0  0  0  0  0  0  0  0
    6.4991   -3.6329   -0.5634 H   0  0  0  0  0  0  0  0  0  0  0  0
    7.3869   -3.5976    0.9567 H   0  0  0  0  0  0  0  0  0  0  0  0
 26 24  1  0
 23 24  2  0
 23  1  1  0
 24 25  1  0
 22  1  2  0
 22 21  1  0
  1  2  1  0
 25  2  1  0
 25  4  1  0
  6  4  2  0
  6  7  1  0
  2  3  2  0
 21 20  2  0
  4 10  1  0
  7  8  2  0
  3 20  1  0
 20 27  1  0
 10 30  1  0
 10  9  2  0
  8  9  1  0
 30 14  1  0
 27  5  1  0
 19 14  1  0
 19 18  2  0
 14 15  2  0
  5 29  2  0
  5 28  1  0
 29 13  1  0
 18 17  1  0
 28 11  2  0
 32 31  1  0
 15 16  1  0
 13 31  1  0
 13 12  2  0
 17 16  2  0
 11 12  1  0
  3 33  1  0
  6 34  1  0
  7 35  1  0
  8 36  1  0
  9 37  1  0
 11 38  1  0
 12 39  1  0
 15 40  1  0
 16 41  1  0
 17 42  1  0
 18 43  1  0
 19 44  1  0
 21 45  1  0
 22 46  1  0
 23 47  1  0
 26 48  1  0
 26 49  1  0
 26 50  1  0
 27 51  1  0
 31 52  1  0
 32 53  1  0
 32 54  1  0
 32 55  1  0
M  END
