
     RDKit          3D

 59 62  0  0  0  0  0  0  0  0999 V2000
    1.2669    0.3282    5.4128 C   0  0  0  0  0  0  0  0  0  0  0  0
    0.7969    0.4142    4.1414 N   0  0  0  0  0  0  0  0  0  0  0  0
    1.5204   -0.4530    3.3887 C   0  0  0  0  0  0  0  0  0  0  0  0
    2.4088   -1.0872    4.1030 N   0  0  0  0  0  0  0  0  0  0  0  0
    2.2650   -0.6079    5.3746 C   0  0  0  0  0  0  0  0  0  0  0  0
    3.0859   -1.0583    6.5104 C   0  0  0  0  0  0  0  0  0  0  0  0
    2.9408   -0.5821    7.6314 O   0  0  0  0  0  0  0  0  0  0  0  0
    3.9837   -2.0078    6.2128 N   0  0  0  0  0  0  0  0  0  0  0  0
   -0.2492    1.3208    3.6791 C   0  0  1  0  0  0  0  0  0  0  0  0
    0.3549    2.4680    2.8818 C   0  0  0  0  0  0  0  0  0  0  0  0
    0.7955    1.9809    1.6395 O   0  0  0  0  0  0  0  0  0  0  0  0
   -1.3234    0.5358    2.9280 C   0  0  0  0  0  0  0  0  0  0  0  0
   -2.4928    1.4107    2.4869 C   0  0  0  0  0  0  0  0  0  0  0  0
   -3.4347    0.6738    1.6771 N   0  0  0  0  0  0  0  0  0  0  0  0
   -4.6379    0.1632    2.0906 C   0  0  0  0  0  0  0  0  0  0  0  0
   -5.2220   -0.5440    1.0815 C   0  0  0  0  0  0  0  0  0  0  0  0
   -4.3251   -0.4840   -0.0302 C   0  0  0  0  0  0  0  0  0  0  0  0
   -3.2172    0.2839    0.3850 C   0  0  0  0  0  0  0  0  0  0  0  0
   -4.3327   -0.9913   -1.3341 C   0  0  0  0  0  0  0  0  0  0  0  0
   -3.2656   -0.7395   -2.1711 C   0  0  0  0  0  0  0  0  0  0  0  0
   -2.1572    0.0088   -1.7277 C   0  0  0  0  0  0  0  0  0  0  0  0
   -2.1245    0.5293   -0.4446 C   0  0  0  0  0  0  0  0  0  0  0  0
   -1.0817    0.2871   -2.5904 N   0  0  0  0  0  0  0  0  0  0  0  0
   -0.3896   -0.6747   -3.2840 C   0  0  0  0  0  0  0  0  0  0  0  0
   -0.7533   -1.8402   -3.3457 O   0  0  0  0  0  0  0  0  0  0  0  0
    0.7153   -0.2020   -3.9148 N   0  0  0  0  0  0  0  0  0  0  0  0
    1.6500   -1.0604   -4.6009 C   0  0  0  0  0  0  0  0  0  0  0  0
    3.5381   -0.3431   -6.0994 C   0  0  0  0  0  0  0  0  0  0  0  0
    2.1703   -0.4236   -5.8639 C   0  0  0  0  0  0  0  0  0  0  0  0
    1.2916    0.0757   -6.8240 C   0  0  0  0  0  0  0  0  0  0  0  0
    1.7734    0.6374   -7.9967 C   0  0  0  0  0  0  0  0  0  0  0  0
    3.1432    0.7098   -8.2261 C   0  0  0  0  0  0  0  0  0  0  0  0
    4.0247    0.2176   -7.2748 C   0  0  0  0  0  0  0  0  0  0  0  0
    0.8630    0.9211    6.2164 H   0  0  0  0  0  0  0  0  0  0  0  0
    1.3563   -0.5853    2.3315 H   0  0  0  0  0  0  0  0  0  0  0  0
    4.5951   -2.3750    6.9222 H   0  0  0  0  0  0  0  0  0  0  0  0
    4.0567   -2.3778    5.2801 H   0  0  0  0  0  0  0  0  0  0  0  0
   -0.6873    1.7559    4.5799 H   0  0  0  0  0  0  0  0  0  0  0  0
   -0.4046    3.2504    2.7712 H   0  0  0  0  0  0  0  0  0  0  0  0
    1.1727    2.9035    3.4683 H   0  0  0  0  0  0  0  0  0  0  0  0
    1.1984    2.7051    1.1519 H   0  0  0  0  0  0  0  0  0  0  0  0
   -1.7007   -0.2560    3.5787 H   0  0  0  0  0  0  0  0  0  0  0  0
   -0.8883    0.0449    2.0557 H   0  0  0  0  0  0  0  0  0  0  0  0
   -2.1518    2.2739    1.9124 H   0  0  0  0  0  0  0  0  0  0  0  0
   -3.0240    1.8034    3.3541 H   0  0  0  0  0  0  0  0  0  0  0  0
   -4.9915    0.3545    3.0921 H   0  0  0  0  0  0  0  0  0  0  0  0
   -6.1761   -1.0445    1.1258 H   0  0  0  0  0  0  0  0  0  0  0  0
   -5.1735   -1.5710   -1.6942 H   0  0  0  0  0  0  0  0  0  0  0  0
   -3.2846   -1.1112   -3.1852 H   0  0  0  0  0  0  0  0  0  0  0  0
   -1.2641    1.0932   -0.1013 H   0  0  0  0  0  0  0  0  0  0  0  0
   -0.6237    1.1729   -2.4425 H   0  0  0  0  0  0  0  0  0  0  0  0
    1.0198    0.7410   -3.7298 H   0  0  0  0  0  0  0  0  0  0  0  0
    1.1366   -1.9910   -4.8420 H   0  0  0  0  0  0  0  0  0  0  0  0
    2.4921   -1.3247   -3.9533 H   0  0  0  0  0  0  0  0  0  0  0  0
    0.2228    0.0242   -6.6522 H   0  0  0  0  0  0  0  0  0  0  0  0
    1.0800    1.0179   -8.7359 H   0  0  0  0  0  0  0  0  0  0  0  0
    3.5188    1.1494   -9.1408 H   0  0  0  0  0  0  0  0  0  0  0  0
    5.0925    0.2733   -7.4433 H   0  0  0  0  0  0  0  0  0  0  0  0
    4.2319   -0.7195   -5.3563 H   0  0  0  0  0  0  0  0  0  0  0  0
  1  2  1  0
  1  5  2  0
  1 34  1  0
  2  3  1  0
  2  9  1  0
  3  4  2  0
  3 35  1  0
  4  5  1  0
  5  6  1  0
  6  7  2  0
  6  8  1  0
  8 36  1  0
  8 37  1  0
  9 10  1  0
  9 12  1  0
  9 38  1  1
 10 11  1  0
 10 39  1  0
 10 40  1  0
 11 41  1  0
 12 13  1  0
 12 42  1  0
 12 43  1  0
 13 14  1  0
 13 44  1  0
 13 45  1  0
 14 15  1  0
 14 18  1  0
 15 16  2  0
 15 46  1  0
 16 17  1  0
 16 47  1  0
 17 18  2  0
 17 19  1  0
 18 22  1  0
 19 20  2  0
 19 48  1  0
 20 21  1  0
 20 49  1  0
 21 22  2  0
 21 23  1  0
 22 50  1  0
 23 24  1  0
 23 51  1  0
 24 25  2  0
 24 26  1  0
 26 27  1  0
 26 52  1  0
 27 29  1  0
 27 53  1  0
 27 54  1  0
 28 29  2  0
 28 33  1  0
 28 59  1  0
 29 30  1  0
 30 31  2  0
 30 55  1  0
 31 32  1  0
 31 56  1  0
 32 33  2  0
 32 57  1  0
 33 58  1  0
M  END
