
     RDKit          3D

 78 83  0  0  0  0  0  0  0  0999 V2000
   -9.3464    2.6334    0.0539 C   0  0  0  0  0  0  0  0  0  0  0  0
   -9.4441    1.1585    0.4781 C   0  0  0  0  0  0  0  0  0  0  0  0
   -8.4193    0.3242   -0.2103 C   0  0  0  0  0  0  0  0  0  0  0  0
   -8.7765   -0.4124   -1.7576 S   0  0  0  0  0  0  0  0  0  0  0  0
   -7.1651   -1.0333   -1.8036 C   0  0  0  0  0  0  0  0  0  0  0  0
   -6.4863   -0.6304   -0.6430 C   0  0  0  0  0  0  0  0  0  0  0  0
   -7.2256    0.1346    0.2274 N   0  0  0  0  0  0  0  0  0  0  0  0
   -5.1618   -1.0119   -0.4485 C   0  0  0  0  0  0  0  0  0  0  0  0
   -4.5240   -1.7913   -1.4040 C   0  0  0  0  0  0  0  0  0  0  0  0
   -5.2274   -2.1849   -2.5569 C   0  0  0  0  0  0  0  0  0  0  0  0
   -6.5415   -1.8164   -2.7674 C   0  0  0  0  0  0  0  0  0  0  0  0
   -3.1223   -2.2078   -1.2084 C   0  0  0  0  0  0  0  0  0  0  0  0
   -2.2433   -2.3123   -2.2886 C   0  0  0  0  0  0  0  0  0  0  0  0
   -0.9286   -2.6953   -2.1011 C   0  0  0  0  0  0  0  0  0  0  0  0
   -0.4528   -2.9973   -0.8262 C   0  0  0  0  0  0  0  0  0  0  0  0
   -1.3236   -2.8920    0.2566 C   0  0  0  0  0  0  0  0  0  0  0  0
   -2.6367   -2.5020    0.0665 C   0  0  0  0  0  0  0  0  0  0  0  0
    0.9720   -3.3951   -0.6970 C   0  0  0  0  0  0  0  0  0  0  0  0
    1.3350   -3.9804    0.4892 N   0  0  0  0  0  0  0  0  0  0  0  0
    2.9044   -4.4803    0.8236 S   0  0  2  0  0  0  0  0  0  0  0  0
    3.8562   -3.0112    0.7641 C   0  0  0  0  0  0  0  0  0  0  0  0
    1.7856   -3.2189   -1.5790 O   0  0  0  0  0  0  0  0  0  0  0  0
    3.3579   -5.3766   -0.2176 O   0  0  0  0  0  0  0  0  0  0  0  0
    2.8189   -4.9462    2.1954 O   0  0  0  0  0  0  0  0  0  0  0  0
    3.8495   -2.1724    1.8530 C   0  0  0  0  0  0  0  0  0  0  0  0
    4.6096   -1.0094    1.8448 C   0  0  0  0  0  0  0  0  0  0  0  0
    5.4192   -0.6600    0.7215 C   0  0  0  0  0  0  0  0  0  0  0  0
    5.3911   -1.5669   -0.3712 C   0  0  0  0  0  0  0  0  0  0  0  0
    4.6360   -2.7050   -0.3567 C   0  0  0  0  0  0  0  0  0  0  0  0
    4.5401   -0.1940    3.0251 N   0  0  0  0  0  0  0  0  0  0  0  0
    3.8343   -0.5506    3.9403 O   0  0  0  0  0  0  0  0  0  0  0  0
    5.1934    0.8333    3.0668 O   0  0  0  0  0  0  0  0  0  0  0  0
    6.1761    0.4347    0.6491 N   0  0  0  0  0  0  0  0  0  0  0  0
    7.0014    0.7751   -0.4892 C   0  0  0  0  0  0  0  0  0  0  0  0
    7.7236    2.0805   -0.1974 C   0  0  0  0  0  0  0  0  0  0  0  0
    8.7403    2.4788   -1.6384 S   0  0  0  0  0  0  0  0  0  0  0  0
    9.5930    3.9420   -1.1535 C   0  0  0  0  0  0  0  0  0  0  0  0
   10.4848    4.4742   -2.0879 C   0  0  0  0  0  0  0  0  0  0  0  0
   11.2016    5.6217   -1.7921 C   0  0  0  0  0  0  0  0  0  0  0  0
   11.0427    6.2561   -0.5652 C   0  0  0  0  0  0  0  0  0  0  0  0
   10.1568    5.7276    0.3608 C   0  0  0  0  0  0  0  0  0  0  0  0
    9.4308    4.5771    0.0749 C   0  0  0  0  0  0  0  0  0  0  0  0
  -12.2432    4.9734    2.2061 C   0  0  0  0  0  0  0  0  0  0  0  0
  -10.9441    4.8585    2.6834 C   0  0  0  0  0  0  0  0  0  0  0  0
  -10.0065    4.1138    1.9798 C   0  0  0  0  0  0  0  0  0  0  0  0
  -10.3499    3.4752    0.7908 C   0  0  0  0  0  0  0  0  0  0  0  0
  -11.6561    3.5966    0.3216 C   0  0  0  0  0  0  0  0  0  0  0  0
  -12.5971    4.3392    1.0219 C   0  0  0  0  0  0  0  0  0  0  0  0
   -8.3347    2.9927    0.2526 H   0  0  0  0  0  0  0  0  0  0  0  0
   -9.5087    2.7125   -1.0236 H   0  0  0  0  0  0  0  0  0  0  0  0
  -10.4464    0.7794    0.2686 H   0  0  0  0  0  0  0  0  0  0  0  0
   -9.2817    1.0735    1.5537 H   0  0  0  0  0  0  0  0  0  0  0  0
   -4.6419   -0.6759    0.4396 H   0  0  0  0  0  0  0  0  0  0  0  0
   -4.7417   -2.8132   -3.2920 H   0  0  0  0  0  0  0  0  0  0  0  0
   -7.0657   -2.1402   -3.6563 H   0  0  0  0  0  0  0  0  0  0  0  0
   -2.5799   -2.0706   -3.2881 H   0  0  0  0  0  0  0  0  0  0  0  0
   -0.2672   -2.7590   -2.9543 H   0  0  0  0  0  0  0  0  0  0  0  0
   -1.0011   -3.0925    1.2699 H   0  0  0  0  0  0  0  0  0  0  0  0
   -3.2927   -2.4461    0.9251 H   0  0  0  0  0  0  0  0  0  0  0  0
    0.6654   -4.1746    1.2227 H   0  0  0  0  0  0  0  0  0  0  0  0
    3.2543   -2.4084    2.7238 H   0  0  0  0  0  0  0  0  0  0  0  0
    5.9881   -1.3582   -1.2466 H   0  0  0  0  0  0  0  0  0  0  0  0
    4.6583   -3.3633   -1.2131 H   0  0  0  0  0  0  0  0  0  0  0  0
    6.1768    1.0521    1.4453 H   0  0  0  0  0  0  0  0  0  0  0  0
    7.7308   -0.0174   -0.6792 H   0  0  0  0  0  0  0  0  0  0  0  0
    6.3844    0.8801   -1.3857 H   0  0  0  0  0  0  0  0  0  0  0  0
    7.0021    2.8796   -0.0183 H   0  0  0  0  0  0  0  0  0  0  0  0
    8.3569    1.9685    0.6840 H   0  0  0  0  0  0  0  0  0  0  0  0
   10.6205    3.9918   -3.0486 H   0  0  0  0  0  0  0  0  0  0  0  0
   11.8888    6.0214   -2.5263 H   0  0  0  0  0  0  0  0  0  0  0  0
   11.6032    7.1529   -0.3367 H   0  0  0  0  0  0  0  0  0  0  0  0
   10.0220    6.2090    1.3209 H   0  0  0  0  0  0  0  0  0  0  0  0
    8.7479    4.1935    0.8200 H   0  0  0  0  0  0  0  0  0  0  0  0
  -10.6586    5.3512    3.6040 H   0  0  0  0  0  0  0  0  0  0  0  0
   -8.9934    4.0324    2.3569 H   0  0  0  0  0  0  0  0  0  0  0  0
  -11.9384    3.1095   -0.6048 H   0  0  0  0  0  0  0  0  0  0  0  0
  -13.6068    4.4254    0.6411 H   0  0  0  0  0  0  0  0  0  0  0  0
  -12.9740    5.5571    2.7505 H   0  0  0  0  0  0  0  0  0  0  0  0
  1  2  1  0
  1 46  1  0
  1 49  1  0
  1 50  1  0
  2  3  1  0
  2 51  1  0
  2 52  1  0
  3  4  1  0
  3  7  2  0
  4  5  1  0
  5  6  2  0
  5 11  1  0
  6  7  1  0
  6  8  1  0
  8  9  2  0
  8 53  1  0
  9 10  1  0
  9 12  1  0
 10 11  2  0
 10 54  1  0
 11 55  1  0
 12 13  2  0
 12 17  1  0
 13 14  1  0
 13 56  1  0
 14 15  2  0
 14 57  1  0
 15 16  1  0
 15 18  1  0
 16 17  2  0
 16 58  1  0
 17 59  1  0
 18 19  1  0
 18 22  2  0
 20 19  1  6
 19 60  1  0
 20 21  1  0
 20 23  2  0
 20 24  2  0
 21 25  2  0
 21 29  1  0
 25 26  1  0
 25 61  1  0
 26 27  2  0
 26 30  1  0
 27 28  1  0
 27 33  1  0
 28 29  2  0
 28 62  1  0
 29 63  1  0
 30 31  1  0
 30 32  2  0
 33 34  1  0
 33 64  1  0
 34 35  1  0
 34 65  1  0
 34 66  1  0
 35 36  1  0
 35 67  1  0
 35 68  1  0
 36 37  1  0
 37 38  2  0
 37 42  1  0
 38 39  1  0
 38 69  1  0
 39 40  2  0
 39 70  1  0
 40 41  1  0
 40 71  1  0
 41 42  2  0
 41 72  1  0
 42 73  1  0
 43 44  2  0
 43 48  1  0
 43 78  1  0
 44 45  1  0
 44 74  1  0
 45 46  2  0
 45 75  1  0
 46 47  1  0
 47 48  2  0
 47 76  1  0
 48 77  1  0
M  CHG  2  30   1  31  -1
M  END
