
     RDKit          3D

 88 93  0  0  0  0  0  0  0  0999 V2000
   -4.1739    1.6544    0.9036 C   0  0  0  0  0  0  0  0  0  0  0  0
   -5.2387    2.5372    1.0390 C   0  0  0  0  0  0  0  0  0  0  0  0
   -5.7625    2.8212    2.2944 C   0  0  0  0  0  0  0  0  0  0  0  0
   -5.2253    2.2373    3.4320 C   0  0  0  0  0  0  0  0  0  0  0  0
   -4.1623    1.3673    3.2727 C   0  0  0  0  0  0  0  0  0  0  0  0
   -3.6260    1.0624    2.0396 C   0  0  0  0  0  0  0  0  0  0  0  0
    4.1780    1.6710   -0.9216 C   0  0  0  0  0  0  0  0  0  0  0  0
    3.6311    1.0729   -2.0551 C   0  0  0  0  0  0  0  0  0  0  0  0
    4.1577    1.3839   -3.2907 C   0  0  0  0  0  0  0  0  0  0  0  0
    5.2102    2.2659   -3.4548 C   0  0  0  0  0  0  0  0  0  0  0  0
    5.7463    2.8558   -2.3199 C   0  0  0  0  0  0  0  0  0  0  0  0
    5.2319    2.5658   -1.0619 C   0  0  0  0  0  0  0  0  0  0  0  0
    2.2388    1.3313    0.4223 O   0  0  0  0  0  0  0  0  0  0  0  0
    1.6153    0.2916    1.1129 C   0  0  2  0  0  0  0  0  0  0  0  0
    0.1208    0.3246    0.7583 C   0  0  1  0  0  0  0  0  0  0  0  0
   -0.1052    0.3171   -0.7585 C   0  0  2  0  0  0  0  0  0  0  0  0
   -1.5995    0.2762   -1.1127 C   0  0  2  0  0  0  0  0  0  0  0  0
   -1.7397    0.4555   -2.6276 C   0  0  0  0  0  0  0  0  0  0  0  0
   -1.6120    1.5569   -3.1372 O   0  0  0  0  0  0  0  0  0  0  0  0
   -1.9941   -0.6689   -3.3123 N   0  0  0  0  0  0  0  0  0  0  0  0
   -2.2262    1.3200   -0.4315 O   0  0  0  0  0  0  0  0  0  0  0  0
   -3.6367    1.3046   -0.4572 C   0  0  0  0  0  0  0  0  0  0  0  0
    0.5753   -0.7214   -1.4204 O   0  0  0  0  0  0  0  0  0  0  0  0
   -0.5569   -0.7102    1.4293 O   0  0  0  0  0  0  0  0  0  0  0  0
    2.0066   -0.6353    3.3196 N   0  0  0  0  0  0  0  0  0  0  0  0
    2.0421   -0.6892    4.7550 C   0  0  1  0  0  0  0  0  0  0  0  0
    0.8032   -1.2438    5.4175 C   0  0  0  0  0  0  0  0  0  0  0  0
    1.1646   -1.9260    6.5743 C   0  0  0  0  0  0  0  0  0  0  0  0
   -0.5221   -1.1227    5.0408 C   0  0  0  0  0  0  0  0  0  0  0  0
   -1.4986   -1.6980    5.8498 C   0  0  0  0  0  0  0  0  0  0  0  0
   -1.1434   -2.3773    7.0097 C   0  0  0  0  0  0  0  0  0  0  0  0
    3.1556   -1.5903    5.3166 C   0  0  2  0  0  0  0  0  0  0  0  0
    3.1959   -2.7446    4.5099 O   0  0  0  0  0  0  0  0  0  0  0  0
    0.1940   -2.4978    7.3796 C   0  0  0  0  0  0  0  0  0  0  0  0
    2.6597   -1.9042    6.7361 C   0  0  0  0  0  0  0  0  0  0  0  0
   -2.0341   -0.7309   -4.7473 C   0  0  1  0  0  0  0  0  0  0  0  0
   -0.7919   -1.2751   -5.4126 C   0  0  0  0  0  0  0  0  0  0  0  0
   -1.1511   -1.9658   -6.5651 C   0  0  0  0  0  0  0  0  0  0  0  0
    0.5336   -1.1381   -5.0424 C   0  0  0  0  0  0  0  0  0  0  0  0
    1.5127   -1.7061   -5.8535 C   0  0  0  0  0  0  0  0  0  0  0  0
    1.1597   -2.3937   -7.0092 C   0  0  0  0  0  0  0  0  0  0  0  0
   -3.1399   -1.6468   -5.2996 C   0  0  2  0  0  0  0  0  0  0  0  0
   -3.1635   -2.7982   -4.4881 O   0  0  0  0  0  0  0  0  0  0  0  0
   -0.1779   -2.5302   -7.3725 C   0  0  0  0  0  0  0  0  0  0  0  0
   -2.6471   -1.9608   -6.7202 C   0  0  0  0  0  0  0  0  0  0  0  0
    3.6249    0.8029   -4.3805 F   0  0  0  0  0  0  0  0  0  0  0  0
   -3.6282    0.7919    4.3650 F   0  0  0  0  0  0  0  0  0  0  0  0
   -5.6620    3.0091    0.1611 H   0  0  0  0  0  0  0  0  0  0  0  0
   -6.5915    3.5096    2.3892 H   0  0  0  0  0  0  0  0  0  0  0  0
   -5.6200    2.4524    4.4160 H   0  0  0  0  0  0  0  0  0  0  0  0
   -2.7973    0.3690    1.9672 H   0  0  0  0  0  0  0  0  0  0  0  0
    2.8103    0.3705   -1.9781 H   0  0  0  0  0  0  0  0  0  0  0  0
    5.5977    2.4854   -4.4407 H   0  0  0  0  0  0  0  0  0  0  0  0
    6.5671    3.5534   -2.4186 H   0  0  0  0  0  0  0  0  0  0  0  0
    5.6540    3.0422   -0.1859 H   0  0  0  0  0  0  0  0  0  0  0  0
    4.0337    2.0144    1.1904 H   0  0  0  0  0  0  0  0  0  0  0  0
    4.0225    0.3194    0.7149 H   0  0  0  0  0  0  0  0  0  0  0  0
    2.0399   -0.6797    0.8146 H   0  0  0  0  0  0  0  0  0  0  0  0
   -0.2969    1.2561    1.1466 H   0  0  0  0  0  0  0  0  0  0  0  0
    0.3090    1.2465   -1.1557 H   0  0  0  0  0  0  0  0  0  0  0  0
   -2.0217   -0.6938   -0.8060 H   0  0  0  0  0  0  0  0  0  0  0  0
   -2.0855   -1.5370   -2.8078 H   0  0  0  0  0  0  0  0  0  0  0  0
   -4.0154    2.0090   -1.2053 H   0  0  0  0  0  0  0  0  0  0  0  0
   -4.0098    0.3116   -0.7393 H   0  0  0  0  0  0  0  0  0  0  0  0
    0.2071   -1.5765   -1.1714 H   0  0  0  0  0  0  0  0  0  0  0  0
   -0.1766   -1.5657    1.2005 H   0  0  0  0  0  0  0  0  0  0  0  0
    2.0997   -1.5061    2.8198 H   0  0  0  0  0  0  0  0  0  0  0  0
    2.2153    0.3272    5.1192 H   0  0  0  0  0  0  0  0  0  0  0  0
   -0.7988   -0.6155    4.1250 H   0  0  0  0  0  0  0  0  0  0  0  0
   -2.5412   -1.6190    5.5706 H   0  0  0  0  0  0  0  0  0  0  0  0
   -1.9129   -2.8230    7.6272 H   0  0  0  0  0  0  0  0  0  0  0  0
    4.1215   -1.0740    5.3215 H   0  0  0  0  0  0  0  0  0  0  0  0
    3.9070   -3.3117    4.8224 H   0  0  0  0  0  0  0  0  0  0  0  0
    0.4650   -3.0375    8.2790 H   0  0  0  0  0  0  0  0  0  0  0  0
    3.0787   -2.8323    7.1302 H   0  0  0  0  0  0  0  0  0  0  0  0
    2.9597   -1.1033    7.4196 H   0  0  0  0  0  0  0  0  0  0  0  0
   -2.2201    0.2814   -5.1167 H   0  0  0  0  0  0  0  0  0  0  0  0
    0.8089   -0.6238   -4.1302 H   0  0  0  0  0  0  0  0  0  0  0  0
    2.5555   -1.6149   -5.5791 H   0  0  0  0  0  0  0  0  0  0  0  0
    1.9312   -2.8333   -7.6284 H   0  0  0  0  0  0  0  0  0  0  0  0
   -4.1115   -1.1415   -5.3020 H   0  0  0  0  0  0  0  0  0  0  0  0
   -3.8767   -3.3694   -4.7881 H   0  0  0  0  0  0  0  0  0  0  0  0
   -0.4470   -3.0762   -8.2687 H   0  0  0  0  0  0  0  0  0  0  0  0
   -3.0580   -2.8948   -7.1089 H   0  0  0  0  0  0  0  0  0  0  0  0
   -2.9586   -1.1656   -7.4051 H   0  0  0  0  0  0  0  0  0  0  0  0
    1.7558    0.4843    2.6259 C   0  0  0  0  0  0  0  0  0  0  0  0
    1.6292    1.5904    3.1255 O   0  0  0  0  0  0  0  0  0  0  0  0
    3.6496    1.3146    0.4407 C   0  0  0  0  0  0  0  0  0  0  0  0
  1  2  2  0
  1  6  1  0
  1 22  1  0
  2  3  1  0
  2 48  1  0
  3  4  2  0
  3 49  1  0
  4  5  1  0
  4 50  1  0
  5  6  2  0
  5 47  1  0
  6 51  1  0
  7  8  2  0
  7 12  1  0
  7 88  1  0
  8  9  1  0
  8 52  1  0
  9 10  2  0
  9 46  1  0
 10 11  1  0
 10 53  1  0
 11 12  2  0
 11 54  1  0
 12 55  1  0
 88 13  1  0
 88 56  1  0
 88 57  1  0
 13 14  1  0
 14 15  1  0
 14 86  1  0
 14 58  1  6
 15 16  1  0
 15 24  1  0
 15 59  1  1
 16 17  1  0
 16 23  1  0
 16 60  1  6
 17 18  1  0
 17 21  1  0
 17 61  1  1
 18 19  2  0
 18 20  1  0
 20 36  1  0
 20 62  1  0
 21 22  1  0
 22 63  1  0
 22 64  1  0
 23 65  1  0
 24 66  1  0
 86 87  2  0
 86 25  1  0
 25 26  1  0
 25 67  1  0
 26 27  1  0
 26 32  1  0
 26 68  1  1
 27 28  1  0
 27 29  2  0
 28 34  2  0
 28 35  1  0
 29 30  1  0
 29 69  1  0
 30 31  2  0
 30 70  1  0
 31 34  1  0
 31 71  1  0
 32 33  1  0
 32 35  1  0
 32 72  1  1
 33 73  1  0
 34 74  1  0
 35 75  1  0
 35 76  1  0
 36 37  1  0
 36 42  1  0
 36 77  1  6
 37 38  1  0
 37 39  2  0
 38 44  2  0
 38 45  1  0
 39 40  1  0
 39 78  1  0
 40 41  2  0
 40 79  1  0
 41 44  1  0
 41 80  1  0
 42 43  1  0
 42 45  1  0
 42 81  1  6
 43 82  1  0
 44 83  1  0
 45 84  1  0
 45 85  1  0
M  END
