
     RDKit          3D

 44 47  0  0  0  0  0  0  0  0999 V2000
   -0.3327    0.3317   -0.2898 N   0  0  0  0  0  0  0  0  0  0  0  0
    2.4024    1.0604   -0.1727 N   0  0  0  0  0  0  0  0  0  0  0  0
   -4.0152    0.9892   -0.8113 C   0  0  1  0  0  0  0  0  0  0  0  0
   -2.5064    1.1699   -0.9666 C   0  0  0  0  0  0  0  0  0  0  0  0
   -1.7473    0.0090   -0.3250 C   0  0  2  0  0  0  0  0  0  0  0  0
   -2.3296   -0.3283    1.0512 C   0  0  0  0  0  0  0  0  0  0  0  0
    0.6292   -0.6263   -0.1368 C   0  0  0  0  0  0  0  0  0  0  0  0
    2.5526   -2.5744    0.1692 C   0  0  0  0  0  0  0  0  0  0  0  0
    4.7044    0.4806    0.1458 C   0  0  0  0  0  0  0  0  0  0  0  0
    3.6924    1.5125   -0.0926 C   0  0  0  0  0  0  0  0  0  0  0  0
    3.9423    2.7045   -0.2266 O   0  0  0  0  0  0  0  0  0  0  0  0
    6.1376    0.9000    0.2637 C   0  0  0  0  0  0  0  0  0  0  0  0
    4.3279   -0.8139    0.2297 C   0  0  0  0  0  0  0  0  0  0  0  0
    2.0004   -0.2466   -0.0613 C   0  0  0  0  0  0  0  0  0  0  0  0
    2.9616   -1.2292    0.1215 C   0  0  0  0  0  0  0  0  0  0  0  0
    1.2187   -2.8437    0.0232 C   0  0  0  0  0  0  0  0  0  0  0  0
    0.2803   -1.8957   -0.1125 N   0  0  0  0  0  0  0  0  0  0  0  0
   -3.8559   -0.3646    1.0003 C   0  0  2  0  0  0  0  0  0  0  0  0
   -4.4877   -0.3842   -1.3437 C   0  0  0  0  0  0  0  0  0  0  0  0
   -4.3706   -1.3086   -0.1135 C   0  0  0  0  0  0  0  0  0  0  0  0
   -4.3237    0.9671    0.6177 N   0  0  0  0  0  0  0  0  0  0  0  0
   -5.7323    1.1744    0.8923 C   0  0  0  0  0  0  0  0  0  0  0  0
   -0.1393    1.2284    0.1302 H   0  0  0  0  0  0  0  0  0  0  0  0
   -4.5304    1.8220   -1.2956 H   0  0  0  0  0  0  0  0  0  0  0  0
   -2.2391    1.2473   -2.0237 H   0  0  0  0  0  0  0  0  0  0  0  0
   -2.2194    2.1127   -0.4891 H   0  0  0  0  0  0  0  0  0  0  0  0
   -1.8480   -0.8690   -0.9669 H   0  0  0  0  0  0  0  0  0  0  0  0
   -1.9355   -1.2877    1.3923 H   0  0  0  0  0  0  0  0  0  0  0  0
   -2.0225    0.4318    1.7757 H   0  0  0  0  0  0  0  0  0  0  0  0
    3.2761   -3.3667    0.3034 H   0  0  0  0  0  0  0  0  0  0  0  0
    6.2511    1.9761    0.1668 H   0  0  0  0  0  0  0  0  0  0  0  0
    6.5510    0.6045    1.2285 H   0  0  0  0  0  0  0  0  0  0  0  0
    6.7463    0.4285   -0.5085 H   0  0  0  0  0  0  0  0  0  0  0  0
    5.0794   -1.5807    0.3824 H   0  0  0  0  0  0  0  0  0  0  0  0
    0.8593   -3.8662    0.0282 H   0  0  0  0  0  0  0  0  0  0  0  0
   -4.2461   -0.6322    1.9848 H   0  0  0  0  0  0  0  0  0  0  0  0
   -5.5194   -0.3267   -1.6939 H   0  0  0  0  0  0  0  0  0  0  0  0
   -3.8884   -0.7232   -2.1907 H   0  0  0  0  0  0  0  0  0  0  0  0
   -3.6984   -2.1522   -0.2790 H   0  0  0  0  0  0  0  0  0  0  0  0
   -5.3407   -1.7297    0.1546 H   0  0  0  0  0  0  0  0  0  0  0  0
   -5.9079    1.1122    1.9671 H   0  0  0  0  0  0  0  0  0  0  0  0
   -6.0236    2.1747    0.5691 H   0  0  0  0  0  0  0  0  0  0  0  0
   -6.4099    0.4594    0.4048 H   0  0  0  0  0  0  0  0  0  0  0  0
    1.7201    1.7704   -0.3995 H   0  0  0  0  0  0  0  0  0  0  0  0
 12  9  1  0
 13  9  2  0
 13 15  1  0
  8 15  1  0
  8 16  2  0
  9 10  1  0
 15 14  2  0
 16 17  1  0
 10 11  2  0
 10  2  1  0
 14  2  1  0
 14  7  1  0
 17  7  2  0
  7  1  1  0
  1  5  1  0
  6  5  1  0
  6 18  1  0
  5  4  1  0
 18 20  1  0
 18 21  1  0
 20 19  1  0
 21  3  1  0
 21 22  1  0
  4  3  1  0
 19  3  1  0
  1 23  1  0
  2 44  1  0
  3 24  1  6
  4 25  1  0
  4 26  1  0
  5 27  1  6
  6 28  1  0
  6 29  1  0
  8 30  1  0
 12 31  1  0
 12 32  1  0
 12 33  1  0
 13 34  1  0
 16 35  1  0
 18 36  1  1
 19 37  1  0
 19 38  1  0
 20 39  1  0
 20 40  1  0
 22 41  1  0
 22 42  1  0
 22 43  1  0
M  END
