
     RDKit          3D

 49 49  0  0  0  0  0  0  0  0999 V2000
    1.8162   -2.2156   -2.5515 C   0  0  2  0  0  0  0  0  0  0  0  0
    3.0943   -2.5602   -2.5959 F   0  0  0  0  0  0  0  0  0  0  0  0
    1.1070   -3.2825   -2.1911 F   0  0  0  0  0  0  0  0  0  0  0  0
    1.4314   -1.8715   -3.7875 F   0  0  0  0  0  0  0  0  0  0  0  0
    1.5861   -1.0316   -1.5956 C   0  0  0  0  0  0  0  0  0  0  0  0
    2.5220   -0.5315   -1.0444 O   0  0  0  0  0  0  0  0  0  0  0  0
    0.1594   -0.5132   -1.4808 C   0  0  2  0  0  0  0  0  0  0  0  0
   -0.0093    0.7274   -2.3753 C   0  0  0  0  0  0  0  0  0  0  0  0
   -1.3969    1.2991   -2.2644 C   0  0  0  0  0  0  0  0  0  0  0  0
   -1.6244    2.4814   -1.5656 C   0  0  0  0  0  0  0  0  0  0  0  0
   -2.9104    2.9921   -1.4328 C   0  0  0  0  0  0  0  0  0  0  0  0
   -3.9848    2.3242   -2.0014 C   0  0  0  0  0  0  0  0  0  0  0  0
   -3.7669    1.1455   -2.7059 C   0  0  0  0  0  0  0  0  0  0  0  0
   -2.4829    0.6379   -2.8355 C   0  0  0  0  0  0  0  0  0  0  0  0
   -0.1197   -0.1755   -0.1126 N   0  0  0  0  0  0  0  0  0  0  0  0
   -0.0172   -1.1105    0.8455 C   0  0  0  0  0  0  0  0  0  0  0  0
    0.3583   -2.2410    0.5805 O   0  0  0  0  0  0  0  0  0  0  0  0
   -0.4832   -0.7253    2.2519 C   0  0  1  0  0  0  0  0  0  0  0  0
    0.3309   -1.4065    3.2263 N   0  0  0  0  0  0  0  0  0  0  0  0
    1.6699   -1.2819    3.2506 C   0  0  0  0  0  0  0  0  0  0  0  0
    2.2654   -0.5579    2.4657 O   0  0  0  0  0  0  0  0  0  0  0  0
    2.3806   -2.1223    4.2796 C   0  0  0  0  0  0  0  0  0  0  0  0
   -0.6157    0.7794    2.5113 C   0  0  0  0  0  0  0  0  0  0  0  0
   -1.0085    1.1429    3.9443 C   0  0  1  0  0  0  0  0  0  0  0  0
   -1.0828    2.6608    4.0778 C   0  0  0  0  0  0  0  0  0  0  0  0
   -2.3295    0.5042    4.3616 C   0  0  0  0  0  0  0  0  0  0  0  0
   -0.5391   -1.2856   -1.8176 H   0  0  0  0  0  0  0  0  0  0  0  0
    0.7321    1.4786   -2.0933 H   0  0  0  0  0  0  0  0  0  0  0  0
    0.1991    0.4486   -3.4089 H   0  0  0  0  0  0  0  0  0  0  0  0
   -0.7885    3.0155   -1.1275 H   0  0  0  0  0  0  0  0  0  0  0  0
   -3.0689    3.9127   -0.8865 H   0  0  0  0  0  0  0  0  0  0  0  0
   -4.9870    2.7198   -1.9005 H   0  0  0  0  0  0  0  0  0  0  0  0
   -4.5997    0.6222   -3.1575 H   0  0  0  0  0  0  0  0  0  0  0  0
   -2.3250   -0.2792   -3.3916 H   0  0  0  0  0  0  0  0  0  0  0  0
   -0.3702    0.7721    0.1134 H   0  0  0  0  0  0  0  0  0  0  0  0
   -1.4813   -1.1654    2.3334 H   0  0  0  0  0  0  0  0  0  0  0  0
   -0.1201   -2.0324    3.8720 H   0  0  0  0  0  0  0  0  0  0  0  0
    3.2733   -1.6074    4.6275 H   0  0  0  0  0  0  0  0  0  0  0  0
    1.7549   -2.3664    5.1364 H   0  0  0  0  0  0  0  0  0  0  0  0
    2.6960   -3.0600    3.8188 H   0  0  0  0  0  0  0  0  0  0  0  0
   -1.3930    1.1771    1.8478 H   0  0  0  0  0  0  0  0  0  0  0  0
    0.3178    1.2865    2.2577 H   0  0  0  0  0  0  0  0  0  0  0  0
   -0.2238    0.7830    4.6173 H   0  0  0  0  0  0  0  0  0  0  0  0
   -1.3143    2.9555    5.1024 H   0  0  0  0  0  0  0  0  0  0  0  0
   -0.1388    3.1336    3.8012 H   0  0  0  0  0  0  0  0  0  0  0  0
   -1.8620    3.0718    3.4310 H   0  0  0  0  0  0  0  0  0  0  0  0
   -3.1351    0.7954    3.6826 H   0  0  0  0  0  0  0  0  0  0  0  0
   -2.2823   -0.5859    4.3730 H   0  0  0  0  0  0  0  0  0  0  0  0
   -2.6126    0.8213    5.3664 H   0  0  0  0  0  0  0  0  0  0  0  0
  1  2  1  6
  1  3  1  0
  1  4  1  0
  1  5  1  0
  5  6  2  0
  5  7  1  0
  7  8  1  0
  7 15  1  0
  7 27  1  6
  8  9  1  0
  8 28  1  0
  8 29  1  0
  9 10  2  0
  9 14  1  0
 10 11  1  0
 10 30  1  0
 11 12  2  0
 11 31  1  0
 12 13  1  0
 12 32  1  0
 13 14  2  0
 13 33  1  0
 14 34  1  0
 15 16  1  0
 15 35  1  0
 16 17  2  0
 16 18  1  0
 18 19  1  0
 18 23  1  0
 18 36  1  6
 19 20  1  0
 19 37  1  0
 20 21  2  0
 20 22  1  0
 22 38  1  0
 22 39  1  0
 22 40  1  0
 23 24  1  0
 23 41  1  0
 23 42  1  0
 24 25  1  0
 24 26  1  0
 24 43  1  1
 25 44  1  0
 25 45  1  0
 25 46  1  0
 26 47  1  0
 26 48  1  0
 26 49  1  0
M  END
