
     RDKit          3D

 65 69  0  0  0  0  0  0  0  0999 V2000
    5.7733   -4.0547   -1.8598 C   0  0  0  0  0  0  0  0  0  0  0  0
    6.5999   -0.3325   -0.1008 N   0  0  0  0  0  0  0  0  0  0  0  0
    6.4383   -1.6672   -0.3483 O   0  0  0  0  0  0  0  0  0  0  0  0
    4.7784   -3.3346   -0.9513 C   0  0  1  0  0  0  0  0  0  0  0  0
   -7.6909   -0.4081   -1.1635 N   0  0  0  0  0  0  0  0  0  0  0  0
    2.3215   -0.8262    0.2859 O   0  0  0  0  0  0  0  0  0  0  0  0
    4.5682   -4.0920    0.3635 C   0  0  0  0  0  0  0  0  0  0  0  0
  -10.2391    0.5919    1.0963 O   0  0  0  0  0  0  0  0  0  0  0  0
    5.1741   -1.9248   -0.6797 C   0  0  0  0  0  0  0  0  0  0  0  0
  -10.3025   -0.1005   -1.0240 O   0  0  0  0  0  0  0  0  0  0  0  0
    5.4305    0.2081   -0.2787 C   0  0  0  0  0  0  0  0  0  0  0  0
    4.4677   -0.7648   -0.6591 C   0  0  0  0  0  0  0  0  0  0  0  0
    3.0256   -0.5561   -0.9199 C   0  0  0  0  0  0  0  0  0  0  0  0
    0.9883   -0.6483    0.3094 C   0  0  0  0  0  0  0  0  0  0  0  0
    0.3505   -0.9271    1.5201 C   0  0  0  0  0  0  0  0  0  0  0  0
   -1.0149   -0.7681    1.6402 C   0  0  0  0  0  0  0  0  0  0  0  0
   -1.7943   -0.3326    0.5635 C   0  0  0  0  0  0  0  0  0  0  0  0
   -1.1433   -0.0599   -0.6364 C   0  0  0  0  0  0  0  0  0  0  0  0
    0.2295   -0.2109   -0.7737 C   0  0  0  0  0  0  0  0  0  0  0  0
   -3.2521   -0.1685    0.6979 C   0  0  0  0  0  0  0  0  0  0  0  0
   -3.8065    0.2886    1.9227 C   0  0  0  0  0  0  0  0  0  0  0  0
   -5.1522    0.4594    2.0833 C   0  0  0  0  0  0  0  0  0  0  0  0
   -6.0334    0.1810    1.0161 C   0  0  0  0  0  0  0  0  0  0  0  0
   -7.4309    0.3363    1.1003 C   0  0  0  0  0  0  0  0  0  0  0  0
   -8.2012    0.0365    0.0080 C   0  0  0  0  0  0  0  0  0  0  0  0
   -6.4022   -0.5552   -1.2591 C   0  0  0  0  0  0  0  0  0  0  0  0
   -5.4940   -0.2757   -0.2064 C   0  0  0  0  0  0  0  0  0  0  0  0
   -4.1050   -0.4466   -0.3467 C   0  0  0  0  0  0  0  0  0  0  0  0
   -9.6771    0.2074    0.0985 C   0  0  0  0  0  0  0  0  0  0  0  0
    5.2094    1.6571   -0.1047 C   0  0  0  0  0  0  0  0  0  0  0  0
    4.8195    2.1443    1.1474 C   0  0  0  0  0  0  0  0  0  0  0  0
    4.5901    3.5099    1.2854 C   0  0  0  0  0  0  0  0  0  0  0  0
    4.7408    4.3658    0.2052 C   0  0  0  0  0  0  0  0  0  0  0  0
    5.1226    3.8676   -1.0308 C   0  0  0  0  0  0  0  0  0  0  0  0
    5.3618    2.5078   -1.2049 C   0  0  0  0  0  0  0  0  0  0  0  0
    4.6529    1.2201    2.3190 C   0  0  0  0  0  0  0  0  0  0  0  0
    5.7806    1.9731   -2.5440 C   0  0  0  0  0  0  0  0  0  0  0  0
    5.3831   -5.0395   -2.1156 H   0  0  0  0  0  0  0  0  0  0  0  0
    5.9421   -3.5109   -2.7890 H   0  0  0  0  0  0  0  0  0  0  0  0
    6.7357   -4.1993   -1.3682 H   0  0  0  0  0  0  0  0  0  0  0  0
    3.8157   -3.2846   -1.4682 H   0  0  0  0  0  0  0  0  0  0  0  0
    5.4965   -4.1602    0.9321 H   0  0  0  0  0  0  0  0  0  0  0  0
    3.8200   -3.6032    0.9873 H   0  0  0  0  0  0  0  0  0  0  0  0
    4.2254   -5.1064    0.1579 H   0  0  0  0  0  0  0  0  0  0  0  0
  -11.2555    0.0324   -0.9101 H   0  0  0  0  0  0  0  0  0  0  0  0
    2.6757   -1.2170   -1.7200 H   0  0  0  0  0  0  0  0  0  0  0  0
    2.8480    0.4752   -1.2428 H   0  0  0  0  0  0  0  0  0  0  0  0
    0.9336   -1.2746    2.3637 H   0  0  0  0  0  0  0  0  0  0  0  0
   -1.4820   -1.0095    2.5869 H   0  0  0  0  0  0  0  0  0  0  0  0
   -1.7055    0.3031   -1.4877 H   0  0  0  0  0  0  0  0  0  0  0  0
    0.6838    0.0292   -1.7253 H   0  0  0  0  0  0  0  0  0  0  0  0
   -3.1441    0.5268    2.7451 H   0  0  0  0  0  0  0  0  0  0  0  0
   -5.5494    0.8189    3.0238 H   0  0  0  0  0  0  0  0  0  0  0  0
   -7.8808    0.6904    2.0183 H   0  0  0  0  0  0  0  0  0  0  0  0
   -6.0129   -0.9132   -2.2079 H   0  0  0  0  0  0  0  0  0  0  0  0
   -3.7207   -0.8234   -1.2871 H   0  0  0  0  0  0  0  0  0  0  0  0
    4.2871    3.9035    2.2478 H   0  0  0  0  0  0  0  0  0  0  0  0
    4.5580    5.4258    0.3268 H   0  0  0  0  0  0  0  0  0  0  0  0
    5.2359    4.5404   -1.8719 H   0  0  0  0  0  0  0  0  0  0  0  0
    5.5949    0.7382    2.5858 H   0  0  0  0  0  0  0  0  0  0  0  0
    4.2980    1.7616    3.1946 H   0  0  0  0  0  0  0  0  0  0  0  0
    3.9352    0.4263    2.1053 H   0  0  0  0  0  0  0  0  0  0  0  0
    5.1125    1.1842   -2.8941 H   0  0  0  0  0  0  0  0  0  0  0  0
    5.7831    2.7609   -3.2952 H   0  0  0  0  0  0  0  0  0  0  0  0
    6.7828    1.5438   -2.5059 H   0  0  0  0  0  0  0  0  0  0  0  0
  4  1  1  0
  1 38  1  0
  1 39  1  0
  1 40  1  0
  3  2  1  0
 11  2  2  0
  9  3  1  0
  4  7  1  0
  4  9  1  0
  4 41  1  6
 25  5  2  0
  5 26  1  0
 14  6  1  0
  6 13  1  0
  7 42  1  0
  7 43  1  0
  7 44  1  0
  8 29  2  0
  9 12  2  0
 10 29  1  0
 10 45  1  0
 12 11  1  0
 11 30  1  0
 13 12  1  0
 13 46  1  0
 13 47  1  0
 19 14  1  0
 15 14  2  0
 16 15  1  0
 15 48  1  0
 17 16  2  0
 16 49  1  0
 20 17  1  0
 17 18  1  0
 18 19  2  0
 18 50  1  0
 19 51  1  0
 21 20  1  0
 28 20  2  0
 22 21  2  0
 21 52  1  0
 23 22  1  0
 22 53  1  0
 24 23  2  0
 23 27  1  0
 25 24  1  0
 24 54  1  0
 29 25  1  0
 26 27  2  0
 26 55  1  0
 27 28  1  0
 28 56  1  0
 30 31  2  0
 30 35  1  0
 36 31  1  0
 31 32  1  0
 32 33  2  0
 32 57  1  0
 34 33  1  0
 33 58  1  0
 35 34  2  0
 34 59  1  0
 37 35  1  0
 36 60  1  0
 36 61  1  0
 36 62  1  0
 37 63  1  0
 37 64  1  0
 37 65  1  0
M  END
