
     RDKit          3D

 23 23  0  0  0  0  0  0  0  0999 V2000
   -0.3088   -1.2972    0.3644 N   0  0  0  0  0  0  0  0  0  0  0  0
    1.0927   -1.4466    0.6784 C   0  0  2  0  0  0  0  0  0  0  0  0
    1.5266   -2.9098    0.7298 C   0  0  0  0  0  0  0  0  0  0  0  0
    1.1014   -3.8106    1.4581 O   0  0  0  0  0  0  0  0  0  0  0  0
    2.5087   -3.2327   -0.1508 O   0  0  0  0  0  0  0  0  0  0  0  0
    1.4559   -0.7933    2.0288 C   0  0  0  0  0  0  0  0  0  0  0  0
    2.8751   -1.0320    2.4046 C   0  0  0  0  0  0  0  0  0  0  0  0
    3.1911   -1.8228    3.5162 C   0  0  0  0  0  0  0  0  0  0  0  0
    3.9101   -0.4652    1.6489 C   0  0  0  0  0  0  0  0  0  0  0  0
    4.5159   -2.0504    3.8742 C   0  0  0  0  0  0  0  0  0  0  0  0
    5.2406   -0.6800    1.9894 C   0  0  0  0  0  0  0  0  0  0  0  0
    5.5479   -1.4772    3.1086 C   0  0  0  0  0  0  0  0  0  0  0  0
    6.8407   -1.6925    3.4488 F   0  0  0  0  0  0  0  0  0  0  0  0
   -0.5022   -1.6019   -0.5682 H   0  0  0  0  0  0  0  0  0  0  0  0
   -0.8845   -1.7968    1.0131 H   0  0  0  0  0  0  0  0  0  0  0  0
    1.6839   -0.9401   -0.1434 H   0  0  0  0  0  0  0  0  0  0  0  0
    2.7350   -4.1741   -0.0646 H   0  0  0  0  0  0  0  0  0  0  0  0
    1.2848    0.3159    1.9505 H   0  0  0  0  0  0  0  0  0  0  0  0
    0.7667   -1.1881    2.8227 H   0  0  0  0  0  0  0  0  0  0  0  0
    2.3841   -2.2727    4.1169 H   0  0  0  0  0  0  0  0  0  0  0  0
    3.6678    0.1578    0.7741 H   0  0  0  0  0  0  0  0  0  0  0  0
    4.7646   -2.6713    4.7462 H   0  0  0  0  0  0  0  0  0  0  0  0
    6.0532   -0.2363    1.3973 H   0  0  0  0  0  0  0  0  0  0  0  0
  1  2  1  0
  1 14  1  0
  1 15  1  0
  2  3  1  0
  2  6  1  0
  2 16  1  6
  3  4  2  0
  3  5  1  0
  5 17  1  0
  6  7  1  0
  6 18  1  0
  6 19  1  0
  7  8  2  0
  7  9  1  0
  8 10  1  0
  8 20  1  0
  9 11  2  0
  9 21  1  0
 10 12  2  0
 10 22  1  0
 11 12  1  0
 11 23  1  0
 12 13  1  0
M  END
