
     RDKit          3D

 62 65  0  0  0  0  0  0  0  0999 V2000
   -6.4369    1.2376   -0.7254 C   0  0  0  0  0  0  0  0  0  0  0  0
   -7.8073    1.5295   -0.1496 C   0  0  0  0  0  0  0  0  0  0  0  0
   -8.6570    0.3616   -0.2398 N   0  0  0  0  0  0  0  0  0  0  0  0
   -9.9951    0.6311    0.2324 C   0  0  0  0  0  0  0  0  0  0  0  0
   -8.0483   -0.7459    0.4651 C   0  0  0  0  0  0  0  0  0  0  0  0
   -6.6792   -1.0705   -0.1048 C   0  0  0  0  0  0  0  0  0  0  0  0
   -5.8257    0.0993   -0.0517 N   0  0  0  0  0  0  0  0  0  0  0  0
   -4.4541   -0.0811   -0.2247 C   0  0  0  0  0  0  0  0  0  0  0  0
   -3.5888    1.0016   -0.0017 C   0  0  0  0  0  0  0  0  0  0  0  0
   -2.2173    0.8645   -0.1319 C   0  0  0  0  0  0  0  0  0  0  0  0
   -1.3373    1.8610    0.0778 O   0  0  0  0  0  0  0  0  0  0  0  0
   -1.8243    3.1387    0.4372 C   0  0  0  0  0  0  0  0  0  0  0  0
   -3.8919   -1.3067   -0.5835 C   0  0  0  0  0  0  0  0  0  0  0  0
   -2.5155   -1.4361   -0.7223 C   0  0  0  0  0  0  0  0  0  0  0  0
   -1.6599   -0.3727   -0.5004 C   0  0  0  0  0  0  0  0  0  0  0  0
   -0.2685   -0.4609   -0.6638 N   0  0  0  0  0  0  0  0  0  0  0  0
    0.5535   -1.3962   -0.1418 C   0  0  0  0  0  0  0  0  0  0  0  0
    1.8580   -1.2033   -0.3847 N   0  0  0  0  0  0  0  0  0  0  0  0
    0.0424   -2.4098    0.5503 N   0  0  0  0  0  0  0  0  0  0  0  0
    0.9090   -3.2916    1.0281 C   0  0  0  0  0  0  0  0  0  0  0  0
    2.2686   -3.1887    0.8337 C   0  0  0  0  0  0  0  0  0  0  0  0
    3.3797   -4.3439    1.4553 Cl  0  0  0  0  0  0  0  0  0  0  0  0
    2.6971   -2.0796    0.0952 C   0  0  0  0  0  0  0  0  0  0  0  0
    4.0056   -1.9399   -0.1077 O   0  0  0  0  0  0  0  0  0  0  0  0
    4.4636   -0.8324   -0.7995 C   0  0  0  0  0  0  0  0  0  0  0  0
    4.7508    0.3133   -0.0779 C   0  0  0  0  0  0  0  0  0  0  0  0
    4.6779   -0.9348   -2.1598 C   0  0  0  0  0  0  0  0  0  0  0  0
    5.2130    0.1654   -2.8171 C   0  0  0  0  0  0  0  0  0  0  0  0
    5.5117    1.3260   -2.1277 C   0  0  0  0  0  0  0  0  0  0  0  0
    5.2833    1.4127   -0.7511 C   0  0  0  0  0  0  0  0  0  0  0  0
    5.6271    2.6117   -0.1279 N   0  0  0  0  0  0  0  0  0  0  0  0
    5.3438    3.0343    1.1337 C   0  0  0  0  0  0  0  0  0  0  0  0
    4.7239    2.3745    1.9501 O   0  0  0  0  0  0  0  0  0  0  0  0
    5.8654    4.3936    1.4236 C   0  0  0  0  0  0  0  0  0  0  0  0
    5.6380    4.9886    2.5890 C   0  0  0  0  0  0  0  0  0  0  0  0
   -6.5288    1.0422   -1.8041 H   0  0  0  0  0  0  0  0  0  0  0  0
   -5.8173    2.1246   -0.6102 H   0  0  0  0  0  0  0  0  0  0  0  0
   -7.6966    1.8770    0.8926 H   0  0  0  0  0  0  0  0  0  0  0  0
   -8.2580    2.3480   -0.7159 H   0  0  0  0  0  0  0  0  0  0  0  0
  -10.4376    1.4428   -0.3471 H   0  0  0  0  0  0  0  0  0  0  0  0
  -10.6214   -0.2529    0.1042 H   0  0  0  0  0  0  0  0  0  0  0  0
  -10.0337    0.9185    1.2949 H   0  0  0  0  0  0  0  0  0  0  0  0
   -7.9466   -0.5366    1.5445 H   0  0  0  0  0  0  0  0  0  0  0  0
   -8.6857   -1.6281    0.3681 H   0  0  0  0  0  0  0  0  0  0  0  0
   -6.2405   -1.8692    0.4944 H   0  0  0  0  0  0  0  0  0  0  0  0
   -6.7921   -1.4505   -1.1318 H   0  0  0  0  0  0  0  0  0  0  0  0
   -4.0027    1.9472    0.3194 H   0  0  0  0  0  0  0  0  0  0  0  0
   -2.4823    3.5553   -0.3297 H   0  0  0  0  0  0  0  0  0  0  0  0
   -2.3606    3.1162    1.3894 H   0  0  0  0  0  0  0  0  0  0  0  0
   -0.9538    3.7812    0.5414 H   0  0  0  0  0  0  0  0  0  0  0  0
   -4.5105   -2.1688   -0.7878 H   0  0  0  0  0  0  0  0  0  0  0  0
   -2.1083   -2.3900   -1.0263 H   0  0  0  0  0  0  0  0  0  0  0  0
    0.2007    0.3253   -1.0868 H   0  0  0  0  0  0  0  0  0  0  0  0
    0.5039   -4.1224    1.5956 H   0  0  0  0  0  0  0  0  0  0  0  0
    4.5691    0.3357    0.9846 H   0  0  0  0  0  0  0  0  0  0  0  0
    4.4403   -1.8458   -2.6923 H   0  0  0  0  0  0  0  0  0  0  0  0
    5.3961    0.1171   -3.8819 H   0  0  0  0  0  0  0  0  0  0  0  0
    5.9280    2.1742   -2.6573 H   0  0  0  0  0  0  0  0  0  0  0  0
    6.1171    3.2681   -0.7172 H   0  0  0  0  0  0  0  0  0  0  0  0
    6.4427    4.8971    0.6566 H   0  0  0  0  0  0  0  0  0  0  0  0
    6.0199    5.9790    2.7930 H   0  0  0  0  0  0  0  0  0  0  0  0
    5.0644    4.5111    3.3727 H   0  0  0  0  0  0  0  0  0  0  0  0
  2  1  1  0
  2  3  1  0
  4  3  1  0
  5  3  1  0
  5  6  1  0
  6  7  1  0
  7  1  1  0
  8  7  1  0
  8  9  2  0
 10  9  1  0
 10 11  1  0
 12 11  1  0
 13  8  1  0
 14 13  2  0
 14 15  1  0
 15 10  2  0
 16 15  1  0
 17 16  1  0
 18 17  2  0
 19 17  1  0
 20 19  2  0
 21 20  1  0
 21 23  2  0
 22 21  1  0
 23 18  1  0
 24 23  1  0
 24 25  1  0
 25 26  2  0
 26 30  1  0
 27 25  1  0
 27 28  2  0
 28 29  1  0
 29 30  2  0
 30 31  1  0
 31 32  1  0
 32 34  1  0
 33 32  2  0
 34 35  2  0
  1 36  1  0
  1 37  1  0
  2 38  1  0
  2 39  1  0
  4 40  1  0
  4 41  1  0
  4 42  1  0
  5 43  1  0
  5 44  1  0
  6 45  1  0
  6 46  1  0
  9 47  1  0
 12 48  1  0
 12 49  1  0
 12 50  1  0
 13 51  1  0
 14 52  1  0
 16 53  1  0
 20 54  1  0
 26 55  1  0
 27 56  1  0
 28 57  1  0
 29 58  1  0
 31 59  1  0
 34 60  1  0
 35 61  1  0
 35 62  1  0
M  END
