
     RDKit          3D

 54 57  0  0  0  0  0  0  0  0999 V2000
   -0.9600   -0.7843    1.1953 O   0  0  0  0  0  0  0  0  0  0  0  0
   -1.5396    0.2949    1.0592 C   0  0  0  0  0  0  0  0  0  0  0  0
   -2.8721    0.4302    1.2351 N   0  0  0  0  0  0  0  0  0  0  0  0
   -3.7571   -0.6390    1.6229 C   0  0  0  0  0  0  0  0  0  0  0  0
   -4.6883   -1.0761    0.5189 C   0  0  0  0  0  0  0  0  0  0  0  0
   -4.2050   -1.3798   -0.7526 C   0  0  0  0  0  0  0  0  0  0  0  0
   -5.0573   -1.8027   -1.7611 C   0  0  0  0  0  0  0  0  0  0  0  0
   -6.0519   -1.1978    0.7587 C   0  0  0  0  0  0  0  0  0  0  0  0
   -6.9238   -1.6218   -0.2366 C   0  0  0  0  0  0  0  0  0  0  0  0
   -6.4064   -1.9191   -1.4800 C   0  0  0  0  0  0  0  0  0  0  0  0
   -7.2398   -2.3313   -2.4493 F   0  0  0  0  0  0  0  0  0  0  0  0
   -0.8083    1.5034    0.7145 C   0  0  0  0  0  0  0  0  0  0  0  0
    0.5779    1.5671    0.5433 C   0  0  0  0  0  0  0  0  0  0  0  0
    0.8738    2.8512    0.2885 N   0  0  0  0  0  0  0  0  0  0  0  0
   -0.2202    3.6437    0.2891 N   0  0  0  0  0  0  0  0  0  0  0  0
   -1.2229    2.8440    0.5368 C   0  0  0  0  0  0  0  0  0  0  0  0
    1.5323    0.6112    0.5798 N   0  0  0  0  0  0  0  0  0  0  0  0
    2.9214    1.0120    0.7044 C   0  0  2  0  0  0  0  0  0  0  0  0
    3.1488    2.2288   -0.1929 C   0  0  0  0  0  0  0  0  0  0  0  0
    2.2221    3.3887    0.1610 C   0  0  1  0  0  0  0  0  0  0  0  0
    2.2820    4.4952   -0.8744 C   0  0  0  0  0  0  0  0  0  0  0  0
    3.8303   -0.1284    0.3260 C   0  0  0  0  0  0  0  0  0  0  0  0
    3.6088   -0.8775   -0.8255 C   0  0  0  0  0  0  0  0  0  0  0  0
    4.4730   -1.9050   -1.1744 C   0  0  0  0  0  0  0  0  0  0  0  0
    5.5801   -2.2160   -0.3882 C   0  0  0  0  0  0  0  0  0  0  0  0
    6.5334   -3.3087   -0.7864 C   0  0  0  0  0  0  0  0  0  0  0  0
    7.7752   -2.7609   -1.4877 C   0  0  0  0  0  0  0  0  0  0  0  0
    5.7975   -1.4613    0.7619 C   0  0  0  0  0  0  0  0  0  0  0  0
    4.9340   -0.4339    1.1150 C   0  0  0  0  0  0  0  0  0  0  0  0
   -3.2926    1.3338    1.0931 H   0  0  0  0  0  0  0  0  0  0  0  0
   -3.1456   -1.4796    1.9501 H   0  0  0  0  0  0  0  0  0  0  0  0
   -4.3437   -0.3212    2.4871 H   0  0  0  0  0  0  0  0  0  0  0  0
   -3.1468   -1.2914   -0.9654 H   0  0  0  0  0  0  0  0  0  0  0  0
   -4.6796   -2.0413   -2.7468 H   0  0  0  0  0  0  0  0  0  0  0  0
   -6.4515   -0.9532    1.7356 H   0  0  0  0  0  0  0  0  0  0  0  0
   -7.9853   -1.7105   -0.0472 H   0  0  0  0  0  0  0  0  0  0  0  0
   -2.2260    3.2447    0.5815 H   0  0  0  0  0  0  0  0  0  0  0  0
    1.2464   -0.2610    0.9971 H   0  0  0  0  0  0  0  0  0  0  0  0
    3.1450    1.3030    1.7401 H   0  0  0  0  0  0  0  0  0  0  0  0
    4.1803    2.5658   -0.0886 H   0  0  0  0  0  0  0  0  0  0  0  0
    3.0018    1.9404   -1.2383 H   0  0  0  0  0  0  0  0  0  0  0  0
    2.5150    3.7848    1.1388 H   0  0  0  0  0  0  0  0  0  0  0  0
    1.6627    5.3454   -0.5950 H   0  0  0  0  0  0  0  0  0  0  0  0
    3.3097    4.8465   -0.9657 H   0  0  0  0  0  0  0  0  0  0  0  0
    1.9569    4.1343   -1.8506 H   0  0  0  0  0  0  0  0  0  0  0  0
    2.7524   -0.6675   -1.4554 H   0  0  0  0  0  0  0  0  0  0  0  0
    4.2792   -2.4790   -2.0734 H   0  0  0  0  0  0  0  0  0  0  0  0
    6.8382   -3.8708    0.0997 H   0  0  0  0  0  0  0  0  0  0  0  0
    6.0237   -4.0155   -1.4447 H   0  0  0  0  0  0  0  0  0  0  0  0
    7.5073   -2.2193   -2.3958 H   0  0  0  0  0  0  0  0  0  0  0  0
    8.3218   -2.0755   -0.8386 H   0  0  0  0  0  0  0  0  0  0  0  0
    8.4529   -3.5686   -1.7670 H   0  0  0  0  0  0  0  0  0  0  0  0
    6.6451   -1.6836    1.4004 H   0  0  0  0  0  0  0  0  0  0  0  0
    5.1153    0.1296    2.0232 H   0  0  0  0  0  0  0  0  0  0  0  0
  9  8  1  0
  9 10  2  0
 11 10  1  0
  8  5  2  0
 10  7  1  0
  7  6  2  0
  5  6  1  0
  5  4  1  0
  4  3  1  0
  3  2  1  0
  2  1  2  0
  2 12  1  0
 16 12  1  0
 16 15  2  0
 12 13  2  0
 15 14  1  0
 13 14  1  0
 13 17  1  0
 14 20  1  0
 17 18  1  0
 20 21  1  0
 20 19  1  0
 18 19  1  0
 18 22  1  0
 23 22  2  0
 23 24  1  0
 22 29  1  0
 24 25  2  0
 29 28  2  0
 25 28  1  0
 25 26  1  0
 27 26  1  0
  3 30  1  0
  4 31  1  0
  4 32  1  0
  6 33  1  0
  7 34  1  0
  8 35  1  0
  9 36  1  0
 16 37  1  0
 17 38  1  0
 18 39  1  1
 19 40  1  0
 19 41  1  0
 20 42  1  1
 21 43  1  0
 21 44  1  0
 21 45  1  0
 23 46  1  0
 24 47  1  0
 26 48  1  0
 26 49  1  0
 27 50  1  0
 27 51  1  0
 27 52  1  0
 28 53  1  0
 29 54  1  0
M  END
