
     RDKit          3D

 45 48  0  0  0  0  0  0  0  0999 V2000
    2.5516   -3.5654   13.2009 C   0  0  0  0  0  0  0  0  0  0  0  0
    1.6522   -4.2502   12.3967 C   0  0  0  0  0  0  0  0  0  0  0  0
    1.5485   -3.9511   11.0479 C   0  0  0  0  0  0  0  0  0  0  0  0
    2.3448   -2.9554   10.4794 C   0  0  0  0  0  0  0  0  0  0  0  0
    3.2384   -2.2686   11.2987 C   0  0  0  0  0  0  0  0  0  0  0  0
    3.3492   -2.5630   12.6538 C   0  0  0  0  0  0  0  0  0  0  0  0
    2.2473   -2.6347    9.0425 C   0  0  0  0  0  0  0  0  0  0  0  0
    2.0079   -3.6332    8.0981 C   0  0  0  0  0  0  0  0  0  0  0  0
    1.9149   -3.3328    6.7502 C   0  0  0  0  0  0  0  0  0  0  0  0
    2.0584   -2.0195    6.3051 C   0  0  0  0  0  0  0  0  0  0  0  0
    2.3022   -1.0171    7.2445 C   0  0  0  0  0  0  0  0  0  0  0  0
    2.3933   -1.3215    8.5892 C   0  0  0  0  0  0  0  0  0  0  0  0
    1.9686   -1.6675    4.8914 C   0  0  0  0  0  0  0  0  0  0  0  0
    4.3076   -1.7922   13.4971 C   0  0  0  0  0  0  0  0  0  0  0  0
    4.5758   -0.5521   13.3411 N   0  0  0  0  0  0  0  0  0  0  0  0
    4.8697   -2.4985   14.5173 N   0  0  0  0  0  0  0  0  0  0  0  0
    1.4727   -2.5128    3.9439 N   0  0  0  0  0  0  0  0  0  0  0  0
    1.5332   -1.8652    2.7441 C   0  0  0  0  0  0  0  0  0  0  0  0
    2.0933   -0.6115    3.0443 C   0  0  0  0  0  0  0  0  0  0  0  0
    2.3491   -0.5220    4.3871 N   0  0  0  0  0  0  0  0  0  0  0  0
    2.3044    0.3180    2.0306 C   0  0  0  0  0  0  0  0  0  0  0  0
    1.1628   -2.2233    1.4542 C   0  0  0  0  0  0  0  0  0  0  0  0
    1.3685   -1.2826    0.4631 C   0  0  0  0  0  0  0  0  0  0  0  0
    1.9373   -0.0226    0.7363 C   0  0  0  0  0  0  0  0  0  0  0  0
    2.1703    0.9534   -0.3651 C   0  0  0  0  0  0  0  0  0  0  0  0
    1.2462    0.9240   -1.3677 N   0  0  0  0  0  0  0  0  0  0  0  0
    3.1660    1.7533   -0.4296 N   0  0  0  0  0  0  0  0  0  0  0  0
    2.6141   -3.8010   14.2552 H   0  0  0  0  0  0  0  0  0  0  0  0
    1.0208   -5.0157   12.8281 H   0  0  0  0  0  0  0  0  0  0  0  0
    0.8287   -4.4816   10.4378 H   0  0  0  0  0  0  0  0  0  0  0  0
    3.8891   -1.5192   10.8636 H   0  0  0  0  0  0  0  0  0  0  0  0
    1.9155   -4.6655    8.4107 H   0  0  0  0  0  0  0  0  0  0  0  0
    1.7539   -4.1460    6.0542 H   0  0  0  0  0  0  0  0  0  0  0  0
    2.4075    0.0085    6.9171 H   0  0  0  0  0  0  0  0  0  0  0  0
    2.5552   -0.5187    9.2971 H   0  0  0  0  0  0  0  0  0  0  0  0
    3.9996   -0.1478   12.6124 H   0  0  0  0  0  0  0  0  0  0  0  0
    5.6086   -2.0370   15.0242 H   0  0  0  0  0  0  0  0  0  0  0  0
    5.0043   -3.4887   14.3981 H   0  0  0  0  0  0  0  0  0  0  0  0
    1.0756   -3.4257    4.1000 H   0  0  0  0  0  0  0  0  0  0  0  0
    2.7245    1.2896    2.2607 H   0  0  0  0  0  0  0  0  0  0  0  0
    0.7374   -3.1913    1.2260 H   0  0  0  0  0  0  0  0  0  0  0  0
    1.1042   -1.5359   -0.5547 H   0  0  0  0  0  0  0  0  0  0  0  0
    1.3164    1.6576   -2.0549 H   0  0  0  0  0  0  0  0  0  0  0  0
    0.3025    0.6593   -1.1399 H   0  0  0  0  0  0  0  0  0  0  0  0
    3.8164    1.5752    0.3266 H   0  0  0  0  0  0  0  0  0  0  0  0
  1  2  2  0
  1  6  1  0
  1 28  1  0
  2  3  1  0
  2 29  1  0
  3  4  2  0
  3 30  1  0
  4  7  1  0
  4  5  1  0
  5  6  2  0
  5 31  1  0
  6 14  1  0
  7  8  2  0
  7 12  1  0
  8  9  1  0
  8 32  1  0
  9 10  2  0
  9 33  1  0
 10 13  1  0
 10 11  1  0
 11 12  2  0
 11 34  1  0
 12 35  1  0
 13 20  2  0
 13 17  1  0
 14 16  1  0
 14 15  2  0
 15 36  1  0
 16 37  1  0
 16 38  1  0
 17 18  1  0
 17 39  1  0
 18 22  2  0
 18 19  1  0
 19 21  2  0
 19 20  1  0
 21 24  1  0
 21 40  1  0
 22 23  1  0
 22 41  1  0
 23 24  2  0
 23 42  1  0
 24 25  1  0
 25 26  1  0
 25 27  2  0
 26 43  1  0
 26 44  1  0
 27 45  1  0
M  END
