
     RDKit          3D

 49 52  0  0  0  0  0  0  0  0999 V2000
    0.8543    3.0971    0.5225 C   0  0  0  0  0  0  0  0  0  0  0  0
   -0.0171    1.9800    0.1606 C   0  0  0  0  0  0  0  0  0  0  0  0
   -1.9404    0.4511   -0.1493 C   0  0  0  0  0  0  0  0  0  0  0  0
    0.1790    4.0526    1.1496 O   0  0  0  0  0  0  0  0  0  0  0  0
    2.0371    3.1501    0.2858 O   0  0  0  0  0  0  0  0  0  0  0  0
    1.7914   -2.5540   -0.5886 C   0  0  0  0  0  0  0  0  0  0  0  0
    1.1643   -3.8013    0.0258 C   0  0  0  0  0  0  0  0  0  0  0  0
    2.0630   -4.3788    1.1152 C   0  0  0  0  0  0  0  0  0  0  0  0
    2.3942   -3.3321    2.1750 C   0  0  0  0  0  0  0  0  0  0  0  0
    2.9861   -2.0698    1.5535 C   0  0  0  0  0  0  0  0  0  0  0  0
   -3.2568   -0.1837   -0.1348 C   0  0  0  0  0  0  0  0  0  0  0  0
   -4.2113    0.1468    0.8299 C   0  0  0  0  0  0  0  0  0  0  0  0
   -5.4515   -0.4722    0.8358 C   0  0  0  0  0  0  0  0  0  0  0  0
   -5.7565   -1.4368   -0.1151 C   0  0  0  0  0  0  0  0  0  0  0  0
   -4.8130   -1.7741   -1.0775 C   0  0  0  0  0  0  0  0  0  0  0  0
   -3.5756   -1.1515   -1.0909 C   0  0  0  0  0  0  0  0  0  0  0  0
   -1.6877    1.9970    0.5562 S   0  0  0  0  0  0  0  0  0  0  0  0
   -0.7770   -0.0393   -0.6834 C   0  0  0  0  0  0  0  0  0  0  0  0
    0.3243    0.8238   -0.5039 C   0  0  0  0  0  0  0  0  0  0  0  0
    1.6249    0.5155   -0.9276 N   0  0  0  0  0  0  0  0  0  0  0  0
    2.2174    1.2024   -1.9435 C   0  0  0  0  0  0  0  0  0  0  0  0
    3.7002    0.9430   -1.8686 C   0  0  0  0  0  0  0  0  0  0  0  0
    3.8372   -0.2274   -0.9029 C   0  0  0  0  0  0  0  0  0  0  0  0
    2.5746   -0.1627   -0.0360 C   0  0  2  0  0  0  0  0  0  0  0  0
    2.0514   -1.4992    0.4864 C   0  0  1  0  0  0  0  0  0  0  0  0
    0.7687    4.7858    1.3820 H   0  0  0  0  0  0  0  0  0  0  0  0
    1.1582   -2.1605   -1.3875 H   0  0  0  0  0  0  0  0  0  0  0  0
    0.1869   -3.5470    0.4509 H   0  0  0  0  0  0  0  0  0  0  0  0
    0.9830   -4.5497   -0.7495 H   0  0  0  0  0  0  0  0  0  0  0  0
    1.5909   -5.2493    1.5771 H   0  0  0  0  0  0  0  0  0  0  0  0
    2.9928   -4.7336    0.6572 H   0  0  0  0  0  0  0  0  0  0  0  0
    1.4799   -3.0653    2.7165 H   0  0  0  0  0  0  0  0  0  0  0  0
    3.0834   -3.7472    2.9143 H   0  0  0  0  0  0  0  0  0  0  0  0
    3.1689   -1.3208    2.3294 H   0  0  0  0  0  0  0  0  0  0  0  0
    3.9580   -2.3034    1.1037 H   0  0  0  0  0  0  0  0  0  0  0  0
   -3.9864    0.8785    1.5970 H   0  0  0  0  0  0  0  0  0  0  0  0
   -6.1781   -0.2045    1.5913 H   0  0  0  0  0  0  0  0  0  0  0  0
   -6.7235   -1.9221   -0.1072 H   0  0  0  0  0  0  0  0  0  0  0  0
   -5.0425   -2.5200   -1.8270 H   0  0  0  0  0  0  0  0  0  0  0  0
   -2.8598   -1.4101   -1.8602 H   0  0  0  0  0  0  0  0  0  0  0  0
   -0.7010   -0.9977   -1.1757 H   0  0  0  0  0  0  0  0  0  0  0  0
    4.1261    0.7599   -2.8544 H   0  0  0  0  0  0  0  0  0  0  0  0
    4.1639    1.8521   -1.4749 H   0  0  0  0  0  0  0  0  0  0  0  0
    3.8682   -1.1633   -1.4602 H   0  0  0  0  0  0  0  0  0  0  0  0
    4.7387   -0.1771   -0.2955 H   0  0  0  0  0  0  0  0  0  0  0  0
    2.7563    0.4869    0.8297 H   0  0  0  0  0  0  0  0  0  0  0  0
    1.0954   -1.2900    0.9861 H   0  0  0  0  0  0  0  0  0  0  0  0
    2.7351   -2.8417   -1.0648 H   0  0  0  0  0  0  0  0  0  0  0  0
    1.6311    1.9081   -2.7389 O   0  0  0  0  0  0  0  0  0  0  0  0
  8  7  1  0
  8  9  1  0
 23 22  1  0
 23 24  1  0
  6  7  1  0
  6 25  1  0
 22 21  1  0
  9 10  1  0
 24 25  1  0
 24 20  1  0
 10 25  1  0
 21 49  2  0
 21 20  1  0
 20 19  1  0
  5  1  2  0
 19  2  2  0
 19 18  1  0
  1  2  1  0
  1  4  1  0
  2 17  1  0
 18  3  2  0
  3 17  1  0
  3 11  1  0
 16 11  1  0
 16 15  2  0
 11 12  2  0
 15 14  1  0
 12 13  1  0
 14 13  2  0
  4 26  1  0
  6 48  1  0
  6 27  1  0
  7 28  1  0
  7 29  1  0
  8 30  1  0
  8 31  1  0
  9 32  1  0
  9 33  1  0
 10 34  1  0
 10 35  1  0
 12 36  1  0
 13 37  1  0
 14 38  1  0
 15 39  1  0
 16 40  1  0
 18 41  1  0
 22 42  1  0
 22 43  1  0
 23 44  1  0
 23 45  1  0
 24 46  1  1
 25 47  1  1
M  END
