
     RDKit          3D

 50 53  0  0  0  0  0  0  0  0999 V2000
    5.9553    1.4717   -0.2766 O   0  0  0  0  0  0  0  0  0  0  0  0
    4.6288    1.6051   -0.2467 C   0  0  0  0  0  0  0  0  0  0  0  0
    4.0685    0.4242    0.1344 C   0  0  0  0  0  0  0  0  0  0  0  0
    5.1965   -0.4306    0.3266 C   0  0  0  0  0  0  0  0  0  0  0  0
    5.2100   -1.8544    0.7560 C   0  0  0  0  0  0  0  0  0  0  0  0
    4.0633    2.9214   -0.6211 C   0  0  0  0  0  0  0  0  0  0  0  0
    2.6517    0.1176    0.3278 C   0  0  0  0  0  0  0  0  0  0  0  0
    1.8096    1.0204    0.9782 C   0  0  0  0  0  0  0  0  0  0  0  0
   -1.5101   -0.7517    0.8311 C   0  0  0  0  0  0  0  0  0  0  0  0
   -3.2346   -1.9434    1.2028 C   0  0  0  0  0  0  0  0  0  0  0  0
   -2.5891    0.1200    0.7089 C   0  0  0  0  0  0  0  0  0  0  0  0
    6.3059    0.2033    0.0865 N   0  0  0  0  0  0  0  0  0  0  0  0
    2.1014   -1.0828   -0.1263 C   0  0  0  0  0  0  0  0  0  0  0  0
    0.7579   -1.3623    0.0515 C   0  0  0  0  0  0  0  0  0  0  0  0
   -0.0875   -0.4445    0.6750 C   0  0  0  0  0  0  0  0  0  0  0  0
    0.4625    0.7468    1.1442 C   0  0  0  0  0  0  0  0  0  0  0  0
   -1.9207   -2.0079    1.1236 N   0  0  0  0  0  0  0  0  0  0  0  0
   -3.6833   -0.6617    0.9726 N   0  0  0  0  0  0  0  0  0  0  0  0
   -4.2040   -2.9311    1.4773 C   0  0  0  0  0  0  0  0  0  0  0  0
   -5.4758   -2.6625    1.5351 N   0  0  0  0  0  0  0  0  0  0  0  0
   -5.8698   -1.3765    1.3246 C   0  0  0  0  0  0  0  0  0  0  0  0
   -5.0120   -0.3646    1.0433 C   0  0  0  0  0  0  0  0  0  0  0  0
   -2.7466    1.4608    0.3976 N   0  0  0  0  0  0  0  0  0  0  0  0
   -2.7566    1.8814   -1.0225 C   0  0  1  0  0  0  0  0  0  0  0  0
   -3.8619    1.1415   -1.7686 C   0  0  0  0  0  0  0  0  0  0  0  0
   -3.0563    3.3775   -1.0185 C   0  0  0  0  0  0  0  0  0  0  0  0
   -1.4167    1.6270   -1.7172 C   0  0  0  0  0  0  0  0  0  0  0  0
    4.8987   -2.5095   -0.0581 H   0  0  0  0  0  0  0  0  0  0  0  0
    6.2077   -2.1564    1.0678 H   0  0  0  0  0  0  0  0  0  0  0  0
    4.5193   -2.0142    1.5832 H   0  0  0  0  0  0  0  0  0  0  0  0
    4.6131    3.3613   -1.4526 H   0  0  0  0  0  0  0  0  0  0  0  0
    3.0207    2.8165   -0.9147 H   0  0  0  0  0  0  0  0  0  0  0  0
    4.1047    3.6217    0.2147 H   0  0  0  0  0  0  0  0  0  0  0  0
    2.2115    1.9396    1.3849 H   0  0  0  0  0  0  0  0  0  0  0  0
    2.7210   -1.8023   -0.6461 H   0  0  0  0  0  0  0  0  0  0  0  0
    0.3549   -2.2957   -0.3193 H   0  0  0  0  0  0  0  0  0  0  0  0
   -0.1494    1.4615    1.6790 H   0  0  0  0  0  0  0  0  0  0  0  0
   -3.8755   -3.9505    1.6474 H   0  0  0  0  0  0  0  0  0  0  0  0
   -6.9295   -1.1726    1.3908 H   0  0  0  0  0  0  0  0  0  0  0  0
   -5.3074    0.6597    0.8761 H   0  0  0  0  0  0  0  0  0  0  0  0
   -2.1405    2.0569    0.9433 H   0  0  0  0  0  0  0  0  0  0  0  0
   -4.8435    1.3591   -1.3462 H   0  0  0  0  0  0  0  0  0  0  0  0
   -3.8747    1.4530   -2.8136 H   0  0  0  0  0  0  0  0  0  0  0  0
   -3.7133    0.0599   -1.7593 H   0  0  0  0  0  0  0  0  0  0  0  0
   -2.2922    3.9346   -0.4710 H   0  0  0  0  0  0  0  0  0  0  0  0
   -3.0774    3.7640   -2.0378 H   0  0  0  0  0  0  0  0  0  0  0  0
   -4.0231    3.5825   -0.5566 H   0  0  0  0  0  0  0  0  0  0  0  0
   -1.1703    0.5641   -1.7407 H   0  0  0  0  0  0  0  0  0  0  0  0
   -1.4533    1.9802   -2.7490 H   0  0  0  0  0  0  0  0  0  0  0  0
   -0.6007    2.1463   -1.2119 H   0  0  0  0  0  0  0  0  0  0  0  0
  5  4  1  0
 12  4  2  0
 12  1  1  0
  4  3  1  0
  1  2  1  0
  8 16  2  0
  8  7  1  0
  3  2  2  0
  3  7  1  0
  2  6  1  0
 16 15  1  0
  7 13  2  0
 17  9  1  0
 17 10  2  0
 15  9  1  0
 15 14  2  0
 19 10  1  0
 19 20  2  0
 13 14  1  0
  9 11  2  0
 10 18  1  0
 20 21  1  0
 18 11  1  0
 18 22  1  0
 11 23  1  0
 21 22  2  0
 27 24  1  0
 24 23  1  1
 24 26  1  0
 24 25  1  0
  5 28  1  0
  5 29  1  0
  5 30  1  0
  6 31  1  0
  6 32  1  0
  6 33  1  0
  8 34  1  0
 13 35  1  0
 14 36  1  0
 16 37  1  0
 19 38  1  0
 21 39  1  0
 22 40  1  0
 23 41  1  0
 25 42  1  0
 25 43  1  0
 25 44  1  0
 26 45  1  0
 26 46  1  0
 26 47  1  0
 27 48  1  0
 27 49  1  0
 27 50  1  0
M  END
