
     RDKit          3D

 20 19  0  0  0  0  0  0  0  0999 V2000
   -0.8795   -0.6129    0.0219 C   0  0  0  0  0  0  0  0  0  0  0  0
   -2.2218    0.0635    0.0203 C   0  0  0  0  0  0  0  0  0  0  0  0
   -2.4033    1.2559    0.0165 O   0  0  0  0  0  0  0  0  0  0  0  0
    0.2997    0.3464    0.0122 C   0  0  0  0  0  0  0  0  0  0  0  0
    1.6287   -0.3986    0.0222 C   0  0  0  0  0  0  0  0  0  0  0  0
    2.8355    0.5315    0.0127 C   0  0  0  0  0  0  0  0  0  0  0  0
    4.1567   -0.2248    0.0264 C   0  0  0  0  0  0  0  0  0  0  0  0
   -3.2189   -0.8179    0.0244 O   0  0  0  0  0  0  0  0  0  0  0  0
   -0.8353   -1.2826   -0.8430 H   0  0  0  0  0  0  0  0  0  0  0  0
   -0.8320   -1.2682    0.8979 H   0  0  0  0  0  0  0  0  0  0  0  0
    0.2472    1.0089    0.8805 H   0  0  0  0  0  0  0  0  0  0  0  0
    0.2490    0.9889   -0.8714 H   0  0  0  0  0  0  0  0  0  0  0  0
    1.6809   -1.0668   -0.8447 H   0  0  0  0  0  0  0  0  0  0  0  0
    1.6783   -1.0458    0.9052 H   0  0  0  0  0  0  0  0  0  0  0  0
    2.7840    1.1989    0.8784 H   0  0  0  0  0  0  0  0  0  0  0  0
    2.7887    1.1759   -0.8706 H   0  0  0  0  0  0  0  0  0  0  0  0
    4.2400   -0.8536    0.9152 H   0  0  0  0  0  0  0  0  0  0  0  0
    4.2459   -0.8760   -0.8456 H   0  0  0  0  0  0  0  0  0  0  0  0
    5.0105    0.4535    0.0207 H   0  0  0  0  0  0  0  0  0  0  0  0
   -4.0695   -0.3541    0.0259 H   0  0  0  0  0  0  0  0  0  0  0  0
  1  2  1  0
  1  4  1  0
  1  9  1  0
  1 10  1  0
  2  3  2  0
  2  8  1  0
  4  5  1  0
  4 11  1  0
  4 12  1  0
  5  6  1  0
  5 13  1  0
  5 14  1  0
  6  7  1  0
  6 15  1  0
  6 16  1  0
  7 17  1  0
  7 18  1  0
  7 19  1  0
  8 20  1  0
M  END
