
     RDKit          3D

 54 56  0  0  0  0  0  0  0  0999 V2000
   -0.4224    2.7888    0.1413 O   0  0  0  0  0  0  0  0  0  0  0  0
   -0.0455    2.5488   -1.0003 C   0  0  0  0  0  0  0  0  0  0  0  0
   -0.7463    3.1297   -2.2001 C   0  0  0  0  0  0  0  0  0  0  0  0
    1.0306    1.7901   -1.2721 N   0  0  0  0  0  0  0  0  0  0  0  0
    1.8020    1.0933   -0.2755 C   0  0  2  0  0  0  0  0  0  0  0  0
    3.2882    1.1498   -0.6008 C   0  0  1  0  0  0  0  0  0  0  0  0
    3.6975    2.4898   -0.5496 O   0  0  0  0  0  0  0  0  0  0  0  0
    4.0816    0.2724    0.3643 C   0  0  2  0  0  0  0  0  0  0  0  0
    5.4181    0.2745   -0.0857 O   0  0  0  0  0  0  0  0  0  0  0  0
    3.4925   -1.1432    0.3896 C   0  0  1  0  0  0  0  0  0  0  0  0
    4.1876   -2.0325    1.3964 C   0  0  0  0  0  0  0  0  0  0  0  0
    3.6597   -3.3325    1.2986 O   0  0  0  0  0  0  0  0  0  0  0  0
    2.1259   -1.0694    0.7443 O   0  0  0  0  0  0  0  0  0  0  0  0
    1.3537   -0.3677   -0.1887 C   0  0  1  0  0  0  0  0  0  0  0  0
    0.0458   -0.3908    0.2400 O   0  0  0  0  0  0  0  0  0  0  0  0
   -0.7626   -1.4591   -0.2156 C   0  0  1  0  0  0  0  0  0  0  0  0
   -1.9104   -1.5933    0.7989 C   0  0  2  0  0  0  0  0  0  0  0  0
   -2.3588   -2.9239    0.7325 O   0  0  0  0  0  0  0  0  0  0  0  0
   -1.2841   -1.1382   -1.6179 C   0  0  2  0  0  0  0  0  0  0  0  0
   -2.0544    0.0521   -1.5628 O   0  0  0  0  0  0  0  0  0  0  0  0
   -3.2516   -0.3949   -0.9928 C   0  0  1  0  0  0  0  0  0  0  0  0
   -3.5441   -1.6163   -1.6213 O   0  0  0  0  0  0  0  0  0  0  0  0
   -2.3208   -2.1361   -2.1301 C   0  0  0  0  0  0  0  0  0  0  0  0
   -3.0437   -0.5773    0.5146 C   0  0  2  0  0  0  0  0  0  0  0  0
   -2.7641    0.7111    1.1022 N   0  0  0  0  0  0  0  0  0  0  0  0
   -3.4821    1.2431    2.1102 C   0  0  0  0  0  0  0  0  0  0  0  0
   -4.4347    0.6758    2.6296 O   0  0  0  0  0  0  0  0  0  0  0  0
   -3.0316    2.6071    2.5698 C   0  0  0  0  0  0  0  0  0  0  0  0
   -0.6181    4.2125   -2.2021 H   0  0  0  0  0  0  0  0  0  0  0  0
   -0.3853    2.7385   -3.1490 H   0  0  0  0  0  0  0  0  0  0  0  0
   -1.8125    2.9245   -2.1245 H   0  0  0  0  0  0  0  0  0  0  0  0
    1.2734    1.6358   -2.2382 H   0  0  0  0  0  0  0  0  0  0  0  0
    1.6238    1.5633    0.6950 H   0  0  0  0  0  0  0  0  0  0  0  0
    3.4355    0.7355   -1.6138 H   0  0  0  0  0  0  0  0  0  0  0  0
    4.6366    2.5206   -0.7616 H   0  0  0  0  0  0  0  0  0  0  0  0
    4.0036    0.7026    1.3730 H   0  0  0  0  0  0  0  0  0  0  0  0
    6.0069    0.1955    0.6698 H   0  0  0  0  0  0  0  0  0  0  0  0
    3.6026   -1.5857   -0.6144 H   0  0  0  0  0  0  0  0  0  0  0  0
    5.2630   -2.0178    1.1845 H   0  0  0  0  0  0  0  0  0  0  0  0
    4.0492   -1.6093    2.4011 H   0  0  0  0  0  0  0  0  0  0  0  0
    4.1205   -3.8886    1.9330 H   0  0  0  0  0  0  0  0  0  0  0  0
    1.4691   -0.8351   -1.1838 H   0  0  0  0  0  0  0  0  0  0  0  0
   -0.1990   -2.4007   -0.2345 H   0  0  0  0  0  0  0  0  0  0  0  0
   -1.5078   -1.3690    1.7956 H   0  0  0  0  0  0  0  0  0  0  0  0
   -3.1185   -3.0229    1.3148 H   0  0  0  0  0  0  0  0  0  0  0  0
   -0.4638   -0.9979   -2.3236 H   0  0  0  0  0  0  0  0  0  0  0  0
   -4.0421    0.3335   -1.1946 H   0  0  0  0  0  0  0  0  0  0  0  0
   -2.3452   -2.1424   -3.2230 H   0  0  0  0  0  0  0  0  0  0  0  0
   -2.1563   -3.1551   -1.7812 H   0  0  0  0  0  0  0  0  0  0  0  0
   -3.9693   -0.9435    0.9647 H   0  0  0  0  0  0  0  0  0  0  0  0
   -1.9766    1.2364    0.7452 H   0  0  0  0  0  0  0  0  0  0  0  0
   -3.8771    3.2936    2.5365 H   0  0  0  0  0  0  0  0  0  0  0  0
   -2.7041    2.5475    3.6081 H   0  0  0  0  0  0  0  0  0  0  0  0
   -2.2230    3.0237    1.9744 H   0  0  0  0  0  0  0  0  0  0  0  0
  3  2  1  0
  2  1  2  0
  2  4  1  0
  4  5  1  0
  7  6  1  0
  6  5  1  0
  6  8  1  0
  5 14  1  0
 19 23  1  0
 19 20  1  0
 19 16  1  0
 23 22  1  0
 14 15  1  0
 14 13  1  0
 20 21  1  0
 15 16  1  0
  9  8  1  0
  8 10  1  0
 22 21  1  0
 16 17  1  0
 21 24  1  0
 13 10  1  0
 10 11  1  0
 17 24  1  0
 17 18  1  0
 24 25  1  0
 11 12  1  0
 25 26  1  0
 26 27  2  0
 26 28  1  0
  3 29  1  0
  3 30  1  0
  3 31  1  0
  4 32  1  0
  5 33  1  1
  6 34  1  6
  7 35  1  0
  8 36  1  1
  9 37  1  0
 10 38  1  6
 11 39  1  0
 11 40  1  0
 12 41  1  0
 14 42  1  6
 16 43  1  6
 17 44  1  1
 18 45  1  0
 19 46  1  6
 21 47  1  1
 23 48  1  0
 23 49  1  0
 24 50  1  1
 25 51  1  0
 28 52  1  0
 28 53  1  0
 28 54  1  0
M  END
