
     RDKit          3D

 29 30  0  0  0  0  0  0  0  0999 V2000
    0.4145   -0.3906   -0.0712 C   0  0  0  0  0  0  0  0  0  0  0  0
    1.9028   -0.5819   -0.0989 C   0  0  0  0  0  0  0  0  0  0  0  0
    2.6608    0.7244    0.0382 C   0  0  0  0  0  0  0  0  0  0  0  0
    4.1507    0.5245    0.0164 C   0  0  0  0  0  0  0  0  0  0  0  0
   -1.4206    0.9741   -0.0579 C   0  0  0  0  0  0  0  0  0  0  0  0
   -1.9437    2.2746   -0.0902 C   0  0  0  0  0  0  0  0  0  0  0  0
   -3.3067    2.4697   -0.0610 C   0  0  0  0  0  0  0  0  0  0  0  0
   -4.1825    1.3787    0.0036 C   0  0  0  0  0  0  0  0  0  0  0  0
    4.7140   -0.5332   -0.1191 O   0  0  0  0  0  0  0  0  0  0  0  0
   -0.0615    0.8024   -0.0820 N   0  0  0  0  0  0  0  0  0  0  0  0
   -0.3639   -1.5250   -0.0375 N   0  0  0  0  0  0  0  0  0  0  0  0
    0.2604   -2.8440   -0.0310 C   0  0  0  0  0  0  0  0  0  0  0  0
    4.7959    1.6766    0.1641 O   0  0  0  0  0  0  0  0  0  0  0  0
   -2.4299   -2.4682    0.1222 O   0  0  0  0  0  0  0  0  0  0  0  0
   -1.7494   -1.4608    0.0373 C   0  0  0  0  0  0  0  0  0  0  0  0
   -2.2981   -0.1128    0.0041 C   0  0  0  0  0  0  0  0  0  0  0  0
   -3.6811    0.0963    0.0378 C   0  0  0  0  0  0  0  0  0  0  0  0
    2.1956   -1.2688    0.6990 H   0  0  0  0  0  0  0  0  0  0  0  0
    2.1763   -1.0779   -1.0347 H   0  0  0  0  0  0  0  0  0  0  0  0
    2.3971    1.4190   -0.7622 H   0  0  0  0  0  0  0  0  0  0  0  0
    2.3923    1.2324    0.9671 H   0  0  0  0  0  0  0  0  0  0  0  0
   -1.2590    3.1113   -0.1382 H   0  0  0  0  0  0  0  0  0  0  0  0
   -3.7048    3.4758   -0.0872 H   0  0  0  0  0  0  0  0  0  0  0  0
   -5.2511    1.5438    0.0267 H   0  0  0  0  0  0  0  0  0  0  0  0
    0.7101   -3.0562    0.9381 H   0  0  0  0  0  0  0  0  0  0  0  0
   -0.4946   -3.5934   -0.2343 H   0  0  0  0  0  0  0  0  0  0  0  0
    1.0230   -2.9084   -0.8019 H   0  0  0  0  0  0  0  0  0  0  0  0
    5.7525    1.5252    0.1464 H   0  0  0  0  0  0  0  0  0  0  0  0
   -4.3512   -0.7512    0.0880 H   0  0  0  0  0  0  0  0  0  0  0  0
  7  8  2  0
  7  6  1  0
  8 17  1  0
  6  5  2  0
 17 16  2  0
  5 16  1  0
  5 10  1  0
 16 15  1  0
 10  1  2  0
 15 14  2  0
 15 11  1  0
  9  4  2  0
  1 11  1  0
  1  2  1  0
 11 12  1  0
  3  4  1  0
  3  2  1  0
  4 13  1  0
  2 18  1  0
  2 19  1  0
  3 20  1  0
  3 21  1  0
  6 22  1  0
  7 23  1  0
  8 24  1  0
 12 25  1  0
 12 26  1  0
 12 27  1  0
 13 28  1  0
 17 29  1  0
M  END
