
     RDKit          3D

 14 14  0  0  0  0  0  0  0  0999 V2000
    2.4559    0.1630   -0.0074 C   0  0  0  0  0  0  0  0  0  0  0  0
    1.0087   -0.1301    0.0142 C   0  0  0  0  0  0  0  0  0  0  0  0
    0.6546   -1.4237    0.1249 O   0  0  0  0  0  0  0  0  0  0  0  0
   -0.7662   -1.4998    0.1109 C   0  0  0  0  0  0  0  0  0  0  0  0
   -1.2487   -0.0733   -0.0029 C   0  0  0  0  0  0  0  0  0  0  0  0
   -2.4057    0.3072   -0.0495 O   0  0  0  0  0  0  0  0  0  0  0  0
   -0.0461    0.7135   -0.0528 C   0  0  0  0  0  0  0  0  0  0  0  0
    0.0175    2.0578   -0.1404 O   0  0  0  0  0  0  0  0  0  0  0  0
    2.9499   -0.4056   -0.7968 H   0  0  0  0  0  0  0  0  0  0  0  0
    2.6370    1.2211   -0.1784 H   0  0  0  0  0  0  0  0  0  0  0  0
    2.9217   -0.1187    0.9389 H   0  0  0  0  0  0  0  0  0  0  0  0
   -1.0889   -2.1056   -0.7387 H   0  0  0  0  0  0  0  0  0  0  0  0
   -1.1143   -1.9732    1.0315 H   0  0  0  0  0  0  0  0  0  0  0  0
   -0.8527    2.3988   -0.3790 H   0  0  0  0  0  0  0  0  0  0  0  0
  6  5  2  0
  5  4  1  0
  5  7  1  0
  4  3  1  0
  8  7  1  0
  7  2  2  0
  3  2  1  0
  2  1  1  0
  1  9  1  0
  1 10  1  0
  1 11  1  0
  4 12  1  0
  4 13  1  0
  8 14  1  0
M  END
