
     RDKit          3D

 26 26  0  0  0  0  0  0  0  0999 V2000
    1.1198    1.0634    0.1915 C   0  0  1  0  0  0  0  0  0  0  0  0
   -0.1241    1.2123   -0.6532 C   0  0  0  0  0  0  0  0  0  0  0  0
   -0.1100    1.9462   -1.7623 C   0  0  0  0  0  0  0  0  0  0  0  0
   -1.3473    0.4755   -0.2451 C   0  0  0  0  0  0  0  0  0  0  0  0
   -1.7695   -0.6321   -0.9780 C   0  0  0  0  0  0  0  0  0  0  0  0
   -2.9294   -1.3102   -0.6302 C   0  0  0  0  0  0  0  0  0  0  0  0
   -3.6806   -0.8925    0.4605 C   0  0  0  0  0  0  0  0  0  0  0  0
   -3.2665    0.2089    1.1982 C   0  0  0  0  0  0  0  0  0  0  0  0
   -2.1066    0.8877    0.8497 C   0  0  0  0  0  0  0  0  0  0  0  0
    0.8686    1.3139    1.5995 N   0  0  0  0  0  0  0  0  0  0  0  0
    3.3479   -0.3486    0.4764 O   0  0  0  0  0  0  0  0  0  0  0  0
    1.1345   -1.7343    0.5479 O   0  0  0  0  0  0  0  0  0  0  0  0
    1.9786   -0.8383   -1.6614 O   0  0  0  0  0  0  0  0  0  0  0  0
    1.8553   -0.5989   -0.0756 P   0  0  1  0  0  0  0  0  0  0  0  0
    1.8520    1.7971   -0.1584 H   0  0  0  0  0  0  0  0  0  0  0  0
   -0.9882    2.0394   -2.3880 H   0  0  0  0  0  0  0  0  0  0  0  0
    0.7765    2.4811   -2.0807 H   0  0  0  0  0  0  0  0  0  0  0  0
   -1.1851   -0.9646   -1.8269 H   0  0  0  0  0  0  0  0  0  0  0  0
   -3.2464   -2.1671   -1.2108 H   0  0  0  0  0  0  0  0  0  0  0  0
   -4.5860   -1.4194    0.7329 H   0  0  0  0  0  0  0  0  0  0  0  0
   -3.8510    0.5475    2.0441 H   0  0  0  0  0  0  0  0  0  0  0  0
   -1.7957    1.7525    1.4211 H   0  0  0  0  0  0  0  0  0  0  0  0
    0.3555    0.5481    2.0189 H   0  0  0  0  0  0  0  0  0  0  0  0
    1.7416    1.3930    2.1051 H   0  0  0  0  0  0  0  0  0  0  0  0
    3.8247   -1.1604    0.6979 H   0  0  0  0  0  0  0  0  0  0  0  0
    2.4042   -0.1289   -2.1603 H   0  0  0  0  0  0  0  0  0  0  0  0
  8  7  2  0
  8  9  1  0
  7  6  1  0
  9  4  2  0
  6  5  2  0
 12 14  2  0
  4  5  1  0
  4  2  1  0
  1 10  1  0
  1 14  1  0
  1  2  1  0
 14 13  1  6
 14 11  1  0
  2  3  2  0
  1 15  1  6
  3 16  1  0
  3 17  1  0
  5 18  1  0
  6 19  1  0
  7 20  1  0
  8 21  1  0
  9 22  1  0
 10 23  1  0
 10 24  1  0
 11 25  1  0
 13 26  1  0
M  END
