
     RDKit          3D

 21 22  0  0  0  0  0  0  0  0999 V2000
   -0.9769   -1.8266    0.0593 C   0  0  0  0  0  0  0  0  0  0  0  0
   -2.1833   -1.1682    0.0427 C   0  0  0  0  0  0  0  0  0  0  0  0
   -1.0698    0.9450   -0.0164 C   0  0  0  0  0  0  0  0  0  0  0  0
    0.2309   -1.1096    0.0385 C   0  0  0  0  0  0  0  0  0  0  0  0
    0.1697    0.2939    0.0004 C   0  0  0  0  0  0  0  0  0  0  0  0
   -2.2533    0.2355    0.0041 C   0  0  0  0  0  0  0  0  0  0  0  0
    1.5077   -1.7597    0.0538 C   0  0  0  0  0  0  0  0  0  0  0  0
    2.6218   -1.0067    0.0314 C   0  0  0  0  0  0  0  0  0  0  0  0
    1.3976    1.0913   -0.0233 C   0  0  0  0  0  0  0  0  0  0  0  0
   -3.5846    0.9256   -0.0111 C   0  0  0  0  0  0  0  0  0  0  0  0
    2.5530    0.3582   -0.0055 N   0  0  0  0  0  0  0  0  0  0  0  0
    1.4273    2.3158   -0.0563 O   0  0  0  0  0  0  0  0  0  0  0  0
   -0.9494   -2.9089    0.0875 H   0  0  0  0  0  0  0  0  0  0  0  0
   -3.1006   -1.7453    0.0589 H   0  0  0  0  0  0  0  0  0  0  0  0
   -1.0956    2.0273   -0.0456 H   0  0  0  0  0  0  0  0  0  0  0  0
    1.5785   -2.8374    0.0818 H   0  0  0  0  0  0  0  0  0  0  0  0
   -4.1492    0.7149    0.8987 H   0  0  0  0  0  0  0  0  0  0  0  0
   -3.4729    2.0058   -0.0915 H   0  0  0  0  0  0  0  0  0  0  0  0
   -4.1948    0.5868   -0.8496 H   0  0  0  0  0  0  0  0  0  0  0  0
    3.6185   -1.4216    0.0411 H   0  0  0  0  0  0  0  0  0  0  0  0
    3.4178    0.8804   -0.0212 H   0  0  0  0  0  0  0  0  0  0  0  0
  1  2  2  0
  1  4  1  0
  2  6  1  0
  3  5  1  0
  3  6  2  0
  4  5  2  0
  4  7  1  0
  5  9  1  0
  6 10  1  0
  7  8  2  0
  8 11  1  0
  9 11  1  0
  9 12  2  0
  1 13  1  0
  2 14  1  0
  3 15  1  0
  7 16  1  0
 10 17  1  0
 10 18  1  0
 10 19  1  0
  8 20  1  0
 11 21  1  0
M  END
