
     RDKit          3D

 41 43  0  0  0  0  0  0  0  0999 V2000
    4.5096   -0.3778   -1.4751 C   0  0  0  0  0  0  0  0  0  0  0  0
    5.3390   -0.8523   -0.4595 C   0  0  0  0  0  0  0  0  0  0  0  0
    4.7892   -1.4098    0.6938 C   0  0  0  0  0  0  0  0  0  0  0  0
    3.4166   -1.4907    0.8256 C   0  0  0  0  0  0  0  0  0  0  0  0
    2.5738   -1.0259   -0.1867 C   0  0  0  0  0  0  0  0  0  0  0  0
    3.1387   -0.4686   -1.3366 C   0  0  0  0  0  0  0  0  0  0  0  0
   -1.1807   -1.7908    0.5015 C   0  0  0  0  0  0  0  0  0  0  0  0
   -1.1391   -0.7003   -0.3470 C   0  0  0  0  0  0  0  0  0  0  0  0
    0.1883   -0.3224   -0.6668 C   0  0  0  0  0  0  0  0  0  0  0  0
    1.1216   -1.1200   -0.0602 C   0  0  0  0  0  0  0  0  0  0  0  0
    0.3999   -2.3496    0.8910 S   0  0  0  0  0  0  0  0  0  0  0  0
    6.7561   -0.7718   -0.6031 C   0  0  0  0  0  0  0  0  0  0  0  0
    7.9007   -0.7103   -0.7192 N   0  0  0  0  0  0  0  0  0  0  0  0
   -2.0907   -3.4549    1.8113 O   0  0  0  0  0  0  0  0  0  0  0  0
   -3.5021   -2.0687    0.7577 O   0  0  0  0  0  0  0  0  0  0  0  0
   -2.2819   -0.0847   -0.8162 N   0  0  0  0  0  0  0  0  0  0  0  0
   -2.3562    1.4698   -1.3961 S   0  0  2  0  0  0  0  0  0  0  0  0
   -2.2988    2.5008    1.1798 C   0  0  0  0  0  0  0  0  0  0  0  0
   -1.7137    2.4910   -0.0942 C   0  0  0  0  0  0  0  0  0  0  0  0
   -0.6276    3.2990   -0.4137 C   0  0  0  0  0  0  0  0  0  0  0  0
   -0.0933    4.1436    0.5448 C   0  0  0  0  0  0  0  0  0  0  0  0
   -0.6523    4.1738    1.8124 C   0  0  0  0  0  0  0  0  0  0  0  0
   -1.7356    3.3630    2.1171 C   0  0  0  0  0  0  0  0  0  0  0  0
   -3.7716    1.7184   -1.5920 O   0  0  0  0  0  0  0  0  0  0  0  0
   -1.4566    1.5719   -2.5301 O   0  0  0  0  0  0  0  0  0  0  0  0
    4.9352    0.0498   -2.3720 H   0  0  0  0  0  0  0  0  0  0  0  0
    5.4306   -1.7719    1.4853 H   0  0  0  0  0  0  0  0  0  0  0  0
    3.0066   -1.9056    1.7374 H   0  0  0  0  0  0  0  0  0  0  0  0
    2.5089   -0.1216   -2.1444 H   0  0  0  0  0  0  0  0  0  0  0  0
    0.4516    0.4992   -1.3141 H   0  0  0  0  0  0  0  0  0  0  0  0
   -2.9037   -3.8664    2.1416 H   0  0  0  0  0  0  0  0  0  0  0  0
   -3.1640   -0.4759   -0.4954 H   0  0  0  0  0  0  0  0  0  0  0  0
   -0.1958    3.2755   -1.4041 H   0  0  0  0  0  0  0  0  0  0  0  0
    0.7518    4.7711    0.2980 H   0  0  0  0  0  0  0  0  0  0  0  0
   -0.2457    4.8305    2.5699 H   0  0  0  0  0  0  0  0  0  0  0  0
   -2.1608    3.3964    3.1121 H   0  0  0  0  0  0  0  0  0  0  0  0
   -4.2445    1.5852    0.8637 H   0  0  0  0  0  0  0  0  0  0  0  0
   -3.1119    0.6083    1.7937 H   0  0  0  0  0  0  0  0  0  0  0  0
   -3.8732    2.0008    2.5292 H   0  0  0  0  0  0  0  0  0  0  0  0
   -2.3726   -2.4326    1.0210 C   0  0  0  0  0  0  0  0  0  0  0  0
   -3.4460    1.6290    1.6001 C   0  0  0  0  0  0  0  0  0  0  0  0
  1  2  2  0
  1  6  1  0
  1 26  1  0
  2  3  1  0
  2 12  1  0
  3  4  2  0
  3 27  1  0
  4  5  1  0
  4 28  1  0
  5  6  2  0
  5 10  1  0
  6 29  1  0
  7  8  2  0
  7 11  1  0
  7 40  1  0
  8  9  1  0
  8 16  1  0
  9 10  2  0
  9 30  1  0
 10 11  1  0
 12 13  3  0
 40 14  1  0
 40 15  2  0
 14 31  1  0
 17 16  1  1
 16 32  1  0
 17 19  1  0
 17 24  2  0
 17 25  2  0
 18 19  2  0
 18 23  1  0
 18 41  1  0
 19 20  1  0
 20 21  2  0
 20 33  1  0
 21 22  1  0
 21 34  1  0
 22 23  2  0
 22 35  1  0
 23 36  1  0
 41 37  1  0
 41 38  1  0
 41 39  1  0
M  END
