
     RDKit          3D

 29 31  0  0  0  0  0  0  0  0999 V2000
    5.0030    0.7916    1.8545 O   0  0  0  0  0  0  0  0  0  0  0  0
    4.1825    0.2288    1.1584 C   0  0  0  0  0  0  0  0  0  0  0  0
    3.2305    0.9135    0.3161 C   0  0  0  0  0  0  0  0  0  0  0  0
    2.9968    2.2968    0.0793 C   0  0  0  0  0  0  0  0  0  0  0  0
    1.9739    2.3611   -0.8206 C   0  0  0  0  0  0  0  0  0  0  0  0
    4.1522   -1.1889    1.1666 N   0  0  0  0  0  0  0  0  0  0  0  0
    3.3167   -1.8251    0.4487 C   0  0  0  0  0  0  0  0  0  0  0  0
    2.2799   -1.2669   -0.4702 C   0  0  0  0  0  0  0  0  0  0  0  0
    2.3366    0.2036   -0.4534 C   0  0  0  0  0  0  0  0  0  0  0  0
    1.5800    1.0809   -1.1424 N   0  0  0  0  0  0  0  0  0  0  0  0
    0.5083    0.7349   -2.0490 C   0  0  0  0  0  0  0  0  0  0  0  0
   -0.6616    0.0890   -1.3510 C   0  0  0  0  0  0  0  0  0  0  0  0
   -1.3457   -0.9559   -1.9592 C   0  0  0  0  0  0  0  0  0  0  0  0
   -2.4418   -1.5368   -1.3425 C   0  0  0  0  0  0  0  0  0  0  0  0
   -2.8604   -1.0822   -0.1021 C   0  0  0  0  0  0  0  0  0  0  0  0
   -4.2174   -1.8166    0.6614 Cl  0  0  0  0  0  0  0  0  0  0  0  0
   -2.1756   -0.0405    0.5155 C   0  0  0  0  0  0  0  0  0  0  0  0
   -2.6711    0.5391    2.0595 Cl  0  0  0  0  0  0  0  0  0  0  0  0
   -1.0841    0.5421   -0.1078 C   0  0  0  0  0  0  0  0  0  0  0  0
    3.5177    3.1345    0.5136 H   0  0  0  0  0  0  0  0  0  0  0  0
    1.4851    3.2097   -1.2716 H   0  0  0  0  0  0  0  0  0  0  0  0
    3.3476   -2.9110    0.5018 H   0  0  0  0  0  0  0  0  0  0  0  0
    2.4518   -1.6897   -1.4676 H   0  0  0  0  0  0  0  0  0  0  0  0
    1.3065   -1.6627   -0.1557 H   0  0  0  0  0  0  0  0  0  0  0  0
    0.1891    1.6532   -2.5431 H   0  0  0  0  0  0  0  0  0  0  0  0
    0.8889    0.0758   -2.8313 H   0  0  0  0  0  0  0  0  0  0  0  0
   -1.0260   -1.3273   -2.9245 H   0  0  0  0  0  0  0  0  0  0  0  0
   -2.9697   -2.3498   -1.8217 H   0  0  0  0  0  0  0  0  0  0  0  0
   -0.5642    1.3504    0.3914 H   0  0  0  0  0  0  0  0  0  0  0  0
 16 15  1  0
 14 15  1  0
 14 13  2  0
 15 17  2  0
 13 12  1  0
  7  8  1  0
  7  6  2  0
 17 18  1  0
 17 19  1  0
  8  9  1  0
 12 19  2  0
 12 11  1  0
  6  2  1  0
 11 10  1  0
  9 10  1  0
  9  3  2  0
  2  3  1  0
  2  1  2  0
 10  5  1  0
  3  4  1  0
  5  4  2  0
  4 20  1  0
  5 21  1  0
  7 22  1  0
  8 23  1  0
  8 24  1  0
 11 25  1  0
 11 26  1  0
 13 27  1  0
 14 28  1  0
 19 29  1  0
M  END
