
     RDKit          3D

124127  0  0  0  0  0  0  0  0999 V2000
   -2.9591   -2.0927    0.2503 C   0  0  2  0  0  0  0  0  0  0  0  0
   -3.3117   -0.7537    0.2538 O   0  0  0  0  0  0  0  0  0  0  0  0
   -3.4088   -2.7077    1.5754 C   0  0  1  0  0  0  0  0  0  0  0  0
   -4.8517   -2.6600    1.7110 N   0  0  0  0  0  0  0  0  0  0  0  0
   -2.9250   -4.1560    1.6578 C   0  0  2  0  0  0  0  0  0  0  0  0
   -3.2394   -4.6306    2.9348 O   0  0  0  0  0  0  0  0  0  0  0  0
   -1.4256   -4.2452    1.3553 C   0  0  1  0  0  0  0  0  0  0  0  0
   -1.0769   -5.6056    1.2731 O   0  0  0  0  0  0  0  0  0  0  0  0
   -1.1453   -3.5368    0.0325 C   0  0  1  0  0  0  0  0  0  0  0  0
   -1.5789   -2.1995    0.1296 O   0  0  0  0  0  0  0  0  0  0  0  0
    0.3262   -3.4872   -0.3480 C   0  0  0  0  0  0  0  0  0  0  0  0
   -4.0099    2.6995   -0.3070 C   0  0  1  0  0  0  0  0  0  0  0  0
   -4.5426    3.7058    0.5912 N   0  0  0  0  0  0  0  0  0  0  0  0
   -2.6700    2.1482    0.1873 C   0  0  1  0  0  0  0  0  0  0  0  0
   -2.1550    1.0919   -0.7903 C   0  0  1  0  0  0  0  0  0  0  0  0
   -0.9497    0.5467   -0.3109 O   0  0  0  0  0  0  0  0  0  0  0  0
   -3.1500   -0.0539   -0.9715 C   0  0  2  0  0  0  0  0  0  0  0  0
   -4.5070    0.5005   -1.4105 C   0  0  1  0  0  0  0  0  0  0  0  0
   -5.4501   -0.5920   -1.5360 N   0  0  0  0  0  0  0  0  0  0  0  0
   -5.0305    1.5785   -0.4642 C   0  0  0  0  0  0  0  0  0  0  0  0
    0.2411    1.0341   -0.7735 C   0  0  1  0  0  0  0  0  0  0  0  0
    1.3385    0.8530    0.2840 C   0  0  2  0  0  0  0  0  0  0  0  0
    2.5914    0.6491   -0.5798 C   0  0  1  0  0  0  0  0  0  0  0  0
    2.0571    0.6374   -2.0197 C   0  0  2  0  0  0  0  0  0  0  0  0
    0.6974    0.2698   -1.8851 O   0  0  0  0  0  0  0  0  0  0  0  0
    2.8014   -0.3264   -2.9093 C   0  0  0  0  0  0  0  0  0  0  0  0
    6.9934    1.3324    1.7836 C   0  0  2  0  0  0  0  0  0  0  0  0
    6.2549    2.6703    1.8669 C   0  0  2  0  0  0  0  0  0  0  0  0
    5.2647    2.8069    0.7103 C   0  0  1  0  0  0  0  0  0  0  0  0
    4.3708    1.5676    0.6577 C   0  0  1  0  0  0  0  0  0  0  0  0
    3.5777    1.6498   -0.4693 O   0  0  0  0  0  0  0  0  0  0  0  0
    5.9712    0.1988    1.6876 C   0  0  1  0  0  0  0  0  0  0  0  0
    5.1631    0.4209    0.5516 O   0  0  0  0  0  0  0  0  0  0  0  0
    6.6038   -1.1714    1.5248 C   0  0  0  0  0  0  0  0  0  0  0  0
    0.5277   -2.8491   -1.6328 N   0  0  0  0  0  0  0  0  0  0  0  0
    1.1407   -0.3063    1.0488 O   0  0  0  0  0  0  0  0  0  0  0  0
    7.1294    3.7597    1.8066 O   0  0  0  0  0  0  0  0  0  0  0  0
    7.7838    1.2147    2.9405 O   0  0  0  0  0  0  0  0  0  0  0  0
    2.1504   -0.3989   -4.1587 O   0  0  0  0  0  0  0  0  0  0  0  0
   -1.7220    3.1862    0.2706 O   0  0  0  0  0  0  0  0  0  0  0  0
    5.6131   -2.2260    1.4786 N   0  0  0  0  0  0  0  0  0  0  0  0
    4.4854    4.0137    0.8733 N   0  0  0  0  0  0  0  0  0  0  0  0
   -5.5256   -1.7858    2.4648 C   0  0  0  0  0  0  0  0  0  0  0  0
   -4.9613   -0.6569    2.8640 N   0  0  0  0  0  0  0  0  0  0  0  0
   -6.7755   -2.0549    2.7988 N   0  0  0  0  0  0  0  0  0  0  0  0
    0.3392   -3.4538   -2.8078 C   0  0  0  0  0  0  0  0  0  0  0  0
    0.0384   -4.7434   -2.8668 N   0  0  0  0  0  0  0  0  0  0  0  0
    0.4567   -2.7592   -3.9309 N   0  0  0  0  0  0  0  0  0  0  0  0
   -4.3771    5.0222    0.4664 C   0  0  0  0  0  0  0  0  0  0  0  0
   -5.1794    5.8393    1.1298 N   0  0  0  0  0  0  0  0  0  0  0  0
   -3.4390    5.5105   -0.3353 N   0  0  0  0  0  0  0  0  0  0  0  0
   -6.4341   -0.6716   -2.4356 C   0  0  0  0  0  0  0  0  0  0  0  0
   -7.2274   -1.7316   -2.4190 N   0  0  0  0  0  0  0  0  0  0  0  0
   -6.6228    0.2761   -3.3368 N   0  0  0  0  0  0  0  0  0  0  0  0
    4.1163    4.8386   -0.1040 C   0  0  0  0  0  0  0  0  0  0  0  0
    4.2473    4.4910   -1.3779 N   0  0  0  0  0  0  0  0  0  0  0  0
    3.6393    6.0330    0.2078 N   0  0  0  0  0  0  0  0  0  0  0  0
    5.0717   -2.7541    0.3882 C   0  0  0  0  0  0  0  0  0  0  0  0
    4.2378   -3.7824    0.5167 N   0  0  0  0  0  0  0  0  0  0  0  0
    5.3287   -2.2768   -0.8221 N   0  0  0  0  0  0  0  0  0  0  0  0
    5.8316   -1.4173   -0.9606 H   0  0  0  0  0  0  0  0  0  0  0  0
    5.0965   -2.8079   -1.6446 H   0  0  0  0  0  0  0  0  0  0  0  0
    5.2974   -2.5885    2.3650 H   0  0  0  0  0  0  0  0  0  0  0  0
    7.2334   -1.2095    0.6329 H   0  0  0  0  0  0  0  0  0  0  0  0
    7.2551   -1.3732    2.3735 H   0  0  0  0  0  0  0  0  0  0  0  0
    5.3538    0.1942    2.5998 H   0  0  0  0  0  0  0  0  0  0  0  0
    3.7591    1.5152    1.5762 H   0  0  0  0  0  0  0  0  0  0  0  0
    3.0099   -0.3329   -0.3341 H   0  0  0  0  0  0  0  0  0  0  0  0
    1.4135    1.7507    0.9115 H   0  0  0  0  0  0  0  0  0  0  0  0
    0.2115   -0.3550    1.3045 H   0  0  0  0  0  0  0  0  0  0  0  0
    0.1760    2.0872   -1.0782 H   0  0  0  0  0  0  0  0  0  0  0  0
    2.1255    1.6524   -2.4388 H   0  0  0  0  0  0  0  0  0  0  0  0
    3.8288    0.0372   -3.0106 H   0  0  0  0  0  0  0  0  0  0  0  0
    2.8578   -1.3135   -2.4291 H   0  0  0  0  0  0  0  0  0  0  0  0
    2.7711   -0.7423   -4.8102 H   0  0  0  0  0  0  0  0  0  0  0  0
   -2.0102    1.5572   -1.7751 H   0  0  0  0  0  0  0  0  0  0  0  0
   -2.8183    1.6863    1.1708 H   0  0  0  0  0  0  0  0  0  0  0  0
   -1.4968    3.3486    1.1910 H   0  0  0  0  0  0  0  0  0  0  0  0
   -5.1807    3.3950    1.3089 H   0  0  0  0  0  0  0  0  0  0  0  0
   -3.3522    6.5073   -0.4461 H   0  0  0  0  0  0  0  0  0  0  0  0
   -2.6120    4.9583   -0.5126 H   0  0  0  0  0  0  0  0  0  0  0  0
   -5.2616    1.1372    0.5109 H   0  0  0  0  0  0  0  0  0  0  0  0
   -5.9656    1.9892   -0.8504 H   0  0  0  0  0  0  0  0  0  0  0  0
   -4.3446    0.9294   -2.4021 H   0  0  0  0  0  0  0  0  0  0  0  0
   -5.5172   -1.2163   -0.7460 H   0  0  0  0  0  0  0  0  0  0  0  0
   -7.2997    0.1576   -4.0722 H   0  0  0  0  0  0  0  0  0  0  0  0
   -6.1395    1.1574   -3.3134 H   0  0  0  0  0  0  0  0  0  0  0  0
   -3.4451   -2.6240   -0.5886 H   0  0  0  0  0  0  0  0  0  0  0  0
   -1.7082   -4.0568   -0.7603 H   0  0  0  0  0  0  0  0  0  0  0  0
    0.8836   -2.9092    0.3890 H   0  0  0  0  0  0  0  0  0  0  0  0
    0.7578   -4.4882   -0.3513 H   0  0  0  0  0  0  0  0  0  0  0  0
    0.5357   -1.8352   -1.6342 H   0  0  0  0  0  0  0  0  0  0  0  0
    0.3512   -3.2301   -4.8145 H   0  0  0  0  0  0  0  0  0  0  0  0
    0.9104   -1.8477   -3.9649 H   0  0  0  0  0  0  0  0  0  0  0  0
   -0.8744   -3.7363    2.1574 H   0  0  0  0  0  0  0  0  0  0  0  0
   -0.2808   -5.7593    1.7886 H   0  0  0  0  0  0  0  0  0  0  0  0
   -3.4496   -4.7357    0.8797 H   0  0  0  0  0  0  0  0  0  0  0  0
   -3.0645   -5.5774    2.9592 H   0  0  0  0  0  0  0  0  0  0  0  0
   -2.9452   -2.1475    2.3946 H   0  0  0  0  0  0  0  0  0  0  0  0
   -5.3633   -3.4791    1.4142 H   0  0  0  0  0  0  0  0  0  0  0  0
   -7.3581   -1.3648    3.2433 H   0  0  0  0  0  0  0  0  0  0  0  0
   -7.1744   -2.9674    2.6511 H   0  0  0  0  0  0  0  0  0  0  0  0
    5.8362    2.8649   -0.2225 H   0  0  0  0  0  0  0  0  0  0  0  0
    4.2679    4.3014    1.8162 H   0  0  0  0  0  0  0  0  0  0  0  0
    3.6897    6.3904    1.1472 H   0  0  0  0  0  0  0  0  0  0  0  0
    3.2385    6.6326   -0.4940 H   0  0  0  0  0  0  0  0  0  0  0  0
    5.6841    2.6717    2.8109 H   0  0  0  0  0  0  0  0  0  0  0  0
    7.6974    3.7332    2.5841 H   0  0  0  0  0  0  0  0  0  0  0  0
    7.6084    1.3306    0.8729 H   0  0  0  0  0  0  0  0  0  0  0  0
    8.6119    0.7820    2.7152 H   0  0  0  0  0  0  0  0  0  0  0  0
   -2.7747   -0.7236   -1.7517 H   0  0  0  0  0  0  0  0  0  0  0  0
   -3.8592    3.1659   -1.2869 H   0  0  0  0  0  0  0  0  0  0  0  0
   -4.0966   -0.3300    2.4690 H   0  0  0  0  0  0  0  0  0  0  0  0
   -0.0474   -5.2110   -3.7539 H   0  0  0  0  0  0  0  0  0  0  0  0
   -6.0158    5.5047    1.5781 H   0  0  0  0  0  0  0  0  0  0  0  0
   -7.0077   -2.5440   -1.8681 H   0  0  0  0  0  0  0  0  0  0  0  0
    4.0008    5.1459   -2.1015 H   0  0  0  0  0  0  0  0  0  0  0  0
    4.1869   -4.2960    1.3813 H   0  0  0  0  0  0  0  0  0  0  0  0
   -8.0074   -1.8100   -3.0502 H   0  0  0  0  0  0  0  0  0  0  0  0
   -4.9876    6.8257    1.1832 H   0  0  0  0  0  0  0  0  0  0  0  0
    3.8723   -4.2463   -0.2977 H   0  0  0  0  0  0  0  0  0  0  0  0
   -5.4307   -0.0465    3.5125 H   0  0  0  0  0  0  0  0  0  0  0  0
    4.2737    3.5206   -1.6444 H   0  0  0  0  0  0  0  0  0  0  0  0
   -0.1793   -5.2896   -2.0519 H   0  0  0  0  0  0  0  0  0  0  0  0
  2  1  1  0
 10  1  1  0
  3  1  1  0
  1 88  1  6
  2 17  1  0
  3 99  1  1
  3  4  1  0
  3  5  1  0
 43  4  1  0
  4100  1  0
  6  5  1  0
  7  5  1  0
  5 97  1  6
  6 98  1  0
  7 95  1  1
  7  9  1  0
  7  8  1  0
 96  8  1  0
 10  9  1  0
 11  9  1  0
  9 89  1  6
 90 11  1  0
 11 91  1  0
 11 35  1  0
 13 12  1  0
 20 12  1  0
 12112  1  6
 12 14  1  0
 79 13  1  0
 49 13  1  0
 14 77  1  1
 14 40  1  0
 14 15  1  0
 17 15  1  0
 15 76  1  6
 15 16  1  0
 16 21  1  0
 18 17  1  0
 17111  1  6
 20 18  1  0
 19 18  1  0
 18 84  1  6
 52 19  1  0
 85 19  1  0
 83 20  1  0
 82 20  1  0
 21 71  1  6
 21 25  1  0
 21 22  1  0
 36 22  1  0
 22 69  1  1
 22 23  1  0
 23 68  1  1
 23 24  1  0
 23 31  1  0
 25 24  1  0
 24 26  1  0
 24 72  1  6
 39 26  1  0
 26 74  1  0
 26 73  1  0
 32 27  1  0
 38 27  1  0
 28 27  1  0
 27109  1  6
 28107  1  1
 29 28  1  0
 28 37  1  0
 30 29  1  0
 42 29  1  0
 29103  1  6
 30 67  1  1
 30 31  1  0
 30 33  1  0
 32 66  1  1
 32 33  1  0
 32 34  1  0
 41 34  1  0
 64 34  1  0
 34 65  1  0
 92 35  1  0
 35 46  1  0
 70 36  1  0
 37108  1  0
 38110  1  0
 75 39  1  0
 40 78  1  0
 58 41  1  0
 63 41  1  0
104 42  1  0
 42 55  1  0
 45 43  2  0
 43 44  1  0
122 44  1  0
 44113  1  0
101 45  1  0
102 45  1  0
 46 47  2  0
 46 48  1  0
114 47  1  0
 47124  1  0
 93 48  1  0
 48 94  1  0
 50 49  2  0
 49 51  1  0
115 50  1  0
120 50  1  0
 80 51  1  0
 51 81  1  0
 53 52  2  0
 52 54  1  0
119 53  1  0
116 53  1  0
 86 54  1  0
 54 87  1  0
 57 55  2  0
 55 56  1  0
 56123  1  0
 56117  1  0
106 57  1  0
 57105  1  0
 59 58  2  0
 58 60  1  0
118 59  1  0
121 59  1  0
 62 60  1  0
 60 61  1  0
M  CHG  6  45   1  47   1  50   1  53   1  57   1  59   1
M  END
