
     RDKit          3D

 52 55  0  0  0  0  0  0  0  0999 V2000
   -8.6775   -1.0580    0.8284 N   0  0  0  0  0  0  0  0  0  0  0  0
   -7.7137   -1.8823    0.6737 C   0  0  0  0  0  0  0  0  0  0  0  0
   -7.8351   -3.1780    1.0763 N   0  0  0  0  0  0  0  0  0  0  0  0
   -6.4170   -1.5508    0.0165 C   0  0  0  0  0  0  0  0  0  0  0  0
   -5.7514   -2.4774   -0.7819 C   0  0  0  0  0  0  0  0  0  0  0  0
   -4.5588   -2.1344   -1.4031 C   0  0  0  0  0  0  0  0  0  0  0  0
   -4.0086   -0.8771   -1.2178 C   0  0  0  0  0  0  0  0  0  0  0  0
   -4.6618    0.0543   -0.4145 C   0  0  0  0  0  0  0  0  0  0  0  0
   -5.8665   -0.2845    0.1903 C   0  0  0  0  0  0  0  0  0  0  0  0
   -4.1077    1.4001   -0.2249 C   0  0  0  0  0  0  0  0  0  0  0  0
   -2.7644    1.8025    0.0431 C   0  0  0  0  0  0  0  0  0  0  0  0
   -1.6038    0.9401    0.3455 C   0  0  0  0  0  0  0  0  0  0  0  0
   -1.7505   -0.1512    0.8616 O   0  0  0  0  0  0  0  0  0  0  0  0
   -0.4079    1.4884    0.0151 N   0  0  0  0  0  0  0  0  0  0  0  0
    0.8785    1.0181    0.2906 C   0  0  0  0  0  0  0  0  0  0  0  0
    1.9329    1.8963    0.0307 C   0  0  0  0  0  0  0  0  0  0  0  0
    3.2425    1.5238    0.2650 C   0  0  0  0  0  0  0  0  0  0  0  0
    3.5391    0.2612    0.7736 C   0  0  0  0  0  0  0  0  0  0  0  0
    2.4835   -0.6053    1.0412 C   0  0  0  0  0  0  0  0  0  0  0  0
    1.1649   -0.2487    0.7995 C   0  0  0  0  0  0  0  0  0  0  0  0
    4.9278   -0.1465    1.0972 C   0  0  0  0  0  0  0  0  0  0  0  0
    5.2813   -0.2669    2.4387 C   0  0  0  0  0  0  0  0  0  0  0  0
    6.5595   -0.6484    2.8191 C   0  0  0  0  0  0  0  0  0  0  0  0
    7.5156   -0.9255    1.8551 C   0  0  0  0  0  0  0  0  0  0  0  0
    7.1853   -0.8333    0.5122 C   0  0  0  0  0  0  0  0  0  0  0  0
    5.9033   -0.4471    0.1397 C   0  0  0  0  0  0  0  0  0  0  0  0
    5.5524   -0.3790   -1.6095 S   0  0  1  0  0  0  0  0  0  0  0  0
    5.1999    0.9836   -1.9680 O   0  0  0  0  0  0  0  0  0  0  0  0
    6.6602   -1.0273   -2.2917 O   0  0  0  0  0  0  0  0  0  0  0  0
    4.2269   -1.3003   -1.9024 N   0  0  0  0  0  0  0  0  0  0  0  0
   -4.8863    2.4392   -0.3168 N   0  0  0  0  0  0  0  0  0  0  0  0
   -4.1066    3.5322   -0.0968 O   0  0  0  0  0  0  0  0  0  0  0  0
   -2.8568    3.1539    0.1125 C   0  0  0  0  0  0  0  0  0  0  0  0
   -8.4700   -0.1723    0.3823 H   0  0  0  0  0  0  0  0  0  0  0  0
   -8.6441   -3.3944    1.6370 H   0  0  0  0  0  0  0  0  0  0  0  0
   -7.0023   -3.6761    1.3428 H   0  0  0  0  0  0  0  0  0  0  0  0
   -6.1692   -3.4635   -0.9387 H   0  0  0  0  0  0  0  0  0  0  0  0
   -4.0571   -2.8514   -2.0387 H   0  0  0  0  0  0  0  0  0  0  0  0
   -3.0827   -0.6186   -1.7144 H   0  0  0  0  0  0  0  0  0  0  0  0
   -6.3605    0.4350    0.8313 H   0  0  0  0  0  0  0  0  0  0  0  0
   -0.4358    2.3724   -0.4708 H   0  0  0  0  0  0  0  0  0  0  0  0
    1.7236    2.8880   -0.3528 H   0  0  0  0  0  0  0  0  0  0  0  0
    4.0343    2.2328    0.0698 H   0  0  0  0  0  0  0  0  0  0  0  0
    2.6907   -1.5924    1.4358 H   0  0  0  0  0  0  0  0  0  0  0  0
    0.3828   -0.9598    1.0061 H   0  0  0  0  0  0  0  0  0  0  0  0
    4.5371   -0.0494    3.1942 H   0  0  0  0  0  0  0  0  0  0  0  0
    6.8054   -0.7276    3.8696 H   0  0  0  0  0  0  0  0  0  0  0  0
    8.5148   -1.2234    2.1418 H   0  0  0  0  0  0  0  0  0  0  0  0
    7.9278   -1.0685   -0.2367 H   0  0  0  0  0  0  0  0  0  0  0  0
    4.3435   -2.2803   -1.6700 H   0  0  0  0  0  0  0  0  0  0  0  0
    3.3616   -0.9266   -1.5302 H   0  0  0  0  0  0  0  0  0  0  0  0
   -2.1404    3.9335    0.3266 H   0  0  0  0  0  0  0  0  0  0  0  0
  1  2  2  0
  1 34  1  0
  2  3  1  0
  2  4  1  0
  3 35  1  0
  3 36  1  0
  5  4  2  0
  4  9  1  0
  5  6  1  0
  5 37  1  0
  6  7  2  0
  6 38  1  0
  7  8  1  0
  7 39  1  0
  9  8  2  0
  8 10  1  0
  9 40  1  0
 31 10  2  0
 10 11  1  0
 11 33  2  0
 11 12  1  0
 13 12  2  0
 12 14  1  0
 14 15  1  0
 14 41  1  0
 15 16  2  0
 15 20  1  0
 16 17  1  0
 16 42  1  0
 17 18  2  0
 17 43  1  0
 19 18  1  0
 18 21  1  0
 20 19  2  0
 19 44  1  0
 20 45  1  0
 22 21  2  0
 21 26  1  0
 22 23  1  0
 22 46  1  0
 23 24  2  0
 23 47  1  0
 24 25  1  0
 24 48  1  0
 26 25  2  0
 25 49  1  0
 26 27  1  0
 28 27  2  0
 27 30  1  1
 27 29  2  0
 30 50  1  0
 30 51  1  0
 31 32  1  0
 32 33  1  0
 33 52  1  0
M  END
