
     RDKit          3D

 28 30  0  0  0  0  0  0  0  0999 V2000
    2.6873   -2.0927   -0.3765 N   0  0  0  0  0  0  0  0  0  0  0  0
    1.7413   -0.1292    0.2862 C   0  0  0  0  0  0  0  0  0  0  0  0
    2.7918   -0.7218   -0.4343 C   0  0  0  0  0  0  0  0  0  0  0  0
    3.7405    0.0815   -1.0668 C   0  0  0  0  0  0  0  0  0  0  0  0
    1.6265   -2.3120    0.3445 C   0  0  0  0  0  0  0  0  0  0  0  0
   -1.7333   -0.8607   -0.3734 C   0  0  0  0  0  0  0  0  0  0  0  0
   -3.0901    1.2229    0.8681 C   0  0  0  0  0  0  0  0  0  0  0  0
    3.6042    1.4534   -0.9574 C   0  0  0  0  0  0  0  0  0  0  0  0
   -2.8019   -0.2599   -1.0196 C   0  0  0  0  0  0  0  0  0  0  0  0
   -3.4631    0.7741   -0.3821 C   0  0  0  0  0  0  0  0  0  0  0  0
   -2.0134    0.6102    1.4963 C   0  0  0  0  0  0  0  0  0  0  0  0
    2.5473    2.0281   -0.2341 C   0  0  0  0  0  0  0  0  0  0  0  0
    1.5957    1.2493    0.4008 C   0  0  0  0  0  0  0  0  0  0  0  0
   -1.3282   -0.4342    0.8886 C   0  0  0  0  0  0  0  0  0  0  0  0
    1.0102   -1.1818    0.7766 N   0  0  0  0  0  0  0  0  0  0  0  0
    4.5579   -0.3599   -1.6225 H   0  0  0  0  0  0  0  0  0  0  0  0
    1.2367   -3.2868    0.6018 H   0  0  0  0  0  0  0  0  0  0  0  0
    0.0572   -0.5739    2.5213 H   0  0  0  0  0  0  0  0  0  0  0  0
   -0.4444   -2.1243    1.8750 H   0  0  0  0  0  0  0  0  0  0  0  0
   -1.2125   -1.6715   -0.8687 H   0  0  0  0  0  0  0  0  0  0  0  0
   -3.6227    2.0358    1.3436 H   0  0  0  0  0  0  0  0  0  0  0  0
    4.3261    2.1006   -1.4381 H   0  0  0  0  0  0  0  0  0  0  0  0
   -3.1156   -0.5907   -2.0008 H   0  0  0  0  0  0  0  0  0  0  0  0
   -1.7086    0.9586    2.4755 H   0  0  0  0  0  0  0  0  0  0  0  0
    2.4740    3.1060   -0.1725 H   0  0  0  0  0  0  0  0  0  0  0  0
    0.7810    1.7006    0.9512 H   0  0  0  0  0  0  0  0  0  0  0  0
   -0.1782   -1.1037    1.5962 C   0  0  0  0  0  0  0  0  0  0  0  0
   -4.4996    1.3604   -1.0021 F   0  0  0  0  0  0  0  0  0  0  0  0
  8  4  1  0
  8 12  2  0
  4  3  2  0
 12 13  1  0
  3  2  1  0
  3  1  1  0
 13  2  2  0
  2 15  1  0
  9  6  2  0
  9 10  1  0
  1  5  2  0
  6 14  1  0
 28 10  1  0
 10  7  2  0
 15  5  1  0
 15 27  1  0
 14 27  1  0
 14 11  2  0
  7 11  1  0
  4 16  1  0
  5 17  1  0
 27 18  1  0
 27 19  1  0
  6 20  1  0
  7 21  1  0
  8 22  1  0
  9 23  1  0
 11 24  1  0
 12 25  1  0
 13 26  1  0
M  END
