
     RDKit          3D

 34 35  0  0  0  0  0  0  0  0999 V2000
    0.0199    1.4036   -0.1829 C   0  0  0  0  0  0  0  0  0  0  0  0
    0.9645    0.3710   -0.2194 C   0  0  0  0  0  0  0  0  0  0  0  0
    0.5464   -0.9442   -0.1287 C   0  0  0  0  0  0  0  0  0  0  0  0
   -5.0966   -1.6327    0.3496 C   0  0  0  0  0  0  0  0  0  0  0  0
    2.4177    0.7410   -0.3818 C   0  0  0  0  0  0  0  0  0  0  0  0
    2.8484   -1.6362   -0.7862 C   0  0  0  0  0  0  0  0  0  0  0  0
    1.5343   -2.0794   -0.1681 C   0  0  0  0  0  0  0  0  0  0  0  0
   -3.5917   -1.7055    0.2487 C   0  0  0  0  0  0  0  0  0  0  0  0
   -1.9301    3.4232   -0.1026 C   0  0  0  0  0  0  0  0  0  0  0  0
    3.2852   -0.3971   -0.1793 N   0  0  0  0  0  0  0  0  0  0  0  0
   -1.3280    1.1360   -0.0505 C   0  0  0  0  0  0  0  0  0  0  0  0
   -0.8207   -1.2176    0.0083 C   0  0  0  0  0  0  0  0  0  0  0  0
   -1.7590   -0.2052    0.0483 C   0  0  0  0  0  0  0  0  0  0  0  0
   -3.0878   -0.3804    0.1720 O   0  0  0  0  0  0  0  0  0  0  0  0
   -2.3021    2.0647   -0.0039 O   0  0  0  0  0  0  0  0  0  0  0  0
    4.8400    0.6804    1.0927 O   0  0  0  0  0  0  0  0  0  0  0  0
    0.3688    2.4264   -0.2602 H   0  0  0  0  0  0  0  0  0  0  0  0
   -5.5016   -2.6422    0.4161 H   0  0  0  0  0  0  0  0  0  0  0  0
   -5.4114   -1.0868    1.2392 H   0  0  0  0  0  0  0  0  0  0  0  0
   -5.5333   -1.1538   -0.5268 H   0  0  0  0  0  0  0  0  0  0  0  0
    2.5849    1.1552   -1.3833 H   0  0  0  0  0  0  0  0  0  0  0  0
    2.6920    1.5209    0.3283 H   0  0  0  0  0  0  0  0  0  0  0  0
    3.6191   -2.3947   -0.6515 H   0  0  0  0  0  0  0  0  0  0  0  0
    2.7274   -1.4833   -1.8624 H   0  0  0  0  0  0  0  0  0  0  0  0
    1.7162   -2.4545    0.8438 H   0  0  0  0  0  0  0  0  0  0  0  0
    1.1282   -2.9156   -0.7413 H   0  0  0  0  0  0  0  0  0  0  0  0
   -3.1747   -2.2184    1.1225 H   0  0  0  0  0  0  0  0  0  0  0  0
   -3.2946   -2.2751   -0.6387 H   0  0  0  0  0  0  0  0  0  0  0  0
   -1.2705    3.7280    0.7147 H   0  0  0  0  0  0  0  0  0  0  0  0
   -1.4361    3.6445   -1.0528 H   0  0  0  0  0  0  0  0  0  0  0  0
   -2.8495    4.0009   -0.0433 H   0  0  0  0  0  0  0  0  0  0  0  0
    4.9259   -1.2912    0.6064 H   0  0  0  0  0  0  0  0  0  0  0  0
   -1.1303   -2.2530    0.0801 H   0  0  0  0  0  0  0  0  0  0  0  0
    4.4074   -0.3215    0.5479 C   0  0  0  0  0  0  0  0  0  0  0  0
  4  8  1  0
  8 14  1  0
 14 13  1  0
 15  9  1  0
 15 11  1  0
 13 11  1  0
 13 12  2  0
 11  1  2  0
 12  3  1  0
  1  2  1  0
  3  2  2  0
  3  7  1  0
  2  5  1  0
  7  6  1  0
  5 10  1  0
  6 10  1  0
 10 34  1  0
 34 16  2  0
  1 17  1  0
  4 18  1  0
  4 19  1  0
  4 20  1  0
  5 21  1  0
  5 22  1  0
  6 23  1  0
  6 24  1  0
  7 25  1  0
  7 26  1  0
  8 27  1  0
  8 28  1  0
  9 29  1  0
  9 30  1  0
  9 31  1  0
 34 32  1  0
 12 33  1  0
M  END
