
     RDKit          3D

 28 30  0  0  0  0  0  0  0  0999 V2000
   -2.1696   -2.7899   -0.0048 O   0  0  0  0  0  0  0  0  0  0  0  0
   -1.7608   -1.6428    0.0023 C   0  0  0  0  0  0  0  0  0  0  0  0
   -0.4099   -1.3707    0.0127 N   0  0  0  0  0  0  0  0  0  0  0  0
    0.1344   -0.1172    0.0219 C   0  0  0  0  0  0  0  0  0  0  0  0
    1.5998    0.0090    0.0349 C   0  0  0  0  0  0  0  0  0  0  0  0
    2.1647    1.2892    0.0325 C   0  0  0  0  0  0  0  0  0  0  0  0
    3.5302    1.4731    0.0455 C   0  0  0  0  0  0  0  0  0  0  0  0
    4.3833    0.3678    0.0623 C   0  0  0  0  0  0  0  0  0  0  0  0
    5.7025    0.5980    0.0755 O   0  0  0  0  0  0  0  0  0  0  0  0
    3.8381   -0.9141    0.0646 C   0  0  0  0  0  0  0  0  0  0  0  0
    2.4652   -1.0849    0.0507 C   0  0  0  0  0  0  0  0  0  0  0  0
   -0.5947    0.9458    0.0198 N   0  0  0  0  0  0  0  0  0  0  0  0
   -1.9571    0.8068    0.0091 C   0  0  0  0  0  0  0  0  0  0  0  0
   -2.5901   -0.4465    0.0008 C   0  0  0  0  0  0  0  0  0  0  0  0
   -2.7521    1.9633    0.0070 C   0  0  0  0  0  0  0  0  0  0  0  0
   -4.1253    1.8593   -0.0024 C   0  0  0  0  0  0  0  0  0  0  0  0
   -4.7495    0.6059   -0.0100 C   0  0  0  0  0  0  0  0  0  0  0  0
   -3.9845   -0.5395   -0.0087 C   0  0  0  0  0  0  0  0  0  0  0  0
    0.1937   -2.1810    0.0098 H   0  0  0  0  0  0  0  0  0  0  0  0
    1.5148    2.1527    0.0203 H   0  0  0  0  0  0  0  0  0  0  0  0
    2.1040   -2.1052    0.0549 H   0  0  0  0  0  0  0  0  0  0  0  0
    3.9451    2.4731    0.0431 H   0  0  0  0  0  0  0  0  0  0  0  0
    6.1967   -0.2300    0.0951 H   0  0  0  0  0  0  0  0  0  0  0  0
    4.4836   -1.7842    0.0772 H   0  0  0  0  0  0  0  0  0  0  0  0
   -2.2662    2.9305    0.0126 H   0  0  0  0  0  0  0  0  0  0  0  0
   -4.4551   -1.5138   -0.0149 H   0  0  0  0  0  0  0  0  0  0  0  0
   -4.7302    2.7567   -0.0037 H   0  0  0  0  0  0  0  0  0  0  0  0
   -5.8288    0.5396   -0.0163 H   0  0  0  0  0  0  0  0  0  0  0  0
  1  2  2  0
  2  3  1  0
  2 14  1  0
  3  4  1  0
  4  5  1  0
  4 12  2  0
  5  6  2  0
  5 11  1  0
  6  7  1  0
  7  8  2  0
  8  9  1  0
  8 10  1  0
 10 11  2  0
 12 13  1  0
 13 14  2  0
 13 15  1  0
 14 18  1  0
 15 16  2  0
 16 17  1  0
 17 18  2  0
  3 19  1  0
  6 20  1  0
 11 21  1  0
  7 22  1  0
  9 23  1  0
 10 24  1  0
 15 25  1  0
 18 26  1  0
 16 27  1  0
 17 28  1  0
M  END
