
     RDKit          3D

 40 43  0  0  0  0  0  0  0  0999 V2000
    0.1528   -1.2473    0.4075 C   0  0  0  0  0  0  0  0  0  0  0  0
   -0.5626   -2.3082    0.9840 C   0  0  0  0  0  0  0  0  0  0  0  0
   -5.8818    1.7539    0.8884 C   0  0  0  0  0  0  0  0  0  0  0  0
   -5.6185    0.9426   -1.3796 C   0  0  0  0  0  0  0  0  0  0  0  0
    4.7707   -0.6936   -1.2417 C   0  0  0  0  0  0  0  0  0  0  0  0
    4.8655    0.6325   -0.8602 C   0  0  0  0  0  0  0  0  0  0  0  0
    3.8644    1.1757   -0.0701 C   0  0  0  0  0  0  0  0  0  0  0  0
    3.1262    3.7391   -0.8946 C   0  0  0  0  0  0  0  0  0  0  0  0
    3.1842    3.0461    1.6451 O   0  0  0  0  0  0  0  0  0  0  0  0
    3.9605    2.8810    0.4192 S   0  0  1  0  0  0  0  0  0  0  0  0
    5.3658    3.2762    0.4123 O   0  0  0  0  0  0  0  0  0  0  0  0
    3.6892   -1.4610   -0.8326 C   0  0  0  0  0  0  0  0  0  0  0  0
    3.6076   -3.0897   -1.3854 Cl  0  0  0  0  0  0  0  0  0  0  0  0
    2.7895    0.4117    0.3489 C   0  0  0  0  0  0  0  0  0  0  0  0
    2.6816   -0.9253   -0.0259 C   0  0  0  0  0  0  0  0  0  0  0  0
    1.5115   -1.6794    0.4309 C   0  0  0  0  0  0  0  0  0  0  0  0
   -0.6152   -0.1714   -0.0166 C   0  0  0  0  0  0  0  0  0  0  0  0
    1.5894   -2.8696    0.9656 N   0  0  0  0  0  0  0  0  0  0  0  0
    0.3455   -3.2455    1.2934 N   0  0  0  0  0  0  0  0  0  0  0  0
   -1.8771   -2.3397    1.1610 N   0  0  0  0  0  0  0  0  0  0  0  0
   -2.4683   -1.2515    0.7295 C   0  0  0  0  0  0  0  0  0  0  0  0
   -1.9233   -0.1810    0.1520 N   0  0  0  0  0  0  0  0  0  0  0  0
   -3.7981   -1.2518    0.9167 O   0  0  0  0  0  0  0  0  0  0  0  0
   -4.5381   -0.1926    0.4577 C   0  0  0  0  0  0  0  0  0  0  0  0
   -4.8202   -0.0708   -0.8942 C   0  0  0  0  0  0  0  0  0  0  0  0
   -4.2996   -0.9615   -1.7397 F   0  0  0  0  0  0  0  0  0  0  0  0
   -6.1376    1.8417   -0.4651 C   0  0  0  0  0  0  0  0  0  0  0  0
   -6.9184    2.8289   -0.9197 F   0  0  0  0  0  0  0  0  0  0  0  0
   -5.0688    0.7249    1.3442 C   0  0  0  0  0  0  0  0  0  0  0  0
   -6.3031    2.4720    1.5782 H   0  0  0  0  0  0  0  0  0  0  0  0
   -5.8295    1.0256   -2.4376 H   0  0  0  0  0  0  0  0  0  0  0  0
    5.5396   -1.1320   -1.8621 H   0  0  0  0  0  0  0  0  0  0  0  0
    5.7127    1.2210   -1.1845 H   0  0  0  0  0  0  0  0  0  0  0  0
    2.0952    3.3984   -0.9548 H   0  0  0  0  0  0  0  0  0  0  0  0
    3.1546    4.8018   -0.6547 H   0  0  0  0  0  0  0  0  0  0  0  0
    3.6426    3.5548   -1.8337 H   0  0  0  0  0  0  0  0  0  0  0  0
    2.0335    0.8410    0.9942 H   0  0  0  0  0  0  0  0  0  0  0  0
   -0.1854    0.7018   -0.4946 H   0  0  0  0  0  0  0  0  0  0  0  0
    0.1893   -4.1391    1.7348 H   0  0  0  0  0  0  0  0  0  0  0  0
   -4.8516    0.6329    2.4002 H   0  0  0  0  0  0  0  0  0  0  0  0
  1  2  1  0
  1 16  1  0
  1 17  2  0
  2 19  1  0
  2 20  2  0
  3 27  2  0
  3 29  1  0
  4 25  2  0
  4 27  1  0
  5  6  2  0
  5 12  1  0
  6  7  1  0
  7 10  1  0
  7 14  2  0
 10  8  1  6
  9 10  2  0
 10 11  2  0
 12 13  1  0
 12 15  2  0
 14 15  1  0
 15 16  1  0
 16 18  2  0
 17 22  1  0
 18 19  1  0
 20 21  1  0
 21 22  2  0
 21 23  1  0
 23 24  1  0
 24 25  1  0
 24 29  2  0
 25 26  1  0
 27 28  1  0
  3 30  1  0
  4 31  1  0
  5 32  1  0
  6 33  1  0
  8 34  1  0
  8 35  1  0
  8 36  1  0
 14 37  1  0
 17 38  1  0
 19 39  1  0
 29 40  1  0
M  END
