
     RDKit          3D

 28 28  0  0  0  0  0  0  0  0999 V2000
    1.0143    0.5027    0.3620 N   0  0  0  0  0  0  0  0  0  0  0  0
   -2.7661   -1.2186   -0.0963 C   0  0  0  0  0  0  0  0  0  0  0  0
   -1.6828   -2.0585    0.1093 C   0  0  0  0  0  0  0  0  0  0  0  0
   -1.8454   -3.5506    0.1651 C   0  0  0  0  0  0  0  0  0  0  0  0
   -0.4201   -1.4841    0.2616 C   0  0  0  0  0  0  0  0  0  0  0  0
   -0.2346   -0.1108    0.1955 C   0  0  0  0  0  0  0  0  0  0  0  0
    3.3520    1.0182    0.1988 C   0  0  0  0  0  0  0  0  0  0  0  0
   -2.1729    2.9475   -0.1658 C   0  0  0  0  0  0  0  0  0  0  0  0
   -1.3472    0.7254   -0.0137 C   0  0  0  0  0  0  0  0  0  0  0  0
   -2.6061    0.1625   -0.1519 C   0  0  0  0  0  0  0  0  0  0  0  0
    2.2207    0.0350   -0.0525 C   0  0  0  0  0  0  0  0  0  0  0  0
    4.6261    0.4723   -0.2042 N   0  0  0  0  0  0  0  0  0  0  0  0
   -1.0877    2.0490   -0.0514 O   0  0  0  0  0  0  0  0  0  0  0  0
    2.3865   -1.0439   -0.5865 O   0  0  0  0  0  0  0  0  0  0  0  0
    0.9960    1.4489    0.7127 H   0  0  0  0  0  0  0  0  0  0  0  0
   -3.7600   -1.6337   -0.2112 H   0  0  0  0  0  0  0  0  0  0  0  0
   -1.5397   -4.0196   -0.7726 H   0  0  0  0  0  0  0  0  0  0  0  0
   -1.2361   -3.9891    0.9559 H   0  0  0  0  0  0  0  0  0  0  0  0
   -2.8820   -3.8312    0.3481 H   0  0  0  0  0  0  0  0  0  0  0  0
    0.4284   -2.1261    0.4495 H   0  0  0  0  0  0  0  0  0  0  0  0
    3.0799    1.9659   -0.2895 H   0  0  0  0  0  0  0  0  0  0  0  0
    3.3803    1.2345    1.2705 H   0  0  0  0  0  0  0  0  0  0  0  0
   -2.7013    2.8299   -1.1153 H   0  0  0  0  0  0  0  0  0  0  0  0
   -2.8868    2.8284    0.6529 H   0  0  0  0  0  0  0  0  0  0  0  0
   -1.7506    3.9482   -0.1235 H   0  0  0  0  0  0  0  0  0  0  0  0
   -3.4772    0.7841   -0.3089 H   0  0  0  0  0  0  0  0  0  0  0  0
    4.6570    0.3761   -1.2107 H   0  0  0  0  0  0  0  0  0  0  0  0
    5.3516    1.1358    0.0329 H   0  0  0  0  0  0  0  0  0  0  0  0
  7 12  1  0
  7 11  1  0
 11 14  2  0
 11  1  1  0
  1  6  1  0
  8 13  1  0
 13  9  1  0
  6  9  2  0
  6  5  1  0
  9 10  1  0
  5  3  2  0
 10  2  2  0
  3  2  1  0
  3  4  1  0
  1 15  1  0
  2 16  1  0
  4 17  1  0
  4 18  1  0
  4 19  1  0
  5 20  1  0
  7 21  1  0
  7 22  1  0
  8 23  1  0
  8 24  1  0
  8 25  1  0
 10 26  1  0
 12 27  1  0
 12 28  1  0
M  END
