
     RDKit          3D

 50 52  0  0  0  0  0  0  0  0999 V2000
    2.8037   -3.4463   -0.9521 O   0  0  0  0  0  0  0  0  0  0  0  0
    2.8402   -2.5396    0.3653 P   0  0  2  0  0  0  0  0  0  0  0  0
    2.8134   -3.3767    1.5819 O   0  0  0  0  0  0  0  0  0  0  0  0
    1.5602   -1.6050    0.0885 O   0  0  0  0  0  0  0  0  0  0  0  0
    1.2462   -0.5474    0.9932 C   0  0  0  0  0  0  0  0  0  0  0  0
    0.7699    0.6452    0.1919 C   0  0  2  0  0  0  0  0  0  0  0  0
    0.4466    1.8458    1.0738 C   0  0  1  0  0  0  0  0  0  0  0  0
    0.6504    3.0116    0.3206 O   0  0  0  0  0  0  0  0  0  0  0  0
   -1.0425    1.6175    1.3432 C   0  0  1  0  0  0  0  0  0  0  0  0
   -1.7700    2.7623    1.6666 O   0  0  0  0  0  0  0  0  0  0  0  0
   -1.5078    1.0753   -0.0089 C   0  0  1  0  0  0  0  0  0  0  0  0
   -0.4314    0.3329   -0.5135 O   0  0  0  0  0  0  0  0  0  0  0  0
   -2.6722    0.2335    0.0717 N   0  0  0  0  0  0  0  0  0  0  0  0
   -3.8999    0.4888   -0.4705 C   0  0  0  0  0  0  0  0  0  0  0  0
   -4.6823   -0.6005   -0.1230 C   0  0  0  0  0  0  0  0  0  0  0  0
   -3.9585   -1.5086    0.6067 N   0  0  0  0  0  0  0  0  0  0  0  0
   -2.7765   -0.9791    0.7005 C   0  0  0  0  0  0  0  0  0  0  0  0
   -4.2847    1.5439   -1.1836 N   0  0  0  0  0  0  0  0  0  0  0  0
   -5.5516    1.4507   -1.5493 C   0  0  0  0  0  0  0  0  0  0  0  0
   -6.4185    0.4761   -1.2881 N   0  0  0  0  0  0  0  0  0  0  0  0
   -6.0166   -0.5782   -0.5690 C   0  0  0  0  0  0  0  0  0  0  0  0
   -6.8824   -1.5563   -0.3033 N   0  0  0  0  0  0  0  0  0  0  0  0
    4.1275   -1.5118    0.3403 N   0  0  0  0  0  0  0  0  0  0  0  0
    4.4196   -0.5569   -0.7012 C   0  0  1  0  0  0  0  0  0  0  0  0
    4.3607    0.8640   -0.1524 C   0  0  0  0  0  0  0  0  0  0  0  0
    5.7789   -0.8277   -1.3476 C   0  0  0  0  0  0  0  0  0  0  0  0
    4.3411    1.1498    1.0166 O   0  0  0  0  0  0  0  0  0  0  0  0
    4.3397    1.7485   -1.1343 O   0  0  0  0  0  0  0  0  0  0  0  0
    4.2696    3.1330   -0.7796 C   0  0  0  0  0  0  0  0  0  0  0  0
    2.7365   -2.9944   -1.8028 H   0  0  0  0  0  0  0  0  0  0  0  0
    0.4814   -0.8934    1.6934 H   0  0  0  0  0  0  0  0  0  0  0  0
    2.1203   -0.2515    1.5781 H   0  0  0  0  0  0  0  0  0  0  0  0
    1.5359    0.9073   -0.5449 H   0  0  0  0  0  0  0  0  0  0  0  0
    1.0384    1.8493    1.9980 H   0  0  0  0  0  0  0  0  0  0  0  0
    0.1559    3.7278    0.7362 H   0  0  0  0  0  0  0  0  0  0  0  0
   -1.1521    0.8402    2.1115 H   0  0  0  0  0  0  0  0  0  0  0  0
   -1.6911    2.9264    2.6119 H   0  0  0  0  0  0  0  0  0  0  0  0
   -1.7745    1.9022   -0.6761 H   0  0  0  0  0  0  0  0  0  0  0  0
   -1.9373   -1.4327    1.2064 H   0  0  0  0  0  0  0  0  0  0  0  0
   -5.9401    2.2741   -2.1390 H   0  0  0  0  0  0  0  0  0  0  0  0
   -7.8250   -1.5076   -0.6490 H   0  0  0  0  0  0  0  0  0  0  0  0
   -6.6097   -2.3636    0.2290 H   0  0  0  0  0  0  0  0  0  0  0  0
    4.8754   -1.7094    0.9902 H   0  0  0  0  0  0  0  0  0  0  0  0
    3.6580   -0.6302   -1.4832 H   0  0  0  0  0  0  0  0  0  0  0  0
    6.5816   -0.7489   -0.6136 H   0  0  0  0  0  0  0  0  0  0  0  0
    5.7882   -1.8363   -1.7579 H   0  0  0  0  0  0  0  0  0  0  0  0
    5.9825   -0.1284   -2.1560 H   0  0  0  0  0  0  0  0  0  0  0  0
    3.3237    3.3582   -0.2873 H   0  0  0  0  0  0  0  0  0  0  0  0
    5.0971    3.4232   -0.1336 H   0  0  0  0  0  0  0  0  0  0  0  0
    4.3306    3.6820   -1.7144 H   0  0  0  0  0  0  0  0  0  0  0  0
 22 21  1  0
 21 20  1  0
 21 15  2  0
 20 19  2  0
 15 16  1  0
 15 14  1  0
 19 18  1  0
 16 17  2  0
 14 18  2  0
 14 13  1  0
 17 13  1  0
 13 11  1  0
 11  9  1  0
 11 12  1  0
 10  9  1  0
  9  7  1  0
 12  6  1  0
  7  6  1  0
  7  8  1  0
  6  5  1  0
  5  4  1  0
 28 25  1  0
 28 29  1  0
 27 25  2  0
  2  4  1  1
 25 24  1  0
  3  2  2  0
 23  2  1  0
 23 24  1  0
  2  1  1  0
 24 26  1  0
  1 30  1  0
  5 31  1  0
  5 32  1  0
  6 33  1  6
  7 34  1  1
  8 35  1  0
  9 36  1  1
 10 37  1  0
 11 38  1  6
 17 39  1  0
 19 40  1  0
 22 41  1  0
 22 42  1  0
 23 43  1  0
 24 44  1  6
 26 45  1  0
 26 46  1  0
 26 47  1  0
 29 48  1  0
 29 49  1  0
 29 50  1  0
M  END
