
     RDKit          3D

 30 30  0  0  0  0  0  0  0  0999 V2000
    1.2705   -0.4232    0.0540 N   0  0  0  0  0  0  0  0  0  0  0  0
    0.1047    0.0549    0.7708 C   0  0  1  0  0  0  0  0  0  0  0  0
   -1.1530   -0.4325    0.0433 C   0  0  2  0  0  0  0  0  0  0  0  0
   -1.1647    0.0542   -1.4016 C   0  0  2  0  0  0  0  0  0  0  0  0
    0.1170   -0.3914   -2.0978 C   0  0  1  0  0  0  0  0  0  0  0  0
    0.1421    0.0636   -3.5477 C   0  0  0  0  0  0  0  0  0  0  0  0
    0.4014   -0.5483    4.5059 C   0  0  0  0  0  0  0  0  0  0  0  0
    1.3400    0.0713   -1.3132 C   0  0  0  0  0  0  0  0  0  0  0  0
    0.1157   -0.4727    2.1126 N   0  0  0  0  0  0  0  0  0  0  0  0
    0.4543    1.4702    3.2298 O   0  0  0  0  0  0  0  0  0  0  0  0
   -2.3258    0.0328    0.6628 O   0  0  0  0  0  0  0  0  0  0  0  0
   -1.2544    1.4600   -1.4702 O   0  0  0  0  0  0  0  0  0  0  0  0
    1.2394   -0.5463   -4.1941 O   0  0  0  0  0  0  0  0  0  0  0  0
    2.1027   -0.1385    0.5560 H   0  0  0  0  0  0  0  0  0  0  0  0
    0.0655    1.1475    0.8534 H   0  0  0  0  0  0  0  0  0  0  0  0
   -1.1200   -1.5328    0.0255 H   0  0  0  0  0  0  0  0  0  0  0  0
   -2.0225   -0.4105   -1.9118 H   0  0  0  0  0  0  0  0  0  0  0  0
    0.1053   -1.4879   -2.0904 H   0  0  0  0  0  0  0  0  0  0  0  0
   -0.8070   -0.2200   -4.0240 H   0  0  0  0  0  0  0  0  0  0  0  0
    0.2111    1.1565   -3.5985 H   0  0  0  0  0  0  0  0  0  0  0  0
   -0.2583   -0.1093    5.2531 H   0  0  0  0  0  0  0  0  0  0  0  0
    0.1353   -1.5956    4.3775 H   0  0  0  0  0  0  0  0  0  0  0  0
    1.4173   -0.4996    4.8999 H   0  0  0  0  0  0  0  0  0  0  0  0
    1.4169    1.1677   -1.3672 H   0  0  0  0  0  0  0  0  0  0  0  0
    2.2445   -0.3318   -1.7694 H   0  0  0  0  0  0  0  0  0  0  0  0
    0.1085   -1.4785    2.1981 H   0  0  0  0  0  0  0  0  0  0  0  0
   -2.2952   -0.2064    1.5955 H   0  0  0  0  0  0  0  0  0  0  0  0
   -2.0162    1.7392   -0.9514 H   0  0  0  0  0  0  0  0  0  0  0  0
    1.2975   -0.1886   -5.0843 H   0  0  0  0  0  0  0  0  0  0  0  0
    0.3283    0.2554    3.2320 C   0  0  0  0  0  0  0  0  0  0  0  0
  1  2  1  0
  1  8  1  0
  1 14  1  0
  2  3  1  0
  2  9  1  0
  2 15  1  1
  3  4  1  0
  3 11  1  0
  3 16  1  6
  4  5  1  0
  4 12  1  0
  4 17  1  6
  5  6  1  0
  5  8  1  0
  5 18  1  6
  6 13  1  0
  6 19  1  0
  6 20  1  0
 30  7  1  0
 30  9  1  0
 30 10  2  0
  7 21  1  0
  7 22  1  0
  7 23  1  0
  8 24  1  0
  8 25  1  0
  9 26  1  0
 11 27  1  0
 12 28  1  0
 13 29  1  0
M  END
