
     RDKit          3D

 34 35  0  0  0  0  0  0  0  0999 V2000
   -2.6623    0.1829    0.1670 N   0  0  0  0  0  0  0  0  0  0  0  0
   -1.5182    1.0226   -0.1431 C   0  0  0  0  0  0  0  0  0  0  0  0
   -0.3064    0.6806    0.7111 C   0  0  0  0  0  0  0  0  0  0  0  0
   -1.0984   -1.5770    0.8504 C   0  0  0  0  0  0  0  0  0  0  0  0
   -2.2926   -1.2122   -0.0140 C   0  0  0  0  0  0  0  0  0  0  0  0
    3.0432   -0.2076   -1.4084 C   0  0  0  0  0  0  0  0  0  0  0  0
   -5.0464   -0.3290   -0.2457 C   0  0  0  0  0  0  0  0  0  0  0  0
    4.1951    0.5958   -1.2124 C   0  0  0  0  0  0  0  0  0  0  0  0
    4.3056    1.0432    0.0697 C   0  0  0  0  0  0  0  0  0  0  0  0
   -3.8534    0.5531   -0.6062 C   0  0  1  0  0  0  0  0  0  0  0  0
   -4.2355    2.0124   -0.3714 C   0  0  0  0  0  0  0  0  0  0  0  0
    2.2837   -0.3296   -0.2803 C   0  0  0  0  0  0  0  0  0  0  0  0
    0.0402   -0.7231    0.5675 N   0  0  0  0  0  0  0  0  0  0  0  0
    1.1151   -2.3218   -0.6263 O   0  0  0  0  0  0  0  0  0  0  0  0
    3.0036    0.5109    1.0412 S   0  0  0  0  0  0  0  0  0  0  0  0
   -1.2319    0.9490   -1.2075 H   0  0  0  0  0  0  0  0  0  0  0  0
   -1.7534    2.0676    0.0548 H   0  0  0  0  0  0  0  0  0  0  0  0
    0.5174    1.3209    0.4090 H   0  0  0  0  0  0  0  0  0  0  0  0
   -0.5221    0.8868    1.7627 H   0  0  0  0  0  0  0  0  0  0  0  0
   -1.3604   -1.4475    1.9047 H   0  0  0  0  0  0  0  0  0  0  0  0
   -0.8304   -2.6189    0.6980 H   0  0  0  0  0  0  0  0  0  0  0  0
   -3.1159   -1.8609    0.2826 H   0  0  0  0  0  0  0  0  0  0  0  0
   -2.0620   -1.4407   -1.0691 H   0  0  0  0  0  0  0  0  0  0  0  0
   -5.2255   -0.3151    0.8313 H   0  0  0  0  0  0  0  0  0  0  0  0
   -5.9426    0.0471   -0.7393 H   0  0  0  0  0  0  0  0  0  0  0  0
   -4.9266   -1.3653   -0.5578 H   0  0  0  0  0  0  0  0  0  0  0  0
    4.9126    0.8228   -1.9873 H   0  0  0  0  0  0  0  0  0  0  0  0
    5.0867    1.6534    0.4966 H   0  0  0  0  0  0  0  0  0  0  0  0
   -3.6533    0.4245   -1.6856 H   0  0  0  0  0  0  0  0  0  0  0  0
   -4.3512    2.2132    0.6957 H   0  0  0  0  0  0  0  0  0  0  0  0
   -3.5117    2.7181   -0.7759 H   0  0  0  0  0  0  0  0  0  0  0  0
   -5.1874    2.2253   -0.8575 H   0  0  0  0  0  0  0  0  0  0  0  0
    1.0875   -1.1992   -0.1406 C   0  0  0  0  0  0  0  0  0  0  0  0
    2.7813   -0.6711   -2.3490 H   0  0  0  0  0  0  0  0  0  0  0  0
  8  6  1  0
  8  9  2  0
  6 12  2  0
 14 33  2  0
  9 15  1  0
 12 33  1  0
 12 15  1  0
 33 13  1  0
 13  4  1  0
 13  3  1  0
  4  5  1  0
  3  2  1  0
  5  1  1  0
  2  1  1  0
  1 10  1  0
 10  7  1  0
 10 11  1  0
  2 16  1  0
  2 17  1  0
  3 18  1  0
  3 19  1  0
  4 20  1  0
  4 21  1  0
  5 22  1  0
  5 23  1  0
  6 34  1  0
  7 24  1  0
  7 25  1  0
  7 26  1  0
  8 27  1  0
  9 28  1  0
 10 29  1  6
 11 30  1  0
 11 31  1  0
 11 32  1  0
M  END
