
     RDKit          3D

 65 68  0  0  0  0  0  0  0  0999 V2000
    6.4372    1.9821   -2.2402 C   0  0  0  0  0  0  0  0  0  0  0  0
    7.5777    1.7566    1.0677 C   0  0  0  0  0  0  0  0  0  0  0  0
    2.7219   -0.1267   -1.9410 C   0  0  0  0  0  0  0  0  0  0  0  0
    2.1649   -0.4885   -0.7175 C   0  0  0  0  0  0  0  0  0  0  0  0
    8.8787   -0.2173    1.5317 C   0  0  0  0  0  0  0  0  0  0  0  0
    0.3807   -1.5348    0.4620 C   0  0  0  0  0  0  0  0  0  0  0  0
   -0.8980   -2.2387    0.1213 C   0  0  0  0  0  0  0  0  0  0  0  0
   -3.2082   -2.1361   -0.5936 C   0  0  0  0  0  0  0  0  0  0  0  0
   -4.4184   -1.3258   -0.9447 C   0  0  0  0  0  0  0  0  0  0  0  0
   -2.1491   -4.2703   -0.2242 C   0  0  0  0  0  0  0  0  0  0  0  0
    1.0085   -1.1854   -0.7631 O   0  0  0  0  0  0  0  0  0  0  0  0
    9.8150   -0.9064    2.2182 O   0  0  0  0  0  0  0  0  0  0  0  0
   -5.0400   -0.9422    0.2764 O   0  0  0  0  0  0  0  0  0  0  0  0
  -10.4862    2.0312    1.4523 N   0  0  0  0  0  0  0  0  0  0  0  0
  -10.0660    2.8589   -0.7131 N   0  0  0  0  0  0  0  0  0  0  0  0
    5.8521    1.8136   -0.8315 C   0  0  1  0  0  0  0  0  0  0  0  0
    4.5751    0.9772   -0.8293 C   0  0  0  0  0  0  0  0  0  0  0  0
    6.9025    1.1227    0.0331 C   0  0  0  0  0  0  0  0  0  0  0  0
    5.4935    3.2117   -0.3086 C   0  0  0  0  0  0  0  0  0  0  0  0
    3.9058    0.5933   -1.9888 C   0  0  0  0  0  0  0  0  0  0  0  0
    4.0060    0.5984    0.3834 C   0  0  0  0  0  0  0  0  0  0  0  0
    7.2437   -0.2060   -0.2310 C   0  0  0  0  0  0  0  0  0  0  0  0
    2.8213   -0.1204    0.4553 C   0  0  0  0  0  0  0  0  0  0  0  0
    8.5538    1.1026    1.8129 C   0  0  0  0  0  0  0  0  0  0  0  0
    8.2122   -0.8728    0.4964 C   0  0  0  0  0  0  0  0  0  0  0  0
   -2.0218   -1.5041   -0.2404 C   0  0  0  0  0  0  0  0  0  0  0  0
   -0.9696   -3.6277    0.1251 C   0  0  0  0  0  0  0  0  0  0  0  0
   -3.2642   -3.5263   -0.5817 C   0  0  0  0  0  0  0  0  0  0  0  0
   -6.1651   -0.2072    0.2212 C   0  0  0  0  0  0  0  0  0  0  0  0
   -6.7807    0.2062   -0.9567 C   0  0  0  0  0  0  0  0  0  0  0  0
   -6.7332    0.1472    1.4490 C   0  0  0  0  0  0  0  0  0  0  0  0
   -8.5166    1.3242    0.3166 C   0  0  0  0  0  0  0  0  0  0  0  0
   -7.9436    0.9642   -0.8977 C   0  0  0  0  0  0  0  0  0  0  0  0
   -7.8916    0.8938    1.4894 C   0  0  0  0  0  0  0  0  0  0  0  0
   -9.7676    2.1215    0.3988 C   0  0  0  0  0  0  0  0  0  0  0  0
    5.7513    2.5183   -2.8989 H   0  0  0  0  0  0  0  0  0  0  0  0
    7.3586    2.5637   -2.1860 H   0  0  0  0  0  0  0  0  0  0  0  0
    6.6780    1.0254   -2.7059 H   0  0  0  0  0  0  0  0  0  0  0  0
    7.3560    2.7848    1.3199 H   0  0  0  0  0  0  0  0  0  0  0  0
    2.2232   -0.4096   -2.8600 H   0  0  0  0  0  0  0  0  0  0  0  0
    0.1752   -0.6371    1.0551 H   0  0  0  0  0  0  0  0  0  0  0  0
    1.0306   -2.1856    1.0563 H   0  0  0  0  0  0  0  0  0  0  0  0
   -4.1342   -0.4381   -1.5196 H   0  0  0  0  0  0  0  0  0  0  0  0
   -5.1097   -1.9148   -1.5557 H   0  0  0  0  0  0  0  0  0  0  0  0
   -2.1988   -5.3511   -0.2189 H   0  0  0  0  0  0  0  0  0  0  0  0
   10.2039   -0.3500    2.9021 H   0  0  0  0  0  0  0  0  0  0  0  0
  -11.2918    2.6493    1.4019 H   0  0  0  0  0  0  0  0  0  0  0  0
  -10.8329    3.5087   -0.6421 H   0  0  0  0  0  0  0  0  0  0  0  0
   -9.3052    3.1975   -1.2788 H   0  0  0  0  0  0  0  0  0  0  0  0
    5.1025    3.1836    0.7090 H   0  0  0  0  0  0  0  0  0  0  0  0
    6.3578    3.8776   -0.3218 H   0  0  0  0  0  0  0  0  0  0  0  0
    4.7266    3.6526   -0.9464 H   0  0  0  0  0  0  0  0  0  0  0  0
    4.2990    0.8499   -2.9631 H   0  0  0  0  0  0  0  0  0  0  0  0
    4.4981    0.8629    1.3122 H   0  0  0  0  0  0  0  0  0  0  0  0
    6.7350   -0.7421   -1.0243 H   0  0  0  0  0  0  0  0  0  0  0  0
    2.4338   -0.3838    1.4301 H   0  0  0  0  0  0  0  0  0  0  0  0
    9.0565    1.6322    2.6146 H   0  0  0  0  0  0  0  0  0  0  0  0
    8.4543   -1.9037    0.2681 H   0  0  0  0  0  0  0  0  0  0  0  0
   -1.9706   -0.4205   -0.2473 H   0  0  0  0  0  0  0  0  0  0  0  0
   -0.0989   -4.2097    0.4025 H   0  0  0  0  0  0  0  0  0  0  0  0
   -4.1832   -4.0300   -0.8566 H   0  0  0  0  0  0  0  0  0  0  0  0
   -6.3819   -0.0522   -1.9276 H   0  0  0  0  0  0  0  0  0  0  0  0
   -6.2546   -0.1674    2.3679 H   0  0  0  0  0  0  0  0  0  0  0  0
   -8.4080    1.2500   -1.8327 H   0  0  0  0  0  0  0  0  0  0  0  0
   -8.3220    1.1571    2.4462 H   0  0  0  0  0  0  0  0  0  0  0  0
 16 19  1  1
 25 22  2  0
 25  5  1  0
 22 18  1  0
 12  5  1  0
  5 24  2  0
 18 16  1  0
 18  2  2  0
 16 17  1  0
 16  1  1  0
 24  2  1  0
 20 17  1  0
 20  3  2  0
 17 21  2  0
  3  4  1  0
 21 23  1  0
  4 23  2  0
  4 11  1  0
  6 11  1  0
  6  7  1  0
 26  7  2  0
 26  8  1  0
  7 27  1  0
 30 33  2  0
 30 29  1  0
 33 32  1  0
 14 35  2  0
 13  9  1  0
 13 29  1  0
  9  8  1  0
 29 31  2  0
  8 28  2  0
 32 35  1  0
 32 34  2  0
 35 15  1  0
 31 34  1  0
 27 10  2  0
 28 10  1  0
  1 36  1  0
  1 37  1  0
  1 38  1  0
  2 39  1  0
  3 40  1  0
  6 41  1  0
  6 42  1  0
  9 43  1  0
  9 44  1  0
 10 45  1  0
 12 46  1  0
 14 47  1  0
 15 48  1  0
 15 49  1  0
 19 50  1  0
 19 51  1  0
 19 52  1  0
 20 53  1  0
 21 54  1  0
 22 55  1  0
 23 56  1  0
 24 57  1  0
 25 58  1  0
 26 59  1  0
 27 60  1  0
 28 61  1  0
 30 62  1  0
 31 63  1  0
 33 64  1  0
 34 65  1  0
M  END
