
     RDKit          3D

 51 53  0  0  0  0  0  0  0  0999 V2000
    1.2528    0.7835    0.0266 C   0  0  0  0  0  0  0  0  0  0  0  0
    2.3709    0.7646    0.8488 C   0  0  0  0  0  0  0  0  0  0  0  0
    3.1023   -0.3968    1.0627 C   0  0  0  0  0  0  0  0  0  0  0  0
    4.3201   -0.3988    1.9490 C   0  0  0  0  0  0  0  0  0  0  0  0
   -1.8392   -0.8196    0.3534 C   0  0  0  0  0  0  0  0  0  0  0  0
   -4.1446   -1.2635   -0.1449 C   0  0  0  0  0  0  0  0  0  0  0  0
   -3.8762   -1.1620   -1.5037 C   0  0  0  0  0  0  0  0  0  0  0  0
    6.0406    0.4527    0.4282 C   0  0  0  0  0  0  0  0  0  0  0  0
    7.2488    0.1512   -0.4268 C   0  0  0  0  0  0  0  0  0  0  0  0
    6.8171   -2.2026    0.1985 C   0  0  0  0  0  0  0  0  0  0  0  0
    0.4899    2.0561   -0.1667 C   0  0  0  0  0  0  0  0  0  0  0  0
    0.8360   -0.3837   -0.6156 C   0  0  0  0  0  0  0  0  0  0  0  0
   -0.2719   -0.4003   -1.4798 N   0  0  0  0  0  0  0  0  0  0  0  0
   -1.5333   -0.7051   -1.0010 C   0  0  0  0  0  0  0  0  0  0  0  0
    5.5466   -0.5385    1.1961 N   0  0  0  0  0  0  0  0  0  0  0  0
    2.6869   -1.5436    0.4136 C   0  0  0  0  0  0  0  0  0  0  0  0
    3.3525   -2.6873    0.5749 F   0  0  0  0  0  0  0  0  0  0  0  0
    1.5703   -1.5403   -0.4035 C   0  0  0  0  0  0  0  0  0  0  0  0
    1.2014   -2.6734   -0.9984 F   0  0  0  0  0  0  0  0  0  0  0  0
   -3.1299   -1.0939    0.7825 C   0  0  0  0  0  0  0  0  0  0  0  0
   -2.5874   -0.8834   -1.8972 C   0  0  0  0  0  0  0  0  0  0  0  0
   -2.3179   -0.7802   -3.2113 F   0  0  0  0  0  0  0  0  0  0  0  0
    5.4667    1.5331    0.3791 O   0  0  0  0  0  0  0  0  0  0  0  0
    7.8869   -1.2166   -0.2065 C   0  0  0  0  0  0  0  0  0  0  0  0
    6.2010   -1.7371    1.3930 O   0  0  0  0  0  0  0  0  0  0  0  0
   -0.7029    2.1605    0.0324 O   0  0  0  0  0  0  0  0  0  0  0  0
    1.2910    3.0731   -0.5395 N   0  0  0  0  0  0  0  0  0  0  0  0
    0.7562    4.2908   -0.8059 O   0  0  0  0  0  0  0  0  0  0  0  0
    0.9036    5.1731    0.3099 C   0  0  0  0  0  0  0  0  0  0  0  0
    0.3971    6.5325   -0.0914 C   0  0  0  0  0  0  0  0  0  0  0  0
   -0.9917    6.4745   -0.3121 O   0  0  0  0  0  0  0  0  0  0  0  0
    2.6874    1.6699    1.3500 H   0  0  0  0  0  0  0  0  0  0  0  0
    4.3422    0.5271    2.5236 H   0  0  0  0  0  0  0  0  0  0  0  0
    4.2804   -1.2149    2.6688 H   0  0  0  0  0  0  0  0  0  0  0  0
   -1.0628   -0.6967    1.0960 H   0  0  0  0  0  0  0  0  0  0  0  0
   -4.6427   -1.2885   -2.2567 H   0  0  0  0  0  0  0  0  0  0  0  0
    6.8966    0.2422   -1.4580 H   0  0  0  0  0  0  0  0  0  0  0  0
    7.9696    0.9574   -0.2831 H   0  0  0  0  0  0  0  0  0  0  0  0
    6.0675   -2.3352   -0.5901 H   0  0  0  0  0  0  0  0  0  0  0  0
    7.2295   -3.1774    0.4552 H   0  0  0  0  0  0  0  0  0  0  0  0
   -0.0718   -0.7193   -2.4163 H   0  0  0  0  0  0  0  0  0  0  0  0
   -3.3211   -1.1738    1.8436 H   0  0  0  0  0  0  0  0  0  0  0  0
    8.3893   -1.5512   -1.1145 H   0  0  0  0  0  0  0  0  0  0  0  0
    8.6418   -1.1670    0.5804 H   0  0  0  0  0  0  0  0  0  0  0  0
    2.2305    2.9286   -0.8857 H   0  0  0  0  0  0  0  0  0  0  0  0
    0.3507    4.7907    1.1737 H   0  0  0  0  0  0  0  0  0  0  0  0
    1.9584    5.2586    0.5874 H   0  0  0  0  0  0  0  0  0  0  0  0
    0.6582    7.2198    0.7230 H   0  0  0  0  0  0  0  0  0  0  0  0
    0.9425    6.8750   -0.9804 H   0  0  0  0  0  0  0  0  0  0  0  0
   -1.2915    7.3546   -0.5563 H   0  0  0  0  0  0  0  0  0  0  0  0
   -6.1010   -1.6799    0.4944 I   0  0  0  0  0  0  0  0  0  0  0  0
 11  1  1  0
  1 12  2  0
  1  2  1  0
  2  3  2  0
  2 32  1  0
  3 16  1  0
  3  4  1  0
  4 15  1  0
  4 33  1  0
  4 34  1  0
 14  5  2  0
  5 20  1  0
  5 35  1  0
  7  6  1  0
  6 51  1  0
  6 20  2  0
 21  7  2  0
  7 36  1  0
 23  8  2  0
  8 15  1  0
  8  9  1  0
  9 24  1  0
  9 37  1  0
  9 38  1  0
 25 10  1  0
 10 24  1  0
 10 39  1  0
 10 40  1  0
 26 11  2  0
 11 27  1  0
 13 12  1  0
 12 18  1  0
 13 14  1  0
 13 41  1  0
 21 14  1  0
 15 25  1  0
 18 16  2  0
 16 17  1  0
 18 19  1  0
 20 42  1  0
 22 21  1  0
 24 43  1  0
 24 44  1  0
 28 27  1  0
 27 45  1  0
 29 28  1  0
 30 29  1  0
 29 46  1  0
 29 47  1  0
 31 30  1  0
 30 48  1  0
 30 49  1  0
 31 50  1  0
M  END
