
     RDKit          3D

 30 30  0  0  0  0  0  0  0  0999 V2000
    0.8269   -2.5411   -3.8351 C   0  0  0  0  0  0  0  0  0  0  0  0
    1.0443   -3.5879   -4.7176 C   0  0  0  0  0  0  0  0  0  0  0  0
    0.3933   -4.8035   -4.5355 C   0  0  0  0  0  0  0  0  0  0  0  0
   -0.4750   -4.9649   -3.4658 C   0  0  0  0  0  0  0  0  0  0  0  0
   -0.6865   -3.9160   -2.5781 C   0  0  0  0  0  0  0  0  0  0  0  0
   -0.0434   -2.6971   -2.7567 C   0  0  0  0  0  0  0  0  0  0  0  0
   -0.2864   -1.5529   -1.8183 C   0  0  0  0  0  0  0  0  0  0  0  0
    0.9588   -1.1126   -1.3112 O   0  0  0  0  0  0  0  0  0  0  0  0
    0.9094    0.0990   -0.6273 C   0  0  2  0  0  0  0  0  0  0  0  0
    0.9298    1.2722   -1.5966 C   0  0  0  0  0  0  0  0  0  0  0  0
    0.7620    2.4187   -0.9535 O   0  0  0  0  0  0  0  0  0  0  0  0
    1.0922    1.1769   -2.7837 O   0  0  0  0  0  0  0  0  0  0  0  0
    2.1556    0.1535    0.2885 C   0  0  1  0  0  0  0  0  0  0  0  0
    2.1485   -1.1058    1.1440 C   0  0  0  0  0  0  0  0  0  0  0  0
    3.0304   -1.9217    1.1705 O   0  0  0  0  0  0  0  0  0  0  0  0
    1.0426   -1.1923    1.8719 O   0  0  0  0  0  0  0  0  0  0  0  0
    3.4209    0.2756   -0.3854 N   0  0  0  0  0  0  0  0  0  0  0  0
    1.3311   -1.5938   -3.9844 H   0  0  0  0  0  0  0  0  0  0  0  0
    1.7221   -3.4571   -5.5515 H   0  0  0  0  0  0  0  0  0  0  0  0
    0.5645   -5.6199   -5.2251 H   0  0  0  0  0  0  0  0  0  0  0  0
   -0.9839   -5.9084   -3.3155 H   0  0  0  0  0  0  0  0  0  0  0  0
   -1.3592   -4.0505   -1.7392 H   0  0  0  0  0  0  0  0  0  0  0  0
   -0.7979   -0.7444   -2.3531 H   0  0  0  0  0  0  0  0  0  0  0  0
   -0.9446   -1.8607   -0.9965 H   0  0  0  0  0  0  0  0  0  0  0  0
    0.0051    0.1866   -0.0091 H   0  0  0  0  0  0  0  0  0  0  0  0
    0.8077    3.1653   -1.5703 H   0  0  0  0  0  0  0  0  0  0  0  0
    2.0417    1.0065    0.9635 H   0  0  0  0  0  0  0  0  0  0  0  0
    1.0459   -2.0114    2.3900 H   0  0  0  0  0  0  0  0  0  0  0  0
    3.5352    1.2029   -0.7708 H   0  0  0  0  0  0  0  0  0  0  0  0
    3.5061   -0.3864   -1.1457 H   0  0  0  0  0  0  0  0  0  0  0  0
  1  2  2  0
  1  6  1  0
  1 18  1  0
  2  3  1  0
  2 19  1  0
  3  4  2  0
  3 20  1  0
  4  5  1  0
  4 21  1  0
  5  6  2  0
  5 22  1  0
  6  7  1  0
  7  8  1  0
  7 23  1  0
  7 24  1  0
  8  9  1  0
  9 10  1  0
  9 13  1  0
  9 25  1  1
 10 12  2  0
 10 11  1  0
 11 26  1  0
 13 17  1  0
 13 14  1  0
 13 27  1  1
 14 15  2  0
 14 16  1  0
 16 28  1  0
 17 29  1  0
 17 30  1  0
M  END
