
     RDKit          3D

 37 37  0  0  0  0  0  0  0  0999 V2000
   -0.8645   -3.5207   -0.3345 B   0  0  0  0  0  0  0  0  0  0  0  0
    0.4769   -3.4645   -0.5448 O   0  0  0  0  0  0  0  0  0  0  0  0
   -1.5941   -4.4866   -0.9592 O   0  0  0  0  0  0  0  0  0  0  0  0
   -1.6343   -2.5950    0.7101 C   0  0  0  0  0  0  0  0  0  0  0  0
   -1.1784   -1.2188    0.6702 N   0  0  0  0  0  0  0  0  0  0  0  0
   -1.0182   -0.5917   -0.4898 C   0  0  0  0  0  0  0  0  0  0  0  0
   -1.2571   -1.0981   -1.5779 O   0  0  0  0  0  0  0  0  0  0  0  0
   -0.4855    0.8173   -0.4085 C   0  0  0  0  0  0  0  0  0  0  0  0
    0.7339    1.0833   -0.1668 N   0  0  0  0  0  0  0  0  0  0  0  0
    1.4755   -0.0335    0.0379 O   0  0  0  0  0  0  0  0  0  0  0  0
    2.8163    0.2846    0.4046 C   0  0  1  0  0  0  0  0  0  0  0  0
   -1.4148    1.9084   -0.6868 C   0  0  0  0  0  0  0  0  0  0  0  0
   -1.0740    3.1926   -0.9633 C   0  0  0  0  0  0  0  0  0  0  0  0
   -2.5031    4.1261   -1.1898 S   0  0  0  0  0  0  0  0  0  0  0  0
   -3.4563    2.6943   -0.8888 C   0  0  0  0  0  0  0  0  0  0  0  0
   -4.8043    2.7273   -0.9696 N   0  0  0  0  0  0  0  0  0  0  0  0
   -2.7555    1.6300   -0.6481 N   0  0  0  0  0  0  0  0  0  0  0  0
    3.5516    0.9488   -0.7564 C   0  0  0  0  0  0  0  0  0  0  0  0
    2.8575    1.1458    1.6656 C   0  0  0  0  0  0  0  0  0  0  0  0
    3.4135   -1.0857    0.7043 C   0  0  0  0  0  0  0  0  0  0  0  0
    2.8073   -2.1267    0.6720 O   0  0  0  0  0  0  0  0  0  0  0  0
    4.6918   -0.9943    1.0177 O   0  0  0  0  0  0  0  0  0  0  0  0
    0.9611   -2.7797   -0.0661 H   0  0  0  0  0  0  0  0  0  0  0  0
   -1.0688   -5.0597   -1.5277 H   0  0  0  0  0  0  0  0  0  0  0  0
   -1.4462   -2.9665    1.7196 H   0  0  0  0  0  0  0  0  0  0  0  0
   -2.7171   -2.6454    0.5609 H   0  0  0  0  0  0  0  0  0  0  0  0
   -0.9933   -0.7305    1.5314 H   0  0  0  0  0  0  0  0  0  0  0  0
   -0.0925    3.6290   -1.0514 H   0  0  0  0  0  0  0  0  0  0  0  0
   -5.2744    3.6064   -0.8315 H   0  0  0  0  0  0  0  0  0  0  0  0
   -5.2880    1.9356   -0.5755 H   0  0  0  0  0  0  0  0  0  0  0  0
    4.5785    1.1824   -0.4832 H   0  0  0  0  0  0  0  0  0  0  0  0
    3.5662    0.3098   -1.6401 H   0  0  0  0  0  0  0  0  0  0  0  0
    3.0552    1.8837   -1.0140 H   0  0  0  0  0  0  0  0  0  0  0  0
    2.4040    2.1159    1.4678 H   0  0  0  0  0  0  0  0  0  0  0  0
    2.3206    0.6740    2.4895 H   0  0  0  0  0  0  0  0  0  0  0  0
    3.8850    1.3186    1.9795 H   0  0  0  0  0  0  0  0  0  0  0  0
    5.0543   -1.8714    1.2166 H   0  0  0  0  0  0  0  0  0  0  0  0
  1  2  1  0
  1  3  1  0
  1  4  1  0
  2 23  1  0
  3 24  1  0
  4  5  1  0
  4 25  1  0
  4 26  1  0
  5  6  1  0
  5 27  1  0
  6  7  2  0
  6  8  1  0
  8  9  2  0
  8 12  1  0
  9 10  1  0
 11 10  1  6
 11 18  1  0
 11 19  1  0
 11 20  1  0
 12 13  2  0
 12 17  1  0
 13 14  1  0
 13 28  1  0
 14 15  1  0
 15 16  1  0
 15 17  2  0
 16 29  1  0
 16 30  1  0
 18 31  1  0
 18 32  1  0
 18 33  1  0
 19 34  1  0
 19 35  1  0
 19 36  1  0
 20 21  2  0
 20 22  1  0
 22 37  1  0
M  END
