
     RDKit          3D

 27 28  0  0  0  0  0  0  0  0999 V2000
   -1.7103   -2.5829   -0.3080 O   0  0  0  0  0  0  0  0  0  0  0  0
   -1.9162   -1.3942   -0.1672 C   0  0  0  0  0  0  0  0  0  0  0  0
   -3.2190   -0.9424    0.0264 N   0  0  0  0  0  0  0  0  0  0  0  0
   -3.5642    0.3578    0.2000 C   0  0  0  0  0  0  0  0  0  0  0  0
   -4.8457    0.6430    0.3790 N   0  0  0  0  0  0  0  0  0  0  0  0
   -2.6773    1.3278    0.2027 N   0  0  0  0  0  0  0  0  0  0  0  0
   -1.4038    0.9705    0.0193 C   0  0  0  0  0  0  0  0  0  0  0  0
   -0.9366   -0.3327   -0.1733 C   0  0  0  0  0  0  0  0  0  0  0  0
    0.4657   -0.5623   -0.3598 C   0  0  0  0  0  0  0  0  0  0  0  0
    1.0126   -1.6470   -0.5372 O   0  0  0  0  0  0  0  0  0  0  0  0
   -0.5098    1.9776    0.0237 N   0  0  0  0  0  0  0  0  0  0  0  0
    0.7968    1.8416   -0.1449 N   0  0  0  0  0  0  0  0  0  0  0  0
    1.2823    0.6686   -0.3248 C   0  0  0  0  0  0  0  0  0  0  0  0
    2.7571    0.5138   -0.5491 C   0  0  1  0  0  0  0  0  0  0  0  0
    3.5279    1.8339   -0.5288 C   0  0  0  0  0  0  0  0  0  0  0  0
    3.3178   -0.4031    0.5168 C   0  0  0  0  0  0  0  0  0  0  0  0
    4.3069   -1.1608    0.0657 O   0  0  0  0  0  0  0  0  0  0  0  0
    2.9539   -0.3946    1.6663 O   0  0  0  0  0  0  0  0  0  0  0  0
   -5.5684   -0.0554    0.3444 H   0  0  0  0  0  0  0  0  0  0  0  0
   -5.1226    1.6038    0.4897 H   0  0  0  0  0  0  0  0  0  0  0  0
    2.9060    0.0433   -1.5253 H   0  0  0  0  0  0  0  0  0  0  0  0
    4.5863    1.6540   -0.7139 H   0  0  0  0  0  0  0  0  0  0  0  0
    3.1616    2.4968   -1.3102 H   0  0  0  0  0  0  0  0  0  0  0  0
    3.4275    2.3482    0.4259 H   0  0  0  0  0  0  0  0  0  0  0  0
    4.6786   -1.6854    0.7908 H   0  0  0  0  0  0  0  0  0  0  0  0
   -3.9400   -1.6528    0.0367 H   0  0  0  0  0  0  0  0  0  0  0  0
   -0.8362    2.9240    0.1562 H   0  0  0  0  0  0  0  0  0  0  0  0
  5  4  1  0
  3  4  1  0
  3  2  1  0
  4  6  2  0
  1  2  2  0
  2  8  1  0
  6  7  1  0
  8  7  2  0
  8  9  1  0
  7 11  1  0
  9 10  2  0
  9 13  1  0
 11 12  1  0
 12 13  2  0
 13 14  1  0
 15 14  1  0
 14 16  1  0
 18 16  2  0
 16 17  1  0
  5 19  1  0
  5 20  1  0
 14 21  1  6
 15 22  1  0
 15 23  1  0
 15 24  1  0
 17 25  1  0
  3 26  1  0
 11 27  1  0
M  END
