
     RDKit          3D

 63 66  0  0  0  0  0  0  0  0999 V2000
    7.1935   -0.8617    1.0200 C   0  0  0  0  0  0  0  0  0  0  0  0
    8.6701   -0.7447    0.6598 C   0  0  0  0  0  0  0  0  0  0  0  0
    8.9566   -1.1136   -0.7964 C   0  0  2  0  0  0  0  0  0  0  0  0
    8.7502   -2.6069   -1.0428 C   0  0  0  0  0  0  0  0  0  0  0  0
   10.3215   -0.7842   -1.0186 O   0  0  0  0  0  0  0  0  0  0  0  0
    8.0605   -0.2713   -1.7124 C   0  0  0  0  0  0  0  0  0  0  0  0
    6.5794   -0.3899   -1.3708 C   0  0  0  0  0  0  0  0  0  0  0  0
    6.3284   -0.0171    0.0903 C   0  0  1  0  0  0  0  0  0  0  0  0
    4.9331   -0.1689    0.4569 N   0  0  0  0  0  0  0  0  0  0  0  0
    3.9887    0.7398    0.1727 C   0  0  0  0  0  0  0  0  0  0  0  0
    4.2390    1.8120   -0.3651 O   0  0  0  0  0  0  0  0  0  0  0  0
    2.5878    0.3866    0.5706 C   0  0  0  0  0  0  0  0  0  0  0  0
    1.6917    1.4318    0.7679 C   0  0  0  0  0  0  0  0  0  0  0  0
    2.1518   -0.9296    0.7164 C   0  0  0  0  0  0  0  0  0  0  0  0
    0.8378   -1.1807    1.0788 C   0  0  0  0  0  0  0  0  0  0  0  0
   -0.0489   -0.1376    1.2923 C   0  0  0  0  0  0  0  0  0  0  0  0
    0.3674    1.1874    1.1276 C   0  0  0  0  0  0  0  0  0  0  0  0
   -0.4861    2.2598    1.3642 N   0  0  0  0  0  0  0  0  0  0  0  0
   -1.5398    2.4067    0.6663 C   0  0  0  0  0  0  0  0  0  0  0  0
   -1.9540    1.4601   -0.7876 S   0  0  0  0  0  0  0  0  0  0  0  0
   -2.4867    3.3308    0.8944 N   0  0  0  0  0  0  0  0  0  0  0  0
   -3.4659    3.5495   -0.1403 C   0  0  0  0  0  0  0  0  0  0  0  0
   -3.6130    2.2206   -0.8703 C   0  0  2  0  0  0  0  0  0  0  0  0
   -4.5887    1.2664   -0.2034 C   0  0  0  0  0  0  0  0  0  0  0  0
   -4.8801    1.3409    0.9720 O   0  0  0  0  0  0  0  0  0  0  0  0
   -5.0764    0.3141   -1.0299 N   0  0  0  0  0  0  0  0  0  0  0  0
   -5.9361   -0.7058   -0.5774 C   0  0  0  0  0  0  0  0  0  0  0  0
   -5.4502   -1.7342    0.2266 C   0  0  0  0  0  0  0  0  0  0  0  0
   -3.7720   -1.7755    0.6381 Cl  0  0  0  0  0  0  0  0  0  0  0  0
   -6.2810   -2.7426    0.6858 C   0  0  0  0  0  0  0  0  0  0  0  0
   -7.6181   -2.7242    0.3220 C   0  0  0  0  0  0  0  0  0  0  0  0
   -8.1113   -1.7131   -0.4881 C   0  0  0  0  0  0  0  0  0  0  0  0
   -7.2849   -0.6898   -0.9423 C   0  0  0  0  0  0  0  0  0  0  0  0
   -7.8219    0.4066   -1.8125 C   0  0  0  0  0  0  0  0  0  0  0  0
    6.8741   -1.9085    0.9678 H   0  0  0  0  0  0  0  0  0  0  0  0
    7.0432   -0.5434    2.0542 H   0  0  0  0  0  0  0  0  0  0  0  0
    8.9981    0.2869    0.8273 H   0  0  0  0  0  0  0  0  0  0  0  0
    9.2628   -1.3752    1.3280 H   0  0  0  0  0  0  0  0  0  0  0  0
    7.7275   -2.9287   -0.8473 H   0  0  0  0  0  0  0  0  0  0  0  0
    8.9709   -2.8598   -2.0830 H   0  0  0  0  0  0  0  0  0  0  0  0
    9.4100   -3.1972   -0.4046 H   0  0  0  0  0  0  0  0  0  0  0  0
   10.5407   -1.0139   -1.9280 H   0  0  0  0  0  0  0  0  0  0  0  0
    8.3663    0.7770   -1.6227 H   0  0  0  0  0  0  0  0  0  0  0  0
    8.2251   -0.5572   -2.7563 H   0  0  0  0  0  0  0  0  0  0  0  0
    5.9982    0.2638   -2.0240 H   0  0  0  0  0  0  0  0  0  0  0  0
    6.2201   -1.4082   -1.5482 H   0  0  0  0  0  0  0  0  0  0  0  0
    6.6006    1.0341    0.2306 H   0  0  0  0  0  0  0  0  0  0  0  0
    4.6730   -1.0146    0.9379 H   0  0  0  0  0  0  0  0  0  0  0  0
    2.0195    2.4559    0.6449 H   0  0  0  0  0  0  0  0  0  0  0  0
    2.8117   -1.7683    0.5345 H   0  0  0  0  0  0  0  0  0  0  0  0
    0.5001   -2.2021    1.1962 H   0  0  0  0  0  0  0  0  0  0  0  0
   -1.0675   -0.3453    1.5949 H   0  0  0  0  0  0  0  0  0  0  0  0
   -2.3195    4.0336    1.5976 H   0  0  0  0  0  0  0  0  0  0  0  0
   -4.4121    3.8681    0.2945 H   0  0  0  0  0  0  0  0  0  0  0  0
   -3.8672    2.3808   -1.9185 H   0  0  0  0  0  0  0  0  0  0  0  0
   -4.8612    0.3554   -2.0151 H   0  0  0  0  0  0  0  0  0  0  0  0
   -5.8880   -3.5325    1.3109 H   0  0  0  0  0  0  0  0  0  0  0  0
   -8.2767   -3.5070    0.6737 H   0  0  0  0  0  0  0  0  0  0  0  0
   -9.1577   -1.7108   -0.7659 H   0  0  0  0  0  0  0  0  0  0  0  0
   -7.4552    0.3185   -2.8372 H   0  0  0  0  0  0  0  0  0  0  0  0
   -8.9090    0.3708   -1.8510 H   0  0  0  0  0  0  0  0  0  0  0  0
   -7.5275    1.3914   -1.4497 H   0  0  0  0  0  0  0  0  0  0  0  0
   -3.1410    4.3184   -0.8467 H   0  0  0  0  0  0  0  0  0  0  0  0
  1  2  1  0
  1  8  1  0
  2  3  1  0
  3  4  1  0
  3  5  1  6
  3  6  1  0
  6  7  1  0
  7  8  1  0
  8  9  1  0
  9 10  1  0
 10 11  2  0
 10 12  1  0
 12 13  2  0
 12 14  1  0
 13 17  1  0
 14 15  2  0
 15 16  1  0
 16 17  2  0
 17 18  1  0
 18 19  2  0
 19 20  1  0
 19 21  1  0
 20 23  1  0
 21 22  1  0
 22 23  1  0
 23 24  1  0
 24 25  2  0
 24 26  1  0
 26 27  1  0
 27 28  2  0
 27 33  1  0
 28 29  1  0
 28 30  1  0
 30 31  2  0
 31 32  1  0
 32 33  2  0
 33 34  1  0
  1 35  1  0
  1 36  1  0
  2 37  1  0
  2 38  1  0
  4 39  1  0
  4 40  1  0
  4 41  1  0
  5 42  1  0
  6 43  1  0
  6 44  1  0
  7 45  1  0
  7 46  1  0
  8 47  1  6
  9 48  1  0
 13 49  1  0
 14 50  1  0
 15 51  1  0
 16 52  1  0
 21 53  1  0
 22 54  1  0
 23 55  1  6
 26 56  1  0
 30 57  1  0
 31 58  1  0
 32 59  1  0
 34 60  1  0
 34 61  1  0
 34 62  1  0
 22 63  1  0
M  END
