
     RDKit          3D

 31 32  0  0  0  0  0  0  0  0999 V2000
    1.9834   -2.2160    0.5389 O   0  0  0  0  0  0  0  0  0  0  0  0
    1.6670   -1.0479    0.5250 C   0  0  0  0  0  0  0  0  0  0  0  0
    2.5257    0.0322    0.6415 N   0  0  0  0  0  0  0  0  0  0  0  0
    3.9485   -0.0838    0.7846 C   0  0  0  0  0  0  0  0  0  0  0  0
    4.6452   -0.1522   -0.5599 C   0  0  1  0  0  0  0  0  0  0  0  0
    1.7666    1.1930    0.6327 C   0  0  0  0  0  0  0  0  0  0  0  0
    2.3763    2.5272    0.8224 C   0  0  0  0  0  0  0  0  0  0  0  0
    0.3423   -0.3998    0.4092 C   0  0  0  0  0  0  0  0  0  0  0  0
    0.5055    0.9763    0.4924 N   0  0  0  0  0  0  0  0  0  0  0  0
   -0.7968   -1.1000    0.2538 C   0  0  0  0  0  0  0  0  0  0  0  0
   -2.1547   -0.6172    0.1229 C   0  0  0  0  0  0  0  0  0  0  0  0
   -3.1706   -1.5682   -0.0327 C   0  0  0  0  0  0  0  0  0  0  0  0
   -4.4783   -1.1679   -0.1634 C   0  0  0  0  0  0  0  0  0  0  0  0
   -5.4462   -2.0798   -0.3105 F   0  0  0  0  0  0  0  0  0  0  0  0
   -4.8522    0.1723   -0.1482 C   0  0  0  0  0  0  0  0  0  0  0  0
   -6.1414    0.4913   -0.2808 O   0  0  0  0  0  0  0  0  0  0  0  0
   -3.8201    1.0959    0.0087 C   0  0  0  0  0  0  0  0  0  0  0  0
   -4.1669    2.3938    0.0244 F   0  0  0  0  0  0  0  0  0  0  0  0
   -2.5018    0.7394    0.1427 C   0  0  0  0  0  0  0  0  0  0  0  0
    4.2253   -1.1857   -1.2947 F   0  0  0  0  0  0  0  0  0  0  0  0
    4.4346    0.9499   -1.2921 F   0  0  0  0  0  0  0  0  0  0  0  0
    5.9653   -0.2800   -0.3976 F   0  0  0  0  0  0  0  0  0  0  0  0
    4.3437    0.7612    1.3487 H   0  0  0  0  0  0  0  0  0  0  0  0
    4.1831   -0.9875    1.3488 H   0  0  0  0  0  0  0  0  0  0  0  0
    3.1287    2.7418    0.0647 H   0  0  0  0  0  0  0  0  0  0  0  0
    1.6029    3.2881    0.7751 H   0  0  0  0  0  0  0  0  0  0  0  0
    2.8678    2.5877    1.7954 H   0  0  0  0  0  0  0  0  0  0  0  0
   -0.6814   -2.1785    0.2207 H   0  0  0  0  0  0  0  0  0  0  0  0
   -2.9392   -2.6255   -0.0513 H   0  0  0  0  0  0  0  0  0  0  0  0
   -6.2684    1.4479   -0.2656 H   0  0  0  0  0  0  0  0  0  0  0  0
   -1.7481    1.5049    0.2602 H   0  0  0  0  0  0  0  0  0  0  0  0
  5 20  1  6
 22  5  1  0
  5 21  1  0
  5  4  1  0
  4  3  1  0
  1  2  2  0
  2  3  1  0
  2  8  1  0
  3  6  1  0
 10  8  2  0
 10 11  1  0
  8  9  1  0
  6  7  1  0
  6  9  2  0
 12 11  2  0
 12 13  1  0
 11 19  1  0
 14 13  1  0
 13 15  2  0
 19 17  2  0
 15 17  1  0
 15 16  1  0
 17 18  1  0
  4 23  1  0
  4 24  1  0
  7 25  1  0
  7 26  1  0
  7 27  1  0
 10 28  1  0
 12 29  1  0
 16 30  1  0
 19 31  1  0
M  END
