
     RDKit          3D

 31 32  0  0  0  0  0  0  0  0999 V2000
   -5.6244   -0.4109   -0.3098 C   0  0  0  0  0  0  0  0  0  0  0  0
   -6.6683   -0.2631    0.2768 O   0  0  0  0  0  0  0  0  0  0  0  0
   -4.4217    0.4676   -0.1764 C   0  0  0  0  0  0  0  0  0  0  0  0
   -3.1589   -0.3487    0.1020 C   0  0  0  0  0  0  0  0  0  0  0  0
   -1.9106    0.5227    0.1524 C   0  0  0  0  0  0  0  0  0  0  0  0
   -0.6586   -0.2849    0.4724 C   0  0  0  0  0  0  0  0  0  0  0  0
    0.5916    0.5654    0.6054 C   0  0  2  0  0  0  0  0  0  0  0  0
    1.1078    1.3163   -0.9729 S   0  0  0  0  0  0  0  0  0  0  0  0
    2.6850    1.7780   -0.2113 C   0  0  0  0  0  0  0  0  0  0  0  0
    3.1002    0.6017    0.6820 C   0  0  2  0  0  0  0  0  0  0  0  0
    3.8849   -0.3943    0.0015 N   0  0  0  0  0  0  0  0  0  0  0  0
    3.2387   -1.5726   -0.1815 C   0  0  0  0  0  0  0  0  0  0  0  0
    3.6729   -2.5582   -0.7580 O   0  0  0  0  0  0  0  0  0  0  0  0
    2.0161   -1.4569    0.4078 N   0  0  0  0  0  0  0  0  0  0  0  0
    1.8287   -0.1999    1.0878 C   0  0  2  0  0  0  0  0  0  0  0  0
   -5.4938   -1.2482   -1.0206 H   0  0  0  0  0  0  0  0  0  0  0  0
   -4.3034    0.9901   -1.1336 H   0  0  0  0  0  0  0  0  0  0  0  0
   -4.5881    1.2216    0.5950 H   0  0  0  0  0  0  0  0  0  0  0  0
   -3.2700   -0.8827    1.0503 H   0  0  0  0  0  0  0  0  0  0  0  0
   -3.0384   -1.1129   -0.6720 H   0  0  0  0  0  0  0  0  0  0  0  0
   -1.7931    1.0380   -0.8063 H   0  0  0  0  0  0  0  0  0  0  0  0
   -2.0400    1.3038    0.9080 H   0  0  0  0  0  0  0  0  0  0  0  0
   -0.8093   -0.8120    1.4211 H   0  0  0  0  0  0  0  0  0  0  0  0
   -0.5034   -1.0524   -0.2906 H   0  0  0  0  0  0  0  0  0  0  0  0
    0.4029    1.3747    1.3191 H   0  0  0  0  0  0  0  0  0  0  0  0
    3.4273    1.9907   -0.9800 H   0  0  0  0  0  0  0  0  0  0  0  0
    2.5526    2.6778    0.3911 H   0  0  0  0  0  0  0  0  0  0  0  0
    3.6306    0.9850    1.5562 H   0  0  0  0  0  0  0  0  0  0  0  0
    4.7363   -0.1763   -0.4880 H   0  0  0  0  0  0  0  0  0  0  0  0
    1.5038   -2.2820    0.6714 H   0  0  0  0  0  0  0  0  0  0  0  0
    1.7648   -0.3411    2.1706 H   0  0  0  0  0  0  0  0  0  0  0  0
  1  2  2  0
  1  3  1  0
  1 16  1  0
  3  4  1  0
  3 17  1  0
  3 18  1  0
  4  5  1  0
  4 19  1  0
  4 20  1  0
  5  6  1  0
  5 21  1  0
  5 22  1  0
  6  7  1  0
  6 23  1  0
  6 24  1  0
  7  8  1  0
  7 15  1  0
  7 25  1  1
  8  9  1  0
  9 10  1  0
  9 26  1  0
  9 27  1  0
 10 11  1  0
 10 15  1  0
 10 28  1  1
 11 12  1  0
 11 29  1  0
 12 13  2  0
 12 14  1  0
 14 15  1  0
 14 30  1  0
 15 31  1  1
M  END
