
     RDKit          3D

 67 71  0  0  0  0  0  0  0  0999 V2000
   19.0323   17.2819   81.7679 C   0  0  2  0  0  0  0  0  0  0  0  0
   20.1135   18.1323   81.1083 C   0  0  0  0  0  0  0  0  0  0  0  0
   21.4632   17.5821   81.5131 C   0  0  0  0  0  0  0  0  0  0  0  0
   21.3315   16.2842   81.9349 N   0  0  0  0  0  0  0  0  0  0  0  0
   19.7875   15.6339   81.8153 S   0  0  1  0  0  0  0  0  0  0  0  0
   19.4813   14.9008   83.0278 O   0  0  0  0  0  0  0  0  0  0  0  0
   19.6243   14.9567   80.5427 O   0  0  0  0  0  0  0  0  0  0  0  0
   22.5127   18.1729   81.4621 O   0  0  0  0  0  0  0  0  0  0  0  0
   17.6786   17.2453   81.1307 C   0  0  0  0  0  0  0  0  0  0  0  0
   17.5110   17.1799   79.7511 C   0  0  0  0  0  0  0  0  0  0  0  0
   16.2400   17.1616   79.2030 C   0  0  0  0  0  0  0  0  0  0  0  0
   15.1078   17.2082   80.0107 C   0  0  0  0  0  0  0  0  0  0  0  0
   15.2792   17.2496   81.3900 C   0  0  0  0  0  0  0  0  0  0  0  0
   16.5495   17.2655   81.9438 C   0  0  0  0  0  0  0  0  0  0  0  0
   13.7377   17.2987   79.4025 C   0  0  0  0  0  0  0  0  0  0  0  0
   13.2621   18.7618   79.3582 C   0  0  2  0  0  0  0  0  0  0  0  0
   11.9683   18.7877   78.6808 N   0  0  0  0  0  0  0  0  0  0  0  0
   11.0729   20.1624   78.6050 S   0  0  1  0  0  0  0  0  0  0  0  0
   15.8772   21.0738   78.5072 C   0  0  0  0  0  0  0  0  0  0  0  0
   15.6831   20.5026   77.2806 C   0  0  0  0  0  0  0  0  0  0  0  0
   15.0019   20.5362   79.4083 N   0  0  0  0  0  0  0  0  0  0  0  0
   14.2955   19.6550   78.7485 C   0  0  0  0  0  0  0  0  0  0  0  0
   14.6737   19.5998   77.4551 N   0  0  0  0  0  0  0  0  0  0  0  0
   20.0336   22.4425   76.0264 C   0  0  0  0  0  0  0  0  0  0  0  0
   18.9351   23.2858   75.9343 C   0  0  0  0  0  0  0  0  0  0  0  0
   17.9111   23.2014   76.8703 C   0  0  0  0  0  0  0  0  0  0  0  0
   17.9685   22.2754   77.9072 C   0  0  0  0  0  0  0  0  0  0  0  0
   19.0737   21.4309   77.9866 C   0  0  0  0  0  0  0  0  0  0  0  0
   20.1009   21.5133   77.0580 C   0  0  0  0  0  0  0  0  0  0  0  0
    9.8192   19.7869   77.9757 O   0  0  0  0  0  0  0  0  0  0  0  0
   11.0909   20.7509   79.9319 O   0  0  0  0  0  0  0  0  0  0  0  0
   13.3553   23.1414   77.1335 C   0  0  0  0  0  0  0  0  0  0  0  0
   13.2841   22.9221   75.7700 C   0  0  0  0  0  0  0  0  0  0  0  0
   12.6655   22.3197   78.0137 C   0  0  0  0  0  0  0  0  0  0  0  0
   11.9100   21.2776   77.5036 C   0  0  0  0  0  0  0  0  0  0  0  0
   11.8169   21.0469   76.1371 C   0  0  0  0  0  0  0  0  0  0  0  0
   12.5117   21.8754   75.2727 C   0  0  0  0  0  0  0  0  0  0  0  0
   12.4758   21.6489   73.7929 C   0  0  2  0  0  0  0  0  0  0  0  0
   13.6682   21.2399   73.3371 F   0  0  0  0  0  0  0  0  0  0  0  0
   12.1768   22.7717   73.1278 F   0  0  0  0  0  0  0  0  0  0  0  0
   11.5804   20.7266   73.4343 F   0  0  0  0  0  0  0  0  0  0  0  0
   18.9428   17.5655   82.8195 H   0  0  0  0  0  0  0  0  0  0  0  0
   20.0627   18.0885   80.0189 H   0  0  0  0  0  0  0  0  0  0  0  0
   20.0224   19.1758   81.4050 H   0  0  0  0  0  0  0  0  0  0  0  0
   22.1299   15.6990   82.1599 H   0  0  0  0  0  0  0  0  0  0  0  0
   18.3632   17.1507   79.0853 H   0  0  0  0  0  0  0  0  0  0  0  0
   16.6624   17.3078   83.0203 H   0  0  0  0  0  0  0  0  0  0  0  0
   16.1308   17.1200   78.1267 H   0  0  0  0  0  0  0  0  0  0  0  0
   14.4150   17.2793   82.0426 H   0  0  0  0  0  0  0  0  0  0  0  0
   13.7551   16.8938   78.3874 H   0  0  0  0  0  0  0  0  0  0  0  0
   13.0142   16.7150   79.9743 H   0  0  0  0  0  0  0  0  0  0  0  0
   13.1165   19.1079   80.3822 H   0  0  0  0  0  0  0  0  0  0  0  0
   11.8814   18.2009   77.8583 H   0  0  0  0  0  0  0  0  0  0  0  0
   16.1542   20.6598   76.3256 H   0  0  0  0  0  0  0  0  0  0  0  0
   16.3183   23.1042   78.9861 H   0  0  0  0  0  0  0  0  0  0  0  0
   17.2380   21.9220   79.8884 H   0  0  0  0  0  0  0  0  0  0  0  0
   14.2968   19.0005   76.7378 H   0  0  0  0  0  0  0  0  0  0  0  0
   18.8746   24.0129   75.1348 H   0  0  0  0  0  0  0  0  0  0  0  0
   20.9557   20.8539   77.1388 H   0  0  0  0  0  0  0  0  0  0  0  0
   17.0573   23.8648   76.7936 H   0  0  0  0  0  0  0  0  0  0  0  0
   19.1273   20.6992   78.7851 H   0  0  0  0  0  0  0  0  0  0  0  0
   13.9490   23.9585   77.5187 H   0  0  0  0  0  0  0  0  0  0  0  0
   13.8357   23.5699   75.1009 H   0  0  0  0  0  0  0  0  0  0  0  0
   12.7269   22.4954   79.0779 H   0  0  0  0  0  0  0  0  0  0  0  0
   11.2139   20.2316   75.7598 H   0  0  0  0  0  0  0  0  0  0  0  0
   16.8422   22.1476   78.8950 C   0  0  0  0  0  0  0  0  0  0  0  0
   20.8344   22.5098   75.3015 H   0  0  0  0  0  0  0  0  0  0  0  0
  1  2  1  0
  1  5  1  0
  1  9  1  0
  2  3  1  0
  3  4  1  0
  3  8  2  0
  5  4  1  1
  5  6  2  0
  5  7  2  0
  9 10  2  0
  9 14  1  0
 10 11  1  0
 11 12  2  0
 12 13  1  0
 12 15  1  0
 13 14  2  0
 15 16  1  0
 16 17  1  0
 16 22  1  0
 18 17  1  1
 18 30  2  0
 18 31  2  0
 18 35  1  0
 19 20  2  0
 19 21  1  0
 19 66  1  0
 20 23  1  0
 21 22  2  0
 22 23  1  0
 66 27  1  0
 24 25  2  0
 24 29  1  0
 25 26  1  0
 26 27  2  0
 27 28  1  0
 28 29  2  0
 32 33  2  0
 32 34  1  0
 33 37  1  0
 34 35  2  0
 35 36  1  0
 36 37  2  0
 37 38  1  0
 38 39  1  6
 38 40  1  0
 38 41  1  0
  1 42  1  1
  2 43  1  0
  2 44  1  0
  4 45  1  0
 10 46  1  0
 14 47  1  0
 11 48  1  0
 13 49  1  0
 15 50  1  0
 15 51  1  0
 16 52  1  1
 17 53  1  0
 20 54  1  0
 66 55  1  0
 66 56  1  0
 23 57  1  0
 24 67  1  0
 25 58  1  0
 29 59  1  0
 26 60  1  0
 28 61  1  0
 32 62  1  0
 33 63  1  0
 34 64  1  0
 36 65  1  0
M  END
