
     RDKit          3D

 51 54  0  0  0  0  0  0  0  0999 V2000
    5.9453    1.0016    1.8366 C   0  0  0  0  0  0  0  0  0  0  0  0
    3.6753    0.2617   -0.4566 C   0  0  0  0  0  0  0  0  0  0  0  0
    2.4548    0.9188   -0.5931 C   0  0  0  0  0  0  0  0  0  0  0  0
    1.2880    0.2224   -0.3585 C   0  0  0  0  0  0  0  0  0  0  0  0
   -0.0590   -1.5498    0.1364 C   0  0  0  0  0  0  0  0  0  0  0  0
   -2.1134   -2.2448    0.3513 N   0  0  0  0  0  0  0  0  0  0  0  0
   -4.6501   -0.9923    0.0823 C   0  0  0  0  0  0  0  0  0  0  0  0
   -5.7698    0.0069   -0.0263 C   0  0  0  0  0  0  0  0  0  0  0  0
   -6.3578    0.2620   -1.2720 C   0  0  0  0  0  0  0  0  0  0  0  0
   -5.9002   -0.4488   -2.5157 C   0  0  0  0  0  0  0  0  0  0  0  0
   -7.8176    1.8772   -0.2272 C   0  0  0  0  0  0  0  0  0  0  0  0
   -6.1906    0.7018    1.1154 C   0  0  0  0  0  0  0  0  0  0  0  0
   -5.5537    0.4634    2.4559 C   0  0  0  0  0  0  0  0  0  0  0  0
    3.7188   -1.0958   -0.0965 C   0  0  0  0  0  0  0  0  0  0  0  0
    4.9387   -1.6303    0.0065 O   0  0  0  0  0  0  0  0  0  0  0  0
    5.4902    1.9952    0.4350 S   0  0  1  0  0  0  0  0  0  0  0  0
    4.4072    2.8737    0.8432 O   0  0  0  0  0  0  0  0  0  0  0  0
    6.6935    2.5612   -0.1510 O   0  0  0  0  0  0  0  0  0  0  0  0
    4.8772    0.9621   -0.7147 N   0  0  0  0  0  0  0  0  0  0  0  0
   -0.1110    0.6622   -0.4335 C   0  0  0  0  0  0  0  0  0  0  0  0
   -0.8831   -0.4044   -0.1341 C   0  0  0  0  0  0  0  0  0  0  0  0
   -0.7678   -2.5892    0.4103 N   0  0  0  0  0  0  0  0  0  0  0  0
   -2.2128   -0.9649    0.0350 C   0  0  0  0  0  0  0  0  0  0  0  0
   -3.3691   -0.3296   -0.0959 N   0  0  0  0  0  0  0  0  0  0  0  0
   -7.3862    1.1974   -1.3548 C   0  0  0  0  0  0  0  0  0  0  0  0
   -7.2186    1.6329    0.9983 C   0  0  0  0  0  0  0  0  0  0  0  0
    1.3363   -1.1472   -0.0058 C   0  0  0  0  0  0  0  0  0  0  0  0
    2.5320   -1.8130    0.1205 C   0  0  0  0  0  0  0  0  0  0  0  0
    5.0694   -3.0005    0.3491 C   0  0  0  0  0  0  0  0  0  0  0  0
    5.0645    0.4965    2.2256 H   0  0  0  0  0  0  0  0  0  0  0  0
    6.7004    0.2786    1.5404 H   0  0  0  0  0  0  0  0  0  0  0  0
    6.3483    1.6706    2.5953 H   0  0  0  0  0  0  0  0  0  0  0  0
    2.4401    1.9573   -0.8950 H   0  0  0  0  0  0  0  0  0  0  0  0
   -4.6598   -1.4901    1.0543 H   0  0  0  0  0  0  0  0  0  0  0  0
   -4.7564   -1.7853   -0.6614 H   0  0  0  0  0  0  0  0  0  0  0  0
   -6.0883   -1.5226   -2.4614 H   0  0  0  0  0  0  0  0  0  0  0  0
   -6.4212   -0.0684   -3.3927 H   0  0  0  0  0  0  0  0  0  0  0  0
   -4.8303   -0.3199   -2.6872 H   0  0  0  0  0  0  0  0  0  0  0  0
   -8.6180    2.6019   -0.3036 H   0  0  0  0  0  0  0  0  0  0  0  0
   -4.4726    0.6075    2.4247 H   0  0  0  0  0  0  0  0  0  0  0  0
   -5.9559    1.1461    3.2032 H   0  0  0  0  0  0  0  0  0  0  0  0
   -5.7295   -0.5535    2.8131 H   0  0  0  0  0  0  0  0  0  0  0  0
    5.6086    0.4221   -1.1665 H   0  0  0  0  0  0  0  0  0  0  0  0
   -0.4208    1.6668   -0.6898 H   0  0  0  0  0  0  0  0  0  0  0  0
   -3.3603    0.6442   -0.3511 H   0  0  0  0  0  0  0  0  0  0  0  0
   -7.8496    1.3950   -2.3138 H   0  0  0  0  0  0  0  0  0  0  0  0
   -7.5486    2.1742    1.8767 H   0  0  0  0  0  0  0  0  0  0  0  0
    2.5507   -2.8602    0.3878 H   0  0  0  0  0  0  0  0  0  0  0  0
    6.1359   -3.2028    0.3879 H   0  0  0  0  0  0  0  0  0  0  0  0
    4.6309   -3.2150    1.3257 H   0  0  0  0  0  0  0  0  0  0  0  0
    4.6108   -3.6474   -0.4017 H   0  0  0  0  0  0  0  0  0  0  0  0
 29 15  1  0
 15 14  1  0
 18 16  2  0
 14 28  2  0
 14  2  1  0
 16 19  1  6
 19  2  1  0
 28 27  1  0
 16 17  2  0
 16  1  1  0
  2  3  2  0
 27  5  2  0
 27  4  1  0
  3  4  1  0
 22  5  1  0
 22  6  2  0
  5 21  1  0
  4 20  2  0
  6 23  1  0
 21 20  1  0
 21 23  2  0
 23 24  1  0
 24  7  1  0
  7  8  1  0
 10  9  1  0
  8  9  2  0
  8 12  1  0
 13 12  1  0
  9 25  1  0
 12 26  2  0
 25 11  2  0
 26 11  1  0
  1 30  1  0
  1 31  1  0
  1 32  1  0
  3 33  1  0
  7 34  1  0
  7 35  1  0
 10 36  1  0
 10 37  1  0
 10 38  1  0
 11 39  1  0
 13 40  1  0
 13 41  1  0
 13 42  1  0
 19 43  1  0
 20 44  1  0
 24 45  1  0
 25 46  1  0
 26 47  1  0
 28 48  1  0
 29 49  1  0
 29 50  1  0
 29 51  1  0
M  END
