
     RDKit          3D

 38 39  0  0  0  0  0  0  0  0999 V2000
   -4.0773   -1.3802    0.9611 C   0  0  0  0  0  0  0  0  0  0  0  0
   -4.9401   -2.4118    0.6309 C   0  0  0  0  0  0  0  0  0  0  0  0
   -5.9117   -2.1854   -0.3330 C   0  0  0  0  0  0  0  0  0  0  0  0
   -5.9713   -0.9309   -0.9199 C   0  0  0  0  0  0  0  0  0  0  0  0
   -5.1475    0.0634   -0.6084 N   0  0  0  0  0  0  0  0  0  0  0  0
   -4.2194   -0.1539    0.3177 C   0  0  0  0  0  0  0  0  0  0  0  0
   -3.2875    0.9786    0.6308 C   0  0  0  0  0  0  0  0  0  0  0  0
   -1.7744    0.7473   -0.3567 S   0  0  0  0  0  0  0  0  0  0  0  0
   -0.7602    2.0824    0.3425 C   0  0  0  0  0  0  0  0  0  0  0  0
    0.6557    1.9918   -0.2227 C   0  0  1  0  0  0  0  0  0  0  0  0
    1.4969    3.1171    0.3730 C   0  0  0  0  0  0  0  0  0  0  0  0
    1.3021    4.2504   -0.2784 O   0  0  0  0  0  0  0  0  0  0  0  0
    2.2127    2.9904    1.3294 O   0  0  0  0  0  0  0  0  0  0  0  0
    1.2340    0.7160    0.0913 N   0  0  0  0  0  0  0  0  0  0  0  0
    2.4213    0.3503   -0.3891 C   0  0  0  0  0  0  0  0  0  0  0  0
    3.0853    1.0741   -1.1406 O   0  0  0  0  0  0  0  0  0  0  0  0
    2.9114   -0.9877    0.0201 C   0  0  0  0  0  0  0  0  0  0  0  0
    2.1354   -1.7040    0.8306 N   0  0  0  0  0  0  0  0  0  0  0  0
    2.5322   -2.8973    1.2183 C   0  0  0  0  0  0  0  0  0  0  0  0
    3.7487   -3.4430    0.8050 C   0  0  0  0  0  0  0  0  0  0  0  0
    4.5644   -2.7158   -0.0323 C   0  0  0  0  0  0  0  0  0  0  0  0
    4.1504   -1.4467   -0.4477 C   0  0  0  0  0  0  0  0  0  0  0  0
    4.9351   -0.7389   -1.2547 O   0  0  0  0  0  0  0  0  0  0  0  0
   -3.3049   -1.5166    1.7069 H   0  0  0  0  0  0  0  0  0  0  0  0
   -4.8569   -3.3745    1.1178 H   0  0  0  0  0  0  0  0  0  0  0  0
   -6.6084   -2.9588   -0.6249 H   0  0  0  0  0  0  0  0  0  0  0  0
   -6.7191   -0.7177   -1.6758 H   0  0  0  0  0  0  0  0  0  0  0  0
   -3.7495    1.9328    0.3797 H   0  0  0  0  0  0  0  0  0  0  0  0
   -3.0157    0.9811    1.6872 H   0  0  0  0  0  0  0  0  0  0  0  0
   -1.1930    3.0490    0.0866 H   0  0  0  0  0  0  0  0  0  0  0  0
   -0.7430    1.9893    1.4310 H   0  0  0  0  0  0  0  0  0  0  0  0
    0.6142    2.1277   -1.3075 H   0  0  0  0  0  0  0  0  0  0  0  0
    0.7665    0.0826    0.7254 H   0  0  0  0  0  0  0  0  0  0  0  0
    1.8063    4.9692    0.1328 H   0  0  0  0  0  0  0  0  0  0  0  0
    1.8734   -3.4479    1.8782 H   0  0  0  0  0  0  0  0  0  0  0  0
    4.0428   -4.4270    1.1429 H   0  0  0  0  0  0  0  0  0  0  0  0
    5.5145   -3.1085   -0.3719 H   0  0  0  0  0  0  0  0  0  0  0  0
    4.4798    0.1159   -1.4337 H   0  0  0  0  0  0  0  0  0  0  0  0
  1  2  2  0
  1  6  1  0
  2  3  1  0
  3  4  2  0
  4  5  1  0
  5  6  2  0
  6  7  1  0
  7  8  1  0
  8  9  1  0
  9 10  1  0
 10 11  1  0
 10 14  1  0
 11 12  1  0
 11 13  2  0
 14 15  1  0
 15 16  2  0
 15 17  1  0
 17 18  2  0
 17 22  1  0
 18 19  1  0
 19 20  2  0
 20 21  1  0
 21 22  2  0
 22 23  1  0
  1 24  1  0
  2 25  1  0
  3 26  1  0
  4 27  1  0
  7 28  1  0
  7 29  1  0
  9 30  1  0
  9 31  1  0
 10 32  1  6
 14 33  1  0
 12 34  1  0
 19 35  1  0
 20 36  1  0
 21 37  1  0
 23 38  1  0
M  END
