
     RDKit          3D

 32 33  0  0  0  0  0  0  0  0999 V2000
   -4.1129    0.0012   -0.0396 C   0  0  0  0  0  0  0  0  0  0  0  0
   -3.4800   -1.1704   -0.4579 C   0  0  0  0  0  0  0  0  0  0  0  0
   -2.1110   -1.3392   -0.3248 C   0  0  0  0  0  0  0  0  0  0  0  0
   -1.3096   -0.3335    0.2214 C   0  0  0  0  0  0  0  0  0  0  0  0
   -1.9410    0.8339    0.6662 C   0  0  0  0  0  0  0  0  0  0  0  0
   -3.3087    0.9887    0.5413 C   0  0  0  0  0  0  0  0  0  0  0  0
    0.1374   -0.5264    0.2431 C   0  0  0  0  0  0  0  0  0  0  0  0
    1.0648    0.4296    0.3886 C   0  0  0  0  0  0  0  0  0  0  0  0
    2.5125    0.2430    0.2743 C   0  0  0  0  0  0  0  0  0  0  0  0
    3.2797    1.3427   -0.1048 C   0  0  0  0  0  0  0  0  0  0  0  0
    4.6451    1.1987   -0.3400 C   0  0  0  0  0  0  0  0  0  0  0  0
    5.2642   -0.0288   -0.1329 C   0  0  0  0  0  0  0  0  0  0  0  0
    4.4976   -1.1199    0.2683 C   0  0  0  0  0  0  0  0  0  0  0  0
    3.1292   -0.9988    0.4580 C   0  0  0  0  0  0  0  0  0  0  0  0
    5.1430   -2.3003    0.4397 O   0  0  0  0  0  0  0  0  0  0  0  0
    5.3202    2.2791   -0.7756 O   0  0  0  0  0  0  0  0  0  0  0  0
   -6.5363   -0.8016   -0.4127 O   0  0  0  0  0  0  0  0  0  0  0  0
   -6.1270    1.4956   -0.1968 O   0  0  0  0  0  0  0  0  0  0  0  0
   -5.6557    0.2208   -0.2146 B   0  0  0  0  0  0  0  0  0  0  0  0
   -4.0449   -1.9777   -0.9106 H   0  0  0  0  0  0  0  0  0  0  0  0
   -1.6507   -2.2575   -0.6697 H   0  0  0  0  0  0  0  0  0  0  0  0
   -1.3637    1.6295    1.1199 H   0  0  0  0  0  0  0  0  0  0  0  0
   -3.7568    1.9103    0.8918 H   0  0  0  0  0  0  0  0  0  0  0  0
    0.4579   -1.5365    0.0094 H   0  0  0  0  0  0  0  0  0  0  0  0
    0.7503    1.4605    0.5154 H   0  0  0  0  0  0  0  0  0  0  0  0
    2.8092    2.3048   -0.2679 H   0  0  0  0  0  0  0  0  0  0  0  0
    6.3315   -0.1477   -0.2885 H   0  0  0  0  0  0  0  0  0  0  0  0
    2.5563   -1.8681    0.7616 H   0  0  0  0  0  0  0  0  0  0  0  0
    4.7308   -2.8017    1.1530 H   0  0  0  0  0  0  0  0  0  0  0  0
    6.2194    2.0350   -1.0260 H   0  0  0  0  0  0  0  0  0  0  0  0
   -6.1540   -1.6799   -0.3421 H   0  0  0  0  0  0  0  0  0  0  0  0
   -7.0835    1.5523   -0.2942 H   0  0  0  0  0  0  0  0  0  0  0  0
 18 19  1  0
 17 19  1  0
 19  1  1  0
  1  2  2  0
  1  6  1  0
  2  3  1  0
  6  5  2  0
  3  4  2  0
  5  4  1  0
  4  7  1  0
  7  8  2  0
  8  9  1  0
  9 10  2  0
  9 14  1  0
 10 11  1  0
 14 13  2  0
 11 16  1  0
 11 12  2  0
 13 12  1  0
 13 15  1  0
  2 20  1  0
  3 21  1  0
  5 22  1  0
  6 23  1  0
  7 24  1  0
  8 25  1  0
 10 26  1  0
 12 27  1  0
 14 28  1  0
 15 29  1  0
 16 30  1  0
 17 31  1  0
 18 32  1  0
M  END
