
     RDKit          3D

 30 32  0  0  0  0  0  0  0  0999 V2000
    2.8964    0.0505    0.1971 C   0  0  0  0  0  0  0  0  0  0  0  0
    2.6153   -2.2200   -0.7217 C   0  0  0  0  0  0  0  0  0  0  0  0
    1.6104   -0.2044   -0.1951 C   0  0  0  0  0  0  0  0  0  0  0  0
   -5.4694   -1.3137    0.4596 C   0  0  0  0  0  0  0  0  0  0  0  0
   -3.5798    0.0183   -0.0738 C   0  0  0  0  0  0  0  0  0  0  0  0
   -3.0841    1.1997   -0.6356 C   0  0  0  0  0  0  0  0  0  0  0  0
   -1.7303    1.4606   -0.6235 C   0  0  0  0  0  0  0  0  0  0  0  0
   -0.8225    0.5528   -0.0702 C   0  0  0  0  0  0  0  0  0  0  0  0
   -1.3275   -0.6181    0.4844 C   0  0  0  0  0  0  0  0  0  0  0  0
   -2.6898   -0.8898    0.4938 C   0  0  0  0  0  0  0  0  0  0  0  0
    0.6205    0.8726   -0.0397 C   0  0  0  0  0  0  0  0  0  0  0  0
    0.9674    2.0915    0.1132 N   0  0  0  0  0  0  0  0  0  0  0  0
    2.3814    2.4145    0.1034 C   0  0  0  0  0  0  0  0  0  0  0  0
    3.2782    1.3719    0.7670 C   0  0  0  0  0  0  0  0  0  0  0  0
    3.9083   -1.3006   -0.0551 S   0  0  0  0  0  0  0  0  0  0  0  0
    1.4538   -1.5159   -0.7367 C   0  0  0  0  0  0  0  0  0  0  0  0
    2.7881   -3.2255   -1.0719 H   0  0  0  0  0  0  0  0  0  0  0  0
   -5.1100   -2.2286   -0.0185 H   0  0  0  0  0  0  0  0  0  0  0  0
   -5.2603   -1.3686    1.5309 H   0  0  0  0  0  0  0  0  0  0  0  0
   -6.5445   -1.2446    0.3152 H   0  0  0  0  0  0  0  0  0  0  0  0
   -3.7726    1.9078   -1.0803 H   0  0  0  0  0  0  0  0  0  0  0  0
   -1.3626    2.3805   -1.0588 H   0  0  0  0  0  0  0  0  0  0  0  0
   -0.6616   -1.3350    0.9481 H   0  0  0  0  0  0  0  0  0  0  0  0
   -3.0317   -1.8099    0.9468 H   0  0  0  0  0  0  0  0  0  0  0  0
    2.6959    2.5477   -0.9396 H   0  0  0  0  0  0  0  0  0  0  0  0
    2.5174    3.3800    0.5918 H   0  0  0  0  0  0  0  0  0  0  0  0
    3.1325    1.3704    1.8524 H   0  0  0  0  0  0  0  0  0  0  0  0
    4.3258    1.6134    0.5863 H   0  0  0  0  0  0  0  0  0  0  0  0
    0.5306   -1.9096   -1.1362 H   0  0  0  0  0  0  0  0  0  0  0  0
   -4.9105   -0.1543   -0.1277 O   0  0  0  0  0  0  0  0  0  0  0  0
  1  3  2  0
  1 14  1  0
  1 15  1  0
  2 15  1  0
  2 16  2  0
  3 11  1  0
  3 16  1  0
  4 30  1  0
 30  5  1  0
  5  6  2  0
  5 10  1  0
  6  7  1  0
  7  8  2  0
  8  9  1  0
  8 11  1  0
  9 10  2  0
 11 12  2  0
 12 13  1  0
 13 14  1  0
  2 17  1  0
  4 18  1  0
  4 19  1  0
  4 20  1  0
  6 21  1  0
  7 22  1  0
  9 23  1  0
 10 24  1  0
 13 25  1  0
 13 26  1  0
 14 27  1  0
 14 28  1  0
 16 29  1  0
M  END
