
     RDKit          3D

 29 29  0  0  0  0  0  0  0  0999 V2000
   -2.4842   -0.7336   -1.0418 O   0  0  0  0  0  0  0  0  0  0  0  0
   -1.4802    0.1709   -0.5064 S   0  0  1  0  0  0  0  0  0  0  0  0
   -1.7893    1.5792   -0.3214 O   0  0  0  0  0  0  0  0  0  0  0  0
   -1.0647   -0.4274    0.9674 N   0  0  0  0  0  0  0  0  0  0  0  0
   -0.0571    0.2693    1.7659 C   0  0  0  0  0  0  0  0  0  0  0  0
    0.1233   -0.4480    3.0935 C   0  0  0  0  0  0  0  0  0  0  0  0
    1.1287    0.2596    3.9931 C   0  0  0  0  0  0  0  0  0  0  0  0
    1.3317   -0.4655    5.3156 C   0  0  0  0  0  0  0  0  0  0  0  0
   -0.0372    0.0619   -1.5329 C   0  0  0  0  0  0  0  0  0  0  0  0
    0.8122    1.1551   -1.6435 C   0  0  0  0  0  0  0  0  0  0  0  0
    1.9598    1.0399   -2.4156 C   0  0  0  0  0  0  0  0  0  0  0  0
    2.2476   -0.1527   -3.0646 C   0  0  0  0  0  0  0  0  0  0  0  0
    1.3881   -1.2385   -2.9477 C   0  0  0  0  0  0  0  0  0  0  0  0
    0.2394   -1.1377   -2.1790 C   0  0  0  0  0  0  0  0  0  0  0  0
   -0.9355   -1.4339    0.9354 H   0  0  0  0  0  0  0  0  0  0  0  0
   -0.4013    1.2886    1.9412 H   0  0  0  0  0  0  0  0  0  0  0  0
    0.9058    0.3295    1.2443 H   0  0  0  0  0  0  0  0  0  0  0  0
    0.4585   -1.4744    2.9111 H   0  0  0  0  0  0  0  0  0  0  0  0
   -0.8428   -0.5176    3.6011 H   0  0  0  0  0  0  0  0  0  0  0  0
    0.7878    1.2813    4.1834 H   0  0  0  0  0  0  0  0  0  0  0  0
    2.0857    0.3489    3.4711 H   0  0  0  0  0  0  0  0  0  0  0  0
    2.0502    0.0560    5.9485 H   0  0  0  0  0  0  0  0  0  0  0  0
    0.3955   -0.5417    5.8713 H   0  0  0  0  0  0  0  0  0  0  0  0
    1.7043   -1.4793    5.1580 H   0  0  0  0  0  0  0  0  0  0  0  0
    0.5855    2.0889   -1.1473 H   0  0  0  0  0  0  0  0  0  0  0  0
    2.6256    1.8868   -2.5117 H   0  0  0  0  0  0  0  0  0  0  0  0
    3.1421   -0.2364   -3.6675 H   0  0  0  0  0  0  0  0  0  0  0  0
    1.6093   -2.1655   -3.4593 H   0  0  0  0  0  0  0  0  0  0  0  0
   -0.4303   -1.9831   -2.0965 H   0  0  0  0  0  0  0  0  0  0  0  0
  1  2  2  0
  2  3  2  0
  2  4  1  1
  2  9  1  0
  4  5  1  0
  4 15  1  0
  5  6  1  0
  5 16  1  0
  5 17  1  0
  6  7  1  0
  6 18  1  0
  6 19  1  0
  7  8  1  0
  7 20  1  0
  7 21  1  0
  8 22  1  0
  8 23  1  0
  8 24  1  0
  9 10  2  0
  9 14  1  0
 10 11  1  0
 10 25  1  0
 11 12  2  0
 11 26  1  0
 12 13  1  0
 12 27  1  0
 13 14  2  0
 13 28  1  0
 14 29  1  0
M  END
