
     RDKit          3D

 44 45  0  0  0  0  0  0  0  0999 V2000
    6.3599    3.6336   -0.9611 O   0  0  0  0  0  0  0  0  0  0  0  0
    5.5112    2.9364   -0.1555 N   0  0  0  0  0  0  0  0  0  0  0  0
    4.5803    2.1262   -0.6937 C   0  0  0  0  0  0  0  0  0  0  0  0
    4.3210    2.1025   -1.8844 O   0  0  0  0  0  0  0  0  0  0  0  0
    3.8703    1.2664    0.3254 C   0  0  0  0  0  0  0  0  0  0  0  0
    2.3547    1.3230    0.1685 C   0  0  0  0  0  0  0  0  0  0  0  0
    1.6693    0.4203    1.1843 C   0  0  0  0  0  0  0  0  0  0  0  0
    0.2243    0.3873    1.0310 N   0  0  0  0  0  0  0  0  0  0  0  0
   -0.3575   -0.7978    1.6284 C   0  0  0  0  0  0  0  0  0  0  0  0
   -0.0378   -2.0532    0.8601 C   0  0  0  0  0  0  0  0  0  0  0  0
   -0.0456   -2.0601   -0.5325 C   0  0  0  0  0  0  0  0  0  0  0  0
    0.2028   -3.2237   -1.2435 C   0  0  0  0  0  0  0  0  0  0  0  0
   -0.4257    1.5952    1.5032 C   0  0  0  0  0  0  0  0  0  0  0  0
    0.2343   -3.2421    1.5275 C   0  0  0  0  0  0  0  0  0  0  0  0
    0.4822   -4.4188    0.8334 C   0  0  0  0  0  0  0  0  0  0  0  0
    0.4629   -4.3971   -0.5510 C   0  0  0  0  0  0  0  0  0  0  0  0
    0.7756   -5.8584   -1.4344 Cl  0  0  0  0  0  0  0  0  0  0  0  0
   -1.8256    1.7264    0.9640 C   0  0  0  0  0  0  0  0  0  0  0  0
   -2.8966    2.0258    1.7969 C   0  0  0  0  0  0  0  0  0  0  0  0
   -4.1826    2.1727    1.2917 C   0  0  0  0  0  0  0  0  0  0  0  0
   -2.0672    1.5672   -0.3990 C   0  0  0  0  0  0  0  0  0  0  0  0
   -3.3421    1.7078   -0.9223 C   0  0  0  0  0  0  0  0  0  0  0  0
   -4.3921    2.0110   -0.0670 C   0  0  0  0  0  0  0  0  0  0  0  0
   -5.9939    2.1843   -0.7123 Cl  0  0  0  0  0  0  0  0  0  0  0  0
    4.2202    0.2389    0.1833 H   0  0  0  0  0  0  0  0  0  0  0  0
    4.1530    1.5497    1.3422 H   0  0  0  0  0  0  0  0  0  0  0  0
    2.0250    2.3590    0.2837 H   0  0  0  0  0  0  0  0  0  0  0  0
    2.0658    1.0066   -0.8350 H   0  0  0  0  0  0  0  0  0  0  0  0
    2.0454   -0.5954    1.0367 H   0  0  0  0  0  0  0  0  0  0  0  0
    1.9629    0.7093    2.2073 H   0  0  0  0  0  0  0  0  0  0  0  0
   -0.0573   -0.9276    2.6809 H   0  0  0  0  0  0  0  0  0  0  0  0
   -1.4448   -0.6768    1.6400 H   0  0  0  0  0  0  0  0  0  0  0  0
   -0.2383   -1.1398   -1.0686 H   0  0  0  0  0  0  0  0  0  0  0  0
    0.1950   -3.2145   -2.3251 H   0  0  0  0  0  0  0  0  0  0  0  0
   -0.4433    1.6616    2.6033 H   0  0  0  0  0  0  0  0  0  0  0  0
    0.1530    2.4561    1.1619 H   0  0  0  0  0  0  0  0  0  0  0  0
    0.2576   -3.2572    2.6107 H   0  0  0  0  0  0  0  0  0  0  0  0
    0.6953   -5.3342    1.3687 H   0  0  0  0  0  0  0  0  0  0  0  0
   -2.7358    2.1423    2.8620 H   0  0  0  0  0  0  0  0  0  0  0  0
   -5.0070    2.4012    1.9536 H   0  0  0  0  0  0  0  0  0  0  0  0
   -1.2446    1.3260   -1.0603 H   0  0  0  0  0  0  0  0  0  0  0  0
   -3.5148    1.5840   -1.9829 H   0  0  0  0  0  0  0  0  0  0  0  0
    5.9973    4.5267   -1.0234 H   0  0  0  0  0  0  0  0  0  0  0  0
    5.8155    2.8465    0.8031 H   0  0  0  0  0  0  0  0  0  0  0  0
  1  2  1  0
  3  2  1  0
  3  5  1  0
  4  3  2  0
  5 25  1  0
  5 26  1  0
  6  5  1  0
  6 27  1  0
  6 28  1  0
  7  6  1  0
  7  8  1  0
  7 29  1  0
  7 30  1  0
  9  8  1  0
  9 31  1  0
  9 32  1  0
 10  9  1  0
 10 14  1  0
 11 10  2  0
 11 33  1  0
 12 11  1  0
 12 16  2  0
 12 34  1  0
 13  8  1  0
 13 18  1  0
 13 35  1  0
 13 36  1  0
 14 37  1  0
 15 14  2  0
 15 38  1  0
 16 15  1  0
 17 16  1  0
 18 19  2  0
 19 20  1  0
 19 39  1  0
 20 40  1  0
 21 18  1  0
 21 22  2  0
 21 41  1  0
 22 23  1  0
 22 42  1  0
 23 20  2  0
 23 24  1  0
  1 43  1  0
  2 44  1  0
M  END
