
     RDKit          3D

 61 63  0  0  0  0  0  0  0  0999 V2000
   -1.8474    0.6971   -0.0665 C   0  0  0  0  0  0  0  0  0  0  0  0
   -3.2685    0.6029   -0.0485 C   0  0  0  0  0  0  0  0  0  0  0  0
   -4.4684    0.5054   -0.0279 C   0  0  0  0  0  0  0  0  0  0  0  0
   -5.9204    0.4227   -0.0208 C   0  0  0  0  0  0  0  0  0  0  0  0
   -6.2799   -0.9248   -0.2603 O   0  0  0  0  0  0  0  0  0  0  0  0
   -7.5961   -1.2328   -0.3055 C   0  0  0  0  0  0  0  0  0  0  0  0
    0.2964   -0.1515   -0.8133 C   0  0  0  0  0  0  0  0  0  0  0  0
    2.3493   -1.4868   -0.9973 N   0  0  0  0  0  0  0  0  0  0  0  0
    2.2801    0.9623   -0.0983 O   0  0  0  0  0  0  0  0  0  0  0  0
   -1.1975    1.7213    0.6226 C   0  0  0  0  0  0  0  0  0  0  0  0
    1.1068   -1.1003   -1.6576 C   0  0  0  0  0  0  0  0  0  0  0  0
    5.7245   -3.5206    0.6643 N   0  0  0  0  0  0  0  0  0  0  0  0
    3.2866   -2.1058   -1.9241 C   0  0  0  0  0  0  0  0  0  0  0  0
   -1.0814   -0.2331   -0.7748 C   0  0  0  0  0  0  0  0  0  0  0  0
    0.1835    1.7956    0.6029 C   0  0  0  0  0  0  0  0  0  0  0  0
    0.9546    0.8721   -0.1051 C   0  0  0  0  0  0  0  0  0  0  0  0
    4.6183   -2.4043   -1.2581 C   0  0  0  0  0  0  0  0  0  0  0  0
    4.4549   -3.3045   -0.0316 C   0  0  2  0  0  0  0  0  0  0  0  0
    5.5711   -4.4203    1.8034 C   0  0  0  0  0  0  0  0  0  0  0  0
    6.8496   -4.6653    2.5894 C   0  0  0  0  0  0  0  0  0  0  0  0
    6.8241   -3.9004   -0.2133 C   0  0  0  0  0  0  0  0  0  0  0  0
    6.6754   -5.2206   -0.9679 C   0  0  0  0  0  0  0  0  0  0  0  0
    3.4155   -2.6539    0.8851 C   0  0  0  0  0  0  0  0  0  0  0  0
    2.1199   -2.3554    0.1520 C   0  0  0  0  0  0  0  0  0  0  0  0
    1.1616    3.3189    1.6630 I   0  0  0  0  0  0  0  0  0  0  0  0
   -7.9002   -2.5731   -0.5505 C   0  0  0  0  0  0  0  0  0  0  0  0
   -9.2201   -2.9830   -0.6129 C   0  0  0  0  0  0  0  0  0  0  0  0
  -10.2554   -2.0705   -0.4333 C   0  0  0  0  0  0  0  0  0  0  0  0
   -9.9468   -0.7421   -0.1912 C   0  0  0  0  0  0  0  0  0  0  0  0
   -8.6248   -0.3124   -0.1257 C   0  0  0  0  0  0  0  0  0  0  0  0
   -1.7794    2.4462    1.1754 H   0  0  0  0  0  0  0  0  0  0  0  0
   -1.5780   -1.0313   -1.3127 H   0  0  0  0  0  0  0  0  0  0  0  0
   -6.3058    0.7688    0.9454 H   0  0  0  0  0  0  0  0  0  0  0  0
   -6.3345    1.0835   -0.7915 H   0  0  0  0  0  0  0  0  0  0  0  0
   -7.0958   -3.2844   -0.6906 H   0  0  0  0  0  0  0  0  0  0  0  0
   -8.4271    0.7341    0.0633 H   0  0  0  0  0  0  0  0  0  0  0  0
    0.5002   -1.9723   -1.9373 H   0  0  0  0  0  0  0  0  0  0  0  0
    1.3764   -0.5955   -2.5907 H   0  0  0  0  0  0  0  0  0  0  0  0
    2.8617   -3.0351   -2.3343 H   0  0  0  0  0  0  0  0  0  0  0  0
    3.4408   -1.4287   -2.7659 H   0  0  0  0  0  0  0  0  0  0  0  0
    1.4213   -1.8697    0.8364 H   0  0  0  0  0  0  0  0  0  0  0  0
    1.6433   -3.2940   -0.1710 H   0  0  0  0  0  0  0  0  0  0  0  0
    2.6265    0.0830   -0.4494 H   0  0  0  0  0  0  0  0  0  0  0  0
    4.0295   -4.2651   -0.3790 H   0  0  0  0  0  0  0  0  0  0  0  0
    4.8573   -3.9734    2.4954 H   0  0  0  0  0  0  0  0  0  0  0  0
    5.1363   -5.3902    1.5105 H   0  0  0  0  0  0  0  0  0  0  0  0
    6.9935   -3.0953   -0.9295 H   0  0  0  0  0  0  0  0  0  0  0  0
    7.7374   -3.9313    0.3824 H   0  0  0  0  0  0  0  0  0  0  0  0
    5.2531   -2.8706   -2.0130 H   0  0  0  0  0  0  0  0  0  0  0  0
    5.1010   -1.4684   -0.9591 H   0  0  0  0  0  0  0  0  0  0  0  0
    3.1619   -3.2953    1.7293 H   0  0  0  0  0  0  0  0  0  0  0  0
    3.8300   -1.7283    1.2973 H   0  0  0  0  0  0  0  0  0  0  0  0
    7.5759   -5.2767    2.0541 H   0  0  0  0  0  0  0  0  0  0  0  0
    7.3310   -3.7245    2.8608 H   0  0  0  0  0  0  0  0  0  0  0  0
    6.6050   -5.1929    3.5116 H   0  0  0  0  0  0  0  0  0  0  0  0
    7.5536   -5.3900   -1.5926 H   0  0  0  0  0  0  0  0  0  0  0  0
    6.5849   -6.0735   -0.2935 H   0  0  0  0  0  0  0  0  0  0  0  0
    5.8034   -5.2232   -1.6237 H   0  0  0  0  0  0  0  0  0  0  0  0
   -9.4416   -4.0250   -0.8043 H   0  0  0  0  0  0  0  0  0  0  0  0
  -11.2865   -2.3937   -0.4835 H   0  0  0  0  0  0  0  0  0  0  0  0
  -10.7387   -0.0181   -0.0493 H   0  0  0  0  0  0  0  0  0  0  0  0
  1  2  1  0
  1 10  2  0
  1 14  1  0
  2  3  3  0
  3  4  1  0
  4  5  1  0
  5  6  1  0
  6 26  2  0
  6 30  1  0
  7 11  1  0
  7 14  2  0
  7 16  1  0
  8 11  1  0
  8 13  1  0
  8 24  1  0
  9 16  1  0
 10 15  1  0
 12 18  1  0
 12 19  1  0
 12 21  1  0
 13 17  1  0
 15 16  2  0
 15 25  1  0
 17 18  1  0
 18 23  1  0
 19 20  1  0
 21 22  1  0
 23 24  1  0
 26 27  1  0
 27 28  2  0
 28 29  1  0
 29 30  2  0
 10 31  1  0
 14 32  1  0
  4 33  1  0
  4 34  1  0
 26 35  1  0
 30 36  1  0
 11 37  1  0
 11 38  1  0
 13 39  1  0
 13 40  1  0
 24 41  1  0
 24 42  1  0
  9 43  1  0
 18 44  1  6
 19 45  1  0
 19 46  1  0
 21 47  1  0
 21 48  1  0
 17 49  1  0
 17 50  1  0
 23 51  1  0
 23 52  1  0
 20 53  1  0
 20 54  1  0
 20 55  1  0
 22 56  1  0
 22 57  1  0
 22 58  1  0
 27 59  1  0
 28 60  1  0
 29 61  1  0
M  END
