
     RDKit          3D

 35 36  0  0  0  0  0  0  0  0999 V2000
    1.0287    2.5455   -0.2183 O   0  0  0  0  0  0  0  0  0  0  0  0
    2.1492    2.2111    0.0546 C   0  0  0  0  0  0  0  0  0  0  0  0
    3.1344    3.0431    0.3395 O   0  0  0  0  0  0  0  0  0  0  0  0
    2.6145    0.7870    0.0976 C   0  0  0  0  0  0  0  0  0  0  0  0
    3.9590    0.6121   -0.1167 N   0  0  0  0  0  0  0  0  0  0  0  0
    4.5791   -0.6019   -0.1487 C   0  0  0  0  0  0  0  0  0  0  0  0
    5.7669   -0.7385   -0.3530 O   0  0  0  0  0  0  0  0  0  0  0  0
    3.7299   -1.6549    0.0702 N   0  0  0  0  0  0  0  0  0  0  0  0
    2.3737   -1.5979    0.3088 C   0  0  0  0  0  0  0  0  0  0  0  0
    1.7383   -2.6187    0.4869 O   0  0  0  0  0  0  0  0  0  0  0  0
    1.7847   -0.2548    0.3250 C   0  0  0  0  0  0  0  0  0  0  0  0
    0.3101   -0.1796    0.5753 C   0  0  0  0  0  0  0  0  0  0  0  0
   -0.5067   -0.3775   -0.7119 C   0  0  0  0  0  0  0  0  0  0  0  0
   -1.9816   -0.2365   -0.4646 C   0  0  0  0  0  0  0  0  0  0  0  0
   -2.5536    1.0246   -0.2833 C   0  0  0  0  0  0  0  0  0  0  0  0
   -3.9036    1.1756   -0.0316 C   0  0  0  0  0  0  0  0  0  0  0  0
   -4.7339    0.0545    0.0462 C   0  0  0  0  0  0  0  0  0  0  0  0
   -6.0393    0.2934    0.2865 O   0  0  0  0  0  0  0  0  0  0  0  0
   -6.9296   -0.8028    0.3179 C   0  0  0  0  0  0  0  0  0  0  0  0
   -4.1819   -1.2107   -0.1278 C   0  0  0  0  0  0  0  0  0  0  0  0
   -2.8185   -1.3397   -0.3784 C   0  0  0  0  0  0  0  0  0  0  0  0
    2.8384    3.9643    0.2680 H   0  0  0  0  0  0  0  0  0  0  0  0
    4.1490   -2.5768    0.0457 H   0  0  0  0  0  0  0  0  0  0  0  0
    0.0417   -0.9603    1.2888 H   0  0  0  0  0  0  0  0  0  0  0  0
    0.0414    0.7676    1.0367 H   0  0  0  0  0  0  0  0  0  0  0  0
   -0.1825    0.3546   -1.4540 H   0  0  0  0  0  0  0  0  0  0  0  0
   -0.2929   -1.3640   -1.1271 H   0  0  0  0  0  0  0  0  0  0  0  0
   -1.9280    1.9078   -0.3462 H   0  0  0  0  0  0  0  0  0  0  0  0
   -4.3278    2.1634    0.1016 H   0  0  0  0  0  0  0  0  0  0  0  0
   -6.6940   -1.5017    1.1253 H   0  0  0  0  0  0  0  0  0  0  0  0
   -7.9212   -0.3921    0.4910 H   0  0  0  0  0  0  0  0  0  0  0  0
   -6.9371   -1.3501   -0.6287 H   0  0  0  0  0  0  0  0  0  0  0  0
   -4.7900   -2.1037   -0.0753 H   0  0  0  0  0  0  0  0  0  0  0  0
   -2.4098   -2.3342   -0.5164 H   0  0  0  0  0  0  0  0  0  0  0  0
    4.5472    1.4165   -0.2835 H   0  0  0  0  0  0  0  0  0  0  0  0
 19 18  1  0
 20 21  2  0
 20 17  1  0
 21 14  1  0
 18 17  1  0
 17 16  2  0
 14 13  1  0
 14 15  2  0
 13 12  1  0
 15 16  1  0
 12 11  1  0
 10  9  2  0
 11  9  1  0
 11  4  2  0
  9  8  1  0
  4  2  1  0
  4  5  1  0
  1  2  2  0
  8  6  1  0
  2  3  1  0
  5  6  1  0
  6  7  2  0
  3 22  1  0
  8 23  1  0
 12 24  1  0
 12 25  1  0
 13 26  1  0
 13 27  1  0
 15 28  1  0
 16 29  1  0
 19 30  1  0
 19 31  1  0
 19 32  1  0
 20 33  1  0
 21 34  1  0
  5 35  1  0
M  END
