
     RDKit          3D

 38 41  0  0  0  0  0  0  0  0999 V2000
    0.3599    0.7813    0.4977 O   0  0  0  0  0  0  0  0  0  0  0  0
    3.8543   -2.5641    1.2154 S   0  0  0  0  0  0  0  0  0  0  0  0
   -6.4566   -1.0453    0.2207 Br  0  0  0  0  0  0  0  0  0  0  0  0
    3.2522    3.2731   -1.0245 C   0  0  0  0  0  0  0  0  0  0  0  0
    2.7786    0.8106   -0.7193 N   0  0  0  0  0  0  0  0  0  0  0  0
   -2.4582    0.0445    0.3598 C   0  0  0  0  0  0  0  0  0  0  0  0
    1.9659   -2.0351   -0.4233 N   0  0  0  0  0  0  0  0  0  0  0  0
    4.1204    4.2534   -0.5798 C   0  0  0  0  0  0  0  0  0  0  0  0
    4.3721    0.3808    0.7834 N   0  0  0  0  0  0  0  0  0  0  0  0
   -2.0026   -0.2262   -0.9306 C   0  0  0  0  0  0  0  0  0  0  0  0
   -0.6937   -0.0087   -1.3652 N   0  0  0  0  0  0  0  0  0  0  0  0
   -3.7827   -0.2005    0.6944 C   0  0  0  0  0  0  0  0  0  0  0  0
    3.3788   -0.1076    0.0917 C   0  0  0  0  0  0  0  0  0  0  0  0
    2.7834   -3.8199    0.7704 C   0  0  0  0  0  0  0  0  0  0  0  0
    2.9712   -1.4922    0.1917 C   0  0  0  0  0  0  0  0  0  0  0  0
    5.3031    2.7053    0.8714 C   0  0  0  0  0  0  0  0  0  0  0  0
    3.4306    1.9978   -0.4998 C   0  0  0  0  0  0  0  0  0  0  0  0
    4.4351    1.7026    0.4362 C   0  0  0  0  0  0  0  0  0  0  0  0
   -2.8992   -0.7465   -1.8660 C   0  0  0  0  0  0  0  0  0  0  0  0
    0.3663    0.4680   -0.6731 C   0  0  0  0  0  0  0  0  0  0  0  0
    5.1319    3.9742    0.3539 C   0  0  0  0  0  0  0  0  0  0  0  0
    1.8517   -3.3513   -0.1029 C   0  0  0  0  0  0  0  0  0  0  0  0
   -4.2186   -0.9917   -1.5334 C   0  0  0  0  0  0  0  0  0  0  0  0
    1.6134    0.6298   -1.5353 C   0  0  0  0  0  0  0  0  0  0  0  0
   -4.6576   -0.7161   -0.2470 C   0  0  0  0  0  0  0  0  0  0  0  0
    2.4747    3.5015   -1.7422 H   0  0  0  0  0  0  0  0  0  0  0  0
   -1.8006    0.4440    1.1135 H   0  0  0  0  0  0  0  0  0  0  0  0
    4.0170    5.2612   -0.9600 H   0  0  0  0  0  0  0  0  0  0  0  0
   -0.5227   -0.2596   -2.3278 H   0  0  0  0  0  0  0  0  0  0  0  0
   -4.1138    0.0181    1.7007 H   0  0  0  0  0  0  0  0  0  0  0  0
    2.8861   -4.8181    1.1645 H   0  0  0  0  0  0  0  0  0  0  0  0
    6.0821    2.4913    1.5910 H   0  0  0  0  0  0  0  0  0  0  0  0
   -2.5675   -0.9653   -2.8737 H   0  0  0  0  0  0  0  0  0  0  0  0
    5.7888    4.7730    0.6715 H   0  0  0  0  0  0  0  0  0  0  0  0
    1.0589   -3.9421   -0.5373 H   0  0  0  0  0  0  0  0  0  0  0  0
   -4.8873   -1.3943   -2.2821 H   0  0  0  0  0  0  0  0  0  0  0  0
    1.4922    1.5140   -2.1636 H   0  0  0  0  0  0  0  0  0  0  0  0
    1.7441   -0.2201   -2.2038 H   0  0  0  0  0  0  0  0  0  0  0  0
  1 20  2  0
  2 14  1  0
  2 15  1  0
  3 25  1  0
  4  8  2  0
  4 17  1  0
  5 13  1  0
  5 17  1  0
  5 24  1  0
  6 10  2  0
  6 12  1  0
  7 15  2  0
  7 22  1  0
  8 21  1  0
  9 13  2  0
  9 18  1  0
 10 11  1  0
 10 19  1  0
 11 20  1  0
 12 25  2  0
 13 15  1  0
 14 22  2  0
 16 18  1  0
 16 21  2  0
 17 18  2  0
 19 23  2  0
 20 24  1  0
 23 25  1  0
  4 26  1  0
  6 27  1  0
  8 28  1  0
 11 29  1  0
 12 30  1  0
 14 31  1  0
 16 32  1  0
 19 33  1  0
 21 34  1  0
 22 35  1  0
 23 36  1  0
 24 37  1  0
 24 38  1  0
M  END
