
     RDKit          3D

 25 27  0  0  0  0  0  0  0  0999 V2000
    2.1255    0.8106    0.9861 C   0  0  0  0  0  0  0  0  0  0  0  0
   -1.0483   -2.7500   -0.1440 O   0  0  0  0  0  0  0  0  0  0  0  0
    2.1312   -0.7407    0.9923 C   0  0  0  0  0  0  0  0  0  0  0  0
   -1.0675    2.7876   -0.1662 O   0  0  0  0  0  0  0  0  0  0  0  0
    1.5073   -1.1020   -0.3803 C   0  0  2  0  0  0  0  0  0  0  0  0
    2.0816    0.0256   -1.2546 C   0  0  0  0  0  0  0  0  0  0  0  0
    1.4992    1.1561   -0.3894 C   0  0  1  0  0  0  0  0  0  0  0  0
    0.0592    0.7185   -0.3153 C   0  0  0  0  0  0  0  0  0  0  0  0
   -1.1192    1.4327   -0.1800 C   0  0  0  0  0  0  0  0  0  0  0  0
   -2.3066    0.7103   -0.0715 C   0  0  0  0  0  0  0  0  0  0  0  0
   -2.3015   -0.6807   -0.0658 C   0  0  0  0  0  0  0  0  0  0  0  0
   -1.1091   -1.3956   -0.1687 C   0  0  0  0  0  0  0  0  0  0  0  0
    0.0642   -0.6741   -0.3098 C   0  0  0  0  0  0  0  0  0  0  0  0
    1.5571    1.2370    1.8130 H   0  0  0  0  0  0  0  0  0  0  0  0
    3.1402    1.2081    1.0495 H   0  0  0  0  0  0  0  0  0  0  0  0
   -1.9329   -3.1164   -0.0407 H   0  0  0  0  0  0  0  0  0  0  0  0
    3.1489   -1.1300    1.0584 H   0  0  0  0  0  0  0  0  0  0  0  0
    1.5662   -1.1647    1.8227 H   0  0  0  0  0  0  0  0  0  0  0  0
   -1.9541    3.1490   -0.0629 H   0  0  0  0  0  0  0  0  0  0  0  0
    1.6918   -2.1249   -0.7032 H   0  0  0  0  0  0  0  0  0  0  0  0
    3.1739    0.0293   -1.2865 H   0  0  0  0  0  0  0  0  0  0  0  0
    1.6947    0.0202   -2.2752 H   0  0  0  0  0  0  0  0  0  0  0  0
    1.6763    2.1776   -0.7209 H   0  0  0  0  0  0  0  0  0  0  0  0
   -3.2543    1.2315    0.0134 H   0  0  0  0  0  0  0  0  0  0  0  0
   -3.2452   -1.2080    0.0236 H   0  0  0  0  0  0  0  0  0  0  0  0
  1  3  1  0
  1  7  1  0
  2 12  1  0
  3  5  1  0
  4  9  1  0
  5  6  1  0
  5 13  1  0
  6  7  1  0
  7  8  1  0
  8  9  1  0
  8 13  2  0
  9 10  2  0
 10 11  1  0
 11 12  2  0
 12 13  1  0
  1 14  1  0
  1 15  1  0
  2 16  1  0
  3 17  1  0
  3 18  1  0
  4 19  1  0
  5 20  1  6
  6 21  1  0
  6 22  1  0
  7 23  1  6
 10 24  1  0
 11 25  1  0
M  END
