
     RDKit          3D

 22 23  0  0  0  0  0  0  0  0999 V2000
    2.7804   -1.9340   -0.0161 O   0  0  0  0  0  0  0  0  0  0  0  0
    2.7830   -0.7259    0.0311 C   0  0  0  0  0  0  0  0  0  0  0  0
    1.9576    0.1284   -0.9118 C   0  0  2  0  0  0  0  0  0  0  0  0
    1.9886    1.6255   -0.7614 C   0  0  0  0  0  0  0  0  0  0  0  0
    0.4944    2.2108   -0.2826 S   0  0  0  0  0  0  0  0  0  0  0  0
   -0.5305    0.7811   -0.9205 C   0  0  1  0  0  0  0  0  0  0  0  0
    0.4800   -0.3752   -0.9313 C   0  0  2  0  0  0  0  0  0  0  0  0
   -0.1804   -0.9326    0.3530 C   0  0  2  0  0  0  0  0  0  0  0  0
    0.5143   -0.4725    1.4537 O   0  0  0  0  0  0  0  0  0  0  0  0
   -0.3987   -2.2803    0.3398 O   0  0  0  0  0  0  0  0  0  0  0  0
   -1.4108    0.0008    0.0424 C   0  0  1  0  0  0  0  0  0  0  0  0
   -2.1351    0.8790    1.4008 Cl  0  0  0  0  0  0  0  0  0  0  0  0
   -2.6892   -0.8586   -0.8324 Cl  0  0  0  0  0  0  0  0  0  0  0  0
    3.5656   -0.0386    0.8465 O   0  0  0  0  0  0  0  0  0  0  0  0
    2.3835   -0.1118   -1.8936 H   0  0  0  0  0  0  0  0  0  0  0  0
    2.3549    2.1927   -1.6073 H   0  0  0  0  0  0  0  0  0  0  0  0
   -0.9835    1.1150   -1.8510 H   0  0  0  0  0  0  0  0  0  0  0  0
    0.3110   -1.0535   -1.7668 H   0  0  0  0  0  0  0  0  0  0  0  0
   -0.0023   -0.5736    2.2648 H   0  0  0  0  0  0  0  0  0  0  0  0
   -1.0035   -2.5405    1.0464 H   0  0  0  0  0  0  0  0  0  0  0  0
    4.0913   -0.6575    1.3758 H   0  0  0  0  0  0  0  0  0  0  0  0
    0.3304    1.9151    1.0250 H   0  0  0  0  0  0  0  0  0  0  0  0
 11 12  1  1
  5  4  2  0
  5  6  1  0
  4  3  1  0
  1  2  2  0
 11  6  1  0
 11 13  1  0
 11  8  1  0
  6  7  1  0
  8  9  1  1
  3  2  1  0
  3  7  1  0
  2 14  1  0
  8  7  1  0
  8 10  1  0
  3 15  1  6
  4 16  1  0
  6 17  1  6
  7 18  1  6
  9 19  1  0
 10 20  1  0
 14 21  1  0
  5 22  1  1
M  END
