
     RDKit          3D

 22 23  0  0  0  0  0  0  0  0999 V2000
    4.2414    0.6891   -0.0150 C   0  0  0  0  0  0  0  0  0  0  0  0
    2.9640    0.0183   -0.0710 N   0  0  0  0  0  0  0  0  0  0  0  0
    1.8228    0.6374    0.2813 C   0  0  0  0  0  0  0  0  0  0  0  0
    0.5969   -0.1745    0.1994 C   0  0  0  0  0  0  0  0  0  0  0  0
   -0.6864    0.2946    0.0956 C   0  0  0  0  0  0  0  0  0  0  0  0
   -1.6550   -0.7570    0.0394 C   0  0  0  0  0  0  0  0  0  0  0  0
   -1.0944   -1.9934    0.1105 C   0  0  0  0  0  0  0  0  0  0  0  0
    0.6087   -1.9046    0.2437 S   0  0  0  0  0  0  0  0  0  0  0  0
   -2.9754   -0.5190   -0.0704 O   0  0  0  0  0  0  0  0  0  0  0  0
   -3.3206    0.8259    0.2530 C   0  0  0  0  0  0  0  0  0  0  0  0
   -2.3730    1.7932   -0.4147 C   0  0  0  0  0  0  0  0  0  0  0  0
   -1.0319    1.5855    0.0324 O   0  0  0  0  0  0  0  0  0  0  0  0
    1.7935    1.7997    0.6644 O   0  0  0  0  0  0  0  0  0  0  0  0
    4.3188    1.4964   -0.7457 H   0  0  0  0  0  0  0  0  0  0  0  0
    4.4209    1.1049    0.9754 H   0  0  0  0  0  0  0  0  0  0  0  0
    5.0189   -0.0400   -0.2248 H   0  0  0  0  0  0  0  0  0  0  0  0
    2.9249   -0.8584   -0.5646 H   0  0  0  0  0  0  0  0  0  0  0  0
   -1.6004   -2.9465    0.1079 H   0  0  0  0  0  0  0  0  0  0  0  0
   -4.3346    0.9906   -0.1070 H   0  0  0  0  0  0  0  0  0  0  0  0
   -3.3106    0.9643    1.3390 H   0  0  0  0  0  0  0  0  0  0  0  0
   -2.4192    1.6878   -1.5031 H   0  0  0  0  0  0  0  0  0  0  0  0
   -2.6356    2.8167   -0.1544 H   0  0  0  0  0  0  0  0  0  0  0  0
 10  9  1  0
 10 11  1  0
  9  6  1  0
  6  5  1  0
  6  7  2  0
 12  5  1  0
 12 11  1  0
  5  4  2  0
  7  8  1  0
  2  1  1  0
  2  3  1  0
  4  8  1  0
  4  3  1  0
  3 13  2  0
  1 14  1  0
  1 15  1  0
  1 16  1  0
  2 17  1  0
  7 18  1  0
 10 19  1  0
 10 20  1  0
 11 21  1  0
 11 22  1  0
M  END
