
     RDKit          3D

 35 36  0  0  0  0  0  0  0  0999 V2000
    0.9672   -0.4186    1.3535 N   0  0  0  0  0  0  0  0  0  0  0  0
    1.5443    0.8515    1.5258 C   0  0  0  0  0  0  0  0  0  0  0  0
    2.0404    1.1674    2.7368 N   0  0  0  0  0  0  0  0  0  0  0  0
    1.9731    0.3183    3.7444 C   0  0  0  0  0  0  0  0  0  0  0  0
    1.3810   -0.9759    3.6096 C   0  0  0  0  0  0  0  0  0  0  0  0
    0.9062   -1.2915    2.3907 C   0  0  0  0  0  0  0  0  0  0  0  0
    1.5675    1.6244    0.5780 O   0  0  0  0  0  0  0  0  0  0  0  0
    2.4811    0.6887    4.9172 N   0  0  0  0  0  0  0  0  0  0  0  0
    0.4878   -0.8352    0.0512 C   0  0  1  0  0  0  0  0  0  0  0  0
   -0.5778    0.0726   -0.5915 C   0  0  2  0  0  0  0  0  0  0  0  0
   -1.6825   -0.7741   -0.9052 O   0  0  0  0  0  0  0  0  0  0  0  0
    0.0949    0.5831   -1.8790 C   0  0  1  0  0  0  0  0  0  0  0  0
    1.1962   -0.4479   -2.1192 C   0  0  2  0  0  0  0  0  0  0  0  0
    1.5629   -0.9238   -0.8361 O   0  0  0  0  0  0  0  0  0  0  0  0
   -0.7374    0.6480   -2.9973 O   0  0  0  0  0  0  0  0  0  0  0  0
    2.4005    0.1424   -2.8095 C   0  0  0  0  0  0  0  0  0  0  0  0
    3.3227   -0.8815   -3.0940 O   0  0  0  0  0  0  0  0  0  0  0  0
   -3.1385   -0.1696   -1.1642 P   0  0  1  0  0  0  0  0  0  0  0  0
   -3.2191    1.2872   -1.3909 O   0  0  0  0  0  0  0  0  0  0  0  0
   -3.5822   -1.1493   -2.3396 O   0  0  0  0  0  0  0  0  0  0  0  0
   -4.0115   -0.5528    0.1180 O   0  0  0  0  0  0  0  0  0  0  0  0
    1.3240   -1.6730    4.4312 H   0  0  0  0  0  0  0  0  0  0  0  0
    0.4530   -2.2518    2.1860 H   0  0  0  0  0  0  0  0  0  0  0  0
    2.9013    1.5966    5.0233 H   0  0  0  0  0  0  0  0  0  0  0  0
    2.4371    0.0905    5.7233 H   0  0  0  0  0  0  0  0  0  0  0  0
    0.0386   -1.8209    0.2110 H   0  0  0  0  0  0  0  0  0  0  0  0
   -0.8929    0.8806    0.0698 H   0  0  0  0  0  0  0  0  0  0  0  0
    0.5441    1.5534   -1.6529 H   0  0  0  0  0  0  0  0  0  0  0  0
    0.7882   -1.2707   -2.7256 H   0  0  0  0  0  0  0  0  0  0  0  0
   -1.2648    1.4517   -2.9462 H   0  0  0  0  0  0  0  0  0  0  0  0
    2.0482    0.6397   -3.7225 H   0  0  0  0  0  0  0  0  0  0  0  0
    2.8293    0.9179   -2.1606 H   0  0  0  0  0  0  0  0  0  0  0  0
    4.0743   -0.4907   -3.5482 H   0  0  0  0  0  0  0  0  0  0  0  0
   -4.5089   -1.0607   -2.6007 H   0  0  0  0  0  0  0  0  0  0  0  0
   -4.0381   -1.4923    0.3438 H   0  0  0  0  0  0  0  0  0  0  0  0
  1  2  1  0
  1  6  1  0
  1  9  1  0
  2  3  1  0
  2  7  2  0
  3  4  2  0
  4  5  1  0
  4  8  1  0
  5  6  2  0
  5 22  1  0
  6 23  1  0
  8 24  1  0
  8 25  1  0
  9 10  1  0
  9 14  1  0
  9 26  1  1
 10 11  1  0
 10 12  1  0
 10 27  1  1
 18 11  1  1
 12 13  1  0
 12 15  1  0
 12 28  1  1
 13 14  1  0
 13 16  1  0
 13 29  1  6
 15 30  1  0
 16 17  1  0
 16 31  1  0
 16 32  1  0
 17 33  1  0
 18 19  2  0
 18 20  1  0
 18 21  1  0
 20 34  1  0
 21 35  1  0
M  END
