
     RDKit          3D

 39 41  0  0  0  0  0  0  0  0999 V2000
    0.4267    0.0268    7.1846 C   0  0  0  0  0  0  0  0  0  0  0  0
    1.0122   -0.1619    8.5379 C   0  0  0  0  0  0  0  0  0  0  0  0
    1.0000    0.6974    6.0715 C   0  0  0  0  0  0  0  0  0  0  0  0
    0.0641    0.5833    5.1011 C   0  0  0  0  0  0  0  0  0  0  0  0
   -0.9821   -0.0960    5.5826 O   0  0  0  0  0  0  0  0  0  0  0  0
   -0.7505   -0.4417    6.8846 N   0  0  0  0  0  0  0  0  0  0  0  0
    0.0086    1.0404    3.6903 C   0  0  0  0  0  0  0  0  0  0  0  0
   -0.0520   -0.1169    2.6921 C   0  0  0  0  0  0  0  0  0  0  0  0
   -0.0581    0.4058    1.2730 C   0  0  0  0  0  0  0  0  0  0  0  0
   -0.1716   -0.7231    0.3953 O   0  0  0  0  0  0  0  0  0  0  0  0
   -0.1352   -0.4442   -0.9166 C   0  0  0  0  0  0  0  0  0  0  0  0
    1.0701   -0.4013   -1.6130 C   0  0  0  0  0  0  0  0  0  0  0  0
    2.5318   -0.6855   -0.7442 Cl  0  0  0  0  0  0  0  0  0  0  0  0
    1.1145   -0.1640   -2.9757 C   0  0  0  0  0  0  0  0  0  0  0  0
   -0.0712    0.0515   -3.6693 C   0  0  0  0  0  0  0  0  0  0  0  0
   -1.2887    0.0232   -2.9955 C   0  0  0  0  0  0  0  0  0  0  0  0
   -1.3086   -0.2143   -1.6361 C   0  0  0  0  0  0  0  0  0  0  0  0
   -2.8109   -0.2647   -0.7927 Cl  0  0  0  0  0  0  0  0  0  0  0  0
   -0.0652    0.2991   -5.1165 C   0  0  0  0  0  0  0  0  0  0  0  0
   -1.0921    0.5027   -5.8255 N   0  0  0  0  0  0  0  0  0  0  0  0
   -0.6314    0.6924   -7.1929 C   0  0  0  0  0  0  0  0  0  0  0  0
    0.9002    0.5601   -7.1093 C   0  0  0  0  0  0  0  0  0  0  0  0
    1.1355    0.3025   -5.7131 O   0  0  0  0  0  0  0  0  0  0  0  0
    1.2196    0.8019    9.0029 H   0  0  0  0  0  0  0  0  0  0  0  0
    0.3381   -0.7196    9.1849 H   0  0  0  0  0  0  0  0  0  0  0  0
    1.9571   -0.7017    8.4744 H   0  0  0  0  0  0  0  0  0  0  0  0
    1.9583    1.1863    6.0144 H   0  0  0  0  0  0  0  0  0  0  0  0
   -0.8576    1.6947    3.5541 H   0  0  0  0  0  0  0  0  0  0  0  0
    0.8940    1.6515    3.5074 H   0  0  0  0  0  0  0  0  0  0  0  0
    0.8073   -0.7759    2.8358 H   0  0  0  0  0  0  0  0  0  0  0  0
   -0.9524   -0.7117    2.8600 H   0  0  0  0  0  0  0  0  0  0  0  0
   -0.9001    1.0875    1.1153 H   0  0  0  0  0  0  0  0  0  0  0  0
    0.8646    0.9537    1.0584 H   0  0  0  0  0  0  0  0  0  0  0  0
    2.0696   -0.1453   -3.4809 H   0  0  0  0  0  0  0  0  0  0  0  0
   -2.2111    0.1901   -3.5344 H   0  0  0  0  0  0  0  0  0  0  0  0
   -1.0788   -0.0582   -7.8476 H   0  0  0  0  0  0  0  0  0  0  0  0
   -0.9448    1.6694   -7.5650 H   0  0  0  0  0  0  0  0  0  0  0  0
    1.2956   -0.2734   -7.6891 H   0  0  0  0  0  0  0  0  0  0  0  0
    1.4296    1.4702   -7.3904 H   0  0  0  0  0  0  0  0  0  0  0  0
  1  2  1  0
  1  3  1  0
  1  6  2  0
  2 24  1  0
  2 25  1  0
  2 26  1  0
  3  4  2  0
  3 27  1  0
  4  5  1  0
  4  7  1  0
  5  6  1  0
  7  8  1  0
  7 28  1  0
  7 29  1  0
  8  9  1  0
  8 30  1  0
  8 31  1  0
  9 10  1  0
  9 32  1  0
  9 33  1  0
 10 11  1  0
 11 12  2  0
 11 17  1  0
 12 13  1  0
 12 14  1  0
 14 15  2  0
 14 34  1  0
 15 16  1  0
 15 19  1  0
 16 17  2  0
 16 35  1  0
 17 18  1  0
 19 20  2  0
 19 23  1  0
 20 21  1  0
 21 22  1  0
 21 36  1  0
 21 37  1  0
 22 23  1  0
 22 38  1  0
 22 39  1  0
M  END
