
     RDKit          3D

 55 58  0  0  0  0  0  0  0  0999 V2000
   -1.5298    1.8469    1.6655 N   0  0  0  0  0  0  0  0  0  0  0  0
    1.7509    2.2871    0.7991 N   0  0  0  0  0  0  0  0  0  0  0  0
   -2.8646    0.0215    0.7961 C   0  0  0  0  0  0  0  0  0  0  0  0
   -2.0366    1.0975    0.5781 C   0  0  0  0  0  0  0  0  0  0  0  0
    1.0696    1.1804    1.1962 C   0  0  0  0  0  0  0  0  0  0  0  0
    1.3610    0.1037    0.4097 C   0  0  0  0  0  0  0  0  0  0  0  0
    4.7933   -0.6971    0.1330 C   0  0  0  0  0  0  0  0  0  0  0  0
    6.6166   -0.9532   -1.9425 C   0  0  0  0  0  0  0  0  0  0  0  0
    2.4717    1.8979   -0.2186 C   0  0  0  0  0  0  0  0  0  0  0  0
   -4.2145   -1.9137   -0.0999 C   0  0  0  0  0  0  0  0  0  0  0  0
   -4.8711   -4.2366   -0.6825 C   0  0  0  0  0  0  0  0  0  0  0  0
   -4.2782   -2.9389   -1.2023 C   0  0  0  0  0  0  0  0  0  0  0  0
   -0.1625    1.2484    2.4186 S   0  0  2  0  0  0  0  0  0  0  0  0
   -0.4672   -0.1188    2.7983 O   0  0  0  0  0  0  0  0  0  0  0  0
   -3.3270   -0.7514   -0.2769 C   0  0  0  0  0  0  0  0  0  0  0  0
   -6.0801   -4.0020    0.0058 O   0  0  0  0  0  0  0  0  0  0  0  0
   -5.8825   -3.2526    1.1766 C   0  0  0  0  0  0  0  0  0  0  0  0
   -4.9568   -2.0931    0.9955 C   0  0  0  0  0  0  0  0  0  0  0  0
   -2.8940   -0.3629   -1.5370 C   0  0  0  0  0  0  0  0  0  0  0  0
   -2.1066    0.6859   -1.7688 N   0  0  0  0  0  0  0  0  0  0  0  0
   -1.6815    1.3963   -0.7526 C   0  0  0  0  0  0  0  0  0  0  0  0
   -0.8921    2.4471   -0.9453 O   0  0  0  0  0  0  0  0  0  0  0  0
   -0.4306    2.7118   -2.2626 C   0  0  0  0  0  0  0  0  0  0  0  0
    3.3921    2.7482   -1.0118 C   0  0  0  0  0  0  0  0  0  0  0  0
    2.2600    0.5768   -0.4912 N   0  0  0  0  0  0  0  0  0  0  0  0
    4.3707   -0.5066   -1.1789 C   0  0  0  0  0  0  0  0  0  0  0  0
    5.2936   -0.6325   -2.2124 C   0  0  0  0  0  0  0  0  0  0  0  0
    7.0336   -1.1411   -0.6315 C   0  0  0  0  0  0  0  0  0  0  0  0
    6.1184   -1.0099    0.4045 C   0  0  0  0  0  0  0  0  0  0  0  0
   -1.4512    2.8460    1.5001 H   0  0  0  0  0  0  0  0  0  0  0  0
   -3.1389   -0.2184    1.8149 H   0  0  0  0  0  0  0  0  0  0  0  0
    1.0215   -0.9185    0.4162 H   0  0  0  0  0  0  0  0  0  0  0  0
    2.3673   -1.1274   -1.6361 H   0  0  0  0  0  0  0  0  0  0  0  0
    2.8673    0.3302   -2.4625 H   0  0  0  0  0  0  0  0  0  0  0  0
    7.3233   -1.0463   -2.7568 H   0  0  0  0  0  0  0  0  0  0  0  0
   -5.0959   -4.9167   -1.5048 H   0  0  0  0  0  0  0  0  0  0  0  0
   -4.1443   -4.7356   -0.0267 H   0  0  0  0  0  0  0  0  0  0  0  0
   -4.8648   -2.5640   -2.0476 H   0  0  0  0  0  0  0  0  0  0  0  0
   -3.2774   -3.1422   -1.5928 H   0  0  0  0  0  0  0  0  0  0  0  0
   -6.8635   -2.8906    1.4967 H   0  0  0  0  0  0  0  0  0  0  0  0
   -5.5062   -3.8873    1.9951 H   0  0  0  0  0  0  0  0  0  0  0  0
   -4.9332   -1.3901    1.8207 H   0  0  0  0  0  0  0  0  0  0  0  0
   -3.1995   -0.9131   -2.4191 H   0  0  0  0  0  0  0  0  0  0  0  0
    0.2666    3.5402   -2.1711 H   0  0  0  0  0  0  0  0  0  0  0  0
    0.0813    1.8489   -2.6905 H   0  0  0  0  0  0  0  0  0  0  0  0
   -1.2480    2.9965   -2.9260 H   0  0  0  0  0  0  0  0  0  0  0  0
    4.3899    2.3142   -1.0809 H   0  0  0  0  0  0  0  0  0  0  0  0
    3.0268    2.8928   -2.0302 H   0  0  0  0  0  0  0  0  0  0  0  0
    3.4772    3.7249   -0.5424 H   0  0  0  0  0  0  0  0  0  0  0  0
    4.9772   -0.4744   -3.2368 H   0  0  0  0  0  0  0  0  0  0  0  0
    8.0664   -1.3829   -0.4171 H   0  0  0  0  0  0  0  0  0  0  0  0
    6.4345   -1.1538    1.4295 H   0  0  0  0  0  0  0  0  0  0  0  0
    2.9310   -0.2021   -1.5125 C   0  0  0  0  0  0  0  0  0  0  0  0
    0.1979    2.2395    3.4135 O   0  0  0  0  0  0  0  0  0  0  0  0
    4.0949   -0.6013    0.9556 H   0  0  0  0  0  0  0  0  0  0  0  0
 14 13  2  0
 54 13  2  0
 13  1  1  6
 13  5  1  0
  1  4  1  0
  5  2  1  0
  5  6  2  0
  2  9  2  0
  6 25  1  0
  4  3  2  0
  4 21  1  0
 22 23  1  0
 22 21  1  0
  9 25  1  0
  9 24  1  0
 25 53  1  0
  7 29  2  0
  7 26  1  0
 29 28  1  0
  3 15  1  0
 21 20  2  0
 53 26  1  0
 26 27  2  0
 28  8  2  0
 20 19  1  0
 15 19  2  0
 15 10  1  0
 27  8  1  0
 18 10  2  0
 18 17  1  0
 10 12  1  0
 17 16  1  0
 12 11  1  0
 16 11  1  0
  1 30  1  0
  3 31  1  0
  6 32  1  0
 53 33  1  0
 53 34  1  0
  7 55  1  0
  8 35  1  0
 11 36  1  0
 11 37  1  0
 12 38  1  0
 12 39  1  0
 17 40  1  0
 17 41  1  0
 18 42  1  0
 19 43  1  0
 23 44  1  0
 23 45  1  0
 23 46  1  0
 24 47  1  0
 24 48  1  0
 24 49  1  0
 27 50  1  0
 28 51  1  0
 29 52  1  0
M  END
