
     RDKit          3D

 29 29  0  0  0  0  0  0  0  0999 V2000
   -2.8863   -0.6871   -1.0628 C   0  0  0  0  0  0  0  0  0  0  0  0
   -4.0176   -0.1549   -1.6644 C   0  0  0  0  0  0  0  0  0  0  0  0
   -4.8387    0.7151   -0.9569 C   0  0  0  0  0  0  0  0  0  0  0  0
   -4.5226    1.0479    0.3531 C   0  0  0  0  0  0  0  0  0  0  0  0
   -3.3887    0.5137    0.9521 C   0  0  0  0  0  0  0  0  0  0  0  0
   -2.5621   -0.3592    0.2520 C   0  0  0  0  0  0  0  0  0  0  0  0
   -1.3182   -0.9124    0.8894 C   0  0  0  0  0  0  0  0  0  0  0  0
   -0.1607   -0.1447    0.4656 N   0  0  0  0  0  0  0  0  0  0  0  0
    1.0946   -0.5178    0.7482 C   0  0  0  0  0  0  0  0  0  0  0  0
    1.3561   -1.5512    1.3499 O   0  0  0  0  0  0  0  0  0  0  0  0
    2.1822    0.4403    0.2868 C   0  0  1  0  0  0  0  0  0  0  0  0
    2.8357    1.0800    1.5113 C   0  0  0  0  0  0  0  0  0  0  0  0
    3.1741   -0.3352   -0.5787 C   0  0  0  0  0  0  0  0  0  0  0  0
    4.3979    0.8169   -1.2909 S   0  0  0  0  0  0  0  0  0  0  0  0
   -2.2517   -1.3680   -1.6178 H   0  0  0  0  0  0  0  0  0  0  0  0
   -4.2601   -0.4211   -2.6850 H   0  0  0  0  0  0  0  0  0  0  0  0
   -5.7223    1.1293   -1.4247 H   0  0  0  0  0  0  0  0  0  0  0  0
   -5.1584    1.7230    0.9111 H   0  0  0  0  0  0  0  0  0  0  0  0
   -3.1463    0.7761    1.9751 H   0  0  0  0  0  0  0  0  0  0  0  0
   -1.4113   -0.8871    1.9785 H   0  0  0  0  0  0  0  0  0  0  0  0
   -1.1794   -1.9572    0.6048 H   0  0  0  0  0  0  0  0  0  0  0  0
   -0.3188    0.7337   -0.0010 H   0  0  0  0  0  0  0  0  0  0  0  0
    1.7329    1.2288   -0.3245 H   0  0  0  0  0  0  0  0  0  0  0  0
    3.3383    0.3305    2.1231 H   0  0  0  0  0  0  0  0  0  0  0  0
    3.5743    1.8259    1.2194 H   0  0  0  0  0  0  0  0  0  0  0  0
    2.0926    1.5832    2.1306 H   0  0  0  0  0  0  0  0  0  0  0  0
    3.6873   -1.0899    0.0161 H   0  0  0  0  0  0  0  0  0  0  0  0
    2.6512   -0.8339   -1.3950 H   0  0  0  0  0  0  0  0  0  0  0  0
    5.0581   -0.0799   -2.0305 H   0  0  0  0  0  0  0  0  0  0  0  0
  3  2  1  0
  3  4  2  0
  2  1  2  0
  4  5  1  0
  1  6  1  0
  5  6  2  0
  6  7  1  0
  7  8  1  0
  8  9  1  0
  9 10  2  0
  9 11  1  0
 14 13  1  0
 13 11  1  0
 11 12  1  0
  1 15  1  0
  2 16  1  0
  3 17  1  0
  4 18  1  0
  5 19  1  0
  7 20  1  0
  7 21  1  0
  8 22  1  0
 11 23  1  6
 12 24  1  0
 12 25  1  0
 12 26  1  0
 13 27  1  0
 13 28  1  0
 14 29  1  0
M  END
