
     RDKit          3D

 65 69  0  0  0  0  0  0  0  0999 V2000
   -1.2668   -0.2884    0.0621 C   0  0  0  0  0  0  0  0  0  0  0  0
    2.8490    3.0602   -1.0330 S   0  0  1  0  0  0  0  0  0  0  0  0
    3.5423    3.8830   -0.0560 O   0  0  0  0  0  0  0  0  0  0  0  0
   -0.3078    1.3380   -1.3970 C   0  0  0  0  0  0  0  0  0  0  0  0
    0.1980    2.7554   -1.5593 C   0  0  0  0  0  0  0  0  0  0  0  0
    1.2619    3.0514   -0.6081 N   0  0  0  0  0  0  0  0  0  0  0  0
    0.3646    1.2942    0.8994 C   0  0  2  0  0  0  0  0  0  0  0  0
    0.8902    2.7363    0.7573 C   0  0  0  0  0  0  0  0  0  0  0  0
   -0.7177    1.0579   -0.0311 N   0  0  0  0  0  0  0  0  0  0  0  0
    2.9065    3.4063   -2.4428 O   0  0  0  0  0  0  0  0  0  0  0  0
    4.0121    1.0337    0.3512 C   0  0  0  0  0  0  0  0  0  0  0  0
    3.4466    1.4026   -0.8387 C   0  0  0  0  0  0  0  0  0  0  0  0
    4.1799   -1.2572   -0.4744 C   0  0  0  0  0  0  0  0  0  0  0  0
    3.6109   -0.8288   -1.6976 C   0  0  0  0  0  0  0  0  0  0  0  0
    3.2505    0.4744   -1.8836 C   0  0  0  0  0  0  0  0  0  0  0  0
    4.3886   -0.3101    0.5593 C   0  0  0  0  0  0  0  0  0  0  0  0
    4.9644   -0.7352    1.7782 C   0  0  0  0  0  0  0  0  0  0  0  0
    4.5471   -2.6042   -0.2640 C   0  0  0  0  0  0  0  0  0  0  0  0
    5.3135   -2.0418    1.9682 C   0  0  0  0  0  0  0  0  0  0  0  0
    5.0969   -2.9716    0.9314 C   0  0  0  0  0  0  0  0  0  0  0  0
   -0.1061    1.1881    2.3404 C   0  0  0  0  0  0  0  0  0  0  0  0
   -1.1999    1.4988    2.7324 O   0  0  0  0  0  0  0  0  0  0  0  0
    0.8759    0.7787    3.1320 O   0  0  0  0  0  0  0  0  0  0  0  0
   -8.7714   -2.7624   -0.3491 C   0  0  0  0  0  0  0  0  0  0  0  0
   -5.5239   -1.0365   -0.1247 N   0  0  0  0  0  0  0  0  0  0  0  0
   -6.8580   -1.3228   -0.0245 C   0  0  0  0  0  0  0  0  0  0  0  0
   -7.4226   -2.5145   -0.5193 C   0  0  0  0  0  0  0  0  0  0  0  0
   -4.6402   -1.9657   -0.8099 C   0  0  0  0  0  0  0  0  0  0  0  0
   -7.7726   -0.4550    0.6064 C   0  0  0  0  0  0  0  0  0  0  0  0
   -5.0779    0.3514   -0.1810 C   0  0  0  0  0  0  0  0  0  0  0  0
   -2.6953   -0.3887   -0.4592 C   0  0  1  0  0  0  0  0  0  0  0  0
   -3.1987   -1.8212   -0.3478 C   0  0  0  0  0  0  0  0  0  0  0  0
   -9.6265   -1.9452    0.2560 N   0  0  0  0  0  0  0  0  0  0  0  0
   -9.1003   -0.8123    0.7163 C   0  0  0  0  0  0  0  0  0  0  0  0
   -3.6494    0.5160    0.3056 C   0  0  0  0  0  0  0  0  0  0  0  0
   -0.6264   -1.0119   -0.4700 H   0  0  0  0  0  0  0  0  0  0  0  0
   -1.2776   -0.6088    1.1062 H   0  0  0  0  0  0  0  0  0  0  0  0
   -1.1640    1.2105   -2.0598 H   0  0  0  0  0  0  0  0  0  0  0  0
    0.4650    0.6291   -1.7382 H   0  0  0  0  0  0  0  0  0  0  0  0
   -0.6085    3.4669   -1.3649 H   0  0  0  0  0  0  0  0  0  0  0  0
    0.5380    2.9244   -2.5778 H   0  0  0  0  0  0  0  0  0  0  0  0
    1.1995    0.5887    0.7569 H   0  0  0  0  0  0  0  0  0  0  0  0
    0.0969    3.4308    1.0471 H   0  0  0  0  0  0  0  0  0  0  0  0
    1.7264    2.9042    1.4342 H   0  0  0  0  0  0  0  0  0  0  0  0
    4.1720    1.7513    1.1457 H   0  0  0  0  0  0  0  0  0  0  0  0
    3.4670   -1.5476   -2.4939 H   0  0  0  0  0  0  0  0  0  0  0  0
    2.8273    0.7890   -2.8278 H   0  0  0  0  0  0  0  0  0  0  0  0
    5.1268   -0.0135    2.5686 H   0  0  0  0  0  0  0  0  0  0  0  0
    4.3898   -3.3303   -1.0507 H   0  0  0  0  0  0  0  0  0  0  0  0
    5.7521   -2.3650    2.9020 H   0  0  0  0  0  0  0  0  0  0  0  0
    0.5868    0.7947    4.0572 H   0  0  0  0  0  0  0  0  0  0  0  0
   -6.8397   -3.2512   -1.0509 H   0  0  0  0  0  0  0  0  0  0  0  0
   -4.7017   -1.8263   -1.8987 H   0  0  0  0  0  0  0  0  0  0  0  0
   -4.9543   -2.9859   -0.5993 H   0  0  0  0  0  0  0  0  0  0  0  0
   -7.4689    0.4886    1.0339 H   0  0  0  0  0  0  0  0  0  0  0  0
   -5.1601    0.7175   -1.2142 H   0  0  0  0  0  0  0  0  0  0  0  0
   -5.7251    0.9770    0.4262 H   0  0  0  0  0  0  0  0  0  0  0  0
   -2.7259   -0.1052   -1.5194 H   0  0  0  0  0  0  0  0  0  0  0  0
   -2.5829   -2.5003   -0.9425 H   0  0  0  0  0  0  0  0  0  0  0  0
   -3.1237   -2.1515    0.6938 H   0  0  0  0  0  0  0  0  0  0  0  0
   -9.7822   -0.1304    1.2142 H   0  0  0  0  0  0  0  0  0  0  0  0
   -3.5953    0.2816    1.3735 H   0  0  0  0  0  0  0  0  0  0  0  0
   -3.3597    1.5615    0.1942 H   0  0  0  0  0  0  0  0  0  0  0  0
    5.5466   -4.6198    1.1993 Cl  0  0  0  0  0  0  0  0  0  0  0  0
   -9.1820   -3.6862   -0.7439 H   0  0  0  0  0  0  0  0  0  0  0  0
  1  9  1  0
  1 31  1  0
  1 36  1  0
  1 37  1  0
  2  3  2  0
  2  6  1  0
  2 10  2  0
  2 12  1  6
  4  5  1  0
  4  9  1  0
  4 38  1  0
  4 39  1  0
  5  6  1  0
  5 40  1  0
  5 41  1  0
  6  8  1  0
  7  8  1  0
  7  9  1  0
  7 21  1  0
  7 42  1  6
  8 43  1  0
  8 44  1  0
 11 12  2  0
 11 16  1  0
 11 45  1  0
 12 15  1  0
 13 14  1  0
 13 16  2  0
 13 18  1  0
 14 15  2  0
 14 46  1  0
 15 47  1  0
 16 17  1  0
 64 20  1  0
 17 19  2  0
 17 48  1  0
 18 20  2  0
 18 49  1  0
 19 20  1  0
 19 50  1  0
 21 22  2  0
 21 23  1  0
 23 51  1  0
 24 27  2  0
 24 33  1  0
 24 65  1  0
 25 26  1  0
 25 28  1  0
 25 30  1  0
 26 27  1  0
 26 29  2  0
 27 52  1  0
 28 32  1  0
 28 53  1  0
 28 54  1  0
 29 34  1  0
 29 55  1  0
 30 35  1  0
 30 56  1  0
 30 57  1  0
 31 32  1  0
 31 35  1  0
 31 58  1  6
 32 59  1  0
 32 60  1  0
 33 34  2  0
 34 61  1  0
 35 62  1  0
 35 63  1  0
M  END
