
     RDKit          3D

 21 22  0  0  0  0  0  0  0  0999 V2000
    3.3755    1.1241    0.2655 C   0  0  0  0  0  0  0  0  0  0  0  0
    1.2165    0.7387    0.2208 C   0  0  0  0  0  0  0  0  0  0  0  0
    1.4036   -0.6156    0.0001 C   0  0  0  0  0  0  0  0  0  0  0  0
    2.7365   -1.0594   -0.0843 C   0  0  0  0  0  0  0  0  0  0  0  0
   -0.6700   -0.3198    0.0674 C   0  0  0  0  0  0  0  0  0  0  0  0
   -1.1718    2.8220   -0.9191 C   0  0  0  0  0  0  0  0  0  0  0  0
    3.7052   -0.1478    0.0558 N   0  0  0  0  0  0  0  0  0  0  0  0
    2.1691    1.6564    0.3595 N   0  0  0  0  0  0  0  0  0  0  0  0
    3.0617   -2.3354   -0.2899 N   0  0  0  0  0  0  0  0  0  0  0  0
    0.2000   -1.2645   -0.0931 N   0  0  0  0  0  0  0  0  0  0  0  0
   -0.1369    0.9212    0.2706 N   0  0  0  0  0  0  0  0  0  0  0  0
   -2.5026   -0.6015    0.0447 Br  0  0  0  0  0  0  0  0  0  0  0  0
    4.2094    1.8094    0.3718 H   0  0  0  0  0  0  0  0  0  0  0  0
   -0.2802    2.9992   -1.5202 H   0  0  0  0  0  0  0  0  0  0  0  0
   -1.8519    2.1887   -1.4881 H   0  0  0  0  0  0  0  0  0  0  0  0
   -1.6625    3.7807   -0.7545 H   0  0  0  0  0  0  0  0  0  0  0  0
   -0.1351    2.8468    0.9733 H   0  0  0  0  0  0  0  0  0  0  0  0
   -1.6946    2.0576    1.0415 H   0  0  0  0  0  0  0  0  0  0  0  0
    4.0265   -2.6052   -0.3760 H   0  0  0  0  0  0  0  0  0  0  0  0
    2.3563   -3.0349   -0.4402 H   0  0  0  0  0  0  0  0  0  0  0  0
   -0.8128    2.2002    0.4186 C   0  0  0  0  0  0  0  0  0  0  0  0
  9  4  1  0
  4  7  1  0
  4  3  2  0
  7  1  2  0
 10  3  1  0
 10  5  2  0
  3  2  1  0
  1  8  1  0
  5 12  1  0
  5 11  1  0
  2  8  2  0
  2 11  1  0
 11 21  1  0
 21  6  1  0
  1 13  1  0
  6 14  1  0
  6 15  1  0
  6 16  1  0
 21 17  1  0
 21 18  1  0
  9 19  1  0
  9 20  1  0
M  END
