
     RDKit          3D

 51 55  0  0  0  0  0  0  0  0999 V2000
    5.9159   -2.2377   -1.1941 C   0  0  0  0  0  0  0  0  0  0  0  0
    4.5343   -2.4265   -0.6597 C   0  0  0  0  0  0  0  0  0  0  0  0
    3.9194   -3.6420   -0.5487 C   0  0  0  0  0  0  0  0  0  0  0  0
    2.6049   -3.7610   -0.0279 C   0  0  0  0  0  0  0  0  0  0  0  0
    1.9229   -2.6620    0.3768 C   0  0  0  0  0  0  0  0  0  0  0  0
    3.8050   -1.2885   -0.2345 C   0  0  0  0  0  0  0  0  0  0  0  0
    4.2537    2.8157   -0.1539 C   0  0  0  0  0  0  0  0  0  0  0  0
    4.3435    4.1959   -0.0706 C   0  0  0  0  0  0  0  0  0  0  0  0
    2.1601    2.8802    1.0165 C   0  0  0  0  0  0  0  0  0  0  0  0
    2.0793   -0.1916    0.5959 C   0  0  0  0  0  0  0  0  0  0  0  0
   -0.3005   -0.0088    0.3492 C   0  0  0  0  0  0  0  0  0  0  0  0
   -3.2191    1.6336   -0.8320 C   0  0  0  0  0  0  0  0  0  0  0  0
   -4.1413    2.4726   -1.4376 C   0  0  0  0  0  0  0  0  0  0  0  0
   -4.9545    0.0190   -0.4419 C   0  0  0  0  0  0  0  0  0  0  0  0
   -2.7512   -1.7660    0.4047 C   0  0  0  0  0  0  0  0  0  0  0  0
    2.5346   -1.4478    0.2698 N   0  0  0  0  0  0  0  0  0  0  0  0
    4.1557   -0.0176   -0.2359 N   0  0  0  0  0  0  0  0  0  0  0  0
    3.1030    0.6738    0.2687 C   0  0  0  0  0  0  0  0  0  0  0  0
    3.1591    2.1344    0.3858 C   0  0  0  0  0  0  0  0  0  0  0  0
    3.3421    4.9277    0.5546 C   0  0  0  0  0  0  0  0  0  0  0  0
    2.2517    4.2618    1.0974 C   0  0  0  0  0  0  0  0  0  0  0  0
    0.8113   -0.0145    1.1316 N   0  0  0  0  0  0  0  0  0  0  0  0
   -0.2633   -0.1249   -0.8556 O   0  0  0  0  0  0  0  0  0  0  0  0
   -1.5969    0.1891    1.1137 C   0  0  0  0  0  0  0  0  0  0  0  0
   -2.7153   -0.3995    0.4156 N   0  0  0  0  0  0  0  0  0  0  0  0
   -3.6203    0.4130   -0.2944 C   0  0  0  0  0  0  0  0  0  0  0  0
   -5.4724    2.0957   -1.5436 C   0  0  0  0  0  0  0  0  0  0  0  0
   -5.8704    0.8583   -1.0637 C   0  0  0  0  0  0  0  0  0  0  0  0
   -5.4495   -1.5541    0.1634 S   0  0  0  0  0  0  0  0  0  0  0  0
   -3.9211   -2.3976   -0.3016 C   0  0  0  0  0  0  0  0  0  0  0  0
    6.3550   -3.1899   -1.4855 H   0  0  0  0  0  0  0  0  0  0  0  0
    5.9158   -1.5791   -2.0639 H   0  0  0  0  0  0  0  0  0  0  0  0
    6.5645   -1.7771   -0.4475 H   0  0  0  0  0  0  0  0  0  0  0  0
    4.4414   -4.5371   -0.8615 H   0  0  0  0  0  0  0  0  0  0  0  0
    2.1353   -4.7302    0.0539 H   0  0  0  0  0  0  0  0  0  0  0  0
    0.9221   -2.6791    0.7827 H   0  0  0  0  0  0  0  0  0  0  0  0
    5.0385    2.2550   -0.6430 H   0  0  0  0  0  0  0  0  0  0  0  0
    5.1999    4.7016   -0.4973 H   0  0  0  0  0  0  0  0  0  0  0  0
    1.3036    2.3913    1.4572 H   0  0  0  0  0  0  0  0  0  0  0  0
   -2.1831    1.9402   -0.7905 H   0  0  0  0  0  0  0  0  0  0  0  0
   -3.8089    3.4203   -1.8389 H   0  0  0  0  0  0  0  0  0  0  0  0
    3.4119    6.0057    0.6197 H   0  0  0  0  0  0  0  0  0  0  0  0
    1.4655    4.8182    1.5908 H   0  0  0  0  0  0  0  0  0  0  0  0
    0.7051    0.0133    2.1363 H   0  0  0  0  0  0  0  0  0  0  0  0
   -1.5238   -0.2320    2.1174 H   0  0  0  0  0  0  0  0  0  0  0  0
   -1.7738    1.2566    1.2481 H   0  0  0  0  0  0  0  0  0  0  0  0
   -6.1927    2.7484   -2.0177 H   0  0  0  0  0  0  0  0  0  0  0  0
   -6.8974    0.5345   -1.1739 H   0  0  0  0  0  0  0  0  0  0  0  0
   -3.7877   -2.3540   -1.3853 H   0  0  0  0  0  0  0  0  0  0  0  0
   -4.0000   -3.4408   -0.0035 H   0  0  0  0  0  0  0  0  0  0  0  0
   -1.8809   -2.4221    0.9430 O   0  0  0  0  0  0  0  0  0  0  0  0
 27 13  1  0
 27 28  2  0
 13 12  2  0
 28 14  1  0
  8 20  1  0
  8  7  2  0
 20 21  2  0
 12 26  1  0
  7 19  1  0
 14 26  2  0
 14 29  1  0
 26 25  1  0
 21  9  1  0
 19  9  2  0
 19 18  1  0
 29 30  1  0
 24 25  1  0
 24 11  1  0
 25 15  1  0
 22 10  1  0
 22 11  1  0
 18 10  2  0
 18 17  1  0
 10 16  1  0
 11 23  2  0
 17  6  2  0
 15 30  1  0
 15 51  2  0
 16  6  1  0
 16  5  1  0
  6  2  1  0
  5  4  2  0
  2  1  1  0
  2  3  2  0
  4  3  1  0
  1 31  1  0
  1 32  1  0
  1 33  1  0
  3 34  1  0
  4 35  1  0
  5 36  1  0
  7 37  1  0
  8 38  1  0
  9 39  1  0
 12 40  1  0
 13 41  1  0
 20 42  1  0
 21 43  1  0
 22 44  1  0
 24 45  1  0
 24 46  1  0
 27 47  1  0
 28 48  1  0
 30 49  1  0
 30 50  1  0
M  END
