
     RDKit          3D

 17 17  0  0  0  0  0  0  0  0999 V2000
    0.6208    1.2363   -0.0708 C   0  0  0  0  0  0  0  0  0  0  0  0
   -0.7659    1.2000   -0.0645 C   0  0  0  0  0  0  0  0  0  0  0  0
    3.4401   -0.2692    1.5288 N   0  0  0  0  0  0  0  0  0  0  0  0
   -1.4104   -0.0270   -0.0211 C   0  0  0  0  0  0  0  0  0  0  0  0
    3.5987   -1.0477   -0.8205 O   0  0  0  0  0  0  0  0  0  0  0  0
   -0.6978   -1.2196    0.0174 C   0  0  0  0  0  0  0  0  0  0  0  0
    0.6854   -1.1791    0.0142 C   0  0  0  0  0  0  0  0  0  0  0  0
    1.3329    0.0487   -0.0289 C   0  0  0  0  0  0  0  0  0  0  0  0
    3.5160    1.4224   -0.4361 O   0  0  0  0  0  0  0  0  0  0  0  0
    3.1038    0.0812   -0.0473 S   0  0  1  0  0  0  0  0  0  0  0  0
   -3.2915   -0.0804   -0.0170 Br  0  0  0  0  0  0  0  0  0  0  0  0
    1.1258    2.1914   -0.1105 H   0  0  0  0  0  0  0  0  0  0  0  0
   -1.3238    2.1255   -0.0973 H   0  0  0  0  0  0  0  0  0  0  0  0
    4.3895   -0.6127    1.6408 H   0  0  0  0  0  0  0  0  0  0  0  0
    3.2699    0.5109    2.1553 H   0  0  0  0  0  0  0  0  0  0  0  0
   -1.2046   -2.1743    0.0482 H   0  0  0  0  0  0  0  0  0  0  0  0
    1.2436   -2.1052    0.0444 H   0  0  0  0  0  0  0  0  0  0  0  0
 11  4  1  0
  4  6  1  0
  6  7  2  0
  7  8  1  0
  8 10  1  0
 10  3  1  1
  5 10  2  0
 10  9  2  0
  1  8  2  0
  2  1  1  0
  4  2  2  0
  1 12  1  0
  2 13  1  0
  3 14  1  0
  3 15  1  0
  6 16  1  0
  7 17  1  0
M  END
