
     RDKit          3D

 16 17  0  0  0  0  0  0  0  0999 V2000
   -1.2168   -1.3463   -0.0252 C   0  0  0  0  0  0  0  0  0  0  0  0
    0.0550   -0.7213   -0.0008 C   0  0  0  0  0  0  0  0  0  0  0  0
    0.0497    0.6824    0.0198 C   0  0  0  0  0  0  0  0  0  0  0  0
    1.2648    1.3908    0.0452 C   0  0  0  0  0  0  0  0  0  0  0  0
    2.4459    0.6939    0.0494 C   0  0  0  0  0  0  0  0  0  0  0  0
    2.4513   -0.7156    0.0287 C   0  0  0  0  0  0  0  0  0  0  0  0
    1.2754   -1.4209    0.0040 C   0  0  0  0  0  0  0  0  0  0  0  0
   -2.3453   -0.7010   -0.0285 N   0  0  0  0  0  0  0  0  0  0  0  0
   -2.3504    0.6451   -0.0083 N   0  0  0  0  0  0  0  0  0  0  0  0
   -1.2267    1.2984    0.0140 C   0  0  0  0  0  0  0  0  0  0  0  0
   -1.2859   -2.4290   -0.0424 H   0  0  0  0  0  0  0  0  0  0  0  0
    1.2581    2.4731    0.0613 H   0  0  0  0  0  0  0  0  0  0  0  0
    3.3870    1.2271    0.0698 H   0  0  0  0  0  0  0  0  0  0  0  0
    3.3965   -1.2418    0.0332 H   0  0  0  0  0  0  0  0  0  0  0  0
    1.2768   -2.5032   -0.0117 H   0  0  0  0  0  0  0  0  0  0  0  0
   -1.3035    2.3806    0.0290 H   0  0  0  0  0  0  0  0  0  0  0  0
  4  5  2  0
  4  3  1  0
  5  6  1  0
 10  3  2  0
 10  9  1  0
  3  2  1  0
  9  8  2  0
  6  7  2  0
  2  7  1  0
  2  1  2  0
  8  1  1  0
  1 11  1  0
  4 12  1  0
  5 13  1  0
  6 14  1  0
  7 15  1  0
 10 16  1  0
M  END
