
     RDKit          3D

 32 31  0  0  0  0  0  0  0  0999 V2000
    1.3218    1.4859   -0.8713 N   0  0  0  0  0  0  0  0  0  0  0  0
    1.1734    0.3941    0.0807 C   0  0  1  0  0  0  0  0  0  0  0  0
    4.7973   -0.2844    0.2990 C   0  0  0  0  0  0  0  0  0  0  0  0
    5.0030   -1.4605    0.5368 O   0  0  0  0  0  0  0  0  0  0  0  0
   -0.1080   -0.4279   -0.0682 C   0  0  0  0  0  0  0  0  0  0  0  0
   -1.3731    0.3894    0.1516 C   0  0  0  0  0  0  0  0  0  0  0  0
   -2.6162   -0.4663   -0.0169 C   0  0  0  0  0  0  0  0  0  0  0  0
   -3.8098    0.3230    0.2385 N   0  0  0  0  0  0  0  0  0  0  0  0
   -5.0492   -0.1189    0.0754 C   0  0  0  0  0  0  0  0  0  0  0  0
   -5.2735   -1.3238   -0.4293 N   0  0  0  0  0  0  0  0  0  0  0  0
   -6.0753    0.6596    0.4027 N   0  0  0  0  0  0  0  0  0  0  0  0
    2.3891   -0.5236   -0.0258 C   0  0  0  0  0  0  0  0  0  0  0  0
    3.5944    0.2612    0.0792 N   0  0  0  0  0  0  0  0  0  0  0  0
    5.7724    0.6340    0.2454 O   0  0  0  0  0  0  0  0  0  0  0  0
    1.1380    1.1574   -1.8130 H   0  0  0  0  0  0  0  0  0  0  0  0
    0.6508    2.2191   -0.6844 H   0  0  0  0  0  0  0  0  0  0  0  0
    1.1830    0.8423    1.0805 H   0  0  0  0  0  0  0  0  0  0  0  0
   -0.1283   -0.8808   -1.0661 H   0  0  0  0  0  0  0  0  0  0  0  0
   -0.0869   -1.2560    0.6475 H   0  0  0  0  0  0  0  0  0  0  0  0
   -1.3602    0.8226    1.1566 H   0  0  0  0  0  0  0  0  0  0  0  0
   -1.4167    1.2210   -0.5565 H   0  0  0  0  0  0  0  0  0  0  0  0
   -2.6455   -0.8570   -1.0372 H   0  0  0  0  0  0  0  0  0  0  0  0
   -2.5810   -1.3211    0.6653 H   0  0  0  0  0  0  0  0  0  0  0  0
   -3.6913    1.2230    0.6774 H   0  0  0  0  0  0  0  0  0  0  0  0
   -4.5267   -1.9192   -0.7445 H   0  0  0  0  0  0  0  0  0  0  0  0
   -6.2110   -1.6558   -0.5795 H   0  0  0  0  0  0  0  0  0  0  0  0
   -5.9287    1.5184    0.9059 H   0  0  0  0  0  0  0  0  0  0  0  0
    2.3550   -1.2646    0.7734 H   0  0  0  0  0  0  0  0  0  0  0  0
    2.3546   -1.0715   -0.9765 H   0  0  0  0  0  0  0  0  0  0  0  0
    3.5203    1.2125   -0.2542 H   0  0  0  0  0  0  0  0  0  0  0  0
    6.6201    0.2007    0.4068 H   0  0  0  0  0  0  0  0  0  0  0  0
   -7.0190    0.3148    0.3598 H   0  0  0  0  0  0  0  0  0  0  0  0
 11  9  2  0
 10  9  1  0
  9  8  1  0
  8  7  1  0
  7  6  1  0
  6  5  1  0
  5  2  1  0
  1  2  1  0
  2 12  1  0
 12 13  1  0
 13  3  1  0
  3  4  2  0
  3 14  1  0
  1 15  1  0
  1 16  1  0
  2 17  1  1
  5 18  1  0
  5 19  1  0
  6 20  1  0
  6 21  1  0
  7 22  1  0
  7 23  1  0
  8 24  1  0
 10 25  1  0
 10 26  1  0
 11 27  1  0
 12 28  1  0
 12 29  1  0
 13 30  1  0
 14 31  1  0
 11 32  1  0
M  CHG  1  11   1
M  END
