
     RDKit          3D

 60 62  0  0  0  0  0  0  0  0999 V2000
   -1.5197   -0.4344   -0.0410 O   0  0  0  0  0  0  0  0  0  0  0  0
   -1.3053    0.7591   -0.1569 C   0  0  0  0  0  0  0  0  0  0  0  0
    0.0429    1.2994   -0.5781 C   0  0  0  0  0  0  0  0  0  0  0  0
    1.2101    0.5290    0.0258 C   0  0  0  0  0  0  0  0  0  0  0  0
    2.5493    1.0310   -0.4973 C   0  0  0  0  0  0  0  0  0  0  0  0
    3.7289    0.2687    0.0901 C   0  0  0  0  0  0  0  0  0  0  0  0
    5.0541    0.7706   -0.4585 C   0  0  0  0  0  0  0  0  0  0  0  0
    6.1511   -0.0059    0.0790 N   0  0  0  0  0  0  0  0  0  0  0  0
    7.4372    0.2538   -0.1675 C   0  0  0  0  0  0  0  0  0  0  0  0
    8.4764   -0.5771    0.2982 C   0  0  0  0  0  0  0  0  0  0  0  0
    9.7675   -0.1889   -0.0278 C   0  0  0  0  0  0  0  0  0  0  0  0
   10.5646   -1.1449    0.5211 N   0  0  0  0  0  0  0  0  0  0  0  0
    9.7443   -2.0408    1.1351 C   0  0  0  0  0  0  0  0  0  0  0  0
    8.4819   -1.7383    1.0259 N   0  0  0  0  0  0  0  0  0  0  0  0
   10.1150    0.8911   -0.7301 N   0  0  0  0  0  0  0  0  0  0  0  0
    9.0593    1.5879   -1.1073 C   0  0  0  0  0  0  0  0  0  0  0  0
    7.7713    1.3370   -0.8758 N   0  0  0  0  0  0  0  0  0  0  0  0
   -2.2490    1.7156    0.0501 N   0  0  0  0  0  0  0  0  0  0  0  0
   -3.5978    1.5678    0.3834 C   0  0  0  0  0  0  0  0  0  0  0  0
   -4.2836    2.7251    0.7629 C   0  0  0  0  0  0  0  0  0  0  0  0
   -5.6270    2.6729    1.0846 C   0  0  0  0  0  0  0  0  0  0  0  0
   -6.3202    1.4723    1.0227 C   0  0  0  0  0  0  0  0  0  0  0  0
   -5.6459    0.3182    0.6389 C   0  0  0  0  0  0  0  0  0  0  0  0
   -4.2872    0.3581    0.3371 C   0  0  0  0  0  0  0  0  0  0  0  0
   -6.3280   -1.0121    0.5439 C   0  0  0  0  0  0  0  0  0  0  0  0
   -5.7180   -2.0573    0.7317 O   0  0  0  0  0  0  0  0  0  0  0  0
   -7.6305   -0.9820    0.2283 N   0  0  0  0  0  0  0  0  0  0  0  0
   -8.4115   -2.1876    0.0340 C   0  0  0  0  0  0  0  0  0  0  0  0
   -9.8644   -1.8463   -0.2513 C   0  0  0  0  0  0  0  0  0  0  0  0
  -10.7020   -3.0912   -0.5155 C   0  0  0  0  0  0  0  0  0  0  0  0
  -12.1596   -2.7628   -0.8056 C   0  0  0  0  0  0  0  0  0  0  0  0
    0.0850    1.2293   -1.6710 H   0  0  0  0  0  0  0  0  0  0  0  0
    0.1319    2.3621   -0.3405 H   0  0  0  0  0  0  0  0  0  0  0  0
    1.1841    0.6209    1.1155 H   0  0  0  0  0  0  0  0  0  0  0  0
    1.1073   -0.5344   -0.2001 H   0  0  0  0  0  0  0  0  0  0  0  0
    2.5675    0.9430   -1.5888 H   0  0  0  0  0  0  0  0  0  0  0  0
    2.6553    2.0977   -0.2753 H   0  0  0  0  0  0  0  0  0  0  0  0
    3.7245    0.3627    1.1803 H   0  0  0  0  0  0  0  0  0  0  0  0
    3.6209   -0.7975   -0.1350 H   0  0  0  0  0  0  0  0  0  0  0  0
    5.0484    0.7125   -1.5521 H   0  0  0  0  0  0  0  0  0  0  0  0
    5.1894    1.8236   -0.2015 H   0  0  0  0  0  0  0  0  0  0  0  0
    5.9358   -0.8658    0.5579 H   0  0  0  0  0  0  0  0  0  0  0  0
   10.1389   -2.9028    1.6503 H   0  0  0  0  0  0  0  0  0  0  0  0
    9.2601    2.4847   -1.6844 H   0  0  0  0  0  0  0  0  0  0  0  0
   -1.9360    2.6711   -0.0297 H   0  0  0  0  0  0  0  0  0  0  0  0
   -3.7569    3.6711    0.8079 H   0  0  0  0  0  0  0  0  0  0  0  0
   -6.1362    3.5771    1.3899 H   0  0  0  0  0  0  0  0  0  0  0  0
   -7.3674    1.4482    1.2953 H   0  0  0  0  0  0  0  0  0  0  0  0
   -3.7852   -0.5519    0.0536 H   0  0  0  0  0  0  0  0  0  0  0  0
   -8.0421   -0.1096   -0.0608 H   0  0  0  0  0  0  0  0  0  0  0  0
   -7.9973   -2.7717   -0.7941 H   0  0  0  0  0  0  0  0  0  0  0  0
   -8.3442   -2.8133    0.9270 H   0  0  0  0  0  0  0  0  0  0  0  0
  -10.2830   -1.2927    0.5950 H   0  0  0  0  0  0  0  0  0  0  0  0
   -9.9210   -1.1825   -1.1204 H   0  0  0  0  0  0  0  0  0  0  0  0
  -10.2759   -3.6403   -1.3603 H   0  0  0  0  0  0  0  0  0  0  0  0
  -12.6292   -2.2614    0.0423 H   0  0  0  0  0  0  0  0  0  0  0  0
  -12.2501   -2.1028   -1.6704 H   0  0  0  0  0  0  0  0  0  0  0  0
   11.5714   -1.1894    0.4807 H   0  0  0  0  0  0  0  0  0  0  0  0
  -10.6394   -3.7613    0.3466 H   0  0  0  0  0  0  0  0  0  0  0  0
  -12.7357   -3.6641   -1.0166 H   0  0  0  0  0  0  0  0  0  0  0  0
  2  1  2  0
 18  2  1  0
  2  3  1  0
  3  4  1  0
  3 32  1  0
  3 33  1  0
  5  4  1  0
  4 34  1  0
  4 35  1  0
  6  5  1  0
  5 36  1  0
  5 37  1  0
  7  6  1  0
  6 38  1  0
  6 39  1  0
  8  7  1  0
  7 40  1  0
  7 41  1  0
  9  8  1  0
  8 42  1  0
 10  9  1  0
  9 17  2  0
 11 10  2  0
 14 10  1  0
 12 11  1  0
 11 15  1  0
 12 13  1  0
 13 14  2  0
 13 43  1  0
 15 16  2  0
 16 17  1  0
 16 44  1  0
 19 18  1  0
 18 45  1  0
 24 19  1  0
 20 19  2  0
 21 20  1  0
 20 46  1  0
 22 21  2  0
 21 47  1  0
 22 23  1  0
 22 48  1  0
 25 23  1  0
 23 24  2  0
 24 49  1  0
 27 25  1  0
 25 26  2  0
 28 27  1  0
 27 50  1  0
 29 28  1  0
 28 51  1  0
 28 52  1  0
 29 30  1  0
 29 53  1  0
 29 54  1  0
 31 30  1  0
 30 55  1  0
 31 56  1  0
 31 57  1  0
 12 58  1  0
 30 59  1  0
 31 60  1  0
M  END
