
     RDKit          3D

 74 77  0  0  0  0  0  0  0  0999 V2000
    2.7812    4.3241    0.4519 C   0  0  0  0  0  0  0  0  0  0  0  0
    3.6309    3.0773    0.5952 C   0  0  1  0  0  0  0  0  0  0  0  0
    4.2368    2.9541    1.9836 C   0  0  0  0  0  0  0  0  0  0  0  0
    2.7652    1.9741    0.3147 O   0  0  0  0  0  0  0  0  0  0  0  0
    3.2630    0.7543    0.0250 C   0  0  0  0  0  0  0  0  0  0  0  0
    4.6053    0.4533   -0.1426 C   0  0  0  0  0  0  0  0  0  0  0  0
    5.0390   -0.8363   -0.4518 C   0  0  0  0  0  0  0  0  0  0  0  0
    6.5186   -1.0870   -0.6090 C   0  0  1  0  0  0  0  0  0  0  0  0
    7.1068   -0.3468   -1.8160 C   0  0  0  0  0  0  0  0  0  0  0  0
    8.6015   -0.6091   -1.9301 C   0  0  0  0  0  0  0  0  0  0  0  0
    9.2709   -0.2145   -0.7037 N   0  0  0  0  0  0  0  0  0  0  0  0
    8.8006   -0.9854    0.4334 C   0  0  0  0  0  0  0  0  0  0  0  0
    7.3154   -0.7364    0.6522 C   0  0  0  0  0  0  0  0  0  0  0  0
    4.0924   -1.8494   -0.6174 C   0  0  0  0  0  0  0  0  0  0  0  0
    4.4820   -3.2607   -0.9667 C   0  0  0  0  0  0  0  0  0  0  0  0
    2.7417   -1.5392   -0.4685 C   0  0  0  0  0  0  0  0  0  0  0  0
    2.3088   -0.2634   -0.1392 C   0  0  0  0  0  0  0  0  0  0  0  0
    0.9613    0.0915   -0.0174 N   0  0  0  0  0  0  0  0  0  0  0  0
   -0.0655   -0.6234    0.5009 C   0  0  0  0  0  0  0  0  0  0  0  0
    0.1494   -1.8488    0.9693 N   0  0  0  0  0  0  0  0  0  0  0  0
   -0.9124   -2.4704    1.4669 C   0  0  0  0  0  0  0  0  0  0  0  0
   -2.1620   -1.9024    1.5154 C   0  0  0  0  0  0  0  0  0  0  0  0
   -3.5166   -2.7562    2.1604 Cl  0  0  0  0  0  0  0  0  0  0  0  0
   -2.2894   -0.5957    0.9999 C   0  0  0  0  0  0  0  0  0  0  0  0
   -3.4967    0.0263    1.0002 N   0  0  0  0  0  0  0  0  0  0  0  0
   -3.7705    1.3158    0.5378 C   0  0  0  0  0  0  0  0  0  0  0  0
   -2.9115    2.3846    0.7865 C   0  0  0  0  0  0  0  0  0  0  0  0
   -3.2223    3.6566    0.3360 C   0  0  0  0  0  0  0  0  0  0  0  0
   -4.3986    3.9003   -0.3590 C   0  0  0  0  0  0  0  0  0  0  0  0
   -5.2704    2.8544   -0.6040 C   0  0  0  0  0  0  0  0  0  0  0  0
   -4.9563    1.5738   -0.1665 C   0  0  0  0  0  0  0  0  0  0  0  0
   -6.1204    0.2757   -0.5187 S   0  0  1  0  0  0  0  0  0  0  0  0
   -6.3210   -0.4995    0.7124 O   0  0  0  0  0  0  0  0  0  0  0  0
   -7.2982    0.8753   -1.1426 O   0  0  0  0  0  0  0  0  0  0  0  0
   -5.3029   -0.7813   -1.7387 C   0  0  1  0  0  0  0  0  0  0  0  0
   -6.1955   -1.9897   -1.9878 C   0  0  0  0  0  0  0  0  0  0  0  0
   -5.0003    0.0078   -3.0002 C   0  0  0  0  0  0  0  0  0  0  0  0
   -1.2388    0.0147    0.4920 N   0  0  0  0  0  0  0  0  0  0  0  0
    3.3945    5.2097    0.6158 H   0  0  0  0  0  0  0  0  0  0  0  0
    2.3509    4.3961   -0.5472 H   0  0  0  0  0  0  0  0  0  0  0  0
    1.9691    4.3361    1.1809 H   0  0  0  0  0  0  0  0  0  0  0  0
    4.4285    3.1148   -0.1553 H   0  0  0  0  0  0  0  0  0  0  0  0
    3.4590    2.9688    2.7484 H   0  0  0  0  0  0  0  0  0  0  0  0
    4.8171    2.0387    2.1032 H   0  0  0  0  0  0  0  0  0  0  0  0
    4.9095    3.7921    2.1678 H   0  0  0  0  0  0  0  0  0  0  0  0
    5.3493    1.2299   -0.0228 H   0  0  0  0  0  0  0  0  0  0  0  0
    6.6708   -2.1555   -0.7904 H   0  0  0  0  0  0  0  0  0  0  0  0
    6.6052   -0.6672   -2.7326 H   0  0  0  0  0  0  0  0  0  0  0  0
    6.9357    0.7294   -1.7162 H   0  0  0  0  0  0  0  0  0  0  0  0
    8.7551   -1.6754   -2.1685 H   0  0  0  0  0  0  0  0  0  0  0  0
    9.0178   -0.0363   -2.7616 H   0  0  0  0  0  0  0  0  0  0  0  0
   10.2687   -0.3445   -0.8085 H   0  0  0  0  0  0  0  0  0  0  0  0
    8.9617   -2.0690    0.3027 H   0  0  0  0  0  0  0  0  0  0  0  0
    9.3628   -0.6862    1.3207 H   0  0  0  0  0  0  0  0  0  0  0  0
    7.1647    0.3149    0.9164 H   0  0  0  0  0  0  0  0  0  0  0  0
    6.9605   -1.3314    1.4974 H   0  0  0  0  0  0  0  0  0  0  0  0
    5.1410   -3.7020   -0.2167 H   0  0  0  0  0  0  0  0  0  0  0  0
    3.6019   -3.8980   -1.0406 H   0  0  0  0  0  0  0  0  0  0  0  0
    5.0063   -3.3145   -1.9227 H   0  0  0  0  0  0  0  0  0  0  0  0
    2.0076   -2.3192   -0.6099 H   0  0  0  0  0  0  0  0  0  0  0  0
    0.7272    1.0471   -0.2382 H   0  0  0  0  0  0  0  0  0  0  0  0
   -0.7593   -3.4733    1.8501 H   0  0  0  0  0  0  0  0  0  0  0  0
   -4.2883   -0.5084    1.3323 H   0  0  0  0  0  0  0  0  0  0  0  0
   -2.0036    2.2233    1.3465 H   0  0  0  0  0  0  0  0  0  0  0  0
   -2.5396    4.4690    0.5465 H   0  0  0  0  0  0  0  0  0  0  0  0
   -4.6400    4.8962   -0.7030 H   0  0  0  0  0  0  0  0  0  0  0  0
   -6.1906    3.0326   -1.1422 H   0  0  0  0  0  0  0  0  0  0  0  0
   -4.3730   -1.0983   -1.2595 H   0  0  0  0  0  0  0  0  0  0  0  0
   -7.1340   -1.7007   -2.4598 H   0  0  0  0  0  0  0  0  0  0  0  0
   -5.6762   -2.6677   -2.6640 H   0  0  0  0  0  0  0  0  0  0  0  0
   -6.4140   -2.5376   -1.0729 H   0  0  0  0  0  0  0  0  0  0  0  0
   -5.9115    0.3693   -3.4752 H   0  0  0  0  0  0  0  0  0  0  0  0
   -4.3420    0.8551   -2.8118 H   0  0  0  0  0  0  0  0  0  0  0  0
   -4.4908   -0.6484   -3.7052 H   0  0  0  0  0  0  0  0  0  0  0  0
  1  2  1  0
  2  3  1  0
  2  4  1  0
  4  5  1  0
  5  6  2  0
  5 17  1  0
  6  7  1  0
  7  8  1  0
  7 14  2  0
  8  9  1  0
  8 13  1  0
  9 10  1  0
 10 11  1  0
 11 12  1  0
 12 13  1  0
 14 15  1  0
 14 16  1  0
 16 17  2  0
 17 18  1  0
 18 19  1  0
 19 20  2  0
 19 38  1  0
 20 21  1  0
 21 22  2  0
 22 23  1  0
 22 24  1  0
 24 25  1  0
 24 38  2  0
 25 26  1  0
 26 27  2  0
 26 31  1  0
 27 28  1  0
 28 29  2  0
 29 30  1  0
 30 31  2  0
 32 31  1  1
 32 33  2  0
 32 34  2  0
 32 35  1  0
 35 36  1  0
 35 37  1  0
  1 39  1  0
  1 40  1  0
  1 41  1  0
  2 42  1  6
  3 43  1  0
  3 44  1  0
  3 45  1  0
  6 46  1  0
  8 47  1  6
  9 48  1  0
  9 49  1  0
 10 50  1  0
 10 51  1  0
 11 52  1  0
 12 53  1  0
 12 54  1  0
 13 55  1  0
 13 56  1  0
 15 57  1  0
 15 58  1  0
 15 59  1  0
 16 60  1  0
 18 61  1  0
 21 62  1  0
 25 63  1  0
 27 64  1  0
 28 65  1  0
 29 66  1  0
 30 67  1  0
 35 68  1  1
 36 69  1  0
 36 70  1  0
 36 71  1  0
 37 72  1  0
 37 73  1  0
 37 74  1  0
M  END
