
     RDKit          3D

 60 63  0  0  0  0  0  0  0  0999 V2000
    1.6317   -1.3184    0.1722 C   0  0  0  0  0  0  0  0  0  0  0  0
   -0.8222   -1.0727    0.0872 C   0  0  0  0  0  0  0  0  0  0  0  0
   -1.6362    1.0805    0.0331 C   0  0  0  0  0  0  0  0  0  0  0  0
   -3.0130   -0.8411   -0.0488 C   0  0  0  0  0  0  0  0  0  0  0  0
   -4.3431   -1.1231   -0.1306 N   0  0  0  0  0  0  0  0  0  0  0  0
   -4.9879    0.0842   -0.1713 C   0  0  0  0  0  0  0  0  0  0  0  0
   -4.9558   -2.4486   -0.1424 C   0  0  1  0  0  0  0  0  0  0  0  0
   -5.7765   -2.6700    1.1205 C   0  0  0  0  0  0  0  0  0  0  0  0
    1.0569    2.6254    0.3863 C   0  0  0  0  0  0  0  0  0  0  0  0
    2.4854   -2.5597   -0.1008 C   0  0  2  0  0  0  0  0  0  0  0  0
    1.6643   -3.6604    0.5455 C   0  0  1  0  0  0  0  0  0  0  0  0
    0.2297   -3.2918    0.1971 C   0  0  0  0  0  0  0  0  0  0  0  0
    0.2831   -1.8464    0.1516 N   0  0  0  0  0  0  0  0  0  0  0  0
   -0.6026    0.2549    0.1077 N   0  0  0  0  0  0  0  0  0  0  0  0
   -2.9344    0.5432   -0.0488 C   0  0  0  0  0  0  0  0  0  0  0  0
   -1.9962   -1.6965    0.0120 N   0  0  0  0  0  0  0  0  0  0  0  0
   -4.1825    1.1053   -0.1262 N   0  0  0  0  0  0  0  0  0  0  0  0
   -5.7729   -2.6526   -1.4100 C   0  0  0  0  0  0  0  0  0  0  0  0
   -1.4391    2.4108    0.0422 N   0  0  0  0  0  0  0  0  0  0  0  0
   -0.2203    3.0733    0.1207 C   0  0  0  0  0  0  0  0  0  0  0  0
    1.8590    3.7067    0.3569 N   0  0  0  0  0  0  0  0  0  0  0  0
    1.1945    4.8326    0.0862 N   0  0  0  0  0  0  0  0  0  0  0  0
   -0.0568    4.4633   -0.0588 C   0  0  0  0  0  0  0  0  0  0  0  0
   -1.0653    5.2927   -0.3362 O   0  0  0  0  0  0  0  0  0  0  0  0
   -0.7451    6.6706   -0.4480 C   0  0  0  0  0  0  0  0  0  0  0  0
    2.0019   -4.9156    0.0701 F   0  0  0  0  0  0  0  0  0  0  0  0
    3.8307   -2.4803    0.3946 N   0  0  0  0  0  0  0  0  0  0  0  0
    4.8395   -1.9205   -0.3078 C   0  0  0  0  0  0  0  0  0  0  0  0
    6.1628   -1.8658    0.4274 C   0  0  0  0  0  0  0  0  0  0  0  0
    7.2601   -1.1604   -0.3483 C   0  0  0  0  0  0  0  0  0  0  0  0
    4.6906   -1.5014   -1.4447 O   0  0  0  0  0  0  0  0  0  0  0  0
    1.8875   -0.8859    1.1458 H   0  0  0  0  0  0  0  0  0  0  0  0
    1.7829   -0.5516   -0.5869 H   0  0  0  0  0  0  0  0  0  0  0  0
   -6.0636    0.1512   -0.2356 H   0  0  0  0  0  0  0  0  0  0  0  0
   -4.1199   -3.1497   -0.1468 H   0  0  0  0  0  0  0  0  0  0  0  0
   -6.6158   -1.9750    1.1775 H   0  0  0  0  0  0  0  0  0  0  0  0
   -6.1819   -3.6816    1.1266 H   0  0  0  0  0  0  0  0  0  0  0  0
   -5.1656   -2.5451    2.0144 H   0  0  0  0  0  0  0  0  0  0  0  0
    3.7894    4.0336   -0.3843 H   0  0  0  0  0  0  0  0  0  0  0  0
    3.5562    4.4334    1.3285 H   0  0  0  0  0  0  0  0  0  0  0  0
    3.6259    2.7437    0.8158 H   0  0  0  0  0  0  0  0  0  0  0  0
    2.5155   -2.7417   -1.1779 H   0  0  0  0  0  0  0  0  0  0  0  0
    1.8117   -3.6676    1.6299 H   0  0  0  0  0  0  0  0  0  0  0  0
   -0.0497   -3.7255   -0.7695 H   0  0  0  0  0  0  0  0  0  0  0  0
   -0.4835   -3.6477    0.9410 H   0  0  0  0  0  0  0  0  0  0  0  0
   -5.1616   -2.5108   -2.3010 H   0  0  0  0  0  0  0  0  0  0  0  0
   -6.1721   -3.6663   -1.4312 H   0  0  0  0  0  0  0  0  0  0  0  0
   -6.6182   -1.9643   -1.4591 H   0  0  0  0  0  0  0  0  0  0  0  0
   -2.2643    2.9876   -0.0151 H   0  0  0  0  0  0  0  0  0  0  0  0
   -1.6736    7.1838   -0.6841 H   0  0  0  0  0  0  0  0  0  0  0  0
   -0.3430    7.0670    0.4865 H   0  0  0  0  0  0  0  0  0  0  0  0
   -0.0216    6.8520   -1.2451 H   0  0  0  0  0  0  0  0  0  0  0  0
    3.9940   -2.7235    1.3599 H   0  0  0  0  0  0  0  0  0  0  0  0
    6.0012   -1.3719    1.3899 H   0  0  0  0  0  0  0  0  0  0  0  0
    6.4649   -2.8885    0.6713 H   0  0  0  0  0  0  0  0  0  0  0  0
    8.1745   -1.1326    0.2434 H   0  0  0  0  0  0  0  0  0  0  0  0
    7.4869   -1.6714   -1.2831 H   0  0  0  0  0  0  0  0  0  0  0  0
    6.9883   -0.1324   -0.5853 H   0  0  0  0  0  0  0  0  0  0  0  0
    1.4295    1.6388    0.5915 H   0  0  0  0  0  0  0  0  0  0  0  0
    3.2870    3.7372    0.5360 C   0  0  0  0  0  0  0  0  0  0  0  0
 18  7  1  0
  8  7  1  0
  6  5  1  0
  6 17  2  0
  7  5  1  0
  5  4  1  0
 17 15  1  0
  4 15  2  0
  4 16  1  0
 15  3  1  0
 25 24  1  0
 24 23  1  0
 16  2  2  0
  3 19  1  0
  3 14  2  0
 19 20  1  0
  2 14  1  0
  2 13  1  0
 26 11  1  0
 23 20  1  0
 23 22  2  0
 20  9  2  0
 12 13  1  0
 12 11  1  0
 13  1  1  0
 22 21  1  0
 11 10  1  0
  9 21  1  0
  1 10  1  0
 21 60  1  0
 10 27  1  0
 27 28  1  0
 28 31  2  0
 28 29  1  0
 29 30  1  0
  1 32  1  0
  1 33  1  0
  6 34  1  0
  7 35  1  6
  8 36  1  0
  8 37  1  0
  8 38  1  0
  9 59  1  0
 60 39  1  0
 60 40  1  0
 60 41  1  0
 10 42  1  6
 11 43  1  1
 12 44  1  0
 12 45  1  0
 18 46  1  0
 18 47  1  0
 18 48  1  0
 19 49  1  0
 25 50  1  0
 25 51  1  0
 25 52  1  0
 27 53  1  0
 29 54  1  0
 29 55  1  0
 30 56  1  0
 30 57  1  0
 30 58  1  0
M  END
