
     RDKit          3D

 43 45  0  0  0  0  0  0  0  0999 V2000
   -1.7169    1.5646   -2.3796 C   0  0  0  0  0  0  0  0  0  0  0  0
   -0.9793    2.3301   -3.4744 C   0  0  0  0  0  0  0  0  0  0  0  0
    0.5326    2.1854   -3.3118 C   0  0  2  0  0  0  0  0  0  0  0  0
    0.9844    2.6410   -1.9232 C   0  0  0  0  0  0  0  0  0  0  0  0
    0.2389    1.8788   -0.8317 C   0  0  0  0  0  0  0  0  0  0  0  0
   -1.2719    2.0107   -0.9908 C   0  0  0  0  0  0  0  0  0  0  0  0
    2.2498    2.3362   -5.0739 C   0  0  0  0  0  0  0  0  0  0  0  0
    2.7433    3.3748   -6.0592 C   0  0  0  0  0  0  0  0  0  0  0  0
    2.2031    4.6989   -5.4997 C   0  0  1  0  0  0  0  0  0  0  0  0
    0.9676    4.2585   -4.7130 C   0  0  0  0  0  0  0  0  0  0  0  0
    1.2523    2.8825   -4.3593 N   0  0  0  0  0  0  0  0  0  0  0  0
    3.2532    5.3201   -4.5980 C   0  0  0  0  0  0  0  0  0  0  0  0
    4.0853    6.1745   -5.2548 N   0  0  0  0  0  0  0  0  0  0  0  0
    3.3568    5.0393   -3.4207 O   0  0  0  0  0  0  0  0  0  0  0  0
    2.6710    1.1941   -4.9726 O   0  0  0  0  0  0  0  0  0  0  0  0
    5.2081    6.8476   -4.7826 C   0  0  0  0  0  0  0  0  0  0  0  0
    5.6574    6.7842   -3.4630 C   0  0  0  0  0  0  0  0  0  0  0  0
    6.7901    7.5020   -3.1145 C   0  0  0  0  0  0  0  0  0  0  0  0
    7.3425    7.4213   -1.4761 Cl  0  0  0  0  0  0  0  0  0  0  0  0
    7.4983    8.2797   -4.0135 C   0  0  0  0  0  0  0  0  0  0  0  0
    7.0259    8.3223   -5.3160 C   0  0  0  0  0  0  0  0  0  0  0  0
    5.9025    7.6255   -5.7129 C   0  0  0  0  0  0  0  0  0  0  0  0
    7.8733    9.2787   -6.4806 Cl  0  0  0  0  0  0  0  0  0  0  0  0
    3.8749    6.3345   -6.2287 H   0  0  0  0  0  0  0  0  0  0  0  0
    1.9326    5.3902   -6.2987 H   0  0  0  0  0  0  0  0  0  0  0  0
    0.7936    4.8663   -3.8252 H   0  0  0  0  0  0  0  0  0  0  0  0
    0.0757    4.3260   -5.3421 H   0  0  0  0  0  0  0  0  0  0  0  0
    3.8271    3.3371   -6.1710 H   0  0  0  0  0  0  0  0  0  0  0  0
    2.3107    3.1623   -7.0402 H   0  0  0  0  0  0  0  0  0  0  0  0
    0.7854    1.1270   -3.4218 H   0  0  0  0  0  0  0  0  0  0  0  0
    0.8015    3.7149   -1.8117 H   0  0  0  0  0  0  0  0  0  0  0  0
    2.0625    2.4951   -1.8266 H   0  0  0  0  0  0  0  0  0  0  0  0
    0.5526    2.2380    0.1508 H   0  0  0  0  0  0  0  0  0  0  0  0
    0.5154    0.8196   -0.8772 H   0  0  0  0  0  0  0  0  0  0  0  0
   -1.7852    1.4262   -0.2237 H   0  0  0  0  0  0  0  0  0  0  0  0
   -1.5642    3.0547   -0.8341 H   0  0  0  0  0  0  0  0  0  0  0  0
   -1.5284    0.4917   -2.4944 H   0  0  0  0  0  0  0  0  0  0  0  0
   -2.7942    1.7025   -2.4971 H   0  0  0  0  0  0  0  0  0  0  0  0
   -1.2813    1.9699   -4.4611 H   0  0  0  0  0  0  0  0  0  0  0  0
   -1.2620    3.3876   -3.4205 H   0  0  0  0  0  0  0  0  0  0  0  0
    5.5642    7.6784   -6.7397 H   0  0  0  0  0  0  0  0  0  0  0  0
    8.3806    8.8268   -3.7148 H   0  0  0  0  0  0  0  0  0  0  0  0
    5.1458    6.1920   -2.7237 H   0  0  0  0  0  0  0  0  0  0  0  0
  1  6  1  0
  1 37  1  0
  1 38  1  0
  1  2  1  0
  2  3  1  0
  2 39  1  0
  2 40  1  0
  3 11  1  0
  3 30  1  1
  3  4  1  0
  4 31  1  0
  4 32  1  0
  4  5  1  0
  5 33  1  0
  5 34  1  0
  5  6  1  0
  6 35  1  0
  6 36  1  0
  7 11  1  0
  7 15  2  0
  7  8  1  0
  8  9  1  0
  8 28  1  0
  8 29  1  0
  9 12  1  0
  9 25  1  6
  9 10  1  0
 10 26  1  0
 10 27  1  0
 10 11  1  0
 12 13  1  0
 12 14  2  0
 13 24  1  0
 13 16  1  0
 16 22  1  0
 16 17  2  0
 17 18  1  0
 17 43  1  0
 18 20  2  0
 18 19  1  0
 20 21  1  0
 20 42  1  0
 21 22  2  0
 21 23  1  0
 22 41  1  0
M  END
