
     RDKit          3D

 35 37  0  0  0  0  0  0  0  0999 V2000
    2.1416   -0.0653   -0.4634 C   0  0  0  0  0  0  0  0  0  0  0  0
    2.1469    0.3555    0.8523 C   0  0  0  0  0  0  0  0  0  0  0  0
   -2.7198   -0.4321   -1.0562 C   0  0  0  0  0  0  0  0  0  0  0  0
   -3.4697   -1.5525   -0.7072 C   0  0  0  0  0  0  0  0  0  0  0  0
   -3.7519   -1.8338    0.6215 C   0  0  0  0  0  0  0  0  0  0  0  0
   -4.4726   -2.8979    0.9880 O   0  0  0  0  0  0  0  0  0  0  0  0
   -3.2939   -0.9860    1.6380 C   0  0  0  0  0  0  0  0  0  0  0  0
   -2.5519    0.1190    1.2997 C   0  0  0  0  0  0  0  0  0  0  0  0
   -2.2390    0.4054   -0.0333 C   0  0  0  0  0  0  0  0  0  0  0  0
   -1.2138    1.7905   -0.3661 S   0  0  1  0  0  0  0  0  0  0  0  0
    0.3474    1.3323   -0.2046 N   0  0  0  0  0  0  0  0  0  0  0  0
    0.9225    0.4016   -1.1894 C   0  0  0  0  0  0  0  0  0  0  0  0
    0.9113    1.1505    1.1417 C   0  0  0  0  0  0  0  0  0  0  0  0
    3.1682    0.0393    1.7292 C   0  0  0  0  0  0  0  0  0  0  0  0
    4.2204   -0.7327    1.2393 C   0  0  0  0  0  0  0  0  0  0  0  0
    4.2354   -1.1656   -0.0874 C   0  0  0  0  0  0  0  0  0  0  0  0
    3.1910   -0.8351   -0.9458 C   0  0  0  0  0  0  0  0  0  0  0  0
    3.1458   -1.2245   -2.2308 O   0  0  0  0  0  0  0  0  0  0  0  0
    5.2161   -1.0396    2.0921 O   0  0  0  0  0  0  0  0  0  0  0  0
   -1.3886    2.1139   -1.7860 O   0  0  0  0  0  0  0  0  0  0  0  0
   -1.4533    2.8082    0.6399 O   0  0  0  0  0  0  0  0  0  0  0  0
   -2.1074    0.6461   -2.5013 H   0  0  0  0  0  0  0  0  0  0  0  0
   -3.8410   -2.1931   -1.4994 H   0  0  0  0  0  0  0  0  0  0  0  0
   -4.7446   -3.4131    0.2192 H   0  0  0  0  0  0  0  0  0  0  0  0
   -3.5306   -1.1959    2.6720 H   0  0  0  0  0  0  0  0  0  0  0  0
   -2.2181    0.7824    2.0866 H   0  0  0  0  0  0  0  0  0  0  0  0
    1.1436    0.9209   -2.1225 H   0  0  0  0  0  0  0  0  0  0  0  0
    0.2547   -0.4382   -1.4191 H   0  0  0  0  0  0  0  0  0  0  0  0
    0.2461    0.5898    1.8092 H   0  0  0  0  0  0  0  0  0  0  0  0
    1.1248    2.1130    1.6062 H   0  0  0  0  0  0  0  0  0  0  0  0
    3.1623    0.3746    2.7583 H   0  0  0  0  0  0  0  0  0  0  0  0
    5.0676   -1.7595   -0.4527 H   0  0  0  0  0  0  0  0  0  0  0  0
    3.9171   -1.7582   -2.4536 H   0  0  0  0  0  0  0  0  0  0  0  0
    5.8860   -1.5752    1.6531 H   0  0  0  0  0  0  0  0  0  0  0  0
   -2.5102   -0.2310   -2.3580 O   0  0  0  0  0  0  0  0  0  0  0  0
 19 15  1  0
 35  3  1  0
 15 14  2  0
 15 16  1  0
 14  2  1  0
 16 17  2  0
  2 13  1  0
  2  1  2  0
 13 11  1  0
  3  4  2  0
  3  9  1  0
 17  1  1  0
 17 18  1  0
  4  5  1  0
  1 12  1  0
 11 12  1  0
 11 10  1  0
 21 10  2  0
 10  9  1  1
 10 20  2  0
  9  8  2  0
  5  6  1  0
  5  7  2  0
  8  7  1  0
 35 22  1  0
  4 23  1  0
  6 24  1  0
  7 25  1  0
  8 26  1  0
 12 27  1  0
 12 28  1  0
 13 29  1  0
 13 30  1  0
 14 31  1  0
 16 32  1  0
 18 33  1  0
 19 34  1  0
M  END
