
     RDKit          3D

 74 75  0  0  0  0  0  0  0  0999 V2000
    6.1164   -0.9155    0.2905 C   0  0  0  0  0  0  0  0  0  0  0  0
    4.6938   -0.3735    0.3528 C   0  0  0  0  0  0  0  0  0  0  0  0
    3.6576   -1.4890    0.3621 C   0  0  0  0  0  0  0  0  0  0  0  0
    2.2305   -0.9680    0.4082 C   0  0  0  0  0  0  0  0  0  0  0  0
    1.1993   -2.0652    0.4145 C   0  0  0  0  0  0  0  0  0  0  0  0
    1.4417   -3.2455    0.3860 O   0  0  0  0  0  0  0  0  0  0  0  0
   -0.0358   -1.5785    0.4519 O   0  0  0  0  0  0  0  0  0  0  0  0
   -1.1210   -2.5066    0.4236 C   0  0  0  0  0  0  0  0  0  0  0  0
   -2.4034   -1.7062    0.3717 C   0  0  2  0  0  0  0  0  0  0  0  0
   -3.6228   -2.6302    0.3958 C   0  0  2  0  0  0  0  0  0  0  0  0
   -4.8895   -1.8183    0.1549 C   0  0  1  0  0  0  0  0  0  0  0  0
   -4.7484   -1.0225   -1.1406 C   0  0  2  0  0  0  0  0  0  0  0  0
   -3.4872   -0.1589   -1.0773 C   0  0  2  0  0  0  0  0  0  0  0  0
   -2.3696   -0.9609   -0.8323 O   0  0  0  0  0  0  0  0  0  0  0  0
   -3.6804    0.7755   -0.0597 O   0  0  0  0  0  0  0  0  0  0  0  0
   -3.2060    2.1046   -0.1424 C   0  0  1  0  0  0  0  0  0  0  0  0
   -2.3257    2.4013    1.0769 C   0  0  2  0  0  0  0  0  0  0  0  0
   -0.9484    1.9806    0.5908 C   0  0  1  0  0  0  0  0  0  0  0  0
   -1.0074    2.4218   -0.8707 C   0  0  2  0  0  0  0  0  0  0  0  0
   -2.3840    2.3145   -1.2473 O   0  0  0  0  0  0  0  0  0  0  0  0
   -0.1331    1.6038   -1.7872 C   0  0  0  0  0  0  0  0  0  0  0  0
   -0.1937    2.1400   -3.0857 O   0  0  0  0  0  0  0  0  0  0  0  0
    0.0557    2.6117    1.3419 O   0  0  0  0  0  0  0  0  0  0  0  0
   -2.7954    1.7548    2.2188 O   0  0  0  0  0  0  0  0  0  0  0  0
   -4.4239    3.0150   -0.2020 C   0  0  0  0  0  0  0  0  0  0  0  0
   -5.2439    2.6091   -1.2716 O   0  0  0  0  0  0  0  0  0  0  0  0
   -5.9031   -0.2769   -1.4282 O   0  0  0  0  0  0  0  0  0  0  0  0
   -5.9642   -2.7283    0.0931 O   0  0  0  0  0  0  0  0  0  0  0  0
   -3.6399   -3.2780    1.6439 O   0  0  0  0  0  0  0  0  0  0  0  0
    6.2813   -1.5867    1.1406 H   0  0  0  0  0  0  0  0  0  0  0  0
    6.2250   -1.5359   -0.6061 H   0  0  0  0  0  0  0  0  0  0  0  0
    4.5775    0.2483    1.2471 H   0  0  0  0  0  0  0  0  0  0  0  0
    4.5190    0.2888   -0.5021 H   0  0  0  0  0  0  0  0  0  0  0  0
    3.7889   -2.1114   -0.5269 H   0  0  0  0  0  0  0  0  0  0  0  0
    3.8356   -2.1416    1.2208 H   0  0  0  0  0  0  0  0  0  0  0  0
    2.0752   -0.3439    1.2951 H   0  0  0  0  0  0  0  0  0  0  0  0
    2.0344   -0.3178   -0.4513 H   0  0  0  0  0  0  0  0  0  0  0  0
   -1.0437   -3.1553   -0.4535 H   0  0  0  0  0  0  0  0  0  0  0  0
   -1.1056   -3.1336    1.3163 H   0  0  0  0  0  0  0  0  0  0  0  0
   -2.4526   -1.0364    1.2414 H   0  0  0  0  0  0  0  0  0  0  0  0
   -3.5207   -3.3583   -0.4256 H   0  0  0  0  0  0  0  0  0  0  0  0
   -5.0199   -1.1205    0.9954 H   0  0  0  0  0  0  0  0  0  0  0  0
   -4.6073   -1.7360   -1.9622 H   0  0  0  0  0  0  0  0  0  0  0  0
   -3.3028    0.3135   -2.0446 H   0  0  0  0  0  0  0  0  0  0  0  0
   -2.3082    3.4943    1.2138 H   0  0  0  0  0  0  0  0  0  0  0  0
   -0.8562    0.8892    0.6510 H   0  0  0  0  0  0  0  0  0  0  0  0
   -0.7107    3.4772   -0.9349 H   0  0  0  0  0  0  0  0  0  0  0  0
    0.8902    1.6421   -1.3840 H   0  0  0  0  0  0  0  0  0  0  0  0
   -0.4550    0.5561   -1.7540 H   0  0  0  0  0  0  0  0  0  0  0  0
    0.3715    1.6110   -3.6559 H   0  0  0  0  0  0  0  0  0  0  0  0
    0.8755    2.1188    1.2523 H   0  0  0  0  0  0  0  0  0  0  0  0
   -2.3946    2.1737    2.9861 H   0  0  0  0  0  0  0  0  0  0  0  0
   -4.9511    2.9547    0.7580 H   0  0  0  0  0  0  0  0  0  0  0  0
   -4.0807    4.0493   -0.3221 H   0  0  0  0  0  0  0  0  0  0  0  0
   -6.0465    3.1396   -1.2602 H   0  0  0  0  0  0  0  0  0  0  0  0
   -5.7765    0.6403   -1.1411 H   0  0  0  0  0  0  0  0  0  0  0  0
   -6.7845   -2.2254    0.0774 H   0  0  0  0  0  0  0  0  0  0  0  0
   -4.4195   -3.8420    1.6784 H   0  0  0  0  0  0  0  0  0  0  0  0
    7.1889    0.1654    0.2875 C   0  0  0  0  0  0  0  0  0  0  0  0
    8.6002   -0.4056    0.2206 C   0  0  0  0  0  0  0  0  0  0  0  0
    9.6909    0.6573    0.2214 C   0  0  0  0  0  0  0  0  0  0  0  0
   11.0967    0.0721    0.1533 C   0  0  0  0  0  0  0  0  0  0  0  0
   12.1847    1.1366    0.1575 C   0  0  0  0  0  0  0  0  0  0  0  0
    7.0291    0.8390   -0.5617 H   0  0  0  0  0  0  0  0  0  0  0  0
    7.0882    0.7840    1.1863 H   0  0  0  0  0  0  0  0  0  0  0  0
    8.7541   -1.0837    1.0674 H   0  0  0  0  0  0  0  0  0  0  0  0
    8.6969   -1.0237   -0.6792 H   0  0  0  0  0  0  0  0  0  0  0  0
    9.5408    1.3364   -0.6254 H   0  0  0  0  0  0  0  0  0  0  0  0
    9.5986    1.2750    1.1221 H   0  0  0  0  0  0  0  0  0  0  0  0
   11.2443   -0.6084    0.9979 H   0  0  0  0  0  0  0  0  0  0  0  0
   11.1874   -0.5432   -0.7475 H   0  0  0  0  0  0  0  0  0  0  0  0
   13.1804    0.6938    0.1133 H   0  0  0  0  0  0  0  0  0  0  0  0
   12.0832    1.8071   -0.6977 H   0  0  0  0  0  0  0  0  0  0  0  0
   12.1349    1.7469    1.0612 H   0  0  0  0  0  0  0  0  0  0  0  0
  1  2  1  0
  2  3  1  0
  3  4  1  0
  4  5  1  0
  5  6  2  0
  5  7  1  0
  7  8  1  0
 29 10  1  0
 27 12  1  0
  8  9  1  0
  9 10  1  0
  9 14  1  0
 11 10  1  0
 11 28  1  0
 11 12  1  0
 12 13  1  0
 14 13  1  0
 13 15  1  0
 21 22  1  0
 21 19  1  0
 16 15  1  1
 20 19  1  0
 20 16  1  0
 19 18  1  0
 16 25  1  0
 16 17  1  0
 25 26  1  0
 18 17  1  0
 18 23  1  0
 17 24  1  0
  1 30  1  0
  1 31  1  0
  2 32  1  0
  2 33  1  0
  3 34  1  0
  3 35  1  0
  4 36  1  0
  4 37  1  0
  8 38  1  0
  8 39  1  0
  9 40  1  1
 10 41  1  6
 11 42  1  1
 12 43  1  6
 13 44  1  6
 17 45  1  1
 18 46  1  6
 19 47  1  1
 21 48  1  0
 21 49  1  0
 22 50  1  0
 23 51  1  0
 24 52  1  0
 25 53  1  0
 25 54  1  0
 26 55  1  0
 27 56  1  0
 28 57  1  0
 29 58  1  0
  1 59  1  0
 59 60  1  0
 60 61  1  0
 61 62  1  0
 62 63  1  0
 59 64  1  0
 59 65  1  0
 60 66  1  0
 60 67  1  0
 61 68  1  0
 61 69  1  0
 62 70  1  0
 62 71  1  0
 63 72  1  0
 63 73  1  0
 63 74  1  0
M  END
