
     RDKit          3D

 21 22  0  0  0  0  0  0  0  0999 V2000
   -0.1889   -0.0039   -2.3906 I   0  0  0  0  0  0  0  0  0  0  0  0
    1.8525   -0.0566    1.4386 C   0  0  0  0  0  0  0  0  0  0  0  0
    1.5820   -0.0523    0.0799 C   0  0  0  0  0  0  0  0  0  0  0  0
    0.2572   -0.0095   -0.3320 C   0  0  0  0  0  0  0  0  0  0  0  0
   -0.7747    0.0260    0.5886 C   0  0  0  0  0  0  0  0  0  0  0  0
   -0.4914    0.0173    1.9534 C   0  0  0  0  0  0  0  0  0  0  0  0
    0.8332   -0.0208    2.3883 C   0  0  0  0  0  0  0  0  0  0  0  0
   -1.6272    0.0842    2.9415 C   0  0  0  0  0  0  0  0  0  0  0  0
   -0.0379    0.3873    4.6981 C   0  0  0  0  0  0  0  0  0  0  0  0
    1.1576   -0.0316    3.8585 C   0  0  0  0  0  0  0  0  0  0  0  0
   -1.2012   -0.3571    4.2521 N   0  0  0  0  0  0  0  0  0  0  0  0
    2.3942   -0.0794   -0.6335 H   0  0  0  0  0  0  0  0  0  0  0  0
   -1.8078    0.0562    0.2631 H   0  0  0  0  0  0  0  0  0  0  0  0
   -2.4483   -0.5490    2.5970 H   0  0  0  0  0  0  0  0  0  0  0  0
   -2.0137    1.1168    2.9446 H   0  0  0  0  0  0  0  0  0  0  0  0
    0.1488    0.1631    5.7488 H   0  0  0  0  0  0  0  0  0  0  0  0
   -0.1788    1.4773    4.6205 H   0  0  0  0  0  0  0  0  0  0  0  0
    1.4700   -1.0392    4.1484 H   0  0  0  0  0  0  0  0  0  0  0  0
    2.0064    0.6263    4.0579 H   0  0  0  0  0  0  0  0  0  0  0  0
   -1.9625   -0.2347    4.9059 H   0  0  0  0  0  0  0  0  0  0  0  0
    2.8852   -0.0848    1.7669 H   0  0  0  0  0  0  0  0  0  0  0  0
  1  4  1  0
  2  3  2  0
  2  7  1  0
  2 21  1  0
  3  4  1  0
  3 12  1  0
  4  5  2  0
  5  6  1  0
  5 13  1  0
  6  7  2  0
  6  8  1  0
  7 10  1  0
  8 11  1  0
  8 14  1  0
  8 15  1  0
  9 10  1  0
  9 11  1  0
  9 16  1  0
  9 17  1  0
 10 18  1  0
 10 19  1  0
 11 20  1  0
M  END
