
     RDKit          3D

 33 34  0  0  0  0  0  0  0  0999 V2000
   -1.1046   -1.5195    0.3548 N   0  0  0  0  0  0  0  0  0  0  0  0
   -0.2008   -0.6049   -0.0230 C   0  0  0  0  0  0  0  0  0  0  0  0
   -2.3817   -1.1852    0.3762 C   0  0  0  0  0  0  0  0  0  0  0  0
   -1.9225    1.0263   -0.3335 C   0  0  0  0  0  0  0  0  0  0  0  0
   -0.5890    0.7075   -0.3699 C   0  0  0  0  0  0  0  0  0  0  0  0
    3.4209   -1.0671   -0.6826 C   0  0  0  0  0  0  0  0  0  0  0  0
    3.8412    1.4964    0.7013 C   0  0  0  0  0  0  0  0  0  0  0  0
   -4.6530    1.6224    0.0213 O   0  0  0  0  0  0  0  0  0  0  0  0
   -5.2021   -0.5543    0.1716 N   0  0  0  0  0  0  0  0  0  0  0  0
   -2.8755    0.0685    0.0326 C   0  0  0  0  0  0  0  0  0  0  0  0
    1.0782   -1.0234   -0.0637 N   0  0  0  0  0  0  0  0  0  0  0  0
    2.2400   -0.1869   -0.2818 C   0  0  1  0  0  0  0  0  0  0  0  0
    4.6794   -0.2377   -0.9152 C   0  0  0  0  0  0  0  0  0  0  0  0
    5.0222    0.6198    0.2983 C   0  0  0  0  0  0  0  0  0  0  0  0
    2.5888    0.6607    0.9443 C   0  0  0  0  0  0  0  0  0  0  0  0
   -3.0476   -1.9747    0.7116 H   0  0  0  0  0  0  0  0  0  0  0  0
   -2.2369    2.0276   -0.5969 H   0  0  0  0  0  0  0  0  0  0  0  0
    0.1405    1.4523   -0.6541 H   0  0  0  0  0  0  0  0  0  0  0  0
    3.6056   -1.7965    0.1148 H   0  0  0  0  0  0  0  0  0  0  0  0
    3.1675   -1.6341   -1.5814 H   0  0  0  0  0  0  0  0  0  0  0  0
    4.0812    2.0723    1.5977 H   0  0  0  0  0  0  0  0  0  0  0  0
    3.6442    2.2257   -0.0921 H   0  0  0  0  0  0  0  0  0  0  0  0
   -6.1857   -0.3398    0.1748 H   0  0  0  0  0  0  0  0  0  0  0  0
   -4.9524   -1.5223    0.0764 H   0  0  0  0  0  0  0  0  0  0  0  0
    1.2374   -1.9527    0.2959 H   0  0  0  0  0  0  0  0  0  0  0  0
    2.0277    0.4841   -1.1223 H   0  0  0  0  0  0  0  0  0  0  0  0
    5.5128   -0.8991   -1.1617 H   0  0  0  0  0  0  0  0  0  0  0  0
    4.5288    0.4102   -1.7851 H   0  0  0  0  0  0  0  0  0  0  0  0
    5.8971    1.2389    0.0859 H   0  0  0  0  0  0  0  0  0  0  0  0
    5.2971   -0.0275    1.1381 H   0  0  0  0  0  0  0  0  0  0  0  0
    2.7486   -0.0103    1.7950 H   0  0  0  0  0  0  0  0  0  0  0  0
    1.7470    1.3070    1.2066 H   0  0  0  0  0  0  0  0  0  0  0  0
   -4.3092    0.4464    0.0718 C   0  0  0  0  0  0  0  0  0  0  0  0
  5  4  2  0
  5  2  1  0
  4 10  1  0
  8 33  2  0
 11  2  1  0
 11 12  1  0
  2  1  2  0
 10 33  1  0
 10  3  2  0
 33  9  1  0
  6 12  1  0
  6 13  1  0
 12 15  1  0
  1  3  1  0
 15  7  1  0
 13 14  1  0
 14  7  1  0
  3 16  1  0
  4 17  1  0
  5 18  1  0
  6 19  1  0
  6 20  1  0
  7 21  1  0
  7 22  1  0
  9 23  1  0
  9 24  1  0
 11 25  1  0
 12 26  1  6
 13 27  1  0
 13 28  1  0
 14 29  1  0
 14 30  1  0
 15 31  1  0
 15 32  1  0
M  END
