
     RDKit          3D

 35 36  0  0  0  0  0  0  0  0999 V2000
    2.3254    1.9389    0.2270 C   0  0  0  0  0  0  0  0  0  0  0  0
    3.4661    1.1615    0.6816 N   0  0  0  0  0  0  0  0  0  0  0  0
    3.1216   -0.1925    1.0974 C   0  0  0  0  0  0  0  0  0  0  0  0
    3.2665   -1.2308   -0.0133 C   0  0  0  0  0  0  0  0  0  0  0  0
    2.7105   -0.7677   -1.3648 C   0  0  0  0  0  0  0  0  0  0  0  0
    1.5553    0.1071   -1.2791 N   0  0  0  0  0  0  0  0  0  0  0  0
    1.8705    1.5187   -1.1639 C   0  0  0  0  0  0  0  0  0  0  0  0
   -2.0922   -1.4864   -0.1355 C   0  0  0  0  0  0  0  0  0  0  0  0
   -1.9525   -0.1005   -0.1601 C   0  0  0  0  0  0  0  0  0  0  0  0
   -0.7270    0.4488   -0.5196 C   0  0  0  0  0  0  0  0  0  0  0  0
    0.3427   -0.3811   -0.8695 C   0  0  0  0  0  0  0  0  0  0  0  0
    0.0896   -1.7709   -0.8013 C   0  0  0  0  0  0  0  0  0  0  0  0
   -1.0743   -2.2789   -0.4528 N   0  0  0  0  0  0  0  0  0  0  0  0
   -4.1982    0.2737    0.5467 C   0  0  0  0  0  0  0  0  0  0  0  0
   -5.1011    1.4565    0.8047 C   0  0  0  0  0  0  0  0  0  0  0  0
    1.4777    1.8744    0.9275 H   0  0  0  0  0  0  0  0  0  0  0  0
    2.6149    2.9914    0.1810 H   0  0  0  0  0  0  0  0  0  0  0  0
    3.8841    1.6454    1.4636 H   0  0  0  0  0  0  0  0  0  0  0  0
    3.7779   -0.4816    1.9204 H   0  0  0  0  0  0  0  0  0  0  0  0
    2.0984   -0.2347    1.5000 H   0  0  0  0  0  0  0  0  0  0  0  0
    4.3201   -1.4833   -0.1573 H   0  0  0  0  0  0  0  0  0  0  0  0
    2.7751   -2.1493    0.3161 H   0  0  0  0  0  0  0  0  0  0  0  0
    3.4792   -0.2051   -1.8932 H   0  0  0  0  0  0  0  0  0  0  0  0
    2.4884   -1.6282   -2.0000 H   0  0  0  0  0  0  0  0  0  0  0  0
    1.0179    2.1231   -1.4771 H   0  0  0  0  0  0  0  0  0  0  0  0
    2.6680    1.7316   -1.8782 H   0  0  0  0  0  0  0  0  0  0  0  0
   -3.0183   -1.9724    0.1457 H   0  0  0  0  0  0  0  0  0  0  0  0
   -0.6351    1.5264   -0.5161 H   0  0  0  0  0  0  0  0  0  0  0  0
    0.8656   -2.4891   -1.0362 H   0  0  0  0  0  0  0  0  0  0  0  0
   -4.6191   -0.3621   -0.2394 H   0  0  0  0  0  0  0  0  0  0  0  0
   -4.1000   -0.3374    1.4502 H   0  0  0  0  0  0  0  0  0  0  0  0
   -5.2339    2.0587   -0.0943 H   0  0  0  0  0  0  0  0  0  0  0  0
   -6.0823    1.1009    1.1173 H   0  0  0  0  0  0  0  0  0  0  0  0
   -4.7071    2.0932    1.5968 H   0  0  0  0  0  0  0  0  0  0  0  0
   -2.9263    0.7720    0.1504 O   0  0  0  0  0  0  0  0  0  0  0  0
  3  4  1  0
  3  2  1  0
  4  5  1  0
  2  1  1  0
  5  6  1  0
  1  7  1  0
 14 15  1  0
 14 35  1  0
  6  7  1  0
  6 11  1  0
 10 11  2  0
 10  9  1  0
 35  9  1  0
 11 12  1  0
  9  8  2  0
 12 13  2  0
  8 13  1  0
  1 16  1  0
  1 17  1  0
  2 18  1  0
  3 19  1  0
  3 20  1  0
  4 21  1  0
  4 22  1  0
  5 23  1  0
  5 24  1  0
  7 25  1  0
  7 26  1  0
  8 27  1  0
 10 28  1  0
 12 29  1  0
 14 30  1  0
 14 31  1  0
 15 32  1  0
 15 33  1  0
 15 34  1  0
M  END
