
     RDKit          3D

 61 61  0  0  0  0  0  0  0  0999 V2000
    3.8104   -0.3289   -7.0708 C   0  0  0  0  0  0  0  0  0  0  0  0
    2.4393   -0.0284   -7.0816 O   0  0  0  0  0  0  0  0  0  0  0  0
    2.1269    1.0809   -6.2792 C   0  0  0  0  0  0  0  0  0  0  0  0
    0.6437    1.3432   -6.3227 C   0  0  0  0  0  0  0  0  0  0  0  0
   -0.0470    0.2802   -5.7170 O   0  0  0  0  0  0  0  0  0  0  0  0
   -1.4369    0.4808   -5.6969 C   0  0  0  0  0  0  0  0  0  0  0  0
   -2.1114   -0.6696   -4.9952 C   0  0  0  0  0  0  0  0  0  0  0  0
   -1.6983   -0.7093   -3.6522 O   0  0  0  0  0  0  0  0  0  0  0  0
   -2.3906   -1.6658   -2.8951 C   0  0  0  0  0  0  0  0  0  0  0  0
   -1.8160   -1.7189   -1.5040 C   0  0  0  0  0  0  0  0  0  0  0  0
   -2.0101   -0.4618   -0.8850 O   0  0  0  0  0  0  0  0  0  0  0  0
   -1.5024   -0.2681    0.3496 C   0  0  0  0  0  0  0  0  0  0  0  0
   -1.5963    1.0246    0.8684 C   0  0  0  0  0  0  0  0  0  0  0  0
   -1.1032    1.3086    2.1260 C   0  0  0  0  0  0  0  0  0  0  0  0
   -0.9094   -1.2524    1.1278 C   0  0  0  0  0  0  0  0  0  0  0  0
   -0.4196   -0.9413    2.3957 C   0  0  0  0  0  0  0  0  0  0  0  0
   -0.4919    0.3388    2.9320 C   0  0  0  0  0  0  0  0  0  0  0  0
    0.0147    0.7289    4.3309 C   0  0  1  0  0  0  0  0  0  0  0  0
    0.9952    1.8990    4.1833 C   0  0  0  0  0  0  0  0  0  0  0  0
   -1.2139    1.1915    5.1310 C   0  0  0  0  0  0  0  0  0  0  0  0
    0.6799   -0.4952    4.9972 C   0  0  0  0  0  0  0  0  0  0  0  0
    1.5187   -0.4375    6.2997 C   0  0  1  0  0  0  0  0  0  0  0  0
    0.8540    0.2960    7.4648 C   0  0  0  0  0  0  0  0  0  0  0  0
    1.7084   -1.9034    6.7215 C   0  0  0  0  0  0  0  0  0  0  0  0
    2.9175    0.1430    6.0620 C   0  0  0  0  0  0  0  0  0  0  0  0
    3.9734   -1.1907   -7.7173 H   0  0  0  0  0  0  0  0  0  0  0  0
    4.4193    0.5034   -7.4451 H   0  0  0  0  0  0  0  0  0  0  0  0
    4.1700   -0.5786   -6.0652 H   0  0  0  0  0  0  0  0  0  0  0  0
    2.4478    0.9196   -5.2395 H   0  0  0  0  0  0  0  0  0  0  0  0
    2.6434    1.9847   -6.6330 H   0  0  0  0  0  0  0  0  0  0  0  0
    0.4488    2.2894   -5.7982 H   0  0  0  0  0  0  0  0  0  0  0  0
    0.3182    1.4850   -7.3636 H   0  0  0  0  0  0  0  0  0  0  0  0
   -1.6912    1.4243   -5.1927 H   0  0  0  0  0  0  0  0  0  0  0  0
   -1.8429    0.5470   -6.7160 H   0  0  0  0  0  0  0  0  0  0  0  0
   -3.1973   -0.5217   -5.0745 H   0  0  0  0  0  0  0  0  0  0  0  0
   -1.8796   -1.6155   -5.5055 H   0  0  0  0  0  0  0  0  0  0  0  0
   -3.4651   -1.4377   -2.8541 H   0  0  0  0  0  0  0  0  0  0  0  0
   -2.2946   -2.6709   -3.3284 H   0  0  0  0  0  0  0  0  0  0  0  0
   -2.3230   -2.5158   -0.9487 H   0  0  0  0  0  0  0  0  0  0  0  0
   -0.7497   -1.9685   -1.5456 H   0  0  0  0  0  0  0  0  0  0  0  0
   -2.0594    1.8058    0.2778 H   0  0  0  0  0  0  0  0  0  0  0  0
   -1.2062    2.3261    2.4832 H   0  0  0  0  0  0  0  0  0  0  0  0
   -0.8158   -2.2722    0.7790 H   0  0  0  0  0  0  0  0  0  0  0  0
    0.0257   -1.7522    2.9543 H   0  0  0  0  0  0  0  0  0  0  0  0
    1.9026    1.5933    3.6599 H   0  0  0  0  0  0  0  0  0  0  0  0
    0.5537    2.7250    3.6248 H   0  0  0  0  0  0  0  0  0  0  0  0
    1.2831    2.2972    5.1559 H   0  0  0  0  0  0  0  0  0  0  0  0
   -1.9361    0.3803    5.2452 H   0  0  0  0  0  0  0  0  0  0  0  0
   -0.9447    1.5423    6.1241 H   0  0  0  0  0  0  0  0  0  0  0  0
   -1.7249    2.0156    4.6308 H   0  0  0  0  0  0  0  0  0  0  0  0
   -0.1158   -1.2309    5.1612 H   0  0  0  0  0  0  0  0  0  0  0  0
    1.3505   -0.9516    4.2613 H   0  0  0  0  0  0  0  0  0  0  0  0
    1.4381    0.1489    8.3766 H   0  0  0  0  0  0  0  0  0  0  0  0
    0.7862    1.3725    7.3026 H   0  0  0  0  0  0  0  0  0  0  0  0
   -0.1532   -0.0794    7.6553 H   0  0  0  0  0  0  0  0  0  0  0  0
    0.7563   -2.3715    6.9811 H   0  0  0  0  0  0  0  0  0  0  0  0
    2.1581   -2.4914    5.9178 H   0  0  0  0  0  0  0  0  0  0  0  0
    2.3646   -1.9769    7.5916 H   0  0  0  0  0  0  0  0  0  0  0  0
    2.9040    1.2064    5.8325 H   0  0  0  0  0  0  0  0  0  0  0  0
    3.5360    0.0131    6.9531 H   0  0  0  0  0  0  0  0  0  0  0  0
    3.4180   -0.3691    5.2365 H   0  0  0  0  0  0  0  0  0  0  0  0
  1  2  1  0
  1 26  1  0
  1 27  1  0
  1 28  1  0
  2  3  1  0
  3  4  1  0
  3 29  1  0
  3 30  1  0
  4  5  1  0
  4 31  1  0
  4 32  1  0
  5  6  1  0
  6  7  1  0
  6 33  1  0
  6 34  1  0
  7  8  1  0
  7 35  1  0
  7 36  1  0
  8  9  1  0
  9 10  1  0
  9 37  1  0
  9 38  1  0
 10 11  1  0
 10 39  1  0
 10 40  1  0
 11 12  1  0
 12 13  2  0
 12 15  1  0
 13 14  1  0
 13 41  1  0
 14 17  2  0
 14 42  1  0
 15 16  2  0
 15 43  1  0
 16 17  1  0
 16 44  1  0
 17 18  1  0
 18 19  1  6
 18 20  1  0
 18 21  1  0
 19 45  1  0
 19 46  1  0
 19 47  1  0
 20 48  1  0
 20 49  1  0
 20 50  1  0
 22 21  1  6
 21 51  1  0
 21 52  1  0
 22 23  1  0
 22 24  1  0
 22 25  1  0
 23 53  1  0
 23 54  1  0
 23 55  1  0
 24 56  1  0
 24 57  1  0
 24 58  1  0
 25 59  1  0
 25 60  1  0
 25 61  1  0
M  END
