
     RDKit          3D

 24 25  0  0  0  0  0  0  0  0999 V2000
   -1.6916    1.0705   -0.0283 C   0  0  0  0  0  0  0  0  0  0  0  0
   -4.1798    0.7755   -0.1913 C   0  0  0  0  0  0  0  0  0  0  0  0
   -2.7936    0.2171   -0.0464 C   0  0  0  0  0  0  0  0  0  0  0  0
   -2.5724   -1.1525    0.0565 C   0  0  0  0  0  0  0  0  0  0  0  0
   -1.2855   -1.6689    0.1614 C   0  0  0  0  0  0  0  0  0  0  0  0
   -0.2029   -0.8108    0.1847 C   0  0  0  0  0  0  0  0  0  0  0  0
    1.0595   -1.2815    0.3360 O   0  0  0  0  0  0  0  0  0  0  0  0
    2.0592   -0.5455   -0.3614 C   0  0  2  0  0  0  0  0  0  0  0  0
    3.4021   -1.1447   -0.0189 C   0  0  0  0  0  0  0  0  0  0  0  0
    1.9749    0.9385   -0.0187 C   0  0  0  0  0  0  0  0  0  0  0  0
    2.9515    1.6599    0.0343 O   0  0  0  0  0  0  0  0  0  0  0  0
    0.7136    1.3892    0.1686 N   0  0  0  0  0  0  0  0  0  0  0  0
   -0.4075    0.5646    0.0921 C   0  0  0  0  0  0  0  0  0  0  0  0
   -1.8323    2.1434   -0.0988 H   0  0  0  0  0  0  0  0  0  0  0  0
   -4.3380    1.1833   -1.1913 H   0  0  0  0  0  0  0  0  0  0  0  0
   -4.9355    0.0089   -0.0261 H   0  0  0  0  0  0  0  0  0  0  0  0
   -4.3623    1.5840    0.5174 H   0  0  0  0  0  0  0  0  0  0  0  0
   -3.4130   -1.8347    0.0449 H   0  0  0  0  0  0  0  0  0  0  0  0
   -1.1254   -2.7367    0.2397 H   0  0  0  0  0  0  0  0  0  0  0  0
    1.8813   -0.6266   -1.4438 H   0  0  0  0  0  0  0  0  0  0  0  0
    3.4189   -2.2002   -0.2868 H   0  0  0  0  0  0  0  0  0  0  0  0
    4.1909   -0.6472   -0.5783 H   0  0  0  0  0  0  0  0  0  0  0  0
    3.6218   -1.0501    1.0444 H   0  0  0  0  0  0  0  0  0  0  0  0
    0.5809    2.3812    0.3120 H   0  0  0  0  0  0  0  0  0  0  0  0
  9  8  1  0
  8  7  1  0
  8 10  1  0
  7  6  1  0
 11 10  2  0
 10 12  1  0
  6  5  2  0
  6 13  1  0
  5  4  1  0
 12 13  1  0
 13  1  2  0
  4  3  2  0
  1  3  1  0
  3  2  1  0
  1 14  1  0
  2 15  1  0
  2 16  1  0
  2 17  1  0
  4 18  1  0
  5 19  1  0
  8 20  1  6
  9 21  1  0
  9 22  1  0
  9 23  1  0
 12 24  1  0
M  END
