
     RDKit          3D

 47 47  0  0  0  0  0  0  0  0999 V2000
   -1.3014    2.4406   -1.8204 S   0  0  0  0  0  0  0  0  0  0  0  0
   -1.2589    1.1607   -0.6039 C   0  0  0  0  0  0  0  0  0  0  0  0
   -0.0703    0.2560   -0.7791 C   0  0  0  0  0  0  0  0  0  0  0  0
    1.1469    0.8448   -0.0880 C   0  0  0  0  0  0  0  0  0  0  0  0
    2.2789    0.0150   -0.4045 O   0  0  0  0  0  0  0  0  0  0  0  0
    3.5481   -0.0274    0.5452 P   0  0  2  0  0  0  0  0  0  0  0  0
    4.3274   -1.2013   -0.2498 O   0  0  0  0  0  0  0  0  0  0  0  0
    5.9174   -1.5180   -0.1889 P   0  0  1  0  0  0  0  0  0  0  0  0
    6.5523   -1.2466    1.1079 O   0  0  0  0  0  0  0  0  0  0  0  0
    5.8175   -3.0147   -0.7029 O   0  0  0  0  0  0  0  0  0  0  0  0
    6.5633   -0.6314   -1.3366 O   0  0  0  0  0  0  0  0  0  0  0  0
    3.3259   -0.2671    1.9766 O   0  0  0  0  0  0  0  0  0  0  0  0
    4.3931    1.2996    0.3132 O   0  0  0  0  0  0  0  0  0  0  0  0
   -2.1592    1.0076    0.3720 C   0  0  0  0  0  0  0  0  0  0  0  0
   -2.0744   -0.0512    1.4331 C   0  0  0  0  0  0  0  0  0  0  0  0
   -3.3217    1.8306    0.4033 N   0  0  0  0  0  0  0  0  0  0  0  0
   -3.4769    2.7474    1.3813 C   0  0  0  0  0  0  0  0  0  0  0  0
   -2.6440    3.0089    2.2252 O   0  0  0  0  0  0  0  0  0  0  0  0
   -4.3836    1.5566   -0.5627 C   0  0  0  0  0  0  0  0  0  0  0  0
   -4.8142    0.1256   -0.5302 C   0  0  0  0  0  0  0  0  0  0  0  0
   -5.5410   -0.4445    0.5366 C   0  0  0  0  0  0  0  0  0  0  0  0
   -5.9274    0.2726    1.6058 N   0  0  0  0  0  0  0  0  0  0  0  0
   -5.8404   -1.7455    0.5390 N   0  0  0  0  0  0  0  0  0  0  0  0
   -5.4395   -2.4851   -0.4848 C   0  0  0  0  0  0  0  0  0  0  0  0
   -5.8121   -3.9342   -0.4720 C   0  0  0  0  0  0  0  0  0  0  0  0
   -4.7560   -2.0457   -1.5358 N   0  0  0  0  0  0  0  0  0  0  0  0
   -4.4577   -0.7479   -1.5306 C   0  0  0  0  0  0  0  0  0  0  0  0
   -2.0542    3.3332   -1.1677 H   0  0  0  0  0  0  0  0  0  0  0  0
   -0.2828   -0.7363   -0.3809 H   0  0  0  0  0  0  0  0  0  0  0  0
    0.1430    0.1272   -1.8439 H   0  0  0  0  0  0  0  0  0  0  0  0
    1.3398    1.8598   -0.4395 H   0  0  0  0  0  0  0  0  0  0  0  0
    0.9894    0.8792    0.9924 H   0  0  0  0  0  0  0  0  0  0  0  0
    6.6629   -3.4846   -0.7363 H   0  0  0  0  0  0  0  0  0  0  0  0
    6.2578   -0.7982   -2.2393 H   0  0  0  0  0  0  0  0  0  0  0  0
    4.5034    1.5979   -0.6005 H   0  0  0  0  0  0  0  0  0  0  0  0
   -2.6121   -0.9520    1.1272 H   0  0  0  0  0  0  0  0  0  0  0  0
   -1.0490   -0.3373    1.6577 H   0  0  0  0  0  0  0  0  0  0  0  0
   -2.5242    0.2941    2.3621 H   0  0  0  0  0  0  0  0  0  0  0  0
   -4.4515    3.2586    1.3313 H   0  0  0  0  0  0  0  0  0  0  0  0
   -5.2111    2.2399   -0.3531 H   0  0  0  0  0  0  0  0  0  0  0  0
   -4.0377    1.7997   -1.5701 H   0  0  0  0  0  0  0  0  0  0  0  0
   -5.9574    1.2761    1.5742 H   0  0  0  0  0  0  0  0  0  0  0  0
   -6.5546   -0.1613    2.2628 H   0  0  0  0  0  0  0  0  0  0  0  0
   -6.6636   -4.1058   -1.1340 H   0  0  0  0  0  0  0  0  0  0  0  0
   -4.9912   -4.5489   -0.8382 H   0  0  0  0  0  0  0  0  0  0  0  0
   -6.0911   -4.2628    0.5261 H   0  0  0  0  0  0  0  0  0  0  0  0
   -3.8907   -0.3764   -2.3804 H   0  0  0  0  0  0  0  0  0  0  0  0
 25 24  1  0
 26 24  2  0
 26 27  1  0
 24 23  1  0
 27 20  2  0
 23 21  2  0
 20 21  1  0
 20 19  1  0
 21 22  1  0
 15 14  1  0
 19 16  1  0
 14 16  1  0
 14  2  2  0
 16 17  1  0
 12  6  2  0
  6  5  1  6
  5  4  1  0
  3  2  1  0
  3  4  1  0
 13  6  1  0
  2  1  1  0
  6  7  1  0
 17 18  2  0
  8  7  1  1
  9  8  2  0
  8 10  1  0
  8 11  1  0
  1 28  1  0
  3 29  1  0
  3 30  1  0
  4 31  1  0
  4 32  1  0
 10 33  1  0
 11 34  1  0
 13 35  1  0
 15 36  1  0
 15 37  1  0
 15 38  1  0
 17 39  1  0
 19 40  1  0
 19 41  1  0
 22 42  1  0
 22 43  1  0
 25 44  1  0
 25 45  1  0
 25 46  1  0
 27 47  1  0
M  END
