
     RDKit          3D

 68 72  0  0  0  0  0  0  0  0999 V2000
    8.4160    1.0910    0.4062 C   0  0  0  0  0  0  0  0  0  0  0  0
    9.7075    1.5619    0.5831 C   0  0  0  0  0  0  0  0  0  0  0  0
    9.9243    3.2487    0.9439 Cl  0  0  0  0  0  0  0  0  0  0  0  0
   10.8183    0.7442    0.4986 C   0  0  0  0  0  0  0  0  0  0  0  0
   10.5945   -0.5985    0.2177 C   0  0  0  0  0  0  0  0  0  0  0  0
    9.3210   -1.0981    0.0246 C   0  0  0  0  0  0  0  0  0  0  0  0
    8.1931   -0.2615    0.1060 C   0  0  0  0  0  0  0  0  0  0  0  0
    6.9195   -0.7527   -0.1326 N   0  0  0  0  0  0  0  0  0  0  0  0
    6.5842   -2.0792    0.3659 C   0  0  0  0  0  0  0  0  0  0  0  0
    5.3393   -2.6182   -0.3080 C   0  0  0  0  0  0  0  0  0  0  0  0
    5.7982    0.1635   -0.0584 C   0  0  0  0  0  0  0  0  0  0  0  0
    4.5598   -0.4324   -0.7019 C   0  0  0  0  0  0  0  0  0  0  0  0
    4.2240   -1.7150   -0.1200 N   0  0  0  0  0  0  0  0  0  0  0  0
    2.9871   -2.2641   -0.6422 C   0  0  0  0  0  0  0  0  0  0  0  0
    1.7491   -1.5314   -0.1430 C   0  0  0  0  0  0  0  0  0  0  0  0
    0.4783   -2.2819   -0.5268 C   0  0  0  0  0  0  0  0  0  0  0  0
   -0.7240   -1.6287   -0.0627 N   0  0  0  0  0  0  0  0  0  0  0  0
   -1.4871   -0.8236   -0.8208 C   0  0  0  0  0  0  0  0  0  0  0  0
   -1.2401   -0.5803   -1.9946 O   0  0  0  0  0  0  0  0  0  0  0  0
   -2.7184   -0.2785   -0.1179 C   0  0  2  0  0  0  0  0  0  0  0  0
   -3.8422   -1.3189   -0.1438 C   0  0  0  0  0  0  0  0  0  0  0  0
   -5.1057   -0.7916    0.5169 C   0  0  0  0  0  0  0  0  0  0  0  0
   -3.2171    1.0136   -0.7484 C   0  0  0  0  0  0  0  0  0  0  0  0
   -4.4854    1.4926   -0.0631 C   0  0  0  0  0  0  0  0  0  0  0  0
   -5.5200    0.4641   -0.0886 N   0  0  0  0  0  0  0  0  0  0  0  0
   -6.8400    0.8072   -0.0443 C   0  0  0  0  0  0  0  0  0  0  0  0
   -7.6519    0.0178    0.6081 N   0  0  0  0  0  0  0  0  0  0  0  0
   -8.9500    0.3382    0.5377 N   0  0  0  0  0  0  0  0  0  0  0  0
   -9.9806   -0.3354    1.1004 C   0  0  0  0  0  0  0  0  0  0  0  0
   -9.8220   -1.5754    1.8891 C   0  0  0  0  0  0  0  0  0  0  0  0
  -11.0916    0.3057    0.8249 N   0  0  0  0  0  0  0  0  0  0  0  0
  -10.8088    1.3958    0.0865 N   0  0  0  0  0  0  0  0  0  0  0  0
   -9.5070    1.4142   -0.0862 C   0  0  0  0  0  0  0  0  0  0  0  0
   -8.6243    2.2806   -0.7768 C   0  0  0  0  0  0  0  0  0  0  0  0
   -7.3100    1.9768   -0.7599 C   0  0  0  0  0  0  0  0  0  0  0  0
    7.5973    1.7863    0.5147 H   0  0  0  0  0  0  0  0  0  0  0  0
   11.8171    1.1306    0.6431 H   0  0  0  0  0  0  0  0  0  0  0  0
   11.4387   -1.2709    0.1388 H   0  0  0  0  0  0  0  0  0  0  0  0
    9.2154   -2.1469   -0.2122 H   0  0  0  0  0  0  0  0  0  0  0  0
    7.3957   -2.7763    0.1738 H   0  0  0  0  0  0  0  0  0  0  0  0
    6.4251   -2.0521    1.4531 H   0  0  0  0  0  0  0  0  0  0  0  0
    5.5521   -2.7947   -1.3764 H   0  0  0  0  0  0  0  0  0  0  0  0
    5.1020   -3.5860    0.1391 H   0  0  0  0  0  0  0  0  0  0  0  0
    5.5768    0.4461    0.9812 H   0  0  0  0  0  0  0  0  0  0  0  0
    6.0357    1.0775   -0.6027 H   0  0  0  0  0  0  0  0  0  0  0  0
    3.7398    0.2727   -0.5576 H   0  0  0  0  0  0  0  0  0  0  0  0
    4.7258   -0.5166   -1.7901 H   0  0  0  0  0  0  0  0  0  0  0  0
    2.9853   -2.2890   -1.7455 H   0  0  0  0  0  0  0  0  0  0  0  0
    2.9242   -3.3063   -0.3151 H   0  0  0  0  0  0  0  0  0  0  0  0
    1.8075   -1.4418    0.9449 H   0  0  0  0  0  0  0  0  0  0  0  0
    1.6976   -0.5174   -0.5468 H   0  0  0  0  0  0  0  0  0  0  0  0
    0.4143   -2.3927   -1.6091 H   0  0  0  0  0  0  0  0  0  0  0  0
    0.5026   -3.2893   -0.1059 H   0  0  0  0  0  0  0  0  0  0  0  0
   -0.9611   -1.7344    0.9106 H   0  0  0  0  0  0  0  0  0  0  0  0
   -2.4649   -0.0818    0.9312 H   0  0  0  0  0  0  0  0  0  0  0  0
   -4.0635   -1.5949   -1.1787 H   0  0  0  0  0  0  0  0  0  0  0  0
   -3.5405   -2.2300    0.3763 H   0  0  0  0  0  0  0  0  0  0  0  0
   -5.9039   -1.5217    0.4057 H   0  0  0  0  0  0  0  0  0  0  0  0
   -4.9390   -0.6608    1.5948 H   0  0  0  0  0  0  0  0  0  0  0  0
   -2.4636    1.7995   -0.6687 H   0  0  0  0  0  0  0  0  0  0  0  0
   -3.4169    0.8613   -1.8108 H   0  0  0  0  0  0  0  0  0  0  0  0
   -4.2666    1.7648    0.9779 H   0  0  0  0  0  0  0  0  0  0  0  0
   -4.8334    2.3962   -0.5560 H   0  0  0  0  0  0  0  0  0  0  0  0
   -9.2349   -1.3968    2.7908 H   0  0  0  0  0  0  0  0  0  0  0  0
  -10.7995   -1.9501    2.1818 H   0  0  0  0  0  0  0  0  0  0  0  0
   -9.3117   -2.3478    1.3133 H   0  0  0  0  0  0  0  0  0  0  0  0
   -9.0091    3.1368   -1.3121 H   0  0  0  0  0  0  0  0  0  0  0  0
   -6.6161    2.5905   -1.3129 H   0  0  0  0  0  0  0  0  0  0  0  0
 30 29  1  0
 31 29  2  0
 31 32  1  0
 29 28  1  0
 32 33  2  0
 28 33  1  0
 28 27  1  0
 33 34  1  0
 27 26  2  0
 34 35  2  0
 26 35  1  0
 26 25  1  0
 22 25  1  0
 22 21  1  0
 25 24  1  0
 21 20  1  0
 24 23  1  0
 23 20  1  0
 20 18  1  0
 18 19  2  0
 18 17  1  0
 17 16  1  0
 16 15  1  0
 15 14  1  0
  5  6  2  0
  5  4  1  0
 10  9  1  0
 10 13  1  0
  6  7  1  0
  9  8  1  0
  4  2  2  0
 14 13  1  0
 13 12  1  0
  7  8  1  0
  7  1  2  0
  8 11  1  0
  2  1  1  0
  2  3  1  0
 12 11  1  0
  1 36  1  0
  4 37  1  0
  5 38  1  0
  6 39  1  0
  9 40  1  0
  9 41  1  0
 10 42  1  0
 10 43  1  0
 11 44  1  0
 11 45  1  0
 12 46  1  0
 12 47  1  0
 14 48  1  0
 14 49  1  0
 15 50  1  0
 15 51  1  0
 16 52  1  0
 16 53  1  0
 17 54  1  0
 20 55  1  1
 21 56  1  0
 21 57  1  0
 22 58  1  0
 22 59  1  0
 23 60  1  0
 23 61  1  0
 24 62  1  0
 24 63  1  0
 30 64  1  0
 30 65  1  0
 30 66  1  0
 34 67  1  0
 35 68  1  0
M  END
