
     RDKit          3D

 27 28  0  0  0  0  0  0  0  0999 V2000
    1.8057   -1.4553   -0.1895 C   0  0  0  0  0  0  0  0  0  0  0  0
   -4.4547    0.1417    0.4847 C   0  0  0  0  0  0  0  0  0  0  0  0
   -0.9832    0.9922    0.2568 C   0  0  0  0  0  0  0  0  0  0  0  0
    0.3428    0.4230    0.1053 C   0  0  0  0  0  0  0  0  0  0  0  0
   -1.4321    2.2715    0.3830 C   0  0  0  0  0  0  0  0  0  0  0  0
   -3.1616    0.8678    0.4222 C   0  0  0  0  0  0  0  0  0  0  0  0
   -2.8478    2.1868    0.4878 C   0  0  0  0  0  0  0  0  0  0  0  0
    0.5243   -0.9532   -0.0438 C   0  0  0  0  0  0  0  0  0  0  0  0
    1.4571    1.2655    0.1067 C   0  0  0  0  0  0  0  0  0  0  0  0
    2.7195    0.7252   -0.0404 C   0  0  0  0  0  0  0  0  0  0  0  0
    2.9242   -0.6385   -0.1916 C   0  0  0  0  0  0  0  0  0  0  0  0
   -5.9124   -1.4159   -0.6279 C   0  0  0  0  0  0  0  0  0  0  0  0
   -4.6819   -0.6540   -0.7066 N   0  0  0  0  0  0  0  0  0  0  0  0
   -2.0327    0.1421    0.2818 O   0  0  0  0  0  0  0  0  0  0  0  0
    2.0208   -3.1620   -0.3762 Cl  0  0  0  0  0  0  0  0  0  0  0  0
    4.0922    1.7775   -0.0354 Cl  0  0  0  0  0  0  0  0  0  0  0  0
   -4.4555   -0.5329    1.3484 H   0  0  0  0  0  0  0  0  0  0  0  0
   -5.2414    0.8859    0.6773 H   0  0  0  0  0  0  0  0  0  0  0  0
   -0.8339    3.1687    0.3942 H   0  0  0  0  0  0  0  0  0  0  0  0
   -3.5457    3.0015    0.5944 H   0  0  0  0  0  0  0  0  0  0  0  0
   -0.3186   -1.6293   -0.0498 H   0  0  0  0  0  0  0  0  0  0  0  0
    1.3387    2.3340    0.2215 H   0  0  0  0  0  0  0  0  0  0  0  0
    3.9181   -1.0467   -0.3071 H   0  0  0  0  0  0  0  0  0  0  0  0
   -6.0662   -1.9577   -1.5607 H   0  0  0  0  0  0  0  0  0  0  0  0
   -5.8395   -2.1521    0.1745 H   0  0  0  0  0  0  0  0  0  0  0  0
   -6.8089   -0.8095   -0.4382 H   0  0  0  0  0  0  0  0  0  0  0  0
   -4.7239   -0.0386   -1.5094 H   0  0  0  0  0  0  0  0  0  0  0  0
 16 10  1  0
 11 10  1  0
 11  1  2  0
 10  9  2  0
 15  1  1  0
  1  8  1  0
  9  4  1  0
  8  4  2  0
  4  3  1  0
  3  5  2  0
  3 14  1  0
  5  7  1  0
 14  6  1  0
  7  6  2  0
  6  2  1  0
  2 13  1  0
 13 12  1  0
  2 17  1  0
  2 18  1  0
  5 19  1  0
  7 20  1  0
  8 21  1  0
  9 22  1  0
 11 23  1  0
 12 24  1  0
 12 25  1  0
 12 26  1  0
 13 27  1  0
M  END
