
     RDKit          3D

 38 40  0  0  0  0  0  0  0  0999 V2000
    1.5400   -0.2976   -0.5431 C   0  0  0  0  0  0  0  0  0  0  0  0
    2.6708    0.4891   -0.7311 C   0  0  0  0  0  0  0  0  0  0  0  0
    3.8858    0.2001   -0.1170 C   0  0  0  0  0  0  0  0  0  0  0  0
    3.9411   -0.9178    0.7076 C   0  0  0  0  0  0  0  0  0  0  0  0
    2.8222   -1.7172    0.8922 C   0  0  0  0  0  0  0  0  0  0  0  0
    1.6079   -1.4327    0.2746 C   0  0  0  0  0  0  0  0  0  0  0  0
    0.2738    0.0766   -1.2688 C   0  0  0  0  0  0  0  0  0  0  0  0
    0.4309   -2.3409    0.4850 C   0  0  0  0  0  0  0  0  0  0  0  0
   -0.8657    0.3000   -0.3943 N   0  0  0  0  0  0  0  0  0  0  0  0
   -2.8585    0.1996    0.5483 C   0  0  0  0  0  0  0  0  0  0  0  0
   -4.1770   -0.2197    0.7235 C   0  0  0  0  0  0  0  0  0  0  0  0
   -4.6914   -1.1330   -0.1782 C   0  0  0  0  0  0  0  0  0  0  0  0
   -3.9152   -1.6252   -1.2386 C   0  0  0  0  0  0  0  0  0  0  0  0
   -2.6058   -1.2191   -1.4287 C   0  0  0  0  0  0  0  0  0  0  0  0
    0.5810    2.8265    0.1158 O   0  0  0  0  0  0  0  0  0  0  0  0
   -0.9431    1.1209    0.6952 C   0  0  0  0  0  0  0  0  0  0  0  0
   -2.0947   -0.3004   -0.5173 C   0  0  0  0  0  0  0  0  0  0  0  0
   -2.1093    1.0867    1.2796 N   0  0  0  0  0  0  0  0  0  0  0  0
    5.0824    1.0837   -0.3179 C   0  0  0  0  0  0  0  0  0  0  0  0
    2.6055    1.3492   -1.3885 H   0  0  0  0  0  0  0  0  0  0  0  0
    4.8692   -1.1774    1.2039 H   0  0  0  0  0  0  0  0  0  0  0  0
    2.8979   -2.5935    1.5256 H   0  0  0  0  0  0  0  0  0  0  0  0
    0.4407    0.9624   -1.8813 H   0  0  0  0  0  0  0  0  0  0  0  0
   -0.0053   -0.7257   -1.9535 H   0  0  0  0  0  0  0  0  0  0  0  0
   -0.3169   -1.8991    1.1460 H   0  0  0  0  0  0  0  0  0  0  0  0
   -0.0744   -2.5814   -0.4521 H   0  0  0  0  0  0  0  0  0  0  0  0
    0.7463   -3.2802    0.9373 H   0  0  0  0  0  0  0  0  0  0  0  0
   -4.7758    0.1628    1.5404 H   0  0  0  0  0  0  0  0  0  0  0  0
   -5.7115   -1.4766   -0.0678 H   0  0  0  0  0  0  0  0  0  0  0  0
   -4.3514   -2.3392   -1.9249 H   0  0  0  0  0  0  0  0  0  0  0  0
   -2.0186   -1.6072   -2.2510 H   0  0  0  0  0  0  0  0  0  0  0  0
    1.4870    3.1035    0.2790 H   0  0  0  0  0  0  0  0  0  0  0  0
    1.0091    1.3406    1.5087 H   0  0  0  0  0  0  0  0  0  0  0  0
   -0.1774    2.5316    2.0368 H   0  0  0  0  0  0  0  0  0  0  0  0
    5.1138    1.8777    0.4313 H   0  0  0  0  0  0  0  0  0  0  0  0
    6.0128    0.5229   -0.2335 H   0  0  0  0  0  0  0  0  0  0  0  0
    5.0662    1.5639   -1.2961 H   0  0  0  0  0  0  0  0  0  0  0  0
    0.1843    1.9750    1.1660 C   0  0  0  0  0  0  0  0  0  0  0  0
  8  6  1  0
  5  6  2  0
  5  4  1  0
  6  1  1  0
  4  3  2  0
  1  7  1  0
  1  2  2  0
  3  2  1  0
  3 19  1  0
  7  9  1  0
 14 13  2  0
 14 17  1  0
 13 12  1  0
 17  9  1  0
 17 10  2  0
  9 16  1  0
 12 11  2  0
 16 38  1  0
 16 18  2  0
 10 11  1  0
 10 18  1  0
 38 15  1  0
  2 20  1  0
  4 21  1  0
  5 22  1  0
  7 23  1  0
  7 24  1  0
  8 25  1  0
  8 26  1  0
  8 27  1  0
 11 28  1  0
 12 29  1  0
 13 30  1  0
 14 31  1  0
 15 32  1  0
 38 33  1  0
 38 34  1  0
 19 35  1  0
 19 36  1  0
 19 37  1  0
M  END
