
     RDKit          3D

  9  8  0  0  0  0  0  0  0  0999 V2000
   -0.0405   -0.0026    0.1359 S   0  0  1  0  0  0  0  0  0  0  0  0
   -0.3944   -1.2491    0.7890 O   0  0  0  0  0  0  0  0  0  0  0  0
   -0.4156    1.2364    0.7916 O   0  0  0  0  0  0  0  0  0  0  0  0
    1.6818    0.0075   -0.2540 C   0  0  0  0  0  0  0  0  0  0  0  0
    1.9320   -0.8798   -0.8301 H   0  0  0  0  0  0  0  0  0  0  0  0
    1.9268    0.9099   -0.8082 H   0  0  0  0  0  0  0  0  0  0  0  0
    2.2186   -0.0038    0.6928 H   0  0  0  0  0  0  0  0  0  0  0  0
   -0.6089   -0.0052   -1.3640 O   0  0  0  0  0  0  0  0  0  0  0  0
   -1.5787    0.0697   -1.3779 H   0  0  0  0  0  0  0  0  0  0  0  0
  1  2  2  0
  3  1  2  0
  4  1  1  0
  4  5  1  0
  4  6  1  0
  4  7  1  0
  1  8  1  6
  8  9  1  0
M  END
