
     RDKit          3D

 40 42  0  0  0  0  0  0  0  0999 V2000
   -5.4604    0.1612    0.1468 C   0  0  0  0  0  0  0  0  0  0  0  0
   -4.6475   -0.9430   -0.1294 C   0  0  0  0  0  0  0  0  0  0  0  0
   -3.2894   -0.7188   -0.1116 C   0  0  0  0  0  0  0  0  0  0  0  0
   -2.7230    0.5431    0.1642 C   0  0  0  0  0  0  0  0  0  0  0  0
   -3.5523    1.6281    0.4369 C   0  0  0  0  0  0  0  0  0  0  0  0
   -4.9198    1.4272    0.4265 C   0  0  0  0  0  0  0  0  0  0  0  0
   -2.2131   -1.5414   -0.3243 N   0  0  0  0  0  0  0  0  0  0  0  0
   -1.0930   -0.7788   -0.1756 C   0  0  0  0  0  0  0  0  0  0  0  0
   -1.3593    0.4741    0.1158 N   0  0  0  0  0  0  0  0  0  0  0  0
    0.1225   -1.3420   -0.3285 N   0  0  0  0  0  0  0  0  0  0  0  0
   -6.8746   -0.0027    0.1470 C   0  0  0  0  0  0  0  0  0  0  0  0
   -8.0209   -0.1332    0.1536 N   0  0  0  0  0  0  0  0  0  0  0  0
    4.0326    0.2414   -0.0656 C   0  0  0  0  0  0  0  0  0  0  0  0
    2.9250    1.0644    0.1002 C   0  0  0  0  0  0  0  0  0  0  0  0
    1.6187    0.5904    0.0226 C   0  0  0  0  0  0  0  0  0  0  0  0
    1.3851   -0.7572   -0.2305 C   0  0  0  0  0  0  0  0  0  0  0  0
    2.4859   -1.6012   -0.4047 C   0  0  0  0  0  0  0  0  0  0  0  0
    3.7724   -1.1077   -0.3232 C   0  0  0  0  0  0  0  0  0  0  0  0
    6.1731    0.0160    1.1906 C   0  0  0  0  0  0  0  0  0  0  0  0
    6.2074    0.4285   -1.2803 C   0  0  0  0  0  0  0  0  0  0  0  0
    5.5501    2.2413    0.2824 C   0  0  0  0  0  0  0  0  0  0  0  0
   -5.0709   -1.9148   -0.3444 H   0  0  0  0  0  0  0  0  0  0  0  0
   -3.1385    2.6035    0.6542 H   0  0  0  0  0  0  0  0  0  0  0  0
   -5.5864    2.2525    0.6365 H   0  0  0  0  0  0  0  0  0  0  0  0
   -2.2446   -2.5234   -0.5520 H   0  0  0  0  0  0  0  0  0  0  0  0
    0.1240   -2.3316   -0.5205 H   0  0  0  0  0  0  0  0  0  0  0  0
    3.0551    2.1192    0.3010 H   0  0  0  0  0  0  0  0  0  0  0  0
    0.7957    1.2738    0.1604 H   0  0  0  0  0  0  0  0  0  0  0  0
    2.3321   -2.6559   -0.6031 H   0  0  0  0  0  0  0  0  0  0  0  0
    4.5897   -1.8045   -0.4647 H   0  0  0  0  0  0  0  0  0  0  0  0
    6.1736   -1.0674    1.0626 H   0  0  0  0  0  0  0  0  0  0  0  0
    7.2146    0.3364    1.2652 H   0  0  0  0  0  0  0  0  0  0  0  0
    5.6856    0.2392    2.1414 H   0  0  0  0  0  0  0  0  0  0  0  0
    5.7354    0.9337   -2.1248 H   0  0  0  0  0  0  0  0  0  0  0  0
    7.2434    0.7685   -1.2204 H   0  0  0  0  0  0  0  0  0  0  0  0
    6.2250   -0.6400   -1.4993 H   0  0  0  0  0  0  0  0  0  0  0  0
    5.0698    2.5260    1.2203 H   0  0  0  0  0  0  0  0  0  0  0  0
    6.5952    2.5500    0.3439 H   0  0  0  0  0  0  0  0  0  0  0  0
    5.0884    2.8164   -0.5228 H   0  0  0  0  0  0  0  0  0  0  0  0
    5.4711    0.7355    0.0306 C   0  0  1  0  0  0  0  0  0  0  0  0
 12 11  3  0
 11  1  1  0
 40 21  1  1
  2  1  2  0
  2  3  1  0
 19 40  1  0
  1  6  1  0
 40 13  1  0
 40 20  1  0
 14 13  2  0
 14 15  1  0
  3  7  1  0
  3  4  2  0
  7  8  1  0
 13 18  1  0
  6  5  2  0
 15 16  2  0
 18 17  2  0
  4  5  1  0
  4  9  1  0
 16 17  1  0
 16 10  1  0
  8 10  1  0
  8  9  2  0
  2 22  1  0
  5 23  1  0
  6 24  1  0
  7 25  1  0
 10 26  1  0
 14 27  1  0
 15 28  1  0
 17 29  1  0
 18 30  1  0
 19 31  1  0
 19 32  1  0
 19 33  1  0
 20 34  1  0
 20 35  1  0
 20 36  1  0
 21 37  1  0
 21 38  1  0
 21 39  1  0
M  END
