
     RDKit          3D

 35 36  0  0  0  0  0  0  0  0999 V2000
    0.4784    0.2001   -5.5826 C   0  0  0  0  0  0  0  0  0  0  0  0
   -0.5119   -0.3005   -4.7492 C   0  0  0  0  0  0  0  0  0  0  0  0
   -1.9689   -0.9507   -5.4318 Cl  0  0  0  0  0  0  0  0  0  0  0  0
   -0.3835   -0.3414   -3.3689 C   0  0  0  0  0  0  0  0  0  0  0  0
    0.7858    0.1404   -2.7838 C   0  0  0  0  0  0  0  0  0  0  0  0
    1.8018    0.6347   -3.6057 C   0  0  0  0  0  0  0  0  0  0  0  0
    1.6467    0.6535   -4.9762 C   0  0  0  0  0  0  0  0  0  0  0  0
    0.3574    0.2464   -7.0689 C   0  0  0  0  0  0  0  0  0  0  0  0
   -0.5904    1.0977   -7.5365 N   0  0  0  0  0  0  0  0  0  0  0  0
    1.1811   -0.4450   -7.7559 N   0  0  0  0  0  0  0  0  0  0  0  0
    1.0222    0.1574   -1.4105 N   0  0  0  0  0  0  0  0  0  0  0  0
    0.1993   -0.2104   -0.3932 C   0  0  0  0  0  0  0  0  0  0  0  0
   -0.9422   -0.5998   -0.5373 O   0  0  0  0  0  0  0  0  0  0  0  0
    0.8514   -0.1209    0.9510 C   0  0  0  0  0  0  0  0  0  0  0  0
    2.0477   -0.7838    1.1774 C   0  0  0  0  0  0  0  0  0  0  0  0
    2.6590   -0.7881    2.4279 C   0  0  0  0  0  0  0  0  0  0  0  0
    3.9491   -1.5198    2.6556 C   0  0  0  0  0  0  0  0  0  0  0  0
    2.0349   -0.0888    3.4504 C   0  0  0  0  0  0  0  0  0  0  0  0
    0.8421    0.5904    3.2326 C   0  0  0  0  0  0  0  0  0  0  0  0
   -0.0179    1.6437    4.8396 I   0  0  0  0  0  0  0  0  0  0  0  0
    0.2217    0.5873    1.9846 C   0  0  0  0  0  0  0  0  0  0  0  0
   -0.9126    1.2280    1.6866 O   0  0  0  0  0  0  0  0  0  0  0  0
   -1.1843   -0.7473   -2.7738 H   0  0  0  0  0  0  0  0  0  0  0  0
    2.7197    1.0069   -3.1678 H   0  0  0  0  0  0  0  0  0  0  0  0
    2.4463    1.0394   -5.5944 H   0  0  0  0  0  0  0  0  0  0  0  0
   -0.8726    1.0394   -8.5015 H   0  0  0  0  0  0  0  0  0  0  0  0
   -1.2782    1.4810   -6.9117 H   0  0  0  0  0  0  0  0  0  0  0  0
    1.0304   -0.3063   -8.7526 H   0  0  0  0  0  0  0  0  0  0  0  0
    1.9195    0.5322   -1.1402 H   0  0  0  0  0  0  0  0  0  0  0  0
    2.5096   -1.3304    0.3630 H   0  0  0  0  0  0  0  0  0  0  0  0
    3.8675   -2.5667    2.3621 H   0  0  0  0  0  0  0  0  0  0  0  0
    4.7595   -1.0818    2.0711 H   0  0  0  0  0  0  0  0  0  0  0  0
    4.2420   -1.4896    3.7038 H   0  0  0  0  0  0  0  0  0  0  0  0
    2.4875   -0.0745    4.4337 H   0  0  0  0  0  0  0  0  0  0  0  0
   -1.2598    1.7282    2.4363 H   0  0  0  0  0  0  0  0  0  0  0  0
  1  2  2  0
  1  7  1  0
  1  8  1  0
  2  3  1  0
  2  4  1  0
  4  5  2  0
  4 23  1  0
  5  6  1  0
  5 11  1  0
  6  7  2  0
  6 24  1  0
  7 25  1  0
  8  9  1  0
  8 10  2  0
  9 26  1  0
  9 27  1  0
 10 28  1  0
 11 12  1  0
 11 29  1  0
 12 13  2  0
 12 14  1  0
 14 15  2  0
 14 21  1  0
 15 16  1  0
 15 30  1  0
 16 17  1  0
 16 18  2  0
 17 31  1  0
 17 32  1  0
 17 33  1  0
 18 19  1  0
 18 34  1  0
 19 20  1  0
 19 21  2  0
 21 22  1  0
 22 35  1  0
M  END
