
     RDKit          3D

 20 19  0  0  0  0  0  0  0  0999 V2000
    4.2280    0.1448   -0.0075 C   0  0  0  0  0  0  0  0  0  0  0  0
   -4.2591   -0.1014   -0.0229 C   0  0  0  0  0  0  0  0  0  0  0  0
   -2.9315   -0.6262    0.0001 O   0  0  0  0  0  0  0  0  0  0  0  0
   -1.9285    0.2406   -0.0370 C   0  0  0  0  0  0  0  0  0  0  0  0
   -2.0838    1.4351   -0.0875 O   0  0  0  0  0  0  0  0  0  0  0  0
   -0.5984   -0.4636   -0.0099 C   0  0  0  0  0  0  0  0  0  0  0  0
    0.5672    0.5070   -0.0151 C   0  0  0  0  0  0  0  0  0  0  0  0
    1.8974   -0.1968    0.0165 C   0  0  0  0  0  0  0  0  0  0  0  0
    2.0525   -1.3906    0.0822 O   0  0  0  0  0  0  0  0  0  0  0  0
    2.9002    0.6693   -0.0346 O   0  0  0  0  0  0  0  0  0  0  0  0
    4.8893    1.0018   -0.0940 H   0  0  0  0  0  0  0  0  0  0  0  0
    4.4313   -0.3749    0.9287 H   0  0  0  0  0  0  0  0  0  0  0  0
    4.4069   -0.5344   -0.8407 H   0  0  0  0  0  0  0  0  0  0  0  0
   -4.9208   -0.9598    0.0445 H   0  0  0  0  0  0  0  0  0  0  0  0
   -4.4413    0.5620    0.8221 H   0  0  0  0  0  0  0  0  0  0  0  0
   -4.4588    0.4360   -0.9498 H   0  0  0  0  0  0  0  0  0  0  0  0
   -0.5685   -1.1082    0.8720 H   0  0  0  0  0  0  0  0  0  0  0  0
   -0.5510   -1.1353   -0.8711 H   0  0  0  0  0  0  0  0  0  0  0  0
    0.5388    1.1498   -0.8983 H   0  0  0  0  0  0  0  0  0  0  0  0
    0.5179    1.1803    0.8449 H   0  0  0  0  0  0  0  0  0  0  0  0
  1 10  1  0
  9  8  2  0
 10  8  1  0
  8  7  1  0
  7  6  1  0
  6  4  1  0
  4  3  1  0
  4  5  2  0
  3  2  1  0
  1 11  1  0
  1 12  1  0
  1 13  1  0
  2 14  1  0
  2 15  1  0
  2 16  1  0
  6 17  1  0
  6 18  1  0
  7 19  1  0
  7 20  1  0
M  END
