
     RDKit          3D

 19 20  0  0  0  0  0  0  0  0999 V2000
   -4.9820   -0.2936   -0.0181 O   0  0  0  0  0  0  0  0  0  0  0  0
   -3.7921   -0.0432   -0.0413 C   0  0  0  0  0  0  0  0  0  0  0  0
   -3.2531    1.3427   -0.3191 C   0  0  0  0  0  0  0  0  0  0  0  0
   -1.9936    1.5470    0.3616 N   0  0  0  0  0  0  0  0  0  0  0  0
   -1.0318    0.5788    0.1886 C   0  0  0  0  0  0  0  0  0  0  0  0
    0.3332    0.8472    0.1783 C   0  0  0  0  0  0  0  0  0  0  0  0
    1.2343   -0.2019    0.0623 C   0  0  0  0  0  0  0  0  0  0  0  0
    3.0854    0.1826    0.0627 Br  0  0  0  0  0  0  0  0  0  0  0  0
    0.8130   -1.5143   -0.0654 C   0  0  0  0  0  0  0  0  0  0  0  0
   -0.5522   -1.7759   -0.0665 C   0  0  0  0  0  0  0  0  0  0  0  0
   -1.4685   -0.7479    0.0648 C   0  0  0  0  0  0  0  0  0  0  0  0
   -2.8407   -0.9915    0.1288 N   0  0  0  0  0  0  0  0  0  0  0  0
   -3.1767    1.4581   -1.4106 H   0  0  0  0  0  0  0  0  0  0  0  0
   -3.9775    2.0726    0.0366 H   0  0  0  0  0  0  0  0  0  0  0  0
   -1.6599    2.4980    0.3259 H   0  0  0  0  0  0  0  0  0  0  0  0
    0.6738    1.8707    0.2737 H   0  0  0  0  0  0  0  0  0  0  0  0
    1.5167   -2.3288   -0.1617 H   0  0  0  0  0  0  0  0  0  0  0  0
   -0.8993   -2.7972   -0.1624 H   0  0  0  0  0  0  0  0  0  0  0  0
   -3.1526   -1.9459    0.2472 H   0  0  0  0  0  0  0  0  0  0  0  0
  1  2  2  0
  2  3  1  0
  2 12  1  0
  3  4  1  0
 12 11  1  0
  4  5  1  0
 11  5  2  0
 11 10  1  0
  5  6  1  0
 10  9  2  0
  6  7  2  0
  9  7  1  0
  7  8  1  0
  3 13  1  0
  3 14  1  0
  4 15  1  0
  6 16  1  0
  9 17  1  0
 10 18  1  0
 12 19  1  0
M  END
