
     RDKit          3D

 36 37  0  0  0  0  0  0  0  0999 V2000
   -1.7727   -0.0426    0.1078 C   0  0  0  0  0  0  0  0  0  0  0  0
   -2.8522    0.9928    0.2919 C   0  0  0  0  0  0  0  0  0  0  0  0
   -4.2411    0.5709    0.0558 C   0  0  0  0  0  0  0  0  0  0  0  0
    5.8404    1.3776   -0.7855 N   0  0  0  0  0  0  0  0  0  0  0  0
   -5.3562    1.3594    0.1854 C   0  0  0  0  0  0  0  0  0  0  0  0
   -6.5536    0.6704   -0.1062 C   0  0  0  0  0  0  0  0  0  0  0  0
   -6.3316   -0.6320   -0.4544 C   0  0  0  0  0  0  0  0  0  0  0  0
    4.2734   -0.3122   -0.1124 C   0  0  0  0  0  0  0  0  0  0  0  0
    5.0180   -0.5411    1.0375 C   0  0  0  0  0  0  0  0  0  0  0  0
    6.1728    0.1929    1.2588 C   0  0  0  0  0  0  0  0  0  0  0  0
    6.5412    1.1419    0.3180 C   0  0  0  0  0  0  0  0  0  0  0  0
    4.7408    0.6635   -0.9886 C   0  0  0  0  0  0  0  0  0  0  0  0
   -2.6122    2.1350    0.6257 O   0  0  0  0  0  0  0  0  0  0  0  0
   -4.6750   -1.0274   -0.4289 S   0  0  0  0  0  0  0  0  0  0  0  0
   -0.3732    0.4911    0.3558 C   0  0  0  0  0  0  0  0  0  0  0  0
    0.6700   -0.6031    0.2475 C   0  0  0  0  0  0  0  0  0  0  0  0
    0.4483   -1.7539    0.5979 O   0  0  0  0  0  0  0  0  0  0  0  0
    1.8614   -0.1977   -0.2243 N   0  0  0  0  0  0  0  0  0  0  0  0
    3.0041   -1.0819   -0.3901 C   0  0  1  0  0  0  0  0  0  0  0  0
    3.0083   -1.7494   -1.7630 C   0  0  0  0  0  0  0  0  0  0  0  0
   -1.9843   -0.8800    0.7791 H   0  0  0  0  0  0  0  0  0  0  0  0
   -1.8527   -0.4477   -0.9066 H   0  0  0  0  0  0  0  0  0  0  0  0
   -5.3119    2.3980    0.4808 H   0  0  0  0  0  0  0  0  0  0  0  0
   -7.5369    1.1147   -0.0594 H   0  0  0  0  0  0  0  0  0  0  0  0
   -7.0634   -1.3783   -0.7244 H   0  0  0  0  0  0  0  0  0  0  0  0
    4.6973   -1.2887    1.7530 H   0  0  0  0  0  0  0  0  0  0  0  0
    6.7766    0.0356    2.1420 H   0  0  0  0  0  0  0  0  0  0  0  0
    7.4382    1.7344    0.4594 H   0  0  0  0  0  0  0  0  0  0  0  0
    4.1994    0.8818   -1.9049 H   0  0  0  0  0  0  0  0  0  0  0  0
   -0.1448    1.3071   -0.3314 H   0  0  0  0  0  0  0  0  0  0  0  0
   -0.3034    0.9088    1.3643 H   0  0  0  0  0  0  0  0  0  0  0  0
    1.9477    0.7525   -0.5490 H   0  0  0  0  0  0  0  0  0  0  0  0
    2.9172   -1.8614    0.3686 H   0  0  0  0  0  0  0  0  0  0  0  0
    3.8594   -2.4243   -1.8561 H   0  0  0  0  0  0  0  0  0  0  0  0
    2.0975   -2.3323   -1.8988 H   0  0  0  0  0  0  0  0  0  0  0  0
    3.0644   -1.0180   -2.5698 H   0  0  0  0  0  0  0  0  0  0  0  0
 11 10  1  0
 11  4  2  0
 10  9  2  0
  4 12  1  0
  9  8  1  0
  6  7  2  0
  6  5  1  0
 17 16  2  0
  7 14  1  0
 12  8  2  0
  8 19  1  0
  5  3  2  0
 14  3  1  0
  3  2  1  0
 16 18  1  0
 16 15  1  0
  1  2  1  0
  1 15  1  0
 19 18  1  0
 19 20  1  0
  2 13  2  0
  1 21  1  0
  1 22  1  0
  5 23  1  0
  6 24  1  0
  7 25  1  0
  9 26  1  0
 10 27  1  0
 11 28  1  0
 12 29  1  0
 15 30  1  0
 15 31  1  0
 18 32  1  0
 19 33  1  1
 20 34  1  0
 20 35  1  0
 20 36  1  0
M  END
