
     RDKit          3D

 94 98  0  0  0  0  0  0  0  0999 V2000
    2.0903   -7.4903    0.5567 C   0  0  0  0  0  0  0  0  0  0  0  0
   -9.1355   -1.4896    1.0596 C   0  0  0  0  0  0  0  0  0  0  0  0
   -9.1914   -0.3217    1.8122 C   0  0  0  0  0  0  0  0  0  0  0  0
    1.5772   -7.1338   -0.6837 C   0  0  0  0  0  0  0  0  0  0  0  0
    2.7745   -6.5457    1.3116 C   0  0  0  0  0  0  0  0  0  0  0  0
   -7.9472   -1.8550    0.4485 C   0  0  0  0  0  0  0  0  0  0  0  0
   -8.0575    0.4634    1.9404 C   0  0  0  0  0  0  0  0  0  0  0  0
    1.7496   -5.8423   -1.1649 C   0  0  0  0  0  0  0  0  0  0  0  0
    2.9438   -5.2561    0.8260 C   0  0  0  0  0  0  0  0  0  0  0  0
   -0.2560    2.3103   -2.6023 C   0  0  0  0  0  0  0  0  0  0  0  0
   -1.2480    3.3363   -0.6658 C   0  0  0  0  0  0  0  0  0  0  0  0
    0.7870    4.2630   -1.6062 C   0  0  0  0  0  0  0  0  0  0  0  0
   -6.7999   -1.0717    0.5740 C   0  0  0  0  0  0  0  0  0  0  0  0
   -6.8596    0.0976    1.3294 C   0  0  0  0  0  0  0  0  0  0  0  0
    2.4362   -4.8874   -0.4186 C   0  0  0  0  0  0  0  0  0  0  0  0
   -1.2607    2.3428   -1.6410 C   0  0  0  0  0  0  0  0  0  0  0  0
    0.7375    3.2694   -2.5635 C   0  0  0  0  0  0  0  0  0  0  0  0
   -0.2316    4.2680   -0.6714 C   0  0  0  0  0  0  0  0  0  0  0  0
    3.3853   -0.3846    0.5466 C   0  0  0  0  0  0  0  0  0  0  0  0
    2.9235    2.1840    2.1260 C   0  0  0  0  0  0  0  0  0  0  0  0
    0.3960   -0.2966   -0.3873 C   0  0  0  0  0  0  0  0  0  0  0  0
   -5.5193   -1.4999   -0.0923 C   0  0  0  0  0  0  0  0  0  0  0  0
   -5.6491    0.9809    1.4522 C   0  0  0  0  0  0  0  0  0  0  0  0
    4.5561    0.9948   -0.9885 C   0  0  0  0  0  0  0  0  0  0  0  0
    3.2503    0.5162   -1.6048 C   0  0  0  0  0  0  0  0  0  0  0  0
   -4.4986   -0.3687   -0.1653 C   0  0  2  0  0  0  0  0  0  0  0  0
    4.3200    0.8520    0.5164 C   0  0  2  0  0  0  0  0  0  0  0  0
    1.9489    3.3361    2.1570 C   0  0  0  0  0  0  0  0  0  0  0  0
    7.5488    1.4270    2.6415 C   0  0  0  0  0  0  0  0  0  0  0  0
    7.0258    2.5340    0.4655 C   0  0  0  0  0  0  0  0  0  0  0  0
    2.5887   -3.4771   -0.9138 C   0  0  0  0  0  0  0  0  0  0  0  0
   -2.3351    1.2965   -1.6272 C   0  0  0  0  0  0  0  0  0  0  0  0
    5.5677    0.6321    1.3679 C   0  0  0  0  0  0  0  0  0  0  0  0
    1.4428   -2.5947   -0.4217 C   0  0  0  0  0  0  0  0  0  0  0  0
    1.5466   -1.1547   -0.9346 C   0  0  2  0  0  0  0  0  0  0  0  0
   -3.1271   -0.9102   -0.5784 C   0  0  2  0  0  0  0  0  0  0  0  0
    6.4292    1.8524    1.6929 C   0  0  1  0  0  0  0  0  0  0  0  0
   -2.0164    0.1538   -0.6485 C   0  0  1  0  0  0  0  0  0  0  0  0
   -4.4327    0.2513    1.1475 N   0  0  0  0  0  0  0  0  0  0  0  0
    2.8001   -0.4943   -0.6713 N   0  0  0  0  0  0  0  0  0  0  0  0
   -0.7797   -0.5015   -1.0059 N   0  0  0  0  0  0  0  0  0  0  0  0
    3.2207   -1.1254    1.4930 O   0  0  0  0  0  0  0  0  0  0  0  0
    3.1332    1.4812    3.0999 O   0  0  0  0  0  0  0  0  0  0  0  0
    0.5579    0.4740    0.5408 O   0  0  0  0  0  0  0  0  0  0  0  0
   -3.2026   -1.6264   -1.7917 O   0  0  0  0  0  0  0  0  0  0  0  0
    1.7046    3.2343   -3.4921 F   0  0  0  0  0  0  0  0  0  0  0  0
   -0.2237    5.2235    0.2686 F   0  0  0  0  0  0  0  0  0  0  0  0
    1.9606   -8.4977    0.9308 H   0  0  0  0  0  0  0  0  0  0  0  0
  -10.1131   -0.0273    2.2977 H   0  0  0  0  0  0  0  0  0  0  0  0
    1.0434   -7.8634   -1.2794 H   0  0  0  0  0  0  0  0  0  0  0  0
    3.1804   -6.8144    2.2785 H   0  0  0  0  0  0  0  0  0  0  0  0
   -7.9057   -2.7638   -0.1417 H   0  0  0  0  0  0  0  0  0  0  0  0
   -8.0965    1.3734    2.5289 H   0  0  0  0  0  0  0  0  0  0  0  0
    1.3478   -5.5736   -2.1352 H   0  0  0  0  0  0  0  0  0  0  0  0
    3.4809   -4.5241    1.4188 H   0  0  0  0  0  0  0  0  0  0  0  0
   -0.2449    1.5511   -3.3737 H   0  0  0  0  0  0  0  0  0  0  0  0
   -2.0201    3.3841    0.0921 H   0  0  0  0  0  0  0  0  0  0  0  0
    1.5744    5.0047   -1.5953 H   0  0  0  0  0  0  0  0  0  0  0  0
   -5.0859   -2.3371    0.4667 H   0  0  0  0  0  0  0  0  0  0  0  0
   -5.7420   -1.8755   -1.0921 H   0  0  0  0  0  0  0  0  0  0  0  0
   -5.7863    1.8530    0.7924 H   0  0  0  0  0  0  0  0  0  0  0  0
   -5.5783    1.3730    2.4691 H   0  0  0  0  0  0  0  0  0  0  0  0
    5.3773    0.3441   -1.2913 H   0  0  0  0  0  0  0  0  0  0  0  0
    4.8070    2.0079   -1.2968 H   0  0  0  0  0  0  0  0  0  0  0  0
    2.5159    1.3233   -1.6933 H   0  0  0  0  0  0  0  0  0  0  0  0
    3.3874    0.0892   -2.5990 H   0  0  0  0  0  0  0  0  0  0  0  0
   -4.8449    0.3499   -0.9322 H   0  0  0  0  0  0  0  0  0  0  0  0
    2.2770    4.1818    1.5537 H   0  0  0  0  0  0  0  0  0  0  0  0
    0.9924    2.9938    1.7600 H   0  0  0  0  0  0  0  0  0  0  0  0
    1.7953    3.6752    3.1786 H   0  0  0  0  0  0  0  0  0  0  0  0
    8.1376    2.2880    2.9629 H   0  0  0  0  0  0  0  0  0  0  0  0
    7.1575    0.9396    3.5364 H   0  0  0  0  0  0  0  0  0  0  0  0
    8.2303    0.7252    2.1537 H   0  0  0  0  0  0  0  0  0  0  0  0
    7.5486    1.8149   -0.1702 H   0  0  0  0  0  0  0  0  0  0  0  0
    6.2751    3.0352   -0.1441 H   0  0  0  0  0  0  0  0  0  0  0  0
    7.7489    3.2960    0.7625 H   0  0  0  0  0  0  0  0  0  0  0  0
    3.5419   -3.0715   -0.5712 H   0  0  0  0  0  0  0  0  0  0  0  0
    2.6126   -3.4609   -2.0068 H   0  0  0  0  0  0  0  0  0  0  0  0
   -3.2855    1.7553   -1.3463 H   0  0  0  0  0  0  0  0  0  0  0  0
   -2.4673    0.8924   -2.6338 H   0  0  0  0  0  0  0  0  0  0  0  0
    5.2573    0.1758    2.3082 H   0  0  0  0  0  0  0  0  0  0  0  0
    6.1860   -0.1138    0.8552 H   0  0  0  0  0  0  0  0  0  0  0  0
    0.4981   -3.0063   -0.7873 H   0  0  0  0  0  0  0  0  0  0  0  0
    1.3945   -2.6169    0.6659 H   0  0  0  0  0  0  0  0  0  0  0  0
    1.4533   -1.2004   -2.0249 H   0  0  0  0  0  0  0  0  0  0  0  0
   -2.8167   -1.6378    0.1795 H   0  0  0  0  0  0  0  0  0  0  0  0
    5.8068    2.5815    2.2207 H   0  0  0  0  0  0  0  0  0  0  0  0
   -1.8656    0.5724    0.3481 H   0  0  0  0  0  0  0  0  0  0  0  0
   -3.6589    0.8994    1.2087 H   0  0  0  0  0  0  0  0  0  0  0  0
   -0.8136   -1.1319   -1.7930 H   0  0  0  0  0  0  0  0  0  0  0  0
   -3.6785   -1.1019   -2.4450 H   0  0  0  0  0  0  0  0  0  0  0  0
    3.5192    2.0018    0.9271 N   0  0  0  0  0  0  0  0  0  0  0  0
  -10.0152   -2.1105    0.9486 H   0  0  0  0  0  0  0  0  0  0  0  0
    3.2344    2.6295    0.1915 H   0  0  0  0  0  0  0  0  0  0  0  0
  1  4  2  0
  1  5  1  0
  2  3  2  0
  2  6  1  0
  3  7  1  0
  4  8  1  0
  5  9  2  0
  6 13  2  0
  7 14  2  0
  8 15  2  0
  9 15  1  0
 10 16  2  0
 10 17  1  0
 11 16  1  0
 11 18  2  0
 12 17  2  0
 12 18  1  0
 13 14  1  0
 13 22  1  0
 14 23  1  0
 15 31  1  0
 16 32  1  0
 17 46  1  0
 18 47  1  0
 19 27  1  0
 19 40  1  0
 19 42  2  0
 20 28  1  0
 20 92  1  0
 20 43  2  0
 21 35  1  0
 21 41  1  0
 21 44  2  0
 22 26  1  0
 23 39  1  0
 24 25  1  0
 24 27  1  0
 25 40  1  0
 26 36  1  0
 26 39  1  0
 27 33  1  0
 27 92  1  1
 29 37  1  0
 30 37  1  0
 31 34  1  0
 32 38  1  0
 33 37  1  0
 34 35  1  0
 35 40  1  0
 36 38  1  0
 36 45  1  0
 38 41  1  0
  1 48  1  0
  2 93  1  0
  3 49  1  0
  4 50  1  0
  5 51  1  0
  6 52  1  0
  7 53  1  0
  8 54  1  0
  9 55  1  0
 10 56  1  0
 11 57  1  0
 12 58  1  0
 22 59  1  0
 22 60  1  0
 23 61  1  0
 23 62  1  0
 24 63  1  0
 24 64  1  0
 25 65  1  0
 25 66  1  0
 26 67  1  6
 28 68  1  0
 28 69  1  0
 28 70  1  0
 29 71  1  0
 29 72  1  0
 29 73  1  0
 30 74  1  0
 30 75  1  0
 30 76  1  0
 31 77  1  0
 31 78  1  0
 32 79  1  0
 32 80  1  0
 33 81  1  0
 33 82  1  0
 34 83  1  0
 34 84  1  0
 35 85  1  6
 36 86  1  1
 37 87  1  1
 38 88  1  1
 39 89  1  0
 92 94  1  0
 41 90  1  0
 45 91  1  0
M  END
