
     RDKit          3D

 60 63  0  0  0  0  0  0  0  0999 V2000
   -4.5583   -2.1506   -0.9319 C   0  0  0  0  0  0  0  0  0  0  0  0
   -3.8700   -3.4289   -1.4111 C   0  0  0  0  0  0  0  0  0  0  0  0
   -2.3464   -3.3100   -1.4122 C   0  0  0  0  0  0  0  0  0  0  0  0
   -1.7484   -2.6424   -0.1603 C   0  0  2  0  0  0  0  0  0  0  0  0
   -1.8679   -3.4729    1.1266 C   0  0  0  0  0  0  0  0  0  0  0  0
   -3.2953   -3.6105    1.6560 C   0  0  0  0  0  0  0  0  0  0  0  0
   -4.0622   -2.2906    1.6057 C   0  0  0  0  0  0  0  0  0  0  0  0
   -3.9007   -1.5024    0.2950 C   0  0  1  0  0  0  0  0  0  0  0  0
   -2.4309   -1.3145    0.0305 C   0  0  0  0  0  0  0  0  0  0  0  0
   -1.8245   -0.1190   -0.0485 C   0  0  0  0  0  0  0  0  0  0  0  0
   -0.3602    0.0435   -0.2228 C   0  0  0  0  0  0  0  0  0  0  0  0
   -2.5621    1.1701    0.0248 C   0  0  0  0  0  0  0  0  0  0  0  0
   -3.5400    1.5125   -0.9073 C   0  0  0  0  0  0  0  0  0  0  0  0
   -4.2058    2.7283   -0.8385 C   0  0  0  0  0  0  0  0  0  0  0  0
   -3.8951    3.6354    0.1668 C   0  0  0  0  0  0  0  0  0  0  0  0
   -2.9102    3.3160    1.0958 C   0  0  0  0  0  0  0  0  0  0  0  0
   -2.2489    2.1005    1.0160 C   0  0  0  0  0  0  0  0  0  0  0  0
    0.1355    0.8073   -1.2799 C   0  0  0  0  0  0  0  0  0  0  0  0
    1.4958    1.0021   -1.4391 C   0  0  0  0  0  0  0  0  0  0  0  0
    2.4142    0.4582   -0.5368 C   0  0  0  0  0  0  0  0  0  0  0  0
    1.9179   -0.2983    0.5289 C   0  0  0  0  0  0  0  0  0  0  0  0
    0.5583   -0.4977    0.6812 C   0  0  0  0  0  0  0  0  0  0  0  0
   -4.5148    4.8546    0.2104 O   0  0  0  0  0  0  0  0  0  0  0  0
   -4.5411   -1.4149   -1.7423 H   0  0  0  0  0  0  0  0  0  0  0  0
   -5.6135   -2.3478   -0.7224 H   0  0  0  0  0  0  0  0  0  0  0  0
   -4.1833   -4.2775   -0.8030 H   0  0  0  0  0  0  0  0  0  0  0  0
   -1.8953   -4.2977   -1.5452 H   0  0  0  0  0  0  0  0  0  0  0  0
   -0.6850   -2.5040   -0.3623 H   0  0  0  0  0  0  0  0  0  0  0  0
   -1.4285   -4.4615    0.9653 H   0  0  0  0  0  0  0  0  0  0  0  0
   -1.2544   -2.9858    1.8917 H   0  0  0  0  0  0  0  0  0  0  0  0
   -3.8316   -4.3813    1.1031 H   0  0  0  0  0  0  0  0  0  0  0  0
   -3.2612   -3.9659    2.6891 H   0  0  0  0  0  0  0  0  0  0  0  0
   -5.1255   -2.4668    1.7916 H   0  0  0  0  0  0  0  0  0  0  0  0
   -3.7119   -1.6450    2.4173 H   0  0  0  0  0  0  0  0  0  0  0  0
   -4.3853   -0.5376    0.4548 H   0  0  0  0  0  0  0  0  0  0  0  0
   -3.7820    0.8206   -1.7049 H   0  0  0  0  0  0  0  0  0  0  0  0
   -4.9574    2.9775   -1.5774 H   0  0  0  0  0  0  0  0  0  0  0  0
   -2.6554    4.0244    1.8745 H   0  0  0  0  0  0  0  0  0  0  0  0
   -1.4794    1.8715    1.7437 H   0  0  0  0  0  0  0  0  0  0  0  0
   -0.5508    1.2533   -1.9893 H   0  0  0  0  0  0  0  0  0  0  0  0
    1.8557    1.5900   -2.2751 H   0  0  0  0  0  0  0  0  0  0  0  0
    2.5907   -0.7300    1.2591 H   0  0  0  0  0  0  0  0  0  0  0  0
    0.2006   -1.0675    1.5299 H   0  0  0  0  0  0  0  0  0  0  0  0
   -5.2914    4.8091    0.7792 H   0  0  0  0  0  0  0  0  0  0  0  0
    3.8311    0.7231   -0.7445 C   0  0  0  0  0  0  0  0  0  0  0  0
    4.8496    0.3112    0.0200 C   0  0  0  0  0  0  0  0  0  0  0  0
    6.2324    0.6806   -0.3209 C   0  0  0  0  0  0  0  0  0  0  0  0
    7.0915    0.1838    0.5603 O   0  0  0  0  0  0  0  0  0  0  0  0
    6.5634    1.3519   -1.2723 O   0  0  0  0  0  0  0  0  0  0  0  0
    8.4875    0.4583    0.3709 C   0  0  0  0  0  0  0  0  0  0  0  0
    9.2483   -0.2401    1.4715 C   0  0  0  0  0  0  0  0  0  0  0  0
   -4.2085   -3.6584   -2.4248 H   0  0  0  0  0  0  0  0  0  0  0  0
   -2.0352   -2.7157   -2.2773 H   0  0  0  0  0  0  0  0  0  0  0  0
    4.0628    1.3274   -1.6166 H   0  0  0  0  0  0  0  0  0  0  0  0
    4.7001   -0.2968    0.9036 H   0  0  0  0  0  0  0  0  0  0  0  0
    8.8048    0.0991   -0.6100 H   0  0  0  0  0  0  0  0  0  0  0  0
    8.6565    1.5367    0.4036 H   0  0  0  0  0  0  0  0  0  0  0  0
   10.3128   -0.0416    1.3508 H   0  0  0  0  0  0  0  0  0  0  0  0
    8.9516    0.1200    2.4564 H   0  0  0  0  0  0  0  0  0  0  0  0
    9.1040   -1.3199    1.4363 H   0  0  0  0  0  0  0  0  0  0  0  0
 23 15  1  0
 14 15  1  0
 14 13  2  0
 15 16  2  0
 13 12  1  0
 16 17  1  0
 12 17  2  0
 12 10  1  0
 22 21  2  0
 22 11  1  0
 10 11  1  0
 10  9  2  0
 21 20  1  0
 11 18  2  0
 20 19  2  0
 18 19  1  0
  9  8  1  0
  9  4  1  0
  8  7  1  0
  8  1  1  0
  7  6  1  0
  5  4  1  0
  5  6  1  0
  4  3  1  0
  1  2  1  0
  3  2  1  0
  1 24  1  0
  1 25  1  0
  2 26  1  0
  3 27  1  0
  4 28  1  6
  5 29  1  0
  5 30  1  0
  6 31  1  0
  6 32  1  0
  7 33  1  0
  7 34  1  0
  8 35  1  1
 13 36  1  0
 14 37  1  0
 16 38  1  0
 17 39  1  0
 18 40  1  0
 19 41  1  0
 21 42  1  0
 22 43  1  0
 23 44  1  0
 20 45  1  0
 45 46  2  0
 46 47  1  0
 47 48  1  0
 47 49  2  0
 48 50  1  0
 50 51  1  0
  2 52  1  0
  3 53  1  0
 45 54  1  0
 46 55  1  0
 50 56  1  0
 50 57  1  0
 51 58  1  0
 51 59  1  0
 51 60  1  0
M  END
