
     RDKit          3D

 42 42  0  0  0  0  0  0  0  0999 V2000
    5.0921   -1.7633   -0.1279 O   0  0  0  0  0  0  0  0  0  0  0  0
    4.7286   -0.5953   -0.1084 C   0  0  0  0  0  0  0  0  0  0  0  0
    3.5957   -0.1884    0.4823 N   0  0  0  0  0  0  0  0  0  0  0  0
    2.6761   -1.0890    1.1471 C   0  0  0  0  0  0  0  0  0  0  0  0
    1.2844   -0.5184    1.1560 C   0  0  0  0  0  0  0  0  0  0  0  0
    0.6179   -0.2569   -0.0418 C   0  0  0  0  0  0  0  0  0  0  0  0
   -0.6640    0.2640   -0.0375 C   0  0  0  0  0  0  0  0  0  0  0  0
   -1.3173    0.5384    1.1647 C   0  0  0  0  0  0  0  0  0  0  0  0
   -2.7101    1.1071    1.1659 C   0  0  0  0  0  0  0  0  0  0  0  0
   -3.6329    0.2079    0.5045 N   0  0  0  0  0  0  0  0  0  0  0  0
   -4.7568    0.6157   -0.1033 C   0  0  0  0  0  0  0  0  0  0  0  0
   -5.5500   -0.4785   -0.7923 C   0  0  0  0  0  0  0  0  0  0  0  0
   -6.9670   -0.2269   -0.6808 N   0  0  0  0  0  0  0  0  0  0  0  0
   -7.7518   -1.1618   -1.4593 C   0  0  0  0  0  0  0  0  0  0  0  0
   -5.1092    1.7864   -0.1471 O   0  0  0  0  0  0  0  0  0  0  0  0
   -0.6549    0.2757    2.3553 C   0  0  0  0  0  0  0  0  0  0  0  0
    0.6357   -0.2422    2.3511 C   0  0  0  0  0  0  0  0  0  0  0  0
    5.5174    0.4930   -0.8115 C   0  0  0  0  0  0  0  0  0  0  0  0
    6.9357    0.2556   -0.6858 N   0  0  0  0  0  0  0  0  0  0  0  0
    7.7179    1.1836   -1.4751 C   0  0  0  0  0  0  0  0  0  0  0  0
    3.4097    0.7996    0.5460 H   0  0  0  0  0  0  0  0  0  0  0  0
    2.6846   -2.0426    0.6169 H   0  0  0  0  0  0  0  0  0  0  0  0
    3.0021   -1.2919    2.1712 H   0  0  0  0  0  0  0  0  0  0  0  0
    1.1059   -0.4632   -0.9870 H   0  0  0  0  0  0  0  0  0  0  0  0
   -1.1626    0.4594   -0.9796 H   0  0  0  0  0  0  0  0  0  0  0  0
   -3.0296    1.3047    2.1930 H   0  0  0  0  0  0  0  0  0  0  0  0
   -2.7245    2.0628    0.6399 H   0  0  0  0  0  0  0  0  0  0  0  0
   -3.4582   -0.7811    0.5854 H   0  0  0  0  0  0  0  0  0  0  0  0
   -5.1944   -0.5221   -1.8371 H   0  0  0  0  0  0  0  0  0  0  0  0
   -5.3197   -1.4546   -0.3566 H   0  0  0  0  0  0  0  0  0  0  0  0
   -7.1571    0.7147   -0.9980 H   0  0  0  0  0  0  0  0  0  0  0  0
   -8.8066   -0.8953   -1.3978 H   0  0  0  0  0  0  0  0  0  0  0  0
   -7.4742   -1.2043   -2.5220 H   0  0  0  0  0  0  0  0  0  0  0  0
   -7.6453   -2.1700   -1.0541 H   0  0  0  0  0  0  0  0  0  0  0  0
   -1.1453    0.4783    3.2998 H   0  0  0  0  0  0  0  0  0  0  0  0
    1.1359   -0.4360    3.2923 H   0  0  0  0  0  0  0  0  0  0  0  0
    5.1689    0.5135   -1.8594 H   0  0  0  0  0  0  0  0  0  0  0  0
    5.2750    1.4752   -0.3967 H   0  0  0  0  0  0  0  0  0  0  0  0
    7.1347   -0.6895   -0.9869 H   0  0  0  0  0  0  0  0  0  0  0  0
    8.7748    0.9295   -1.3991 H   0  0  0  0  0  0  0  0  0  0  0  0
    7.4498    1.2033   -2.5409 H   0  0  0  0  0  0  0  0  0  0  0  0
    7.5974    2.1982   -1.0904 H   0  0  0  0  0  0  0  0  0  0  0  0
 14 13  1  0
 12 13  1  0
 12 11  1  0
 11 15  2  0
 11 10  1  0
 10  9  1  0
 16 17  1  0
 16  8  2  0
 17  5  2  0
  9  8  1  0
  8  7  1  0
  5  4  1  0
  5  6  1  0
  4  3  1  0
  7  6  2  0
  1  2  2  0
  3  2  1  0
  2 18  1  0
 20 19  1  0
 18 19  1  0
  3 21  1  0
  4 22  1  0
  4 23  1  0
  6 24  1  0
  7 25  1  0
  9 26  1  0
  9 27  1  0
 10 28  1  0
 12 29  1  0
 12 30  1  0
 13 31  1  0
 14 32  1  0
 14 33  1  0
 14 34  1  0
 16 35  1  0
 17 36  1  0
 18 37  1  0
 18 38  1  0
 19 39  1  0
 20 40  1  0
 20 41  1  0
 20 42  1  0
M  END
