
     RDKit          3D

 40 42  0  0  0  0  0  0  0  0999 V2000
    6.0965   -1.1836    1.7399 C   0  0  0  0  0  0  0  0  0  0  0  0
    5.7804   -0.7483    0.3170 C   0  0  0  0  0  0  0  0  0  0  0  0
    4.6557    0.1707    0.2347 N   0  0  0  0  0  0  0  0  0  0  0  0
    4.9908    1.5843    0.2904 C   0  0  0  0  0  0  0  0  0  0  0  0
    5.2669    2.1877   -1.0790 C   0  0  0  0  0  0  0  0  0  0  0  0
    3.3861   -0.2587    0.0844 C   0  0  0  0  0  0  0  0  0  0  0  0
    2.3284    0.6471   -0.1464 C   0  0  0  0  0  0  0  0  0  0  0  0
    3.0640   -1.6464    0.1543 C   0  0  0  0  0  0  0  0  0  0  0  0
    1.7778   -2.0810    0.0010 C   0  0  0  0  0  0  0  0  0  0  0  0
    0.7211   -1.1833   -0.2294 C   0  0  0  0  0  0  0  0  0  0  0  0
   -0.6286   -1.5522   -0.3899 C   0  0  0  0  0  0  0  0  0  0  0  0
    1.0441    0.1784   -0.2954 C   0  0  0  0  0  0  0  0  0  0  0  0
    0.0729    1.0887   -0.5324 O   0  0  0  0  0  0  0  0  0  0  0  0
   -1.2428    0.7789   -0.7001 C   0  0  0  0  0  0  0  0  0  0  0  0
   -1.9835    1.6903   -0.9754 O   0  0  0  0  0  0  0  0  0  0  0  0
   -1.6043   -0.6155   -0.5681 C   0  0  0  0  0  0  0  0  0  0  0  0
   -3.0112   -1.0501   -0.7449 C   0  0  0  0  0  0  0  0  0  0  0  0
   -3.2742   -2.0150   -1.4387 O   0  0  0  0  0  0  0  0  0  0  0  0
   -4.0738   -0.3558   -0.0126 C   0  0  0  0  0  0  0  0  0  0  0  0
   -3.7719    0.6156    1.3780 S   0  0  0  0  0  0  0  0  0  0  0  0
   -5.4350    0.8808    1.6237 C   0  0  0  0  0  0  0  0  0  0  0  0
   -6.2005    0.2596    0.6762 C   0  0  0  0  0  0  0  0  0  0  0  0
   -5.4207   -0.4597   -0.2543 C   0  0  0  0  0  0  0  0  0  0  0  0
    6.3592   -0.3287    2.3645 H   0  0  0  0  0  0  0  0  0  0  0  0
    5.2501   -1.6909    2.2028 H   0  0  0  0  0  0  0  0  0  0  0  0
    6.9436   -1.8695    1.7431 H   0  0  0  0  0  0  0  0  0  0  0  0
    6.6454   -0.2423   -0.1146 H   0  0  0  0  0  0  0  0  0  0  0  0
    5.6014   -1.6123   -0.3231 H   0  0  0  0  0  0  0  0  0  0  0  0
    4.2002    2.1323    0.8036 H   0  0  0  0  0  0  0  0  0  0  0  0
    5.8740    1.6840    0.9234 H   0  0  0  0  0  0  0  0  0  0  0  0
    5.5351    3.2394   -0.9786 H   0  0  0  0  0  0  0  0  0  0  0  0
    6.0961    1.6780   -1.5718 H   0  0  0  0  0  0  0  0  0  0  0  0
    4.3957    2.1227   -1.7306 H   0  0  0  0  0  0  0  0  0  0  0  0
    2.4976    1.7107   -0.2335 H   0  0  0  0  0  0  0  0  0  0  0  0
    3.8310   -2.3813    0.3462 H   0  0  0  0  0  0  0  0  0  0  0  0
    1.5632   -3.1404    0.0660 H   0  0  0  0  0  0  0  0  0  0  0  0
   -0.8916   -2.6031   -0.3439 H   0  0  0  0  0  0  0  0  0  0  0  0
   -5.7719    1.4798    2.4560 H   0  0  0  0  0  0  0  0  0  0  0  0
   -7.2790    0.3126    0.6531 H   0  0  0  0  0  0  0  0  0  0  0  0
   -5.8309   -1.0246   -1.0791 H   0  0  0  0  0  0  0  0  0  0  0  0
  1  2  1  0
  2  3  1  0
  3  4  1  0
  3  6  1  0
  4  5  1  0
  8  6  2  0
  8  9  1  0
  6  7  1  0
  9 10  2  0
  7 12  2  0
 10 12  1  0
 10 11  1  0
 12 13  1  0
 11 16  2  0
 13 14  1  0
 16 14  1  0
 16 17  1  0
 14 15  2  0
 23 22  1  0
 23 19  2  0
 22 21  2  0
 19 17  1  0
 19 20  1  0
 17 18  2  0
 21 20  1  0
  1 24  1  0
  1 25  1  0
  1 26  1  0
  2 27  1  0
  2 28  1  0
  4 29  1  0
  4 30  1  0
  5 31  1  0
  5 32  1  0
  5 33  1  0
  7 34  1  0
  8 35  1  0
  9 36  1  0
 11 37  1  0
 21 38  1  0
 22 39  1  0
 23 40  1  0
M  END
