
     RDKit          3D

 28 30  0  0  0  0  0  0  0  0999 V2000
    2.6519   -1.8171   -0.6410 N   0  0  0  0  0  0  0  0  0  0  0  0
    1.3902   -2.2192   -0.3106 C   0  0  0  0  0  0  0  0  0  0  0  0
    0.7111   -1.1951    0.2888 C   0  0  0  0  0  0  0  0  0  0  0  0
    1.6198   -0.0866    0.3311 C   0  0  0  0  0  0  0  0  0  0  0  0
    1.5366    1.2222    0.8234 C   0  0  0  0  0  0  0  0  0  0  0  0
    2.6363    2.0498    0.7130 C   0  0  0  0  0  0  0  0  0  0  0  0
    3.8267    1.5994    0.1172 C   0  0  0  0  0  0  0  0  0  0  0  0
    3.9405    0.3138   -0.3749 C   0  0  0  0  0  0  0  0  0  0  0  0
    2.8281   -0.5194   -0.2605 C   0  0  0  0  0  0  0  0  0  0  0  0
   -0.7012   -1.2203    0.7704 C   0  0  0  0  0  0  0  0  0  0  0  0
   -1.6908   -0.7310   -0.2923 C   0  0  1  0  0  0  0  0  0  0  0  0
   -3.1131   -0.6824    0.2410 C   0  0  0  0  0  0  0  0  0  0  0  0
   -3.5398    0.5967    0.0663 N   0  0  0  0  0  0  0  0  0  0  0  0
   -2.5725    1.4130   -0.5212 C   0  0  0  0  0  0  0  0  0  0  0  0
   -1.4881    0.6346   -0.7027 N   0  0  0  0  0  0  0  0  0  0  0  0
   -3.7291   -1.5953    0.7370 O   0  0  0  0  0  0  0  0  0  0  0  0
   -2.7190    2.5835   -0.7951 O   0  0  0  0  0  0  0  0  0  0  0  0
    3.3455   -2.4001   -1.0782 H   0  0  0  0  0  0  0  0  0  0  0  0
    1.0613   -3.2240   -0.5263 H   0  0  0  0  0  0  0  0  0  0  0  0
    0.6250    1.5829    1.2839 H   0  0  0  0  0  0  0  0  0  0  0  0
    2.5849    3.0629    1.0908 H   0  0  0  0  0  0  0  0  0  0  0  0
    4.6707    2.2731    0.0458 H   0  0  0  0  0  0  0  0  0  0  0  0
    4.8589   -0.0337   -0.8309 H   0  0  0  0  0  0  0  0  0  0  0  0
   -0.9886   -2.2363    1.0467 H   0  0  0  0  0  0  0  0  0  0  0  0
   -0.8059   -0.6030    1.6665 H   0  0  0  0  0  0  0  0  0  0  0  0
   -1.6605   -1.4091   -1.1519 H   0  0  0  0  0  0  0  0  0  0  0  0
   -4.4475    0.9400    0.3468 H   0  0  0  0  0  0  0  0  0  0  0  0
   -0.6782    0.9541   -1.2086 H   0  0  0  0  0  0  0  0  0  0  0  0
  1  2  1  0
  1  9  1  0
  2  3  2  0
  3  4  1  0
  3 10  1  0
  4  5  1  0
  4  9  2  0
  5  6  2  0
  6  7  1  0
  7  8  2  0
  8  9  1  0
 10 11  1  0
 11 12  1  0
 11 15  1  0
 12 13  1  0
 12 16  2  0
 13 14  1  0
 14 15  1  0
 14 17  2  0
  1 18  1  0
  2 19  1  0
  5 20  1  0
  6 21  1  0
  7 22  1  0
  8 23  1  0
 10 24  1  0
 10 25  1  0
 11 26  1  6
 13 27  1  0
 15 28  1  0
M  END
