
     RDKit          3D

  5  4  0  0  0  0  0  0  0  0999 V2000
   -0.0279    0.0055    0.5192 C   0  0  1  0  0  0  0  0  0  0  0  0
    0.7238    1.5048   -0.0224 Cl  0  0  0  0  0  0  0  0  0  0  0  0
   -1.7010   -0.0736   -0.0292 Cl  0  0  0  0  0  0  0  0  0  0  0  0
    0.8774   -1.3844   -0.0754 Cl  0  0  0  0  0  0  0  0  0  0  0  0
   -0.0183   -0.0130    1.6039 H   0  0  0  0  0  0  0  0  0  0  0  0
  4  1  1  0
  1  3  1  0
  1  2  1  0
  1  5  1  1
M  END
