
     RDKit          3D

 67 71  0  0  0  0  0  0  0  0999 V2000
   -4.9311    0.9915    3.8002 C   0  0  0  0  0  0  0  0  0  0  0  0
   -5.6377    0.9062    2.4543 C   0  0  0  0  0  0  0  0  0  0  0  0
   -4.6759    0.9421    1.2637 C   0  0  1  0  0  0  0  0  0  0  0  0
   -3.8200   -0.2227    1.2925 N   0  0  0  0  0  0  0  0  0  0  0  0
   -2.6690   -0.2810    0.5957 C   0  0  0  0  0  0  0  0  0  0  0  0
   -2.2656    0.6660   -0.0653 O   0  0  0  0  0  0  0  0  0  0  0  0
   -1.8995   -1.5570    0.6765 C   0  0  0  0  0  0  0  0  0  0  0  0
   -2.5035   -2.7889    1.0246 C   0  0  0  0  0  0  0  0  0  0  0  0
   -1.7872   -3.9588    1.0939 C   0  0  0  0  0  0  0  0  0  0  0  0
   -0.4215   -3.8851    0.8013 C   0  0  0  0  0  0  0  0  0  0  0  0
    0.5516   -4.8177    0.8037 N   0  0  0  0  0  0  0  0  0  0  0  0
    1.7385   -4.3156    0.4585 N   0  0  0  0  0  0  0  0  0  0  0  0
    1.5717   -3.0348    0.2231 C   0  0  0  0  0  0  0  0  0  0  0  0
    2.6987   -2.1807   -0.1503 C   0  0  0  0  0  0  0  0  0  0  0  0
    3.9867   -2.4590    0.3170 C   0  0  0  0  0  0  0  0  0  0  0  0
    5.0565   -1.6545   -0.0175 C   0  0  0  0  0  0  0  0  0  0  0  0
    4.8770   -0.5391   -0.8405 C   0  0  0  0  0  0  0  0  0  0  0  0
    5.9814    0.1730   -1.1213 O   0  0  0  0  0  0  0  0  0  0  0  0
    5.8821    1.4796   -1.6921 C   0  0  2  0  0  0  0  0  0  0  0  0
    7.2959    1.8878   -2.0698 C   0  0  0  0  0  0  0  0  0  0  0  0
    8.1691    2.1226   -0.8456 C   0  0  0  0  0  0  0  0  0  0  0  0
    7.5705    3.0986    0.0466 N   0  0  0  0  0  0  0  0  0  0  0  0
    8.4330    3.3815    1.1700 C   0  0  0  0  0  0  0  0  0  0  0  0
    6.2526    2.6818    0.4876 C   0  0  0  0  0  0  0  0  0  0  0  0
    5.3141    2.4786   -0.6918 C   0  0  0  0  0  0  0  0  0  0  0  0
    3.6015   -0.2582   -1.3254 C   0  0  0  0  0  0  0  0  0  0  0  0
    2.5338   -1.0753   -0.9803 C   0  0  0  0  0  0  0  0  0  0  0  0
    0.1996   -2.6801    0.4269 C   0  0  0  0  0  0  0  0  0  0  0  0
   -0.5530   -1.5068    0.3682 C   0  0  0  0  0  0  0  0  0  0  0  0
   -5.4464    1.0433   -0.0373 C   0  0  0  0  0  0  0  0  0  0  0  0
   -5.8269   -0.1013   -0.7328 C   0  0  0  0  0  0  0  0  0  0  0  0
   -6.5633   -0.0305   -1.9050 C   0  0  0  0  0  0  0  0  0  0  0  0
   -6.9391    1.2050   -2.4127 C   0  0  0  0  0  0  0  0  0  0  0  0
   -6.5805    2.3618   -1.7389 C   0  0  0  0  0  0  0  0  0  0  0  0
   -5.8479    2.2675   -0.5645 C   0  0  0  0  0  0  0  0  0  0  0  0
   -5.4417    3.7480    0.2558 Cl  0  0  0  0  0  0  0  0  0  0  0  0
   -5.6552    1.0032    4.6142 H   0  0  0  0  0  0  0  0  0  0  0  0
   -4.2613    0.1477    3.9715 H   0  0  0  0  0  0  0  0  0  0  0  0
   -4.3366    1.9040    3.8700 H   0  0  0  0  0  0  0  0  0  0  0  0
   -6.2494    0.0003    2.3935 H   0  0  0  0  0  0  0  0  0  0  0  0
   -6.3278    1.7453    2.3524 H   0  0  0  0  0  0  0  0  0  0  0  0
   -4.0407    1.8256    1.3633 H   0  0  0  0  0  0  0  0  0  0  0  0
   -4.0855   -0.9891    1.8890 H   0  0  0  0  0  0  0  0  0  0  0  0
   -3.5664   -2.8391    1.2240 H   0  0  0  0  0  0  0  0  0  0  0  0
   -2.2633   -4.8928    1.3590 H   0  0  0  0  0  0  0  0  0  0  0  0
    0.4683   -5.7997    1.0109 H   0  0  0  0  0  0  0  0  0  0  0  0
    4.1494   -3.3081    0.9682 H   0  0  0  0  0  0  0  0  0  0  0  0
    6.0450   -1.8776    0.3644 H   0  0  0  0  0  0  0  0  0  0  0  0
    5.2602    1.4452   -2.5933 H   0  0  0  0  0  0  0  0  0  0  0  0
    7.7512    1.1344   -2.7162 H   0  0  0  0  0  0  0  0  0  0  0  0
    7.2339    2.8098   -2.6529 H   0  0  0  0  0  0  0  0  0  0  0  0
    8.3644    1.1660   -0.3316 H   0  0  0  0  0  0  0  0  0  0  0  0
    9.1424    2.5006   -1.1691 H   0  0  0  0  0  0  0  0  0  0  0  0
    8.6187    2.5023    1.8081 H   0  0  0  0  0  0  0  0  0  0  0  0
    9.3999    3.7464    0.8196 H   0  0  0  0  0  0  0  0  0  0  0  0
    7.9905    4.1579    1.7964 H   0  0  0  0  0  0  0  0  0  0  0  0
    6.2964    1.7591    1.0927 H   0  0  0  0  0  0  0  0  0  0  0  0
    5.8423    3.4570    1.1392 H   0  0  0  0  0  0  0  0  0  0  0  0
    5.1680    3.4287   -1.2125 H   0  0  0  0  0  0  0  0  0  0  0  0
    4.3314    2.1690   -0.3290 H   0  0  0  0  0  0  0  0  0  0  0  0
    3.4191    0.5812   -1.9824 H   0  0  0  0  0  0  0  0  0  0  0  0
    1.5612   -0.8443   -1.3955 H   0  0  0  0  0  0  0  0  0  0  0  0
   -0.0978   -0.5628    0.1016 H   0  0  0  0  0  0  0  0  0  0  0  0
   -5.5336   -1.0705   -0.3499 H   0  0  0  0  0  0  0  0  0  0  0  0
   -6.8391   -0.9401   -2.4215 H   0  0  0  0  0  0  0  0  0  0  0  0
   -7.5097    1.2747   -3.3291 H   0  0  0  0  0  0  0  0  0  0  0  0
   -6.8641    3.3317   -2.1242 H   0  0  0  0  0  0  0  0  0  0  0  0
 23 22  1  0
 22 24  1  0
 22 21  1  0
 24 25  1  0
 25 19  1  0
 21 20  1  0
 20 19  1  0
 19 18  1  0
 18 17  1  0
 17 26  2  0
 17 16  1  0
 26 27  1  0
 16 15  2  0
  1  2  1  0
 27 14  2  0
 15 14  1  0
 14 13  1  0
  2  3  1  0
  3  4  1  0
  3 30  1  0
 13 28  1  0
 13 12  2  0
  4  5  1  0
 29 28  2  0
 29  7  1  0
 28 10  1  0
 12 11  1  0
 30 31  2  0
 30 35  1  0
  5  7  1  0
  5  6  2  0
 31 32  1  0
  7  8  2  0
 36 35  1  0
 35 34  2  0
 10 11  1  0
 10  9  2  0
 32 33  2  0
  8  9  1  0
 34 33  1  0
  1 37  1  0
  1 38  1  0
  1 39  1  0
  2 40  1  0
  2 41  1  0
  3 42  1  1
  4 43  1  0
  8 44  1  0
  9 45  1  0
 11 46  1  0
 15 47  1  0
 16 48  1  0
 19 49  1  6
 20 50  1  0
 20 51  1  0
 21 52  1  0
 21 53  1  0
 23 54  1  0
 23 55  1  0
 23 56  1  0
 24 57  1  0
 24 58  1  0
 25 59  1  0
 25 60  1  0
 26 61  1  0
 27 62  1  0
 29 63  1  0
 31 64  1  0
 32 65  1  0
 33 66  1  0
 34 67  1  0
M  END
