
     RDKit          3D

 77 81  0  0  0  0  0  0  0  0999 V2000
   -3.7469   -1.7352   -1.0440 C   0  0  0  0  0  0  0  0  0  0  0  0
   -4.1628   -0.5973   -1.7627 C   0  0  0  0  0  0  0  0  0  0  0  0
   -3.2722    0.4080   -2.0908 C   0  0  0  0  0  0  0  0  0  0  0  0
   -1.9460    0.2712   -1.6953 C   0  0  0  0  0  0  0  0  0  0  0  0
   -1.5201   -0.8560   -0.9605 C   0  0  0  0  0  0  0  0  0  0  0  0
   -2.4291   -1.8675   -0.6414 C   0  0  0  0  0  0  0  0  0  0  0  0
   -0.1354   -0.6627   -0.6858 C   0  0  0  0  0  0  0  0  0  0  0  0
   -0.8636    1.0939   -1.8871 N   0  0  0  0  0  0  0  0  0  0  0  0
    0.2170    0.5279   -1.2600 C   0  0  0  0  0  0  0  0  0  0  0  0
   -0.9095    2.4411   -2.4201 C   0  0  0  0  0  0  0  0  0  0  0  0
    1.5578    1.1580   -1.3187 C   0  0  0  0  0  0  0  0  0  0  0  0
    2.2254    1.1300   -0.1527 N   0  0  0  0  0  0  0  0  0  0  0  0
    3.5252    1.7219    0.0400 C   0  0  0  0  0  0  0  0  0  0  0  0
    4.5814    0.7201    0.4276 C   0  0  0  0  0  0  0  0  0  0  0  0
    1.9954    1.6381   -2.3536 O   0  0  0  0  0  0  0  0  0  0  0  0
   -0.5063    3.4686   -1.3917 C   0  0  0  0  0  0  0  0  0  0  0  0
   -0.6587    4.3521    0.8559 C   0  0  0  0  0  0  0  0  0  0  0  0
   -1.0421    3.4282   -0.1108 C   0  0  0  0  0  0  0  0  0  0  0  0
    0.4158    4.4578   -1.7114 C   0  0  0  0  0  0  0  0  0  0  0  0
    0.7922    5.3953   -0.7609 C   0  0  0  0  0  0  0  0  0  0  0  0
    0.2647    5.3413    0.5201 C   0  0  0  0  0  0  0  0  0  0  0  0
   -1.2549    4.2675    2.2186 C   0  0  0  0  0  0  0  0  0  0  0  0
   -0.5044    4.8190    3.2173 N   0  0  0  0  0  0  0  0  0  0  0  0
   -2.4123    3.7424    2.3492 N   0  0  0  0  0  0  0  0  0  0  0  0
    5.7206   -1.3790    0.0736 C   0  0  0  0  0  0  0  0  0  0  0  0
    6.6056   -1.0741    1.1011 C   0  0  0  0  0  0  0  0  0  0  0  0
    6.4811    0.1134    1.7975 C   0  0  0  0  0  0  0  0  0  0  0  0
    5.4678    1.0003    1.4550 C   0  0  0  0  0  0  0  0  0  0  0  0
    4.7175   -0.4862   -0.2547 C   0  0  0  0  0  0  0  0  0  0  0  0
    7.6814   -2.0463    1.4165 N   0  0  2  0  0  0  0  0  0  0  0  0
    8.5645   -2.2156    0.2177 C   0  0  0  0  0  0  0  0  0  0  0  0
    7.0799   -3.3675    1.7854 C   0  0  0  0  0  0  0  0  0  0  0  0
    8.5428   -1.6077    2.5541 C   0  0  0  0  0  0  0  0  0  0  0  0
   -4.5802   -2.7515   -0.7093 O   0  0  0  0  0  0  0  0  0  0  0  0
   -5.9622   -2.6289   -1.0050 C   0  0  0  0  0  0  0  0  0  0  0  0
   -6.6488   -3.8454   -0.4604 C   0  0  0  0  0  0  0  0  0  0  0  0
   -6.8167   -3.9977    0.9145 C   0  0  0  0  0  0  0  0  0  0  0  0
   -7.4360   -5.1279    1.4267 C   0  0  0  0  0  0  0  0  0  0  0  0
   -7.8959   -6.1199    0.5679 C   0  0  0  0  0  0  0  0  0  0  0  0
   -7.7328   -5.9757   -0.8026 C   0  0  0  0  0  0  0  0  0  0  0  0
   -7.1083   -4.8436   -1.3121 C   0  0  0  0  0  0  0  0  0  0  0  0
   -5.1905   -0.4853   -2.0785 H   0  0  0  0  0  0  0  0  0  0  0  0
   -3.6233    1.2683   -2.6452 H   0  0  0  0  0  0  0  0  0  0  0  0
   -2.1154   -2.7418   -0.0838 H   0  0  0  0  0  0  0  0  0  0  0  0
    0.5242   -1.3368   -0.1613 H   0  0  0  0  0  0  0  0  0  0  0  0
   -0.2725    2.5164   -3.3004 H   0  0  0  0  0  0  0  0  0  0  0  0
   -1.9302    2.6269   -2.7542 H   0  0  0  0  0  0  0  0  0  0  0  0
    1.7475    0.7850    0.6649 H   0  0  0  0  0  0  0  0  0  0  0  0
    3.4583    2.5002    0.8026 H   0  0  0  0  0  0  0  0  0  0  0  0
    3.8139    2.2138   -0.8888 H   0  0  0  0  0  0  0  0  0  0  0  0
   -1.7613    2.6623    0.1548 H   0  0  0  0  0  0  0  0  0  0  0  0
    0.8497    4.4877   -2.7029 H   0  0  0  0  0  0  0  0  0  0  0  0
    1.5052    6.1685   -1.0157 H   0  0  0  0  0  0  0  0  0  0  0  0
    0.5641    6.0855    1.2468 H   0  0  0  0  0  0  0  0  0  0  0  0
    0.4966    4.8316    3.1119 H   0  0  0  0  0  0  0  0  0  0  0  0
   -0.8072    4.6592    4.1651 H   0  0  0  0  0  0  0  0  0  0  0  0
   -2.6926    3.7115    3.3258 H   0  0  0  0  0  0  0  0  0  0  0  0
    5.7921   -2.3012   -0.4872 H   0  0  0  0  0  0  0  0  0  0  0  0
    7.1434    0.3805    2.6065 H   0  0  0  0  0  0  0  0  0  0  0  0
    5.3798    1.9262    2.0095 H   0  0  0  0  0  0  0  0  0  0  0  0
    4.0378   -0.7403   -1.0582 H   0  0  0  0  0  0  0  0  0  0  0  0
    7.9902   -2.6209   -0.6087 H   0  0  0  0  0  0  0  0  0  0  0  0
    8.9748   -1.2476   -0.0541 H   0  0  0  0  0  0  0  0  0  0  0  0
    9.3657   -2.9040    0.4720 H   0  0  0  0  0  0  0  0  0  0  0  0
    7.8831   -4.0529    2.0418 H   0  0  0  0  0  0  0  0  0  0  0  0
    6.4195   -3.2271    2.6360 H   0  0  0  0  0  0  0  0  0  0  0  0
    6.5229   -3.7663    0.9443 H   0  0  0  0  0  0  0  0  0  0  0  0
    9.0242   -0.6660    2.3100 H   0  0  0  0  0  0  0  0  0  0  0  0
    7.9445   -1.5114    3.4550 H   0  0  0  0  0  0  0  0  0  0  0  0
    9.3017   -2.3691    2.7051 H   0  0  0  0  0  0  0  0  0  0  0  0
   -6.3710   -1.7223   -0.5448 H   0  0  0  0  0  0  0  0  0  0  0  0
   -6.1246   -2.5538   -2.0856 H   0  0  0  0  0  0  0  0  0  0  0  0
   -6.4678   -3.2241    1.5886 H   0  0  0  0  0  0  0  0  0  0  0  0
   -7.5644   -5.2349    2.4961 H   0  0  0  0  0  0  0  0  0  0  0  0
   -8.3814   -7.0007    0.9673 H   0  0  0  0  0  0  0  0  0  0  0  0
   -8.0891   -6.7443   -1.4762 H   0  0  0  0  0  0  0  0  0  0  0  0
   -6.9805   -4.7359   -2.3828 H   0  0  0  0  0  0  0  0  0  0  0  0
  1  2  2  0
  1  6  1  0
  1 34  1  0
  2  3  1  0
  2 42  1  0
  3  4  2  0
  3 43  1  0
  4  5  1  0
  4  8  1  0
  5  6  2  0
  5  7  1  0
  6 44  1  0
  7  9  2  0
  7 45  1  0
  8  9  1  0
  8 10  1  0
  9 11  1  0
 10 16  1  0
 10 46  1  0
 10 47  1  0
 11 12  1  0
 11 15  2  0
 12 13  1  0
 12 48  1  0
 13 14  1  0
 13 49  1  0
 13 50  1  0
 14 28  1  0
 14 29  2  0
 16 18  1  0
 16 19  2  0
 17 18  2  0
 17 21  1  0
 17 22  1  0
 18 51  1  0
 19 20  1  0
 19 52  1  0
 20 21  2  0
 20 53  1  0
 21 54  1  0
 22 23  1  0
 22 24  2  0
 23 55  1  0
 23 56  1  0
 24 57  1  0
 25 26  2  0
 25 29  1  0
 25 58  1  0
 26 27  1  0
 26 30  1  0
 27 28  2  0
 27 59  1  0
 28 60  1  0
 29 61  1  0
 30 31  1  6
 30 32  1  0
 30 33  1  0
 31 62  1  0
 31 63  1  0
 31 64  1  0
 32 65  1  0
 32 66  1  0
 32 67  1  0
 33 68  1  0
 33 69  1  0
 33 70  1  0
 34 35  1  0
 35 36  1  0
 35 71  1  0
 35 72  1  0
 36 37  2  0
 36 41  1  0
 37 38  1  0
 37 73  1  0
 38 39  2  0
 38 74  1  0
 39 40  1  0
 39 75  1  0
 40 41  2  0
 40 76  1  0
 41 77  1  0
M  CHG  1  30   1
M  END
