
     RDKit          3D

 73 77  0  0  0  0  0  0  0  0999 V2000
    4.7651   -0.1919    0.6197 C   0  0  0  0  0  0  0  0  0  0  0  0
    0.5339    2.2488    0.7510 C   0  0  2  0  0  0  0  0  0  0  0  0
    2.5909    0.9166    0.8081 C   0  0  0  0  0  0  0  0  0  0  0  0
   -0.3914    1.2637    0.0950 C   0  0  0  0  0  0  0  0  0  0  0  0
    0.2040    3.7168    0.4437 C   0  0  0  0  0  0  0  0  0  0  0  0
   -3.3999   -0.5899   -0.2636 C   0  0  0  0  0  0  0  0  0  0  0  0
   -3.5579   -1.9631   -0.4044 C   0  0  0  0  0  0  0  0  0  0  0  0
   -4.7909   -2.5900   -0.3212 C   0  0  0  0  0  0  0  0  0  0  0  0
   -5.9214   -1.8178   -0.0641 C   0  0  0  0  0  0  0  0  0  0  0  0
   -3.6790    4.4034    0.7013 C   0  0  1  0  0  0  0  0  0  0  0  0
   -2.3055    4.1052    0.0696 C   0  0  0  0  0  0  0  0  0  0  0  0
    8.0923   -1.6836   -0.3527 C   0  0  0  0  0  0  0  0  0  0  0  0
    8.8936   -0.5584   -0.4315 C   0  0  0  0  0  0  0  0  0  0  0  0
    8.3244    0.6832   -0.1934 C   0  0  0  0  0  0  0  0  0  0  0  0
    6.9866    0.8122    0.1344 C   0  0  0  0  0  0  0  0  0  0  0  0
    6.1708   -0.3143    0.2310 C   0  0  0  0  0  0  0  0  0  0  0  0
    6.7533   -1.5591   -0.0220 C   0  0  0  0  0  0  0  0  0  0  0  0
    5.9664   -2.7330    0.0400 N   0  0  0  0  0  0  0  0  0  0  0  0
    6.1602   -3.8527    0.7454 C   0  0  0  0  0  0  0  0  0  0  0  0
    5.1989   -4.6855    0.4536 N   0  0  0  0  0  0  0  0  0  0  0  0
    4.4253   -4.0578   -0.4361 N   0  0  0  0  0  0  0  0  0  0  0  0
    4.8691   -2.8959   -0.6971 N   0  0  0  0  0  0  0  0  0  0  0  0
    3.9996    0.8645    0.3476 C   0  0  0  0  0  0  0  0  0  0  0  0
    2.0857    0.0606    1.5199 O   0  0  0  0  0  0  0  0  0  0  0  0
    1.9039    1.9868    0.3629 N   0  0  0  0  0  0  0  0  0  0  0  0
   -5.7888   -0.4358    0.0831 C   0  0  0  0  0  0  0  0  0  0  0  0
   -4.5509    0.1820   -0.0243 C   0  0  0  0  0  0  0  0  0  0  0  0
   -0.0903    0.6162   -1.0469 N   0  0  0  0  0  0  0  0  0  0  0  0
   -1.1450   -0.1844   -1.3741 C   0  0  0  0  0  0  0  0  0  0  0  0
   -2.0718    0.0185   -0.3895 C   0  0  0  0  0  0  0  0  0  0  0  0
   -1.5826    0.9231    0.5216 N   0  0  0  0  0  0  0  0  0  0  0  0
   -4.4068    1.5710    0.1088 N   0  0  0  0  0  0  0  0  0  0  0  0
   -1.1289    4.1852    1.0351 C   0  0  0  0  0  0  0  0  0  0  0  0
   -4.8316    3.9787   -0.2167 C   0  0  0  0  0  0  0  0  0  0  0  0
   -5.2642    2.5258   -0.3364 C   0  0  0  0  0  0  0  0  0  0  0  0
   -7.2138   -2.3247    0.0718 N   0  0  0  0  0  0  0  0  0  0  0  0
   -7.6237   -3.6183    0.0116 C   0  0  0  0  0  0  0  0  0  0  0  0
   -8.9383   -3.6760    0.2196 O   0  0  0  0  0  0  0  0  0  0  0  0
   -6.9250   -4.5837   -0.1979 O   0  0  0  0  0  0  0  0  0  0  0  0
   -9.5389   -4.9682    0.1960 C   0  0  0  0  0  0  0  0  0  0  0  0
   -6.3397    2.2603   -0.8468 O   0  0  0  0  0  0  0  0  0  0  0  0
   -3.8716    3.9108    2.1388 C   0  0  0  0  0  0  0  0  0  0  0  0
    4.3274   -1.0169    1.1712 H   0  0  0  0  0  0  0  0  0  0  0  0
    0.4379    2.1066    1.8314 H   0  0  0  0  0  0  0  0  0  0  0  0
    1.0151    4.3106    0.8719 H   0  0  0  0  0  0  0  0  0  0  0  0
    0.2320    3.8852   -0.6375 H   0  0  0  0  0  0  0  0  0  0  0  0
   -2.6794   -2.5715   -0.5790 H   0  0  0  0  0  0  0  0  0  0  0  0
   -4.8512   -3.6588   -0.4383 H   0  0  0  0  0  0  0  0  0  0  0  0
   -3.7609    5.4937    0.7521 H   0  0  0  0  0  0  0  0  0  0  0  0
   -2.3004    3.1300   -0.4185 H   0  0  0  0  0  0  0  0  0  0  0  0
   -2.1516    4.8214   -0.7431 H   0  0  0  0  0  0  0  0  0  0  0  0
    8.5128   -2.6577   -0.5633 H   0  0  0  0  0  0  0  0  0  0  0  0
    9.9405   -0.6521   -0.6829 H   0  0  0  0  0  0  0  0  0  0  0  0
    6.5794    1.7901    0.3513 H   0  0  0  0  0  0  0  0  0  0  0  0
    6.9719   -4.0056    1.4373 H   0  0  0  0  0  0  0  0  0  0  0  0
    4.3755    1.6988   -0.2348 H   0  0  0  0  0  0  0  0  0  0  0  0
    2.3776    2.6766   -0.1992 H   0  0  0  0  0  0  0  0  0  0  0  0
   -6.6687    0.1560    0.2895 H   0  0  0  0  0  0  0  0  0  0  0  0
    0.7676    0.6975   -1.5704 H   0  0  0  0  0  0  0  0  0  0  0  0
   -1.1501   -0.8036   -2.2550 H   0  0  0  0  0  0  0  0  0  0  0  0
   -3.4995    1.8626    0.4429 H   0  0  0  0  0  0  0  0  0  0  0  0
   -1.3422    3.5948    1.9297 H   0  0  0  0  0  0  0  0  0  0  0  0
   -1.0218    5.2171    1.3789 H   0  0  0  0  0  0  0  0  0  0  0  0
   -5.7349    4.5182    0.0777 H   0  0  0  0  0  0  0  0  0  0  0  0
   -4.6187    4.3096   -1.2394 H   0  0  0  0  0  0  0  0  0  0  0  0
   -7.9331   -1.6414    0.2579 H   0  0  0  0  0  0  0  0  0  0  0  0
   -9.1223   -5.6183    0.9650 H   0  0  0  0  0  0  0  0  0  0  0  0
  -10.5939   -4.8070    0.3972 H   0  0  0  0  0  0  0  0  0  0  0  0
   -9.4279   -5.4447   -0.7777 H   0  0  0  0  0  0  0  0  0  0  0  0
   -3.2376    4.4636    2.8309 H   0  0  0  0  0  0  0  0  0  0  0  0
   -4.9048    4.0692    2.4538 H   0  0  0  0  0  0  0  0  0  0  0  0
   -3.6473    2.8532    2.2815 H   0  0  0  0  0  0  0  0  0  0  0  0
    9.3065    2.0996   -0.2926 Cl  0  0  0  0  0  0  0  0  0  0  0  0
 20 19  2  0
 20 21  1  0
 19 18  1  0
 21 22  2  0
 18 22  1  0
 18 17  1  0
 17 12  2  0
 17 16  1  0
 12 13  1  0
  5 33  1  0
  5  2  1  0
 33 11  1  0
 28 29  1  0
 28  4  1  0
 13 14  2  0
 16  1  1  0
 16 15  2  0
 29 30  2  0
  1 23  2  0
 25  2  1  0
 25  3  1  0
  2  4  1  0
  4 31  2  0
 14 15  1  0
 14 73  1  0
 42 10  1  0
 10 11  1  0
 10 34  1  0
 41 35  2  0
 23  3  1  0
 30 31  1  0
 30  6  1  0
  3 24  2  0
 35 34  1  0
 35 32  1  0
  6  7  1  0
  6 27  2  0
  7  8  2  0
 32 27  1  0
 27 26  1  0
  8  9  1  0
 26  9  2  0
  9 36  1  0
 39 37  2  0
 36 37  1  0
 37 38  1  0
 38 40  1  0
  1 43  1  0
  2 44  1  1
  5 45  1  0
  5 46  1  0
  7 47  1  0
  8 48  1  0
 10 49  1  1
 11 50  1  0
 11 51  1  0
 12 52  1  0
 13 53  1  0
 15 54  1  0
 19 55  1  0
 23 56  1  0
 25 57  1  0
 26 58  1  0
 28 59  1  0
 29 60  1  0
 32 61  1  0
 33 62  1  0
 33 63  1  0
 34 64  1  0
 34 65  1  0
 36 66  1  0
 40 67  1  0
 40 68  1  0
 40 69  1  0
 42 70  1  0
 42 71  1  0
 42 72  1  0
M  END
