
     RDKit          3D

 52 55  0  0  0  0  0  0  0  0999 V2000
   -2.2800   -0.4147   -2.3910 C   0  0  0  0  0  0  0  0  0  0  0  0
   -2.0047   -0.6824   -3.7201 C   0  0  0  0  0  0  0  0  0  0  0  0
   -0.7219   -0.4461   -4.1931 C   0  0  0  0  0  0  0  0  0  0  0  0
    0.2570    0.0644   -3.3592 C   0  0  0  0  0  0  0  0  0  0  0  0
    0.0010    0.3063   -2.0004 C   0  0  0  0  0  0  0  0  0  0  0  0
   -1.2877    0.0574   -1.5364 C   0  0  0  0  0  0  0  0  0  0  0  0
    1.7951    0.5554   -4.0466 S   0  0  0  0  0  0  0  0  0  0  0  0
    2.8286    0.2122   -2.6646 C   0  0  0  0  0  0  0  0  0  0  0  0
    4.1424   -0.1702   -2.8877 C   0  0  0  0  0  0  0  0  0  0  0  0
    5.0279   -0.2861   -1.8258 C   0  0  0  0  0  0  0  0  0  0  0  0
    4.5725   -0.0324   -0.5427 C   0  0  0  0  0  0  0  0  0  0  0  0
    3.2466    0.3096   -0.3136 C   0  0  0  0  0  0  0  0  0  0  0  0
    2.3437    0.4388   -1.3715 C   0  0  0  0  0  0  0  0  0  0  0  0
    1.0048    0.7984   -1.1670 N   0  0  0  0  0  0  0  0  0  0  0  0
    0.6417    1.4076    0.1034 C   0  0  0  0  0  0  0  0  0  0  0  0
    0.3697    0.4641    1.2818 C   0  0  0  0  0  0  0  0  0  0  0  0
    0.5189    1.2306    2.5909 C   0  0  0  0  0  0  0  0  0  0  0  0
   -0.0714    0.5564    3.7270 N   0  0  0  0  0  0  0  0  0  0  0  0
   -0.1007    1.4178    4.8937 C   0  0  0  0  0  0  0  0  0  0  0  0
   -0.8089    0.7347    6.0471 C   0  0  0  0  0  0  0  0  0  0  0  0
   -0.1577   -0.5167    6.3746 N   0  0  0  0  0  0  0  0  0  0  0  0
   -0.1194   -1.3798    5.2125 C   0  0  0  0  0  0  0  0  0  0  0  0
    0.5809   -0.6983    4.0513 C   0  0  0  0  0  0  0  0  0  0  0  0
   -0.7781   -1.1671    7.5042 C   0  0  0  0  0  0  0  0  0  0  0  0
   -3.6404   -0.6556   -1.8162 C   0  0  1  0  0  0  0  0  0  0  0  0
   -4.5260   -1.0455   -2.7358 F   0  0  0  0  0  0  0  0  0  0  0  0
   -3.6163   -1.6056   -0.8685 F   0  0  0  0  0  0  0  0  0  0  0  0
   -4.1378    0.4447   -1.2333 F   0  0  0  0  0  0  0  0  0  0  0  0
   -2.7585   -1.0607   -4.3954 H   0  0  0  0  0  0  0  0  0  0  0  0
   -0.4902   -0.6380   -5.2327 H   0  0  0  0  0  0  0  0  0  0  0  0
   -1.5313    0.2395   -0.5006 H   0  0  0  0  0  0  0  0  0  0  0  0
    4.4776   -0.3535   -3.9008 H   0  0  0  0  0  0  0  0  0  0  0  0
    6.0575   -0.5633   -2.0053 H   0  0  0  0  0  0  0  0  0  0  0  0
    5.2450   -0.1113    0.3009 H   0  0  0  0  0  0  0  0  0  0  0  0
    2.9373    0.4812    0.7064 H   0  0  0  0  0  0  0  0  0  0  0  0
   -0.2311    2.0417   -0.0660 H   0  0  0  0  0  0  0  0  0  0  0  0
    1.4510    2.0939    0.3628 H   0  0  0  0  0  0  0  0  0  0  0  0
    1.0415   -0.3955    1.2486 H   0  0  0  0  0  0  0  0  0  0  0  0
   -0.6431    0.0586    1.2357 H   0  0  0  0  0  0  0  0  0  0  0  0
    0.0135    2.1966    2.4848 H   0  0  0  0  0  0  0  0  0  0  0  0
    1.5866    1.4628    2.7586 H   0  0  0  0  0  0  0  0  0  0  0  0
   -0.6330    2.3383    4.6420 H   0  0  0  0  0  0  0  0  0  0  0  0
    0.9150    1.7085    5.2137 H   0  0  0  0  0  0  0  0  0  0  0  0
   -1.8708    0.5864    5.7820 H   0  0  0  0  0  0  0  0  0  0  0  0
   -0.7856    1.3904    6.9208 H   0  0  0  0  0  0  0  0  0  0  0  0
    0.4187   -2.2966    5.4662 H   0  0  0  0  0  0  0  0  0  0  0  0
   -1.1338   -1.6794    4.8944 H   0  0  0  0  0  0  0  0  0  0  0  0
    0.5437   -1.3680    3.1908 H   0  0  0  0  0  0  0  0  0  0  0  0
    1.6461   -0.5500    4.3020 H   0  0  0  0  0  0  0  0  0  0  0  0
   -0.2298   -2.0748    7.7616 H   0  0  0  0  0  0  0  0  0  0  0  0
   -0.7590   -0.5074    8.3733 H   0  0  0  0  0  0  0  0  0  0  0  0
   -1.8269   -1.4505    7.3216 H   0  0  0  0  0  0  0  0  0  0  0  0
  1  2  2  0
  1  6  1  0
  1 25  1  0
  2  3  1  0
  2 29  1  0
  3  4  2  0
  3 30  1  0
  4  5  1  0
  4  7  1  0
  5  6  2  0
  5 14  1  0
  6 31  1  0
  7  8  1  0
  8  9  2  0
  8 13  1  0
  9 10  1  0
  9 32  1  0
 10 11  2  0
 10 33  1  0
 11 12  1  0
 11 34  1  0
 12 13  2  0
 12 35  1  0
 13 14  1  0
 14 15  1  0
 15 16  1  0
 15 36  1  0
 15 37  1  0
 16 17  1  0
 16 38  1  0
 16 39  1  0
 17 18  1  0
 17 40  1  0
 17 41  1  0
 18 19  1  0
 18 23  1  0
 19 20  1  0
 19 42  1  0
 19 43  1  0
 20 21  1  0
 20 44  1  0
 20 45  1  0
 21 22  1  0
 21 24  1  0
 22 23  1  0
 22 46  1  0
 22 47  1  0
 23 48  1  0
 23 49  1  0
 24 50  1  0
 24 51  1  0
 24 52  1  0
 25 26  1  6
 25 27  1  0
 25 28  1  0
M  END
