
     RDKit          3D

 24 25  0  0  0  0  0  0  0  0999 V2000
   -1.0831    2.6449   -0.3056 C   0  0  0  0  0  0  0  0  0  0  0  0
   -3.1624    1.4437   -0.3677 C   0  0  0  0  0  0  0  0  0  0  0  0
   -2.4481    2.6248   -0.5187 C   0  0  0  0  0  0  0  0  0  0  0  0
   -2.4945    0.2863    0.0070 C   0  0  0  0  0  0  0  0  0  0  0  0
   -0.3946    1.4770    0.0425 C   0  0  0  0  0  0  0  0  0  0  0  0
   -1.1206    0.2990    0.2110 C   0  0  0  0  0  0  0  0  0  0  0  0
    3.4156    0.9183    0.2987 C   0  0  0  0  0  0  0  0  0  0  0  0
    4.1624   -0.2085    0.0565 N   0  0  0  0  0  0  0  0  0  0  0  0
    3.5155   -1.3640   -0.2841 C   0  0  0  0  0  0  0  0  0  0  0  0
    1.7604   -1.0764   -0.3174 S   0  0  0  0  0  0  0  0  0  0  0  0
    1.9749    0.6098    0.1120 C   0  0  0  0  0  0  0  0  0  0  0  0
   -3.2256   -1.0076    0.1967 C   0  0  1  0  0  0  0  0  0  0  0  0
    1.0473    1.5687    0.2171 C   0  0  0  0  0  0  0  0  0  0  0  0
    4.0201   -2.4237   -0.5236 O   0  0  0  0  0  0  0  0  0  0  0  0
   -3.0106   -1.5220    1.4152 F   0  0  0  0  0  0  0  0  0  0  0  0
   -4.5454   -0.8790    0.0503 F   0  0  0  0  0  0  0  0  0  0  0  0
   -2.8192   -1.9329   -0.6842 F   0  0  0  0  0  0  0  0  0  0  0  0
   -0.5342    3.5714   -0.4192 H   0  0  0  0  0  0  0  0  0  0  0  0
   -4.2303    1.4447   -0.5347 H   0  0  0  0  0  0  0  0  0  0  0  0
   -2.9650    3.5317   -0.8003 H   0  0  0  0  0  0  0  0  0  0  0  0
   -0.6273   -0.6038    0.5480 H   0  0  0  0  0  0  0  0  0  0  0  0
    5.1733   -0.1942    0.1232 H   0  0  0  0  0  0  0  0  0  0  0  0
    1.4271    2.5634    0.4267 H   0  0  0  0  0  0  0  0  0  0  0  0
    3.8768    1.9886    0.6095 O   0  0  0  0  0  0  0  0  0  0  0  0
  3  1  2  0
  3  2  1  0
  1  5  1  0
  2  4  2  0
  5 13  1  0
  5  6  2  0
  4  6  1  0
  4 12  1  0
 13 11  2  0
 12 15  1  1
 24  7  2  0
 17 12  1  0
 12 16  1  0
 11  7  1  0
 11 10  1  0
  7  8  1  0
 10  9  1  0
  8  9  1  0
  9 14  2  0
  1 18  1  0
  2 19  1  0
  3 20  1  0
  6 21  1  0
  8 22  1  0
 13 23  1  0
M  END
