
     RDKit          3D

 34 33  0  0  0  0  0  0  0  0999 V2000
    6.7555   -0.3174    0.0299 C   0  0  0  0  0  0  0  0  0  0  0  0
    5.4753    0.5068    0.0347 C   0  0  0  0  0  0  0  0  0  0  0  0
    4.2198   -0.3570    0.0294 C   0  0  0  0  0  0  0  0  0  0  0  0
    2.9277    0.4501    0.0288 C   0  0  0  0  0  0  0  0  0  0  0  0
    1.6780   -0.4218    0.0278 C   0  0  0  0  0  0  0  0  0  0  0  0
    0.3817    0.3786    0.0063 C   0  0  0  0  0  0  0  0  0  0  0  0
   -0.8620   -0.5015    0.0109 C   0  0  0  0  0  0  0  0  0  0  0  0
   -2.1596    0.2957   -0.0448 C   0  0  0  0  0  0  0  0  0  0  0  0
   -3.3811   -0.6082   -0.0297 C   0  0  0  0  0  0  0  0  0  0  0  0
   -4.7102    0.0929   -0.1286 C   0  0  0  0  0  0  0  0  0  0  0  0
   -4.8041    1.2788   -0.3576 O   0  0  0  0  0  0  0  0  0  0  0  0
   -5.9203   -0.7740    0.0926 C   0  0  0  0  0  0  0  0  0  0  0  0
    6.8094   -0.9644    0.9077 H   0  0  0  0  0  0  0  0  0  0  0  0
    6.8065   -0.9578   -0.8531 H   0  0  0  0  0  0  0  0  0  0  0  0
    7.6443    0.3146    0.0303 H   0  0  0  0  0  0  0  0  0  0  0  0
    5.4610    1.1598    0.9131 H   0  0  0  0  0  0  0  0  0  0  0  0
    5.4619    1.1706   -0.8354 H   0  0  0  0  0  0  0  0  0  0  0  0
    4.2372   -1.0133   -0.8483 H   0  0  0  0  0  0  0  0  0  0  0  0
    4.2342   -1.0207    0.9016 H   0  0  0  0  0  0  0  0  0  0  0  0
    2.9098    1.1094    0.9041 H   0  0  0  0  0  0  0  0  0  0  0  0
    2.9114    1.1091   -0.8467 H   0  0  0  0  0  0  0  0  0  0  0  0
    1.7046   -1.0901   -0.8404 H   0  0  0  0  0  0  0  0  0  0  0  0
    1.6890   -1.0720    0.9098 H   0  0  0  0  0  0  0  0  0  0  0  0
    0.3536    1.0515    0.8706 H   0  0  0  0  0  0  0  0  0  0  0  0
    0.3678    1.0229   -0.8800 H   0  0  0  0  0  0  0  0  0  0  0  0
   -0.8213   -1.1888   -0.8416 H   0  0  0  0  0  0  0  0  0  0  0  0
   -0.8566   -1.1316    0.9074 H   0  0  0  0  0  0  0  0  0  0  0  0
   -2.2005    0.9862    0.8030 H   0  0  0  0  0  0  0  0  0  0  0  0
   -2.1662    0.9146   -0.9462 H   0  0  0  0  0  0  0  0  0  0  0  0
   -3.3379   -1.3223   -0.8617 H   0  0  0  0  0  0  0  0  0  0  0  0
   -3.3929   -1.2345    0.8699 H   0  0  0  0  0  0  0  0  0  0  0  0
   -5.7908   -1.7633   -0.3464 H   0  0  0  0  0  0  0  0  0  0  0  0
   -6.0512   -0.9215    1.1677 H   0  0  0  0  0  0  0  0  0  0  0  0
   -6.8231   -0.3119   -0.3013 H   0  0  0  0  0  0  0  0  0  0  0  0
  1  2  1  0
  2  3  1  0
  3  4  1  0
  4  5  1  0
  5  6  1  0
  6  7  1  0
  7  8  1  0
  8  9  1  0
  9 10  1  0
 10 11  2  0
 10 12  1  0
  1 13  1  0
  1 14  1  0
  1 15  1  0
  2 16  1  0
  2 17  1  0
  3 18  1  0
  3 19  1  0
  4 20  1  0
  4 21  1  0
  5 22  1  0
  5 23  1  0
  6 24  1  0
  6 25  1  0
  7 26  1  0
  7 27  1  0
  8 28  1  0
  8 29  1  0
  9 30  1  0
  9 31  1  0
 12 32  1  0
 12 33  1  0
 12 34  1  0
M  END
