
     RDKit          3D

 64 68  0  0  0  0  0  0  0  0999 V2000
   -3.1149   -0.6469   -1.0824 O   0  0  0  0  0  0  0  0  0  0  0  0
  -10.4112    2.9666    0.5290 Cl  0  0  0  0  0  0  0  0  0  0  0  0
   10.6059   -1.1706    0.9905 Cl  0  0  0  0  0  0  0  0  0  0  0  0
   -7.7857   -0.7652   -2.2635 Cl  0  0  0  0  0  0  0  0  0  0  0  0
   -2.9452   -3.9137    0.7966 C   0  0  0  0  0  0  0  0  0  0  0  0
   -8.0364    1.9503    1.3090 C   0  0  0  0  0  0  0  0  0  0  0  0
   -0.4248    0.5079   -0.6034 C   0  0  0  0  0  0  0  0  0  0  0  0
   -0.1657    0.1940    1.7493 C   0  0  0  0  0  0  0  0  0  0  0  0
    9.3400    2.0823   -0.9302 C   0  0  0  0  0  0  0  0  0  0  0  0
    0.9507    0.5371   -0.7411 C   0  0  0  0  0  0  0  0  0  0  0  0
    1.2131    0.2576    1.6136 C   0  0  0  0  0  0  0  0  0  0  0  0
    7.9718    1.9943   -0.7846 C   0  0  0  0  0  0  0  0  0  0  0  0
   -6.9421    1.1163    1.1522 C   0  0  0  0  0  0  0  0  0  0  0  0
   -3.8446   -3.0580    1.3619 C   0  0  0  0  0  0  0  0  0  0  0  0
   -4.5123   -3.6857   -0.6227 C   0  0  0  0  0  0  0  0  0  0  0  0
   -8.9594    1.0990   -0.7493 C   0  0  0  0  0  0  0  0  0  0  0  0
    8.2336   -0.0470    0.4425 C   0  0  0  0  0  0  0  0  0  0  0  0
    4.0287    0.1630    1.3302 C   0  0  0  0  0  0  0  0  0  0  0  0
    3.7533    1.4812   -0.6445 C   0  0  0  0  0  0  0  0  0  0  0  0
    5.4508   -0.1709    0.9150 C   0  0  0  0  0  0  0  0  0  0  0  0
    5.1636    1.1401   -1.0754 C   0  0  0  0  0  0  0  0  0  0  0  0
   -5.9744   -2.0278    0.5233 C   0  0  0  0  0  0  0  0  0  0  0  0
   -3.3746   -4.3020   -0.4419 N   0  0  0  0  0  0  0  0  0  0  0  0
   -2.3925    0.3060    0.8645 N   0  0  0  0  0  0  0  0  0  0  0  0
   -4.5333   -0.1128    0.5957 O   0  0  0  0  0  0  0  0  0  0  0  0
   -3.3172   -0.1995    0.0208 C   0  0  0  0  0  0  0  0  0  0  0  0
   -9.0371    1.9340    0.3516 C   0  0  0  0  0  0  0  0  0  0  0  0
   -1.0045    0.3207    0.6502 C   0  0  0  0  0  0  0  0  0  0  0  0
   10.1785    1.1181   -0.3856 C   0  0  0  0  0  0  0  0  0  0  0  0
    9.6098    0.0596    0.3040 C   0  0  0  0  0  0  0  0  0  0  0  0
   -7.8518    0.2760   -0.8792 C   0  0  0  0  0  0  0  0  0  0  0  0
    1.8098    0.4136    0.3590 C   0  0  0  0  0  0  0  0  0  0  0  0
    7.3813    0.9262   -0.0894 C   0  0  0  0  0  0  0  0  0  0  0  0
   -6.8198    0.2678    0.0556 C   0  0  0  0  0  0  0  0  0  0  0  0
   -5.6449   -0.6632   -0.0884 C   0  0  2  0  0  0  0  0  0  0  0  0
    3.1951    0.4181    0.1761 N   0  0  0  0  0  0  0  0  0  0  0  0
    6.0066    0.8735    0.0814 N   0  0  0  0  0  0  0  0  0  0  0  0
   -4.8514   -2.9283    0.4437 N   0  0  0  0  0  0  0  0  0  0  0  0
   -2.0197   -4.2727    1.2195 H   0  0  0  0  0  0  0  0  0  0  0  0
   -8.1044    2.6021    2.1688 H   0  0  0  0  0  0  0  0  0  0  0  0
   -1.0360    0.6287   -1.4850 H   0  0  0  0  0  0  0  0  0  0  0  0
   -0.5881    0.0569    2.7378 H   0  0  0  0  0  0  0  0  0  0  0  0
    9.7665    2.9224   -1.4612 H   0  0  0  0  0  0  0  0  0  0  0  0
    1.3547    0.6524   -1.7385 H   0  0  0  0  0  0  0  0  0  0  0  0
    1.8111    0.1827    2.5108 H   0  0  0  0  0  0  0  0  0  0  0  0
    7.3633    2.7857   -1.1992 H   0  0  0  0  0  0  0  0  0  0  0  0
   -6.1682    1.1378    1.9068 H   0  0  0  0  0  0  0  0  0  0  0  0
   -3.8656   -2.5551    2.3143 H   0  0  0  0  0  0  0  0  0  0  0  0
   -5.1421   -3.7544   -1.4980 H   0  0  0  0  0  0  0  0  0  0  0  0
   -9.7425    1.0866   -1.4943 H   0  0  0  0  0  0  0  0  0  0  0  0
    7.8427   -0.9112    0.9597 H   0  0  0  0  0  0  0  0  0  0  0  0
    3.6452   -0.6967    1.8802 H   0  0  0  0  0  0  0  0  0  0  0  0
    4.0432    1.0204    2.0202 H   0  0  0  0  0  0  0  0  0  0  0  0
    3.7601    2.4351   -0.0969 H   0  0  0  0  0  0  0  0  0  0  0  0
    3.1566    1.6242   -1.5425 H   0  0  0  0  0  0  0  0  0  0  0  0
    6.0380   -0.2654    1.8284 H   0  0  0  0  0  0  0  0  0  0  0  0
    5.4642   -1.1460    0.4064 H   0  0  0  0  0  0  0  0  0  0  0  0
    5.1434    0.2671   -1.7425 H   0  0  0  0  0  0  0  0  0  0  0  0
    5.5545    1.9790   -1.6459 H   0  0  0  0  0  0  0  0  0  0  0  0
   -6.2623   -1.9139    1.5687 H   0  0  0  0  0  0  0  0  0  0  0  0
   -6.8221   -2.4673   -0.0022 H   0  0  0  0  0  0  0  0  0  0  0  0
   -2.7072    0.5668    1.7872 H   0  0  0  0  0  0  0  0  0  0  0  0
   -5.4010   -0.7908   -1.1447 H   0  0  0  0  0  0  0  0  0  0  0  0
   11.8879    1.2569   -0.5690 Cl  0  0  0  0  0  0  0  0  0  0  0  0
  1 26  2  0
  2 27  1  0
 64 29  1  0
  3 30  1  0
  4 31  1  0
  5 14  2  0
  5 23  1  0
  6 13  2  0
  6 27  1  0
  7 10  2  0
  7 28  1  0
  8 11  1  0
  8 28  2  0
  9 12  2  0
  9 29  1  0
 10 32  1  0
 11 32  2  0
 12 33  1  0
 13 34  1  0
 14 38  1  0
 15 23  2  0
 15 38  1  0
 16 27  2  0
 16 31  1  0
 17 30  1  0
 17 33  2  0
 18 20  1  0
 18 36  1  0
 19 21  1  0
 19 36  1  0
 20 37  1  0
 21 37  1  0
 22 35  1  0
 22 38  1  0
 24 26  1  0
 24 28  1  0
 25 26  1  0
 25 35  1  0
 29 30  2  0
 31 34  2  0
 32 36  1  0
 33 37  1  0
 34 35  1  0
  5 39  1  0
  6 40  1  0
  7 41  1  0
  8 42  1  0
  9 43  1  0
 10 44  1  0
 11 45  1  0
 12 46  1  0
 13 47  1  0
 14 48  1  0
 15 49  1  0
 16 50  1  0
 17 51  1  0
 18 52  1  0
 18 53  1  0
 19 54  1  0
 19 55  1  0
 20 56  1  0
 20 57  1  0
 21 58  1  0
 21 59  1  0
 22 60  1  0
 22 61  1  0
 24 62  1  0
 35 63  1  6
M  END
