
     RDKit          3D

 59 62  0  0  0  0  0  0  0  0999 V2000
   -7.8483    1.8395    0.1213 C   0  0  0  0  0  0  0  0  0  0  0  0
   -7.4562    2.9914    0.7495 C   0  0  0  0  0  0  0  0  0  0  0  0
   -6.1075    3.1819    1.1032 C   0  0  0  0  0  0  0  0  0  0  0  0
   -5.1765    2.2160    0.8237 C   0  0  0  0  0  0  0  0  0  0  0  0
   -5.5533    1.0166    0.1791 C   0  0  0  0  0  0  0  0  0  0  0  0
   -6.9098    0.8276   -0.1777 C   0  0  0  0  0  0  0  0  0  0  0  0
   -7.3572   -0.2919   -0.8001 N   0  0  0  0  0  0  0  0  0  0  0  0
   -6.5017   -1.2374   -1.0793 C   0  0  0  0  0  0  0  0  0  0  0  0
   -5.1215   -1.1407   -0.7608 C   0  0  0  0  0  0  0  0  0  0  0  0
   -4.6380   -0.0284   -0.1372 C   0  0  0  0  0  0  0  0  0  0  0  0
   -3.1921    0.1421    0.2202 C   0  0  0  0  0  0  0  0  0  0  0  0
   -1.1508   -1.0533    0.1040 C   0  0  0  0  0  0  0  0  0  0  0  0
   -2.4803   -1.0153   -0.1337 O   0  0  0  0  0  0  0  0  0  0  0  0
   -0.4915   -2.2269   -0.2490 C   0  0  0  0  0  0  0  0  0  0  0  0
    0.8731   -2.3515   -0.0437 C   0  0  0  0  0  0  0  0  0  0  0  0
    1.6219   -1.3217    0.5200 C   0  0  0  0  0  0  0  0  0  0  0  0
    0.9432   -0.1558    0.8634 C   0  0  0  0  0  0  0  0  0  0  0  0
   -0.4218   -0.0082    0.6656 C   0  0  0  0  0  0  0  0  0  0  0  0
    3.4854   -1.2476    2.2553 C   0  0  0  0  0  0  0  0  0  0  0  0
    3.1105   -1.4198    0.7723 C   0  0  1  0  0  0  0  0  0  0  0  0
    3.7426   -2.6949    0.2052 C   0  0  0  0  0  0  0  0  0  0  0  0
    3.8459   -0.2519    0.1147 C   0  0  0  0  0  0  0  0  0  0  0  0
    3.6962    0.1357   -1.0310 O   0  0  0  0  0  0  0  0  0  0  0  0
    4.8217   -0.5107    2.2242 C   0  0  0  0  0  0  0  0  0  0  0  0
    5.7481    1.1912    0.5821 C   0  0  1  0  0  0  0  0  0  0  0  0
    6.5439    0.5742   -0.5760 C   0  0  0  0  0  0  0  0  0  0  0  0
    6.9824    1.4497   -1.4959 N   0  0  0  0  0  0  0  0  0  0  0  0
    7.6135    0.9827   -2.6102 O   0  0  0  0  0  0  0  0  0  0  0  0
    6.8178   -0.6104   -0.5889 O   0  0  0  0  0  0  0  0  0  0  0  0
    5.1761    2.5880    0.3625 C   0  0  0  0  0  0  0  0  0  0  0  0
    4.7360    0.2470    0.9910 N   0  0  0  0  0  0  0  0  0  0  0  0
   -8.8819    1.6788   -0.1575 H   0  0  0  0  0  0  0  0  0  0  0  0
   -8.1840    3.7594    0.9767 H   0  0  0  0  0  0  0  0  0  0  0  0
   -5.8052    4.0947    1.5988 H   0  0  0  0  0  0  0  0  0  0  0  0
   -4.1448    2.3843    1.1047 H   0  0  0  0  0  0  0  0  0  0  0  0
   -6.9233   -3.3359   -1.0850 H   0  0  0  0  0  0  0  0  0  0  0  0
   -8.0472   -2.3652   -2.0438 H   0  0  0  0  0  0  0  0  0  0  0  0
   -6.4161   -2.7082   -2.6414 H   0  0  0  0  0  0  0  0  0  0  0  0
   -4.4731   -1.9646   -1.0245 H   0  0  0  0  0  0  0  0  0  0  0  0
   -3.1032    0.3379    1.2960 H   0  0  0  0  0  0  0  0  0  0  0  0
   -2.7941    1.0222   -0.3013 H   0  0  0  0  0  0  0  0  0  0  0  0
   -1.0504   -3.0440   -0.6877 H   0  0  0  0  0  0  0  0  0  0  0  0
    1.3454   -3.2792   -0.3367 H   0  0  0  0  0  0  0  0  0  0  0  0
    1.4817    0.6764    1.3029 H   0  0  0  0  0  0  0  0  0  0  0  0
   -0.8901    0.9222    0.9566 H   0  0  0  0  0  0  0  0  0  0  0  0
    3.5470   -2.1988    2.7831 H   0  0  0  0  0  0  0  0  0  0  0  0
    2.7445   -0.6336    2.7683 H   0  0  0  0  0  0  0  0  0  0  0  0
    3.3277   -3.5802    0.6875 H   0  0  0  0  0  0  0  0  0  0  0  0
    3.5825   -2.7810   -0.8695 H   0  0  0  0  0  0  0  0  0  0  0  0
    4.8199   -2.7024    0.3771 H   0  0  0  0  0  0  0  0  0  0  0  0
    5.6759   -1.1936    2.1979 H   0  0  0  0  0  0  0  0  0  0  0  0
    4.9473    0.1527    3.0804 H   0  0  0  0  0  0  0  0  0  0  0  0
    6.4659    1.2554    1.4054 H   0  0  0  0  0  0  0  0  0  0  0  0
    6.5989    2.3771   -1.5978 H   0  0  0  0  0  0  0  0  0  0  0  0
    8.5590    1.0975   -2.4505 H   0  0  0  0  0  0  0  0  0  0  0  0
    5.9691    3.3221    0.2155 H   0  0  0  0  0  0  0  0  0  0  0  0
    4.4975    2.6270   -0.4881 H   0  0  0  0  0  0  0  0  0  0  0  0
    4.6256    2.8910    1.2518 H   0  0  0  0  0  0  0  0  0  0  0  0
   -7.0050   -2.4760   -1.7529 C   0  0  0  0  0  0  0  0  0  0  0  0
  1  2  2  0
  1  6  1  0
  1 32  1  0
  2  3  1  0
  2 33  1  0
  3  4  2  0
  3 34  1  0
  4  5  1  0
  4 35  1  0
  5  6  2  0
  5 10  1  0
  6  7  1  0
  7  8  2  0
 59  8  1  0
 59 36  1  0
 59 37  1  0
 59 38  1  0
  8  9  1  0
  9 10  2  0
  9 39  1  0
 10 11  1  0
 11 13  1  0
 11 40  1  0
 11 41  1  0
 12 13  1  0
 12 14  2  0
 12 18  1  0
 14 15  1  0
 14 42  1  0
 15 16  2  0
 15 43  1  0
 16 17  1  0
 16 20  1  0
 17 18  2  0
 17 44  1  0
 18 45  1  0
 19 20  1  0
 19 24  1  0
 19 46  1  0
 19 47  1  0
 20 21  1  6
 20 22  1  0
 21 48  1  0
 21 49  1  0
 21 50  1  0
 22 23  2  0
 22 31  1  0
 24 31  1  0
 24 51  1  0
 24 52  1  0
 25 26  1  0
 25 30  1  0
 25 31  1  0
 25 53  1  1
 26 27  1  0
 26 29  2  0
 27 28  1  0
 27 54  1  0
 28 55  1  0
 30 56  1  0
 30 57  1  0
 30 58  1  0
M  END
