
     RDKit          3D

 37 39  0  0  0  0  0  0  0  0999 V2000
    1.2538   -1.7839   -0.6556 C   0  0  0  0  0  0  0  0  0  0  0  0
   -0.2045   -2.0033   -1.0233 C   0  0  0  0  0  0  0  0  0  0  0  0
   -1.0683   -1.3185   -0.0782 N   0  0  0  0  0  0  0  0  0  0  0  0
   -0.8727    0.1201   -0.0949 C   0  0  2  0  0  0  0  0  0  0  0  0
    0.5648    0.4362    0.3032 C   0  0  0  0  0  0  0  0  0  0  0  0
    1.5528   -0.2796   -0.6261 C   0  0  1  0  0  0  0  0  0  0  0  0
    2.9636    0.0045   -0.2631 C   0  0  0  0  0  0  0  0  0  0  0  0
    3.3621   -0.3989    0.9544 O   0  0  0  0  0  0  0  0  0  0  0  0
    4.7078   -0.1305    1.0303 N   0  0  0  0  0  0  0  0  0  0  0  0
    5.1193    0.5947   -0.0721 C   0  0  0  0  0  0  0  0  0  0  0  0
    3.9645    0.5948   -0.9418 C   0  0  0  0  0  0  0  0  0  0  0  0
    6.2387    1.0634   -0.2016 O   0  0  0  0  0  0  0  0  0  0  0  0
   -1.8506    0.8043    0.8633 C   0  0  0  0  0  0  0  0  0  0  0  0
   -3.2891    0.5908    0.4818 C   0  0  0  0  0  0  0  0  0  0  0  0
   -4.0625   -0.3845    1.1080 C   0  0  0  0  0  0  0  0  0  0  0  0
   -5.3813   -0.6021    0.7279 C   0  0  0  0  0  0  0  0  0  0  0  0
   -5.9475    0.1559   -0.2874 C   0  0  0  0  0  0  0  0  0  0  0  0
   -5.1869    1.1327   -0.9194 C   0  0  0  0  0  0  0  0  0  0  0  0
   -3.8703    1.3456   -0.5369 C   0  0  0  0  0  0  0  0  0  0  0  0
    1.4538   -2.2285    0.3223 H   0  0  0  0  0  0  0  0  0  0  0  0
    1.8981   -2.2817   -1.3829 H   0  0  0  0  0  0  0  0  0  0  0  0
   -0.3626   -1.6635   -2.0600 H   0  0  0  0  0  0  0  0  0  0  0  0
   -0.4333   -3.0702   -1.0007 H   0  0  0  0  0  0  0  0  0  0  0  0
    1.4166    0.1132   -1.6391 H   0  0  0  0  0  0  0  0  0  0  0  0
   -2.0331   -1.5287   -0.3033 H   0  0  0  0  0  0  0  0  0  0  0  0
   -1.0399    0.5385   -1.1046 H   0  0  0  0  0  0  0  0  0  0  0  0
    0.7238    1.5162    0.2612 H   0  0  0  0  0  0  0  0  0  0  0  0
    0.7225    0.1193    1.3383 H   0  0  0  0  0  0  0  0  0  0  0  0
   -1.6727    0.4309    1.8754 H   0  0  0  0  0  0  0  0  0  0  0  0
   -1.6262    1.8742    0.8720 H   0  0  0  0  0  0  0  0  0  0  0  0
    3.9124    1.0145   -1.9323 H   0  0  0  0  0  0  0  0  0  0  0  0
    4.9980    0.0720    1.9785 H   0  0  0  0  0  0  0  0  0  0  0  0
   -3.6284   -0.9786    1.9040 H   0  0  0  0  0  0  0  0  0  0  0  0
   -3.2845    2.1123   -1.0311 H   0  0  0  0  0  0  0  0  0  0  0  0
   -5.9670   -1.3633    1.2274 H   0  0  0  0  0  0  0  0  0  0  0  0
   -6.9755   -0.0096   -0.5830 H   0  0  0  0  0  0  0  0  0  0  0  0
   -5.6226    1.7317   -1.7090 H   0  0  0  0  0  0  0  0  0  0  0  0
  1  2  1  0
  1  6  1  0
  2  3  1  0
  3  4  1  0
  4  5  1  0
  4 13  1  0
  5  6  1  0
  6  7  1  0
  7  8  1  0
  7 11  2  0
  8  9  1  0
  9 10  1  0
 10 11  1  0
 10 12  2  0
 13 14  1  0
 14 15  2  0
 14 19  1  0
 15 16  1  0
 16 17  2  0
 17 18  1  0
 18 19  2  0
  1 20  1  0
  1 21  1  0
  2 22  1  0
  2 23  1  0
  6 24  1  6
  3 25  1  0
  4 26  1  6
  5 27  1  0
  5 28  1  0
 13 29  1  0
 13 30  1  0
 11 31  1  0
  9 32  1  0
 15 33  1  0
 19 34  1  0
 16 35  1  0
 17 36  1  0
 18 37  1  0
M  END
