
     RDKit          3D

 64 65  0  0  0  0  0  0  0  0999 V2000
   -0.7133    1.5359   -3.7782 B   0  0  0  0  0  0  0  0  0  0  0  0
    0.0972    0.1732   -3.5642 C   0  0  2  0  0  0  0  0  0  0  0  0
    0.1530   -0.6548   -4.8501 C   0  0  0  0  0  0  0  0  0  0  0  0
    0.9124    0.0436   -5.9712 C   0  0  0  0  0  0  0  0  0  0  0  0
    1.0724   -0.8347   -7.2051 C   0  0  0  0  0  0  0  0  0  0  0  0
    1.8483   -0.1462   -8.3169 C   0  0  0  0  0  0  0  0  0  0  0  0
   -1.6799   -0.9216   -0.4051 C   0  0  2  0  0  0  0  0  0  0  0  0
   -3.2123   -0.8747   -0.5242 C   0  0  0  0  0  0  0  0  0  0  0  0
   -3.6927   -0.9395    0.9211 C   0  0  0  0  0  0  0  0  0  0  0  0
   -2.6472   -0.1221    1.6617 C   0  0  0  0  0  0  0  0  0  0  0  0
   -0.0929   -0.9830    3.7831 C   0  0  0  0  0  0  0  0  0  0  0  0
    0.0505    0.1930    2.7963 C   0  0  1  0  0  0  0  0  0  0  0  0
    3.6208    1.4778    2.9612 C   0  0  0  0  0  0  0  0  0  0  0  0
    1.2586   -0.2672    7.2634 C   0  0  0  0  0  0  0  0  0  0  0  0
    0.1808    0.3762    7.8562 C   0  0  0  0  0  0  0  0  0  0  0  0
   -0.9872    0.5684    7.1284 C   0  0  0  0  0  0  0  0  0  0  0  0
   -1.0710    0.1196    5.8181 C   0  0  0  0  0  0  0  0  0  0  0  0
    0.0062   -0.5244    5.2114 C   0  0  0  0  0  0  0  0  0  0  0  0
    1.1706   -0.7120    5.9501 C   0  0  0  0  0  0  0  0  0  0  0  0
   -0.5277   -0.6073   -2.5109 N   0  0  0  0  0  0  0  0  0  0  0  0
    1.9731   -1.0125   -9.4806 N   0  0  0  0  0  0  0  0  0  0  0  0
   -1.4199   -0.4576    0.9475 N   0  0  0  0  0  0  0  0  0  0  0  0
    1.2821    0.9274    2.9345 N   0  0  0  0  0  0  0  0  0  0  0  0
   -2.0282    1.4346   -4.1209 O   0  0  0  0  0  0  0  0  0  0  0  0
   -0.1012    2.7566   -3.8478 O   0  0  0  0  0  0  0  0  0  0  0  0
    2.8010   -0.7639    2.9019 O   0  0  0  0  0  0  0  0  0  0  0  0
    1.1343    0.3917   -3.2688 H   0  0  0  0  0  0  0  0  0  0  0  0
    0.6439   -1.6121   -4.6383 H   0  0  0  0  0  0  0  0  0  0  0  0
   -0.8604   -0.8970   -5.1829 H   0  0  0  0  0  0  0  0  0  0  0  0
    0.3985    0.9680   -6.2559 H   0  0  0  0  0  0  0  0  0  0  0  0
    1.9012    0.3437   -5.6077 H   0  0  0  0  0  0  0  0  0  0  0  0
    1.5870   -1.7609   -6.9250 H   0  0  0  0  0  0  0  0  0  0  0  0
    0.0883   -1.1294   -7.5826 H   0  0  0  0  0  0  0  0  0  0  0  0
    1.3120    0.7583   -8.6175 H   0  0  0  0  0  0  0  0  0  0  0  0
    2.8154    0.1916   -7.9157 H   0  0  0  0  0  0  0  0  0  0  0  0
   -1.3155   -1.9469   -0.5256 H   0  0  0  0  0  0  0  0  0  0  0  0
   -3.5908   -1.6872   -1.1416 H   0  0  0  0  0  0  0  0  0  0  0  0
   -3.5290    0.0669   -0.9769 H   0  0  0  0  0  0  0  0  0  0  0  0
   -3.6850   -1.9692    1.2832 H   0  0  0  0  0  0  0  0  0  0  0  0
   -4.6979   -0.5421    1.0528 H   0  0  0  0  0  0  0  0  0  0  0  0
   -2.5929   -0.3859    2.7160 H   0  0  0  0  0  0  0  0  0  0  0  0
   -2.8565    0.9492    1.5901 H   0  0  0  0  0  0  0  0  0  0  0  0
   -1.0663   -1.4499    3.6186 H   0  0  0  0  0  0  0  0  0  0  0  0
    0.6583   -1.7399    3.5713 H   0  0  0  0  0  0  0  0  0  0  0  0
   -0.7343    0.9162    3.0309 H   0  0  0  0  0  0  0  0  0  0  0  0
    4.4599    1.1236    3.5566 H   0  0  0  0  0  0  0  0  0  0  0  0
    3.9845    1.6415    1.9452 H   0  0  0  0  0  0  0  0  0  0  0  0
    3.2887    2.4360    3.3569 H   0  0  0  0  0  0  0  0  0  0  0  0
    2.1717   -0.4238    7.8238 H   0  0  0  0  0  0  0  0  0  0  0  0
    0.2492    0.7231    8.8794 H   0  0  0  0  0  0  0  0  0  0  0  0
   -1.8352    1.0645    7.5829 H   0  0  0  0  0  0  0  0  0  0  0  0
   -1.9902    0.2699    5.2613 H   0  0  0  0  0  0  0  0  0  0  0  0
    2.0165   -1.2089    5.4917 H   0  0  0  0  0  0  0  0  0  0  0  0
   -0.4115   -1.6090   -2.5100 H   0  0  0  0  0  0  0  0  0  0  0  0
    2.4807   -0.5276  -10.2095 H   0  0  0  0  0  0  0  0  0  0  0  0
    2.5481   -1.8106   -9.2380 H   0  0  0  0  0  0  0  0  0  0  0  0
    1.1898    1.9294    2.9315 H   0  0  0  0  0  0  0  0  0  0  0  0
   -2.4460    2.2833   -4.2991 H   0  0  0  0  0  0  0  0  0  0  0  0
    0.8292    2.7195   -3.6099 H   0  0  0  0  0  0  0  0  0  0  0  0
   -1.0363   -0.0094   -1.4356 C   0  0  0  0  0  0  0  0  0  0  0  0
   -0.1518   -0.2795    1.3539 C   0  0  0  0  0  0  0  0  0  0  0  0
   -1.0643    1.2121   -1.3188 O   0  0  0  0  0  0  0  0  0  0  0  0
    2.5346    0.4276    2.9316 C   0  0  0  0  0  0  0  0  0  0  0  0
    0.7918   -0.5028    0.6113 O   0  0  0  0  0  0  0  0  0  0  0  0
  1  2  1  0
  1 24  1  0
  1 25  1  0
  2  3  1  0
  2 20  1  0
  2 27  1  1
  3  4  1  0
  3 28  1  0
  3 29  1  0
  4  5  1  0
  4 30  1  0
  4 31  1  0
  5  6  1  0
  5 32  1  0
  5 33  1  0
  6 21  1  0
  6 34  1  0
  6 35  1  0
  7 60  1  0
  7  8  1  0
  7 22  1  0
  7 36  1  1
 60 20  1  0
 60 62  2  0
  8  9  1  0
  8 37  1  0
  8 38  1  0
  9 10  1  0
  9 39  1  0
  9 40  1  0
 10 22  1  0
 10 41  1  0
 10 42  1  0
 61 12  1  0
 61 22  1  0
 61 64  2  0
 11 12  1  0
 11 18  1  0
 11 43  1  0
 11 44  1  0
 12 23  1  0
 12 45  1  1
 63 13  1  0
 63 23  1  0
 63 26  2  0
 13 46  1  0
 13 47  1  0
 13 48  1  0
 14 15  2  0
 14 19  1  0
 14 49  1  0
 15 16  1  0
 15 50  1  0
 16 17  2  0
 16 51  1  0
 17 18  1  0
 17 52  1  0
 18 19  2  0
 19 53  1  0
 20 54  1  0
 21 55  1  0
 21 56  1  0
 23 57  1  0
 24 58  1  0
 25 59  1  0
M  END
