
     RDKit          3D

 55 58  0  0  0  0  0  0  0  0999 V2000
   -3.1241    1.0805   -0.6866 C   0  0  0  0  0  0  0  0  0  0  0  0
   -2.1887    2.2549   -0.9538 C   0  0  0  0  0  0  0  0  0  0  0  0
   -0.4028    3.6018   -0.0977 C   0  0  0  0  0  0  0  0  0  0  0  0
    0.6570    3.7196    0.9835 C   0  0  0  0  0  0  0  0  0  0  0  0
    0.9020    1.3125    0.9638 C   0  0  0  0  0  0  0  0  0  0  0  0
   -0.1673    1.2324   -0.1122 C   0  0  0  0  0  0  0  0  0  0  0  0
    4.9690    1.7327    0.3802 C   0  0  0  0  0  0  0  0  0  0  0  0
    5.6219   -0.2174   -1.0468 C   0  0  0  0  0  0  0  0  0  0  0  0
    6.0593   -1.5259   -1.1755 C   0  0  0  0  0  0  0  0  0  0  0  0
    6.3444   -2.3101   -0.0697 C   0  0  0  0  0  0  0  0  0  0  0  0
    6.1785   -1.7467    1.1861 C   0  0  0  0  0  0  0  0  0  0  0  0
   -5.4068    0.1021   -1.0104 C   0  0  0  0  0  0  0  0  0  0  0  0
   -5.7330   -0.9369   -1.8779 C   0  0  0  0  0  0  0  0  0  0  0  0
   -6.5754   -1.9841   -1.5030 C   0  0  0  0  0  0  0  0  0  0  0  0
   -8.1276   -2.2670    1.7388 C   0  0  0  0  0  0  0  0  0  0  0  0
   -6.7672   -0.9113    0.6372 C   0  0  0  0  0  0  0  0  0  0  0  0
   -5.9410    0.1237    0.2837 C   0  0  0  0  0  0  0  0  0  0  0  0
    6.5288   -2.7027    2.5841 Cl  0  0  0  0  0  0  0  0  0  0  0  0
   -8.7906   -2.6885    2.6482 O   0  0  0  0  0  0  0  0  0  0  0  0
   -7.9312   -2.7736    0.4948 N   0  0  0  0  0  0  0  0  0  0  0  0
   -7.4062   -1.1116    1.8265 O   0  0  0  0  0  0  0  0  0  0  0  0
   -7.0855   -1.9513   -0.2242 C   0  0  0  0  0  0  0  0  0  0  0  0
   -4.4609    1.2178   -1.4163 C   0  0  2  0  0  0  0  0  0  0  0  0
   -4.2899    1.3117   -2.8098 O   0  0  0  0  0  0  0  0  0  0  0  0
   -1.1032    2.3354    0.0070 N   0  0  0  0  0  0  0  0  0  0  0  0
    1.5732    2.5984    0.9074 N   0  0  0  0  0  0  0  0  0  0  0  0
    2.8873    2.7930    0.6939 C   0  0  0  0  0  0  0  0  0  0  0  0
    3.4288    3.8800    0.6163 O   0  0  0  0  0  0  0  0  0  0  0  0
    3.5589    1.6398    0.5798 O   0  0  0  0  0  0  0  0  0  0  0  0
    5.4664    0.3265    0.2217 C   0  0  0  0  0  0  0  0  0  0  0  0
    5.7431   -0.4424    1.3463 C   0  0  0  0  0  0  0  0  0  0  0  0
   -2.6660    0.1275   -0.9724 H   0  0  0  0  0  0  0  0  0  0  0  0
   -3.3104    1.0220    0.3887 H   0  0  0  0  0  0  0  0  0  0  0  0
   -1.8085    2.2168   -1.9871 H   0  0  0  0  0  0  0  0  0  0  0  0
   -2.7662    3.1809   -0.8714 H   0  0  0  0  0  0  0  0  0  0  0  0
   -1.1197    4.4168    0.0245 H   0  0  0  0  0  0  0  0  0  0  0  0
    0.0712    3.7311   -1.0865 H   0  0  0  0  0  0  0  0  0  0  0  0
    1.2001    4.6547    0.8793 H   0  0  0  0  0  0  0  0  0  0  0  0
    0.1757    3.7178    1.9666 H   0  0  0  0  0  0  0  0  0  0  0  0
    0.4353    1.2057    1.9482 H   0  0  0  0  0  0  0  0  0  0  0  0
    1.6079    0.4970    0.8446 H   0  0  0  0  0  0  0  0  0  0  0  0
    0.3174    1.2160   -1.1043 H   0  0  0  0  0  0  0  0  0  0  0  0
   -0.6958    0.2849    0.0032 H   0  0  0  0  0  0  0  0  0  0  0  0
    5.1955    2.3197   -0.5116 H   0  0  0  0  0  0  0  0  0  0  0  0
    5.4457    2.2143    1.2365 H   0  0  0  0  0  0  0  0  0  0  0  0
    5.4097    0.3762   -1.9266 H   0  0  0  0  0  0  0  0  0  0  0  0
    6.6890   -3.3286   -0.1825 H   0  0  0  0  0  0  0  0  0  0  0  0
   -5.3356   -0.9435   -2.8836 H   0  0  0  0  0  0  0  0  0  0  0  0
   -6.8171   -2.7797   -2.1940 H   0  0  0  0  0  0  0  0  0  0  0  0
   -5.7189    0.9261    0.9767 H   0  0  0  0  0  0  0  0  0  0  0  0
   -8.3556   -3.6298    0.1741 H   0  0  0  0  0  0  0  0  0  0  0  0
   -4.9176    2.1670   -1.1136 H   0  0  0  0  0  0  0  0  0  0  0  0
   -3.6697    0.6318   -3.0948 H   0  0  0  0  0  0  0  0  0  0  0  0
    5.6239   -0.0238    2.3371 H   0  0  0  0  0  0  0  0  0  0  0  0
    6.2573   -2.2027   -2.7545 Cl  0  0  0  0  0  0  0  0  0  0  0  0
 18 11  1  0
 10 11  2  0
 10  9  1  0
 11 31  1  0
 55  9  1  0
  9  8  2  0
 31 30  2  0
  8 30  1  0
 30  7  1  0
 19 15  2  0
  4  3  1  0
  4 26  1  0
 21 15  1  0
 21 16  1  0
  3 25  1  0
 15 20  1  0
 29  7  1  0
 29 27  1  0
 16 17  2  0
 16 22  1  0
 17 12  1  0
 20 22  1  0
  1 23  1  0
  1  2  1  0
 26 27  1  0
 26  5  1  0
 22 14  2  0
 12 23  1  0
 12 13  2  0
 27 28  2  0
 23 24  1  0
 25  2  1  0
 25  6  1  0
 14 13  1  0
  5  6  1  0
  1 32  1  0
  1 33  1  0
  2 34  1  0
  2 35  1  0
  3 36  1  0
  3 37  1  0
  4 38  1  0
  4 39  1  0
  5 40  1  0
  5 41  1  0
  6 42  1  0
  6 43  1  0
  7 44  1  0
  7 45  1  0
  8 46  1  0
 10 47  1  0
 13 48  1  0
 14 49  1  0
 17 50  1  0
 20 51  1  0
 23 52  1  1
 24 53  1  0
 31 54  1  0
M  END
