
     RDKit          3D

 19 18  0  0  0  0  0  0  0  0999 V2000
   -1.6904   -0.1764   -0.1903 C   0  0  1  0  0  0  0  0  0  0  0  0
   -2.6914    0.7159    0.1991 O   0  0  0  0  0  0  0  0  0  0  0  0
   -0.3609    0.3704    0.3377 C   0  0  1  0  0  0  0  0  0  0  0  0
   -1.9538   -1.4778    0.2509 O   0  0  0  0  0  0  0  0  0  0  0  0
    0.7875   -0.6002    0.0015 C   0  0  2  0  0  0  0  0  0  0  0  0
    2.0224   -0.1777    0.7488 C   0  0  0  0  0  0  0  0  0  0  0  0
    1.0155   -0.7311   -1.3710 O   0  0  0  0  0  0  0  0  0  0  0  0
   -0.0826    1.7725   -0.1984 C   0  0  0  0  0  0  0  0  0  0  0  0
   -0.4356    0.4181    1.4329 H   0  0  0  0  0  0  0  0  0  0  0  0
    0.5270   -1.5894    0.4008 H   0  0  0  0  0  0  0  0  0  0  0  0
    1.9121   -0.1475    1.8458 H   0  0  0  0  0  0  0  0  0  0  0  0
    1.7136   -0.1186   -1.6310 H   0  0  0  0  0  0  0  0  0  0  0  0
   -0.8446    2.4763    0.1287 H   0  0  0  0  0  0  0  0  0  0  0  0
    0.8765    2.1587    0.1515 H   0  0  0  0  0  0  0  0  0  0  0  0
   -0.0663    1.7889   -1.2894 H   0  0  0  0  0  0  0  0  0  0  0  0
   -3.4970    0.5070   -0.2855 H   0  0  0  0  0  0  0  0  0  0  0  0
   -1.6412   -0.2579   -1.2824 H   0  0  0  0  0  0  0  0  0  0  0  0
   -1.9287   -1.4938    1.2158 H   0  0  0  0  0  0  0  0  0  0  0  0
    3.0588    0.1170    0.2079 O   0  0  0  0  0  0  0  0  0  0  0  0
  1  2  1  0
  1  3  1  0
  1  4  1  0
  3  5  1  0
  3  8  1  0
  3  9  1  1
  5  6  1  0
  5  7  1  0
  5 10  1  1
 19  6  2  0
  6 11  1  0
  7 12  1  0
  8 13  1  0
  8 14  1  0
  8 15  1  0
  2 16  1  0
  1 17  1  6
  4 18  1  0
M  END
