
     RDKit          3D

 40 39  0  0  0  0  0  0  0  0999 V2000
   -5.2706   -3.9159   -8.6217 C   0  0  0  0  0  0  0  0  0  0  0  0
   -5.2694   -4.5049   -7.2172 C   0  0  2  0  0  0  0  0  0  0  0  0
   -4.7836   -3.4609   -6.2018 C   0  0  0  0  0  0  0  0  0  0  0  0
   -3.3583   -2.9683   -6.4312 C   0  0  0  0  0  0  0  0  0  0  0  0
   -2.9418   -1.9958   -5.3398 C   0  0  0  0  0  0  0  0  0  0  0  0
   -1.5234   -1.4847   -5.4828 C   0  0  0  0  0  0  0  0  0  0  0  0
   -1.1904   -0.5211   -4.6033 N   0  0  0  0  0  0  0  0  0  0  0  0
    0.1194    0.0590   -4.5376 C   0  0  2  0  0  0  0  0  0  0  0  0
    0.3531    0.5813   -3.1240 C   0  0  0  0  0  0  0  0  0  0  0  0
   -4.5155   -5.7313   -7.1033 N   0  0  0  0  0  0  0  0  0  0  0  0
   -0.7355   -1.9161   -6.3117 O   0  0  0  0  0  0  0  0  0  0  0  0
    0.3259    1.1640   -5.5813 C   0  0  0  0  0  0  0  0  0  0  0  0
   -0.8382    2.5479   -5.4267 S   0  0  0  0  0  0  0  0  0  0  0  0
   -0.5447    0.6821   -2.3039 O   0  0  0  0  0  0  0  0  0  0  0  0
   -6.1450   -2.9231   -8.7452 O   0  0  0  0  0  0  0  0  0  0  0  0
   -4.5640   -4.2897   -9.5244 O   0  0  0  0  0  0  0  0  0  0  0  0
    1.6150    0.9406   -2.8511 N   0  0  0  0  0  0  0  0  0  0  0  0
    1.9752    1.4254   -1.5492 C   0  0  0  0  0  0  0  0  0  0  0  0
    1.3403    2.7445   -1.1634 C   0  0  0  0  0  0  0  0  0  0  0  0
    1.1581    3.0693   -0.0180 O   0  0  0  0  0  0  0  0  0  0  0  0
    1.0683    3.5155   -2.2035 O   0  0  0  0  0  0  0  0  0  0  0  0
   -6.3115   -4.7295   -6.9678 H   0  0  0  0  0  0  0  0  0  0  0  0
   -4.8570   -3.9199   -5.2126 H   0  0  0  0  0  0  0  0  0  0  0  0
   -5.4692   -2.6106   -6.1975 H   0  0  0  0  0  0  0  0  0  0  0  0
   -2.6637   -3.8106   -6.4465 H   0  0  0  0  0  0  0  0  0  0  0  0
   -3.2784   -2.4780   -7.4053 H   0  0  0  0  0  0  0  0  0  0  0  0
   -3.6261   -1.1421   -5.3100 H   0  0  0  0  0  0  0  0  0  0  0  0
   -3.0273   -2.4761   -4.3592 H   0  0  0  0  0  0  0  0  0  0  0  0
   -1.8785   -0.1850   -3.9471 H   0  0  0  0  0  0  0  0  0  0  0  0
    0.8646   -0.7172   -4.7402 H   0  0  0  0  0  0  0  0  0  0  0  0
   -3.5748   -5.6085   -7.4561 H   0  0  0  0  0  0  0  0  0  0  0  0
   -4.9328   -6.4519   -7.6780 H   0  0  0  0  0  0  0  0  0  0  0  0
    1.3484    1.5405   -5.5629 H   0  0  0  0  0  0  0  0  0  0  0  0
    0.1631    0.7428   -6.5725 H   0  0  0  0  0  0  0  0  0  0  0  0
   -0.2233    3.1845   -4.4239 H   0  0  0  0  0  0  0  0  0  0  0  0
   -6.1101   -2.5561   -9.6415 H   0  0  0  0  0  0  0  0  0  0  0  0
    2.3413    0.8195   -3.5378 H   0  0  0  0  0  0  0  0  0  0  0  0
    3.0572    1.5666   -1.5305 H   0  0  0  0  0  0  0  0  0  0  0  0
    0.6841    4.3534   -1.9036 H   0  0  0  0  0  0  0  0  0  0  0  0
    1.7374    0.7003   -0.7695 H   0  0  0  0  0  0  0  0  0  0  0  0
  1  2  1  0
  1 15  1  0
  1 16  2  0
  2  3  1  0
  2 10  1  0
  2 22  1  1
  3  4  1  0
  3 23  1  0
  3 24  1  0
  4  5  1  0
  4 25  1  0
  4 26  1  0
  5  6  1  0
  5 27  1  0
  5 28  1  0
  6  7  1  0
  6 11  2  0
  7  8  1  0
  7 29  1  0
  8  9  1  0
  8 12  1  0
  8 30  1  6
  9 14  2  0
  9 17  1  0
 10 31  1  0
 10 32  1  0
 12 13  1  0
 12 33  1  0
 12 34  1  0
 13 35  1  0
 15 36  1  0
 17 18  1  0
 17 37  1  0
 18 19  1  0
 18 38  1  0
 19 20  2  0
 19 21  1  0
 21 39  1  0
 40 18  1  0
M  END
