
     RDKit          3D

 24 24  0  0  0  0  0  0  0  0999 V2000
   -0.0271   -0.7378    2.3250 C   0  0  0  0  0  0  0  0  0  0  0  0
   -0.0165   -0.1084    0.9420 C   0  0  0  0  0  0  0  0  0  0  0  0
   -0.0214   -1.1758   -0.1529 C   0  0  0  0  0  0  0  0  0  0  0  0
   -0.0047   -0.5717   -1.5289 C   0  0  0  0  0  0  0  0  0  0  0  0
    1.2001   -0.2776   -2.1641 C   0  0  0  0  0  0  0  0  0  0  0  0
   -1.1928   -0.2509   -2.1827 C   0  0  0  0  0  0  0  0  0  0  0  0
    1.2195    0.3191   -3.4179 C   0  0  0  0  0  0  0  0  0  0  0  0
   -1.1795    0.3456   -3.4367 C   0  0  0  0  0  0  0  0  0  0  0  0
    0.0284    0.6344   -4.0589 C   0  0  0  0  0  0  0  0  0  0  0  0
   -0.0164    0.2637    3.4457 C   0  0  0  0  0  0  0  0  0  0  0  0
   -0.0085    1.4619    3.3097 O   0  0  0  0  0  0  0  0  0  0  0  0
   -0.0161   -0.3286    4.6368 O   0  0  0  0  0  0  0  0  0  0  0  0
    0.8346   -1.4012    2.4523 H   0  0  0  0  0  0  0  0  0  0  0  0
   -0.9064   -1.3785    2.4490 H   0  0  0  0  0  0  0  0  0  0  0  0
   -0.8863    0.5416    0.8192 H   0  0  0  0  0  0  0  0  0  0  0  0
    0.8651    0.5266    0.8260 H   0  0  0  0  0  0  0  0  0  0  0  0
    0.8463   -1.8288   -0.0247 H   0  0  0  0  0  0  0  0  0  0  0  0
   -0.9053   -1.8091   -0.0367 H   0  0  0  0  0  0  0  0  0  0  0  0
    2.1358   -0.5222   -1.6743 H   0  0  0  0  0  0  0  0  0  0  0  0
   -2.1409   -0.4748   -1.7074 H   0  0  0  0  0  0  0  0  0  0  0  0
    2.1668    0.5343   -3.8959 H   0  0  0  0  0  0  0  0  0  0  0  0
   -2.1142    0.5810   -3.9296 H   0  0  0  0  0  0  0  0  0  0  0  0
    0.0412    1.0980   -5.0370 H   0  0  0  0  0  0  0  0  0  0  0  0
   -0.0076    0.3392    5.3384 H   0  0  0  0  0  0  0  0  0  0  0  0
  1  2  1  0
  1 10  1  0
  1 13  1  0
  1 14  1  0
  2  3  1  0
  2 15  1  0
  2 16  1  0
  3  4  1  0
  3 17  1  0
  3 18  1  0
  4  5  2  0
  4  6  1  0
  5  7  1  0
  5 19  1  0
  6  8  2  0
  6 20  1  0
  7  9  2  0
  7 21  1  0
  8  9  1  0
  8 22  1  0
  9 23  1  0
 10 11  2  0
 10 12  1  0
 12 24  1  0
M  END
