
     RDKit          3D

 49 53  0  0  0  0  0  0  0  0999 V2000
   -4.0645   -2.2977    0.1554 C   0  0  0  0  0  0  0  0  0  0  0  0
   -3.3148   -0.3264    0.8720 C   0  0  0  0  0  0  0  0  0  0  0  0
   -2.5392    0.8593    0.8558 C   0  0  0  0  0  0  0  0  0  0  0  0
   -1.6576    1.0522   -0.1746 C   0  0  0  0  0  0  0  0  0  0  0  0
   -1.5209    0.0909   -1.2244 C   0  0  0  0  0  0  0  0  0  0  0  0
   -0.8676    2.3010   -0.2505 C   0  0  0  0  0  0  0  0  0  0  0  0
   -1.5288    3.5157   -0.3603 C   0  0  0  0  0  0  0  0  0  0  0  0
   -0.9252    4.6865   -0.5277 N   0  0  0  0  0  0  0  0  0  0  0  0
    1.1560    3.5334   -0.4435 C   0  0  0  0  0  0  0  0  0  0  0  0
    0.5431    2.2852   -0.2774 C   0  0  0  0  0  0  0  0  0  0  0  0
    2.3480    0.7203   -0.9537 C   0  0  0  0  0  0  0  0  0  0  0  0
    2.2178   -1.6153    0.0314 C   0  0  1  0  0  0  0  0  0  0  0  0
    4.3183   -2.8106    0.1433 C   0  0  0  0  0  0  0  0  0  0  0  0
    1.0108   -3.5897   -0.7748 O   0  0  0  0  0  0  0  0  0  0  0  0
    1.0498   -1.1360    0.8876 C   0  0  0  0  0  0  0  0  0  0  0  0
   -4.4052   -3.4328   -0.5210 N   0  0  0  0  0  0  0  0  0  0  0  0
   -4.6388   -1.9014    1.2948 N   0  0  0  0  0  0  0  0  0  0  0  0
   -4.2161   -0.7104    1.7690 N   0  0  0  0  0  0  0  0  0  0  0  0
   -2.2599   -1.0567   -1.2337 C   0  0  0  0  0  0  0  0  0  0  0  0
   -3.1633   -1.2763   -0.1761 C   0  0  0  0  0  0  0  0  0  0  0  0
    0.3953    4.6860   -0.5769 C   0  0  0  0  0  0  0  0  0  0  0  0
    2.8746    3.7158   -0.3799 Cl  0  0  0  0  0  0  0  0  0  0  0  0
    1.2184    1.0913   -0.1281 N   0  0  0  0  0  0  0  0  0  0  0  0
    2.2904   -0.7723   -1.2541 C   0  0  0  0  0  0  0  0  0  0  0  0
    3.5616   -1.6415    0.7740 C   0  0  0  0  0  0  0  0  0  0  0  0
    3.2411   -3.6778   -0.2816 N   0  0  0  0  0  0  0  0  0  0  0  0
    2.0464   -3.0747   -0.3856 C   0  0  0  0  0  0  0  0  0  0  0  0
    1.1087    0.3632    1.1242 C   0  0  0  0  0  0  0  0  0  0  0  0
   -2.6336    1.5883    1.6517 H   0  0  0  0  0  0  0  0  0  0  0  0
   -0.8202    0.2899   -2.0237 H   0  0  0  0  0  0  0  0  0  0  0  0
   -2.6135    3.5297   -0.3447 H   0  0  0  0  0  0  0  0  0  0  0  0
    2.3035    1.2725   -1.8927 H   0  0  0  0  0  0  0  0  0  0  0  0
    3.3083    0.9687   -0.4860 H   0  0  0  0  0  0  0  0  0  0  0  0
    4.9280   -2.4917   -0.7074 H   0  0  0  0  0  0  0  0  0  0  0  0
    4.9739   -3.3158    0.8520 H   0  0  0  0  0  0  0  0  0  0  0  0
    0.1081   -1.3870    0.3970 H   0  0  0  0  0  0  0  0  0  0  0  0
    1.0637   -1.6490    1.8529 H   0  0  0  0  0  0  0  0  0  0  0  0
   -4.8219   -4.1700    0.0266 H   0  0  0  0  0  0  0  0  0  0  0  0
   -3.6867   -3.7896   -1.1312 H   0  0  0  0  0  0  0  0  0  0  0  0
   -5.3428   -2.4095    1.8083 H   0  0  0  0  0  0  0  0  0  0  0  0
   -2.1512   -1.7742   -2.0378 H   0  0  0  0  0  0  0  0  0  0  0  0
    0.8901    5.6431   -0.7024 H   0  0  0  0  0  0  0  0  0  0  0  0
    1.4144   -0.9770   -1.8747 H   0  0  0  0  0  0  0  0  0  0  0  0
    3.1720   -1.0443   -1.8418 H   0  0  0  0  0  0  0  0  0  0  0  0
    4.1268   -0.7125    0.7092 H   0  0  0  0  0  0  0  0  0  0  0  0
    3.3931   -1.8443    1.8346 H   0  0  0  0  0  0  0  0  0  0  0  0
    3.4003   -4.6131   -0.6229 H   0  0  0  0  0  0  0  0  0  0  0  0
    0.2143    0.6875    1.6534 H   0  0  0  0  0  0  0  0  0  0  0  0
    1.9614    0.6098    1.7742 H   0  0  0  0  0  0  0  0  0  0  0  0
 16  1  1  0
  1 17  1  0
  1 20  2  0
 17 18  1  0
 20 19  1  0
 20  2  1  0
 19  5  2  0
 18  2  2  0
  2  3  1  0
  5  4  1  0
  3  4  2  0
  4  6  1  0
  7  6  2  0
  7  8  1  0
  6 10  1  0
  8 21  2  0
 11 23  1  0
 11 24  1  0
 10 23  1  0
 10  9  2  0
 23 28  1  0
 25 12  1  0
 25 13  1  0
 24 12  1  0
 21  9  1  0
  9 22  1  0
 28 15  1  0
 12 15  1  0
 12 27  1  6
 13 26  1  0
 27 26  1  0
 27 14  2  0
  3 29  1  0
  5 30  1  0
  7 31  1  0
 11 32  1  0
 11 33  1  0
 13 34  1  0
 13 35  1  0
 15 36  1  0
 15 37  1  0
 16 38  1  0
 16 39  1  0
 17 40  1  0
 19 41  1  0
 21 42  1  0
 24 43  1  0
 24 44  1  0
 25 45  1  0
 25 46  1  0
 26 47  1  0
 28 48  1  0
 28 49  1  0
M  END
