
     RDKit          3D

125128  0  0  0  0  0  0  0  0999 V2000
   12.5818    6.4826    4.4421 O   0  0  0  0  0  0  0  0  0  0  0  0
   12.8223    5.6872    5.5769 C   0  0  0  0  0  0  0  0  0  0  0  0
   12.8271    4.2752    5.3444 N   0  0  0  0  0  0  0  0  0  0  0  0
   13.9480    3.7521    4.5944 C   0  0  0  0  0  0  0  0  0  0  0  0
   11.6455    3.5651    5.2659 C   0  0  0  0  0  0  0  0  0  0  0  0
   10.3825    3.9961    5.3740 C   0  0  0  0  0  0  0  0  0  0  0  0
    9.2297    3.0379    5.3976 C   0  0  0  0  0  0  0  0  0  0  0  0
    8.3051    3.1311    4.1763 C   0  0  1  0  0  0  0  0  0  0  0  0
    7.7264    4.4115    4.0487 O   0  0  0  0  0  0  0  0  0  0  0  0
    6.7181    4.6957    4.9798 C   0  0  0  0  0  0  0  0  0  0  0  0
    9.0389    2.8616    2.8653 C   0  0  1  0  0  0  0  0  0  0  0  0
    9.5254    1.4158    2.7533 C   0  0  0  0  0  0  0  0  0  0  0  0
    8.1360    3.1556    1.6780 C   0  0  0  0  0  0  0  0  0  0  0  0
    7.0338    2.6602    1.5898 O   0  0  0  0  0  0  0  0  0  0  0  0
    8.7147    4.0363    0.6005 C   0  0  0  0  0  0  0  0  0  0  0  0
    8.9172    5.4694    1.1006 C   0  0  0  0  0  0  0  0  0  0  0  0
    9.5551    6.3988    0.0643 C   0  0  2  0  0  0  0  0  0  0  0  0
   10.9223    5.9110   -0.4067 C   0  0  0  0  0  0  0  0  0  0  0  0
    9.6482    7.8471    0.5925 C   0  0  1  0  0  0  0  0  0  0  0  0
    8.4025    8.3378    1.0255 O   0  0  0  0  0  0  0  0  0  0  0  0
    7.4605    8.5193    0.0019 C   0  0  0  0  0  0  0  0  0  0  0  0
   10.6544    7.9586    1.7398 C   0  0  0  0  0  0  0  0  0  0  0  0
   10.5840    9.1908    2.6344 C   0  0  2  0  0  0  0  0  0  0  0  0
    9.3656    9.2126    3.3991 O   0  0  0  0  0  0  0  0  0  0  0  0
    9.2097    8.4417    4.4508 C   0  0  0  0  0  0  0  0  0  0  0  0
   10.0569    7.6930    4.8860 O   0  0  0  0  0  0  0  0  0  0  0  0
    7.8296    8.5731    5.0358 C   0  0  0  0  0  0  0  0  0  0  0  0
    7.7761    8.2168    6.5148 C   0  0  1  0  0  0  0  0  0  0  0  0
    8.4905    9.1422    7.3068 O   0  0  0  0  0  0  0  0  0  0  0  0
    6.3395    8.0161    6.9681 C   0  0  0  0  0  0  0  0  0  0  0  0
    6.1941    7.4736    8.3916 C   0  0  2  0  0  0  0  0  0  0  0  0
    7.0390    6.3646    8.6279 O   0  0  0  0  0  0  0  0  0  0  0  0
    4.7618    7.0178    8.5947 C   0  0  0  0  0  0  0  0  0  0  0  0
   10.6773   10.5406    1.9202 C   0  0  2  0  0  0  0  0  0  0  0  0
   12.0702   10.7147    1.3195 C   0  0  0  0  0  0  0  0  0  0  0  0
   10.3182   11.7107    2.8465 C   0  0  0  0  0  0  0  0  0  0  0  0
   11.1281   11.7939    4.1604 C   0  0  0  0  0  0  0  0  0  0  0  0
   10.2471   11.9414    5.3521 C   0  0  0  0  0  0  0  0  0  0  0  0
   10.3089   12.9539    6.2170 C   0  0  0  0  0  0  0  0  0  0  0  0
    9.4353   13.0861    7.3616 C   0  0  0  0  0  0  0  0  0  0  0  0
    9.6536   14.1525    8.1532 O   0  0  0  0  0  0  0  0  0  0  0  0
    8.7340   14.0891    9.1292 C   0  0  0  0  0  0  0  0  0  0  0  0
    8.4474   12.3528    7.7662 N   0  0  0  0  0  0  0  0  0  0  0  0
    7.9861   12.9835    8.8976 C   0  0  0  0  0  0  0  0  0  0  0  0
    6.8590   12.5271    9.6732 C   0  0  0  0  0  0  0  0  0  0  0  0
    6.0640   11.5343    9.4732 N   0  0  0  0  0  0  0  0  0  0  0  0
    6.5582   13.2520   10.7634 O   0  0  0  0  0  0  0  0  0  0  0  0
    5.4707   12.6671   11.2981 C   0  0  0  0  0  0  0  0  0  0  0  0
    5.1596   11.6104   10.5108 C   0  0  0  0  0  0  0  0  0  0  0  0
    4.0658   10.6832   10.6692 C   0  0  0  0  0  0  0  0  0  0  0  0
    3.7675    9.6609    9.9480 N   0  0  0  0  0  0  0  0  0  0  0  0
    3.2270   10.8840   11.6948 O   0  0  0  0  0  0  0  0  0  0  0  0
    2.3116    9.8875   11.6027 C   0  0  0  0  0  0  0  0  0  0  0  0
    2.6388    9.1297   10.5364 C   0  0  0  0  0  0  0  0  0  0  0  0
    1.9998    7.8816   10.0140 C   0  0  1  0  0  0  0  0  0  0  0  0
    1.7592    7.9654    8.6352 O   0  0  0  0  0  0  0  0  0  0  0  0
    0.7734    8.9074    8.2839 C   0  0  0  0  0  0  0  0  0  0  0  0
    2.8633    6.6436   10.3222 C   0  0  1  0  0  0  0  0  0  0  0  0
    2.3173    5.3848    9.6484 C   0  0  0  0  0  0  0  0  0  0  0  0
    4.3458    6.8416   10.0301 C   0  0  0  0  0  0  0  0  0  0  0  0
    5.1465    6.8362   10.9385 O   0  0  0  0  0  0  0  0  0  0  0  0
   13.8155    5.9485    5.9518 H   0  0  0  0  0  0  0  0  0  0  0  0
   12.0992    5.8976    6.3711 H   0  0  0  0  0  0  0  0  0  0  0  0
   14.8760    4.1855    4.9679 H   0  0  0  0  0  0  0  0  0  0  0  0
   13.8855    3.9581    3.5209 H   0  0  0  0  0  0  0  0  0  0  0  0
   14.0116    2.6711    4.7241 H   0  0  0  0  0  0  0  0  0  0  0  0
   11.8106    2.4971    5.1380 H   0  0  0  0  0  0  0  0  0  0  0  0
   10.1467    5.0518    5.4487 H   0  0  0  0  0  0  0  0  0  0  0  0
    9.5933    2.0104    5.4817 H   0  0  0  0  0  0  0  0  0  0  0  0
    8.6233    3.1930    6.2967 H   0  0  0  0  0  0  0  0  0  0  0  0
    7.5111    2.3760    4.2936 H   0  0  0  0  0  0  0  0  0  0  0  0
    6.2120    5.6035    4.6498 H   0  0  0  0  0  0  0  0  0  0  0  0
    7.0986    4.8720    5.9930 H   0  0  0  0  0  0  0  0  0  0  0  0
    5.9706    3.8946    5.0356 H   0  0  0  0  0  0  0  0  0  0  0  0
    9.9125    3.5182    2.8253 H   0  0  0  0  0  0  0  0  0  0  0  0
    8.7050    0.7091    2.8850 H   0  0  0  0  0  0  0  0  0  0  0  0
    9.9790    1.2272    1.7791 H   0  0  0  0  0  0  0  0  0  0  0  0
   10.2832    1.1997    3.5050 H   0  0  0  0  0  0  0  0  0  0  0  0
    9.6803    3.6072    0.3116 H   0  0  0  0  0  0  0  0  0  0  0  0
    8.0663    4.0216   -0.2783 H   0  0  0  0  0  0  0  0  0  0  0  0
    7.9544    5.8753    1.4170 H   0  0  0  0  0  0  0  0  0  0  0  0
    9.5349    5.4404    2.0006 H   0  0  0  0  0  0  0  0  0  0  0  0
    8.9018    6.4161   -0.8164 H   0  0  0  0  0  0  0  0  0  0  0  0
   11.5897    5.6920    0.4293 H   0  0  0  0  0  0  0  0  0  0  0  0
   10.8403    5.0036   -1.0051 H   0  0  0  0  0  0  0  0  0  0  0  0
   11.4105    6.6604   -1.0337 H   0  0  0  0  0  0  0  0  0  0  0  0
   10.0066    8.4730   -0.2437 H   0  0  0  0  0  0  0  0  0  0  0  0
    7.8744    9.0824   -0.8443 H   0  0  0  0  0  0  0  0  0  0  0  0
    6.6301    9.0905    0.4156 H   0  0  0  0  0  0  0  0  0  0  0  0
    7.0610    7.5763   -0.3868 H   0  0  0  0  0  0  0  0  0  0  0  0
   10.6041    7.0774    2.3799 H   0  0  0  0  0  0  0  0  0  0  0  0
   11.6592    7.9324    1.3127 H   0  0  0  0  0  0  0  0  0  0  0  0
   11.4246    9.1098    3.3335 H   0  0  0  0  0  0  0  0  0  0  0  0
    7.4290    9.5724    4.8468 H   0  0  0  0  0  0  0  0  0  0  0  0
    7.1919    7.8868    4.4671 H   0  0  0  0  0  0  0  0  0  0  0  0
    8.3024    7.2670    6.6379 H   0  0  0  0  0  0  0  0  0  0  0  0
    5.8605    7.3200    6.2726 H   0  0  0  0  0  0  0  0  0  0  0  0
    5.7766    8.9538    6.8977 H   0  0  0  0  0  0  0  0  0  0  0  0
    6.4087    8.2840    9.0981 H   0  0  0  0  0  0  0  0  0  0  0  0
    7.9237    6.6878    8.8199 H   0  0  0  0  0  0  0  0  0  0  0  0
    4.6011    6.0672    8.0704 H   0  0  0  0  0  0  0  0  0  0  0  0
    4.0777    7.7220    8.1218 H   0  0  0  0  0  0  0  0  0  0  0  0
    9.9503   10.5576    1.1021 H   0  0  0  0  0  0  0  0  0  0  0  0
   12.2882    9.9584    0.5652 H   0  0  0  0  0  0  0  0  0  0  0  0
   12.1540   11.6875    0.8339 H   0  0  0  0  0  0  0  0  0  0  0  0
   12.8507   10.6546    2.0813 H   0  0  0  0  0  0  0  0  0  0  0  0
    9.2512   11.6737    3.0721 H   0  0  0  0  0  0  0  0  0  0  0  0
   10.4583   12.6371    2.2860 H   0  0  0  0  0  0  0  0  0  0  0  0
   11.8444   12.6158    4.1205 H   0  0  0  0  0  0  0  0  0  0  0  0
   11.7285   10.8893    4.3008 H   0  0  0  0  0  0  0  0  0  0  0  0
    9.5077   11.1625    5.5119 H   0  0  0  0  0  0  0  0  0  0  0  0
   11.0396   13.7441    6.0862 H   0  0  0  0  0  0  0  0  0  0  0  0
    8.7317   14.8634    9.8777 H   0  0  0  0  0  0  0  0  0  0  0  0
    5.0544   13.0956   12.1941 H   0  0  0  0  0  0  0  0  0  0  0  0
    1.5267    9.8553   12.3394 H   0  0  0  0  0  0  0  0  0  0  0  0
    1.0498    7.7335   10.5512 H   0  0  0  0  0  0  0  0  0  0  0  0
    0.6343    8.8490    7.2056 H   0  0  0  0  0  0  0  0  0  0  0  0
    1.0604    9.9323    8.5404 H   0  0  0  0  0  0  0  0  0  0  0  0
   -0.1837    8.6911    8.7719 H   0  0  0  0  0  0  0  0  0  0  0  0
    2.7915    6.5096   11.4052 H   0  0  0  0  0  0  0  0  0  0  0  0
    2.8503    4.5024   10.0030 H   0  0  0  0  0  0  0  0  0  0  0  0
    1.2630    5.2537    9.8954 H   0  0  0  0  0  0  0  0  0  0  0  0
    2.4049    5.4177    8.5641 H   0  0  0  0  0  0  0  0  0  0  0  0
   11.6654    6.7870    4.4550 H   0  0  0  0  0  0  0  0  0  0  0  0
    8.0236    9.9875    7.3478 H   0  0  0  0  0  0  0  0  0  0  0  0
  1  2  1  0
  2  3  1  0
  2 62  1  0
  2 63  1  0
  3  4  1  0
  3  5  1  0
  4 64  1  0
  4 65  1  0
  4 66  1  0
  5  6  2  0
  5 67  1  0
  6  7  1  0
  6 68  1  0
  7  8  1  0
  7 69  1  0
  7 70  1  0
  8  9  1  0
  8 11  1  0
  8 71  1  1
  9 10  1  0
 10 72  1  0
 10 73  1  0
 10 74  1  0
 11 12  1  0
 11 13  1  0
 11 75  1  6
 12 76  1  0
 12 77  1  0
 12 78  1  0
 13 14  2  0
 13 15  1  0
 15 16  1  0
 15 79  1  0
 15 80  1  0
 16 17  1  0
 16 81  1  0
 16 82  1  0
 17 18  1  0
 17 19  1  0
 17 83  1  6
 18 84  1  0
 18 85  1  0
 18 86  1  0
 19 20  1  0
 19 22  1  0
 19 87  1  6
 20 21  1  0
 21 88  1  0
 21 89  1  0
 21 90  1  0
 22 23  1  0
 22 91  1  0
 22 92  1  0
 23 24  1  0
 23 34  1  0
 23 93  1  1
 24 25  1  0
 25 26  2  0
 25 27  1  0
 27 28  1  0
 27 94  1  0
 27 95  1  0
 28 29  1  0
 28 30  1  0
 28 96  1  6
 30 31  1  0
 30 97  1  0
 30 98  1  0
 31 32  1  0
 31 33  1  0
 31 99  1  1
 32100  1  0
 33 60  1  0
 33101  1  0
 33102  1  0
 34 35  1  0
 34 36  1  0
 34103  1  6
 35104  1  0
 35105  1  0
 35106  1  0
 36 37  1  0
 36107  1  0
 36108  1  0
 37 38  1  0
 37109  1  0
 37110  1  0
 38 39  2  0
 38111  1  0
 39 40  1  0
 39112  1  0
 40 41  1  0
 40 43  2  0
 41 42  1  0
 42 44  2  0
 42113  1  0
 43 44  1  0
 44 45  1  0
 45 46  2  0
 45 47  1  0
 46 49  1  0
 47 48  1  0
 48 49  2  0
 48114  1  0
 49 50  1  0
 50 51  2  0
 50 52  1  0
 51 54  1  0
 52 53  1  0
 53 54  2  0
 53115  1  0
 54 55  1  0
 55 56  1  0
 55 58  1  0
 55116  1  1
 56 57  1  0
 57117  1  0
 57118  1  0
 57119  1  0
 58 59  1  0
 58 60  1  0
 58120  1  1
 59121  1  0
 59122  1  0
 59123  1  0
 60 61  2  0
124  1  1  0
125 29  1  0
M  END
