
     RDKit          3D

 37 38  0  0  0  0  0  0  0  0999 V2000
   -5.3022   -1.4046    0.1229 N   0  0  0  0  0  0  0  0  0  0  0  0
   -4.1931   -0.6769    0.1417 C   0  0  0  0  0  0  0  0  0  0  0  0
   -4.1236    0.6402    0.1990 N   0  0  0  0  0  0  0  0  0  0  0  0
   -5.2814    1.2908    0.2339 C   0  0  0  0  0  0  0  0  0  0  0  0
   -6.5117    0.6514    0.2144 C   0  0  0  0  0  0  0  0  0  0  0  0
   -6.4445   -0.7368    0.1588 C   0  0  0  0  0  0  0  0  0  0  0  0
   -2.7291   -1.6452    0.0861 S   0  0  0  0  0  0  0  0  0  0  0  0
   -1.4661   -0.3552    0.1242 C   0  0  0  0  0  0  0  0  0  0  0  0
   -0.1140   -1.0148    0.0609 C   0  0  0  0  0  0  0  0  0  0  0  0
   -0.0083   -2.2187    0.0026 O   0  0  0  0  0  0  0  0  0  0  0  0
   -7.8105    1.3971    0.2105 C   0  0  0  0  0  0  0  0  0  0  0  0
   -8.2560    1.7655   -1.2036 C   0  0  0  0  0  0  0  0  0  0  0  0
    1.0844   -0.1349    0.0688 C   0  0  0  0  0  0  0  0  0  0  0  0
    2.3418   -0.7277   -0.0156 C   0  0  0  0  0  0  0  0  0  0  0  0
    3.4867    0.0467   -0.0202 C   0  0  0  0  0  0  0  0  0  0  0  0
    3.3836    1.4362    0.0640 C   0  0  0  0  0  0  0  0  0  0  0  0
    2.1370    2.0332    0.1516 C   0  0  0  0  0  0  0  0  0  0  0  0
    0.9953    1.2508    0.1549 C   0  0  0  0  0  0  0  0  0  0  0  0
    5.0638   -0.7809   -0.1078 S   0  0  1  0  0  0  0  0  0  0  0  0
    5.9125   -0.2795    0.9571 O   0  0  0  0  0  0  0  0  0  0  0  0
    4.7688    2.4496    0.0472 Cl  0  0  0  0  0  0  0  0  0  0  0  0
    4.7756   -2.2036   -0.1779 O   0  0  0  0  0  0  0  0  0  0  0  0
    5.6664   -0.2286   -1.5268 N   0  0  0  0  0  0  0  0  0  0  0  0
   -5.2225    2.3737    0.2847 H   0  0  0  0  0  0  0  0  0  0  0  0
   -7.3519   -1.3329    0.1491 H   0  0  0  0  0  0  0  0  0  0  0  0
   -1.5919    0.3285   -0.7177 H   0  0  0  0  0  0  0  0  0  0  0  0
   -1.5533    0.2402    1.0354 H   0  0  0  0  0  0  0  0  0  0  0  0
   -8.5796    0.7891    0.6911 H   0  0  0  0  0  0  0  0  0  0  0  0
   -7.7124    2.3035    0.8116 H   0  0  0  0  0  0  0  0  0  0  0  0
   -7.5186    2.4014   -1.6952 H   0  0  0  0  0  0  0  0  0  0  0  0
   -8.3932    0.8749   -1.8179 H   0  0  0  0  0  0  0  0  0  0  0  0
   -9.2028    2.3056   -1.1809 H   0  0  0  0  0  0  0  0  0  0  0  0
    2.4217   -1.8040   -0.0800 H   0  0  0  0  0  0  0  0  0  0  0  0
    2.0568    3.1090    0.2162 H   0  0  0  0  0  0  0  0  0  0  0  0
    0.0384    1.7501    0.2268 H   0  0  0  0  0  0  0  0  0  0  0  0
    6.6397    0.0468   -1.4751 H   0  0  0  0  0  0  0  0  0  0  0  0
    5.4706   -0.8263   -2.3211 H   0  0  0  0  0  0  0  0  0  0  0  0
  1  6  2  0
  1  2  1  0
  7  2  1  0
  2  3  2  0
  3  4  1  0
  5  4  2  0
  4 24  1  0
  6  5  1  0
  5 11  1  0
  6 25  1  0
  7  8  1  0
  8  9  1  0
  8 26  1  0
  8 27  1  0
 10  9  2  0
  9 13  1  0
 11 12  1  0
 11 28  1  0
 11 29  1  0
 12 30  1  0
 12 31  1  0
 12 32  1  0
 13 18  1  0
 13 14  2  0
 14 15  1  0
 14 33  1  0
 15 16  2  0
 15 19  1  0
 17 16  1  0
 16 21  1  0
 18 17  2  0
 17 34  1  0
 18 35  1  0
 19 23  1  6
 22 19  2  0
 19 20  2  0
 23 36  1  0
 23 37  1  0
M  END
