
     RDKit          3D

 44 47  0  0  0  0  0  0  0  0999 V2000
    1.0591   -0.2459    4.1339 C   0  0  0  0  0  0  0  0  0  0  0  0
    0.9328   -0.4219    5.4328 N   0  0  0  0  0  0  0  0  0  0  0  0
   -0.2858   -0.3047    5.9845 C   0  0  0  0  0  0  0  0  0  0  0  0
   -1.4096   -0.0790    5.3422 N   0  0  0  0  0  0  0  0  0  0  0  0
   -1.2587    0.7314    1.2808 C   0  0  0  0  0  0  0  0  0  0  0  0
   -0.0698    0.4753    1.9302 C   0  0  0  0  0  0  0  0  0  0  0  0
   -0.0720    0.1416    3.3135 C   0  0  0  0  0  0  0  0  0  0  0  0
   -1.3102    0.1472    4.0146 C   0  0  0  0  0  0  0  0  0  0  0  0
   -2.5062    0.3992    3.3110 C   0  0  0  0  0  0  0  0  0  0  0  0
   -2.4738    0.6719    1.9714 C   0  0  0  0  0  0  0  0  0  0  0  0
   -0.3332   -0.4252    7.3307 N   0  0  0  0  0  0  0  0  0  0  0  0
    2.2902   -0.4453    3.6445 N   0  0  0  0  0  0  0  0  0  0  0  0
    1.4569    0.6763    1.0315 S   0  0  0  0  0  0  0  0  0  0  0  0
    0.9793    0.4702   -0.6524 C   0  0  0  0  0  0  0  0  0  0  0  0
    0.9556    1.5664   -1.5089 C   0  0  0  0  0  0  0  0  0  0  0  0
    0.6292    1.4129   -2.8426 C   0  0  0  0  0  0  0  0  0  0  0  0
    0.2992    0.1536   -3.3729 C   0  0  0  0  0  0  0  0  0  0  0  0
    0.3396   -0.9448   -2.4961 C   0  0  0  0  0  0  0  0  0  0  0  0
    0.6776   -0.7860   -1.1645 C   0  0  0  0  0  0  0  0  0  0  0  0
   -1.2553   -1.1297   -6.4892 C   0  0  0  0  0  0  0  0  0  0  0  0
   -0.4978   -1.2798   -5.1821 C   0  0  0  0  0  0  0  0  0  0  0  0
   -0.0792    0.0210   -4.6960 N   0  0  0  0  0  0  0  0  0  0  0  0
    0.6317    0.7866   -5.7118 C   0  0  0  0  0  0  0  0  0  0  0  0
   -0.1789    0.8520   -6.9905 C   0  0  0  0  0  0  0  0  0  0  0  0
   -0.5114   -0.4332   -7.4605 O   0  0  0  0  0  0  0  0  0  0  0  0
   -1.2633    0.9899    0.2317 H   0  0  0  0  0  0  0  0  0  0  0  0
   -3.4386    0.3758    3.8594 H   0  0  0  0  0  0  0  0  0  0  0  0
   -3.3927    0.8701    1.4347 H   0  0  0  0  0  0  0  0  0  0  0  0
    0.4598   -0.8273    7.8000 H   0  0  0  0  0  0  0  0  0  0  0  0
   -1.2297   -0.5802    7.7588 H   0  0  0  0  0  0  0  0  0  0  0  0
    2.9783   -0.8113    4.2823 H   0  0  0  0  0  0  0  0  0  0  0  0
    2.4636   -0.5787    2.6628 H   0  0  0  0  0  0  0  0  0  0  0  0
    1.1829    2.5549   -1.1312 H   0  0  0  0  0  0  0  0  0  0  0  0
    0.6019    2.2970   -3.4642 H   0  0  0  0  0  0  0  0  0  0  0  0
    0.1290   -1.9446   -2.8469 H   0  0  0  0  0  0  0  0  0  0  0  0
    0.7112   -1.6556   -0.5204 H   0  0  0  0  0  0  0  0  0  0  0  0
   -2.2074   -0.6163   -6.2947 H   0  0  0  0  0  0  0  0  0  0  0  0
    0.3566   -1.9600   -5.3131 H   0  0  0  0  0  0  0  0  0  0  0  0
   -1.1773   -1.7440   -4.4663 H   0  0  0  0  0  0  0  0  0  0  0  0
    0.8085    1.8054   -5.3753 H   0  0  0  0  0  0  0  0  0  0  0  0
    1.6130    0.3351   -5.9153 H   0  0  0  0  0  0  0  0  0  0  0  0
    0.4049    1.3484   -7.7666 H   0  0  0  0  0  0  0  0  0  0  0  0
   -1.0868    1.4466   -6.8171 H   0  0  0  0  0  0  0  0  0  0  0  0
   -1.4827   -2.1176   -6.8917 H   0  0  0  0  0  0  0  0  0  0  0  0
  1  2  2  0
  1  7  1  0
  1 12  1  0
  2  3  1  0
  3  4  2  0
  3 11  1  0
  4  8  1  0
  5  6  1  0
  5 10  2  0
  5 26  1  0
  6  7  2  0
  6 13  1  0
  7  8  1  0
  8  9  2  0
  9 10  1  0
  9 27  1  0
 10 28  1  0
 11 29  1  0
 11 30  1  0
 12 31  1  0
 12 32  1  0
 13 14  1  0
 14 15  2  0
 14 19  1  0
 15 16  1  0
 15 33  1  0
 16 17  2  0
 16 34  1  0
 17 18  1  0
 17 22  1  0
 18 19  2  0
 18 35  1  0
 19 36  1  0
 20 21  1  0
 20 25  1  0
 20 44  1  0
 20 37  1  0
 21 22  1  0
 21 38  1  0
 21 39  1  0
 22 23  1  0
 23 24  1  0
 23 40  1  0
 23 41  1  0
 24 25  1  0
 24 42  1  0
 24 43  1  0
M  END
