
     RDKit          3D

 87 90  0  0  0  0  0  0  0  0999 V2000
   -4.8094    0.5595   -1.5475 C   0  0  0  0  0  0  0  0  0  0  0  0
   -4.5084    0.5246   -0.1913 C   0  0  0  0  0  0  0  0  0  0  0  0
   -3.2718    0.0575    0.2312 C   0  0  0  0  0  0  0  0  0  0  0  0
   -2.3183   -0.3249   -0.7051 C   0  0  0  0  0  0  0  0  0  0  0  0
   -2.6360   -0.2902   -2.0604 C   0  0  0  0  0  0  0  0  0  0  0  0
   -3.8822    0.1445   -2.4987 C   0  0  0  0  0  0  0  0  0  0  0  0
   -5.5449    0.8703    0.8363 C   0  0  0  0  0  0  0  0  0  0  0  0
   -5.9070    2.1598    0.9501 N   0  0  0  0  0  0  0  0  0  0  0  0
   -6.0258   -0.0241    1.5212 O   0  0  0  0  0  0  0  0  0  0  0  0
   -6.9197    2.5264    1.9299 C   0  0  0  0  0  0  0  0  0  0  0  0
   -5.2216    3.2665    0.2982 C   0  0  0  0  0  0  0  0  0  0  0  0
   -6.0006    3.8664   -0.8652 C   0  0  0  0  0  0  0  0  0  0  0  0
   -5.2968    5.0860   -1.4420 C   0  0  0  0  0  0  0  0  0  0  0  0
   -6.3505    2.7266    3.3303 C   0  0  0  0  0  0  0  0  0  0  0  0
   -7.4198    3.1881    4.3098 C   0  0  0  0  0  0  0  0  0  0  0  0
   -4.2147    0.1874   -3.9610 C   0  0  0  0  0  0  0  0  0  0  0  0
   -0.9946   -0.8144   -0.2031 C   0  0  0  0  0  0  0  0  0  0  0  0
   -0.8939   -1.3200    0.9050 O   0  0  0  0  0  0  0  0  0  0  0  0
    0.0434   -0.6384   -1.0397 N   0  0  0  0  0  0  0  0  0  0  0  0
    1.3702   -1.1633   -0.8087 C   0  0  2  0  0  0  0  0  0  0  0  0
    2.3915   -0.0354   -1.0438 C   0  0  2  0  0  0  0  0  0  0  0  0
    2.2281    0.5106   -2.3286 O   0  0  0  0  0  0  0  0  0  0  0  0
    1.6150   -2.3972   -1.6913 C   0  0  0  0  0  0  0  0  0  0  0  0
    0.6464   -3.4894   -1.3495 C   0  0  0  0  0  0  0  0  0  0  0  0
   -0.5024   -3.6861   -2.1080 C   0  0  0  0  0  0  0  0  0  0  0  0
   -1.4037   -4.6579   -1.7178 C   0  0  0  0  0  0  0  0  0  0  0  0
   -1.2139   -5.4526   -0.6050 C   0  0  0  0  0  0  0  0  0  0  0  0
   -0.0583   -5.2325    0.1219 C   0  0  0  0  0  0  0  0  0  0  0  0
    0.8717   -4.2744   -0.2217 C   0  0  0  0  0  0  0  0  0  0  0  0
   -2.5125   -4.8413   -2.4483 F   0  0  0  0  0  0  0  0  0  0  0  0
    0.1591   -5.9868    1.2087 F   0  0  0  0  0  0  0  0  0  0  0  0
    3.8339   -0.5011   -0.7686 C   0  0  1  0  0  0  0  0  0  0  0  0
    4.8141    0.6795   -0.7071 C   0  0  0  0  0  0  0  0  0  0  0  0
    5.8918    0.5352    0.0965 N   0  0  0  0  0  0  0  0  0  0  0  0
    6.0810   -0.5548    1.0431 C   0  0  0  0  0  0  0  0  0  0  0  0
    5.2323   -1.7569    0.6898 C   0  0  0  0  0  0  0  0  0  0  0  0
    3.8697   -1.3758    0.3850 N   0  0  0  0  0  0  0  0  0  0  0  0
    4.6426    1.6771   -1.3936 O   0  0  0  0  0  0  0  0  0  0  0  0
    6.8612    1.6150    0.2059 C   0  0  0  0  0  0  0  0  0  0  0  0
    6.6708    2.4351    1.4574 C   0  0  0  0  0  0  0  0  0  0  0  0
    7.5672    2.3316    2.5158 C   0  0  0  0  0  0  0  0  0  0  0  0
    7.3839    3.0713    3.6785 C   0  0  0  0  0  0  0  0  0  0  0  0
    6.2962    3.9246    3.7939 C   0  0  0  0  0  0  0  0  0  0  0  0
    5.3946    4.0347    2.7411 C   0  0  0  0  0  0  0  0  0  0  0  0
    5.5809    3.2959    1.5821 C   0  0  0  0  0  0  0  0  0  0  0  0
   -5.7858    0.8986   -1.8729 H   0  0  0  0  0  0  0  0  0  0  0  0
   -3.0401    0.0083    1.2873 H   0  0  0  0  0  0  0  0  0  0  0  0
   -1.9233   -0.6343   -2.8008 H   0  0  0  0  0  0  0  0  0  0  0  0
   -7.3856    3.4527    1.5870 H   0  0  0  0  0  0  0  0  0  0  0  0
   -7.7031    1.7685    1.9448 H   0  0  0  0  0  0  0  0  0  0  0  0
   -5.0474    4.0366    1.0559 H   0  0  0  0  0  0  0  0  0  0  0  0
   -4.2358    2.9435   -0.0360 H   0  0  0  0  0  0  0  0  0  0  0  0
   -6.1314    3.1114   -1.6438 H   0  0  0  0  0  0  0  0  0  0  0  0
   -7.0044    4.1426   -0.5316 H   0  0  0  0  0  0  0  0  0  0  0  0
   -5.8560    5.4978   -2.2817 H   0  0  0  0  0  0  0  0  0  0  0  0
   -5.1922    5.8752   -0.6956 H   0  0  0  0  0  0  0  0  0  0  0  0
   -4.2976    4.8355   -1.8024 H   0  0  0  0  0  0  0  0  0  0  0  0
   -5.9072    1.7909    3.6769 H   0  0  0  0  0  0  0  0  0  0  0  0
   -5.5425    3.4628    3.2923 H   0  0  0  0  0  0  0  0  0  0  0  0
   -7.0059    3.3195    5.3095 H   0  0  0  0  0  0  0  0  0  0  0  0
   -7.8547    4.1418    4.0047 H   0  0  0  0  0  0  0  0  0  0  0  0
   -8.2324    2.4630    4.3822 H   0  0  0  0  0  0  0  0  0  0  0  0
   -4.0212    1.1804   -4.3715 H   0  0  0  0  0  0  0  0  0  0  0  0
   -3.6155   -0.5230   -4.5287 H   0  0  0  0  0  0  0  0  0  0  0  0
   -5.2658   -0.0369   -4.1379 H   0  0  0  0  0  0  0  0  0  0  0  0
   -0.1017   -0.1441   -1.9063 H   0  0  0  0  0  0  0  0  0  0  0  0
    1.4194   -1.4710    0.2336 H   0  0  0  0  0  0  0  0  0  0  0  0
    2.1392    0.7673   -0.3425 H   0  0  0  0  0  0  0  0  0  0  0  0
    2.6018   -0.0917   -2.9803 H   0  0  0  0  0  0  0  0  0  0  0  0
    1.5200   -2.1354   -2.7481 H   0  0  0  0  0  0  0  0  0  0  0  0
    2.6329   -2.7525   -1.5261 H   0  0  0  0  0  0  0  0  0  0  0  0
   -0.6917   -3.0920   -2.9932 H   0  0  0  0  0  0  0  0  0  0  0  0
   -1.9327   -6.2085   -0.3170 H   0  0  0  0  0  0  0  0  0  0  0  0
    1.7591   -4.1315    0.3835 H   0  0  0  0  0  0  0  0  0  0  0  0
    4.1649   -1.0977   -1.6321 H   0  0  0  0  0  0  0  0  0  0  0  0
    7.1394   -0.8264    1.0513 H   0  0  0  0  0  0  0  0  0  0  0  0
    5.8318   -0.2082    2.0520 H   0  0  0  0  0  0  0  0  0  0  0  0
    5.6468   -2.2757   -0.1784 H   0  0  0  0  0  0  0  0  0  0  0  0
    5.2417   -2.4612    1.5218 H   0  0  0  0  0  0  0  0  0  0  0  0
    3.4653   -0.9062    1.1889 H   0  0  0  0  0  0  0  0  0  0  0  0
    7.8586    1.1689    0.2060 H   0  0  0  0  0  0  0  0  0  0  0  0
    6.7865    2.2432   -0.6791 H   0  0  0  0  0  0  0  0  0  0  0  0
    8.4185    1.6652    2.4346 H   0  0  0  0  0  0  0  0  0  0  0  0
    8.0899    2.9767    4.4934 H   0  0  0  0  0  0  0  0  0  0  0  0
    6.1507    4.5024    4.6976 H   0  0  0  0  0  0  0  0  0  0  0  0
    4.5456    4.7014    2.8223 H   0  0  0  0  0  0  0  0  0  0  0  0
    4.8752    3.3929    0.7659 H   0  0  0  0  0  0  0  0  0  0  0  0
  1  2  2  0
  1  6  1  0
  2  3  1  0
  2  7  1  0
  3  4  2  0
  4  5  1  0
  4 17  1  0
  5  6  2  0
  6 16  1  0
  7  8  1  0
  7  9  2  0
  8 10  1  0
  8 11  1  0
 10 14  1  0
 11 12  1  0
 12 13  1  0
 14 15  1  0
 17 18  2  0
 17 19  1  0
 19 20  1  0
 20 21  1  0
 20 23  1  0
 21 22  1  0
 21 32  1  0
 23 24  1  0
 24 25  2  0
 24 29  1  0
 25 26  1  0
 26 27  2  0
 26 30  1  0
 27 28  1  0
 28 29  2  0
 28 31  1  0
 32 33  1  0
 32 37  1  0
 33 34  1  0
 33 38  2  0
 34 35  1  0
 34 39  1  0
 35 36  1  0
 36 37  1  0
 39 40  1  0
 40 41  2  0
 40 45  1  0
 41 42  1  0
 42 43  2  0
 43 44  1  0
 44 45  2  0
  1 46  1  0
  3 47  1  0
  5 48  1  0
 10 49  1  0
 10 50  1  0
 11 51  1  0
 11 52  1  0
 12 53  1  0
 12 54  1  0
 13 55  1  0
 13 56  1  0
 13 57  1  0
 14 58  1  0
 14 59  1  0
 15 60  1  0
 15 61  1  0
 15 62  1  0
 16 63  1  0
 16 64  1  0
 16 65  1  0
 19 66  1  0
 20 67  1  1
 21 68  1  1
 22 69  1  0
 23 70  1  0
 23 71  1  0
 25 72  1  0
 27 73  1  0
 29 74  1  0
 32 75  1  6
 35 76  1  0
 35 77  1  0
 36 78  1  0
 36 79  1  0
 37 80  1  0
 39 81  1  0
 39 82  1  0
 41 83  1  0
 42 84  1  0
 43 85  1  0
 44 86  1  0
 45 87  1  0
M  END
