
     RDKit          3D

 65 68  0  0  0  0  0  0  0  0999 V2000
    3.2008   -4.0218   -1.2916 C   0  0  0  0  0  0  0  0  0  0  0  0
    2.2511   -4.9533   -0.9084 C   0  0  0  0  0  0  0  0  0  0  0  0
    3.0366   -2.6962   -0.9215 C   0  0  0  0  0  0  0  0  0  0  0  0
    1.1609   -4.5475   -0.1523 C   0  0  0  0  0  0  0  0  0  0  0  0
   -4.6677   -1.0681    0.7669 C   0  0  0  0  0  0  0  0  0  0  0  0
   -5.5508   -0.0722    0.3788 C   0  0  0  0  0  0  0  0  0  0  0  0
    1.9401   -2.2816   -0.1648 C   0  0  0  0  0  0  0  0  0  0  0  0
   -2.8272    0.4402    0.4987 C   0  0  0  0  0  0  0  0  0  0  0  0
    0.9851   -3.2250    0.2456 C   0  0  0  0  0  0  0  0  0  0  0  0
   -3.3036   -0.8239    0.8538 C   0  0  0  0  0  0  0  0  0  0  0  0
   -5.0800    1.1865    0.0429 C   0  0  0  0  0  0  0  0  0  0  0  0
   -3.7038    1.4387    0.0852 C   0  0  0  0  0  0  0  0  0  0  0  0
    1.8829   -0.8415    0.2390 C   0  0  0  0  0  0  0  0  0  0  0  0
    6.4068    3.0381    0.4205 C   0  0  0  0  0  0  0  0  0  0  0  0
    5.5546    3.7437   -0.6293 C   0  0  0  0  0  0  0  0  0  0  0  0
    6.2392    1.5244    0.3393 C   0  0  0  0  0  0  0  0  0  0  0  0
    4.0894    3.3339   -0.5217 C   0  0  0  0  0  0  0  0  0  0  0  0
    4.7723    1.1211    0.4458 C   0  0  0  0  0  0  0  0  0  0  0  0
   -5.4534    3.4621   -0.3139 C   0  0  0  0  0  0  0  0  0  0  0  0
   -4.0887    3.4889   -0.9561 C   0  0  0  0  0  0  0  0  0  0  0  0
    3.9205    1.8167   -0.6144 C   0  0  1  0  0  0  0  0  0  0  0  0
   -1.6266   -2.6134   -0.8631 C   0  0  0  0  0  0  0  0  0  0  0  0
   -0.2274   -2.9088    1.0866 C   0  0  0  0  0  0  0  0  0  0  0  0
   -2.3652   -1.9106    1.3075 C   0  0  0  0  0  0  0  0  0  0  0  0
    2.4434    1.4443   -0.5125 C   0  0  0  0  0  0  0  0  0  0  0  0
    2.2229    0.0278   -0.7115 N   0  0  0  0  0  0  0  0  0  0  0  0
   -1.2241   -2.0822    0.4228 N   0  0  0  0  0  0  0  0  0  0  0  0
   -0.8082    0.5941    1.6745 O   0  0  0  0  0  0  0  0  0  0  0  0
    1.5924   -0.5067    1.3924 O   0  0  0  0  0  0  0  0  0  0  0  0
   -0.7665    1.0293   -0.5210 O   0  0  0  0  0  0  0  0  0  0  0  0
   -5.9691    2.1392   -0.3234 O   0  0  0  0  0  0  0  0  0  0  0  0
   -3.1972    2.6485   -0.2369 O   0  0  0  0  0  0  0  0  0  0  0  0
    4.0666   -4.3189   -1.8681 H   0  0  0  0  0  0  0  0  0  0  0  0
    2.3556   -5.9925   -1.1912 H   0  0  0  0  0  0  0  0  0  0  0  0
    3.7952   -1.9788   -1.2083 H   0  0  0  0  0  0  0  0  0  0  0  0
    0.4197   -5.2815    0.1403 H   0  0  0  0  0  0  0  0  0  0  0  0
   -5.0515   -2.0498    1.0149 H   0  0  0  0  0  0  0  0  0  0  0  0
   -6.6150   -0.2670    0.3322 H   0  0  0  0  0  0  0  0  0  0  0  0
   -0.6653   -3.8715    1.3972 H   0  0  0  0  0  0  0  0  0  0  0  0
    0.0751   -2.3989    2.0018 H   0  0  0  0  0  0  0  0  0  0  0  0
   -1.9873   -1.6633    2.3028 H   0  0  0  0  0  0  0  0  0  0  0  0
   -2.9363   -2.8465    1.4206 H   0  0  0  0  0  0  0  0  0  0  0  0
    2.3648   -0.3211   -1.6463 H   0  0  0  0  0  0  0  0  0  0  0  0
    0.1611    0.4101    1.5908 H   0  0  0  0  0  0  0  0  0  0  0  0
    7.4583    3.3109    0.3006 H   0  0  0  0  0  0  0  0  0  0  0  0
    6.1073    3.3818    1.4169 H   0  0  0  0  0  0  0  0  0  0  0  0
    5.6497    4.8277   -0.5290 H   0  0  0  0  0  0  0  0  0  0  0  0
    5.9266    3.4907   -1.6284 H   0  0  0  0  0  0  0  0  0  0  0  0
    6.6448    1.1653   -0.6133 H   0  0  0  0  0  0  0  0  0  0  0  0
    6.8189    1.0365    1.1268 H   0  0  0  0  0  0  0  0  0  0  0  0
    3.6830    3.6833    0.4356 H   0  0  0  0  0  0  0  0  0  0  0  0
    3.5028    3.8224   -1.3054 H   0  0  0  0  0  0  0  0  0  0  0  0
    4.6817    0.0353    0.3573 H   0  0  0  0  0  0  0  0  0  0  0  0
    4.3926    1.3852    1.4402 H   0  0  0  0  0  0  0  0  0  0  0  0
    4.2832    1.5005   -1.6030 H   0  0  0  0  0  0  0  0  0  0  0  0
   -5.3995    3.8380    0.7134 H   0  0  0  0  0  0  0  0  0  0  0  0
   -6.1512    4.0840   -0.8722 H   0  0  0  0  0  0  0  0  0  0  0  0
   -4.1495    3.1651   -2.0002 H   0  0  0  0  0  0  0  0  0  0  0  0
   -3.6722    4.4945   -0.9298 H   0  0  0  0  0  0  0  0  0  0  0  0
    2.0480    1.7274    0.4622 H   0  0  0  0  0  0  0  0  0  0  0  0
    1.8673    1.9889   -1.2623 H   0  0  0  0  0  0  0  0  0  0  0  0
   -2.0239   -3.6387   -0.8031 H   0  0  0  0  0  0  0  0  0  0  0  0
   -2.4018   -1.9817   -1.2960 H   0  0  0  0  0  0  0  0  0  0  0  0
   -0.7847   -2.6166   -1.5542 H   0  0  0  0  0  0  0  0  0  0  0  0
   -1.3586    0.7113    0.4801 C   0  0  0  0  0  0  0  0  0  0  0  0
  1  2  2  0
  1  3  1  0
  2  4  1  0
  3  7  2  0
  4  9  2  0
  5  6  2  0
  5 10  1  0
  6 11  1  0
  7  9  1  0
  7 13  1  0
  8 10  2  0
  8 12  1  0
  8 65  1  0
  9 23  1  0
 10 24  1  0
 11 12  2  0
 11 31  1  0
 12 32  1  0
 13 26  1  0
 13 29  2  0
 65 28  1  0
 65 30  2  0
 14 15  1  0
 14 16  1  0
 15 17  1  0
 16 18  1  0
 17 21  1  0
 18 21  1  0
 19 20  1  0
 19 31  1  0
 20 32  1  0
 21 25  1  0
 22 27  1  0
 23 27  1  0
 24 27  1  0
 25 26  1  0
  1 33  1  0
  2 34  1  0
  3 35  1  0
  4 36  1  0
  5 37  1  0
  6 38  1  0
 23 39  1  0
 23 40  1  0
 24 41  1  0
 24 42  1  0
 26 43  1  0
 28 44  1  0
 14 45  1  0
 14 46  1  0
 15 47  1  0
 15 48  1  0
 16 49  1  0
 16 50  1  0
 17 51  1  0
 17 52  1  0
 18 53  1  0
 18 54  1  0
 21 55  1  6
 19 56  1  0
 19 57  1  0
 20 58  1  0
 20 59  1  0
 25 60  1  0
 25 61  1  0
 22 62  1  0
 22 63  1  0
 22 64  1  0
M  END
