
     RDKit          3D

 85 89  0  0  0  0  0  0  0  0999 V2000
   -1.7967    5.6153    0.9156 C   0  0  0  0  0  0  0  0  0  0  0  0
   -1.6518    4.1325    0.6039 C   0  0  0  0  0  0  0  0  0  0  0  0
   -1.9274    3.2917    1.8434 C   0  0  0  0  0  0  0  0  0  0  0  0
   -2.4227   -0.0190    0.8337 C   0  0  0  0  0  0  0  0  0  0  0  0
   -1.0761   -0.1526    1.2344 C   0  0  0  0  0  0  0  0  0  0  0  0
   -0.7331    1.0935    1.7037 C   0  0  0  0  0  0  0  0  0  0  0  0
    0.6000    1.4709    2.2395 C   0  0  0  0  0  0  0  0  0  0  0  0
    1.3602    0.1705    2.5046 C   0  0  0  0  0  0  0  0  0  0  0  0
   -0.0915   -1.2790    1.1847 C   0  0  0  0  0  0  0  0  0  0  0  0
   -2.5224    6.4045   -1.2480 C   0  0  0  0  0  0  0  0  0  0  0  0
   -1.3020    7.8459    0.1866 C   0  0  0  0  0  0  0  0  0  0  0  0
   -3.3191   -1.0097    0.2376 C   0  0  0  0  0  0  0  0  0  0  0  0
   -0.9511    8.7035   -1.0139 C   0  0  0  0  0  0  0  0  0  0  0  0
   -3.0832   -2.3778    0.3597 C   0  0  0  0  0  0  0  0  0  0  0  0
   -3.9387   -3.3004   -0.2158 C   0  0  0  0  0  0  0  0  0  0  0  0
   -5.0541   -2.8753   -0.9224 C   0  0  0  0  0  0  0  0  0  0  0  0
   -5.3073   -1.5121   -1.0465 C   0  0  0  0  0  0  0  0  0  0  0  0
   -4.4458   -0.5916   -0.4725 C   0  0  0  0  0  0  0  0  0  0  0  0
    2.2083   -0.9343    0.4423 C   0  0  0  0  0  0  0  0  0  0  0  0
    3.5306   -0.2209    0.6588 C   0  0  0  0  0  0  0  0  0  0  0  0
   -2.1484    7.2956   -2.4169 C   0  0  0  0  0  0  0  0  0  0  0  0
    4.5991   -0.5492   -0.3768 C   0  0  1  0  0  0  0  0  0  0  0  0
    5.7134    0.4962   -0.3306 C   0  0  0  0  0  0  0  0  0  0  0  0
    6.8265    0.1654   -1.3168 C   0  0  0  0  0  0  0  0  0  0  0  0
    6.3285   -2.2054   -1.1606 C   0  0  0  0  0  0  0  0  0  0  0  0
    5.1963   -1.9421   -0.1751 C   0  0  0  0  0  0  0  0  0  0  0  0
   10.6848   -0.3779    0.0166 C   0  0  1  0  0  0  0  0  0  0  0  0
   11.5648   -1.2494   -0.8723 C   0  0  0  0  0  0  0  0  0  0  0  0
   10.7552   -0.8073    1.4769 C   0  0  0  0  0  0  0  0  0  0  0  0
   11.1108    1.0798   -0.1154 C   0  0  0  0  0  0  0  0  0  0  0  0
   -6.9743   -0.8014   -2.1006 I   0  0  0  0  0  0  0  0  0  0  0  0
   -1.8221    1.8746    1.5744 N   0  0  0  0  0  0  0  0  0  0  0  0
   -1.4978    6.4656   -0.2205 N   0  0  0  0  0  0  0  0  0  0  0  0
   -2.8462    1.2206    1.0444 N   0  0  0  0  0  0  0  0  0  0  0  0
    1.2475   -0.7430    1.3806 N   0  0  0  0  0  0  0  0  0  0  0  0
    7.3438   -1.1713   -1.0754 N   0  0  0  0  0  0  0  0  0  0  0  0
   -1.9442    8.6311   -2.0127 O   0  0  0  0  0  0  0  0  0  0  0  0
    2.0168   -1.6408   -0.5376 O   0  0  0  0  0  0  0  0  0  0  0  0
    8.9216   -2.5667   -0.2300 O   0  0  0  0  0  0  0  0  0  0  0  0
    9.3144   -0.3558   -0.4566 O   0  0  0  0  0  0  0  0  0  0  0  0
   -6.0922   -4.0592   -1.6221 Cl  0  0  0  0  0  0  0  0  0  0  0  0
   -2.8080    5.8131    1.3121 H   0  0  0  0  0  0  0  0  0  0  0  0
   -1.0971    5.8715    1.7166 H   0  0  0  0  0  0  0  0  0  0  0  0
   -2.3430    3.8259   -0.1843 H   0  0  0  0  0  0  0  0  0  0  0  0
   -0.6396    3.9370    0.2403 H   0  0  0  0  0  0  0  0  0  0  0  0
   -1.2245    3.5369    2.6406 H   0  0  0  0  0  0  0  0  0  0  0  0
   -2.9302    3.4813    2.2265 H   0  0  0  0  0  0  0  0  0  0  0  0
    1.1459    2.0979    1.5276 H   0  0  0  0  0  0  0  0  0  0  0  0
    0.5215    2.0391    3.1693 H   0  0  0  0  0  0  0  0  0  0  0  0
    2.3999    0.3778    2.7349 H   0  0  0  0  0  0  0  0  0  0  0  0
    0.9375   -0.3230    3.3835 H   0  0  0  0  0  0  0  0  0  0  0  0
   -0.2959   -2.0222    1.9642 H   0  0  0  0  0  0  0  0  0  0  0  0
   -0.1268   -1.7991    0.2295 H   0  0  0  0  0  0  0  0  0  0  0  0
   -3.5089    6.7055   -0.8530 H   0  0  0  0  0  0  0  0  0  0  0  0
   -2.6251    5.3831   -1.6195 H   0  0  0  0  0  0  0  0  0  0  0  0
   -0.4815    7.8995    0.9065 H   0  0  0  0  0  0  0  0  0  0  0  0
   -2.1975    8.2595    0.6823 H   0  0  0  0  0  0  0  0  0  0  0  0
   -0.8644    9.7487   -0.7129 H   0  0  0  0  0  0  0  0  0  0  0  0
    0.0218    8.3861   -1.4153 H   0  0  0  0  0  0  0  0  0  0  0  0
   -2.2378   -2.7467    0.9233 H   0  0  0  0  0  0  0  0  0  0  0  0
   -3.7413   -4.3582   -0.1093 H   0  0  0  0  0  0  0  0  0  0  0  0
   -4.6393    0.4672   -0.5770 H   0  0  0  0  0  0  0  0  0  0  0  0
    3.3378    0.8580    0.6550 H   0  0  0  0  0  0  0  0  0  0  0  0
    3.9196   -0.4450    1.6570 H   0  0  0  0  0  0  0  0  0  0  0  0
   -1.2446    6.8980   -2.9008 H   0  0  0  0  0  0  0  0  0  0  0  0
   -2.9509    7.2963   -3.1557 H   0  0  0  0  0  0  0  0  0  0  0  0
    4.1513   -0.5128   -1.3765 H   0  0  0  0  0  0  0  0  0  0  0  0
    5.3124    1.4855   -0.5668 H   0  0  0  0  0  0  0  0  0  0  0  0
    6.1341    0.5537    0.6792 H   0  0  0  0  0  0  0  0  0  0  0  0
    6.4300    0.1976   -2.3374 H   0  0  0  0  0  0  0  0  0  0  0  0
    7.6225    0.9003   -1.2613 H   0  0  0  0  0  0  0  0  0  0  0  0
    6.7782   -3.1787   -0.9860 H   0  0  0  0  0  0  0  0  0  0  0  0
    5.9296   -2.2099   -2.1808 H   0  0  0  0  0  0  0  0  0  0  0  0
    5.5805   -2.0330    0.8472 H   0  0  0  0  0  0  0  0  0  0  0  0
    4.4316   -2.7104   -0.2994 H   0  0  0  0  0  0  0  0  0  0  0  0
   11.4331   -0.9928   -1.9249 H   0  0  0  0  0  0  0  0  0  0  0  0
   12.6111   -1.0734   -0.6197 H   0  0  0  0  0  0  0  0  0  0  0  0
   11.3662   -2.3106   -0.7444 H   0  0  0  0  0  0  0  0  0  0  0  0
   11.7716   -0.6580    1.8439 H   0  0  0  0  0  0  0  0  0  0  0  0
   10.0894   -0.2029    2.0953 H   0  0  0  0  0  0  0  0  0  0  0  0
   10.5024   -1.8562    1.6124 H   0  0  0  0  0  0  0  0  0  0  0  0
   11.0506    1.4165   -1.1517 H   0  0  0  0  0  0  0  0  0  0  0  0
   10.4868    1.7339    0.4953 H   0  0  0  0  0  0  0  0  0  0  0  0
   12.1427    1.1969    0.2145 H   0  0  0  0  0  0  0  0  0  0  0  0
    8.5608   -1.4491   -0.5526 C   0  0  0  0  0  0  0  0  0  0  0  0
 29 27  1  0
 30 27  1  0
 27 28  1  0
 27 40  1  6
 39 85  2  0
 13 37  1  0
 13 11  1  0
 40 85  1  0
 37 21  1  0
 85 36  1  0
 21 10  1  0
 11 33  1  0
 36 25  1  0
 36 24  1  0
 33 10  1  0
 33  1  1  0
 25 26  1  0
  2  1  1  0
  2  3  1  0
 24 23  1  0
 26 22  1  0
 23 22  1  0
  7  8  1  0
  7  6  1  0
  8 35  1  0
 22 20  1  0
  3 32  1  0
 20 19  1  0
  6 32  1  0
  6  5  2  0
 32 34  1  0
 35 19  1  0
 35  9  1  0
 19 38  2  0
  5  9  1  0
  5  4  1  0
 34  4  2  0
  4 12  1  0
 12 18  1  0
 12 14  2  0
 18 17  2  0
 14 15  1  0
 17 31  1  0
 17 16  1  0
 15 16  2  0
 16 41  1  0
  1 42  1  0
  1 43  1  0
  2 44  1  0
  2 45  1  0
  3 46  1  0
  3 47  1  0
  7 48  1  0
  7 49  1  0
  8 50  1  0
  8 51  1  0
  9 52  1  0
  9 53  1  0
 10 54  1  0
 10 55  1  0
 11 56  1  0
 11 57  1  0
 13 58  1  0
 13 59  1  0
 14 60  1  0
 15 61  1  0
 18 62  1  0
 20 63  1  0
 20 64  1  0
 21 65  1  0
 21 66  1  0
 22 67  1  6
 23 68  1  0
 23 69  1  0
 24 70  1  0
 24 71  1  0
 25 72  1  0
 25 73  1  0
 26 74  1  0
 26 75  1  0
 28 76  1  0
 28 77  1  0
 28 78  1  0
 29 79  1  0
 29 80  1  0
 29 81  1  0
 30 82  1  0
 30 83  1  0
 30 84  1  0
M  END
