
     RDKit          3D

 65 68  0  0  0  0  0  0  0  0999 V2000
   -7.2406    1.0902    0.7401 C   0  0  0  0  0  0  0  0  0  0  0  0
   -8.7154    1.0944    0.3829 C   0  0  0  0  0  0  0  0  0  0  0  0
   -9.3803   -0.0795    0.9047 N   0  0  0  0  0  0  0  0  0  0  0  0
  -10.8021   -0.0513    0.6516 C   0  0  0  0  0  0  0  0  0  0  0  0
   -8.7596   -1.2705    0.3669 C   0  0  0  0  0  0  0  0  0  0  0  0
   -7.2876   -1.3164    0.7230 C   0  0  0  0  0  0  0  0  0  0  0  0
   -6.6006   -0.1178    0.2573 N   0  0  0  0  0  0  0  0  0  0  0  0
   -5.2078   -0.1472    0.2391 C   0  0  0  0  0  0  0  0  0  0  0  0
   -4.5450   -1.2472   -0.3304 C   0  0  0  0  0  0  0  0  0  0  0  0
   -3.1637   -1.3027   -0.3899 C   0  0  0  0  0  0  0  0  0  0  0  0
   -2.4706   -2.3247   -0.9242 O   0  0  0  0  0  0  0  0  0  0  0  0
   -3.1730   -3.4524   -1.4098 C   0  0  0  0  0  0  0  0  0  0  0  0
   -4.4261    0.8942    0.7426 C   0  0  0  0  0  0  0  0  0  0  0  0
   -3.0396    0.8331    0.6868 C   0  0  0  0  0  0  0  0  0  0  0  0
   -2.3879   -0.2505    0.1278 C   0  0  0  0  0  0  0  0  0  0  0  0
   -0.9885   -0.3854    0.0913 N   0  0  0  0  0  0  0  0  0  0  0  0
   -0.0955    0.5883   -0.1137 C   0  0  0  0  0  0  0  0  0  0  0  0
    1.6009    0.2082   -0.0695 S   0  0  0  0  0  0  0  0  0  0  0  0
   -0.3938    1.8388   -0.3415 N   0  0  0  0  0  0  0  0  0  0  0  0
    0.7245    2.5824   -0.5134 C   0  0  0  0  0  0  0  0  0  0  0  0
    0.5968    3.8832   -0.7711 N   0  0  0  0  0  0  0  0  0  0  0  0
    1.9482    1.9036   -0.3913 C   0  0  0  0  0  0  0  0  0  0  0  0
    3.2356    2.4622   -0.6127 C   0  0  0  0  0  0  0  0  0  0  0  0
    3.3853    3.6344   -0.9816 O   0  0  0  0  0  0  0  0  0  0  0  0
    4.4407    1.6050   -0.4285 C   0  0  0  0  0  0  0  0  0  0  0  0
    4.6031    0.7605    0.6648 C   0  0  0  0  0  0  0  0  0  0  0  0
    5.7487   -0.0030    0.8358 C   0  0  0  0  0  0  0  0  0  0  0  0
    5.4842    1.6908   -1.3501 C   0  0  0  0  0  0  0  0  0  0  0  0
    6.6203    0.9220   -1.2050 C   0  0  0  0  0  0  0  0  0  0  0  0
    6.7707    0.0586   -0.1130 C   0  0  0  0  0  0  0  0  0  0  0  0
    7.9536   -0.6721   -0.0474 N   0  0  0  0  0  0  0  0  0  0  0  0
    8.3180   -1.6593    0.8204 C   0  0  0  0  0  0  0  0  0  0  0  0
    7.6222   -2.0360    1.7434 O   0  0  0  0  0  0  0  0  0  0  0  0
    9.6769   -2.2518    0.5128 C   0  0  0  0  0  0  0  0  0  0  0  0
   10.1521   -3.2472    1.5545 C   0  0  0  0  0  0  0  0  0  0  0  0
   -6.7770    1.9588    0.2713 H   0  0  0  0  0  0  0  0  0  0  0  0
   -7.1290    1.2042    1.8290 H   0  0  0  0  0  0  0  0  0  0  0  0
   -9.1720    1.9887    0.8135 H   0  0  0  0  0  0  0  0  0  0  0  0
   -8.8227    1.1721   -0.7135 H   0  0  0  0  0  0  0  0  0  0  0  0
  -11.0537   -0.0355   -0.4205 H   0  0  0  0  0  0  0  0  0  0  0  0
  -11.2767   -0.9299    1.0912 H   0  0  0  0  0  0  0  0  0  0  0  0
  -11.2455    0.8339    1.1102 H   0  0  0  0  0  0  0  0  0  0  0  0
   -9.2455   -2.1531    0.7896 H   0  0  0  0  0  0  0  0  0  0  0  0
   -8.8714   -1.3323   -0.7301 H   0  0  0  0  0  0  0  0  0  0  0  0
   -7.1779   -1.4250    1.8119 H   0  0  0  0  0  0  0  0  0  0  0  0
   -6.8577   -2.2048    0.2663 H   0  0  0  0  0  0  0  0  0  0  0  0
   -5.1246   -2.0482   -0.7662 H   0  0  0  0  0  0  0  0  0  0  0  0
   -3.7708   -3.9265   -0.6274 H   0  0  0  0  0  0  0  0  0  0  0  0
   -3.8256   -3.1946   -2.2475 H   0  0  0  0  0  0  0  0  0  0  0  0
   -2.4204   -4.1563   -1.7555 H   0  0  0  0  0  0  0  0  0  0  0  0
   -4.8737    1.7586    1.2098 H   0  0  0  0  0  0  0  0  0  0  0  0
   -2.4664    1.6470    1.1055 H   0  0  0  0  0  0  0  0  0  0  0  0
   -0.6310   -1.3253    0.1774 H   0  0  0  0  0  0  0  0  0  0  0  0
   -0.3153    4.2693   -0.9427 H   0  0  0  0  0  0  0  0  0  0  0  0
    1.4155    4.4176   -1.0102 H   0  0  0  0  0  0  0  0  0  0  0  0
    3.8447    0.7088    1.4361 H   0  0  0  0  0  0  0  0  0  0  0  0
    5.8333   -0.6288    1.7079 H   0  0  0  0  0  0  0  0  0  0  0  0
    5.4026    2.3522   -2.2029 H   0  0  0  0  0  0  0  0  0  0  0  0
    7.4061    0.9910   -1.9480 H   0  0  0  0  0  0  0  0  0  0  0  0
    8.6204   -0.4664   -0.7767 H   0  0  0  0  0  0  0  0  0  0  0  0
    9.6214   -2.7278   -0.4714 H   0  0  0  0  0  0  0  0  0  0  0  0
   10.3997   -1.4381    0.4043 H   0  0  0  0  0  0  0  0  0  0  0  0
   10.2567   -2.7840    2.5349 H   0  0  0  0  0  0  0  0  0  0  0  0
    9.4678   -4.0887    1.6508 H   0  0  0  0  0  0  0  0  0  0  0  0
   11.1261   -3.6428    1.2692 H   0  0  0  0  0  0  0  0  0  0  0  0
 34 35  1  0
 34 32  1  0
 31 32  1  0
 31 30  1  0
 32 33  2  0
 30 29  2  0
 30 27  1  0
 29 28  1  0
 27 26  2  0
 28 25  2  0
 26 25  1  0
 25 23  1  0
 24 23  2  0
 23 22  1  0
 22 18  1  0
 22 20  2  0
 21 20  1  0
 18 17  1  0
 20 19  1  0
 19 17  2  0
 17 16  1  0
  2  1  1  0
  2  3  1  0
  1  7  1  0
 11 10  1  0
 11 12  1  0
 10  9  2  0
 10 15  1  0
  9  8  1  0
 16 15  1  0
 15 14  2  0
  8  7  1  0
  8 13  2  0
  7  6  1  0
  4  3  1  0
  3  5  1  0
 14 13  1  0
  5  6  1  0
  1 36  1  0
  1 37  1  0
  2 38  1  0
  2 39  1  0
  4 40  1  0
  4 41  1  0
  4 42  1  0
  5 43  1  0
  5 44  1  0
  6 45  1  0
  6 46  1  0
  9 47  1  0
 12 48  1  0
 12 49  1  0
 12 50  1  0
 13 51  1  0
 14 52  1  0
 16 53  1  0
 21 54  1  0
 21 55  1  0
 26 56  1  0
 27 57  1  0
 28 58  1  0
 29 59  1  0
 31 60  1  0
 34 61  1  0
 34 62  1  0
 35 63  1  0
 35 64  1  0
 35 65  1  0
M  END
