
     RDKit          3D

 45 47  0  0  0  0  0  0  0  0999 V2000
   -0.4367   -2.7713   -0.0789 N   0  0  0  0  0  0  0  0  0  0  0  0
   -5.2903    0.4769   -0.5369 Cl  0  0  0  0  0  0  0  0  0  0  0  0
   -3.8365   -0.4537   -0.3904 C   0  0  0  0  0  0  0  0  0  0  0  0
    2.1384   -0.7521    2.6069 O   0  0  0  0  0  0  0  0  0  0  0  0
   -3.9327   -1.8573   -0.4107 C   0  0  0  0  0  0  0  0  0  0  0  0
    4.1700   -0.4910    1.7326 O   0  0  0  0  0  0  0  0  0  0  0  0
   -2.7940   -2.6060   -0.3031 C   0  0  0  0  0  0  0  0  0  0  0  0
   -1.5316   -1.9868   -0.1706 C   0  0  0  0  0  0  0  0  0  0  0  0
   -1.4523   -0.5788   -0.1442 C   0  0  0  0  0  0  0  0  0  0  0  0
   -2.6342    0.1846   -0.2627 C   0  0  0  0  0  0  0  0  0  0  0  0
    0.7442   -2.2267    0.0444 C   0  0  0  0  0  0  0  0  0  0  0  0
    0.9381   -0.8097    0.1055 C   0  0  0  0  0  0  0  0  0  0  0  0
   -0.1632    0.0052    0.0017 C   0  0  0  0  0  0  0  0  0  0  0  0
   -0.0497    1.4847    0.0301 C   0  0  0  0  0  0  0  0  0  0  0  0
    2.3190   -0.2208    0.2713 C   0  0  1  0  0  0  0  0  0  0  0  0
    2.8482   -0.5343    1.6566 C   0  0  0  0  0  0  0  0  0  0  0  0
    3.2691   -0.5106   -0.9075 C   0  0  0  0  0  0  0  0  0  0  0  0
    4.1960    0.6532   -1.2441 C   0  0  0  0  0  0  0  0  0  0  0  0
    5.0566    0.3632   -2.4646 C   0  0  0  0  0  0  0  0  0  0  0  0
    1.8963   -3.1868    0.0834 C   0  0  0  0  0  0  0  0  0  0  0  0
   -0.2860    2.1886    1.2076 C   0  0  0  0  0  0  0  0  0  0  0  0
   -0.1813    3.5728    1.2268 C   0  0  0  0  0  0  0  0  0  0  0  0
    0.1575    4.2633    0.0706 C   0  0  0  0  0  0  0  0  0  0  0  0
    0.3904    3.5656   -1.1073 C   0  0  0  0  0  0  0  0  0  0  0  0
    0.2861    2.1817   -1.1282 C   0  0  0  0  0  0  0  0  0  0  0  0
   -4.8978   -2.3341   -0.5138 H   0  0  0  0  0  0  0  0  0  0  0  0
    4.4540   -0.6506    2.6457 H   0  0  0  0  0  0  0  0  0  0  0  0
   -2.8435   -3.6869   -0.3188 H   0  0  0  0  0  0  0  0  0  0  0  0
   -2.5879    1.2648   -0.2529 H   0  0  0  0  0  0  0  0  0  0  0  0
    2.1961    0.8685    0.2987 H   0  0  0  0  0  0  0  0  0  0  0  0
    3.8610   -1.4105   -0.7326 H   0  0  0  0  0  0  0  0  0  0  0  0
    2.6536   -0.7221   -1.7864 H   0  0  0  0  0  0  0  0  0  0  0  0
    3.5927    1.5484   -1.4254 H   0  0  0  0  0  0  0  0  0  0  0  0
    4.8357    0.8846   -0.3903 H   0  0  0  0  0  0  0  0  0  0  0  0
    5.6861   -0.5146   -2.3082 H   0  0  0  0  0  0  0  0  0  0  0  0
    4.4423    0.1751   -3.3471 H   0  0  0  0  0  0  0  0  0  0  0  0
    5.7140    1.2028   -2.6933 H   0  0  0  0  0  0  0  0  0  0  0  0
    2.4382   -3.1801   -0.8637 H   0  0  0  0  0  0  0  0  0  0  0  0
    2.6199   -2.9755    0.8696 H   0  0  0  0  0  0  0  0  0  0  0  0
    1.5193   -4.1949    0.2398 H   0  0  0  0  0  0  0  0  0  0  0  0
   -0.5535    1.6535    2.1103 H   0  0  0  0  0  0  0  0  0  0  0  0
   -0.3653    4.1119    2.1469 H   0  0  0  0  0  0  0  0  0  0  0  0
    0.2387    5.3422    0.0876 H   0  0  0  0  0  0  0  0  0  0  0  0
    0.6530    4.0980   -2.0121 H   0  0  0  0  0  0  0  0  0  0  0  0
    0.4692    1.6387   -2.0476 H   0  0  0  0  0  0  0  0  0  0  0  0
  1  8  2  0
  1 11  1  0
  2  3  1  0
  3  5  1  0
  3 10  2  0
  4 16  2  0
  5  7  2  0
  6 16  1  0
  7  8  1  0
  8  9  1  0
  9 10  1  0
  9 13  2  0
 11 12  2  0
 11 20  1  0
 12 13  1  0
 12 15  1  0
 13 14  1  0
 14 21  2  0
 14 25  1  0
 15 16  1  0
 15 17  1  0
 17 18  1  0
 18 19  1  0
 21 22  1  0
 22 23  2  0
 23 24  1  0
 24 25  2  0
  5 26  1  0
  6 27  1  0
  7 28  1  0
 10 29  1  0
 15 30  1  1
 17 31  1  0
 17 32  1  0
 18 33  1  0
 18 34  1  0
 19 35  1  0
 19 36  1  0
 19 37  1  0
 20 38  1  0
 20 39  1  0
 20 40  1  0
 21 41  1  0
 22 42  1  0
 23 43  1  0
 24 44  1  0
 25 45  1  0
M  END
