
     RDKit          3D

 27 27  0  0  0  0  0  0  0  0999 V2000
   -3.7135    1.6503    0.0384 C   0  0  0  0  0  0  0  0  0  0  0  0
   -3.6164    0.2063   -0.0045 N   0  0  0  0  0  0  0  0  0  0  0  0
   -4.8517   -0.5444   -0.0908 C   0  0  0  0  0  0  0  0  0  0  0  0
   -2.4380   -0.3945   -0.0192 C   0  0  0  0  0  0  0  0  0  0  0  0
   -1.2104    0.2234   -0.0075 C   0  0  0  0  0  0  0  0  0  0  0  0
   -0.0199   -0.5622   -0.0025 C   0  0  0  0  0  0  0  0  0  0  0  0
   -0.0521   -1.8145    0.0290 O   0  0  0  0  0  0  0  0  0  0  0  0
    1.3078    0.1013   -0.0341 C   0  0  0  0  0  0  0  0  0  0  0  0
    1.4639    1.4911   -0.1064 C   0  0  0  0  0  0  0  0  0  0  0  0
    2.7095    2.0848   -0.1355 C   0  0  0  0  0  0  0  0  0  0  0  0
    3.8477    1.2817   -0.0914 C   0  0  0  0  0  0  0  0  0  0  0  0
    3.7340   -0.0917   -0.0209 C   0  0  0  0  0  0  0  0  0  0  0  0
    2.4737   -0.6975    0.0055 C   0  0  0  0  0  0  0  0  0  0  0  0
    2.4168   -2.0254    0.0691 O   0  0  0  0  0  0  0  0  0  0  0  0
   -3.3218    2.1025   -0.8752 H   0  0  0  0  0  0  0  0  0  0  0  0
   -4.7557    1.9381    0.1437 H   0  0  0  0  0  0  0  0  0  0  0  0
   -3.1597    2.0516    0.8880 H   0  0  0  0  0  0  0  0  0  0  0  0
   -5.4876   -0.3383    0.7705 H   0  0  0  0  0  0  0  0  0  0  0  0
   -5.3997   -0.2793   -0.9958 H   0  0  0  0  0  0  0  0  0  0  0  0
   -4.6386   -1.6100   -0.1160 H   0  0  0  0  0  0  0  0  0  0  0  0
   -2.4781   -1.4774   -0.0435 H   0  0  0  0  0  0  0  0  0  0  0  0
   -1.1481    1.2999   -0.0101 H   0  0  0  0  0  0  0  0  0  0  0  0
    0.5947    2.1322   -0.1437 H   0  0  0  0  0  0  0  0  0  0  0  0
    2.7979    3.1610   -0.1913 H   0  0  0  0  0  0  0  0  0  0  0  0
    4.8314    1.7334   -0.1134 H   0  0  0  0  0  0  0  0  0  0  0  0
    4.6159   -0.7193    0.0138 H   0  0  0  0  0  0  0  0  0  0  0  0
    1.4410   -2.2488    0.0665 H   0  0  0  0  0  0  0  0  0  0  0  0
  3  2  1  0
  1  2  1  0
  2  4  1  0
  4  5  2  0
  5  6  1  0
  6  7  2  0
  6  8  1  0
  9  8  2  0
  9 10  1  0
  8 13  1  0
 10 11  2  0
 13 14  1  0
 13 12  2  0
 11 12  1  0
  1 15  1  0
  1 16  1  0
  1 17  1  0
  3 18  1  0
  3 19  1  0
  3 20  1  0
  4 21  1  0
  5 22  1  0
  9 23  1  0
 10 24  1  0
 11 25  1  0
 12 26  1  0
 14 27  1  0
M  END
