
     RDKit          3D

 15 15  0  0  0  0  0  0  0  0999 V2000
   -1.1012   -0.9041   -0.3328 N   0  0  0  0  0  0  0  0  0  0  0  0
   -1.1583   -0.1413   -1.5528 C   0  0  0  0  0  0  0  0  0  0  0  0
    0.1569   -0.6806    0.3774 C   0  0  1  0  0  0  0  0  0  0  0  0
    1.2350   -0.0492   -0.5230 C   0  0  0  0  0  0  0  0  0  0  0  0
    0.5196    0.2319   -2.1230 S   0  0  0  0  0  0  0  0  0  0  0  0
   -0.0917    0.2149    1.5840 C   0  0  0  0  0  0  0  0  0  0  0  0
   -0.5437    1.3587    1.6378 O   0  0  0  0  0  0  0  0  0  0  0  0
    0.2525   -0.3809    2.7583 O   0  0  0  0  0  0  0  0  0  0  0  0
   -1.2336   -1.8841   -0.5004 H   0  0  0  0  0  0  0  0  0  0  0  0
   -1.6817    0.8295   -1.3466 H   0  0  0  0  0  0  0  0  0  0  0  0
   -1.7007   -0.6854   -2.3650 H   0  0  0  0  0  0  0  0  0  0  0  0
    0.5385   -1.6648    0.7862 H   0  0  0  0  0  0  0  0  0  0  0  0
    1.5970    0.9179   -0.0973 H   0  0  0  0  0  0  0  0  0  0  0  0
    2.1054   -0.7375   -0.6319 H   0  0  0  0  0  0  0  0  0  0  0  0
    0.0769    0.2260    3.4970 H   0  0  0  0  0  0  0  0  0  0  0  0
  1  2  1  0
  1  3  1  0
  1  9  1  0
  2  5  1  0
  2 10  1  0
  2 11  1  0
  3  4  1  0
  3  6  1  0
  3 12  1  1
  4  5  1  0
  4 13  1  0
  4 14  1  0
  6  7  2  0
  6  8  1  0
  8 15  1  0
M  END
