
     RDKit          3D

 85 90  0  0  0  0  0  0  0  0999 V2000
   -1.1730    1.3109    0.1333 C   0  0  0  0  0  0  0  0  0  0  0  0
   -0.8062    2.6603    0.1813 C   0  0  0  0  0  0  0  0  0  0  0  0
    0.5438    2.9081    0.1473 C   0  0  0  0  0  0  0  0  0  0  0  0
    1.4681    1.9516    0.1063 N   0  0  0  0  0  0  0  0  0  0  0  0
   -0.2784    0.3482    0.0937 N   0  0  0  0  0  0  0  0  0  0  0  0
    1.0118    0.7065    0.0964 C   0  0  0  0  0  0  0  0  0  0  0  0
   -6.1777   -7.4351   -0.5032 C   0  0  0  0  0  0  0  0  0  0  0  0
   -5.8754    6.1311   -1.4301 C   0  0  0  0  0  0  0  0  0  0  0  0
   -4.9003    5.7340   -2.3338 C   0  0  0  0  0  0  0  0  0  0  0  0
   -5.9386    5.5553   -0.1690 C   0  0  0  0  0  0  0  0  0  0  0  0
   -3.9870    4.7536   -1.9753 C   0  0  0  0  0  0  0  0  0  0  0  0
    4.1217    0.6965    0.0924 C   0  0  0  0  0  0  0  0  0  0  0  0
    5.4943    0.4943    0.0369 C   0  0  0  0  0  0  0  0  0  0  0  0
    3.8302   -1.6705   -0.1141 C   0  0  0  0  0  0  0  0  0  0  0  0
   -3.4466   -2.6587   -0.6717 C   0  0  0  0  0  0  0  0  0  0  0  0
   -4.2466   -2.0700    1.6411 C   0  0  0  0  0  0  0  0  0  0  0  0
   -3.1964   -1.1839   -0.9707 C   0  0  0  0  0  0  0  0  0  0  0  0
   -4.0201   -0.5890    1.3534 C   0  0  0  0  0  0  0  0  0  0  0  0
    9.4893   -1.9856    0.6798 C   0  0  0  0  0  0  0  0  0  0  0  0
    9.6412   -0.3479   -1.0391 C   0  0  0  0  0  0  0  0  0  0  0  0
    8.0814   -1.5217    0.9988 C   0  0  0  0  0  0  0  0  0  0  0  0
    8.2386    0.1335   -0.7156 C   0  0  0  0  0  0  0  0  0  0  0  0
   -1.8690    3.6901    0.3167 C   0  0  0  0  0  0  0  0  0  0  0  0
   -3.4616    1.8998   -0.3117 C   0  0  0  0  0  0  0  0  0  0  0  0
    5.1987   -1.8770   -0.1863 C   0  0  0  0  0  0  0  0  0  0  0  0
   -5.0188    4.5793    0.1784 C   0  0  0  0  0  0  0  0  0  0  0  0
    3.2647   -0.3986    0.0240 C   0  0  0  0  0  0  0  0  0  0  0  0
    6.0612   -0.7692   -0.1006 C   0  0  0  0  0  0  0  0  0  0  0  0
   -4.0373    4.1665   -0.7193 C   0  0  0  0  0  0  0  0  0  0  0  0
   -4.5596   -2.8393    0.3608 C   0  0  2  0  0  0  0  0  0  0  0  0
   -2.9045   -0.4296    0.3235 C   0  0  2  0  0  0  0  0  0  0  0  0
    1.8727   -0.3435    0.0740 N   0  0  0  0  0  0  0  0  0  0  0  0
   -4.7815   -4.2386    0.6627 N   0  0  0  0  0  0  0  0  0  0  0  0
   10.2779   -0.8968    0.1401 N   0  0  0  0  0  0  0  0  0  0  0  0
    7.4540   -0.9670   -0.1918 N   0  0  0  0  0  0  0  0  0  0  0  0
   -3.0671    3.2046   -0.3520 N   0  0  0  0  0  0  0  0  0  0  0  0
   -2.5146    0.9747    0.1166 N   0  0  0  0  0  0  0  0  0  0  0  0
   -4.5748    1.5629   -0.6625 O   0  0  0  0  0  0  0  0  0  0  0  0
    0.9092    3.9301    0.1656 H   0  0  0  0  0  0  0  0  0  0  0  0
   -7.1462   -7.1835   -0.9322 H   0  0  0  0  0  0  0  0  0  0  0  0
   -5.4507   -7.4728   -1.3149 H   0  0  0  0  0  0  0  0  0  0  0  0
   -6.2515   -8.4353   -0.0778 H   0  0  0  0  0  0  0  0  0  0  0  0
    6.6197   -3.2543   -1.0168 H   0  0  0  0  0  0  0  0  0  0  0  0
    6.0037   -3.7418    0.5518 H   0  0  0  0  0  0  0  0  0  0  0  0
    4.9778   -3.9024   -0.8618 H   0  0  0  0  0  0  0  0  0  0  0  0
   11.7186   -2.1011   -0.8759 H   0  0  0  0  0  0  0  0  0  0  0  0
   12.2185   -0.4484   -0.4838 H   0  0  0  0  0  0  0  0  0  0  0  0
   12.1087   -1.6584    0.7936 H   0  0  0  0  0  0  0  0  0  0  0  0
   -6.5934    6.8937   -1.7005 H   0  0  0  0  0  0  0  0  0  0  0  0
   -4.8515    6.1828   -3.3165 H   0  0  0  0  0  0  0  0  0  0  0  0
   -6.6950    5.8660    0.5385 H   0  0  0  0  0  0  0  0  0  0  0  0
   -3.2223    4.4321   -2.6705 H   0  0  0  0  0  0  0  0  0  0  0  0
    3.7337    1.6965    0.1927 H   0  0  0  0  0  0  0  0  0  0  0  0
    6.1332    1.3656    0.1054 H   0  0  0  0  0  0  0  0  0  0  0  0
    3.1733   -2.5311   -0.1924 H   0  0  0  0  0  0  0  0  0  0  0  0
   -6.4951   -6.4520    1.3851 H   0  0  0  0  0  0  0  0  0  0  0  0
   -4.8124   -6.7296    1.0123 H   0  0  0  0  0  0  0  0  0  0  0  0
   -3.7133   -3.1835   -1.5918 H   0  0  0  0  0  0  0  0  0  0  0  0
   -2.5296   -3.1259   -0.2950 H   0  0  0  0  0  0  0  0  0  0  0  0
   -3.3548   -2.4965    2.1160 H   0  0  0  0  0  0  0  0  0  0  0  0
   -5.0689   -2.1866    2.3503 H   0  0  0  0  0  0  0  0  0  0  0  0
   -2.3479   -1.0816   -1.6510 H   0  0  0  0  0  0  0  0  0  0  0  0
   -4.0667   -0.7587   -1.4727 H   0  0  0  0  0  0  0  0  0  0  0  0
   -4.9508   -0.1448    1.0018 H   0  0  0  0  0  0  0  0  0  0  0  0
   -3.7415   -0.0731    2.2752 H   0  0  0  0  0  0  0  0  0  0  0  0
    9.9614   -2.3484    1.5963 H   0  0  0  0  0  0  0  0  0  0  0  0
    9.4369   -2.8390   -0.0197 H   0  0  0  0  0  0  0  0  0  0  0  0
    9.5900   -1.0866   -1.8585 H   0  0  0  0  0  0  0  0  0  0  0  0
   10.2306    0.4976   -1.4026 H   0  0  0  0  0  0  0  0  0  0  0  0
    7.5035   -2.3691    1.3660 H   0  0  0  0  0  0  0  0  0  0  0  0
    8.1155   -0.7766    1.8095 H   0  0  0  0  0  0  0  0  0  0  0  0
    8.3093    0.9743   -0.0077 H   0  0  0  0  0  0  0  0  0  0  0  0
    7.7697    0.5089   -1.6268 H   0  0  0  0  0  0  0  0  0  0  0  0
   -2.0793    3.9089    1.3704 H   0  0  0  0  0  0  0  0  0  0  0  0
   -1.5630    4.6241   -0.1544 H   0  0  0  0  0  0  0  0  0  0  0  0
   -5.4900   -2.4466   -0.0578 H   0  0  0  0  0  0  0  0  0  0  0  0
   -2.0166   -0.8886    0.7596 H   0  0  0  0  0  0  0  0  0  0  0  0
    1.4056   -1.2372    0.0456 H   0  0  0  0  0  0  0  0  0  0  0  0
   -4.1593   -4.6707    1.3280 H   0  0  0  0  0  0  0  0  0  0  0  0
   -5.0868    3.8620    1.7496 Cl  0  0  0  0  0  0  0  0  0  0  0  0
   -5.6976   -5.0126    0.0564 C   0  0  0  0  0  0  0  0  0  0  0  0
    5.7267   -3.2662   -0.3917 C   0  0  0  0  0  0  0  0  0  0  0  0
   11.6390   -1.3001   -0.1239 C   0  0  0  0  0  0  0  0  0  0  0  0
   -5.7666   -6.4378    0.5681 C   0  0  0  0  0  0  0  0  0  0  0  0
   -6.4498   -4.5995   -0.8168 O   0  0  0  0  0  0  0  0  0  0  0  0
  8 10  2  0
  8  9  1  0
 10 26  1  0
  9 11  2  0
 26 80  1  0
 26 29  2  0
 11 29  1  0
 29 36  1  0
 36 23  1  0
 36 24  1  0
 38 24  2  0
 23  2  1  0
 24 37  1  0
  7 84  1  0
 84 81  1  0
  2  3  2  0
  2  1  1  0
 37  1  1  0
 37 31  1  0
 18 31  1  0
 18 16  1  0
  3  4  1  0
  1  5  2  0
 31 17  1  0
 81 85  2  0
 81 33  1  0
 17 15  1  0
 30 16  1  0
 30 33  1  0
 30 15  1  0
  4  6  2  0
  5  6  1  0
  6 32  1  0
 32 27  1  0
 12 27  2  0
 12 13  1  0
 27 14  1  0
 13 28  2  0
 14 25  2  0
 28 25  1  0
 28 35  1  0
 25 82  1  0
 21 35  1  0
 21 19  1  0
 35 22  1  0
 19 34  1  0
 22 20  1  0
 20 34  1  0
 34 83  1  0
  3 39  1  0
  7 40  1  0
  7 41  1  0
  7 42  1  0
 82 43  1  0
 82 44  1  0
 82 45  1  0
 83 46  1  0
 83 47  1  0
 83 48  1  0
  8 49  1  0
  9 50  1  0
 10 51  1  0
 11 52  1  0
 12 53  1  0
 13 54  1  0
 14 55  1  0
 84 56  1  0
 84 57  1  0
 15 58  1  0
 15 59  1  0
 16 60  1  0
 16 61  1  0
 17 62  1  0
 17 63  1  0
 18 64  1  0
 18 65  1  0
 19 66  1  0
 19 67  1  0
 20 68  1  0
 20 69  1  0
 21 70  1  0
 21 71  1  0
 22 72  1  0
 22 73  1  0
 23 74  1  0
 23 75  1  0
 30 76  1  6
 31 77  1  1
 32 78  1  0
 33 79  1  0
M  END
