
     RDKit          3D

 34 36  0  0  0  0  0  0  0  0999 V2000
    0.9621   -1.3190    0.0164 C   0  0  0  0  0  0  0  0  0  0  0  0
   -0.3879   -0.9257   -0.0543 C   0  0  0  0  0  0  0  0  0  0  0  0
   -1.3654   -1.7293   -0.6923 C   0  0  0  0  0  0  0  0  0  0  0  0
   -2.6714   -1.3383   -0.7496 C   0  0  0  0  0  0  0  0  0  0  0  0
   -3.0476   -0.1112   -0.1622 C   0  0  0  0  0  0  0  0  0  0  0  0
   -4.7306    0.3829   -0.2296 S   0  0  1  0  0  0  0  0  0  0  0  0
   -5.2440   -0.3909    1.0769 O   0  0  0  0  0  0  0  0  0  0  0  0
   -4.8448    1.8115   -0.0112 O   0  0  0  0  0  0  0  0  0  0  0  0
   -5.3693   -0.1927   -1.3974 O   0  0  0  0  0  0  0  0  0  0  0  0
   -2.1381    0.6985    0.4637 C   0  0  0  0  0  0  0  0  0  0  0  0
   -0.7876    0.3046    0.5302 C   0  0  0  0  0  0  0  0  0  0  0  0
    0.1874    1.1020    1.1734 C   0  0  0  0  0  0  0  0  0  0  0  0
    1.4911    0.7039    1.2244 C   0  0  0  0  0  0  0  0  0  0  0  0
    1.9027   -0.5203    0.6291 C   0  0  0  0  0  0  0  0  0  0  0  0
    3.2131   -0.9590    0.7413 N   0  0  0  0  0  0  0  0  0  0  0  0
    4.2001   -0.3128    0.2347 C   0  0  0  0  0  0  0  0  0  0  0  0
    5.5463   -0.8152    0.4946 C   0  0  0  0  0  0  0  0  0  0  0  0
    6.6334   -0.1964    0.0287 C   0  0  0  0  0  0  0  0  0  0  0  0
    6.5670    1.0356   -0.7971 C   0  0  0  0  0  0  0  0  0  0  0  0
    5.1838    1.4893   -1.0850 C   0  0  0  0  0  0  0  0  0  0  0  0
    4.0951    0.8751   -0.6124 C   0  0  0  0  0  0  0  0  0  0  0  0
    1.2645   -2.2627   -0.4209 H   0  0  0  0  0  0  0  0  0  0  0  0
   -1.0649   -2.6677   -1.1407 H   0  0  0  0  0  0  0  0  0  0  0  0
   -3.4037   -1.9608   -1.2450 H   0  0  0  0  0  0  0  0  0  0  0  0
   -2.4343    1.6405    0.9079 H   0  0  0  0  0  0  0  0  0  0  0  0
   -6.2041   -0.2849    1.1994 H   0  0  0  0  0  0  0  0  0  0  0  0
   -0.1124    2.0376    1.6291 H   0  0  0  0  0  0  0  0  0  0  0  0
    2.2248    1.3155    1.7344 H   0  0  0  0  0  0  0  0  0  0  0  0
    5.6269   -1.7126    1.0956 H   0  0  0  0  0  0  0  0  0  0  0  0
    3.1124    1.2479   -0.8699 H   0  0  0  0  0  0  0  0  0  0  0  0
    7.6170   -0.5919    0.2511 H   0  0  0  0  0  0  0  0  0  0  0  0
    7.1249    1.8430   -0.3058 H   0  0  0  0  0  0  0  0  0  0  0  0
    7.1066    0.8826   -1.7398 H   0  0  0  0  0  0  0  0  0  0  0  0
    5.0729    2.3624   -1.7169 H   0  0  0  0  0  0  0  0  0  0  0  0
  1  2  2  0
  1 14  1  0
  2  3  1  0
  2 11  1  0
  3  4  2  0
  4  5  1  0
  5  6  1  0
  5 10  2  0
  6  7  1  1
  6  8  2  0
  6  9  2  0
 10 11  1  0
 11 12  2  0
 12 13  1  0
 13 14  2  0
 14 15  1  0
 15 16  2  0
 16 17  1  0
 16 21  1  0
 17 18  2  0
 18 19  1  0
 19 20  1  0
 20 21  2  0
  1 22  1  0
  3 23  1  0
  4 24  1  0
 10 25  1  0
  7 26  1  0
 12 27  1  0
 13 28  1  0
 17 29  1  0
 21 30  1  0
 18 31  1  0
 19 32  1  0
 19 33  1  0
 20 34  1  0
M  END
