
     RDKit          3D

 25 26  0  0  0  0  0  0  0  0999 V2000
    3.3782   -1.2495    0.7094 O   0  0  0  0  0  0  0  0  0  0  0  0
    3.4769   -0.1666    0.1574 C   0  0  0  0  0  0  0  0  0  0  0  0
    4.8108    0.5098   -0.0365 C   0  0  0  0  0  0  0  0  0  0  0  0
    2.4185    0.5289   -0.3266 N   0  0  0  0  0  0  0  0  0  0  0  0
    1.0558    0.1920   -0.2198 C   0  0  0  0  0  0  0  0  0  0  0  0
    0.1502    1.2294   -0.0517 C   0  0  0  0  0  0  0  0  0  0  0  0
   -1.2063    0.9205    0.0084 C   0  0  0  0  0  0  0  0  0  0  0  0
   -2.2936    1.7458    0.1647 N   0  0  0  0  0  0  0  0  0  0  0  0
   -3.3183    0.9390    0.1627 C   0  0  0  0  0  0  0  0  0  0  0  0
   -2.9932   -0.3677    0.0159 N   0  0  0  0  0  0  0  0  0  0  0  0
   -3.8992   -1.4895   -0.0233 C   0  0  0  0  0  0  0  0  0  0  0  0
   -1.6273   -0.4144   -0.0856 C   0  0  0  0  0  0  0  0  0  0  0  0
   -0.7291   -1.4599   -0.2557 C   0  0  0  0  0  0  0  0  0  0  0  0
    0.6145   -1.1412   -0.3278 C   0  0  0  0  0  0  0  0  0  0  0  0
    5.4828   -0.1624   -0.5693 H   0  0  0  0  0  0  0  0  0  0  0  0
    4.7538    1.4481   -0.5850 H   0  0  0  0  0  0  0  0  0  0  0  0
    5.2562    0.7081    0.9387 H   0  0  0  0  0  0  0  0  0  0  0  0
    2.6104    1.4510   -0.6850 H   0  0  0  0  0  0  0  0  0  0  0  0
    0.4882    2.2557    0.0308 H   0  0  0  0  0  0  0  0  0  0  0  0
    1.3290   -1.9343   -0.4822 H   0  0  0  0  0  0  0  0  0  0  0  0
   -4.3497    1.2454    0.2662 H   0  0  0  0  0  0  0  0  0  0  0  0
   -3.7855   -2.0422   -0.9545 H   0  0  0  0  0  0  0  0  0  0  0  0
   -3.7180   -2.1626    0.8133 H   0  0  0  0  0  0  0  0  0  0  0  0
   -4.9201   -1.1232    0.0398 H   0  0  0  0  0  0  0  0  0  0  0  0
   -1.0525   -2.4892   -0.3425 H   0  0  0  0  0  0  0  0  0  0  0  0
  1  2  2  0
  2  3  1  0
  2  4  1  0
  4  5  1  0
  5  6  2  0
  5 14  1  0
  6  7  1  0
  7  8  1  0
  7 12  2  0
  8  9  2  0
  9 10  1  0
 10 11  1  0
 10 12  1  0
 12 13  1  0
 13 14  2  0
  3 15  1  0
  3 16  1  0
  3 17  1  0
  4 18  1  0
  6 19  1  0
 14 20  1  0
  9 21  1  0
 11 22  1  0
 11 23  1  0
 11 24  1  0
 13 25  1  0
M  END
