
     RDKit          3D

 27 29  0  0  0  0  0  0  0  0999 V2000
    1.6345    0.0014    2.4682 C   0  0  0  0  0  0  0  0  0  0  0  0
    0.9151    0.0075    3.6181 C   0  0  0  0  0  0  0  0  0  0  0  0
   -0.5172    0.0306    3.5826 C   0  0  0  0  0  0  0  0  0  0  0  0
   -1.1619    0.0410    2.3642 C   0  0  0  0  0  0  0  0  0  0  0  0
   -1.1514    0.0623   -2.3774 C   0  0  0  0  0  0  0  0  0  0  0  0
   -0.5015    0.0627   -3.5930 C   0  0  0  0  0  0  0  0  0  0  0  0
    0.9310    0.0408   -3.6221 C   0  0  0  0  0  0  0  0  0  0  0  0
    1.6455    0.0247   -2.4692 C   0  0  0  0  0  0  0  0  0  0  0  0
    1.6897    0.0158   -0.0003 C   0  0  0  0  0  0  0  0  0  0  0  0
   -1.1114    0.0544   -0.0065 N   0  0  0  0  0  0  0  0  0  0  0  0
   -0.4386    0.0401    1.1480 C   0  0  0  0  0  0  0  0  0  0  0  0
    0.9987    0.0308   -1.2034 C   0  0  0  0  0  0  0  0  0  0  0  0
    0.9933    0.0196    1.1997 C   0  0  0  0  0  0  0  0  0  0  0  0
   -0.4334    0.0506   -1.1580 C   0  0  0  0  0  0  0  0  0  0  0  0
   -1.1957    0.0897    4.7658 N   0  0  0  0  0  0  0  0  0  0  0  0
   -1.1744    0.1313   -4.7788 N   0  0  0  0  0  0  0  0  0  0  0  0
    2.7172   -0.0164    2.5068 H   0  0  0  0  0  0  0  0  0  0  0  0
    1.4184   -0.0026    4.5773 H   0  0  0  0  0  0  0  0  0  0  0  0
   -2.2447    0.0522    2.3172 H   0  0  0  0  0  0  0  0  0  0  0  0
   -2.2344    0.0728   -2.3348 H   0  0  0  0  0  0  0  0  0  0  0  0
    1.4389    0.0397   -4.5790 H   0  0  0  0  0  0  0  0  0  0  0  0
    2.7283    0.0079   -2.5035 H   0  0  0  0  0  0  0  0  0  0  0  0
    2.7747    0.0010    0.0019 H   0  0  0  0  0  0  0  0  0  0  0  0
   -0.7239   -0.2419    5.5902 H   0  0  0  0  0  0  0  0  0  0  0  0
   -2.1781   -0.1283    4.7491 H   0  0  0  0  0  0  0  0  0  0  0  0
   -0.6981   -0.1930   -5.6037 H   0  0  0  0  0  0  0  0  0  0  0  0
   -2.1565   -0.0886   -4.7684 H   0  0  0  0  0  0  0  0  0  0  0  0
  1  2  2  0
  1 13  1  0
  1 17  1  0
  2  3  1  0
  2 18  1  0
  3  4  2  0
  3 15  1  0
  4 11  1  0
  4 19  1  0
  5  6  1  0
  5 14  2  0
  5 20  1  0
  6  7  2  0
  6 16  1  0
  7  8  1  0
  7 21  1  0
  8 12  2  0
  8 22  1  0
  9 12  1  0
  9 13  2  0
  9 23  1  0
 10 11  2  0
 10 14  1  0
 11 13  1  0
 12 14  1  0
 15 24  1  0
 15 25  1  0
 16 26  1  0
 16 27  1  0
M  END
