
     RDKit          3D

 52 54  0  0  0  0  0  0  0  0999 V2000
    2.7714    0.7272   -1.9885 C   0  0  0  0  0  0  0  0  0  0  0  0
    3.6813    1.7416   -1.6646 C   0  0  0  0  0  0  0  0  0  0  0  0
   -5.2002    1.7281   -0.3887 C   0  0  0  0  0  0  0  0  0  0  0  0
   -4.1107    0.4120    1.2711 C   0  0  0  0  0  0  0  0  0  0  0  0
   -6.2041    1.9637    0.5368 C   0  0  0  0  0  0  0  0  0  0  0  0
   -5.1750    0.6960    2.1151 C   0  0  0  0  0  0  0  0  0  0  0  0
   -4.1165    0.9445   -0.0122 C   0  0  0  0  0  0  0  0  0  0  0  0
    2.9539   -0.2694    0.2074 C   0  0  0  0  0  0  0  0  0  0  0  0
    2.4036   -0.2720   -1.1011 C   0  0  0  0  0  0  0  0  0  0  0  0
    4.1959    1.7239   -0.3980 C   0  0  0  0  0  0  0  0  0  0  0  0
    3.8315    0.7501    0.5210 C   0  0  0  0  0  0  0  0  0  0  0  0
   -3.0420    0.6540   -1.0170 C   0  0  0  0  0  0  0  0  0  0  0  0
    2.6657   -1.3376    1.1984 C   0  0  0  0  0  0  0  0  0  0  0  0
    5.2350    2.1648    1.5174 C   0  0  0  0  0  0  0  0  0  0  0  0
   -2.6593   -4.0429   -0.7399 C   0  0  0  0  0  0  0  0  0  0  0  0
   -1.7323   -2.7610    1.1997 C   0  0  0  0  0  0  0  0  0  0  0  0
    1.3876   -1.2946   -1.5360 C   0  0  0  0  0  0  0  0  0  0  0  0
   -0.8003   -2.4358   -1.1379 C   0  0  0  0  0  0  0  0  0  0  0  0
   -0.6480    0.1254   -1.2864 C   0  0  0  0  0  0  0  0  0  0  0  0
   -2.0462   -2.7188   -0.2919 C   0  0  1  0  0  0  0  0  0  0  0  0
    0.0189   -1.1765   -0.8381 C   0  0  2  0  0  0  0  0  0  0  0  0
   -6.2014    1.4599    1.7663 N   0  0  0  0  0  0  0  0  0  0  0  0
   -1.8153    0.4781   -0.5086 N   0  0  0  0  0  0  0  0  0  0  0  0
    2.5649   -0.8611    2.4313 O   0  0  0  0  0  0  0  0  0  0  0  0
   -3.3160    0.5791   -2.2060 O   0  0  0  0  0  0  0  0  0  0  0  0
    2.5453   -2.5076    0.9311 O   0  0  0  0  0  0  0  0  0  0  0  0
    5.1061    2.5561    0.1594 O   0  0  0  0  0  0  0  0  0  0  0  0
    4.5112    0.9481    1.6679 O   0  0  0  0  0  0  0  0  0  0  0  0
    2.3357    0.7273   -2.9792 H   0  0  0  0  0  0  0  0  0  0  0  0
    3.9611    2.4956   -2.3875 H   0  0  0  0  0  0  0  0  0  0  0  0
   -7.0510    2.5854    0.2695 H   0  0  0  0  0  0  0  0  0  0  0  0
   -3.3154   -0.2318    1.6238 H   0  0  0  0  0  0  0  0  0  0  0  0
   -5.1937    0.2813    3.1165 H   0  0  0  0  0  0  0  0  0  0  0  0
    1.2357   -1.1945   -2.6145 H   0  0  0  0  0  0  0  0  0  0  0  0
    1.7749   -2.2997   -1.3765 H   0  0  0  0  0  0  0  0  0  0  0  0
   -1.6653    0.6861    0.4660 H   0  0  0  0  0  0  0  0  0  0  0  0
    2.4261   -1.5897    3.0558 H   0  0  0  0  0  0  0  0  0  0  0  0
    6.2852    1.9983    1.7597 H   0  0  0  0  0  0  0  0  0  0  0  0
    4.8064    2.9300    2.1711 H   0  0  0  0  0  0  0  0  0  0  0  0
   -3.5636   -4.2757   -0.1750 H   0  0  0  0  0  0  0  0  0  0  0  0
   -2.9259   -4.0202   -1.7982 H   0  0  0  0  0  0  0  0  0  0  0  0
   -1.9568   -4.8674   -0.5931 H   0  0  0  0  0  0  0  0  0  0  0  0
   -2.7941   -1.9406   -0.4627 H   0  0  0  0  0  0  0  0  0  0  0  0
   -0.9407   -3.4849    1.4109 H   0  0  0  0  0  0  0  0  0  0  0  0
   -1.4019   -1.7961    1.5873 H   0  0  0  0  0  0  0  0  0  0  0  0
   -2.6123   -3.0556    1.7743 H   0  0  0  0  0  0  0  0  0  0  0  0
    0.1858   -1.1138    0.2423 H   0  0  0  0  0  0  0  0  0  0  0  0
   -0.1334   -3.2974   -1.0141 H   0  0  0  0  0  0  0  0  0  0  0  0
   -1.0818   -2.4279   -2.1974 H   0  0  0  0  0  0  0  0  0  0  0  0
    0.0701    0.9465   -1.2159 H   0  0  0  0  0  0  0  0  0  0  0  0
   -0.9422    0.0505   -2.3331 H   0  0  0  0  0  0  0  0  0  0  0  0
   -5.2637    2.1578   -1.3789 H   0  0  0  0  0  0  0  0  0  0  0  0
  1  2  2  0
  1  9  1  0
  2 10  1  0
  3  5  2  0
  3  7  1  0
  4  6  1  0
  4  7  2  0
  5 22  1  0
  6 22  2  0
  7 12  1  0
  8  9  2  0
  8 11  1  0
  8 13  1  0
  9 17  1  0
 10 11  2  0
 10 27  1  0
 11 28  1  0
 12 23  1  0
 12 25  2  0
 13 24  1  0
 13 26  2  0
 14 27  1  0
 14 28  1  0
 15 20  1  0
 16 20  1  0
 17 21  1  0
 18 20  1  0
 18 21  1  0
 19 21  1  0
 19 23  1  0
  1 29  1  0
  2 30  1  0
  3 52  1  0
  5 31  1  0
  4 32  1  0
  6 33  1  0
 17 34  1  0
 17 35  1  0
 23 36  1  0
 24 37  1  0
 14 38  1  0
 14 39  1  0
 15 40  1  0
 15 41  1  0
 15 42  1  0
 20 43  1  1
 16 44  1  0
 16 45  1  0
 16 46  1  0
 21 47  1  1
 18 48  1  0
 18 49  1  0
 19 50  1  0
 19 51  1  0
M  END
