
     RDKit          3D

 21 21  0  0  0  0  0  0  0  0999 V2000
    1.5720   -1.5391    0.5150 O   0  0  0  0  0  0  0  0  0  0  0  0
    1.9326   -0.3990    0.3703 C   0  0  0  0  0  0  0  0  0  0  0  0
    3.1939   -0.0125    0.5263 O   0  0  0  0  0  0  0  0  0  0  0  0
    1.0372    0.7656   -0.0040 C   0  0  1  0  0  0  0  0  0  0  0  0
    1.4813    1.3873   -1.3360 C   0  0  0  0  0  0  0  0  0  0  0  0
   -0.4132    0.3577   -0.0095 C   0  0  0  0  0  0  0  0  0  0  0  0
   -1.2702    0.8217    0.9829 C   0  0  0  0  0  0  0  0  0  0  0  0
   -2.6148    0.4699    0.9886 C   0  0  0  0  0  0  0  0  0  0  0  0
   -3.1201   -0.3550   -0.0055 C   0  0  0  0  0  0  0  0  0  0  0  0
   -2.2726   -0.8236   -1.0027 C   0  0  0  0  0  0  0  0  0  0  0  0
   -0.9311   -0.4712   -1.0032 C   0  0  0  0  0  0  0  0  0  0  0  0
    3.7476   -0.7736    0.7563 H   0  0  0  0  0  0  0  0  0  0  0  0
    1.1761    1.5245    0.7738 H   0  0  0  0  0  0  0  0  0  0  0  0
    0.8139    2.2076   -1.5968 H   0  0  0  0  0  0  0  0  0  0  0  0
    2.4911    1.7881   -1.2700 H   0  0  0  0  0  0  0  0  0  0  0  0
    1.4595    0.6639   -2.1508 H   0  0  0  0  0  0  0  0  0  0  0  0
   -0.8825    1.4661    1.7637 H   0  0  0  0  0  0  0  0  0  0  0  0
   -3.2648    0.8434    1.7694 H   0  0  0  0  0  0  0  0  0  0  0  0
   -4.1665   -0.6317   -0.0062 H   0  0  0  0  0  0  0  0  0  0  0  0
   -2.6591   -1.4673   -1.7826 H   0  0  0  0  0  0  0  0  0  0  0  0
   -0.2888   -0.8503   -1.7888 H   0  0  0  0  0  0  0  0  0  0  0  0
  9  8  2  0
  9 10  1  0
  8  7  1  0
 10 11  2  0
  7  6  2  0
 11  6  1  0
  6  4  1  0
  5  4  1  0
  4  2  1  0
  2  1  2  0
  2  3  1  0
  3 12  1  0
  4 13  1  1
  5 14  1  0
  5 15  1  0
  5 16  1  0
  7 17  1  0
  8 18  1  0
  9 19  1  0
 10 20  1  0
 11 21  1  0
M  END
