
     RDKit          3D

 33 36  0  0  0  0  0  0  0  0999 V2000
   -3.9301   -1.2179   -0.0082 Br  0  0  0  0  0  0  0  0  0  0  0  0
   -2.5833    0.1075   -0.1574 C   0  0  0  0  0  0  0  0  0  0  0  0
   -1.2594   -0.2745   -0.0795 C   0  0  0  0  0  0  0  0  0  0  0  0
   -0.2878    0.7231   -0.1969 C   0  0  0  0  0  0  0  0  0  0  0  0
   -0.6878    2.0621   -0.3899 C   0  0  0  0  0  0  0  0  0  0  0  0
   -2.0252    2.4324   -0.4653 C   0  0  0  0  0  0  0  0  0  0  0  0
   -2.9786    1.4387   -0.3478 C   0  0  0  0  0  0  0  0  0  0  0  0
    1.1429    0.7306   -0.1420 C   0  0  0  0  0  0  0  0  0  0  0  0
    1.5450    2.0372   -0.3299 C   0  0  0  0  0  0  0  0  0  0  0  0
    0.4476    2.8220   -0.4732 N   0  0  0  0  0  0  0  0  0  0  0  0
    2.0667   -0.3751    0.0208 C   0  0  0  0  0  0  0  0  0  0  0  0
    1.7279   -1.5525   -0.4964 N   0  0  0  0  0  0  0  0  0  0  0  0
    2.6056   -2.5491   -0.3817 C   0  0  0  0  0  0  0  0  0  0  0  0
    2.2705   -3.7358   -0.9413 N   0  0  0  0  0  0  0  0  0  0  0  0
    3.8034   -2.4650    0.2031 N   0  0  0  0  0  0  0  0  0  0  0  0
    4.1001   -1.2956    0.7510 C   0  0  0  0  0  0  0  0  0  0  0  0
    3.2737   -0.1856    0.7159 C   0  0  0  0  0  0  0  0  0  0  0  0
    3.5606    1.0598    1.5043 C   0  0  0  0  0  0  0  0  0  0  0  0
    3.8508    2.3323    0.7073 C   0  0  0  0  0  0  0  0  0  0  0  0
    2.9383    2.5318   -0.5104 C   0  0  0  0  0  0  0  0  0  0  0  0
   -0.9704   -1.3075    0.0580 H   0  0  0  0  0  0  0  0  0  0  0  0
   -2.3207    3.4628   -0.6135 H   0  0  0  0  0  0  0  0  0  0  0  0
   -4.0270    1.6970   -0.4076 H   0  0  0  0  0  0  0  0  0  0  0  0
    0.4716    3.8152   -0.6411 H   0  0  0  0  0  0  0  0  0  0  0  0
    1.3052   -3.8884   -1.1769 H   0  0  0  0  0  0  0  0  0  0  0  0
    2.7936   -4.5491   -0.6659 H   0  0  0  0  0  0  0  0  0  0  0  0
    5.0536   -1.2401    1.2698 H   0  0  0  0  0  0  0  0  0  0  0  0
    2.6996    1.2478    2.1538 H   0  0  0  0  0  0  0  0  0  0  0  0
    4.4017    0.8717    2.1754 H   0  0  0  0  0  0  0  0  0  0  0  0
    3.7578    3.1835    1.3843 H   0  0  0  0  0  0  0  0  0  0  0  0
    4.8828    2.3260    0.3519 H   0  0  0  0  0  0  0  0  0  0  0  0
    3.3627    1.9859   -1.3575 H   0  0  0  0  0  0  0  0  0  0  0  0
    2.9304    3.5838   -0.7983 H   0  0  0  0  0  0  0  0  0  0  0  0
 14 13  1  0
 15 13  2  0
 15 16  1  0
 13 12  1  0
 16 17  2  0
  1  2  1  0
 12 11  2  0
 17 11  1  0
 17 18  1  0
 11  8  1  0
  3  2  2  0
  3  4  1  0
  2  7  1  0
 18 19  1  0
  4  8  1  0
  4  5  2  0
  8  9  2  0
  7  6  2  0
 19 20  1  0
  5  6  1  0
  5 10  1  0
  9 20  1  0
  9 10  1  0
  3 21  1  0
  6 22  1  0
  7 23  1  0
 10 24  1  0
 14 25  1  0
 14 26  1  0
 16 27  1  0
 18 28  1  0
 18 29  1  0
 19 30  1  0
 19 31  1  0
 20 32  1  0
 20 33  1  0
M  END
