
     RDKit          3D

 67 70  0  0  0  0  0  0  0  0999 V2000
    2.9185   -3.3003    1.5443 C   0  0  0  0  0  0  0  0  0  0  0  0
    2.3884   -2.5782    0.3303 C   0  0  0  0  0  0  0  0  0  0  0  0
    1.9085   -1.3441    0.5625 N   0  0  0  0  0  0  0  0  0  0  0  0
    1.4029   -0.4369   -0.4483 C   0  0  2  0  0  0  0  0  0  0  0  0
    0.1421   -0.9455   -1.1723 C   0  0  1  0  0  0  0  0  0  0  0  0
   -0.8845   -1.4935   -0.1747 C   0  0  0  0  0  0  0  0  0  0  0  0
   -2.1429   -1.7984   -0.8303 N   0  0  0  0  0  0  0  0  0  0  0  0
   -3.3422   -1.7652    0.0012 C   0  0  1  0  0  0  0  0  0  0  0  0
   -4.5561   -1.9551   -0.9250 C   0  0  0  0  0  0  0  0  0  0  0  0
   -4.5422   -3.3016   -1.6423 C   0  0  0  0  0  0  0  0  0  0  0  0
   -4.4477   -4.4519   -0.6467 C   0  0  0  0  0  0  0  0  0  0  0  0
   -3.2450   -4.2859    0.2768 C   0  0  0  0  0  0  0  0  0  0  0  0
   -3.2893   -2.9398    0.9913 C   0  0  0  0  0  0  0  0  0  0  0  0
   -3.4906   -0.4219    0.7306 C   0  0  0  0  0  0  0  0  0  0  0  0
   -3.0018    0.7172    0.1025 C   0  0  0  0  0  0  0  0  0  0  0  0
   -2.9436    1.9359    0.7526 C   0  0  0  0  0  0  0  0  0  0  0  0
   -3.4932    2.0854    2.0193 C   0  0  0  0  0  0  0  0  0  0  0  0
   -4.0751    0.9771    2.6150 C   0  0  0  0  0  0  0  0  0  0  0  0
   -4.0521   -0.2683    1.9960 C   0  0  0  0  0  0  0  0  0  0  0  0
   -2.2534    2.9926    0.1228 N   0  0  0  0  0  0  0  0  0  0  0  0
   -1.2142    2.7240   -0.6773 N   0  0  0  0  0  0  0  0  0  0  0  0
   -0.7639    3.8967   -1.0762 C   0  0  0  0  0  0  0  0  0  0  0  0
   -1.5173    4.9472   -0.5265 C   0  0  0  0  0  0  0  0  0  0  0  0
   -2.4670    4.3204    0.2408 C   0  0  0  0  0  0  0  0  0  0  0  0
    2.3872   -3.0990   -0.7776 O   0  0  0  0  0  0  0  0  0  0  0  0
    2.4970   -0.0027   -1.4382 C   0  0  0  0  0  0  0  0  0  0  0  0
    3.6343    0.6752   -0.7334 C   0  0  0  0  0  0  0  0  0  0  0  0
    4.7864   -0.0314   -0.4032 C   0  0  0  0  0  0  0  0  0  0  0  0
    5.7954    0.6146    0.2851 C   0  0  0  0  0  0  0  0  0  0  0  0
    5.7141    1.9387    0.6680 C   0  0  0  0  0  0  0  0  0  0  0  0
    4.5562    2.6111    0.3244 C   0  0  0  0  0  0  0  0  0  0  0  0
    3.5202    2.0138   -0.3636 C   0  0  0  0  0  0  0  0  0  0  0  0
    6.9050   -0.0692    0.5963 F   0  0  0  0  0  0  0  0  0  0  0  0
    4.4437    3.8997    0.6748 F   0  0  0  0  0  0  0  0  0  0  0  0
   -0.3824    0.0989   -1.9686 O   0  0  0  0  0  0  0  0  0  0  0  0
    2.9621   -2.6809    2.4382 H   0  0  0  0  0  0  0  0  0  0  0  0
    2.2855   -4.1628    1.7559 H   0  0  0  0  0  0  0  0  0  0  0  0
    3.9185   -3.6771    1.3328 H   0  0  0  0  0  0  0  0  0  0  0  0
    1.9683   -0.9865    1.5007 H   0  0  0  0  0  0  0  0  0  0  0  0
    1.0889    0.4499    0.1136 H   0  0  0  0  0  0  0  0  0  0  0  0
    0.4069   -1.7381   -1.8758 H   0  0  0  0  0  0  0  0  0  0  0  0
   -0.4806   -2.4013    0.2799 H   0  0  0  0  0  0  0  0  0  0  0  0
   -0.9909   -0.7651    0.6435 H   0  0  0  0  0  0  0  0  0  0  0  0
   -2.2664   -1.2040   -1.6393 H   0  0  0  0  0  0  0  0  0  0  0  0
   -5.4659   -1.8741   -0.3215 H   0  0  0  0  0  0  0  0  0  0  0  0
   -4.5938   -1.1343   -1.6496 H   0  0  0  0  0  0  0  0  0  0  0  0
   -5.4467   -3.3964   -2.2487 H   0  0  0  0  0  0  0  0  0  0  0  0
   -3.6959   -3.3443   -2.3315 H   0  0  0  0  0  0  0  0  0  0  0  0
   -5.3624   -4.4800   -0.0433 H   0  0  0  0  0  0  0  0  0  0  0  0
   -4.3947   -5.4074   -1.1748 H   0  0  0  0  0  0  0  0  0  0  0  0
   -3.2258   -5.0885    1.0182 H   0  0  0  0  0  0  0  0  0  0  0  0
   -2.3225   -4.3664   -0.3025 H   0  0  0  0  0  0  0  0  0  0  0  0
   -2.4335   -2.8280    1.6634 H   0  0  0  0  0  0  0  0  0  0  0  0
   -4.1807   -2.9201    1.6232 H   0  0  0  0  0  0  0  0  0  0  0  0
   -2.6109    0.6522   -0.9004 H   0  0  0  0  0  0  0  0  0  0  0  0
   -3.4481    3.0293    2.5472 H   0  0  0  0  0  0  0  0  0  0  0  0
   -4.5147    1.0766    3.5989 H   0  0  0  0  0  0  0  0  0  0  0  0
   -4.4674   -1.1156    2.5245 H   0  0  0  0  0  0  0  0  0  0  0  0
    0.0849    3.9535   -1.7400 H   0  0  0  0  0  0  0  0  0  0  0  0
   -1.3889    6.0060   -0.6737 H   0  0  0  0  0  0  0  0  0  0  0  0
   -3.2736    4.7166    0.8355 H   0  0  0  0  0  0  0  0  0  0  0  0
    2.8577   -0.8708   -1.9899 H   0  0  0  0  0  0  0  0  0  0  0  0
    2.0535    0.6798   -2.1634 H   0  0  0  0  0  0  0  0  0  0  0  0
    4.9032   -1.0688   -0.6905 H   0  0  0  0  0  0  0  0  0  0  0  0
    6.5170    2.4267    1.2042 H   0  0  0  0  0  0  0  0  0  0  0  0
    2.6348    2.5851   -0.6147 H   0  0  0  0  0  0  0  0  0  0  0  0
   -0.5680    0.8847   -1.4242 H   0  0  0  0  0  0  0  0  0  0  0  0
  2  1  1  0
  1 36  1  0
  1 37  1  0
  1 38  1  0
 25  2  2  0
  2  3  1  0
  4  3  1  0
  3 39  1  0
  5  4  1  0
  4 26  1  0
  4 40  1  1
 35  5  1  0
  6  5  1  0
  5 41  1  6
  7  6  1  0
  6 42  1  0
  6 43  1  0
  8  7  1  6
  7 44  1  0
 14  8  1  0
  9  8  1  0
  8 13  1  0
 10  9  1  0
  9 45  1  0
  9 46  1  0
 10 11  1  0
 10 47  1  0
 10 48  1  0
 11 12  1  0
 11 49  1  0
 11 50  1  0
 12 13  1  0
 12 51  1  0
 12 52  1  0
 13 53  1  0
 13 54  1  0
 15 14  2  0
 19 14  1  0
 16 15  1  0
 15 55  1  0
 20 16  1  0
 17 16  2  0
 17 18  1  0
 17 56  1  0
 18 19  2  0
 18 57  1  0
 19 58  1  0
 21 20  1  0
 24 20  1  0
 22 21  2  0
 22 23  1  0
 22 59  1  0
 23 24  2  0
 23 60  1  0
 24 61  1  0
 26 27  1  0
 26 62  1  0
 26 63  1  0
 32 27  1  0
 27 28  2  0
 28 29  1  0
 28 64  1  0
 30 29  2  0
 29 33  1  0
 31 30  1  0
 30 65  1  0
 34 31  1  0
 32 31  2  0
 32 66  1  0
 35 67  1  0
M  END
