
     RDKit          3D

 80 83  0  0  0  0  0  0  0  0999 V2000
   -3.9733   -3.1522   -1.8656 C   0  0  0  0  0  0  0  0  0  0  0  0
   -3.7416   -1.9471   -2.5381 C   0  0  0  0  0  0  0  0  0  0  0  0
   -4.1661   -0.7515   -1.9930 C   0  0  0  0  0  0  0  0  0  0  0  0
   -4.8139   -0.7440   -0.7596 C   0  0  0  0  0  0  0  0  0  0  0  0
   -4.9100    3.3106    2.8457 C   0  0  0  0  0  0  0  0  0  0  0  0
   -2.7233    1.4866    0.4571 C   0  0  0  0  0  0  0  0  0  0  0  0
   -6.4330    0.5717    0.8230 O   0  0  0  0  0  0  0  0  0  0  0  0
   -0.2762    0.9373    0.1557 C   0  0  1  0  0  0  0  0  0  0  0  0
   -1.5934    0.5270    0.8321 C   0  0  2  0  0  0  0  0  0  0  0  0
   -3.9538    1.9546    4.7390 C   0  0  0  0  0  0  0  0  0  0  0  0
   -4.6372   -3.1377   -0.6369 C   0  0  0  0  0  0  0  0  0  0  0  0
   -5.0496   -1.9351   -0.0885 C   0  0  0  0  0  0  0  0  0  0  0  0
   -4.1087    0.9471    2.4743 C   0  0  0  0  0  0  0  0  0  0  0  0
    4.6022    0.0660    2.7336 C   0  0  0  0  0  0  0  0  0  0  0  0
    6.1134    0.1556    2.8758 C   0  0  0  0  0  0  0  0  0  0  0  0
   -3.7458   -5.5135   -1.8444 C   0  0  0  0  0  0  0  0  0  0  0  0
    1.9302    0.1593   -2.2318 C   0  0  0  0  0  0  0  0  0  0  0  0
    1.0038    1.1709   -1.9973 C   0  0  0  0  0  0  0  0  0  0  0  0
    1.3437    2.4931   -2.2667 C   0  0  0  0  0  0  0  0  0  0  0  0
    3.5549    1.7976   -2.9820 C   0  0  0  0  0  0  0  0  0  0  0  0
    4.2712   -0.1303    1.2652 C   0  0  1  0  0  0  0  0  0  0  0  0
    6.5494   -1.2179    1.0158 C   0  0  1  0  0  0  0  0  0  0  0  0
    6.0062   -3.4475    0.7684 C   0  0  0  0  0  0  0  0  0  0  0  0
    4.7165   -2.6921    1.0873 C   0  0  0  0  0  0  0  0  0  0  0  0
    5.0648   -1.2713    0.6502 C   0  0  1  0  0  0  0  0  0  0  0  0
    3.1797    0.4964   -2.7132 C   0  0  0  0  0  0  0  0  0  0  0  0
    2.6040    2.7738   -2.7515 C   0  0  0  0  0  0  0  0  0  0  0  0
    4.0744   -0.4799   -2.9284 F   0  0  0  0  0  0  0  0  0  0  0  0
    2.9287    4.0479   -3.0118 F   0  0  0  0  0  0  0  0  0  0  0  0
   -4.0065    1.1262    1.0333 N   0  0  0  0  0  0  0  0  0  0  0  0
    0.7862    0.1135    0.6821 N   0  0  0  0  0  0  0  0  0  0  0  0
    6.7387   -1.0166    2.3961 O   0  0  0  0  0  0  0  0  0  0  0  0
   -3.5339   -4.2590   -2.4702 O   0  0  0  0  0  0  0  0  0  0  0  0
   -5.2674    1.7976   -1.0317 O   0  0  0  0  0  0  0  0  0  0  0  0
   -1.9083   -0.8255    0.6146 O   0  0  0  0  0  0  0  0  0  0  0  0
    2.3424    1.7580    0.9311 O   0  0  0  0  0  0  0  0  0  0  0  0
    2.8890   -0.4273    1.0643 O   0  0  0  0  0  0  0  0  0  0  0  0
    7.0501   -2.4683    0.7053 O   0  0  0  0  0  0  0  0  0  0  0  0
   -5.2435    0.7840    0.0135 S   0  0  1  0  0  0  0  0  0  0  0  0
   -3.2369   -1.9576   -3.4955 H   0  0  0  0  0  0  0  0  0  0  0  0
   -3.9928    0.1672   -2.5375 H   0  0  0  0  0  0  0  0  0  0  0  0
   -5.9255    2.9833    3.0811 H   0  0  0  0  0  0  0  0  0  0  0  0
   -4.7281    4.2428    3.3824 H   0  0  0  0  0  0  0  0  0  0  0  0
   -4.8709    3.5323    1.7783 H   0  0  0  0  0  0  0  0  0  0  0  0
   -2.4400    2.4940    0.7764 H   0  0  0  0  0  0  0  0  0  0  0  0
   -2.8327    1.5529   -0.6255 H   0  0  0  0  0  0  0  0  0  0  0  0
   -0.0705    1.9708    0.4415 H   0  0  0  0  0  0  0  0  0  0  0  0
   -1.4150    0.6081    1.9082 H   0  0  0  0  0  0  0  0  0  0  0  0
   -4.9416    1.5846    5.0228 H   0  0  0  0  0  0  0  0  0  0  0  0
   -3.2195    1.2010    5.0294 H   0  0  0  0  0  0  0  0  0  0  0  0
   -3.7552    2.8536    5.3229 H   0  0  0  0  0  0  0  0  0  0  0  0
   -4.8394   -4.0502   -0.0940 H   0  0  0  0  0  0  0  0  0  0  0  0
   -5.5571   -1.9438    0.8671 H   0  0  0  0  0  0  0  0  0  0  0  0
   -2.8894    2.6305    3.0211 H   0  0  0  0  0  0  0  0  0  0  0  0
   -3.3888    0.1914    2.8016 H   0  0  0  0  0  0  0  0  0  0  0  0
   -5.0956    0.5535    2.7127 H   0  0  0  0  0  0  0  0  0  0  0  0
    4.2195   -0.7628    3.3346 H   0  0  0  0  0  0  0  0  0  0  0  0
    4.1442    0.9842    3.1064 H   0  0  0  0  0  0  0  0  0  0  0  0
    6.4857    1.0417    2.3417 H   0  0  0  0  0  0  0  0  0  0  0  0
    6.3984    0.2639    3.9220 H   0  0  0  0  0  0  0  0  0  0  0  0
   -3.2341   -5.5764   -0.8815 H   0  0  0  0  0  0  0  0  0  0  0  0
   -4.8089   -5.7183   -1.6994 H   0  0  0  0  0  0  0  0  0  0  0  0
   -3.3310   -6.2622   -2.5136 H   0  0  0  0  0  0  0  0  0  0  0  0
    1.6832   -0.8774   -2.0432 H   0  0  0  0  0  0  0  0  0  0  0  0
    0.6364    3.2946   -2.0951 H   0  0  0  0  0  0  0  0  0  0  0  0
    4.5386    2.0403   -3.3613 H   0  0  0  0  0  0  0  0  0  0  0  0
    4.5293    0.7887    0.7302 H   0  0  0  0  0  0  0  0  0  0  0  0
    7.1056   -0.4582    0.4485 H   0  0  0  0  0  0  0  0  0  0  0  0
    6.2472   -4.2004    1.5218 H   0  0  0  0  0  0  0  0  0  0  0  0
    5.9489   -3.9481   -0.2012 H   0  0  0  0  0  0  0  0  0  0  0  0
    3.8653   -3.1001    0.5452 H   0  0  0  0  0  0  0  0  0  0  0  0
    4.4863   -2.7422    2.1526 H   0  0  0  0  0  0  0  0  0  0  0  0
    4.9879   -1.2001   -0.4399 H   0  0  0  0  0  0  0  0  0  0  0  0
   -0.6286   -0.1584   -1.6894 H   0  0  0  0  0  0  0  0  0  0  0  0
   -1.0792    1.5404   -1.7683 H   0  0  0  0  0  0  0  0  0  0  0  0
    0.6731   -0.8857    0.5917 H   0  0  0  0  0  0  0  0  0  0  0  0
   -2.1904   -0.9640   -0.2960 H   0  0  0  0  0  0  0  0  0  0  0  0
   -0.3277    0.8482   -1.3847 C   0  0  0  0  0  0  0  0  0  0  0  0
   -3.8929    2.2500    3.2447 C   0  0  1  0  0  0  0  0  0  0  0  0
    2.0344    0.5869    0.8890 C   0  0  0  0  0  0  0  0  0  0  0  0
 32 22  1  0
 32 15  1  0
 22 38  1  0
 22 25  1  0
 15 14  1  0
 38 23  1  0
 14 21  1  0
 25 24  1  0
 25 21  1  0
 23 24  1  0
 21 37  1  0
 37 80  1  0
 29 27  1  0
 80 36  2  0
 80 31  1  0
 27 20  2  0
 27 19  1  0
 31  8  1  0
 20 26  1  0
 19 18  2  0
 26 28  1  0
 26 17  2  0
  5 79  1  0
 18 17  1  0
 18 78  1  0
  8  9  1  0
  8 78  1  0
 35  9  1  0
  9  6  1  0
 10 79  1  0
 79 13  1  0
  6 30  1  0
 30 13  1  0
 39 30  1  1
 34 39  2  0
  7 39  2  0
 39  4  1  0
  4 12  2  0
  4  3  1  0
 12 11  1  0
  3  2  2  0
 11  1  2  0
  2  1  1  0
  1 33  1  0
 33 16  1  0
  2 40  1  0
  3 41  1  0
  5 42  1  0
  5 43  1  0
  5 44  1  0
  6 45  1  0
  6 46  1  0
  8 47  1  6
  9 48  1  1
 10 49  1  0
 10 50  1  0
 10 51  1  0
 11 52  1  0
 12 53  1  0
 79 54  1  1
 13 55  1  0
 13 56  1  0
 14 57  1  0
 14 58  1  0
 15 59  1  0
 15 60  1  0
 16 61  1  0
 16 62  1  0
 16 63  1  0
 17 64  1  0
 19 65  1  0
 20 66  1  0
 21 67  1  6
 22 68  1  6
 23 69  1  0
 23 70  1  0
 24 71  1  0
 24 72  1  0
 25 73  1  6
 78 74  1  0
 78 75  1  0
 31 76  1  0
 35 77  1  0
M  END
