
     RDKit          3D

 56 59  0  0  0  0  0  0  0  0999 V2000
    9.5724    2.4689    0.3721 C   0  0  0  0  0  0  0  0  0  0  0  0
    8.2813    1.6983    0.1574 C   0  0  0  0  0  0  0  0  0  0  0  0
    9.3872   -0.3276   -1.1379 O   0  0  0  0  0  0  0  0  0  0  0  0
    9.1370   -0.4993    1.3575 O   0  0  0  0  0  0  0  0  0  0  0  0
    6.2528   -1.1197    0.9832 C   0  0  0  0  0  0  0  0  0  0  0  0
    4.9852   -1.6513    0.8140 C   0  0  0  0  0  0  0  0  0  0  0  0
    4.4552   -1.8362   -0.4593 C   0  0  0  0  0  0  0  0  0  0  0  0
    5.2147   -1.4827   -1.5696 C   0  0  0  0  0  0  0  0  0  0  0  0
    6.4858   -0.9522   -1.4190 C   0  0  0  0  0  0  0  0  0  0  0  0
    3.0728   -2.3903   -0.6243 C   0  0  0  0  0  0  0  0  0  0  0  0
    2.0266   -1.3029   -0.5797 C   0  0  0  0  0  0  0  0  0  0  0  0
   -0.3497   -0.9456   -0.3627 C   0  0  0  0  0  0  0  0  0  0  0  0
   -1.9912    0.8086   -0.2952 C   0  0  0  0  0  0  0  0  0  0  0  0
   -2.6081    2.1257   -0.2327 C   0  0  0  0  0  0  0  0  0  0  0  0
   -4.1413    1.7410    1.6856 C   0  0  0  0  0  0  0  0  0  0  0  0
   -6.2300    3.0580    0.4247 C   0  0  0  0  0  0  0  0  0  0  0  0
   -3.8883   -0.8690   -0.0299 C   0  0  0  0  0  0  0  0  0  0  0  0
   -4.8709   -0.3536   -0.8700 C   0  0  0  0  0  0  0  0  0  0  0  0
   -6.1955   -0.7196   -0.6946 C   0  0  0  0  0  0  0  0  0  0  0  0
   -6.5560   -1.6060    0.3091 C   0  0  0  0  0  0  0  0  0  0  0  0
   -5.5642   -2.1327    1.1223 C   0  0  0  0  0  0  0  0  0  0  0  0
   -4.2350   -1.7846    0.9604 C   0  0  0  0  0  0  0  0  0  0  0  0
    8.6027   -0.0622    0.0678 S   0  0  1  0  0  0  0  0  0  0  0  0
    6.9913   -0.7715   -0.1393 C   0  0  0  0  0  0  0  0  0  0  0  0
    2.2617   -0.1196   -0.6956 O   0  0  0  0  0  0  0  0  0  0  0  0
    0.7470   -1.7542   -0.4146 N   0  0  0  0  0  0  0  0  0  0  0  0
   -1.5394   -1.4473   -0.1932 N   0  0  0  0  0  0  0  0  0  0  0  0
   -2.4805   -0.4708   -0.1679 C   0  0  0  0  0  0  0  0  0  0  0  0
   -0.2677    0.7650   -0.5146 S   0  0  0  0  0  0  0  0  0  0  0  0
   -2.0073    3.1041   -0.6329 O   0  0  0  0  0  0  0  0  0  0  0  0
   -3.9491    2.2556    0.4063 C   0  0  0  0  0  0  0  0  0  0  0  0
   -5.3548    1.8867    2.3356 C   0  0  0  0  0  0  0  0  0  0  0  0
   -6.3995    2.5424    1.7009 C   0  0  0  0  0  0  0  0  0  0  0  0
   -5.0051    2.9220   -0.2073 C   0  0  0  0  0  0  0  0  0  0  0  0
   -4.8474    3.5107   -1.8286 Cl  0  0  0  0  0  0  0  0  0  0  0  0
   -5.9971   -3.2516    2.3736 Cl  0  0  0  0  0  0  0  0  0  0  0  0
   10.0585    2.1876    1.3044 H   0  0  0  0  0  0  0  0  0  0  0  0
   10.2704    2.3210   -0.4498 H   0  0  0  0  0  0  0  0  0  0  0  0
    9.3404    3.5314    0.4244 H   0  0  0  0  0  0  0  0  0  0  0  0
    7.5754    1.8477    0.9752 H   0  0  0  0  0  0  0  0  0  0  0  0
    7.7913    1.9773   -0.7762 H   0  0  0  0  0  0  0  0  0  0  0  0
    6.6523   -0.9847    1.9791 H   0  0  0  0  0  0  0  0  0  0  0  0
    4.4074   -1.9289    1.6867 H   0  0  0  0  0  0  0  0  0  0  0  0
    4.8169   -1.6312   -2.5653 H   0  0  0  0  0  0  0  0  0  0  0  0
    7.0680   -0.6914   -2.2925 H   0  0  0  0  0  0  0  0  0  0  0  0
    2.9722   -2.9050   -1.5848 H   0  0  0  0  0  0  0  0  0  0  0  0
    2.8567   -3.1349    0.1451 H   0  0  0  0  0  0  0  0  0  0  0  0
   -7.0467    3.5571   -0.0783 H   0  0  0  0  0  0  0  0  0  0  0  0
   -4.6048    0.3184   -1.6757 H   0  0  0  0  0  0  0  0  0  0  0  0
   -6.9568   -0.3159   -1.3482 H   0  0  0  0  0  0  0  0  0  0  0  0
   -7.5904   -1.8889    0.4491 H   0  0  0  0  0  0  0  0  0  0  0  0
   -3.4767   -2.1991    1.6112 H   0  0  0  0  0  0  0  0  0  0  0  0
    0.5693   -2.7450   -0.3137 H   0  0  0  0  0  0  0  0  0  0  0  0
   -5.4873    1.4838    3.3301 H   0  0  0  0  0  0  0  0  0  0  0  0
   -7.3564    2.6509    2.1934 H   0  0  0  0  0  0  0  0  0  0  0  0
   -3.3281    1.2219    2.1761 H   0  0  0  0  0  0  0  0  0  0  0  0
 36 21  1  0
 20 21  2  0
 20 19  1  0
 21 22  1  0
 33 32  1  0
 33 16  2  0
 32 15  2  0
 19 18  2  0
 16 34  1  0
 22 17  2  0
  3 23  2  0
  1  2  1  0
 15 31  1  0
 23  2  1  1
 18 17  1  0
 17 28  1  0
 34 31  2  0
 34 35  1  0
 23  4  2  0
 23 24  1  0
 31 14  1  0
  9 24  1  0
  9  8  2  0
 28 27  1  0
 28 13  2  0
 24  5  2  0
 27 12  2  0
 14 13  1  0
 14 30  2  0
  8  7  1  0
 13 29  1  0
 12 26  1  0
 12 29  1  0
  5  6  1  0
 26 11  1  0
  7  6  2  0
  7 10  1  0
 11 10  1  0
 11 25  2  0
  1 37  1  0
  1 38  1  0
  1 39  1  0
  2 40  1  0
  2 41  1  0
  5 42  1  0
  6 43  1  0
  8 44  1  0
  9 45  1  0
 10 46  1  0
 10 47  1  0
 15 56  1  0
 16 48  1  0
 18 49  1  0
 19 50  1  0
 20 51  1  0
 22 52  1  0
 26 53  1  0
 32 54  1  0
 33 55  1  0
M  END
