
     RDKit          3D

 17 17  0  0  0  0  0  0  0  0999 V2000
    2.2301    2.3560   -0.0025 O   0  0  0  0  0  0  0  0  0  0  0  0
    2.6232    1.0877    0.0073 C   0  0  0  0  0  0  0  0  0  0  0  0
    3.7995    0.7836    0.0314 O   0  0  0  0  0  0  0  0  0  0  0  0
    1.5110    0.1273   -0.0121 C   0  0  0  0  0  0  0  0  0  0  0  0
    1.7614   -1.2687   -0.0229 C   0  0  0  0  0  0  0  0  0  0  0  0
    2.9917   -1.8102   -0.0433 N   0  0  0  0  0  0  0  0  0  0  0  0
    0.1884    0.5967   -0.0163 C   0  0  0  0  0  0  0  0  0  0  0  0
   -0.8724   -0.2754   -0.0278 C   0  0  0  0  0  0  0  0  0  0  0  0
   -2.6444    0.3798   -0.0316 Br  0  0  0  0  0  0  0  0  0  0  0  0
   -0.6432   -1.6534   -0.0337 C   0  0  0  0  0  0  0  0  0  0  0  0
    0.6419   -2.1312   -0.0310 C   0  0  0  0  0  0  0  0  0  0  0  0
    3.0055    2.9360    0.0138 H   0  0  0  0  0  0  0  0  0  0  0  0
    3.8084   -1.2324    0.0483 H   0  0  0  0  0  0  0  0  0  0  0  0
    3.0991   -2.8061    0.0344 H   0  0  0  0  0  0  0  0  0  0  0  0
    0.0088    1.6624   -0.0088 H   0  0  0  0  0  0  0  0  0  0  0  0
   -1.4670   -2.3547   -0.0408 H   0  0  0  0  0  0  0  0  0  0  0  0
    0.8073   -3.2014   -0.0369 H   0  0  0  0  0  0  0  0  0  0  0  0
  1  2  1  0
  1 12  1  0
  3  2  2  0
  2  4  1  0
  5  4  2  0
  4  7  1  0
  6  5  1  0
  5 11  1  0
  6 13  1  0
  6 14  1  0
  7  8  2  0
  7 15  1  0
 10  8  1  0
  8  9  1  0
 11 10  2  0
 10 16  1  0
 11 17  1  0
M  END
