
     RDKit          3D

 25 27  0  0  0  0  0  0  0  0999 V2000
    2.7017    1.2555    0.0164 C   0  0  0  0  0  0  0  0  0  0  0  0
    1.3396    1.5054   -0.0129 C   0  0  0  0  0  0  0  0  0  0  0  0
    0.3918    0.4542    0.0013 C   0  0  0  0  0  0  0  0  0  0  0  0
   -3.2293   -0.5486   -0.0185 C   0  0  0  0  0  0  0  0  0  0  0  0
   -1.0615    0.5883   -0.0215 C   0  0  0  0  0  0  0  0  0  0  0  0
   -1.7613    1.8051   -0.0586 C   0  0  0  0  0  0  0  0  0  0  0  0
   -3.1427    1.8328   -0.0717 C   0  0  0  0  0  0  0  0  0  0  0  0
   -3.8906    0.6593   -0.0523 C   0  0  0  0  0  0  0  0  0  0  0  0
   -1.8340   -0.5891   -0.0022 C   0  0  0  0  0  0  0  0  0  0  0  0
    3.1796   -0.0505    0.0628 C   0  0  0  0  0  0  0  0  0  0  0  0
   -1.2030   -1.9046    0.0380 C   0  0  0  0  0  0  0  0  0  0  0  0
   -1.7792   -2.9624    0.0522 O   0  0  0  0  0  0  0  0  0  0  0  0
    0.9335   -0.8340    0.0458 C   0  0  0  0  0  0  0  0  0  0  0  0
    2.2882   -1.1126    0.0774 C   0  0  0  0  0  0  0  0  0  0  0  0
    0.1401   -1.9367    0.0618 O   0  0  0  0  0  0  0  0  0  0  0  0
    4.5065   -0.2225    0.0949 O   0  0  0  0  0  0  0  0  0  0  0  0
    0.8921    2.7662   -0.0539 O   0  0  0  0  0  0  0  0  0  0  0  0
    3.4036    2.0816    0.0070 H   0  0  0  0  0  0  0  0  0  0  0  0
   -3.7892   -1.4735   -0.0029 H   0  0  0  0  0  0  0  0  0  0  0  0
   -1.2331    2.7419   -0.0754 H   0  0  0  0  0  0  0  0  0  0  0  0
   -3.6457    2.7908   -0.0991 H   0  0  0  0  0  0  0  0  0  0  0  0
   -4.9712    0.6935   -0.0630 H   0  0  0  0  0  0  0  0  0  0  0  0
    2.6284   -2.1404    0.1134 H   0  0  0  0  0  0  0  0  0  0  0  0
    4.7283   -1.1602    0.1401 H   0  0  0  0  0  0  0  0  0  0  0  0
    1.6293    3.3888   -0.0607 H   0  0  0  0  0  0  0  0  0  0  0  0
 12 11  2  0
 15 11  1  0
 15 13  1  0
 11  9  1  0
 14 13  2  0
 14 10  1  0
 13  3  1  0
  9  4  1  0
  9  5  2  0
  4  8  2  0
 16 10  1  0
 10  1  2  0
  3  5  1  0
  3  2  2  0
  8  7  1  0
  5  6  1  0
  1  2  1  0
  2 17  1  0
  7  6  2  0
  1 18  1  0
  4 19  1  0
  6 20  1  0
  7 21  1  0
  8 22  1  0
 14 23  1  0
 16 24  1  0
 17 25  1  0
M  END
