
     RDKit          3D

 36 37  0  0  0  0  0  0  0  0999 V2000
   -1.3411    0.3431   -0.3265 N   0  0  0  0  0  0  0  0  0  0  0  0
   -5.0207   -1.5820    0.2389 C   0  0  0  0  0  0  0  0  0  0  0  0
   -4.9665   -0.2442   -0.0782 C   0  0  0  0  0  0  0  0  0  0  0  0
   -3.7493    0.4192   -0.2710 C   0  0  0  0  0  0  0  0  0  0  0  0
   -2.7582    2.5241   -0.8212 O   0  0  0  0  0  0  0  0  0  0  0  0
    4.9782    0.0704   -0.4165 C   0  0  0  0  0  0  0  0  0  0  0  0
    4.1974   -0.6011   -1.3446 C   0  0  0  0  0  0  0  0  0  0  0  0
    2.8357   -0.3423   -1.3511 C   0  0  0  0  0  0  0  0  0  0  0  0
    4.4409    0.9666    0.4872 C   0  0  0  0  0  0  0  0  0  0  0  0
    3.0630    1.2144    0.4884 C   0  0  0  0  0  0  0  0  0  0  0  0
    2.2625    0.5446   -0.4539 C   0  0  0  0  0  0  0  0  0  0  0  0
   -0.0614   -0.1417   -0.2142 C   0  0  0  0  0  0  0  0  0  0  0  0
    0.2333   -1.2841    0.0867 O   0  0  0  0  0  0  0  0  0  0  0  0
   -2.5431   -0.3130   -0.1347 C   0  0  0  0  0  0  0  0  0  0  0  0
   -4.9655    2.3803   -0.6716 O   0  0  0  0  0  0  0  0  0  0  0  0
   -2.6209   -1.6733    0.1865 C   0  0  0  0  0  0  0  0  0  0  0  0
   -3.8380   -2.3097    0.3748 C   0  0  0  0  0  0  0  0  0  0  0  0
   -1.4592    1.3237   -0.5665 H   0  0  0  0  0  0  0  0  0  0  0  0
   -5.9789   -2.0648    0.3812 H   0  0  0  0  0  0  0  0  0  0  0  0
    3.0720    2.3733    2.1510 H   0  0  0  0  0  0  0  0  0  0  0  0
    1.5442    1.9984    1.5818 H   0  0  0  0  0  0  0  0  0  0  0  0
   -5.8936    0.3009   -0.1827 H   0  0  0  0  0  0  0  0  0  0  0  0
   -4.0576   -3.8774    1.8152 H   0  0  0  0  0  0  0  0  0  0  0  0
   -4.6885   -4.2779    0.2273 H   0  0  0  0  0  0  0  0  0  0  0  0
   -2.9438   -4.2649    0.5079 H   0  0  0  0  0  0  0  0  0  0  0  0
    4.6344   -1.2964   -2.0469 H   0  0  0  0  0  0  0  0  0  0  0  0
    2.2046   -0.8355   -2.0789 H   0  0  0  0  0  0  0  0  0  0  0  0
    5.0770    1.4696    1.2044 H   0  0  0  0  0  0  0  0  0  0  0  0
    0.5903    1.7489   -0.7252 H   0  0  0  0  0  0  0  0  0  0  0  0
   -4.9022    3.3203   -0.8971 H   0  0  0  0  0  0  0  0  0  0  0  0
   -1.7137   -2.2448    0.2922 H   0  0  0  0  0  0  0  0  0  0  0  0
   -3.7540    1.8533   -0.6109 C   0  0  0  0  0  0  0  0  0  0  0  0
   -3.8798   -3.7615    0.7442 C   0  0  0  0  0  0  0  0  0  0  0  0
    0.8783    0.8136   -0.4778 N   0  0  0  0  0  0  0  0  0  0  0  0
    2.5151    2.1312    1.3477 N   0  0  0  0  0  0  0  0  0  0  0  0
    6.6887   -0.2219   -0.3829 Cl  0  0  0  0  0  0  0  0  0  0  0  0
 36  6  1  0
  9  6  2  0
  9 10  1  0
 35 10  1  0
  6  7  1  0
 10 11  2  0
  7  8  2  0
 11  8  1  0
 11 34  1  0
 34 12  1  0
  5 32  2  0
 12  1  1  0
 12 13  2  0
 32 15  1  0
 32  4  1  0
  1 14  1  0
 14  4  2  0
 14 16  1  0
  4  3  1  0
 16 17  2  0
  3  2  2  0
 17  2  1  0
 17 33  1  0
  1 18  1  0
  2 19  1  0
 35 20  1  0
 35 21  1  0
  3 22  1  0
 33 23  1  0
 33 24  1  0
 33 25  1  0
  7 26  1  0
  8 27  1  0
  9 28  1  0
 34 29  1  0
 15 30  1  0
 16 31  1  0
M  END
