
     RDKit          3D

 13 13  0  0  0  0  0  0  0  0999 V2000
    0.3610    1.5186   -0.0230 C   0  0  0  0  0  0  0  0  0  0  0  0
    1.7271    1.7301    0.0143 C   0  0  0  0  0  0  0  0  0  0  0  0
    3.1687   -1.4640    0.1801 N   0  0  0  0  0  0  0  0  0  0  0  0
    2.6396    0.7680    0.0641 N   0  0  0  0  0  0  0  0  0  0  0  0
   -0.0544    0.1905   -0.0086 C   0  0  0  0  0  0  0  0  0  0  0  0
    2.2231   -0.4974    0.0824 C   0  0  0  0  0  0  0  0  0  0  0  0
    0.8556   -0.8381    0.0438 C   0  0  0  0  0  0  0  0  0  0  0  0
   -1.8963   -0.2044   -0.0626 Br  0  0  0  0  0  0  0  0  0  0  0  0
   -0.3298    2.3475   -0.0646 H   0  0  0  0  0  0  0  0  0  0  0  0
    2.1064    2.7462    0.0012 H   0  0  0  0  0  0  0  0  0  0  0  0
    4.1196   -1.2034   -0.0200 H   0  0  0  0  0  0  0  0  0  0  0  0
    2.9231   -2.4114   -0.0500 H   0  0  0  0  0  0  0  0  0  0  0  0
    0.5505   -1.8761    0.0552 H   0  0  0  0  0  0  0  0  0  0  0  0
  8  5  1  0
  1  5  2  0
  1  2  1  0
  5  7  1  0
  2  4  2  0
  7  6  2  0
  4  6  1  0
  6  3  1  0
  1  9  1  0
  2 10  1  0
  3 11  1  0
  3 12  1  0
  7 13  1  0
M  END
