
     RDKit          3D

 57 60  0  0  0  0  0  0  0  0999 V2000
    6.3401   -5.8811    1.1392 C   0  0  0  0  0  0  0  0  0  0  0  0
    5.7383   -4.0328    2.6128 N   0  0  0  0  0  0  0  0  0  0  0  0
    1.7924   -2.6562   -2.3835 O   0  0  0  0  0  0  0  0  0  0  0  0
    6.1196   -4.3740    1.2604 C   0  0  2  0  0  0  0  0  0  0  0  0
    3.9136   -3.5123    0.4317 N   0  0  0  0  0  0  0  0  0  0  0  0
    5.1186   -3.9130    0.2393 C   0  0  0  0  0  0  0  0  0  0  0  0
    1.1802   -2.4471   -0.2325 N   0  0  0  0  0  0  0  0  0  0  0  0
    3.4173   -3.2351   -0.8264 C   0  0  0  0  0  0  0  0  0  0  0  0
   -1.0753   -0.1718   -1.9118 N   0  0  0  0  0  0  0  0  0  0  0  0
    2.0694   -2.7527   -1.1916 C   0  0  0  0  0  0  0  0  0  0  0  0
    2.4282   -0.2326   -4.4044 N   0  0  0  0  0  0  0  0  0  0  0  0
    5.4698   -3.9235   -1.0607 O   0  0  0  0  0  0  0  0  0  0  0  0
    1.3521   -2.4755    1.2224 C   0  0  0  0  0  0  0  0  0  0  0  0
    0.0717   -1.8383    1.7541 C   0  0  0  0  0  0  0  0  0  0  0  0
   -0.9533   -2.1092    0.6601 C   0  0  0  0  0  0  0  0  0  0  0  0
   -0.1325   -1.9818   -0.6290 C   0  0  1  0  0  0  0  0  0  0  0  0
   -0.0806   -0.5231   -1.0755 C   0  0  0  0  0  0  0  0  0  0  0  0
   -1.2633    1.1627   -2.4081 C   0  0  1  0  0  0  0  0  0  0  0  0
   -0.8924    1.2747   -3.8955 C   0  0  0  0  0  0  0  0  0  0  0  0
    0.5428    0.9362   -4.1023 C   0  0  0  0  0  0  0  0  0  0  0  0
    1.0649   -0.2889   -4.4004 C   0  0  0  0  0  0  0  0  0  0  0  0
    2.8292    1.0284   -4.0763 C   0  0  0  0  0  0  0  0  0  0  0  0
    4.1070    1.5662   -3.9349 C   0  0  0  0  0  0  0  0  0  0  0  0
    4.2037    2.9008   -3.5862 C   0  0  0  0  0  0  0  0  0  0  0  0
    3.0572    3.6874   -3.3881 C   0  0  0  0  0  0  0  0  0  0  0  0
    1.7918    3.1502   -3.5333 C   0  0  0  0  0  0  0  0  0  0  0  0
    1.6625    1.8015   -3.8802 C   0  0  0  0  0  0  0  0  0  0  0  0
   -2.6656    1.6798   -2.1317 C   0  0  0  0  0  0  0  0  0  0  0  0
    4.3868   -3.4940   -1.7351 C   0  0  0  0  0  0  0  0  0  0  0  0
    6.6510   -6.1647    0.1346 H   0  0  0  0  0  0  0  0  0  0  0  0
    7.1157   -6.1951    1.8365 H   0  0  0  0  0  0  0  0  0  0  0  0
    5.4248   -6.4258    1.3776 H   0  0  0  0  0  0  0  0  0  0  0  0
    5.6377   -3.0295    2.7038 H   0  0  0  0  0  0  0  0  0  0  0  0
    4.8269   -4.4244    2.8198 H   0  0  0  0  0  0  0  0  0  0  0  0
    7.0668   -3.8723    1.0384 H   0  0  0  0  0  0  0  0  0  0  0  0
   -4.0936    1.5122   -0.9116 H   0  0  0  0  0  0  0  0  0  0  0  0
   -1.6597   -0.8997   -2.2935 H   0  0  0  0  0  0  0  0  0  0  0  0
    2.2418   -1.9315    1.5308 H   0  0  0  0  0  0  0  0  0  0  0  0
    1.4587   -3.5031    1.5728 H   0  0  0  0  0  0  0  0  0  0  0  0
    0.2080   -0.7658    1.8934 H   0  0  0  0  0  0  0  0  0  0  0  0
   -0.2171   -2.2616    2.7150 H   0  0  0  0  0  0  0  0  0  0  0  0
   -1.3410   -3.1267    0.7353 H   0  0  0  0  0  0  0  0  0  0  0  0
   -1.8041   -1.4282    0.6829 H   0  0  0  0  0  0  0  0  0  0  0  0
   -0.5409   -2.6068   -1.4260 H   0  0  0  0  0  0  0  0  0  0  0  0
   -0.5899    1.8123   -1.8388 H   0  0  0  0  0  0  0  0  0  0  0  0
   -1.5351    0.6086   -4.4770 H   0  0  0  0  0  0  0  0  0  0  0  0
   -1.1018    2.2883   -4.2422 H   0  0  0  0  0  0  0  0  0  0  0  0
    0.5553   -1.2150   -4.6106 H   0  0  0  0  0  0  0  0  0  0  0  0
    4.9926    0.9629   -4.0912 H   0  0  0  0  0  0  0  0  0  0  0  0
    5.1818    3.3481   -3.4638 H   0  0  0  0  0  0  0  0  0  0  0  0
    3.1711    4.7299   -3.1196 H   0  0  0  0  0  0  0  0  0  0  0  0
    0.9148    3.7684   -3.3807 H   0  0  0  0  0  0  0  0  0  0  0  0
    4.4543   -3.4226   -2.8072 H   0  0  0  0  0  0  0  0  0  0  0  0
   -3.1993    2.5371   -2.7895 O   0  0  0  0  0  0  0  0  0  0  0  0
    0.7436    0.2562   -0.6337 O   0  0  0  0  0  0  0  0  0  0  0  0
   -3.2196    1.1226   -1.0671 O   0  0  0  0  0  0  0  0  0  0  0  0
    3.0303   -1.0291   -4.5213 H   0  0  0  0  0  0  0  0  0  0  0  0
  1  4  1  0
  1 30  1  0
  1 31  1  0
  1 32  1  0
  2  4  1  0
  2 33  1  0
  2 34  1  0
  3 10  2  0
  4  6  1  0
  4 35  1  6
  5  8  1  0
  5  6  2  0
 55 17  2  0
  6 12  1  0
  7 16  1  0
  7 13  1  0
  7 10  1  0
 56 28  1  0
 56 36  1  0
  8 10  1  0
  8 29  2  0
  9 18  1  0
  9 17  1  0
  9 37  1  0
 54 28  2  0
 11 21  1  0
 11 22  1  0
 11 57  1  0
 12 29  1  0
 13 14  1  0
 13 38  1  0
 13 39  1  0
 14 15  1  0
 14 40  1  0
 14 41  1  0
 15 16  1  0
 15 42  1  0
 15 43  1  0
 16 17  1  0
 16 44  1  6
 18 28  1  0
 18 19  1  0
 18 45  1  1
 19 20  1  0
 19 46  1  0
 19 47  1  0
 20 21  2  0
 20 27  1  0
 21 48  1  0
 22 23  2  0
 22 27  1  0
 23 24  1  0
 23 49  1  0
 24 25  2  0
 24 50  1  0
 25 26  1  0
 25 51  1  0
 26 27  2  0
 26 52  1  0
 29 53  1  0
M  END
