
     RDKit          3D

 40 42  0  0  0  0  0  0  0  0999 V2000
    2.6619   -0.9057    0.0778 N   0  0  0  0  0  0  0  0  0  0  0  0
    4.4548    0.5752    0.1363 N   0  0  0  0  0  0  0  0  0  0  0  0
   -0.6268    0.6000   -0.0956 C   0  0  0  0  0  0  0  0  0  0  0  0
   -1.4704   -0.5025   -0.1408 C   0  0  0  0  0  0  0  0  0  0  0  0
   -0.9437   -1.8018   -0.1160 C   0  0  0  0  0  0  0  0  0  0  0  0
    3.1557    0.3041    0.0862 C   0  0  0  0  0  0  0  0  0  0  0  0
    0.9288   -3.4011    0.0038 C   0  0  0  0  0  0  0  0  0  0  0  0
   -1.6768    3.9548    0.5293 C   0  0  0  0  0  0  0  0  0  0  0  0
    5.4178   -0.5186    0.2016 C   0  0  0  0  0  0  0  0  0  0  0  0
    5.1179    2.5219    1.5191 C   0  0  0  0  0  0  0  0  0  0  0  0
    0.4548   -2.0133   -0.0307 C   0  0  0  0  0  0  0  0  0  0  0  0
    1.3096   -0.8905    0.0210 C   0  0  0  0  0  0  0  0  0  0  0  0
    0.7339    0.3917   -0.0109 C   0  0  0  0  0  0  0  0  0  0  0  0
    1.9690    1.6107    0.0344 S   0  0  0  0  0  0  0  0  0  0  0  0
   -3.5449   -0.2570   -0.1817 I   0  0  0  0  0  0  0  0  0  0  0  0
   -1.8037   -2.8055   -0.1634 O   0  0  0  0  0  0  0  0  0  0  0  0
    2.2257   -3.5650    0.1048 O   0  0  0  0  0  0  0  0  0  0  0  0
    0.1642   -4.3588   -0.0530 O   0  0  0  0  0  0  0  0  0  0  0  0
   -1.1131    1.9183   -0.1269 N   0  0  0  0  0  0  0  0  0  0  0  0
   -1.1564    2.7630    0.9526 C   0  0  0  0  0  0  0  0  0  0  0  0
   -1.9531    3.8287   -0.8592 C   0  0  0  0  0  0  0  0  0  0  0  0
   -1.5980    2.5624   -1.2343 C   0  0  0  0  0  0  0  0  0  0  0  0
    4.9663    1.9363    0.1243 C   0  0  0  0  0  0  0  0  0  0  0  0
    5.8115   -1.0283   -1.1742 C   0  0  0  0  0  0  0  0  0  0  0  0
   -1.8445    4.8221    1.1479 H   0  0  0  0  0  0  0  0  0  0  0  0
    6.2913   -0.1458    0.7382 H   0  0  0  0  0  0  0  0  0  0  0  0
    4.9965   -1.3243    0.8002 H   0  0  0  0  0  0  0  0  0  0  0  0
    4.1604    2.5724    2.0384 H   0  0  0  0  0  0  0  0  0  0  0  0
    5.8028    1.9252    2.1223 H   0  0  0  0  0  0  0  0  0  0  0  0
    5.5193    3.5330    1.4554 H   0  0  0  0  0  0  0  0  0  0  0  0
   -1.2838   -3.6485   -0.1404 H   0  0  0  0  0  0  0  0  0  0  0  0
    2.4275   -4.5136    0.1268 H   0  0  0  0  0  0  0  0  0  0  0  0
   -0.8278    2.4352    1.9254 H   0  0  0  0  0  0  0  0  0  0  0  0
   -2.3603    4.5863   -1.5098 H   0  0  0  0  0  0  0  0  0  0  0  0
   -1.6342    2.0694   -2.1921 H   0  0  0  0  0  0  0  0  0  0  0  0
    5.9312    1.9146   -0.3830 H   0  0  0  0  0  0  0  0  0  0  0  0
    4.3224    2.5652   -0.4951 H   0  0  0  0  0  0  0  0  0  0  0  0
    4.9484   -1.4366   -1.6986 H   0  0  0  0  0  0  0  0  0  0  0  0
    6.2448   -0.2359   -1.7853 H   0  0  0  0  0  0  0  0  0  0  0  0
    6.5549   -1.8194   -1.0779 H   0  0  0  0  0  0  0  0  0  0  0  0
 24  9  1  0
  9  2  1  0
 10 23  1  0
 23  2  1  0
  2  6  1  0
  6  1  2  0
  6 14  1  0
 18  7  2  0
  1 12  1  0
 14 13  1  0
  7 11  1  0
  7 17  1  0
 12 11  2  0
 12 13  1  0
 11  5  1  0
 13  3  2  0
  5 16  1  0
  5  4  2  0
  3  4  1  0
  3 19  1  0
  4 15  1  0
 19 20  1  0
 19 22  1  0
 20  8  2  0
 22 21  2  0
  8 21  1  0
  8 25  1  0
  9 26  1  0
  9 27  1  0
 10 28  1  0
 10 29  1  0
 10 30  1  0
 16 31  1  0
 17 32  1  0
 20 33  1  0
 21 34  1  0
 22 35  1  0
 23 36  1  0
 23 37  1  0
 24 38  1  0
 24 39  1  0
 24 40  1  0
M  END
