
     RDKit          3D

 26 25  0  0  0  0  0  0  0  0999 V2000
   -5.5826    2.3269    6.1731 C   0  0  0  0  0  0  0  0  0  0  0  0
   -5.9372    1.5315    4.9480 C   0  0  0  0  0  0  0  0  0  0  0  0
   -4.9341    1.6646    3.8136 C   0  0  0  0  0  0  0  0  0  0  0  0
   -5.3443    0.8454    2.5962 C   0  0  0  0  0  0  0  0  0  0  0  0
   -4.3564    0.9611    1.4421 C   0  0  0  0  0  0  0  0  0  0  0  0
   -4.7525    0.1313    0.2274 C   0  0  0  0  0  0  0  0  0  0  0  0
   -3.7688    0.2498   -0.9306 C   0  0  0  0  0  0  0  0  0  0  0  0
   -4.1632   -0.5943   -2.1347 C   0  0  0  0  0  0  0  0  0  0  0  0
   -4.5933    3.0044    6.3029 O   0  0  0  0  0  0  0  0  0  0  0  0
   -6.4999    2.2002    7.1292 O   0  0  0  0  0  0  0  0  0  0  0  0
   -6.0431    0.4833    5.2468 H   0  0  0  0  0  0  0  0  0  0  0  0
   -6.9341    1.8403    4.6174 H   0  0  0  0  0  0  0  0  0  0  0  0
   -3.9457    1.3426    4.1527 H   0  0  0  0  0  0  0  0  0  0  0  0
   -4.8360    2.7155    3.5283 H   0  0  0  0  0  0  0  0  0  0  0  0
   -6.3364    1.1636    2.2577 H   0  0  0  0  0  0  0  0  0  0  0  0
   -5.4452   -0.2068    2.8838 H   0  0  0  0  0  0  0  0  0  0  0  0
   -4.2633    2.0123    1.1480 H   0  0  0  0  0  0  0  0  0  0  0  0
   -3.3622    0.6527    1.7842 H   0  0  0  0  0  0  0  0  0  0  0  0
   -4.8408   -0.9205    0.5214 H   0  0  0  0  0  0  0  0  0  0  0  0
   -5.7492    0.4347   -0.1129 H   0  0  0  0  0  0  0  0  0  0  0  0
   -3.6893    1.2991   -1.2315 H   0  0  0  0  0  0  0  0  0  0  0  0
   -2.7710   -0.0432   -0.5893 H   0  0  0  0  0  0  0  0  0  0  0  0
   -4.2126   -1.6536   -1.8755 H   0  0  0  0  0  0  0  0  0  0  0  0
   -3.4471   -0.4876   -2.9504 H   0  0  0  0  0  0  0  0  0  0  0  0
   -5.1439   -0.3044   -2.5174 H   0  0  0  0  0  0  0  0  0  0  0  0
   -6.2418    2.7200    7.9050 H   0  0  0  0  0  0  0  0  0  0  0  0
  1  2  1  0
  1  9  2  0
  1 10  1  0
  2  3  1  0
  2 11  1  0
  2 12  1  0
  3  4  1  0
  3 13  1  0
  3 14  1  0
  4  5  1  0
  4 15  1  0
  4 16  1  0
  5  6  1  0
  5 17  1  0
  5 18  1  0
  6  7  1  0
  6 19  1  0
  6 20  1  0
  7  8  1  0
  7 21  1  0
  7 22  1  0
  8 23  1  0
  8 24  1  0
  8 25  1  0
 10 26  1  0
M  END
