
     RDKit          3D

 19 19  0  0  0  0  0  0  0  0999 V2000
   -1.5425   -1.8393   -0.2486 O   0  0  0  0  0  0  0  0  0  0  0  0
   -1.2538   -0.4250   -0.4303 S   0  0  1  0  0  0  0  0  0  0  0  0
   -1.6367    0.2463   -1.6587 O   0  0  0  0  0  0  0  0  0  0  0  0
   -2.0330    0.3394    0.8196 N   0  0  0  0  0  0  0  0  0  0  0  0
   -1.7443    1.6984    0.9001 N   0  0  0  0  0  0  0  0  0  0  0  0
    0.4785   -0.1557   -0.1784 C   0  0  0  0  0  0  0  0  0  0  0  0
    1.1880   -1.0407    0.6248 C   0  0  0  0  0  0  0  0  0  0  0  0
    1.0892    0.9532   -0.7500 C   0  0  0  0  0  0  0  0  0  0  0  0
    2.4381    1.1737   -0.5125 C   0  0  0  0  0  0  0  0  0  0  0  0
    3.1587    0.2970    0.2874 C   0  0  0  0  0  0  0  0  0  0  0  0
    2.5354   -0.8080    0.8537 C   0  0  0  0  0  0  0  0  0  0  0  0
   -1.9936   -0.1905    1.6863 H   0  0  0  0  0  0  0  0  0  0  0  0
   -2.6005    2.1980    1.0938 H   0  0  0  0  0  0  0  0  0  0  0  0
   -1.0831    1.8851    1.6427 H   0  0  0  0  0  0  0  0  0  0  0  0
    0.7070   -1.9051    1.0622 H   0  0  0  0  0  0  0  0  0  0  0  0
    0.5296    1.6338   -1.3761 H   0  0  0  0  0  0  0  0  0  0  0  0
    2.9251    2.0321   -0.9550 H   0  0  0  0  0  0  0  0  0  0  0  0
    4.2106    0.4734    0.4687 H   0  0  0  0  0  0  0  0  0  0  0  0
    3.0986   -1.4929    1.4728 H   0  0  0  0  0  0  0  0  0  0  0  0
  9  8  1  0
  9 10  2  0
  8  6  2  0
  4  5  1  0
  2  4  1  1
 10 11  1  0
  1  2  2  0
  6  2  1  0
  6  7  1  0
  2  3  2  0
 11  7  2  0
  4 12  1  0
  5 13  1  0
  5 14  1  0
  7 15  1  0
  8 16  1  0
  9 17  1  0
 10 18  1  0
 11 19  1  0
M  END
