
     RDKit          3D

 36 36  0  0  0  0  0  0  0  0999 V2000
    4.0558    1.1043    1.2913 C   0  0  0  0  0  0  0  0  0  0  0  0
    2.8869    0.6162    2.1052 C   0  0  0  0  0  0  0  0  0  0  0  0
    2.9849   -0.3070    2.9029 O   0  0  0  0  0  0  0  0  0  0  0  0
    1.7248    1.2614    1.9081 N   0  0  0  0  0  0  0  0  0  0  0  0
    0.5115    0.8726    2.5784 C   0  0  1  0  0  0  0  0  0  0  0  0
   -0.0572   -0.4526    2.0397 C   0  0  0  0  0  0  0  0  0  0  0  0
   -0.1996   -0.4107    0.5457 C   0  0  0  0  0  0  0  0  0  0  0  0
    0.7827   -0.9373   -0.2808 C   0  0  0  0  0  0  0  0  0  0  0  0
    0.6737   -0.8479   -1.6605 C   0  0  0  0  0  0  0  0  0  0  0  0
   -1.2975    0.2063   -0.0450 C   0  0  0  0  0  0  0  0  0  0  0  0
   -1.4013    0.2950   -1.4208 C   0  0  0  0  0  0  0  0  0  0  0  0
   -0.4194   -0.2255   -2.2691 C   0  0  0  0  0  0  0  0  0  0  0  0
   -0.5987   -0.0961   -3.5842 O   0  0  0  0  0  0  0  0  0  0  0  0
    2.2082   -1.6736   -2.8426 I   0  0  0  0  0  0  0  0  0  0  0  0
   -3.0756    1.2338   -2.2700 I   0  0  0  0  0  0  0  0  0  0  0  0
    0.7173    0.9479    4.0969 C   0  0  0  0  0  0  0  0  0  0  0  0
    1.3592    1.8595    4.5918 O   0  0  0  0  0  0  0  0  0  0  0  0
    0.0926    0.0240    4.8377 N   0  0  0  0  0  0  0  0  0  0  0  0
    0.1689    0.0384    6.2719 C   0  0  0  0  0  0  0  0  0  0  0  0
   -0.7261   -1.0280    6.8483 C   0  0  0  0  0  0  0  0  0  0  0  0
   -1.3849   -1.7936    6.1915 O   0  0  0  0  0  0  0  0  0  0  0  0
   -0.6886   -1.0176    8.1687 O   0  0  0  0  0  0  0  0  0  0  0  0
    4.7982    1.5479    1.9554 H   0  0  0  0  0  0  0  0  0  0  0  0
    4.5294    0.2588    0.7938 H   0  0  0  0  0  0  0  0  0  0  0  0
    3.7850    1.8427    0.5392 H   0  0  0  0  0  0  0  0  0  0  0  0
    1.6779    2.0075    1.2358 H   0  0  0  0  0  0  0  0  0  0  0  0
   -0.2199    1.6567    2.3583 H   0  0  0  0  0  0  0  0  0  0  0  0
    0.5831   -1.2871    2.3290 H   0  0  0  0  0  0  0  0  0  0  0  0
   -1.0418   -0.6266    2.4804 H   0  0  0  0  0  0  0  0  0  0  0  0
    1.6389   -1.4298    0.1619 H   0  0  0  0  0  0  0  0  0  0  0  0
   -2.0776    0.6211    0.5812 H   0  0  0  0  0  0  0  0  0  0  0  0
    0.1382   -0.4563   -4.0944 H   0  0  0  0  0  0  0  0  0  0  0  0
   -0.3775   -0.7551    4.4069 H   0  0  0  0  0  0  0  0  0  0  0  0
    1.1902   -0.1351    6.6264 H   0  0  0  0  0  0  0  0  0  0  0  0
   -0.1376    1.0089    6.6712 H   0  0  0  0  0  0  0  0  0  0  0  0
   -1.2575   -1.7155    8.5277 H   0  0  0  0  0  0  0  0  0  0  0  0
  1  2  1  0
  1 23  1  0
  1 24  1  0
  1 25  1  0
  2  3  2  0
  2  4  1  0
  4  5  1  0
  4 26  1  0
  5  6  1  0
  5 16  1  0
  5 27  1  6
  6  7  1  0
  6 28  1  0
  6 29  1  0
  7  8  2  0
  7 10  1  0
  8  9  1  0
  8 30  1  0
  9 12  2  0
  9 14  1  0
 10 11  2  0
 10 31  1  0
 11 12  1  0
 11 15  1  0
 12 13  1  0
 13 32  1  0
 16 17  2  0
 16 18  1  0
 18 19  1  0
 18 33  1  0
 19 20  1  0
 19 34  1  0
 19 35  1  0
 20 21  2  0
 20 22  1  0
 22 36  1  0
M  END
