
     RDKit          3D

 16 17  0  0  0  0  0  0  0  0999 V2000
   -2.9226   -1.3477   -0.0277 O   0  0  0  0  0  0  0  0  0  0  0  0
   -2.5679   -0.1926   -0.0117 N   0  0  0  0  0  0  0  0  0  0  0  0
   -3.3287    0.7459    0.0030 O   0  0  0  0  0  0  0  0  0  0  0  0
   -1.1401    0.0825   -0.0097 C   0  0  0  0  0  0  0  0  0  0  0  0
   -0.2634   -0.9843   -0.0187 C   0  0  0  0  0  0  0  0  0  0  0  0
    1.0876   -0.6657   -0.0162 C   0  0  0  0  0  0  0  0  0  0  0  0
    2.3185   -1.3898   -0.0222 C   0  0  0  0  0  0  0  0  0  0  0  0
    3.3272   -0.5868   -0.0166 N   0  0  0  0  0  0  0  0  0  0  0  0
    2.8397    0.7018   -0.0068 O   0  0  0  0  0  0  0  0  0  0  0  0
    1.5074    0.6584   -0.0061 C   0  0  0  0  0  0  0  0  0  0  0  0
    0.6273    1.7341    0.0027 C   0  0  0  0  0  0  0  0  0  0  0  0
   -0.7134    1.4211    0.0010 C   0  0  0  0  0  0  0  0  0  0  0  0
   -0.5987   -2.0112   -0.0268 H   0  0  0  0  0  0  0  0  0  0  0  0
    2.4791   -2.4573   -0.0307 H   0  0  0  0  0  0  0  0  0  0  0  0
    0.9663    2.7601    0.0100 H   0  0  0  0  0  0  0  0  0  0  0  0
   -1.4378    2.2216    0.0077 H   0  0  0  0  0  0  0  0  0  0  0  0
  1  2  2  0
  3  2  1  0
  2  4  1  0
  4  5  2  0
  4 12  1  0
  5  6  1  0
 12 11  2  0
  6  7  1  0
  6 10  2  0
  7  8  2  0
 11 10  1  0
 10  9  1  0
  8  9  1  0
  5 13  1  0
  7 14  1  0
 11 15  1  0
 12 16  1  0
M  CHG  2   2   1   3  -1
M  END
