
     RDKit          3D

 55 57  0  0  0  0  0  0  0  0999 V2000
    4.9743    1.2144   -0.0330 N   0  0  0  0  0  0  0  0  0  0  0  0
   -1.4488    2.0332    0.6516 C   0  0  1  0  0  0  0  0  0  0  0  0
   -3.4886    0.4744    0.1904 C   0  0  1  0  0  0  0  0  0  0  0  0
   -1.0727   -0.5384    0.6022 C   0  0  1  0  0  0  0  0  0  0  0  0
   -0.1130   -1.5541   -0.1147 C   0  0  1  0  0  0  0  0  0  0  0  0
    6.4881    1.1306   -1.7456 O   0  0  0  0  0  0  0  0  0  0  0  0
   -3.0240   -2.0498    0.0195 C   0  0  0  0  0  0  0  0  0  0  0  0
   -2.0656   -3.0694   -0.5935 C   0  0  0  0  0  0  0  0  0  0  0  0
   -0.5185    0.8735    0.3614 C   0  0  0  0  0  0  0  0  0  0  0  0
    1.3593   -1.4096    0.3091 C   0  0  0  0  0  0  0  0  0  0  0  0
   -2.4517   -0.6409   -0.1102 C   0  0  1  0  0  0  0  0  0  0  0  0
   -1.1027   -0.8921    2.0929 C   0  0  0  0  0  0  0  0  0  0  0  0
   -4.1429    0.3870    1.5805 C   0  0  0  0  0  0  0  0  0  0  0  0
    2.2559   -0.9703   -0.8416 C   0  0  1  0  0  0  0  0  0  0  0  0
    3.7086   -0.7128   -0.4095 C   0  0  2  0  0  0  0  0  0  0  0  0
    3.8986    0.5188    0.4605 C   0  0  0  0  0  0  0  0  0  0  0  0
    5.5182    0.6890   -1.1798 C   0  0  0  0  0  0  0  0  0  0  0  0
    4.6646   -0.4835   -1.5821 C   0  0  0  0  0  0  0  0  0  0  0  0
   -2.8322    1.8596    0.0338 C   0  0  2  0  0  0  0  0  0  0  0  0
   -0.6853   -2.9512   -0.0130 C   0  0  0  0  0  0  0  0  0  0  0  0
    2.2334   -1.9146   -1.8901 O   0  0  0  0  0  0  0  0  0  0  0  0
    3.2630    0.8564    1.4300 O   0  0  0  0  0  0  0  0  0  0  0  0
   -1.5873    2.3932    2.4269 Cl  0  0  0  0  0  0  0  0  0  0  0  0
   -2.5685    2.2601   -1.7314 Cl  0  0  0  0  0  0  0  0  0  0  0  0
    5.3332    2.0497    0.4125 H   0  0  0  0  0  0  0  0  0  0  0  0
   -1.0049    2.9473    0.2625 H   0  0  0  0  0  0  0  0  0  0  0  0
   -0.1772   -1.2985   -1.1820 H   0  0  0  0  0  0  0  0  0  0  0  0
   -3.9829   -2.1264   -0.4947 H   0  0  0  0  0  0  0  0  0  0  0  0
   -3.2121   -2.3015    1.0661 H   0  0  0  0  0  0  0  0  0  0  0  0
   -2.4492   -4.0826   -0.4598 H   0  0  0  0  0  0  0  0  0  0  0  0
   -2.0136   -2.8882   -1.6741 H   0  0  0  0  0  0  0  0  0  0  0  0
   -0.2777    0.9677   -0.7035 H   0  0  0  0  0  0  0  0  0  0  0  0
    0.4197    1.0458    0.8911 H   0  0  0  0  0  0  0  0  0  0  0  0
   -4.3258    0.1862   -1.8257 H   0  0  0  0  0  0  0  0  0  0  0  0
   -5.3322   -0.4418   -0.5258 H   0  0  0  0  0  0  0  0  0  0  0  0
   -5.2483    1.2863   -0.7981 H   0  0  0  0  0  0  0  0  0  0  0  0
    1.4647   -0.7045    1.1306 H   0  0  0  0  0  0  0  0  0  0  0  0
    1.7594   -2.3480    0.7016 H   0  0  0  0  0  0  0  0  0  0  0  0
   -2.2230   -0.5108   -1.1783 H   0  0  0  0  0  0  0  0  0  0  0  0
   -1.7924   -0.2869    2.6676 H   0  0  0  0  0  0  0  0  0  0  0  0
   -1.3678   -1.9362    2.2531 H   0  0  0  0  0  0  0  0  0  0  0  0
   -0.1179   -0.7410    2.5386 H   0  0  0  0  0  0  0  0  0  0  0  0
   -4.9330    1.1360    1.6660 H   0  0  0  0  0  0  0  0  0  0  0  0
   -4.6107   -0.5905    1.7033 H   0  0  0  0  0  0  0  0  0  0  0  0
   -3.4668    0.5360    2.4145 H   0  0  0  0  0  0  0  0  0  0  0  0
   -0.5978   -4.9679    0.5635 H   0  0  0  0  0  0  0  0  0  0  0  0
    0.8918   -3.9842    0.9830 H   0  0  0  0  0  0  0  0  0  0  0  0
    1.8664   -0.0452   -1.2825 H   0  0  0  0  0  0  0  0  0  0  0  0
    4.0571   -1.5658    0.1863 H   0  0  0  0  0  0  0  0  0  0  0  0
    5.2858   -1.3464   -1.8159 H   0  0  0  0  0  0  0  0  0  0  0  0
    4.1336   -0.2126   -2.4983 H   0  0  0  0  0  0  0  0  0  0  0  0
   -3.5101    2.6387    0.3839 H   0  0  0  0  0  0  0  0  0  0  0  0
    2.4618   -2.7781   -1.5279 H   0  0  0  0  0  0  0  0  0  0  0  0
   -4.6582    0.3679   -0.8045 C   0  0  0  0  0  0  0  0  0  0  0  0
   -0.0939   -4.0089    0.5386 C   0  0  0  0  0  0  0  0  0  0  0  0
  3 13  1  1
 54  3  1  0
  3 19  1  0
  3 11  1  0
 24 19  1  0
  7 11  1  0
  7  8  1  0
 19  2  1  0
  4 12  1  1
 11  4  1  0
  8 20  1  0
  4  9  1  0
  4  5  1  0
 55 20  2  0
 20  5  1  0
  2  9  1  0
  2 23  1  0
  5 10  1  0
 10 14  1  0
 14 21  1  0
 14 15  1  0
 15 18  1  0
 15 16  1  0
 18 17  1  0
 22 16  2  0
 16  1  1  0
 17  1  1  0
 17  6  2  0
  1 25  1  0
  2 26  1  6
  5 27  1  6
  7 28  1  0
  7 29  1  0
  8 30  1  0
  8 31  1  0
  9 32  1  0
  9 33  1  0
 54 34  1  0
 54 35  1  0
 54 36  1  0
 10 37  1  0
 10 38  1  0
 11 39  1  6
 12 40  1  0
 12 41  1  0
 12 42  1  0
 13 43  1  0
 13 44  1  0
 13 45  1  0
 55 46  1  0
 55 47  1  0
 14 48  1  6
 15 49  1  1
 18 50  1  0
 18 51  1  0
 19 52  1  1
 21 53  1  0
M  END
