
     RDKit          3D

 29 30  0  0  0  0  0  0  0  0999 V2000
    3.9149   -0.6480   -0.6505 C   0  0  0  0  0  0  0  0  0  0  0  0
    5.0840   -0.0248   -0.6261 O   0  0  0  0  0  0  0  0  0  0  0  0
    2.7899    0.2090   -0.1977 C   0  0  0  0  0  0  0  0  0  0  0  0
   -5.6338    0.3083   -0.6075 C   0  0  0  0  0  0  0  0  0  0  0  0
   -3.5081   -1.3067    0.2715 C   0  0  0  0  0  0  0  0  0  0  0  0
   -2.4049   -2.0486    0.6783 C   0  0  0  0  0  0  0  0  0  0  0  0
   -1.1307   -1.5106    0.6613 C   0  0  0  0  0  0  0  0  0  0  0  0
    1.5124   -0.3432   -0.1882 C   0  0  0  0  0  0  0  0  0  0  0  0
    0.4107    0.4037    0.2181 C   0  0  0  0  0  0  0  0  0  0  0  0
    0.6150    1.7250    0.6185 C   0  0  0  0  0  0  0  0  0  0  0  0
    1.8855    2.2797    0.6138 C   0  0  0  0  0  0  0  0  0  0  0  0
    2.9776    1.5290    0.2078 C   0  0  0  0  0  0  0  0  0  0  0  0
   -0.9406   -0.1942    0.2318 C   0  0  0  0  0  0  0  0  0  0  0  0
   -2.0390    0.5512   -0.1779 C   0  0  0  0  0  0  0  0  0  0  0  0
   -3.3227    0.0038   -0.1616 C   0  0  0  0  0  0  0  0  0  0  0  0
    3.7852   -1.7956   -1.0042 O   0  0  0  0  0  0  0  0  0  0  0  0
   -4.3125    0.8113   -0.5863 O   0  0  0  0  0  0  0  0  0  0  0  0
    5.7845   -0.6268   -0.9182 H   0  0  0  0  0  0  0  0  0  0  0  0
   -6.2619    1.1081   -0.9918 H   0  0  0  0  0  0  0  0  0  0  0  0
   -5.7302   -0.5608   -1.2636 H   0  0  0  0  0  0  0  0  0  0  0  0
   -5.9853    0.0363    0.3912 H   0  0  0  0  0  0  0  0  0  0  0  0
   -4.4889   -1.7607    0.3022 H   0  0  0  0  0  0  0  0  0  0  0  0
   -2.5549   -3.0642    1.0212 H   0  0  0  0  0  0  0  0  0  0  0  0
   -0.2904   -2.1008    1.0039 H   0  0  0  0  0  0  0  0  0  0  0  0
    1.3735   -1.3648   -0.5178 H   0  0  0  0  0  0  0  0  0  0  0  0
   -0.2233    2.3209    0.9577 H   0  0  0  0  0  0  0  0  0  0  0  0
    2.0274    3.3023    0.9365 H   0  0  0  0  0  0  0  0  0  0  0  0
    3.9614    1.9763    0.2147 H   0  0  0  0  0  0  0  0  0  0  0  0
   -1.9101    1.5665   -0.5345 H   0  0  0  0  0  0  0  0  0  0  0  0
  4 17  1  0
  5  6  2  0
  5 15  1  0
  6  7  1  0
 17 15  1  0
 15 14  2  0
  7 13  2  0
 16  1  2  0
 14 13  1  0
 13  9  1  0
  8  9  1  0
  8  3  2  0
  1  3  1  0
  1  2  1  0
  9 10  2  0
  3 12  1  0
 10 11  1  0
 12 11  2  0
  2 18  1  0
  4 19  1  0
  4 20  1  0
  4 21  1  0
  5 22  1  0
  6 23  1  0
  7 24  1  0
  8 25  1  0
 10 26  1  0
 11 27  1  0
 12 28  1  0
 14 29  1  0
M  END
