
     RDKit          3D

 41 42  0  0  0  0  0  0  0  0999 V2000
    0.2800   -0.8543    0.7534 N   0  0  0  0  0  0  0  0  0  0  0  0
   -4.8675   -0.3825   -0.1675 C   0  0  0  0  0  0  0  0  0  0  0  0
   -2.4637    0.0884    0.4281 C   0  0  1  0  0  0  0  0  0  0  0  0
   -1.2498    1.0173    0.3363 C   0  0  0  0  0  0  0  0  0  0  0  0
   -0.0622    0.5035    1.1444 C   0  0  0  0  0  0  0  0  0  0  0  0
   -0.8366   -1.7723    0.9034 C   0  0  0  0  0  0  0  0  0  0  0  0
    1.3349   -1.1908   -0.0150 C   0  0  0  0  0  0  0  0  0  0  0  0
    4.2813    0.9645    1.0005 C   0  0  0  0  0  0  0  0  0  0  0  0
    4.1217    0.9375   -1.3978 C   0  0  0  0  0  0  0  0  0  0  0  0
   -3.7035    0.5961   -0.3548 C   0  0  2  0  0  0  0  0  0  0  0  0
   -4.1422    1.9562    0.1982 C   0  0  0  0  0  0  0  0  0  0  0  0
   -2.0293   -1.3339    0.0633 C   0  0  0  0  0  0  0  0  0  0  0  0
    1.4083   -2.2492   -0.6287 O   0  0  0  0  0  0  0  0  0  0  0  0
    2.4912   -0.2413   -0.0723 C   0  0  0  0  0  0  0  0  0  0  0  0
    3.1422    0.1764    1.0857 C   0  0  0  0  0  0  0  0  0  0  0  0
    4.7686    1.3525   -0.2407 C   0  0  0  0  0  0  0  0  0  0  0  0
    2.9961    0.1306   -1.3150 C   0  0  0  0  0  0  0  0  0  0  0  0
   -4.6789   -1.3457   -0.6436 H   0  0  0  0  0  0  0  0  0  0  0  0
   -5.0678   -0.5677    0.8906 H   0  0  0  0  0  0  0  0  0  0  0  0
   -5.7803    0.0207   -0.6106 H   0  0  0  0  0  0  0  0  0  0  0  0
   -2.7671    0.0618    1.4857 H   0  0  0  0  0  0  0  0  0  0  0  0
   -0.9347    1.1337   -0.7054 H   0  0  0  0  0  0  0  0  0  0  0  0
   -1.4909    2.0154    0.7060 H   0  0  0  0  0  0  0  0  0  0  0  0
   -0.3040    0.5071    2.2117 H   0  0  0  0  0  0  0  0  0  0  0  0
    0.7872    1.1671    1.0077 H   0  0  0  0  0  0  0  0  0  0  0  0
   -0.5204   -2.7789    0.6427 H   0  0  0  0  0  0  0  0  0  0  0  0
   -1.1173   -1.7807    1.9617 H   0  0  0  0  0  0  0  0  0  0  0  0
    4.4990    1.2339   -2.3676 H   0  0  0  0  0  0  0  0  0  0  0  0
   -4.3275    1.0771   -2.3715 H   0  0  0  0  0  0  0  0  0  0  0  0
   -2.6483    1.4828   -2.0558 H   0  0  0  0  0  0  0  0  0  0  0  0
   -3.1202   -0.1977   -2.3113 H   0  0  0  0  0  0  0  0  0  0  0  0
   -4.3319    1.9073    1.2732 H   0  0  0  0  0  0  0  0  0  0  0  0
   -3.3977    2.7341    0.0250 H   0  0  0  0  0  0  0  0  0  0  0  0
   -5.0651    2.2812   -0.2863 H   0  0  0  0  0  0  0  0  0  0  0  0
   -2.8383   -2.0466    0.2322 H   0  0  0  0  0  0  0  0  0  0  0  0
   -1.7610   -1.4026   -0.9952 H   0  0  0  0  0  0  0  0  0  0  0  0
    2.7685   -0.1222    2.0575 H   0  0  0  0  0  0  0  0  0  0  0  0
    5.6524    1.9736   -0.3067 H   0  0  0  0  0  0  0  0  0  0  0  0
    2.5039   -0.2004   -2.2207 H   0  0  0  0  0  0  0  0  0  0  0  0
   -3.4256    0.7445   -1.8527 C   0  0  0  0  0  0  0  0  0  0  0  0
    4.7885    1.2738    1.9050 H   0  0  0  0  0  0  0  0  0  0  0  0
  8 16  2  0
  8 15  1  0
 16  9  1  0
 15 14  2  0
  9 17  2  0
 10 40  1  6
 14 17  1  0
 14  7  1  0
  4  5  1  0
  4  3  1  0
  7 13  2  0
  7  1  1  0
  2 10  1  0
 10  3  1  0
 10 11  1  0
  5  1  1  0
  1  6  1  0
  3 12  1  0
 12  6  1  0
  2 18  1  0
  2 19  1  0
  2 20  1  0
  3 21  1  1
  4 22  1  0
  4 23  1  0
  5 24  1  0
  5 25  1  0
  6 26  1  0
  6 27  1  0
  8 41  1  0
  9 28  1  0
 40 29  1  0
 40 30  1  0
 40 31  1  0
 11 32  1  0
 11 33  1  0
 11 34  1  0
 12 35  1  0
 12 36  1  0
 15 37  1  0
 16 38  1  0
 17 39  1  0
M  END
