
     RDKit          3D

 37 39  0  0  0  0  0  0  0  0999 V2000
    4.6207    2.0162   -0.5860 C   0  0  0  0  0  0  0  0  0  0  0  0
    4.4065    0.5098   -0.7346 C   0  0  1  0  0  0  0  0  0  0  0  0
    5.5506   -0.2714   -0.0882 C   0  0  0  0  0  0  0  0  0  0  0  0
    3.0673    0.0914   -0.1763 C   0  0  0  0  0  0  0  0  0  0  0  0
    2.0857   -0.4564   -0.9939 C   0  0  0  0  0  0  0  0  0  0  0  0
    0.8507   -0.8429   -0.4847 C   0  0  0  0  0  0  0  0  0  0  0  0
    2.7766    0.2392    1.1809 C   0  0  0  0  0  0  0  0  0  0  0  0
    1.5481   -0.1426    1.6913 C   0  0  0  0  0  0  0  0  0  0  0  0
    0.5652   -0.6828    0.8642 C   0  0  0  0  0  0  0  0  0  0  0  0
   -0.7839   -1.0216    1.4792 C   0  0  2  0  0  0  0  0  0  0  0  0
   -1.5445   -1.9840    0.7202 N   0  0  0  0  0  0  0  0  0  0  0  0
   -2.3575   -1.6664   -0.3122 C   0  0  0  0  0  0  0  0  0  0  0  0
   -2.8326   -2.5071   -1.0619 O   0  0  0  0  0  0  0  0  0  0  0  0
   -2.6618   -0.2276   -0.4296 C   0  0  0  0  0  0  0  0  0  0  0  0
   -3.3872    0.2819   -1.4927 C   0  0  0  0  0  0  0  0  0  0  0  0
   -3.7137    1.6288   -1.5085 C   0  0  0  0  0  0  0  0  0  0  0  0
   -3.3101    2.4029   -0.4301 C   0  0  0  0  0  0  0  0  0  0  0  0
   -2.6140    1.9418    0.6009 N   0  0  0  0  0  0  0  0  0  0  0  0
   -2.2841    0.6541    0.5994 C   0  0  0  0  0  0  0  0  0  0  0  0
   -1.6007    0.1609    1.6653 N   0  0  0  0  0  0  0  0  0  0  0  0
    3.8233    2.5823   -1.0686 H   0  0  0  0  0  0  0  0  0  0  0  0
    4.6507    2.3117    0.4647 H   0  0  0  0  0  0  0  0  0  0  0  0
    5.5669    2.3156   -1.0396 H   0  0  0  0  0  0  0  0  0  0  0  0
    4.4046    0.2762   -1.8037 H   0  0  0  0  0  0  0  0  0  0  0  0
    5.6109   -0.0758    0.9844 H   0  0  0  0  0  0  0  0  0  0  0  0
    5.4265   -1.3462   -0.2255 H   0  0  0  0  0  0  0  0  0  0  0  0
    6.5069    0.0149   -0.5289 H   0  0  0  0  0  0  0  0  0  0  0  0
    2.2856   -0.5925   -2.0504 H   0  0  0  0  0  0  0  0  0  0  0  0
    3.5204    0.6523    1.8528 H   0  0  0  0  0  0  0  0  0  0  0  0
    0.1266   -1.2821   -1.1587 H   0  0  0  0  0  0  0  0  0  0  0  0
    1.3529   -0.0222    2.7516 H   0  0  0  0  0  0  0  0  0  0  0  0
   -0.6104   -1.4497    2.4675 H   0  0  0  0  0  0  0  0  0  0  0  0
   -1.2812   -2.9535    0.8206 H   0  0  0  0  0  0  0  0  0  0  0  0
   -1.2412    0.8462    2.3133 H   0  0  0  0  0  0  0  0  0  0  0  0
   -3.6988   -0.3733   -2.2958 H   0  0  0  0  0  0  0  0  0  0  0  0
   -4.2718    2.0678   -2.3224 H   0  0  0  0  0  0  0  0  0  0  0  0
   -3.5615    3.4573   -0.3966 H   0  0  0  0  0  0  0  0  0  0  0  0
  1  2  1  0
  2  3  1  0
  2  4  1  0
  4  5  2  0
  4  7  1  0
  5  6  1  0
  6  9  2  0
  7  8  2  0
  8  9  1  0
  9 10  1  0
 10 11  1  0
 10 20  1  0
 11 12  1  0
 12 13  2  0
 12 14  1  0
 14 15  2  0
 14 19  1  0
 15 16  1  0
 16 17  2  0
 17 18  1  0
 18 19  2  0
 19 20  1  0
  1 21  1  0
  1 22  1  0
  1 23  1  0
  2 24  1  6
  3 25  1  0
  3 26  1  0
  3 27  1  0
  5 28  1  0
  7 29  1  0
  6 30  1  0
  8 31  1  0
 10 32  1  1
 11 33  1  0
 20 34  1  0
 15 35  1  0
 16 36  1  0
 17 37  1  0
M  END
