
     RDKit          3D

 41 41  0  0  0  0  0  0  0  0999 V2000
   -3.7379   -1.3957   -0.0801 C   0  0  0  0  0  0  0  0  0  0  0  0
   -4.8118   -0.5085   -0.0322 C   0  0  0  0  0  0  0  0  0  0  0  0
   -4.5823    0.8668    0.0296 C   0  0  0  0  0  0  0  0  0  0  0  0
   -3.2829    1.3503    0.0592 C   0  0  0  0  0  0  0  0  0  0  0  0
   -2.2112    0.4612    0.0258 C   0  0  0  0  0  0  0  0  0  0  0  0
   -2.4361   -0.9108   -0.0493 C   0  0  0  0  0  0  0  0  0  0  0  0
   -5.6025    1.7402    0.0577 O   0  0  0  0  0  0  0  0  0  0  0  0
   -6.0936   -0.9832   -0.1021 O   0  0  0  0  0  0  0  0  0  0  0  0
   -3.9333   -2.7224   -0.1586 O   0  0  0  0  0  0  0  0  0  0  0  0
   -0.8275    1.0242    0.0610 C   0  0  0  0  0  0  0  0  0  0  0  0
    0.3415    0.0714    0.0352 C   0  0  0  0  0  0  0  0  0  0  0  0
    1.7007    0.7526    0.0502 C   0  0  0  0  0  0  0  0  0  0  0  0
    2.8469   -0.2512    0.0326 C   0  0  0  0  0  0  0  0  0  0  0  0
    4.2134    0.4225    0.0228 C   0  0  0  0  0  0  0  0  0  0  0  0
    5.3760   -0.5622    0.0118 C   0  0  0  0  0  0  0  0  0  0  0  0
    6.7365    0.1234   -0.0112 C   0  0  0  0  0  0  0  0  0  0  0  0
    7.9081   -0.8510   -0.0182 C   0  0  0  0  0  0  0  0  0  0  0  0
    9.2579   -0.1470   -0.0499 C   0  0  0  0  0  0  0  0  0  0  0  0
   -0.6608    2.2248    0.1122 O   0  0  0  0  0  0  0  0  0  0  0  0
   -3.1145    2.4178    0.1095 H   0  0  0  0  0  0  0  0  0  0  0  0
   -1.6220   -1.6217   -0.0841 H   0  0  0  0  0  0  0  0  0  0  0  0
   -6.4433    1.2703   -0.0139 H   0  0  0  0  0  0  0  0  0  0  0  0
   -6.4297   -1.1758    0.7835 H   0  0  0  0  0  0  0  0  0  0  0  0
   -4.8746   -2.9132   -0.2612 H   0  0  0  0  0  0  0  0  0  0  0  0
    0.2484   -0.6095    0.8889 H   0  0  0  0  0  0  0  0  0  0  0  0
    0.2500   -0.5683   -0.8495 H   0  0  0  0  0  0  0  0  0  0  0  0
    1.7905    1.4182   -0.8125 H   0  0  0  0  0  0  0  0  0  0  0  0
    1.7892    1.3863    0.9365 H   0  0  0  0  0  0  0  0  0  0  0  0
    2.7703   -0.9101    0.9046 H   0  0  0  0  0  0  0  0  0  0  0  0
    2.7546   -0.8995   -0.8459 H   0  0  0  0  0  0  0  0  0  0  0  0
    4.2869    1.0779   -0.8523 H   0  0  0  0  0  0  0  0  0  0  0  0
    4.3019    1.0769    0.8971 H   0  0  0  0  0  0  0  0  0  0  0  0
    5.3099   -1.2132    0.8908 H   0  0  0  0  0  0  0  0  0  0  0  0
    5.2862   -1.2207   -0.8595 H   0  0  0  0  0  0  0  0  0  0  0  0
    6.8010    0.7717   -0.8927 H   0  0  0  0  0  0  0  0  0  0  0  0
    6.8241    0.7868    0.8568 H   0  0  0  0  0  0  0  0  0  0  0  0
    7.8486   -1.4945    0.8651 H   0  0  0  0  0  0  0  0  0  0  0  0
    7.8201   -1.5156   -0.8832 H   0  0  0  0  0  0  0  0  0  0  0  0
    9.3553    0.4750   -0.9422 H   0  0  0  0  0  0  0  0  0  0  0  0
    9.3825    0.5043    0.8177 H   0  0  0  0  0  0  0  0  0  0  0  0
   10.0850   -0.8578   -0.0506 H   0  0  0  0  0  0  0  0  0  0  0  0
  9  1  1  0
 19 10  2  0
 14 13  1  0
 14 15  1  0
  6  1  2  0
  6  5  1  0
  1  2  1  0
 12 13  1  0
 12 11  1  0
 10  5  1  0
 10 11  1  0
  5  4  2  0
  2  8  1  0
  2  3  2  0
 18 17  1  0
 15 16  1  0
  4  3  1  0
  3  7  1  0
 16 17  1  0
  4 20  1  0
  6 21  1  0
  7 22  1  0
  8 23  1  0
  9 24  1  0
 11 25  1  0
 11 26  1  0
 12 27  1  0
 12 28  1  0
 13 29  1  0
 13 30  1  0
 14 31  1  0
 14 32  1  0
 15 33  1  0
 15 34  1  0
 16 35  1  0
 16 36  1  0
 17 37  1  0
 17 38  1  0
 18 39  1  0
 18 40  1  0
 18 41  1  0
M  END
