
     RDKit          3D

 48 51  0  0  0  0  0  0  0  0999 V2000
   -2.1994    0.7748    0.0225 C   0  0  0  0  0  0  0  0  0  0  0  0
   -4.2629   -1.0846   -0.2461 C   0  0  0  0  0  0  0  0  0  0  0  0
   -4.5210    0.2510   -0.4156 C   0  0  0  0  0  0  0  0  0  0  0  0
    2.7658    0.2658    0.7141 C   0  0  0  0  0  0  0  0  0  0  0  0
   -2.8250    3.4755   -0.4002 C   0  0  0  0  0  0  0  0  0  0  0  0
    2.6122    1.5232    1.2472 C   0  0  0  0  0  0  0  0  0  0  0  0
    4.8061    1.0540   -0.3969 C   0  0  0  0  0  0  0  0  0  0  0  0
    4.1598   -1.2727   -0.6909 C   0  0  0  0  0  0  0  0  0  0  0  0
    4.5904    2.3356    0.1577 C   0  0  0  0  0  0  0  0  0  0  0  0
    5.2569   -1.4800   -1.4820 C   0  0  0  0  0  0  0  0  0  0  0  0
   -6.8106   -0.1043   -0.8701 C   0  0  0  0  0  0  0  0  0  0  0  0
   -5.7135    0.7761   -0.7081 O   0  0  0  0  0  0  0  0  0  0  0  0
   -3.4629    1.2041   -0.2825 C   0  0  0  0  0  0  0  0  0  0  0  0
   -3.8253    2.4800   -0.4795 O   0  0  0  0  0  0  0  0  0  0  0  0
   -1.9269   -0.5992    0.2005 C   0  0  0  0  0  0  0  0  0  0  0  0
   -2.9612   -1.5363    0.0619 C   0  0  0  0  0  0  0  0  0  0  0  0
   -2.7535   -2.8719    0.2160 N   0  0  0  0  0  0  0  0  0  0  0  0
   -1.5322   -3.2262    0.5017 C   0  0  0  0  0  0  0  0  0  0  0  0
   -0.4650   -2.4390    0.6710 N   0  0  0  0  0  0  0  0  0  0  0  0
   -0.6361   -1.1343    0.5270 C   0  0  0  0  0  0  0  0  0  0  0  0
    0.4242   -0.3305    0.6871 N   0  0  0  0  0  0  0  0  0  0  0  0
    1.7485   -0.7987    1.0709 C   0  0  2  0  0  0  0  0  0  0  0  0
    1.8285   -1.1535    2.5552 C   0  0  0  0  0  0  0  0  0  0  0  0
    3.8899   -0.0017   -0.1217 C   0  0  0  0  0  0  0  0  0  0  0  0
    6.1538   -0.4289   -1.7561 C   0  0  0  0  0  0  0  0  0  0  0  0
    5.9288    0.8091   -1.2232 C   0  0  0  0  0  0  0  0  0  0  0  0
    3.5150    2.5650    0.9674 C   0  0  0  0  0  0  0  0  0  0  0  0
   -1.4072    1.5029    0.1217 H   0  0  0  0  0  0  0  0  0  0  0  0
   -5.0397   -1.8306   -0.3455 H   0  0  0  0  0  0  0  0  0  0  0  0
   -2.3778    3.5230    0.5967 H   0  0  0  0  0  0  0  0  0  0  0  0
   -2.0345    3.3140   -1.1391 H   0  0  0  0  0  0  0  0  0  0  0  0
   -3.3141    4.4230   -0.6091 H   0  0  0  0  0  0  0  0  0  0  0  0
    1.7830    1.7317    1.9157 H   0  0  0  0  0  0  0  0  0  0  0  0
    3.4993   -2.1073   -0.5026 H   0  0  0  0  0  0  0  0  0  0  0  0
    5.2941    3.1294   -0.0622 H   0  0  0  0  0  0  0  0  0  0  0  0
    5.4379   -2.4616   -1.9001 H   0  0  0  0  0  0  0  0  0  0  0  0
   -6.6389   -0.8181   -1.6792 H   0  0  0  0  0  0  0  0  0  0  0  0
   -7.0244   -0.6557    0.0488 H   0  0  0  0  0  0  0  0  0  0  0  0
   -7.6685    0.5148   -1.1183 H   0  0  0  0  0  0  0  0  0  0  0  0
   -1.3474   -4.2893    0.6238 H   0  0  0  0  0  0  0  0  0  0  0  0
    0.2988    0.6606    0.5757 H   0  0  0  0  0  0  0  0  0  0  0  0
    1.9335   -1.7089    0.5044 H   0  0  0  0  0  0  0  0  0  0  0  0
    1.6132   -0.2875    3.1813 H   0  0  0  0  0  0  0  0  0  0  0  0
    1.1188   -1.9428    2.7991 H   0  0  0  0  0  0  0  0  0  0  0  0
    2.8304   -1.5078    2.8001 H   0  0  0  0  0  0  0  0  0  0  0  0
    7.0167   -0.6052   -2.3847 H   0  0  0  0  0  0  0  0  0  0  0  0
    6.6125    1.6250   -1.4257 H   0  0  0  0  0  0  0  0  0  0  0  0
    3.3517    3.5423    1.4022 H   0  0  0  0  0  0  0  0  0  0  0  0
 23 22  1  0
 22  4  1  0
 22 21  1  0
  6  4  2  0
  6 27  1  0
  4 24  1  0
 21 20  1  0
 27  9  2  0
 24  8  2  0
 24  7  1  0
  8 10  1  0
  9  7  1  0
  7 26  2  0
 19 20  2  0
 19 18  1  0
 20 15  1  0
 10 25  2  0
 26 25  1  0
 18 17  2  0
 15  1  2  0
 15 16  1  0
  1 13  1  0
  5 14  1  0
 17 16  1  0
 16  2  2  0
 13 14  1  0
 13  3  2  0
  2  3  1  0
  3 12  1  0
 12 11  1  0
  1 28  1  0
  2 29  1  0
  5 30  1  0
  5 31  1  0
  5 32  1  0
  6 33  1  0
  8 34  1  0
  9 35  1  0
 10 36  1  0
 11 37  1  0
 11 38  1  0
 11 39  1  0
 18 40  1  0
 21 41  1  0
 22 42  1  6
 23 43  1  0
 23 44  1  0
 23 45  1  0
 25 46  1  0
 26 47  1  0
 27 48  1  0
M  END
