
     RDKit          3D

 46 48  0  0  0  0  0  0  0  0999 V2000
   -6.1388   -1.6716    2.3504 C   0  0  0  0  0  0  0  0  0  0  0  0
   -6.0272   -0.5484    1.3616 C   0  0  0  0  0  0  0  0  0  0  0  0
   -7.1161    0.2737    1.0818 C   0  0  0  0  0  0  0  0  0  0  0  0
   -7.0014    1.3400    0.1982 C   0  0  0  0  0  0  0  0  0  0  0  0
   -5.7921    1.6065   -0.4197 C   0  0  0  0  0  0  0  0  0  0  0  0
   -4.6949    0.7813   -0.1719 C   0  0  0  0  0  0  0  0  0  0  0  0
   -4.8231   -0.2867    0.7152 C   0  0  0  0  0  0  0  0  0  0  0  0
   -3.3961    1.0980   -0.8140 C   0  0  0  0  0  0  0  0  0  0  0  0
   -3.1337    2.2220   -1.1877 O   0  0  0  0  0  0  0  0  0  0  0  0
   -2.3950    0.0030   -1.0007 C   0  0  0  0  0  0  0  0  0  0  0  0
   -2.7740   -1.2556   -1.4667 C   0  0  0  0  0  0  0  0  0  0  0  0
   -1.7669   -2.1811   -1.6810 C   0  0  0  0  0  0  0  0  0  0  0  0
   -0.4843   -1.9552   -1.4437 N   0  0  0  0  0  0  0  0  0  0  0  0
   -0.1206   -0.7525   -0.9868 C   0  0  0  0  0  0  0  0  0  0  0  0
    1.1979   -0.5723   -0.7520 N   0  0  0  0  0  0  0  0  0  0  0  0
    1.7674    0.6425   -0.2149 C   0  0  0  0  0  0  0  0  0  0  0  0
    3.2406    0.4537    0.0133 C   0  0  0  0  0  0  0  0  0  0  0  0
    3.7082   -0.0588    1.2197 C   0  0  0  0  0  0  0  0  0  0  0  0
    5.0621   -0.2734    1.4181 C   0  0  0  0  0  0  0  0  0  0  0  0
    5.9804    0.0252    0.4137 C   0  0  0  0  0  0  0  0  0  0  0  0
    5.5142    0.5449   -0.7920 C   0  0  0  0  0  0  0  0  0  0  0  0
    4.1570    0.7479   -0.9902 C   0  0  0  0  0  0  0  0  0  0  0  0
    7.4317   -0.2323    0.6365 C   0  0  0  0  0  0  0  0  0  0  0  0
    8.2712    0.6517    0.0289 N   0  0  0  0  0  0  0  0  0  0  0  0
    7.8959   -1.2202    1.3018 N   0  0  0  0  0  0  0  0  0  0  0  0
   -1.0596    0.2728   -0.7696 C   0  0  0  0  0  0  0  0  0  0  0  0
   -5.9536   -1.3147    3.3654 H   0  0  0  0  0  0  0  0  0  0  0  0
   -7.1336   -2.1158    2.3409 H   0  0  0  0  0  0  0  0  0  0  0  0
   -5.4143   -2.4584    2.1441 H   0  0  0  0  0  0  0  0  0  0  0  0
   -8.0689    0.0790    1.5602 H   0  0  0  0  0  0  0  0  0  0  0  0
   -7.8618    1.9635   -0.0068 H   0  0  0  0  0  0  0  0  0  0  0  0
   -5.7043    2.4378   -1.1065 H   0  0  0  0  0  0  0  0  0  0  0  0
   -3.9700   -0.9206    0.9252 H   0  0  0  0  0  0  0  0  0  0  0  0
   -3.8037   -1.5055   -1.6781 H   0  0  0  0  0  0  0  0  0  0  0  0
   -2.0142   -3.1660   -2.0624 H   0  0  0  0  0  0  0  0  0  0  0  0
    1.7983   -1.3659   -0.9046 H   0  0  0  0  0  0  0  0  0  0  0  0
    1.6043    1.4787   -0.9031 H   0  0  0  0  0  0  0  0  0  0  0  0
    1.2813    0.9079    0.7299 H   0  0  0  0  0  0  0  0  0  0  0  0
    3.0091   -0.2824    2.0164 H   0  0  0  0  0  0  0  0  0  0  0  0
    5.4047   -0.6550    2.3715 H   0  0  0  0  0  0  0  0  0  0  0  0
    6.2075    0.7769   -1.5901 H   0  0  0  0  0  0  0  0  0  0  0  0
    3.8082    1.1423   -1.9368 H   0  0  0  0  0  0  0  0  0  0  0  0
    7.9514    1.5956   -0.1097 H   0  0  0  0  0  0  0  0  0  0  0  0
    9.2480    0.5749    0.2647 H   0  0  0  0  0  0  0  0  0  0  0  0
    7.1467   -1.8358    1.5959 H   0  0  0  0  0  0  0  0  0  0  0  0
   -0.7506    1.2470   -0.4165 H   0  0  0  0  0  0  0  0  0  0  0  0
  1  2  1  0
  1 27  1  0
  1 28  1  0
  1 29  1  0
  2  7  2  0
  2  3  1  0
  3  4  2  0
  3 30  1  0
  4  5  1  0
  4 31  1  0
  5  6  2  0
  5 32  1  0
  6  8  1  0
  6  7  1  0
  7 33  1  0
  8 10  1  0
  8  9  2  0
 10 11  2  0
 10 26  1  0
 11 12  1  0
 11 34  1  0
 12 13  2  0
 12 35  1  0
 13 14  1  0
 14 15  1  0
 14 26  2  0
 15 16  1  0
 15 36  1  0
 16 17  1  0
 16 37  1  0
 16 38  1  0
 17 22  1  0
 17 18  2  0
 18 19  1  0
 18 39  1  0
 19 20  2  0
 19 40  1  0
 20 21  1  0
 20 23  1  0
 21 22  2  0
 21 41  1  0
 22 42  1  0
 23 24  1  0
 23 25  2  0
 24 43  1  0
 24 44  1  0
 25 45  1  0
 26 46  1  0
M  END
