
     RDKit          3D

 28 28  0  0  0  0  0  0  0  0999 V2000
    1.2677    1.2744    2.3569 N   0  0  0  0  0  0  0  0  0  0  0  0
    0.0487    0.5244    2.1444 C   0  0  2  0  0  0  0  0  0  0  0  0
   -0.6326    0.2281    3.4693 C   0  0  0  0  0  0  0  0  0  0  0  0
   -0.1276   -0.1070    4.5431 O   0  0  0  0  0  0  0  0  0  0  0  0
    0.1982   -0.8269    1.4104 C   0  0  0  0  0  0  0  0  0  0  0  0
    0.6115   -0.6280   -0.0030 C   0  0  0  0  0  0  0  0  0  0  0  0
   -0.3562   -0.4365   -0.9965 C   0  0  0  0  0  0  0  0  0  0  0  0
    1.9674   -0.6307   -0.3519 C   0  0  0  0  0  0  0  0  0  0  0  0
    0.0335   -0.2486   -2.3249 C   0  0  0  0  0  0  0  0  0  0  0  0
    2.3519   -0.4438   -1.6787 C   0  0  0  0  0  0  0  0  0  0  0  0
    1.3898   -0.2530   -2.6693 C   0  0  0  0  0  0  0  0  0  0  0  0
   -1.0124   -0.0452   -3.3797 C   0  0  0  0  0  0  0  0  0  0  0  0
   -1.9038   -0.9746   -3.5502 N   0  0  0  0  0  0  0  0  0  0  0  0
   -0.9006    1.1750   -4.0841 N   0  0  0  0  0  0  0  0  0  0  0  0
   -1.9854    0.3611    3.4264 O   0  0  0  0  0  0  0  0  0  0  0  0
    1.4928    1.7943    1.5304 H   0  0  0  0  0  0  0  0  0  0  0  0
    2.0296    0.6660    2.5881 H   0  0  0  0  0  0  0  0  0  0  0  0
   -0.6412    1.1819    1.5317 H   0  0  0  0  0  0  0  0  0  0  0  0
    0.9487   -1.4647    1.9479 H   0  0  0  0  0  0  0  0  0  0  0  0
   -0.7903   -1.3583    1.4500 H   0  0  0  0  0  0  0  0  0  0  0  0
   -1.4241   -0.4330   -0.7285 H   0  0  0  0  0  0  0  0  0  0  0  0
    2.7330   -0.7810    0.4249 H   0  0  0  0  0  0  0  0  0  0  0  0
    3.4189   -0.4471   -1.9460 H   0  0  0  0  0  0  0  0  0  0  0  0
    1.6991   -0.1056   -3.7157 H   0  0  0  0  0  0  0  0  0  0  0  0
   -2.5879   -0.8130   -4.2587 H   0  0  0  0  0  0  0  0  0  0  0  0
   -1.5412    1.4134   -4.8044 H   0  0  0  0  0  0  0  0  0  0  0  0
   -0.1719    1.8121   -3.8626 H   0  0  0  0  0  0  0  0  0  0  0  0
   -2.3613    0.1592    4.2997 H   0  0  0  0  0  0  0  0  0  0  0  0
  1  2  1  0
  1 16  1  0
  1 17  1  0
  2  3  1  0
  2  5  1  0
  2 18  1  6
  3  4  2  0
  3 15  1  0
  5  6  1  0
  5 19  1  0
  5 20  1  0
  6  7  2  0
  6  8  1  0
  7  9  1  0
  7 21  1  0
  8 10  2  0
  8 22  1  0
  9 11  2  0
  9 12  1  0
 10 11  1  0
 10 23  1  0
 11 24  1  0
 12 13  2  0
 12 14  1  0
 13 25  1  0
 14 26  1  0
 14 27  1  0
 15 28  1  0
M  END
