
     RDKit          3D

 32 32  0  0  0  0  0  0  0  0999 V2000
   -1.6948    1.2213    0.4642 C   0  0  0  0  0  0  0  0  0  0  0  0
    1.1604    0.9948    0.5671 C   0  0  0  0  0  0  0  0  0  0  0  0
    2.4759    1.1592   -0.1718 C   0  0  0  0  0  0  0  0  0  0  0  0
    0.3622   -0.0347   -0.0724 N   0  0  0  0  0  0  0  0  0  0  0  0
    2.4331   -1.0621   -0.8279 C   0  0  0  0  0  0  0  0  0  0  0  0
    1.1261   -1.2708   -0.0870 C   0  0  0  0  0  0  0  0  0  0  0  0
   -1.5850    1.9796   -0.7691 N   0  0  0  0  0  0  0  0  0  0  0  0
   -1.0310   -0.1626    0.3949 C   0  0  1  0  0  0  0  0  0  0  0  0
   -1.1308   -0.7765    1.7987 C   0  0  0  0  0  0  0  0  0  0  0  0
   -1.7862   -1.0548   -0.6181 C   0  0  0  0  0  0  0  0  0  0  0  0
   -3.3054   -1.0856   -0.4898 C   0  0  0  0  0  0  0  0  0  0  0  0
    3.2097   -0.0429   -0.2397 O   0  0  0  0  0  0  0  0  0  0  0  0
   -1.2370    1.8033    1.2683 H   0  0  0  0  0  0  0  0  0  0  0  0
   -2.7316    1.0637    0.7895 H   0  0  0  0  0  0  0  0  0  0  0  0
    1.3642    0.7780    1.6300 H   0  0  0  0  0  0  0  0  0  0  0  0
    0.6506    1.9559    0.5199 H   0  0  0  0  0  0  0  0  0  0  0  0
    2.2680    1.5376   -1.1834 H   0  0  0  0  0  0  0  0  0  0  0  0
    3.1012    1.8936    0.3395 H   0  0  0  0  0  0  0  0  0  0  0  0
    3.0271   -1.9777   -0.8053 H   0  0  0  0  0  0  0  0  0  0  0  0
    2.2186   -0.8240   -1.8800 H   0  0  0  0  0  0  0  0  0  0  0  0
    1.3491   -1.6444    0.9266 H   0  0  0  0  0  0  0  0  0  0  0  0
    0.5770   -2.0584   -0.6023 H   0  0  0  0  0  0  0  0  0  0  0  0
   -2.0309    1.4743   -1.5247 H   0  0  0  0  0  0  0  0  0  0  0  0
   -2.1121    2.8384   -0.6731 H   0  0  0  0  0  0  0  0  0  0  0  0
   -2.1632   -0.7809    2.1520 H   0  0  0  0  0  0  0  0  0  0  0  0
   -0.7785   -1.8087    1.8149 H   0  0  0  0  0  0  0  0  0  0  0  0
   -0.5430   -0.2101    2.5240 H   0  0  0  0  0  0  0  0  0  0  0  0
   -1.5121   -0.7437   -1.6303 H   0  0  0  0  0  0  0  0  0  0  0  0
   -1.4298   -2.0827   -0.5205 H   0  0  0  0  0  0  0  0  0  0  0  0
   -3.7180   -1.8272   -1.1746 H   0  0  0  0  0  0  0  0  0  0  0  0
   -3.6286   -1.3603    0.5151 H   0  0  0  0  0  0  0  0  0  0  0  0
   -3.7664   -0.1286   -0.7378 H   0  0  0  0  0  0  0  0  0  0  0  0
 12  3  1  0
 12  5  1  0
  3  2  1  0
  2  4  1  0
  5  6  1  0
  6  4  1  0
  8  9  1  1
  4  8  1  0
  1  8  1  0
  1  7  1  0
  8 10  1  0
 10 11  1  0
  1 13  1  0
  1 14  1  0
  2 15  1  0
  2 16  1  0
  3 17  1  0
  3 18  1  0
  5 19  1  0
  5 20  1  0
  6 21  1  0
  6 22  1  0
  7 23  1  0
  7 24  1  0
  9 25  1  0
  9 26  1  0
  9 27  1  0
 10 28  1  0
 10 29  1  0
 11 30  1  0
 11 31  1  0
 11 32  1  0
M  END
