
     RDKit          3D

 80 86  0  0  0  0  0  0  0  0999 V2000
    4.8618    1.1913    0.3209 C   0  0  0  0  0  0  0  0  0  0  0  0
    4.5012    3.2728   -0.9670 C   0  0  0  0  0  0  0  0  0  0  0  0
    3.6554    4.5397   -0.7223 C   0  0  1  0  0  0  0  0  0  0  0  0
    3.1421    4.4030    0.7345 C   0  0  1  0  0  0  0  0  0  0  0  0
    3.2819    2.9106    0.9889 C   0  0  1  0  0  0  0  0  0  0  0  0
    2.0891    2.1648    0.3863 C   0  0  0  0  0  0  0  0  0  0  0  0
    3.6796    0.2759    0.1788 C   0  0  0  0  0  0  0  0  0  0  0  0
    3.6256   -1.1112    0.1802 C   0  0  0  0  0  0  0  0  0  0  0  0
    2.2625   -1.4609    0.2337 C   0  0  0  0  0  0  0  0  0  0  0  0
    1.5249   -0.2986    0.2365 C   0  0  0  0  0  0  0  0  0  0  0  0
    0.0600   -0.2360    0.2028 C   0  0  0  0  0  0  0  0  0  0  0  0
   -1.8073    1.1853   -0.6356 C   0  0  0  0  0  0  0  0  0  0  0  0
   -3.1850    2.6929   -1.6471 C   0  0  0  0  0  0  0  0  0  0  0  0
   -4.3171    2.1409   -1.0752 C   0  0  0  0  0  0  0  0  0  0  0  0
   -4.1571    1.0450   -0.2298 C   0  0  0  0  0  0  0  0  0  0  0  0
   -2.8767    0.5528   -0.0041 C   0  0  0  0  0  0  0  0  0  0  0  0
   -5.3094    0.4154    0.4173 C   0  0  0  0  0  0  0  0  0  0  0  0
   -6.3003    1.0199    1.1291 C   0  0  0  0  0  0  0  0  0  0  0  0
   -5.6350   -0.9722    0.5056 C   0  0  0  0  0  0  0  0  0  0  0  0
   -4.9276   -2.1224   -0.0666 C   0  0  0  0  0  0  0  0  0  0  0  0
   -4.3901   -2.0568   -1.3509 C   0  0  0  0  0  0  0  0  0  0  0  0
   -3.7290   -3.1436   -1.8986 C   0  0  0  0  0  0  0  0  0  0  0  0
   -3.6129   -4.2955   -1.1443 C   0  0  0  0  0  0  0  0  0  0  0  0
   -4.1375   -4.3974    0.1297 C   0  0  0  0  0  0  0  0  0  0  0  0
   -4.7976   -3.3021    0.6640 C   0  0  0  0  0  0  0  0  0  0  0  0
   -6.5802    2.4412    1.4772 C   0  0  1  0  0  0  0  0  0  0  0  0
   -7.8208    2.9527    0.7401 C   0  0  0  0  0  0  0  0  0  0  0  0
   -6.7102    2.6368    2.9888 C   0  0  0  0  0  0  0  0  0  0  0  0
    4.7541   -2.0481    0.1869 C   0  0  0  0  0  0  0  0  0  0  0  0
    4.7249   -3.1770    1.0129 C   0  0  0  0  0  0  0  0  0  0  0  0
    5.7659   -4.0844    1.0344 C   0  0  0  0  0  0  0  0  0  0  0  0
    6.8873   -3.8902    0.2249 C   0  0  0  0  0  0  0  0  0  0  0  0
    9.0296   -4.6453   -0.4584 C   0  0  0  0  0  0  0  0  0  0  0  0
    6.9339   -2.7768   -0.6092 C   0  0  0  0  0  0  0  0  0  0  0  0
    5.8733   -1.8786   -0.6233 C   0  0  0  0  0  0  0  0  0  0  0  0
   -2.9705   -5.3492   -1.6674 F   0  0  0  0  0  0  0  0  0  0  0  0
    4.5237    2.5925    0.3202 N   0  0  0  0  0  0  0  0  0  0  0  0
    2.4103    0.7564    0.2129 N   0  0  0  0  0  0  0  0  0  0  0  0
   -0.4757    0.8144   -0.4887 N   0  0  0  0  0  0  0  0  0  0  0  0
   -1.9609    2.2329   -1.4389 N   0  0  0  0  0  0  0  0  0  0  0  0
   -6.7231   -1.1491    1.1989 N   0  0  0  0  0  0  0  0  0  0  0  0
    4.3585    5.7512   -0.8352 O   0  0  0  0  0  0  0  0  0  0  0  0
    3.9474    5.0942    1.6485 O   0  0  0  0  0  0  0  0  0  0  0  0
   -0.6141   -1.1047    0.7290 O   0  0  0  0  0  0  0  0  0  0  0  0
   -7.1320    0.0875    1.5920 O   0  0  0  0  0  0  0  0  0  0  0  0
    7.8585   -4.8197    0.3132 O   0  0  0  0  0  0  0  0  0  0  0  0
    5.3741    0.9363    1.2560 H   0  0  0  0  0  0  0  0  0  0  0  0
    5.5857    1.0105   -0.4741 H   0  0  0  0  0  0  0  0  0  0  0  0
    4.0493    2.6666   -1.7649 H   0  0  0  0  0  0  0  0  0  0  0  0
    5.5143    3.5238   -1.2893 H   0  0  0  0  0  0  0  0  0  0  0  0
    2.7959    4.5374   -1.3997 H   0  0  0  0  0  0  0  0  0  0  0  0
    2.0950    4.7279    0.8078 H   0  0  0  0  0  0  0  0  0  0  0  0
    3.3477    2.6780    2.0565 H   0  0  0  0  0  0  0  0  0  0  0  0
    1.2270    2.2590    1.0453 H   0  0  0  0  0  0  0  0  0  0  0  0
    1.8198    2.6025   -0.5792 H   0  0  0  0  0  0  0  0  0  0  0  0
    1.8555   -2.4605    0.2160 H   0  0  0  0  0  0  0  0  0  0  0  0
   -3.2702    3.5451   -2.3112 H   0  0  0  0  0  0  0  0  0  0  0  0
   -5.2946    2.5425   -1.3038 H   0  0  0  0  0  0  0  0  0  0  0  0
   -2.7186   -0.2932    0.6435 H   0  0  0  0  0  0  0  0  0  0  0  0
   -4.4942   -1.1580   -1.9442 H   0  0  0  0  0  0  0  0  0  0  0  0
   -3.3152   -3.0944   -2.8970 H   0  0  0  0  0  0  0  0  0  0  0  0
   -4.0305   -5.3113    0.6989 H   0  0  0  0  0  0  0  0  0  0  0  0
   -5.2018   -3.3672    1.6654 H   0  0  0  0  0  0  0  0  0  0  0  0
   -5.7167    3.0152    1.1315 H   0  0  0  0  0  0  0  0  0  0  0  0
   -8.7209    2.4338    1.0719 H   0  0  0  0  0  0  0  0  0  0  0  0
   -7.9552    4.0158    0.9402 H   0  0  0  0  0  0  0  0  0  0  0  0
   -7.7324    2.8231   -0.3389 H   0  0  0  0  0  0  0  0  0  0  0  0
   -5.8203    2.2933    3.5161 H   0  0  0  0  0  0  0  0  0  0  0  0
   -6.8424    3.6960    3.2088 H   0  0  0  0  0  0  0  0  0  0  0  0
   -7.5733    2.1041    3.3890 H   0  0  0  0  0  0  0  0  0  0  0  0
    3.8747   -3.3423    1.6636 H   0  0  0  0  0  0  0  0  0  0  0  0
    5.7231   -4.9478    1.6869 H   0  0  0  0  0  0  0  0  0  0  0  0
    8.8207   -4.6720   -1.5312 H   0  0  0  0  0  0  0  0  0  0  0  0
    9.5380   -3.7067   -0.2225 H   0  0  0  0  0  0  0  0  0  0  0  0
    9.6901   -5.4728   -0.2110 H   0  0  0  0  0  0  0  0  0  0  0  0
    7.7746   -2.5946   -1.2654 H   0  0  0  0  0  0  0  0  0  0  0  0
    5.9235   -1.0408   -1.3071 H   0  0  0  0  0  0  0  0  0  0  0  0
    0.1441    1.3745   -1.0554 H   0  0  0  0  0  0  0  0  0  0  0  0
    4.4315    5.9863   -1.7644 H   0  0  0  0  0  0  0  0  0  0  0  0
    4.2085    5.9278    1.2409 H   0  0  0  0  0  0  0  0  0  0  0  0
 36 23  1  0
 22 23  1  0
 22 21  2  0
 23 24  2  0
 21 20  1  0
 24 25  1  0
 20 25  2  0
 20 19  1  0
 41 19  2  0
 41 45  1  0
 19 17  1  0
 45 18  1  0
 17 18  2  0
 17 15  1  0
 14 15  1  0
 14 13  2  0
 18 26  1  0
 15 16  2  0
 13 40  1  0
 27 26  1  0
 26 28  1  0
 16 12  1  0
 40 12  2  0
 12 39  1  0
 39 11  1  0
 44 11  2  0
 11 10  1  0
 10  9  2  0
 10 38  1  0
  9  8  1  0
 38  6  1  0
 38  7  1  0
  6  5  1  0
  8  7  2  0
  8 29  1  0
 43  4  1  0
  7  1  1  0
  5  4  1  0
  5 37  1  0
  4  3  1  0
 35 29  1  0
 35 34  2  0
 29 30  2  0
 37  1  1  0
 37  2  1  0
 34 32  1  0
 30 31  1  0
  3 42  1  0
  3  2  1  0
 32 31  2  0
 32 46  1  0
 46 33  1  0
  1 47  1  0
  1 48  1  0
  2 49  1  0
  2 50  1  0
  3 51  1  6
  4 52  1  6
  5 53  1  1
  6 54  1  0
  6 55  1  0
  9 56  1  0
 13 57  1  0
 14 58  1  0
 16 59  1  0
 21 60  1  0
 22 61  1  0
 24 62  1  0
 25 63  1  0
 26 64  1  6
 27 65  1  0
 27 66  1  0
 27 67  1  0
 28 68  1  0
 28 69  1  0
 28 70  1  0
 30 71  1  0
 31 72  1  0
 33 73  1  0
 33 74  1  0
 33 75  1  0
 34 76  1  0
 35 77  1  0
 39 78  1  0
 42 79  1  0
 43 80  1  0
M  END
