
     RDKit          3D

 54 56  0  0  0  0  0  0  0  0999 V2000
    0.4387   -0.2941   -0.4312 C   0  0  0  0  0  0  0  0  0  0  0  0
   -3.2541    4.5922    1.2840 C   0  0  0  0  0  0  0  0  0  0  0  0
   -1.6824    3.9904   -0.5675 C   0  0  0  0  0  0  0  0  0  0  0  0
   -4.1004   -0.9518    0.3014 C   0  0  2  0  0  0  0  0  0  0  0  0
   -3.9504   -2.4275   -0.1025 C   0  0  0  0  0  0  0  0  0  0  0  0
   -3.9253   -0.8882    1.8286 C   0  0  0  0  0  0  0  0  0  0  0  0
    3.4982   -0.6672   -0.3913 C   0  0  0  0  0  0  0  0  0  0  0  0
    4.8775   -0.6476   -0.4291 C   0  0  0  0  0  0  0  0  0  0  0  0
    5.6361    0.4863   -0.6707 C   0  0  0  0  0  0  0  0  0  0  0  0
    4.9065    1.6494   -0.8878 C   0  0  0  0  0  0  0  0  0  0  0  0
    3.5323    1.6886   -0.8666 C   0  0  0  0  0  0  0  0  0  0  0  0
    2.8024    0.5209   -0.6136 C   0  0  0  0  0  0  0  0  0  0  0  0
   -5.5008   -0.4847   -0.0720 C   0  0  0  0  0  0  0  0  0  0  0  0
    0.7471   -1.5594   -0.2209 N   0  0  0  0  0  0  0  0  0  0  0  0
   -0.7929    0.2141   -0.4925 N   0  0  0  0  0  0  0  0  0  0  0  0
   -1.8117   -0.6144   -0.3549 C   0  0  0  0  0  0  0  0  0  0  0  0
   -1.5944   -2.0048   -0.2036 C   0  0  0  0  0  0  0  0  0  0  0  0
   -0.2851   -2.4057   -0.1236 C   0  0  0  0  0  0  0  0  0  0  0  0
   -3.0782   -0.1498   -0.3896 N   0  0  0  0  0  0  0  0  0  0  0  0
   -3.2833    1.2635   -0.6781 C   0  0  0  0  0  0  0  0  0  0  0  0
   -3.1141    2.2047    0.5135 C   0  0  0  0  0  0  0  0  0  0  0  0
   -3.0242    3.6730    0.0884 C   0  0  1  0  0  0  0  0  0  0  0  0
   -2.6810   -2.8809   -0.2490 N   0  0  0  0  0  0  0  0  0  0  0  0
   -4.9206   -3.1541   -0.2123 O   0  0  0  0  0  0  0  0  0  0  0  0
    1.4229    0.6413   -0.5990 N   0  0  0  0  0  0  0  0  0  0  0  0
    5.5905    2.7753   -1.1287 F   0  0  0  0  0  0  0  0  0  0  0  0
    5.5445   -1.7960   -0.2133 F   0  0  0  0  0  0  0  0  0  0  0  0
   -2.4884    4.4337    2.0472 H   0  0  0  0  0  0  0  0  0  0  0  0
   -3.2130    5.6424    0.9893 H   0  0  0  0  0  0  0  0  0  0  0  0
   -4.2265    4.4126    1.7455 H   0  0  0  0  0  0  0  0  0  0  0  0
   -1.6547    5.0227   -0.9199 H   0  0  0  0  0  0  0  0  0  0  0  0
   -0.8687    3.8634    0.1508 H   0  0  0  0  0  0  0  0  0  0  0  0
   -1.4687    3.3467   -1.4214 H   0  0  0  0  0  0  0  0  0  0  0  0
   -4.1193    0.1211    2.1903 H   0  0  0  0  0  0  0  0  0  0  0  0
   -4.6303   -1.5596    2.3198 H   0  0  0  0  0  0  0  0  0  0  0  0
   -2.9180   -1.1689    2.1396 H   0  0  0  0  0  0  0  0  0  0  0  0
    2.9805   -1.5918   -0.1908 H   0  0  0  0  0  0  0  0  0  0  0  0
    3.0298    2.6307   -1.0493 H   0  0  0  0  0  0  0  0  0  0  0  0
   -1.9551   -4.7605    0.3607 H   0  0  0  0  0  0  0  0  0  0  0  0
   -3.3585   -4.7934   -0.7111 H   0  0  0  0  0  0  0  0  0  0  0  0
   -1.7635   -4.3948   -1.3627 H   0  0  0  0  0  0  0  0  0  0  0  0
   -5.6834    0.5274    0.2854 H   0  0  0  0  0  0  0  0  0  0  0  0
   -5.6654   -0.5073   -1.1493 H   0  0  0  0  0  0  0  0  0  0  0  0
   -6.2393   -1.1268    0.4007 H   0  0  0  0  0  0  0  0  0  0  0  0
   -0.0273   -3.4501    0.0061 H   0  0  0  0  0  0  0  0  0  0  0  0
   -2.5745    1.5266   -1.4607 H   0  0  0  0  0  0  0  0  0  0  0  0
   -4.2725    1.3864   -1.1157 H   0  0  0  0  0  0  0  0  0  0  0  0
   -3.9554    2.0804    1.2017 H   0  0  0  0  0  0  0  0  0  0  0  0
   -2.2112    1.9353    1.0686 H   0  0  0  0  0  0  0  0  0  0  0  0
   -3.8193    3.8645   -0.6431 H   0  0  0  0  0  0  0  0  0  0  0  0
    7.3545   -0.3314   -0.4806 H   0  0  0  0  0  0  0  0  0  0  0  0
    1.0628    1.5708   -0.7513 H   0  0  0  0  0  0  0  0  0  0  0  0
   -2.4235   -4.2867   -0.5025 C   0  0  0  0  0  0  0  0  0  0  0  0
    6.9816    0.5278   -0.7086 O   0  0  0  0  0  0  0  0  0  0  0  0
  4 13  1  1
 53 23  1  0
 24  5  2  0
 23  5  1  0
 23 17  1  0
  5  4  1  0
 18 17  1  0
 18 14  2  0
 17 16  2  0
  4  6  1  0
  4 19  1  0
 14  1  1  0
 16 19  1  0
 16 15  1  0
 19 20  1  0
  1 15  2  0
  1 25  1  0
 20 21  1  0
 25 12  1  0
 12 11  1  0
 12  7  2  0
 21 22  1  0
 11 10  2  0
  7  8  1  0
  2 22  1  0
 22  3  1  0
 10 26  1  0
 10  9  1  0
  8  9  2  0
  8 27  1  0
  9 54  1  0
  2 28  1  0
  2 29  1  0
  2 30  1  0
  3 31  1  0
  3 32  1  0
  3 33  1  0
  6 34  1  0
  6 35  1  0
  6 36  1  0
  7 37  1  0
 11 38  1  0
 53 39  1  0
 53 40  1  0
 53 41  1  0
 13 42  1  0
 13 43  1  0
 13 44  1  0
 18 45  1  0
 20 46  1  0
 20 47  1  0
 21 48  1  0
 21 49  1  0
 22 50  1  6
 54 51  1  0
 25 52  1  0
M  END
