
     RDKit          3D

 59 62  0  0  0  0  0  0  0  0999 V2000
   -5.8532   -2.4334   -0.4341 C   0  0  0  0  0  0  0  0  0  0  0  0
   -2.8034   -0.4152   -0.8939 N   0  0  0  0  0  0  0  0  0  0  0  0
   -2.9001    1.5989    0.1775 O   0  0  0  0  0  0  0  0  0  0  0  0
   -6.2897   -4.0549   -0.0499 Cl  0  0  0  0  0  0  0  0  0  0  0  0
   -4.5128   -2.0641   -0.4799 C   0  0  0  0  0  0  0  0  0  0  0  0
   -0.9096    0.8208   -0.6028 N   0  0  0  0  0  0  0  0  0  0  0  0
    7.5617   -1.5750   -1.9999 O   0  0  0  0  0  0  0  0  0  0  0  0
   -3.2843   -3.2224   -0.1395 Cl  0  0  0  0  0  0  0  0  0  0  0  0
   -6.8484   -1.5031   -0.6802 C   0  0  0  0  0  0  0  0  0  0  0  0
    1.7056    2.9281    0.4960 N   0  0  0  0  0  0  0  0  0  0  0  0
    8.0998   -2.8167   -0.2265 O   0  0  0  0  0  0  0  0  0  0  0  0
   -6.4905   -0.2009   -0.9912 C   0  0  0  0  0  0  0  0  0  0  0  0
    1.1213    1.7468    0.2418 N   0  0  0  0  0  0  0  0  0  0  0  0
   -5.1607    0.1737   -1.0650 C   0  0  0  0  0  0  0  0  0  0  0  0
    5.5393   -2.8186    0.7006 N   0  0  0  0  0  0  0  0  0  0  0  0
   -4.1530   -0.7513   -0.8026 C   0  0  0  0  0  0  0  0  0  0  0  0
   -2.2615    0.7394   -0.3930 C   0  0  0  0  0  0  0  0  0  0  0  0
   -0.1515    1.9069   -0.2036 C   0  0  0  0  0  0  0  0  0  0  0  0
   -0.4067    3.2549   -0.2032 C   0  0  0  0  0  0  0  0  0  0  0  0
    0.7945    3.8446    0.2485 C   0  0  0  0  0  0  0  0  0  0  0  0
    1.0642    5.3133    0.4397 C   0  0  1  0  0  0  0  0  0  0  0  0
    2.5011    5.5559    0.8992 C   0  0  0  0  0  0  0  0  0  0  0  0
    0.8324    6.0415   -0.8900 C   0  0  0  0  0  0  0  0  0  0  0  0
    0.0948    5.8678    1.4909 C   0  0  0  0  0  0  0  0  0  0  0  0
    1.2986   -0.5315    1.0775 C   0  0  0  0  0  0  0  0  0  0  0  0
    1.8522    0.5494    0.3984 C   0  0  0  0  0  0  0  0  0  0  0  0
    3.1377    0.4667   -0.1124 C   0  0  0  0  0  0  0  0  0  0  0  0
    2.0438   -1.6879    1.2205 C   0  0  0  0  0  0  0  0  0  0  0  0
    3.3397   -1.7812    0.7211 C   0  0  0  0  0  0  0  0  0  0  0  0
    3.8912   -0.6918    0.0488 C   0  0  0  0  0  0  0  0  0  0  0  0
    4.1229   -3.0543    0.8847 C   0  0  0  0  0  0  0  0  0  0  0  0
    5.7988   -2.1880   -0.5728 C   0  0  1  0  0  0  0  0  0  0  0  0
    5.2888   -0.7476   -0.5087 C   0  0  0  0  0  0  0  0  0  0  0  0
    7.2770   -2.2360   -0.8872 C   0  0  0  0  0  0  0  0  0  0  0  0
   -2.1775   -1.1381   -1.2148 H   0  0  0  0  0  0  0  0  0  0  0  0
   -0.4399    0.0912   -1.1200 H   0  0  0  0  0  0  0  0  0  0  0  0
    8.5109   -1.6297   -2.1877 H   0  0  0  0  0  0  0  0  0  0  0  0
   -7.8873   -1.7976   -0.6357 H   0  0  0  0  0  0  0  0  0  0  0  0
   -7.2623    0.5280   -1.1966 H   0  0  0  0  0  0  0  0  0  0  0  0
   -4.9024    1.1835   -1.3445 H   0  0  0  0  0  0  0  0  0  0  0  0
    6.0366   -3.6962    0.7729 H   0  0  0  0  0  0  0  0  0  0  0  0
   -1.3175    3.7415   -0.5065 H   0  0  0  0  0  0  0  0  0  0  0  0
    3.2253    5.1999    0.1653 H   0  0  0  0  0  0  0  0  0  0  0  0
    2.6631    6.6264    1.0376 H   0  0  0  0  0  0  0  0  0  0  0  0
    2.7155    5.0609    1.8469 H   0  0  0  0  0  0  0  0  0  0  0  0
   -0.1933    5.9228   -1.2430 H   0  0  0  0  0  0  0  0  0  0  0  0
    1.0215    7.1104   -0.7724 H   0  0  0  0  0  0  0  0  0  0  0  0
    1.4989    5.6668   -1.6689 H   0  0  0  0  0  0  0  0  0  0  0  0
    0.2353    5.3799    2.4571 H   0  0  0  0  0  0  0  0  0  0  0  0
    0.2596    6.9387    1.6285 H   0  0  0  0  0  0  0  0  0  0  0  0
   -0.9459    5.7281    1.1933 H   0  0  0  0  0  0  0  0  0  0  0  0
    0.3099   -0.4670    1.5113 H   0  0  0  0  0  0  0  0  0  0  0  0
    3.5591    1.3127   -0.6416 H   0  0  0  0  0  0  0  0  0  0  0  0
    1.6142   -2.5288    1.7514 H   0  0  0  0  0  0  0  0  0  0  0  0
    3.7212   -3.8016    0.1812 H   0  0  0  0  0  0  0  0  0  0  0  0
    3.9610   -3.4571    1.8866 H   0  0  0  0  0  0  0  0  0  0  0  0
    5.2867   -2.6986   -1.4088 H   0  0  0  0  0  0  0  0  0  0  0  0
    5.3061   -0.2913   -1.4990 H   0  0  0  0  0  0  0  0  0  0  0  0
    5.9518   -0.1542    0.1282 H   0  0  0  0  0  0  0  0  0  0  0  0
  9  1  2  0
  1  4  1  0
  1  5  1  0
 16  2  1  0
  2 17  1  0
  2 35  1  0
 17  3  2  0
 16  5  2  0
  5  8  1  0
 17  6  1  0
  6 18  1  0
  6 36  1  0
  7 34  1  0
  7 37  1  0
 12  9  1  0
  9 38  1  0
 13 10  1  0
 10 20  2  0
 11 34  2  0
 12 14  2  0
 12 39  1  0
 26 13  1  0
 18 13  1  0
 14 16  1  0
 14 40  1  0
 32 15  1  0
 15 31  1  0
 15 41  1  0
 18 19  2  0
 19 20  1  0
 19 42  1  0
 20 21  1  0
 21 23  1  6
 21 24  1  0
 21 22  1  0
 22 43  1  0
 22 44  1  0
 22 45  1  0
 23 46  1  0
 23 47  1  0
 23 48  1  0
 24 49  1  0
 24 50  1  0
 24 51  1  0
 28 25  1  0
 26 25  2  0
 25 52  1  0
 27 26  1  0
 30 27  2  0
 27 53  1  0
 29 28  2  0
 28 54  1  0
 30 29  1  0
 31 29  1  0
 33 30  1  0
 31 55  1  0
 31 56  1  0
 34 32  1  0
 32 33  1  0
 32 57  1  6
 33 58  1  0
 33 59  1  0
M  END
