
     RDKit          3D

 45 48  0  0  0  0  0  0  0  0999 V2000
   -6.7650   -8.0705   -8.1541 N   0  0  0  0  0  0  0  0  0  0  0  0
   -7.9590   -8.4784   -7.4363 C   0  0  0  0  0  0  0  0  0  0  0  0
  -10.2396   -7.1381   -9.2059 C   0  0  0  0  0  0  0  0  0  0  0  0
   -9.3076   -8.3157   -9.5513 C   0  0  2  0  0  0  0  0  0  0  0  0
  -10.0370   -9.1864  -10.5339 N   0  0  0  0  0  0  0  0  0  0  0  0
   -7.0785   -7.1603   -9.2393 C   0  0  0  0  0  0  0  0  0  0  0  0
  -11.5337   -7.5201   -8.5415 C   0  0  0  0  0  0  0  0  0  0  0  0
  -12.6756   -7.7756   -9.2974 C   0  0  0  0  0  0  0  0  0  0  0  0
  -13.8695   -8.1506   -8.6972 C   0  0  0  0  0  0  0  0  0  0  0  0
  -13.9219   -8.2619   -7.3180 C   0  0  0  0  0  0  0  0  0  0  0  0
  -15.4053   -8.7279   -6.5546 Cl  0  0  0  0  0  0  0  0  0  0  0  0
  -12.8074   -7.9961   -6.5367 C   0  0  0  0  0  0  0  0  0  0  0  0
  -11.6239   -7.6263   -7.1547 C   0  0  0  0  0  0  0  0  0  0  0  0
   -5.7003   -8.9224   -8.2224 C   0  0  0  0  0  0  0  0  0  0  0  0
   -5.8272  -10.1086   -7.6286 N   0  0  0  0  0  0  0  0  0  0  0  0
   -4.8167  -10.9733   -7.6525 C   0  0  0  0  0  0  0  0  0  0  0  0
   -3.6416  -10.8201   -8.2220 N   0  0  0  0  0  0  0  0  0  0  0  0
   -3.5028   -9.6229   -8.7935 C   0  0  0  0  0  0  0  0  0  0  0  0
   -2.3810   -9.1688   -9.3962 N   0  0  0  0  0  0  0  0  0  0  0  0
   -2.5788   -7.8788   -9.8079 C   0  0  0  0  0  0  0  0  0  0  0  0
   -3.8425   -7.4841   -9.4855 C   0  0  0  0  0  0  0  0  0  0  0  0
   -8.9382   -9.1955   -8.3584 C   0  0  0  0  0  0  0  0  0  0  0  0
   -8.0373   -7.8103  -10.2375 C   0  0  0  0  0  0  0  0  0  0  0  0
   -4.4681   -8.5991   -8.8386 C   0  0  0  0  0  0  0  0  0  0  0  0
   -7.6902   -9.1285   -6.6097 H   0  0  0  0  0  0  0  0  0  0  0  0
   -8.4121   -7.5818   -7.0049 H   0  0  0  0  0  0  0  0  0  0  0  0
   -7.5083   -6.2475   -8.8206 H   0  0  0  0  0  0  0  0  0  0  0  0
   -6.1854   -6.8555   -9.7706 H   0  0  0  0  0  0  0  0  0  0  0  0
   -8.4604  -10.1124   -8.7164 H   0  0  0  0  0  0  0  0  0  0  0  0
   -9.8277   -9.5031   -7.8049 H   0  0  0  0  0  0  0  0  0  0  0  0
   -9.6918   -6.4482   -8.5627 H   0  0  0  0  0  0  0  0  0  0  0  0
  -10.4473   -6.5873  -10.1277 H   0  0  0  0  0  0  0  0  0  0  0  0
  -10.2634   -8.6918  -11.3988 H   0  0  0  0  0  0  0  0  0  0  0  0
   -9.4841  -10.0028  -10.8012 H   0  0  0  0  0  0  0  0  0  0  0  0
   -7.5223   -8.6474  -10.7192 H   0  0  0  0  0  0  0  0  0  0  0  0
   -8.2846   -7.0897  -11.0211 H   0  0  0  0  0  0  0  0  0  0  0  0
  -12.6517   -7.6641  -10.3753 H   0  0  0  0  0  0  0  0  0  0  0  0
  -10.7609   -7.4062   -6.5376 H   0  0  0  0  0  0  0  0  0  0  0  0
  -14.7450   -8.3439   -9.3018 H   0  0  0  0  0  0  0  0  0  0  0  0
  -12.8586   -8.0717   -5.4592 H   0  0  0  0  0  0  0  0  0  0  0  0
   -4.9944  -11.9176   -7.1486 H   0  0  0  0  0  0  0  0  0  0  0  0
   -1.5266   -9.6925   -9.4997 H   0  0  0  0  0  0  0  0  0  0  0  0
   -1.7921   -7.3323  -10.3007 H   0  0  0  0  0  0  0  0  0  0  0  0
   -4.2399   -6.5022   -9.6787 H   0  0  0  0  0  0  0  0  0  0  0  0
  -10.9155   -9.5439  -10.1513 H   0  0  0  0  0  0  0  0  0  0  0  0
  1  2  1  0
  1  6  1  0
  1 14  1  0
  2 22  1  0
  4  3  1  1
  3  7  1  0
  4  5  1  0
  4 22  1  0
  4 23  1  0
  6 23  1  0
  7  8  2  0
  7 13  1  0
  8  9  1  0
  9 10  2  0
 10 11  1  0
 10 12  1  0
 12 13  2  0
 14 15  2  0
 14 24  1  0
 15 16  1  0
 16 17  2  0
 17 18  1  0
 18 19  1  0
 18 24  2  0
 19 20  1  0
 20 21  2  0
 21 24  1  0
  2 25  1  0
  2 26  1  0
  6 27  1  0
  6 28  1  0
 22 29  1  0
 22 30  1  0
  3 31  1  0
  3 32  1  0
  5 33  1  0
  5 34  1  0
 23 35  1  0
 23 36  1  0
  8 37  1  0
 13 38  1  0
  9 39  1  0
 12 40  1  0
 16 41  1  0
 19 42  1  0
 20 43  1  0
 21 44  1  0
  5 45  1  0
M  CHG  1   5   1
M  END
