
     RDKit          3D

138139  0  0  0  0  0  0  0  0999 V2000
   -0.0026    1.5137  -13.8342 C   0  0  0  0  0  0  0  0  0  0  0  0
    0.3995    2.9422  -13.6268 C   0  0  0  0  0  0  0  0  0  0  0  0
   -1.3651    1.2677  -14.3760 C   0  0  0  0  0  0  0  0  0  0  0  0
   -2.0971    2.1950  -14.6578 O   0  0  0  0  0  0  0  0  0  0  0  0
   -1.8168   -0.1305  -14.5654 C   0  0  0  0  0  0  0  0  0  0  0  0
   -0.9662   -1.1907  -14.2571 C   0  0  0  0  0  0  0  0  0  0  0  0
    0.3983   -0.9229  -13.7464 C   0  0  0  0  0  0  0  0  0  0  0  0
    1.1556   -1.8377  -13.4953 O   0  0  0  0  0  0  0  0  0  0  0  0
    0.8236    0.4863  -13.5531 C   0  0  0  0  0  0  0  0  0  0  0  0
   -3.0938   -0.3854  -15.0535 C   0  0  0  0  0  0  0  0  0  0  0  0
   -3.5187   -1.6928  -15.2299 C   0  0  0  0  0  0  0  0  0  0  0  0
   -2.6711   -2.7496  -14.9209 C   0  0  0  0  0  0  0  0  0  0  0  0
   -1.3966   -2.5007  -14.4364 C   0  0  0  0  0  0  0  0  0  0  0  0
    2.1925    0.6910  -12.9664 C   0  0  0  0  0  0  0  0  0  0  0  0
    2.1074    0.6530  -11.4652 C   0  0  0  0  0  0  0  0  0  0  0  0
    2.6505   -0.2366  -10.6316 C   0  0  0  0  0  0  0  0  0  0  0  0
    3.5037   -1.3964  -11.0464 C   0  0  0  0  0  0  0  0  0  0  0  0
    2.4165   -0.1099   -9.1491 C   0  0  0  0  0  0  0  0  0  0  0  0
    1.4038   -1.1344   -8.6104 C   0  0  0  0  0  0  0  0  0  0  0  0
    1.3016   -1.0576   -7.1193 C   0  0  0  0  0  0  0  0  0  0  0  0
    0.2850   -0.6044   -6.3805 C   0  0  0  0  0  0  0  0  0  0  0  0
   -1.0153   -0.1042   -6.9383 C   0  0  0  0  0  0  0  0  0  0  0  0
    0.4025   -0.5554   -4.8803 C   0  0  0  0  0  0  0  0  0  0  0  0
    0.3420    0.8738   -4.3150 C   0  0  0  0  0  0  0  0  0  0  0  0
    0.4929    0.8817   -2.8266 C   0  0  0  0  0  0  0  0  0  0  0  0
    1.5293    1.3224   -2.1084 C   0  0  0  0  0  0  0  0  0  0  0  0
    2.7658    1.9397   -2.6965 C   0  0  0  0  0  0  0  0  0  0  0  0
    1.5223    1.1988   -0.6083 C   0  0  0  0  0  0  0  0  0  0  0  0
    2.5958    0.2368   -0.0736 C   0  0  0  0  0  0  0  0  0  0  0  0
    2.5724    0.1719    1.4218 C   0  0  0  0  0  0  0  0  0  0  0  0
    2.1040   -0.8124    2.1940 C   0  0  0  0  0  0  0  0  0  0  0  0
    1.5315   -2.0988    1.6739 C   0  0  0  0  0  0  0  0  0  0  0  0
    2.1066   -0.6697    3.6929 C   0  0  0  0  0  0  0  0  0  0  0  0
    0.6961   -0.5408    4.2911 C   0  0  0  0  0  0  0  0  0  0  0  0
    0.7379   -0.4852    5.7855 C   0  0  0  0  0  0  0  0  0  0  0  0
    0.4978    0.5608    6.5807 C   0  0  0  0  0  0  0  0  0  0  0  0
    0.0998    1.9247    6.0964 C   0  0  0  0  0  0  0  0  0  0  0  0
    0.6269    0.4200    8.0735 C   0  0  0  0  0  0  0  0  0  0  0  0
    1.7596    1.2620    8.6818 C   0  0  0  0  0  0  0  0  0  0  0  0
    1.8180    1.0998   10.1686 C   0  0  0  0  0  0  0  0  0  0  0  0
    2.7595    0.4953   10.8992 C   0  0  0  0  0  0  0  0  0  0  0  0
    4.0050   -0.1264   10.3399 C   0  0  0  0  0  0  0  0  0  0  0  0
    2.5900    0.3680   12.3910 C   0  0  0  0  0  0  0  0  0  0  0  0
    2.1900   -1.0550   12.8177 C   0  0  0  0  0  0  0  0  0  0  0  0
    1.9248   -1.1672   14.2908 C   0  0  0  0  0  0  0  0  0  0  0  0
    0.7380   -0.9869   14.8760 C   0  0  0  0  0  0  0  0  0  0  0  0
    0.5564   -1.1290   16.3574 C   0  0  0  0  0  0  0  0  0  0  0  0
   -0.5010   -0.6540   14.0871 C   0  0  0  0  0  0  0  0  0  0  0  0
   -1.2877   -1.8986   13.6363 C   0  0  0  0  0  0  0  0  0  0  0  0
   -2.4712   -1.4941   12.8140 C   0  0  0  0  0  0  0  0  0  0  0  0
   -2.4946   -1.3774   11.4843 C   0  0  0  0  0  0  0  0  0  0  0  0
   -1.3232   -1.7327   10.6090 C   0  0  0  0  0  0  0  0  0  0  0  0
   -3.6884   -0.7901   10.7861 C   0  0  0  0  0  0  0  0  0  0  0  0
   -3.3624    0.5726   10.1524 C   0  0  0  0  0  0  0  0  0  0  0  0
   -4.5491    1.1731    9.4682 C   0  0  0  0  0  0  0  0  0  0  0  0
   -5.2254    2.2730    9.8104 C   0  0  0  0  0  0  0  0  0  0  0  0
   -6.4179    2.7207    9.0149 C   0  0  0  0  0  0  0  0  0  0  0  0
   -4.8955    3.1537   10.9793 C   0  0  0  0  0  0  0  0  0  0  0  0
   -0.4074    3.6267  -13.8700 H   0  0  0  0  0  0  0  0  0  0  0  0
    0.6897    3.1231  -12.5916 H   0  0  0  0  0  0  0  0  0  0  0  0
    1.2560    3.2018  -14.2508 H   0  0  0  0  0  0  0  0  0  0  0  0
   -3.7556    0.4353  -15.2948 H   0  0  0  0  0  0  0  0  0  0  0  0
   -4.5121   -1.8901  -15.6097 H   0  0  0  0  0  0  0  0  0  0  0  0
   -3.0047   -3.7692  -15.0587 H   0  0  0  0  0  0  0  0  0  0  0  0
   -0.7374   -3.3245  -14.1991 H   0  0  0  0  0  0  0  0  0  0  0  0
    2.5853    1.6591  -13.2834 H   0  0  0  0  0  0  0  0  0  0  0  0
    2.8795   -0.0618  -13.3483 H   0  0  0  0  0  0  0  0  0  0  0  0
    1.5180    1.4554  -11.0274 H   0  0  0  0  0  0  0  0  0  0  0  0
    3.1097   -2.3333  -10.6474 H   0  0  0  0  0  0  0  0  0  0  0  0
    3.5860   -1.5131  -12.1231 H   0  0  0  0  0  0  0  0  0  0  0  0
    4.5120   -1.2861  -10.6395 H   0  0  0  0  0  0  0  0  0  0  0  0
    2.0555    0.8925   -8.9072 H   0  0  0  0  0  0  0  0  0  0  0  0
    3.3652   -0.2368   -8.6163 H   0  0  0  0  0  0  0  0  0  0  0  0
    1.7190   -2.1430   -8.8954 H   0  0  0  0  0  0  0  0  0  0  0  0
    0.4416   -0.9625   -9.0953 H   0  0  0  0  0  0  0  0  0  0  0  0
    2.1944   -1.3844   -6.5896 H   0  0  0  0  0  0  0  0  0  0  0  0
   -1.1306   -0.2989   -8.0021 H   0  0  0  0  0  0  0  0  0  0  0  0
   -1.8578   -0.5687   -6.4203 H   0  0  0  0  0  0  0  0  0  0  0  0
   -1.1204    0.9733   -6.7918 H   0  0  0  0  0  0  0  0  0  0  0  0
    1.3402   -1.0188   -4.5648 H   0  0  0  0  0  0  0  0  0  0  0  0
   -0.4062   -1.1428   -4.4295 H   0  0  0  0  0  0  0  0  0  0  0  0
   -0.6206    1.3223   -4.5782 H   0  0  0  0  0  0  0  0  0  0  0  0
    1.1090    1.4786   -4.8024 H   0  0  0  0  0  0  0  0  0  0  0  0
   -0.3397    0.4397   -2.2827 H   0  0  0  0  0  0  0  0  0  0  0  0
    2.6341    2.2685   -3.7254 H   0  0  0  0  0  0  0  0  0  0  0  0
    3.0796    2.8062   -2.1104 H   0  0  0  0  0  0  0  0  0  0  0  0
    3.6039    1.2385   -2.6879 H   0  0  0  0  0  0  0  0  0  0  0  0
    0.5438    0.8544   -0.2653 H   0  0  0  0  0  0  0  0  0  0  0  0
    1.6844    2.1862   -0.1607 H   0  0  0  0  0  0  0  0  0  0  0  0
    3.5831    0.5750   -0.4015 H   0  0  0  0  0  0  0  0  0  0  0  0
    2.4403   -0.7458   -0.5229 H   0  0  0  0  0  0  0  0  0  0  0  0
    2.9502    1.0610    1.9227 H   0  0  0  0  0  0  0  0  0  0  0  0
    1.6753   -2.2327    0.6040 H   0  0  0  0  0  0  0  0  0  0  0  0
    1.9851   -2.9532    2.1818 H   0  0  0  0  0  0  0  0  0  0  0  0
    0.4577   -2.1612    1.8654 H   0  0  0  0  0  0  0  0  0  0  0  0
    2.6893    0.2074    3.9848 H   0  0  0  0  0  0  0  0  0  0  0  0
    2.6009   -1.5389    4.1429 H   0  0  0  0  0  0  0  0  0  0  0  0
    0.0939   -1.4016    3.9859 H   0  0  0  0  0  0  0  0  0  0  0  0
    0.2126    0.3407    3.8659 H   0  0  0  0  0  0  0  0  0  0  0  0
    1.0346   -1.4168    6.2641 H   0  0  0  0  0  0  0  0  0  0  0  0
   -0.7629    2.2933    6.6565 H   0  0  0  0  0  0  0  0  0  0  0  0
    0.9034    2.6482    6.2538 H   0  0  0  0  0  0  0  0  0  0  0  0
   -0.1541    1.9485    5.0386 H   0  0  0  0  0  0  0  0  0  0  0  0
    0.7933   -0.6271    8.3366 H   0  0  0  0  0  0  0  0  0  0  0  0
   -0.3180    0.7134    8.5473 H   0  0  0  0  0  0  0  0  0  0  0  0
    1.5953    2.3171    8.4424 H   0  0  0  0  0  0  0  0  0  0  0  0
    2.7015    0.9815    8.2068 H   0  0  0  0  0  0  0  0  0  0  0  0
    0.9585    1.5031   10.7021 H   0  0  0  0  0  0  0  0  0  0  0  0
    4.8904    0.2878   10.8283 H   0  0  0  0  0  0  0  0  0  0  0  0
    4.0265   -1.2032   10.5242 H   0  0  0  0  0  0  0  0  0  0  0  0
    4.1181    0.0197    9.2679 H   0  0  0  0  0  0  0  0  0  0  0  0
    1.8207    1.0629   12.7366 H   0  0  0  0  0  0  0  0  0  0  0  0
    3.5170    0.6482   12.9026 H   0  0  0  0  0  0  0  0  0  0  0  0
    2.9830   -1.7555   12.5442 H   0  0  0  0  0  0  0  0  0  0  0  0
    1.3107   -1.3528   12.2411 H   0  0  0  0  0  0  0  0  0  0  0  0
    2.7828   -1.3952   14.9183 H   0  0  0  0  0  0  0  0  0  0  0  0
    1.4772   -1.4309   16.8566 H   0  0  0  0  0  0  0  0  0  0  0  0
    0.2221   -0.1891   16.8043 H   0  0  0  0  0  0  0  0  0  0  0  0
   -0.2109   -1.8715   16.5919 H   0  0  0  0  0  0  0  0  0  0  0  0
   -0.2491   -0.0705   13.1990 H   0  0  0  0  0  0  0  0  0  0  0  0
   -1.1597   -0.0194   14.6880 H   0  0  0  0  0  0  0  0  0  0  0  0
   -1.6111   -2.4645   14.5143 H   0  0  0  0  0  0  0  0  0  0  0  0
   -0.6164   -2.5524   13.0738 H   0  0  0  0  0  0  0  0  0  0  0  0
   -3.3538   -1.1854   13.3691 H   0  0  0  0  0  0  0  0  0  0  0  0
   -1.6392   -1.9235    9.5824 H   0  0  0  0  0  0  0  0  0  0  0  0
   -0.5897   -0.9224   10.5691 H   0  0  0  0  0  0  0  0  0  0  0  0
   -0.7953   -2.6192   10.9614 H   0  0  0  0  0  0  0  0  0  0  0  0
   -4.5113   -0.6645   11.4939 H   0  0  0  0  0  0  0  0  0  0  0  0
   -4.0432   -1.4684   10.0016 H   0  0  0  0  0  0  0  0  0  0  0  0
   -2.5576    0.4412    9.4209 H   0  0  0  0  0  0  0  0  0  0  0  0
   -2.9641    1.2303   10.9263 H   0  0  0  0  0  0  0  0  0  0  0  0
   -4.9029    0.6190    8.6010 H   0  0  0  0  0  0  0  0  0  0  0  0
   -6.2639    3.7233    8.6069 H   0  0  0  0  0  0  0  0  0  0  0  0
   -6.6327    2.0488    8.1839 H   0  0  0  0  0  0  0  0  0  0  0  0
   -7.3106    2.7768    9.6436 H   0  0  0  0  0  0  0  0  0  0  0  0
   -4.0091    2.8400   11.5263 H   0  0  0  0  0  0  0  0  0  0  0  0
   -4.7373    4.1840   10.6510 H   0  0  0  0  0  0  0  0  0  0  0  0
   -5.7299    3.1792   11.6847 H   0  0  0  0  0  0  0  0  0  0  0  0
  1  2  1  0
  1  3  1  0
  1  9  2  0
  2 59  1  0
  2 60  1  0
  2 61  1  0
  3  4  2  0
  3  5  1  0
  5  6  2  0
  5 10  1  0
  6  7  1  0
  6 13  1  0
  7  8  2  0
  7  9  1  0
  9 14  1  0
 10 11  2  0
 10 62  1  0
 11 12  1  0
 11 63  1  0
 12 13  2  0
 12 64  1  0
 13 65  1  0
 14 15  1  0
 14 66  1  0
 14 67  1  0
 15 16  2  0
 15 68  1  0
 16 17  1  0
 16 18  1  0
 17 69  1  0
 17 70  1  0
 17 71  1  0
 18 19  1  0
 18 72  1  0
 18 73  1  0
 19 20  1  0
 19 74  1  0
 19 75  1  0
 20 21  2  0
 20 76  1  0
 21 22  1  0
 21 23  1  0
 22 77  1  0
 22 78  1  0
 22 79  1  0
 23 24  1  0
 23 80  1  0
 23 81  1  0
 24 25  1  0
 24 82  1  0
 24 83  1  0
 25 26  2  0
 25 84  1  0
 26 27  1  0
 26 28  1  0
 27 85  1  0
 27 86  1  0
 27 87  1  0
 28 29  1  0
 28 88  1  0
 28 89  1  0
 29 30  1  0
 29 90  1  0
 29 91  1  0
 30 31  2  0
 30 92  1  0
 31 32  1  0
 31 33  1  0
 32 93  1  0
 32 94  1  0
 32 95  1  0
 33 34  1  0
 33 96  1  0
 33 97  1  0
 34 35  1  0
 34 98  1  0
 34 99  1  0
 35 36  2  0
 35100  1  0
 36 37  1  0
 36 38  1  0
 37101  1  0
 37102  1  0
 37103  1  0
 38 39  1  0
 38104  1  0
 38105  1  0
 39 40  1  0
 39106  1  0
 39107  1  0
 40 41  2  0
 40108  1  0
 41 42  1  0
 41 43  1  0
 42109  1  0
 42110  1  0
 42111  1  0
 43 44  1  0
 43112  1  0
 43113  1  0
 44 45  1  0
 44114  1  0
 44115  1  0
 45 46  2  0
 45116  1  0
 46 47  1  0
 46 48  1  0
 47117  1  0
 47118  1  0
 47119  1  0
 48 49  1  0
 48120  1  0
 48121  1  0
 49 50  1  0
 49122  1  0
 49123  1  0
 50 51  2  0
 50124  1  0
 51 52  1  0
 51 53  1  0
 52125  1  0
 52126  1  0
 52127  1  0
 53 54  1  0
 53128  1  0
 53129  1  0
 54 55  1  0
 54130  1  0
 54131  1  0
 55 56  2  0
 55132  1  0
 56 57  1  0
 56 58  1  0
 57133  1  0
 57134  1  0
 57135  1  0
 58136  1  0
 58137  1  0
 58138  1  0
M  END
