
     RDKit          3D

 33 34  0  0  0  0  0  0  0  0999 V2000
    5.7963    0.6007   -1.5155 C   0  0  0  0  0  0  0  0  0  0  0  0
    5.5324    0.3367    0.8372 O   0  0  0  0  0  0  0  0  0  0  0  0
    5.0114    0.3567   -0.2554 C   0  0  0  0  0  0  0  0  0  0  0  0
    3.5309    0.1398   -0.4420 C   0  0  0  0  0  0  0  0  0  0  0  0
    2.7539   -0.0938    0.8492 C   0  0  0  0  0  0  0  0  0  0  0  0
    0.8463   -1.5803    0.1099 C   0  0  0  0  0  0  0  0  0  0  0  0
    1.2939   -0.3158    0.5712 C   0  0  0  0  0  0  0  0  0  0  0  0
   -5.9532    0.7861   -0.4219 C   0  0  0  0  0  0  0  0  0  0  0  0
    0.3745    0.6885    0.7186 C   0  0  0  0  0  0  0  0  0  0  0  0
   -0.9946    0.4895    0.4196 C   0  0  0  0  0  0  0  0  0  0  0  0
   -1.9536    1.5144    0.5599 C   0  0  0  0  0  0  0  0  0  0  0  0
   -3.2743    1.3054    0.2622 C   0  0  0  0  0  0  0  0  0  0  0  0
   -3.7052    0.0375   -0.1942 C   0  0  0  0  0  0  0  0  0  0  0  0
   -2.7922   -0.9824   -0.3391 C   0  0  0  0  0  0  0  0  0  0  0  0
   -1.4314   -0.7793   -0.0401 C   0  0  0  0  0  0  0  0  0  0  0  0
   -0.4674   -1.8091   -0.1842 C   0  0  0  0  0  0  0  0  0  0  0  0
    6.8558    0.7339   -1.3071 H   0  0  0  0  0  0  0  0  0  0  0  0
    5.6687   -0.2345   -2.2061 H   0  0  0  0  0  0  0  0  0  0  0  0
    5.4183    1.4883   -2.0265 H   0  0  0  0  0  0  0  0  0  0  0  0
    3.1274    1.0067   -0.9762 H   0  0  0  0  0  0  0  0  0  0  0  0
    3.4013   -0.7005   -1.1329 H   0  0  0  0  0  0  0  0  0  0  0  0
    3.1668   -0.9586    1.3739 H   0  0  0  0  0  0  0  0  0  0  0  0
    2.8772    0.7639    1.5125 H   0  0  0  0  0  0  0  0  0  0  0  0
    1.5666   -2.3824   -0.0045 H   0  0  0  0  0  0  0  0  0  0  0  0
   -6.8979    0.3444   -0.7295 H   0  0  0  0  0  0  0  0  0  0  0  0
   -6.0628    1.1697    0.5957 H   0  0  0  0  0  0  0  0  0  0  0  0
   -5.7227    1.6199   -1.0902 H   0  0  0  0  0  0  0  0  0  0  0  0
    0.6920    1.6642    1.0717 H   0  0  0  0  0  0  0  0  0  0  0  0
   -1.6353    2.4894    0.9092 H   0  0  0  0  0  0  0  0  0  0  0  0
   -3.9741    2.1211    0.3818 H   0  0  0  0  0  0  0  0  0  0  0  0
   -3.1229   -1.9534   -0.6896 H   0  0  0  0  0  0  0  0  0  0  0  0
   -0.7878   -2.7848   -0.5295 H   0  0  0  0  0  0  0  0  0  0  0  0
   -4.9868   -0.2424   -0.5031 O   0  0  0  0  0  0  0  0  0  0  0  0
  1  3  1  0
  2  3  2  0
  3  4  1  0
  4  5  1  0
  5  7  1  0
  6  7  2  0
  6 16  1  0
  7  9  1  0
  8 33  1  0
  9 10  2  0
 33 13  1  0
 10 11  1  0
 10 15  1  0
 11 12  2  0
 12 13  1  0
 13 14  2  0
 14 15  1  0
 15 16  2  0
  1 17  1  0
  1 18  1  0
  1 19  1  0
  4 20  1  0
  4 21  1  0
  5 22  1  0
  5 23  1  0
  6 24  1  0
  8 25  1  0
  8 26  1  0
  8 27  1  0
  9 28  1  0
 11 29  1  0
 12 30  1  0
 14 31  1  0
 16 32  1  0
M  END
