
     RDKit          3D

 23 24  0  0  0  0  0  0  0  0999 V2000
   -0.5304    1.0466   -0.0871 C   0  0  0  0  0  0  0  0  0  0  0  0
   -2.7344    1.3299   -0.1024 C   0  0  0  0  0  0  0  0  0  0  0  0
   -1.9175   -0.9421   -0.0202 C   0  0  0  0  0  0  0  0  0  0  0  0
    0.6747   -0.9704    0.0039 C   0  0  0  0  0  0  0  0  0  0  0  0
    1.6741   -0.0311   -0.0445 C   0  0  0  0  0  0  0  0  0  0  0  0
    1.0858    1.6040   -0.1087 S   0  0  0  0  0  0  0  0  0  0  0  0
   -1.5740    1.8975   -0.1239 N   0  0  0  0  0  0  0  0  0  0  0  0
   -2.9550   -0.0009   -0.0508 N   0  0  0  0  0  0  0  0  0  0  0  0
   -4.3208   -0.5098   -0.0333 C   0  0  0  0  0  0  0  0  0  0  0  0
   -2.1776   -2.1299    0.0070 O   0  0  0  0  0  0  0  0  0  0  0  0
   -0.6060   -0.3363   -0.0295 C   0  0  0  0  0  0  0  0  0  0  0  0
    3.7785    0.9028   -0.0132 O   0  0  0  0  0  0  0  0  0  0  0  0
    3.6639   -1.3285   -0.1159 O   0  0  0  0  0  0  0  0  0  0  0  0
   -3.6191    1.9535   -0.1276 H   0  0  0  0  0  0  0  0  0  0  0  0
    0.9532   -2.8697   -0.9243 H   0  0  0  0  0  0  0  0  0  0  0  0
    1.7953   -2.7006    0.6053 H   0  0  0  0  0  0  0  0  0  0  0  0
    0.0438   -2.9326    0.5739 H   0  0  0  0  0  0  0  0  0  0  0  0
   -4.5047   -1.0689    0.8810 H   0  0  0  0  0  0  0  0  0  0  0  0
   -5.0096    0.3275   -0.0798 H   0  0  0  0  0  0  0  0  0  0  0  0
   -4.4947   -1.1588   -0.8879 H   0  0  0  0  0  0  0  0  0  0  0  0
    4.7344    0.7473   -0.0387 H   0  0  0  0  0  0  0  0  0  0  0  0
    3.1205   -0.2517   -0.0597 C   0  0  0  0  0  0  0  0  0  0  0  0
    0.8798   -2.4486    0.0802 C   0  0  0  0  0  0  0  0  0  0  0  0
 10  3  2  0
 23  4  1  0
  9  8  1  0
  3  8  1  0
  3 11  1  0
 13 22  2  0
  4 11  1  0
  4  5  2  0
  8  2  1  0
 11  1  2  0
  5 22  1  0
  5  6  1  0
 22 12  1  0
  2  7  2  0
  1  7  1  0
  1  6  1  0
  2 14  1  0
 23 15  1  0
 23 16  1  0
 23 17  1  0
  9 18  1  0
  9 19  1  0
  9 20  1  0
 12 21  1  0
M  END
