
     RDKit          3D

 37 39  0  0  0  0  0  0  0  0999 V2000
   -2.8350   -1.2488   -2.0453 C   0  0  0  0  0  0  0  0  0  0  0  0
   -2.5857   -0.8184   -0.6045 C   0  0  2  0  0  0  0  0  0  0  0  0
   -3.6112    0.1699   -0.1020 C   0  0  0  0  0  0  0  0  0  0  0  0
   -4.3612   -0.1197    1.0327 C   0  0  0  0  0  0  0  0  0  0  0  0
   -5.3053    0.7815    1.5078 C   0  0  0  0  0  0  0  0  0  0  0  0
   -5.5026    1.9900    0.8548 C   0  0  0  0  0  0  0  0  0  0  0  0
    1.5408   -2.0625    0.1766 C   0  0  0  0  0  0  0  0  0  0  0  0
    0.0656   -2.3756    0.1177 C   0  0  0  0  0  0  0  0  0  0  0  0
    3.1555    0.8091   -0.0381 C   0  0  0  0  0  0  0  0  0  0  0  0
    3.7243    1.9404   -0.6265 C   0  0  0  0  0  0  0  0  0  0  0  0
    5.0173    2.2890   -0.2882 C   0  0  0  0  0  0  0  0  0  0  0  0
    5.2177    0.5379    1.1278 C   0  0  0  0  0  0  0  0  0  0  0  0
    3.9308    0.0951    0.8740 C   0  0  0  0  0  0  0  0  0  0  0  0
   -4.7562    2.2889   -0.2782 C   0  0  0  0  0  0  0  0  0  0  0  0
   -3.8210    1.3821   -0.7566 C   0  0  0  0  0  0  0  0  0  0  0  0
   -1.2483   -0.2409   -0.4499 N   0  0  0  0  0  0  0  0  0  0  0  0
   -0.1711   -0.9557   -0.2019 C   0  0  0  0  0  0  0  0  0  0  0  0
    1.1971   -0.6727   -0.1241 C   0  0  0  0  0  0  0  0  0  0  0  0
   -0.6200   -3.3606    0.2450 O   0  0  0  0  0  0  0  0  0  0  0  0
    1.8518    0.4832   -0.3580 N   0  0  0  0  0  0  0  0  0  0  0  0
    5.7713    1.6089    0.5706 N   0  0  0  0  0  0  0  0  0  0  0  0
   -2.1150   -2.0098   -2.3474 H   0  0  0  0  0  0  0  0  0  0  0  0
   -3.8348   -1.6713   -2.1428 H   0  0  0  0  0  0  0  0  0  0  0  0
   -2.7505   -0.4089   -2.7348 H   0  0  0  0  0  0  0  0  0  0  0  0
   -2.6244   -1.6999    0.0359 H   0  0  0  0  0  0  0  0  0  0  0  0
   -4.2091   -1.0600    1.5490 H   0  0  0  0  0  0  0  0  0  0  0  0
   -5.8829    0.5394    2.3906 H   0  0  0  0  0  0  0  0  0  0  0  0
   -6.2340    2.6957    1.2264 H   0  0  0  0  0  0  0  0  0  0  0  0
    3.1688    2.5381   -1.3382 H   0  0  0  0  0  0  0  0  0  0  0  0
    5.4661    3.1656   -0.7416 H   0  0  0  0  0  0  0  0  0  0  0  0
    5.8291   -0.0101    1.8359 H   0  0  0  0  0  0  0  0  0  0  0  0
    3.5608   -0.7765    1.3910 H   0  0  0  0  0  0  0  0  0  0  0  0
   -4.9045    3.2293   -0.7929 H   0  0  0  0  0  0  0  0  0  0  0  0
   -3.2594    1.6315   -1.6504 H   0  0  0  0  0  0  0  0  0  0  0  0
    1.3353    1.2000   -0.8474 H   0  0  0  0  0  0  0  0  0  0  0  0
   -1.1424    0.7419   -0.6587 H   0  0  0  0  0  0  0  0  0  0  0  0
    2.5434   -2.7127    0.3700 O   0  0  0  0  0  0  0  0  0  0  0  0
  1  2  1  0
  1 22  1  0
  1 23  1  0
  1 24  1  0
  2  3  1  0
  2 16  1  0
  2 25  1  1
  3  4  2  0
  3 15  1  0
  4  5  1  0
  4 26  1  0
  5  6  2  0
  5 27  1  0
  6 14  1  0
  6 28  1  0
  7  8  1  0
  7 18  1  0
  7 37  2  0
  8 17  1  0
  8 19  2  0
  9 10  2  0
  9 13  1  0
  9 20  1  0
 10 11  1  0
 10 29  1  0
 11 21  2  0
 11 30  1  0
 12 13  2  0
 12 21  1  0
 12 31  1  0
 13 32  1  0
 14 15  2  0
 14 33  1  0
 15 34  1  0
 16 17  1  0
 17 18  2  0
 18 20  1  0
 20 35  1  0
 16 36  1  0
M  END
