
     RDKit          3D

 58 60  0  0  0  0  0  0  0  0999 V2000
    5.2964    0.2779   -0.6081 C   0  0  0  0  0  0  0  0  0  0  0  0
    5.0462   -1.0146   -0.4714 N   0  0  0  0  0  0  0  0  0  0  0  0
    3.7952   -1.3346   -0.1493 C   0  0  0  0  0  0  0  0  0  0  0  0
    2.8197   -0.4715    0.0658 N   0  0  0  0  0  0  0  0  0  0  0  0
    3.0639    0.8307   -0.0510 C   0  0  0  0  0  0  0  0  0  0  0  0
    4.3623    1.2837   -0.4329 C   0  0  0  0  0  0  0  0  0  0  0  0
    3.4693   -2.7701   -0.0194 C   0  0  0  0  0  0  0  0  0  0  0  0
    4.4689   -3.7358   -0.1452 C   0  0  0  0  0  0  0  0  0  0  0  0
    4.1631   -5.0821   -0.0208 C   0  0  0  0  0  0  0  0  0  0  0  0
    2.8560   -5.4816    0.2276 C   0  0  0  0  0  0  0  0  0  0  0  0
    1.8547   -4.5264    0.3517 C   0  0  0  0  0  0  0  0  0  0  0  0
    2.1584   -3.1798    0.2298 C   0  0  0  0  0  0  0  0  0  0  0  0
    2.0709    1.7046    0.1851 N   0  0  0  0  0  0  0  0  0  0  0  0
    0.7384    1.4767    0.5419 C   0  0  0  0  0  0  0  0  0  0  0  0
   -0.1733    2.4843    0.2205 C   0  0  0  0  0  0  0  0  0  0  0  0
   -1.5080    2.3680    0.5669 C   0  0  0  0  0  0  0  0  0  0  0  0
   -1.9792    1.2459    1.2415 C   0  0  0  0  0  0  0  0  0  0  0  0
   -1.0638    0.2517    1.5684 C   0  0  0  0  0  0  0  0  0  0  0  0
    0.2788    0.3569    1.2366 C   0  0  0  0  0  0  0  0  0  0  0  0
   -3.4384    1.1022    1.5685 C   0  0  0  0  0  0  0  0  0  0  0  0
   -4.1532    0.3011    0.4906 C   0  0  0  0  0  0  0  0  0  0  0  0
   -5.1678    0.9400   -0.1126 N   0  0  0  0  0  0  0  0  0  0  0  0
   -3.7990   -0.8346    0.2100 O   0  0  0  0  0  0  0  0  0  0  0  0
    4.6778    2.7216   -0.6205 C   0  0  0  0  0  0  0  0  0  0  0  0
    3.8314    3.5930   -0.4060 O   0  0  0  0  0  0  0  0  0  0  0  0
    5.9094    3.0445   -1.0294 N   0  0  0  0  0  0  0  0  0  0  0  0
   -5.9970    0.3717   -1.1504 C   0  0  0  0  0  0  0  0  0  0  0  0
   -7.4069   -0.0287   -0.6877 C   0  0  1  0  0  0  0  0  0  0  0  0
   -7.3318   -1.1028    0.3956 C   0  0  0  0  0  0  0  0  0  0  0  0
   -8.1502    1.1939   -0.1483 C   0  0  0  0  0  0  0  0  0  0  0  0
   -8.1413   -0.5848   -1.9080 C   0  0  0  0  0  0  0  0  0  0  0  0
    6.3210    0.5115   -0.8750 H   0  0  0  0  0  0  0  0  0  0  0  0
    5.4872   -3.4286   -0.3393 H   0  0  0  0  0  0  0  0  0  0  0  0
    4.9469   -5.8217   -0.1176 H   0  0  0  0  0  0  0  0  0  0  0  0
    2.6186   -6.5331    0.3235 H   0  0  0  0  0  0  0  0  0  0  0  0
    0.8344   -4.8309    0.5438 H   0  0  0  0  0  0  0  0  0  0  0  0
    1.3744   -2.4406    0.3201 H   0  0  0  0  0  0  0  0  0  0  0  0
    2.3428    2.6703    0.0108 H   0  0  0  0  0  0  0  0  0  0  0  0
    0.1653    3.3674   -0.3084 H   0  0  0  0  0  0  0  0  0  0  0  0
   -2.1908    3.1670    0.3033 H   0  0  0  0  0  0  0  0  0  0  0  0
   -1.3968   -0.6262    2.1082 H   0  0  0  0  0  0  0  0  0  0  0  0
    0.9587   -0.4287    1.5236 H   0  0  0  0  0  0  0  0  0  0  0  0
   -3.5628    0.5604    2.5092 H   0  0  0  0  0  0  0  0  0  0  0  0
   -3.8943    2.0842    1.7065 H   0  0  0  0  0  0  0  0  0  0  0  0
   -5.3693    1.8832    0.1753 H   0  0  0  0  0  0  0  0  0  0  0  0
    6.6228    2.3765   -1.2584 H   0  0  0  0  0  0  0  0  0  0  0  0
    6.1428    4.0156   -1.1572 H   0  0  0  0  0  0  0  0  0  0  0  0
   -6.0812    1.1047   -1.9575 H   0  0  0  0  0  0  0  0  0  0  0  0
   -5.4814   -0.4976   -1.5592 H   0  0  0  0  0  0  0  0  0  0  0  0
   -8.3343   -1.4153    0.6949 H   0  0  0  0  0  0  0  0  0  0  0  0
   -6.7987   -1.9884    0.0441 H   0  0  0  0  0  0  0  0  0  0  0  0
   -6.8240   -0.7398    1.2908 H   0  0  0  0  0  0  0  0  0  0  0  0
   -8.1947    1.9965   -0.8884 H   0  0  0  0  0  0  0  0  0  0  0  0
   -9.1763    0.9353    0.1202 H   0  0  0  0  0  0  0  0  0  0  0  0
   -7.6728    1.5910    0.7500 H   0  0  0  0  0  0  0  0  0  0  0  0
   -8.2047    0.1545   -2.7098 H   0  0  0  0  0  0  0  0  0  0  0  0
   -7.6318   -1.4657   -2.3052 H   0  0  0  0  0  0  0  0  0  0  0  0
   -9.1597   -0.8798   -1.6492 H   0  0  0  0  0  0  0  0  0  0  0  0
 28 31  1  6
 29 28  1  0
 28 30  1  0
 28 27  1  0
 10 11  2  0
 10  9  1  0
 27 22  1  0
 11 12  1  0
  9  8  2  0
 22 21  1  0
 12  7  2  0
  8  7  1  0
 23 21  2  0
 21 20  1  0
  7  3  1  0
 20 17  1  0
  3  2  1  0
  3  4  2  0
 18 17  2  0
 18 19  1  0
 17 16  1  0
  2  1  2  0
  4  5  1  0
 19 14  2  0
 16 15  2  0
 14 15  1  0
 14 13  1  0
  1  6  1  0
  5 13  1  0
  5  6  2  0
  6 24  1  0
 24 26  1  0
 24 25  2  0
  1 32  1  0
  8 33  1  0
  9 34  1  0
 10 35  1  0
 11 36  1  0
 12 37  1  0
 13 38  1  0
 15 39  1  0
 16 40  1  0
 18 41  1  0
 19 42  1  0
 20 43  1  0
 20 44  1  0
 22 45  1  0
 26 46  1  0
 26 47  1  0
 27 48  1  0
 27 49  1  0
 29 50  1  0
 29 51  1  0
 29 52  1  0
 30 53  1  0
 30 54  1  0
 30 55  1  0
 31 56  1  0
 31 57  1  0
 31 58  1  0
M  END
