
     RDKit          3D

 27 28  0  0  0  0  0  0  0  0999 V2000
   -3.3767    0.4691   -1.1821 C   0  0  0  0  0  0  0  0  0  0  0  0
   -2.5743    0.8106    0.0824 C   0  0  2  0  0  0  0  0  0  0  0  0
   -4.3990   -0.4512   -0.6099 C   0  0  0  0  0  0  0  0  0  0  0  0
   -1.1178    0.4586    0.0274 C   0  0  0  0  0  0  0  0  0  0  0  0
   -0.1440    1.4363    0.1601 C   0  0  0  0  0  0  0  0  0  0  0  0
    1.2122    1.1385    0.0994 C   0  0  0  0  0  0  0  0  0  0  0  0
    1.6185   -0.1808   -0.0922 C   0  0  0  0  0  0  0  0  0  0  0  0
    0.6396   -1.1739   -0.2182 C   0  0  0  0  0  0  0  0  0  0  0  0
   -0.7026   -0.8590   -0.1583 C   0  0  0  0  0  0  0  0  0  0  0  0
    4.0923    0.1260   -0.0795 C   0  0  0  0  0  0  0  0  0  0  0  0
    5.3548   -0.6925   -0.1723 C   0  0  0  0  0  0  0  0  0  0  0  0
   -4.2801   -0.6608    0.6319 N   0  0  0  0  0  0  0  0  0  0  0  0
    2.9481   -0.6014   -0.1694 N   0  0  0  0  0  0  0  0  0  0  0  0
   -3.2144    0.0417    1.1317 O   0  0  0  0  0  0  0  0  0  0  0  0
    4.1181    1.3332    0.0841 O   0  0  0  0  0  0  0  0  0  0  0  0
   -3.8335    1.3474   -1.6392 H   0  0  0  0  0  0  0  0  0  0  0  0
   -2.7837   -0.0251   -1.9550 H   0  0  0  0  0  0  0  0  0  0  0  0
   -2.6871    1.8683    0.3344 H   0  0  0  0  0  0  0  0  0  0  0  0
   -0.4387    2.4674    0.3161 H   0  0  0  0  0  0  0  0  0  0  0  0
    1.9317    1.9325    0.2051 H   0  0  0  0  0  0  0  0  0  0  0  0
    0.9374   -2.2056   -0.3659 H   0  0  0  0  0  0  0  0  0  0  0  0
   -1.4279   -1.6573   -0.2615 H   0  0  0  0  0  0  0  0  0  0  0  0
    5.7999   -0.7718    0.8209 H   0  0  0  0  0  0  0  0  0  0  0  0
    5.1986   -1.7002   -0.5527 H   0  0  0  0  0  0  0  0  0  0  0  0
    6.0732   -0.1838   -0.8125 H   0  0  0  0  0  0  0  0  0  0  0  0
    3.0664   -1.5938   -0.3031 H   0  0  0  0  0  0  0  0  0  0  0  0
   -5.1900   -0.9402   -1.1610 H   0  0  0  0  0  0  0  0  0  0  0  0
  1  3  1  0
  1  2  1  0
  3 12  2  0
  9  8  2  0
  9  4  1  0
  2  4  1  0
  2 14  1  0
  8  7  1  0
  4  5  2  0
 12 14  1  0
  7 13  1  0
  7  6  2  0
  5  6  1  0
 13 10  1  0
 10 15  2  0
 10 11  1  0
  1 16  1  0
  1 17  1  0
  2 18  1  1
  5 19  1  0
  6 20  1  0
  8 21  1  0
  9 22  1  0
 11 23  1  0
 11 24  1  0
 11 25  1  0
 13 26  1  0
  3 27  1  0
M  END
