
     RDKit          3D

 68 70  0  0  0  0  0  0  0  0999 V2000
    0.8631    1.5441   -0.0119 C   0  0  0  0  0  0  0  0  0  0  0  0
    1.3725    0.2488   -0.0297 C   0  0  0  0  0  0  0  0  0  0  0  0
    0.5714   -0.8174   -0.0465 N   0  0  0  0  0  0  0  0  0  0  0  0
   -0.7367   -0.5870   -0.0287 C   0  0  0  0  0  0  0  0  0  0  0  0
   -1.3184    0.6190    0.0582 N   0  0  0  0  0  0  0  0  0  0  0  0
   -0.5254    1.6751    0.0470 C   0  0  0  0  0  0  0  0  0  0  0  0
    2.7938   -0.0260   -0.0481 C   0  0  0  0  0  0  0  0  0  0  0  0
    3.4095   -1.2408   -0.0989 C   0  0  0  0  0  0  0  0  0  0  0  0
    4.7635   -1.2543   -0.0950 N   0  0  0  0  0  0  0  0  0  0  0  0
    5.2385   -0.0357   -0.0479 C   0  0  0  0  0  0  0  0  0  0  0  0
    4.0200    1.2149    0.0042 S   0  0  0  0  0  0  0  0  0  0  0  0
    6.5375    0.2734   -0.0657 N   0  0  0  0  0  0  0  0  0  0  0  0
    7.5871   -0.7357    0.0215 C   0  0  1  0  0  0  0  0  0  0  0  0
    8.8627   -0.1636   -0.5759 C   0  0  0  0  0  0  0  0  0  0  0  0
    7.7938   -1.2023    1.4580 C   0  0  0  0  0  0  0  0  0  0  0  0
   -1.5788   -1.6399   -0.0883 N   0  0  0  0  0  0  0  0  0  0  0  0
   -2.1682    5.6245    0.2338 C   0  0  0  0  0  0  0  0  0  0  0  0
   -1.1537    3.0166    0.1003 C   0  0  0  0  0  0  0  0  0  0  0  0
   -2.3817    3.3193   -0.5151 C   0  0  0  0  0  0  0  0  0  0  0  0
   -2.8541    4.6285   -0.4441 C   0  0  0  0  0  0  0  0  0  0  0  0
   -0.9701    5.3186    0.8593 C   0  0  0  0  0  0  0  0  0  0  0  0
   -0.4718    4.0291    0.7802 C   0  0  0  0  0  0  0  0  0  0  0  0
   -3.2635    2.3262   -1.2389 C   0  0  0  0  0  0  0  0  0  0  0  0
   -3.1803   -6.0832   -0.8036 C   0  0  0  0  0  0  0  0  0  0  0  0
   -1.9826   -5.2814   -0.6685 N   0  0  0  0  0  0  0  0  0  0  0  0
   -2.3000   -3.9427   -0.2161 C   0  0  0  0  0  0  0  0  0  0  0  0
   -1.1300   -2.9806   -0.3779 C   0  0  0  0  0  0  0  0  0  0  0  0
   -1.0216   -5.9471    0.1864 C   0  0  0  0  0  0  0  0  0  0  0  0
   -4.2035    1.7274   -0.3161 N   0  0  0  0  0  0  0  0  0  0  0  0
   -4.4335    0.3946   -0.2419 C   0  0  0  0  0  0  0  0  0  0  0  0
   -5.1087   -0.0087    0.8659 N   0  0  0  0  0  0  0  0  0  0  0  0
   -4.0988   -0.3939   -1.1290 O   0  0  0  0  0  0  0  0  0  0  0  0
   -5.3349   -1.4092    1.1558 C   0  0  0  0  0  0  0  0  0  0  0  0
   -6.3864   -1.5608    2.2394 C   0  0  0  0  0  0  0  0  0  0  0  0
    1.5095    2.4089   -0.0588 H   0  0  0  0  0  0  0  0  0  0  0  0
    2.8667   -2.1754   -0.1375 H   0  0  0  0  0  0  0  0  0  0  0  0
    6.8045    1.2314    0.0993 H   0  0  0  0  0  0  0  0  0  0  0  0
    7.2619   -1.5839   -0.5834 H   0  0  0  0  0  0  0  0  0  0  0  0
    9.2014    0.7089   -0.0129 H   0  0  0  0  0  0  0  0  0  0  0  0
    9.6581   -0.9070   -0.5428 H   0  0  0  0  0  0  0  0  0  0  0  0
    8.7190    0.1326   -1.6149 H   0  0  0  0  0  0  0  0  0  0  0  0
    8.1423   -0.3799    2.0858 H   0  0  0  0  0  0  0  0  0  0  0  0
    6.8696   -1.5927    1.8839 H   0  0  0  0  0  0  0  0  0  0  0  0
    8.5409   -1.9960    1.4965 H   0  0  0  0  0  0  0  0  0  0  0  0
   -2.5206   -1.3928   -0.3749 H   0  0  0  0  0  0  0  0  0  0  0  0
   -2.5686    6.6290    0.2722 H   0  0  0  0  0  0  0  0  0  0  0  0
   -3.7894    4.8718   -0.9347 H   0  0  0  0  0  0  0  0  0  0  0  0
   -0.4238    6.0759    1.4056 H   0  0  0  0  0  0  0  0  0  0  0  0
    0.4611    3.7999    1.2785 H   0  0  0  0  0  0  0  0  0  0  0  0
   -3.7982    2.8601   -2.0303 H   0  0  0  0  0  0  0  0  0  0  0  0
   -2.6906    1.5368   -1.7155 H   0  0  0  0  0  0  0  0  0  0  0  0
   -3.8806   -5.6042   -1.4894 H   0  0  0  0  0  0  0  0  0  0  0  0
   -2.9282   -7.0620   -1.2144 H   0  0  0  0  0  0  0  0  0  0  0  0
   -3.7034   -6.2477    0.1516 H   0  0  0  0  0  0  0  0  0  0  0  0
   -3.1337   -3.5757   -0.8232 H   0  0  0  0  0  0  0  0  0  0  0  0
   -2.6458   -3.9263    0.8328 H   0  0  0  0  0  0  0  0  0  0  0  0
   -0.7341   -3.0688   -1.3969 H   0  0  0  0  0  0  0  0  0  0  0  0
   -0.3160   -3.2346    0.3011 H   0  0  0  0  0  0  0  0  0  0  0  0
   -0.7883   -6.9317   -0.2206 H   0  0  0  0  0  0  0  0  0  0  0  0
   -0.0866   -5.3895    0.2397 H   0  0  0  0  0  0  0  0  0  0  0  0
   -1.3887   -6.0876    1.2156 H   0  0  0  0  0  0  0  0  0  0  0  0
   -4.5341    2.3129    0.4342 H   0  0  0  0  0  0  0  0  0  0  0  0
   -5.1440    0.6194    1.6534 H   0  0  0  0  0  0  0  0  0  0  0  0
   -5.6650   -1.9104    0.2464 H   0  0  0  0  0  0  0  0  0  0  0  0
   -4.4072   -1.9020    1.4697 H   0  0  0  0  0  0  0  0  0  0  0  0
   -6.5515   -2.6150    2.4576 H   0  0  0  0  0  0  0  0  0  0  0  0
   -6.0761   -1.0775    3.1674 H   0  0  0  0  0  0  0  0  0  0  0  0
   -7.3365   -1.1248    1.9302 H   0  0  0  0  0  0  0  0  0  0  0  0
  6  1  2  0
  1  2  1  0
  1 35  1  0
  2  3  2  0
  2  7  1  0
  4  3  1  0
  5  4  2  0
  4 16  1  0
  6  5  1  0
 18  6  1  0
  8  7  2  0
  7 11  1  0
  8  9  1  0
  8 36  1  0
  9 10  2  0
 11 10  1  0
 10 12  1  0
 12 13  1  0
 12 37  1  0
 14 13  1  0
 13 15  1  0
 13 38  1  6
 14 39  1  0
 14 40  1  0
 14 41  1  0
 15 42  1  0
 15 43  1  0
 15 44  1  0
 16 27  1  0
 16 45  1  0
 17 20  2  0
 17 21  1  0
 17 46  1  0
 19 18  2  0
 22 18  1  0
 20 19  1  0
 23 19  1  0
 20 47  1  0
 21 22  2  0
 21 48  1  0
 22 49  1  0
 29 23  1  0
 23 50  1  0
 23 51  1  0
 25 24  1  0
 24 52  1  0
 24 53  1  0
 24 54  1  0
 28 25  1  0
 25 26  1  0
 27 26  1  0
 26 55  1  0
 26 56  1  0
 27 57  1  0
 27 58  1  0
 28 59  1  0
 28 60  1  0
 28 61  1  0
 30 29  1  0
 29 62  1  0
 31 30  1  0
 30 32  2  0
 33 31  1  0
 31 63  1  0
 34 33  1  0
 33 64  1  0
 33 65  1  0
 34 66  1  0
 34 67  1  0
 34 68  1  0
M  END
