
     RDKit          3D

 42 46  0  0  0  0  0  0  0  0999 V2000
    3.1475   -0.0112   -0.0244 C   0  0  0  0  0  0  0  0  0  0  0  0
    2.1996    0.9874   -0.2675 C   0  0  0  0  0  0  0  0  0  0  0  0
    2.5878    2.3378   -0.2185 C   0  0  0  0  0  0  0  0  0  0  0  0
   -0.1597   -0.0664   -0.6905 C   0  0  0  0  0  0  0  0  0  0  0  0
   -2.0002   -2.1345   -0.9571 C   0  0  0  0  0  0  0  0  0  0  0  0
    0.2467   -1.3039   -1.1827 C   0  0  0  0  0  0  0  0  0  0  0  0
    5.4769   -0.6576    0.4920 C   0  0  0  0  0  0  0  0  0  0  0  0
    7.3278   -1.5368    0.9152 C   0  0  0  0  0  0  0  0  0  0  0  0
   -4.4908    0.3373    0.1363 C   0  0  0  0  0  0  0  0  0  0  0  0
   -5.9116    0.1109    0.4271 C   0  0  0  0  0  0  0  0  0  0  0  0
   -8.0777    0.2405    0.9066 C   0  0  0  0  0  0  0  0  0  0  0  0
   -4.0423    1.4718    0.1462 O   0  0  0  0  0  0  0  0  0  0  0  0
   -6.4138   -1.1442    0.4292 O   0  0  0  0  0  0  0  0  0  0  0  0
   -7.7218   -1.0551    0.7201 C   0  0  0  0  0  0  0  0  0  0  0  0
   -6.8945    1.0042    0.7155 C   0  0  0  0  0  0  0  0  0  0  0  0
   -2.4217   -0.8920   -0.4746 C   0  0  0  0  0  0  0  0  0  0  0  0
   -1.4953    0.1380   -0.3377 C   0  0  0  0  0  0  0  0  0  0  0  0
   -0.6777   -2.3311   -1.3064 C   0  0  0  0  0  0  0  0  0  0  0  0
    0.7959    1.0346   -0.5443 C   0  0  0  0  0  0  0  0  0  0  0  0
    0.4015    2.2843   -0.6420 N   0  0  0  0  0  0  0  0  0  0  0  0
    1.4669    3.0557   -0.4483 N   0  0  0  0  0  0  0  0  0  0  0  0
    3.9053    2.7267    0.0429 C   0  0  0  0  0  0  0  0  0  0  0  0
    4.8184    1.7254    0.2625 C   0  0  0  0  0  0  0  0  0  0  0  0
    4.4538    0.3581    0.2365 C   0  0  0  0  0  0  0  0  0  0  0  0
    6.7718   -0.3586    0.7540 N   0  0  0  0  0  0  0  0  0  0  0  0
    6.4100   -2.4880    0.7578 N   0  0  0  0  0  0  0  0  0  0  0  0
    5.2229   -1.9502    0.4866 N   0  0  0  0  0  0  0  0  0  0  0  0
    2.8709   -1.0572   -0.0308 H   0  0  0  0  0  0  0  0  0  0  0  0
   -2.7126   -2.9441   -1.0618 H   0  0  0  0  0  0  0  0  0  0  0  0
    1.2688   -1.4676   -1.4945 H   0  0  0  0  0  0  0  0  0  0  0  0
    8.3628   -1.7400    1.1403 H   0  0  0  0  0  0  0  0  0  0  0  0
   -9.0616    0.6051    1.1504 H   0  0  0  0  0  0  0  0  0  0  0  0
   -8.2721   -1.9810    0.7630 H   0  0  0  0  0  0  0  0  0  0  0  0
   -6.7880    2.0743    0.7825 H   0  0  0  0  0  0  0  0  0  0  0  0
   -4.2779   -1.6559   -0.1378 H   0  0  0  0  0  0  0  0  0  0  0  0
   -1.7926    1.0970    0.0528 H   0  0  0  0  0  0  0  0  0  0  0  0
   -0.3648   -3.2936   -1.6884 H   0  0  0  0  0  0  0  0  0  0  0  0
    4.1941    3.7685    0.0775 H   0  0  0  0  0  0  0  0  0  0  0  0
    5.8475    1.9859    0.4701 H   0  0  0  0  0  0  0  0  0  0  0  0
    6.5253   -3.4884    0.8161 H   0  0  0  0  0  0  0  0  0  0  0  0
    1.3722    4.0572   -0.4983 H   0  0  0  0  0  0  0  0  0  0  0  0
   -3.7723   -0.7819   -0.1309 N   0  0  0  0  0  0  0  0  0  0  0  0
  1  2  2  0
  1 24  1  0
  1 28  1  0
  2  3  1  0
  2 19  1  0
  3 21  1  0
  3 22  2  0
  4  6  1  0
  4 17  2  0
  4 19  1  0
  5 16  2  0
  5 18  1  0
  5 29  1  0
  6 18  2  0
  6 30  1  0
  7 24  1  0
  7 25  1  0
  7 27  2  0
  8 25  2  0
  8 26  1  0
  8 31  1  0
  9 10  1  0
  9 12  2  0
  9 42  1  0
 10 13  1  0
 10 15  2  0
 11 14  2  0
 11 15  1  0
 11 32  1  0
 13 14  1  0
 14 33  1  0
 15 34  1  0
 42 16  1  0
 42 35  1  0
 16 17  1  0
 17 36  1  0
 18 37  1  0
 19 20  2  0
 20 21  1  0
 22 23  1  0
 22 38  1  0
 23 24  2  0
 23 39  1  0
 26 27  1  0
 26 40  1  0
 21 41  1  0
M  END
