
     RDKit          3D

 50 52  0  0  0  0  0  0  0  0999 V2000
   -0.3582   -1.5351    0.0050 O   0  0  0  0  0  0  0  0  0  0  0  0
   -0.3518   -0.3414   -0.2583 C   0  0  0  0  0  0  0  0  0  0  0  0
   -1.4964    0.4186   -0.3945 N   0  0  0  0  0  0  0  0  0  0  0  0
   -2.8180    0.0369   -0.2297 C   0  0  0  0  0  0  0  0  0  0  0  0
   -3.7649    1.0403   -0.1606 C   0  0  0  0  0  0  0  0  0  0  0  0
   -5.1301    0.7390   -0.0221 C   0  0  0  0  0  0  0  0  0  0  0  0
   -6.1445    1.7223    0.0562 C   0  0  0  0  0  0  0  0  0  0  0  0
   -7.4451    1.3295    0.1961 C   0  0  0  0  0  0  0  0  0  0  0  0
   -7.8422    0.0371    0.2667 N   0  0  0  0  0  0  0  0  0  0  0  0
   -6.9183   -0.8839    0.1964 C   0  0  0  0  0  0  0  0  0  0  0  0
   -5.5405   -0.6119    0.0526 C   0  0  0  0  0  0  0  0  0  0  0  0
   -4.5612   -1.6238   -0.0248 C   0  0  0  0  0  0  0  0  0  0  0  0
   -3.2369   -1.3209   -0.1649 C   0  0  0  0  0  0  0  0  0  0  0  0
    0.7847    0.3622   -0.4358 N   0  0  0  0  0  0  0  0  0  0  0  0
    2.0877   -0.2689   -0.3751 C   0  0  0  0  0  0  0  0  0  0  0  0
    3.1720    0.8001   -0.3605 C   0  0  0  0  0  0  0  0  0  0  0  0
    4.6109    0.3049   -0.1260 C   0  0  2  0  0  0  0  0  0  0  0  0
    5.5447    1.5131   -0.3302 C   0  0  0  0  0  0  0  0  0  0  0  0
    5.2812    2.6059    0.5940 N   0  0  0  0  0  0  0  0  0  0  0  0
    4.9867   -0.7783   -1.1508 C   0  0  0  0  0  0  0  0  0  0  0  0
    6.3545   -1.4107   -0.8988 C   0  0  0  0  0  0  0  0  0  0  0  0
    6.4429   -1.9704    0.5172 C   0  0  0  0  0  0  0  0  0  0  0  0
    6.1212   -0.9012    1.5560 C   0  0  0  0  0  0  0  0  0  0  0  0
    4.7593   -0.2632    1.2938 C   0  0  0  0  0  0  0  0  0  0  0  0
   -1.3639    1.4098   -0.5272 H   0  0  0  0  0  0  0  0  0  0  0  0
   -3.4587    2.0792   -0.2143 H   0  0  0  0  0  0  0  0  0  0  0  0
   -5.8949    2.7744    0.0053 H   0  0  0  0  0  0  0  0  0  0  0  0
   -8.2336    2.0702    0.2570 H   0  0  0  0  0  0  0  0  0  0  0  0
   -7.2452   -1.9191    0.2548 H   0  0  0  0  0  0  0  0  0  0  0  0
   -4.8662   -2.6621    0.0241 H   0  0  0  0  0  0  0  0  0  0  0  0
   -2.5131   -2.1150   -0.2284 H   0  0  0  0  0  0  0  0  0  0  0  0
    0.7436    1.3247   -0.7309 H   0  0  0  0  0  0  0  0  0  0  0  0
    2.1442   -0.8826    0.5250 H   0  0  0  0  0  0  0  0  0  0  0  0
    2.2192   -0.9428   -1.2259 H   0  0  0  0  0  0  0  0  0  0  0  0
    3.1416    1.3453   -1.3122 H   0  0  0  0  0  0  0  0  0  0  0  0
    2.9242    1.5236    0.4231 H   0  0  0  0  0  0  0  0  0  0  0  0
    6.5805    1.2055   -0.1813 H   0  0  0  0  0  0  0  0  0  0  0  0
    5.4686    1.8161   -1.3862 H   0  0  0  0  0  0  0  0  0  0  0  0
    6.0528    3.2586    0.5631 H   0  0  0  0  0  0  0  0  0  0  0  0
    4.4718    3.1308    0.2901 H   0  0  0  0  0  0  0  0  0  0  0  0
    4.2443   -1.5818   -1.1211 H   0  0  0  0  0  0  0  0  0  0  0  0
    4.9403   -0.3589   -2.1620 H   0  0  0  0  0  0  0  0  0  0  0  0
    6.5238   -2.2054   -1.6298 H   0  0  0  0  0  0  0  0  0  0  0  0
    7.1539   -0.6809   -1.0575 H   0  0  0  0  0  0  0  0  0  0  0  0
    5.7273   -2.7943    0.6205 H   0  0  0  0  0  0  0  0  0  0  0  0
    7.4339   -2.3945    0.6981 H   0  0  0  0  0  0  0  0  0  0  0  0
    6.1264   -1.3394    2.5576 H   0  0  0  0  0  0  0  0  0  0  0  0
    6.9068   -0.1393    1.5597 H   0  0  0  0  0  0  0  0  0  0  0  0
    4.5694    0.5300    2.0202 H   0  0  0  0  0  0  0  0  0  0  0  0
    3.9928   -1.0280    1.4598 H   0  0  0  0  0  0  0  0  0  0  0  0
  9  8  1  0
  9 10  2  0
  8  7  2  0
 10 11  1  0
  7  6  1  0
 11  6  1  0
 11 12  2  0
  6  5  2  0
 12 13  1  0
  5  4  1  0
 13  4  2  0
  4  3  1  0
  1  2  2  0
  3  2  1  0
  2 14  1  0
 14 15  1  0
 15 16  1  0
 17 16  1  6
 24 17  1  0
 24 23  1  0
 17 20  1  0
 17 18  1  0
 23 22  1  0
 20 21  1  0
 22 21  1  0
 19 18  1  0
  3 25  1  0
  5 26  1  0
  7 27  1  0
  8 28  1  0
 10 29  1  0
 12 30  1  0
 13 31  1  0
 14 32  1  0
 15 33  1  0
 15 34  1  0
 16 35  1  0
 16 36  1  0
 18 37  1  0
 18 38  1  0
 19 39  1  0
 19 40  1  0
 20 41  1  0
 20 42  1  0
 21 43  1  0
 21 44  1  0
 22 45  1  0
 22 46  1  0
 23 47  1  0
 23 48  1  0
 24 49  1  0
 24 50  1  0
M  END
