
     RDKit          3D

 31 33  0  0  0  0  0  0  0  0999 V2000
    3.9367   -1.5285    0.0183 C   0  0  0  0  0  0  0  0  0  0  0  0
    5.1912   -0.9036    0.0037 N   0  0  0  0  0  0  0  0  0  0  0  0
    5.4219    0.4408   -0.0267 C   0  0  0  0  0  0  0  0  0  0  0  0
    4.4588    1.3299   -0.0437 N   0  0  0  0  0  0  0  0  0  0  0  0
    3.2378    0.7806   -0.0335 C   0  0  0  0  0  0  0  0  0  0  0  0
    2.8968   -0.5583   -0.0042 C   0  0  0  0  0  0  0  0  0  0  0  0
    3.8505   -2.7455    0.0464 O   0  0  0  0  0  0  0  0  0  0  0  0
    6.7018    0.8393   -0.0774 N   0  0  0  0  0  0  0  0  0  0  0  0
    2.0517    1.4445   -0.0457 N   0  0  0  0  0  0  0  0  0  0  0  0
    1.0648    0.4942   -0.0235 C   0  0  0  0  0  0  0  0  0  0  0  0
    1.5307   -0.7161    0.0014 N   0  0  0  0  0  0  0  0  0  0  0  0
   -0.6129    0.9692   -0.0295 S   0  0  0  0  0  0  0  0  0  0  0  0
   -1.3925   -0.6788    0.0056 C   0  0  0  0  0  0  0  0  0  0  0  0
   -2.8740   -0.4584    0.0048 C   0  0  0  0  0  0  0  0  0  0  0  0
   -3.5645   -0.3355   -1.1983 C   0  0  0  0  0  0  0  0  0  0  0  0
   -4.9291   -0.1103   -1.2076 C   0  0  0  0  0  0  0  0  0  0  0  0
   -5.6134   -0.0025    0.0028 C   0  0  0  0  0  0  0  0  0  0  0  0
   -4.9325   -0.1194    1.2140 C   0  0  0  0  0  0  0  0  0  0  0  0
   -3.5675   -0.3438    1.2067 C   0  0  0  0  0  0  0  0  0  0  0  0
   -7.0222    0.2266    0.0018 C   0  0  0  0  0  0  0  0  0  0  0  0
   -8.1594    0.4120    0.0010 N   0  0  0  0  0  0  0  0  0  0  0  0
    5.9881   -1.5273    0.0103 H   0  0  0  0  0  0  0  0  0  0  0  0
    7.4483    0.2089    0.1617 H   0  0  0  0  0  0  0  0  0  0  0  0
    6.8870    1.8194    0.0540 H   0  0  0  0  0  0  0  0  0  0  0  0
    1.9328    2.4466   -0.0628 H   0  0  0  0  0  0  0  0  0  0  0  0
   -1.0680   -1.2389   -0.8699 H   0  0  0  0  0  0  0  0  0  0  0  0
   -1.0639   -1.2033    0.9012 H   0  0  0  0  0  0  0  0  0  0  0  0
   -3.0318   -0.4230   -2.1368 H   0  0  0  0  0  0  0  0  0  0  0  0
   -5.4616   -0.0188   -2.1443 H   0  0  0  0  0  0  0  0  0  0  0  0
   -5.4674   -0.0357    2.1501 H   0  0  0  0  0  0  0  0  0  0  0  0
   -3.0373   -0.4381    2.1458 H   0  0  0  0  0  0  0  0  0  0  0  0
  8  3  1  0
  4  3  2  0
  4  5  1  0
  3  2  1  0
  5  9  1  0
  5  6  2  0
  2  1  1  0
  9 10  1  0
  6  1  1  0
  6 11  1  0
  1  7  2  0
 21 20  3  0
 10 11  2  0
 10 12  1  0
 20 17  1  0
 12 13  1  0
 18 17  2  0
 18 19  1  0
 17 16  1  0
 19 14  2  0
 16 15  2  0
 14 15  1  0
 14 13  1  0
  2 22  1  0
  8 23  1  0
  8 24  1  0
  9 25  1  0
 13 26  1  0
 13 27  1  0
 15 28  1  0
 16 29  1  0
 18 30  1  0
 19 31  1  0
M  END
