
     RDKit          3D

 41 43  0  0  0  0  0  0  0  0999 V2000
   -0.3782    0.8784    0.0255 N   0  0  0  0  0  0  0  0  0  0  0  0
   -1.4624   -1.1985   -0.2210 N   0  0  0  0  0  0  0  0  0  0  0  0
    4.1682   -0.3415    0.0308 N   0  0  0  0  0  0  0  0  0  0  0  0
    1.0267    2.7046    0.2249 N   0  0  0  0  0  0  0  0  0  0  0  0
   -7.7383   -0.1607    1.5357 N   0  0  0  0  0  0  0  0  0  0  0  0
    1.9102    0.4408    0.0086 C   0  0  0  0  0  0  0  0  0  0  0  0
    0.8867    1.3795    0.0991 C   0  0  0  0  0  0  0  0  0  0  0  0
   -0.3712   -0.4097   -0.1199 C   0  0  0  0  0  0  0  0  0  0  0  0
   -2.8062   -0.8517   -0.1828 C   0  0  0  0  0  0  0  0  0  0  0  0
    3.3182    0.7302    0.1062 C   0  0  0  0  0  0  0  0  0  0  0  0
   -3.7221   -1.9046   -0.2978 C   0  0  0  0  0  0  0  0  0  0  0  0
   -5.0790   -1.6653   -0.2687 C   0  0  0  0  0  0  0  0  0  0  0  0
   -5.5421   -0.3625   -0.1214 C   0  0  0  0  0  0  0  0  0  0  0  0
   -4.6452    0.6899   -0.0139 C   0  0  0  0  0  0  0  0  0  0  0  0
   -3.2810    0.4545   -0.0430 C   0  0  0  0  0  0  0  0  0  0  0  0
    5.5569   -0.3691    0.1216 C   0  0  0  0  0  0  0  0  0  0  0  0
    6.1605   -1.6328    0.1036 C   0  0  0  0  0  0  0  0  0  0  0  0
    7.5347   -1.7585    0.1853 C   0  0  0  0  0  0  0  0  0  0  0  0
    8.3528   -0.6403    0.2870 C   0  0  0  0  0  0  0  0  0  0  0  0
    7.7329    0.5913    0.3008 C   0  0  0  0  0  0  0  0  0  0  0  0
    6.3640    0.7658    0.2213 C   0  0  0  0  0  0  0  0  0  0  0  0
    3.7240    1.8819    0.2549 O   0  0  0  0  0  0  0  0  0  0  0  0
   -7.9565   -1.1429   -0.7307 O   0  0  0  0  0  0  0  0  0  0  0  0
   -7.5152    1.3212   -0.4417 O   0  0  0  0  0  0  0  0  0  0  0  0
    8.4930    1.6956    0.3969 F   0  0  0  0  0  0  0  0  0  0  0  0
    1.1970   -1.1485   -0.1893 S   0  0  0  0  0  0  0  0  0  0  0  0
   -7.2806   -0.0561   -0.0414 S   0  0  1  0  0  0  0  0  0  0  0  0
   -1.2862   -2.1869   -0.3266 H   0  0  0  0  0  0  0  0  0  0  0  0
    3.7576   -1.2559   -0.0794 H   0  0  0  0  0  0  0  0  0  0  0  0
    0.2185    3.2516    0.4667 H   0  0  0  0  0  0  0  0  0  0  0  0
    1.9373    3.0825    0.4230 H   0  0  0  0  0  0  0  0  0  0  0  0
   -7.3203    0.5475    2.1291 H   0  0  0  0  0  0  0  0  0  0  0  0
   -7.6156   -1.0861    1.9313 H   0  0  0  0  0  0  0  0  0  0  0  0
   -3.3656   -2.9205   -0.4171 H   0  0  0  0  0  0  0  0  0  0  0  0
   -5.7640   -2.4965   -0.3645 H   0  0  0  0  0  0  0  0  0  0  0  0
   -4.9945    1.7084    0.0902 H   0  0  0  0  0  0  0  0  0  0  0  0
   -2.5976    1.2833    0.0376 H   0  0  0  0  0  0  0  0  0  0  0  0
    5.5453   -2.5211    0.0260 H   0  0  0  0  0  0  0  0  0  0  0  0
    7.9779   -2.7453    0.1708 H   0  0  0  0  0  0  0  0  0  0  0  0
    9.4288   -0.7272    0.3516 H   0  0  0  0  0  0  0  0  0  0  0  0
    5.9522    1.7614    0.2362 H   0  0  0  0  0  0  0  0  0  0  0  0
  7  1  1  0
  1  8  2  0
  8  2  1  0
  2  9  1  0
  2 28  1  0
 10  3  1  0
  3 16  1  0
  3 29  1  0
  4  7  1  0
  4 30  1  0
  4 31  1  0
 27  5  1  1
  5 32  1  0
  5 33  1  0
  7  6  2  0
 10  6  1  0
  6 26  1  0
  8 26  1  0
  9 11  2  0
  9 15  1  0
 22 10  2  0
 11 12  1  0
 11 34  1  0
 12 13  2  0
 12 35  1  0
 14 13  1  0
 13 27  1  0
 15 14  2  0
 14 36  1  0
 15 37  1  0
 21 16  1  0
 16 17  2  0
 17 18  1  0
 17 38  1  0
 19 18  2  0
 18 39  1  0
 20 19  1  0
 19 40  1  0
 25 20  1  0
 21 20  2  0
 21 41  1  0
 23 27  2  0
 27 24  2  0
M  END
