
     RDKit          3D

 16 17  0  0  0  0  0  0  0  0999 V2000
   -1.6085   -1.2985    0.0430 C   0  0  0  0  0  0  0  0  0  0  0  0
    0.8971    1.3524   -0.0429 N   0  0  0  0  0  0  0  0  0  0  0  0
    1.2121   -1.2293   -0.0166 S   0  0  0  0  0  0  0  0  0  0  0  0
   -2.7884   -0.5681    0.0567 C   0  0  0  0  0  0  0  0  0  0  0  0
   -2.7588    0.8267    0.0370 C   0  0  0  0  0  0  0  0  0  0  0  0
   -1.5579    1.5169    0.0028 C   0  0  0  0  0  0  0  0  0  0  0  0
   -0.3610    0.8025   -0.0125 C   0  0  0  0  0  0  0  0  0  0  0  0
   -0.4112   -0.6020    0.0084 C   0  0  0  0  0  0  0  0  0  0  0  0
    1.8043    0.4319   -0.0476 C   0  0  0  0  0  0  0  0  0  0  0  0
   -1.6274   -2.3802    0.0584 H   0  0  0  0  0  0  0  0  0  0  0  0
   -3.7370   -1.0877    0.0829 H   0  0  0  0  0  0  0  0  0  0  0  0
    3.4395    1.6015    0.0450 H   0  0  0  0  0  0  0  0  0  0  0  0
    3.7751   -0.0647    0.1388 H   0  0  0  0  0  0  0  0  0  0  0  0
   -3.6888    1.3802    0.0477 H   0  0  0  0  0  0  0  0  0  0  0  0
   -1.5384    2.5990   -0.0116 H   0  0  0  0  0  0  0  0  0  0  0  0
    3.1258    0.6584   -0.1209 N   0  0  0  0  0  0  0  0  0  0  0  0
  1  4  2  0
  1  8  1  0
  2  7  1  0
  2  9  2  0
  3  8  1  0
  3  9  1  0
  4  5  1  0
 16  9  1  0
  5  6  2  0
  6  7  1  0
  7  8  2  0
  1 10  1  0
  4 11  1  0
 16 12  1  0
 16 13  1  0
  5 14  1  0
  6 15  1  0
M  END
