
     RDKit          3D

 41 41  0  0  0  0  0  0  0  0999 V2000
    1.7480   -1.6771   -0.1118 Cl  0  0  0  0  0  0  0  0  0  0  0  0
    3.1725   -0.6896   -0.0658 C   0  0  0  0  0  0  0  0  0  0  0  0
    4.2475   -1.0500   -0.8633 C   0  0  0  0  0  0  0  0  0  0  0  0
    5.4044   -0.2838   -0.8385 C   0  0  0  0  0  0  0  0  0  0  0  0
    5.4774    0.8320   -0.0187 C   0  0  0  0  0  0  0  0  0  0  0  0
    4.3890    1.1775    0.7699 C   0  0  0  0  0  0  0  0  0  0  0  0
    3.2168    0.4272    0.7670 C   0  0  0  0  0  0  0  0  0  0  0  0
    2.0587    0.8364    1.6408 C   0  0  0  0  0  0  0  0  0  0  0  0
    0.9085    1.2339    0.8703 N   0  0  0  0  0  0  0  0  0  0  0  0
   -0.3145    0.6650    1.0057 C   0  0  0  0  0  0  0  0  0  0  0  0
   -0.5910   -0.1512    1.8752 O   0  0  0  0  0  0  0  0  0  0  0  0
   -1.2508    1.1103    0.1121 N   0  0  0  0  0  0  0  0  0  0  0  0
   -2.5075    0.4176    0.0129 C   0  0  1  0  0  0  0  0  0  0  0  0
   -3.4415    1.1551   -0.9480 C   0  0  0  0  0  0  0  0  0  0  0  0
   -3.7951    2.5850   -0.5340 C   0  0  1  0  0  0  0  0  0  0  0  0
   -4.7152    3.2019   -1.5833 C   0  0  0  0  0  0  0  0  0  0  0  0
   -4.4385    2.6407    0.8479 C   0  0  0  0  0  0  0  0  0  0  0  0
   -2.3069   -1.0099   -0.4967 C   0  0  0  0  0  0  0  0  0  0  0  0
   -1.5070   -1.2896   -1.3681 O   0  0  0  0  0  0  0  0  0  0  0  0
   -3.1172   -1.9041    0.0966 N   0  0  0  0  0  0  0  0  0  0  0  0
   -3.2502   -3.1572   -0.4218 O   0  0  0  0  0  0  0  0  0  0  0  0
    4.1834   -1.9239   -1.4975 H   0  0  0  0  0  0  0  0  0  0  0  0
    6.2433   -0.5652   -1.4611 H   0  0  0  0  0  0  0  0  0  0  0  0
    6.3759    1.4338    0.0074 H   0  0  0  0  0  0  0  0  0  0  0  0
    4.4437    2.0517    1.4073 H   0  0  0  0  0  0  0  0  0  0  0  0
    1.7649    0.0140    2.2921 H   0  0  0  0  0  0  0  0  0  0  0  0
    2.3842    1.6530    2.2902 H   0  0  0  0  0  0  0  0  0  0  0  0
    1.0481    1.9389    0.1646 H   0  0  0  0  0  0  0  0  0  0  0  0
   -0.9153    1.5291   -0.7427 H   0  0  0  0  0  0  0  0  0  0  0  0
   -2.9705    0.3847    1.0019 H   0  0  0  0  0  0  0  0  0  0  0  0
   -2.9904    1.1649   -1.9459 H   0  0  0  0  0  0  0  0  0  0  0  0
   -4.3663    0.5764   -1.0344 H   0  0  0  0  0  0  0  0  0  0  0  0
   -2.8753    3.1783   -0.5070 H   0  0  0  0  0  0  0  0  0  0  0  0
   -4.9639    4.2334   -1.3291 H   0  0  0  0  0  0  0  0  0  0  0  0
   -4.2494    3.2060   -2.5704 H   0  0  0  0  0  0  0  0  0  0  0  0
   -5.6520    2.6445   -1.6617 H   0  0  0  0  0  0  0  0  0  0  0  0
   -3.7490    2.3388    1.6376 H   0  0  0  0  0  0  0  0  0  0  0  0
   -4.7688    3.6542    1.0806 H   0  0  0  0  0  0  0  0  0  0  0  0
   -5.3122    1.9860    0.8997 H   0  0  0  0  0  0  0  0  0  0  0  0
   -3.8457   -1.6334    0.7416 H   0  0  0  0  0  0  0  0  0  0  0  0
   -2.6607   -3.7246    0.0915 H   0  0  0  0  0  0  0  0  0  0  0  0
 21 20  1  0
 20 18  1  0
 19 18  2  0
 18 13  1  0
 16 15  1  0
 15 17  1  0
 15 14  1  0
 13 14  1  0
 13 12  1  0
 12 10  1  0
 10 11  2  0
 10  9  1  0
  9  8  1  0
  8  7  1  0
  6  7  1  0
  6  5  2  0
  7  2  2  0
  5  4  1  0
  2  1  1  0
  2  3  1  0
  4  3  2  0
  3 22  1  0
  4 23  1  0
  5 24  1  0
  6 25  1  0
  8 26  1  0
  8 27  1  0
  9 28  1  0
 12 29  1  0
 13 30  1  1
 14 31  1  0
 14 32  1  0
 15 33  1  1
 16 34  1  0
 16 35  1  0
 16 36  1  0
 17 37  1  0
 17 38  1  0
 17 39  1  0
 20 40  1  0
 21 41  1  0
M  END
