
     RDKit          3D

 41 43  0  0  0  0  0  0  0  0999 V2000
    6.8707   -3.9105    8.0221 O   0  0  0  0  0  0  0  0  0  0  0  0
    6.6526   -2.8220    7.5162 C   0  0  0  0  0  0  0  0  0  0  0  0
    5.5032   -2.4664    6.5943 C   0  0  0  0  0  0  0  0  0  0  0  0
    7.4027   -1.7158    7.6571 N   0  0  0  0  0  0  0  0  0  0  0  0
    6.9646   -0.5904    6.8629 C   0  0  0  0  0  0  0  0  0  0  0  0
    5.4906   -0.9377    6.5958 C   0  0  1  0  0  0  0  0  0  0  0  0
    4.9007   -0.2670    5.3839 C   0  0  0  0  0  0  0  0  0  0  0  0
    3.9334   -0.9147    4.6097 C   0  0  0  0  0  0  0  0  0  0  0  0
    3.3463   -0.2954    3.5168 C   0  0  0  0  0  0  0  0  0  0  0  0
    3.7258    1.0197    3.1798 C   0  0  0  0  0  0  0  0  0  0  0  0
    4.6817    1.6631    3.9467 C   0  0  0  0  0  0  0  0  0  0  0  0
    5.2621    1.0245    5.0410 C   0  0  0  0  0  0  0  0  0  0  0  0
    3.1101    1.5491    2.1039 O   0  0  0  0  0  0  0  0  0  0  0  0
    3.4484    2.8674    1.7296 C   0  0  0  0  0  0  0  0  0  0  0  0
    2.4343   -0.8555    2.7028 O   0  0  0  0  0  0  0  0  0  0  0  0
    1.8862   -2.1342    3.0150 C   0  0  2  0  0  0  0  0  0  0  0  0
    1.0354   -2.5423    1.8228 C   0  0  0  0  0  0  0  0  0  0  0  0
   -0.2646   -1.7370    1.9740 C   0  0  0  0  0  0  0  0  0  0  0  0
   -0.3626   -1.3833    3.4762 C   0  0  0  0  0  0  0  0  0  0  0  0
    0.8582   -2.0380    4.1379 C   0  0  0  0  0  0  0  0  0  0  0  0
    3.2197    3.5895    2.5185 H   0  0  0  0  0  0  0  0  0  0  0  0
    2.8471    3.1061    0.8555 H   0  0  0  0  0  0  0  0  0  0  0  0
    4.5053    2.9613    1.4651 H   0  0  0  0  0  0  0  0  0  0  0  0
    4.9936    2.6715    3.7105 H   0  0  0  0  0  0  0  0  0  0  0  0
    6.0006    1.5642    5.6206 H   0  0  0  0  0  0  0  0  0  0  0  0
    3.6396   -1.9215    4.8738 H   0  0  0  0  0  0  0  0  0  0  0  0
    2.6889   -2.8521    3.2152 H   0  0  0  0  0  0  0  0  0  0  0  0
    1.2122   -1.4967    5.0167 H   0  0  0  0  0  0  0  0  0  0  0  0
    0.6205   -3.0534    4.4648 H   0  0  0  0  0  0  0  0  0  0  0  0
   -0.3371   -0.3022    3.6162 H   0  0  0  0  0  0  0  0  0  0  0  0
   -1.2922   -1.7362    3.9232 H   0  0  0  0  0  0  0  0  0  0  0  0
   -1.1266   -2.3088    1.6300 H   0  0  0  0  0  0  0  0  0  0  0  0
   -0.2299   -0.8318    1.3670 H   0  0  0  0  0  0  0  0  0  0  0  0
    0.8359   -3.6127    1.9062 H   0  0  0  0  0  0  0  0  0  0  0  0
    1.5413   -2.3830    0.8693 H   0  0  0  0  0  0  0  0  0  0  0  0
    4.9233   -0.6142    7.4761 H   0  0  0  0  0  0  0  0  0  0  0  0
    7.5330   -0.5167    5.9297 H   0  0  0  0  0  0  0  0  0  0  0  0
    7.0831    0.3457    7.4079 H   0  0  0  0  0  0  0  0  0  0  0  0
    8.2888   -1.7278    8.1386 H   0  0  0  0  0  0  0  0  0  0  0  0
    5.7320   -2.8668    5.6003 H   0  0  0  0  0  0  0  0  0  0  0  0
    4.5728   -2.9250    6.9270 H   0  0  0  0  0  0  0  0  0  0  0  0
  1  2  2  0
  2  4  1  0
  2  3  1  0
  3  6  1  0
  3 40  1  0
  3 41  1  0
  4  5  1  0
  4 39  1  0
  5  6  1  0
  5 37  1  0
  5 38  1  0
  6  7  1  0
  6 36  1  1
  7 12  1  0
  7  8  2  0
  8  9  1  0
  8 26  1  0
  9 10  2  0
  9 15  1  0
 10 13  1  0
 10 11  1  0
 11 12  2  0
 11 24  1  0
 12 25  1  0
 13 14  1  0
 14 21  1  0
 14 22  1  0
 14 23  1  0
 15 16  1  0
 16 20  1  0
 16 17  1  0
 16 27  1  1
 17 18  1  0
 17 34  1  0
 17 35  1  0
 18 19  1  0
 18 32  1  0
 18 33  1  0
 19 20  1  0
 19 30  1  0
 19 31  1  0
 20 28  1  0
 20 29  1  0
M  END
