
     RDKit          3D

 27 28  0  0  0  0  0  0  0  0999 V2000
    3.9513    2.4718   -0.0147 C   0  0  0  0  0  0  0  0  0  0  0  0
    3.0868    1.2577    0.0035 C   0  0  0  0  0  0  0  0  0  0  0  0
    3.5082   -0.0511    0.0287 C   0  0  0  0  0  0  0  0  0  0  0  0
    4.8779   -0.5532    0.0458 C   0  0  0  0  0  0  0  0  0  0  0  0
    5.8595    0.1494    0.0333 O   0  0  0  0  0  0  0  0  0  0  0  0
    4.9101   -1.8802    0.0773 O   0  0  0  0  0  0  0  0  0  0  0  0
    2.1548   -1.1111    0.0428 S   0  0  0  0  0  0  0  0  0  0  0  0
    1.1156    0.2563    0.0112 C   0  0  0  0  0  0  0  0  0  0  0  0
   -0.3416    0.1399    0.0072 C   0  0  0  0  0  0  0  0  0  0  0  0
   -1.1181    1.2986    0.0292 C   0  0  0  0  0  0  0  0  0  0  0  0
   -2.4984    1.2167    0.0321 C   0  0  0  0  0  0  0  0  0  0  0  0
   -3.1223   -0.0256    0.0155 C   0  0  0  0  0  0  0  0  0  0  0  0
   -4.6162   -0.1149   -0.0242 C   0  0  1  0  0  0  0  0  0  0  0  0
   -5.0733   -0.1342   -1.2852 F   0  0  0  0  0  0  0  0  0  0  0  0
   -5.0709   -1.2244    0.5676 F   0  0  0  0  0  0  0  0  0  0  0  0
   -5.2005    0.9235    0.5819 F   0  0  0  0  0  0  0  0  0  0  0  0
   -2.3572   -1.1854   -0.0132 C   0  0  0  0  0  0  0  0  0  0  0  0
   -0.9767   -1.1008   -0.0166 C   0  0  0  0  0  0  0  0  0  0  0  0
    1.7394    1.4009   -0.0054 N   0  0  0  0  0  0  0  0  0  0  0  0
    4.6043    2.5078    0.8564 H   0  0  0  0  0  0  0  0  0  0  0  0
    4.5903    2.4893   -0.8969 H   0  0  0  0  0  0  0  0  0  0  0  0
    3.3299    3.3639   -0.0197 H   0  0  0  0  0  0  0  0  0  0  0  0
    5.8264   -2.1961    0.0911 H   0  0  0  0  0  0  0  0  0  0  0  0
   -0.6398    2.2679    0.0470 H   0  0  0  0  0  0  0  0  0  0  0  0
   -3.0762    2.1308    0.0520 H   0  0  0  0  0  0  0  0  0  0  0  0
   -2.8207   -2.1624   -0.0315 H   0  0  0  0  0  0  0  0  0  0  0  0
   -0.4038   -2.0197   -0.0394 H   0  0  0  0  0  0  0  0  0  0  0  0
  5  4  2  0
  6  4  1  0
  4  3  1  0
  3  7  1  0
  3  2  2  0
  7  8  1  0
  2  1  1  0
  2 19  1  0
  8 19  2  0
  8  9  1  0
 10  9  2  0
 10 11  1  0
  9 18  1  0
 11 12  2  0
 18 17  2  0
 12 17  1  0
 12 13  1  0
 13 16  1  1
 13 14  1  0
 13 15  1  0
  1 20  1  0
  1 21  1  0
  1 22  1  0
  6 23  1  0
 10 24  1  0
 11 25  1  0
 17 26  1  0
 18 27  1  0
M  END
