
     RDKit          3D

 48 52  0  0  0  0  0  0  0  0999 V2000
   -3.7578    0.8607    1.4027 O   0  0  0  0  0  0  0  0  0  0  0  0
   -4.2614    0.2024    0.5093 C   0  0  0  0  0  0  0  0  0  0  0  0
   -5.7280    0.3163    0.1456 C   0  0  1  0  0  0  0  0  0  0  0  0
   -6.5130    0.8769    1.2273 N   0  0  0  0  0  0  0  0  0  0  0  0
   -7.7135    1.3776    0.5708 C   0  0  0  0  0  0  0  0  0  0  0  0
   -7.2779    1.9401   -0.7958 C   0  0  0  0  0  0  0  0  0  0  0  0
   -5.9448    1.2297   -1.0930 C   0  0  0  0  0  0  0  0  0  0  0  0
   -3.5769   -0.6565   -0.2818 N   0  0  0  0  0  0  0  0  0  0  0  0
   -2.1898   -0.8855   -0.3144 C   0  0  0  0  0  0  0  0  0  0  0  0
   -1.6527   -1.3010   -1.5488 C   0  0  0  0  0  0  0  0  0  0  0  0
   -0.3097   -1.5840   -1.7048 C   0  0  0  0  0  0  0  0  0  0  0  0
   -1.3767   -0.7471    0.8017 C   0  0  0  0  0  0  0  0  0  0  0  0
   -0.0183   -1.0203    0.6499 C   0  0  0  0  0  0  0  0  0  0  0  0
    0.4993   -1.4305   -0.5875 C   0  0  0  0  0  0  0  0  0  0  0  0
    1.8381   -1.6091   -0.3610 N   0  0  0  0  0  0  0  0  0  0  0  0
    2.0732   -1.3146    0.9424 C   0  0  0  0  0  0  0  0  0  0  0  0
    3.4375   -1.4215    1.5400 C   0  0  0  0  0  0  0  0  0  0  0  0
    4.4994   -0.8522    0.6579 C   0  0  0  0  0  0  0  0  0  0  0  0
    5.5225   -1.5254    0.0529 C   0  0  0  0  0  0  0  0  0  0  0  0
    6.2810   -0.6604   -0.6825 N   0  0  0  0  0  0  0  0  0  0  0  0
    5.7654    0.5986   -0.5741 C   0  0  0  0  0  0  0  0  0  0  0  0
    6.1861    1.8031   -1.1360 C   0  0  0  0  0  0  0  0  0  0  0  0
    5.4493    2.9345   -0.8416 C   0  0  0  0  0  0  0  0  0  0  0  0
    4.3194    2.8758   -0.0083 C   0  0  0  0  0  0  0  0  0  0  0  0
    3.9058    1.6805    0.5467 C   0  0  0  0  0  0  0  0  0  0  0  0
    4.6336    0.5188    0.2661 C   0  0  0  0  0  0  0  0  0  0  0  0
    0.9913   -0.9567    1.5818 N   0  0  0  0  0  0  0  0  0  0  0  0
   -6.1172   -0.6822   -0.0844 H   0  0  0  0  0  0  0  0  0  0  0  0
   -6.0005    1.6599    1.6190 H   0  0  0  0  0  0  0  0  0  0  0  0
   -8.4116    0.5485    0.4285 H   0  0  0  0  0  0  0  0  0  0  0  0
   -8.2124    2.1141    1.2001 H   0  0  0  0  0  0  0  0  0  0  0  0
   -8.0268    1.7595   -1.5670 H   0  0  0  0  0  0  0  0  0  0  0  0
   -7.1303    3.0189   -0.7375 H   0  0  0  0  0  0  0  0  0  0  0  0
   -5.1336    1.9545   -1.1853 H   0  0  0  0  0  0  0  0  0  0  0  0
   -5.9667    0.6514   -2.0168 H   0  0  0  0  0  0  0  0  0  0  0  0
   -4.1041   -1.1008   -1.0185 H   0  0  0  0  0  0  0  0  0  0  0  0
   -2.3134   -1.3992   -2.4015 H   0  0  0  0  0  0  0  0  0  0  0  0
    0.0815   -1.9046   -2.6609 H   0  0  0  0  0  0  0  0  0  0  0  0
   -1.7655   -0.4510    1.7632 H   0  0  0  0  0  0  0  0  0  0  0  0
    2.5360   -1.8771   -1.0376 H   0  0  0  0  0  0  0  0  0  0  0  0
    3.4104   -0.9169    2.5077 H   0  0  0  0  0  0  0  0  0  0  0  0
    3.6548   -2.4740    1.7448 H   0  0  0  0  0  0  0  0  0  0  0  0
    5.7701   -2.5747    0.0953 H   0  0  0  0  0  0  0  0  0  0  0  0
    7.0975   -0.9183   -1.2105 H   0  0  0  0  0  0  0  0  0  0  0  0
    7.0558    1.8516   -1.7790 H   0  0  0  0  0  0  0  0  0  0  0  0
    5.7483    3.8861   -1.2618 H   0  0  0  0  0  0  0  0  0  0  0  0
    3.7676    3.7838    0.1984 H   0  0  0  0  0  0  0  0  0  0  0  0
    3.0338    1.6451    1.1892 H   0  0  0  0  0  0  0  0  0  0  0  0
 20 19  1  0
 20 21  1  0
 19 18  2  0
 22 21  2  0
 22 23  1  0
 21 26  1  0
 18 26  1  0
 18 17  1  0
 26 25  2  0
 23 24  2  0
 17 16  1  0
 24 25  1  0
 27 16  2  0
 27 13  1  0
 16 15  1  0
 13 12  2  0
 13 14  1  0
 15 14  1  0
 12  9  1  0
 14 11  2  0
  1  2  2  0
  5  4  1  0
  5  6  1  0
  4  3  1  0
  9  8  1  0
  9 10  2  0
  2  8  1  0
  2  3  1  0
 11 10  1  0
  3  7  1  0
  6  7  1  0
  3 28  1  6
  4 29  1  0
  5 30  1  0
  5 31  1  0
  6 32  1  0
  6 33  1  0
  7 34  1  0
  7 35  1  0
  8 36  1  0
 10 37  1  0
 11 38  1  0
 12 39  1  0
 15 40  1  0
 17 41  1  0
 17 42  1  0
 19 43  1  0
 20 44  1  0
 22 45  1  0
 23 46  1  0
 24 47  1  0
 25 48  1  0
M  END
