
     RDKit          3D

 40 42  0  0  0  0  0  0  0  0999 V2000
   -0.8289   -2.6645   -0.1764 C   0  0  0  0  0  0  0  0  0  0  0  0
   -0.7382   -1.5668    0.6192 C   0  0  0  0  0  0  0  0  0  0  0  0
    0.3275   -3.4361   -0.4349 C   0  0  0  0  0  0  0  0  0  0  0  0
    1.5105   -3.0137    0.0710 C   0  0  0  0  0  0  0  0  0  0  0  0
   -2.1013    3.1185   -0.3962 C   0  0  0  0  0  0  0  0  0  0  0  0
   -2.9657    2.5908    0.5607 C   0  0  0  0  0  0  0  0  0  0  0  0
   -2.8612    1.2764    0.9994 C   0  0  0  0  0  0  0  0  0  0  0  0
   -1.8702    0.4731    0.4573 C   0  0  0  0  0  0  0  0  0  0  0  0
   -1.0000    0.9639   -0.5073 C   0  0  0  0  0  0  0  0  0  0  0  0
   -2.1579   -3.0390   -0.7778 C   0  0  1  0  0  0  0  0  0  0  0  0
    0.5092   -1.1462    1.2201 C   0  0  0  0  0  0  0  0  0  0  0  0
    3.2235   -0.2129    0.3997 C   0  0  0  0  0  0  0  0  0  0  0  0
    4.2457    1.6156   -0.3244 C   0  0  0  0  0  0  0  0  0  0  0  0
   -1.1278    2.2835   -0.9110 C   0  0  0  0  0  0  0  0  0  0  0  0
   -2.6606   -2.0397   -1.5088 F   0  0  0  0  0  0  0  0  0  0  0  0
   -4.8046    4.1048    1.5521 N   0  0  0  0  0  0  0  0  0  0  0  0
   -1.8310   -0.8119    0.9039 O   0  0  0  0  0  0  0  0  0  0  0  0
   -0.0362    2.8971   -2.1007 Cl  0  0  0  0  0  0  0  0  0  0  0  0
    1.6014   -1.9143    0.8583 N   0  0  0  0  0  0  0  0  0  0  0  0
   -2.0541   -4.0996   -1.5785 F   0  0  0  0  0  0  0  0  0  0  0  0
   -3.0547   -3.3401    0.1633 F   0  0  0  0  0  0  0  0  0  0  0  0
    0.6162   -0.1788    1.9558 O   0  0  0  0  0  0  0  0  0  0  0  0
    2.5597    0.1356   -0.6465 N   0  0  0  0  0  0  0  0  0  0  0  0
    3.1857    1.2529   -1.0884 N   0  0  0  0  0  0  0  0  0  0  0  0
    4.2576    0.6353    0.6522 N   0  0  0  0  0  0  0  0  0  0  0  0
    5.0074    2.5593   -0.4466 O   0  0  0  0  0  0  0  0  0  0  0  0
    0.3044   -4.3242   -1.0452 H   0  0  0  0  0  0  0  0  0  0  0  0
    2.4342   -3.5375   -0.1255 H   0  0  0  0  0  0  0  0  0  0  0  0
   -2.1931    4.1446   -0.7219 H   0  0  0  0  0  0  0  0  0  0  0  0
   -3.5358    0.8841    1.7481 H   0  0  0  0  0  0  0  0  0  0  0  0
   -0.2251    0.3466   -0.9435 H   0  0  0  0  0  0  0  0  0  0  0  0
    5.8247   -0.3424    1.6441 H   0  0  0  0  0  0  0  0  0  0  0  0
    5.8678    1.4236    1.6700 H   0  0  0  0  0  0  0  0  0  0  0  0
    4.7157    0.5650    2.6946 H   0  0  0  0  0  0  0  0  0  0  0  0
    3.6475   -2.1865    1.1021 H   0  0  0  0  0  0  0  0  0  0  0  0
    2.9053   -1.1413    2.2999 H   0  0  0  0  0  0  0  0  0  0  0  0
    2.8359    1.7453   -1.8938 H   0  0  0  0  0  0  0  0  0  0  0  0
    2.9025   -1.4025    1.2414 C   0  0  0  0  0  0  0  0  0  0  0  0
   -3.9848    3.4278    1.1103 C   0  0  0  0  0  0  0  0  0  0  0  0
    5.2169    0.5567    1.7285 C   0  0  0  0  0  0  0  0  0  0  0  0
 24 23  1  0
 24 13  1  0
 23 12  2  0
  4  3  2  0
  4 19  1  0
  3  1  1  0
 13 26  2  0
 13 25  1  0
 10 21  1  1
 12 38  1  0
 12 25  1  0
 38 19  1  0
 25 40  1  0
 19 11  1  0
  1 10  1  0
  1  2  2  0
 10 15  1  0
 10 20  1  0
 11  2  1  0
 11 22  2  0
  2 17  1  0
 17  8  1  0
  8  9  2  0
  8  7  1  0
  9 14  1  0
  7  6  2  0
 14 18  1  0
 14  5  2  0
  6  5  1  0
  6 39  1  0
 39 16  3  0
  3 27  1  0
  4 28  1  0
  5 29  1  0
  7 30  1  0
  9 31  1  0
 40 32  1  0
 40 33  1  0
 40 34  1  0
 38 35  1  0
 38 36  1  0
 24 37  1  0
M  END
