
     RDKit          3D

 60 62  0  0  0  0  0  0  0  0999 V2000
   -7.5929    4.1008    2.8014 C   0  0  0  0  0  0  0  0  0  0  0  0
   -6.7152    2.9221    3.1964 C   0  0  0  0  0  0  0  0  0  0  0  0
   -6.1774    2.1648    1.9891 C   0  0  0  0  0  0  0  0  0  0  0  0
   -5.2901    0.9862    2.4064 C   0  0  0  0  0  0  0  0  0  0  0  0
   -4.7813    0.2191    1.2464 C   0  0  0  0  0  0  0  0  0  0  0  0
   -5.6032   -0.7232    0.7474 O   0  0  0  0  0  0  0  0  0  0  0  0
   -4.9843   -1.3021   -0.3120 C   0  0  0  0  0  0  0  0  0  0  0  0
   -5.5139   -2.2969   -1.1114 C   0  0  0  0  0  0  0  0  0  0  0  0
   -4.7153   -2.7336   -2.1566 C   0  0  0  0  0  0  0  0  0  0  0  0
   -3.4502   -2.1794   -2.3786 C   0  0  0  0  0  0  0  0  0  0  0  0
   -2.9425   -1.1823   -1.5624 C   0  0  0  0  0  0  0  0  0  0  0  0
   -3.7226   -0.7384   -0.4933 C   0  0  0  0  0  0  0  0  0  0  0  0
   -3.6081    0.2617    0.5465 C   0  0  0  0  0  0  0  0  0  0  0  0
   -2.5194    1.1981    0.8294 C   0  0  0  0  0  0  0  0  0  0  0  0
   -2.7327    2.3087    1.2776 O   0  0  0  0  0  0  0  0  0  0  0  0
   -1.1192    0.7585    0.5746 C   0  0  0  0  0  0  0  0  0  0  0  0
   -0.7472   -0.5736    0.7203 C   0  0  0  0  0  0  0  0  0  0  0  0
    0.5745   -0.9432    0.5408 C   0  0  0  0  0  0  0  0  0  0  0  0
    1.1355   -2.9419    0.8387 I   0  0  0  0  0  0  0  0  0  0  0  0
   -0.1549    1.7175    0.2765 C   0  0  0  0  0  0  0  0  0  0  0  0
    1.1573    1.3316    0.0822 C   0  0  0  0  0  0  0  0  0  0  0  0
    2.6130    2.7837   -0.3349 I   0  0  0  0  0  0  0  0  0  0  0  0
    1.5510   -0.0049    0.2024 C   0  0  0  0  0  0  0  0  0  0  0  0
    2.8333   -0.3573    0.0483 O   0  0  0  0  0  0  0  0  0  0  0  0
    3.2246   -0.7263   -1.2834 C   0  0  0  0  0  0  0  0  0  0  0  0
    4.7316   -0.8178   -1.3198 C   0  0  0  0  0  0  0  0  0  0  0  0
    5.2608   -1.8320   -0.4311 N   0  0  0  0  0  0  0  0  0  0  0  0
    5.2192   -3.1548   -1.0317 C   0  0  0  0  0  0  0  0  0  0  0  0
    5.2305   -4.2768   -0.0071 C   0  0  0  0  0  0  0  0  0  0  0  0
    6.5751   -1.4838    0.0826 C   0  0  0  0  0  0  0  0  0  0  0  0
    6.5174   -0.4237    1.1705 C   0  0  0  0  0  0  0  0  0  0  0  0
   -7.0387    4.8205    2.1963 H   0  0  0  0  0  0  0  0  0  0  0  0
   -8.4548    3.7742    2.2167 H   0  0  0  0  0  0  0  0  0  0  0  0
   -7.9694    4.6273    3.6788 H   0  0  0  0  0  0  0  0  0  0  0  0
   -5.8764    3.2762    3.8032 H   0  0  0  0  0  0  0  0  0  0  0  0
   -7.2824    2.2347    3.8309 H   0  0  0  0  0  0  0  0  0  0  0  0
   -7.0124    1.8026    1.3822 H   0  0  0  0  0  0  0  0  0  0  0  0
   -5.5985    2.8422    1.3567 H   0  0  0  0  0  0  0  0  0  0  0  0
   -4.4470    1.3557    2.9902 H   0  0  0  0  0  0  0  0  0  0  0  0
   -5.8572    0.3108    3.0530 H   0  0  0  0  0  0  0  0  0  0  0  0
   -6.4987   -2.7078   -0.9335 H   0  0  0  0  0  0  0  0  0  0  0  0
   -5.0805   -3.5117   -2.8135 H   0  0  0  0  0  0  0  0  0  0  0  0
   -2.8554   -2.5383   -3.2080 H   0  0  0  0  0  0  0  0  0  0  0  0
   -1.9661   -0.7643   -1.7648 H   0  0  0  0  0  0  0  0  0  0  0  0
   -1.4874   -1.3153    0.9899 H   0  0  0  0  0  0  0  0  0  0  0  0
   -0.4420    2.7568    0.1894 H   0  0  0  0  0  0  0  0  0  0  0  0
    2.7506   -1.6735   -1.5573 H   0  0  0  0  0  0  0  0  0  0  0  0
    2.8904    0.0301   -2.0004 H   0  0  0  0  0  0  0  0  0  0  0  0
    5.0291   -0.9796   -2.3686 H   0  0  0  0  0  0  0  0  0  0  0  0
    5.1320    0.1597   -1.0444 H   0  0  0  0  0  0  0  0  0  0  0  0
    4.2963   -3.2376   -1.6095 H   0  0  0  0  0  0  0  0  0  0  0  0
    6.0386   -3.2961   -1.7570 H   0  0  0  0  0  0  0  0  0  0  0  0
    6.1500   -4.2994    0.5787 H   0  0  0  0  0  0  0  0  0  0  0  0
    4.3933   -4.1681    0.6826 H   0  0  0  0  0  0  0  0  0  0  0  0
    5.1414   -5.2433   -0.5042 H   0  0  0  0  0  0  0  0  0  0  0  0
    7.0259   -2.3808    0.5097 H   0  0  0  0  0  0  0  0  0  0  0  0
    7.2547   -1.1620   -0.7243 H   0  0  0  0  0  0  0  0  0  0  0  0
    6.0899    0.5154    0.8173 H   0  0  0  0  0  0  0  0  0  0  0  0
    5.9112   -0.7698    2.0076 H   0  0  0  0  0  0  0  0  0  0  0  0
    7.5195   -0.2058    1.5415 H   0  0  0  0  0  0  0  0  0  0  0  0
  8  9  1  0
  8  7  2  0
  6  7  1  0
  6  5  1  0
  9 10  2  0
  1  2  1  0
  7 12  1  0
  3  2  1  0
  3  4  1  0
  5  4  1  0
  5 13  2  0
 10 11  1  0
 12 13  1  0
 12 11  2  0
 13 14  1  0
 19 18  1  0
 17 18  2  0
 17 16  1  0
 14 16  1  0
 14 15  2  0
 18 23  1  0
 16 20  2  0
 23 24  1  0
 23 21  2  0
 20 21  1  0
 24 25  1  0
 21 22  1  0
 25 26  1  0
 26 27  1  0
 27 30  1  0
 27 28  1  0
 30 31  1  0
 28 29  1  0
  1 32  1  0
  1 33  1  0
  1 34  1  0
  2 35  1  0
  2 36  1  0
  3 37  1  0
  3 38  1  0
  4 39  1  0
  4 40  1  0
  8 41  1  0
  9 42  1  0
 10 43  1  0
 11 44  1  0
 17 45  1  0
 20 46  1  0
 25 47  1  0
 25 48  1  0
 26 49  1  0
 26 50  1  0
 28 51  1  0
 28 52  1  0
 29 53  1  0
 29 54  1  0
 29 55  1  0
 30 56  1  0
 30 57  1  0
 31 58  1  0
 31 59  1  0
 31 60  1  0
M  END
