
     RDKit          3D

 27 28  0  0  0  0  0  0  0  0999 V2000
   -0.0727   -2.6001   -0.3009 O   0  0  0  0  0  0  0  0  0  0  0  0
    0.2983   -1.4354   -0.3297 C   0  0  0  0  0  0  0  0  0  0  0  0
    1.7493   -1.1019   -0.5576 C   0  0  0  0  0  0  0  0  0  0  0  0
    2.2036    0.2021    0.0994 C   0  0  2  0  0  0  0  0  0  0  0  0
    3.6326    0.5200   -0.3310 C   0  0  0  0  0  0  0  0  0  0  0  0
    2.1584    0.0736    1.6235 C   0  0  0  0  0  0  0  0  0  0  0  0
    1.2698    1.3135   -0.3777 C   0  0  0  0  0  0  0  0  0  0  0  0
   -0.1815    1.0012   -0.1951 C   0  0  0  0  0  0  0  0  0  0  0  0
   -1.0035    2.0401   -0.0663 N   0  0  0  0  0  0  0  0  0  0  0  0
   -2.2916    1.7495    0.0656 C   0  0  0  0  0  0  0  0  0  0  0  0
   -2.8517    0.5631    0.0922 N   0  0  0  0  0  0  0  0  0  0  0  0
   -2.0405   -0.5016   -0.0291 C   0  0  0  0  0  0  0  0  0  0  0  0
   -0.6360   -0.3180   -0.1874 C   0  0  0  0  0  0  0  0  0  0  0  0
   -2.6199   -1.6946    0.0059 N   0  0  0  0  0  0  0  0  0  0  0  0
    2.3581   -1.9463   -0.2251 H   0  0  0  0  0  0  0  0  0  0  0  0
    1.8849   -1.0256   -1.6446 H   0  0  0  0  0  0  0  0  0  0  0  0
    3.7081    0.6316   -1.4144 H   0  0  0  0  0  0  0  0  0  0  0  0
    3.9772    1.4493    0.1264 H   0  0  0  0  0  0  0  0  0  0  0  0
    4.3175   -0.2739   -0.0259 H   0  0  0  0  0  0  0  0  0  0  0  0
    2.8238   -0.7240    1.9595 H   0  0  0  0  0  0  0  0  0  0  0  0
    2.4833    1.0010    2.0991 H   0  0  0  0  0  0  0  0  0  0  0  0
    1.1593   -0.1534    2.0006 H   0  0  0  0  0  0  0  0  0  0  0  0
    1.4945    2.2590    0.1208 H   0  0  0  0  0  0  0  0  0  0  0  0
    1.4329    1.4866   -1.4493 H   0  0  0  0  0  0  0  0  0  0  0  0
   -2.9642    2.5956    0.1678 H   0  0  0  0  0  0  0  0  0  0  0  0
   -3.6204   -1.7522    0.0959 H   0  0  0  0  0  0  0  0  0  0  0  0
   -2.0725   -2.5336   -0.0935 H   0  0  0  0  0  0  0  0  0  0  0  0
  1  2  2  0
  2  3  1  0
  2 13  1  0
  3  4  1  0
  4  5  1  1
  4  6  1  0
  4  7  1  0
  7  8  1  0
  8  9  1  0
  8 13  2  0
  9 10  2  0
 10 11  1  0
 11 12  2  0
 12 13  1  0
 12 14  1  0
  3 15  1  0
  3 16  1  0
  5 17  1  0
  5 18  1  0
  5 19  1  0
  6 20  1  0
  6 21  1  0
  6 22  1  0
  7 23  1  0
  7 24  1  0
 10 25  1  0
 14 26  1  0
 14 27  1  0
M  END
