
     RDKit          3D

 35 36  0  0  0  0  0  0  0  0999 V2000
   -3.3563    0.1351    0.3994 N   0  0  0  0  0  0  0  0  0  0  0  0
   -1.2766   -0.9627    1.0375 C   0  0  0  0  0  0  0  0  0  0  0  0
    0.0285   -1.5291    0.5530 C   0  0  0  0  0  0  0  0  0  0  0  0
    0.1591   -2.8829    0.3766 C   0  0  0  0  0  0  0  0  0  0  0  0
    1.3491   -3.4630   -0.1097 C   0  0  0  0  0  0  0  0  0  0  0  0
    2.4150   -2.6687   -0.4208 C   0  0  0  0  0  0  0  0  0  0  0  0
    1.1342   -0.6802    0.2404 C   0  0  0  0  0  0  0  0  0  0  0  0
    3.3512    0.9322   -0.4018 C   0  0  0  0  0  0  0  0  0  0  0  0
    3.1037    3.7004    0.0069 C   0  0  0  0  0  0  0  0  0  0  0  0
   -5.4889    1.2647    0.3219 C   0  0  0  0  0  0  0  0  0  0  0  0
   -4.2544    0.7553   -0.3795 C   0  0  0  0  0  0  0  0  0  0  0  0
   -4.0866    0.9022   -1.5842 O   0  0  0  0  0  0  0  0  0  0  0  0
   -2.1176   -0.4112   -0.1116 C   0  0  0  0  0  0  0  0  0  0  0  0
    2.3321   -1.2669   -0.2522 C   0  0  0  0  0  0  0  0  0  0  0  0
    1.0849    0.7196    0.4052 C   0  0  0  0  0  0  0  0  0  0  0  0
    2.1638    1.5164    0.0939 C   0  0  0  0  0  0  0  0  0  0  0  0
    3.4203   -0.4248   -0.5630 C   0  0  0  0  0  0  0  0  0  0  0  0
    2.0153    2.8412    0.2855 O   0  0  0  0  0  0  0  0  0  0  0  0
   -3.5503    0.0359    1.3824 H   0  0  0  0  0  0  0  0  0  0  0  0
   -1.8412   -1.7486    1.5446 H   0  0  0  0  0  0  0  0  0  0  0  0
   -1.1106   -0.1759    1.7789 H   0  0  0  0  0  0  0  0  0  0  0  0
   -0.6779   -3.5283    0.6170 H   0  0  0  0  0  0  0  0  0  0  0  0
    1.4082   -4.5363   -0.2336 H   0  0  0  0  0  0  0  0  0  0  0  0
    3.3348   -3.0988   -0.7987 H   0  0  0  0  0  0  0  0  0  0  0  0
    4.2115    1.5365   -0.6554 H   0  0  0  0  0  0  0  0  0  0  0  0
    3.3927    3.6692   -1.0467 H   0  0  0  0  0  0  0  0  0  0  0  0
    2.7689    4.7068    0.2457 H   0  0  0  0  0  0  0  0  0  0  0  0
    3.9776    3.4670    0.6202 H   0  0  0  0  0  0  0  0  0  0  0  0
   -5.4994    1.0621    1.3911 H   0  0  0  0  0  0  0  0  0  0  0  0
   -5.5701    2.3416    0.1740 H   0  0  0  0  0  0  0  0  0  0  0  0
   -6.3729    0.8090   -0.1237 H   0  0  0  0  0  0  0  0  0  0  0  0
   -2.3199   -1.2119   -0.8282 H   0  0  0  0  0  0  0  0  0  0  0  0
   -1.5658    0.3633   -0.6505 H   0  0  0  0  0  0  0  0  0  0  0  0
    0.1913    1.1944    0.7896 H   0  0  0  0  0  0  0  0  0  0  0  0
    4.3336   -0.8680   -0.9408 H   0  0  0  0  0  0  0  0  0  0  0  0
 17  8  2  0
 17 14  1  0
  6 14  2  0
  6  5  1  0
  8 16  1  0
 14  7  1  0
  5  4  2  0
 16 18  1  0
 16 15  2  0
 18  9  1  0
  7 15  1  0
  7  3  2  0
  4  3  1  0
  3  2  1  0
  2 13  1  0
 13  1  1  0
  1 11  1  0
 11 10  1  0
 11 12  2  0
  1 19  1  0
  2 20  1  0
  2 21  1  0
  4 22  1  0
  5 23  1  0
  6 24  1  0
  8 25  1  0
  9 26  1  0
  9 27  1  0
  9 28  1  0
 10 29  1  0
 10 30  1  0
 10 31  1  0
 13 32  1  0
 13 33  1  0
 15 34  1  0
 17 35  1  0
M  END
