
     RDKit          3D

 60 59  0  0  0  0  0  0  0  0999 V2000
   -9.7871    3.4020   -0.2872 C   0  0  0  0  0  0  0  0  0  0  0  0
   -8.6305    2.6898    0.4128 C   0  0  0  0  0  0  0  0  0  0  0  0
   -9.0319    1.3349    0.9067 C   0  0  0  0  0  0  0  0  0  0  0  0
   -8.5596    0.1469    0.5311 C   0  0  0  0  0  0  0  0  0  0  0  0
   -7.4811   -0.1233   -0.4713 C   0  0  0  0  0  0  0  0  0  0  0  0
   -6.2699   -0.8311    0.1417 C   0  0  2  0  0  0  0  0  0  0  0  0
   -5.1310   -0.9849   -0.8742 C   0  0  1  0  0  0  0  0  0  0  0  0
   -3.8769   -1.5889   -0.2372 C   0  0  0  0  0  0  0  0  0  0  0  0
   -2.7247   -1.6536   -1.1899 C   0  0  0  0  0  0  0  0  0  0  0  0
   -1.5341   -1.0716   -1.0538 C   0  0  0  0  0  0  0  0  0  0  0  0
   -1.0412   -0.2397    0.0969 C   0  0  0  0  0  0  0  0  0  0  0  0
   10.5185   -0.3143    1.6666 O   0  0  0  0  0  0  0  0  0  0  0  0
   10.4193   -0.4456    0.4720 C   0  0  0  0  0  0  0  0  0  0  0  0
   11.2607   -1.1813   -0.2485 O   0  0  0  0  0  0  0  0  0  0  0  0
    9.3546    0.1823   -0.3842 C   0  0  0  0  0  0  0  0  0  0  0  0
    8.3290    0.9851    0.4100 C   0  0  0  0  0  0  0  0  0  0  0  0
    7.3217    1.6063   -0.5072 C   0  0  0  0  0  0  0  0  0  0  0  0
    6.0167    1.3484   -0.5704 C   0  0  0  0  0  0  0  0  0  0  0  0
    5.2307    0.3935    0.2824 C   0  0  0  0  0  0  0  0  0  0  0  0
    4.2148    1.1315    1.1058 C   0  0  0  0  0  0  0  0  0  0  0  0
    2.8882    1.0569    1.0126 C   0  0  0  0  0  0  0  0  0  0  0  0
    2.0862    0.1889    0.0865 C   0  0  0  0  0  0  0  0  0  0  0  0
    1.3096   -0.8407    0.8557 C   0  0  0  0  0  0  0  0  0  0  0  0
   -0.0113   -1.0100    0.8741 C   0  0  0  0  0  0  0  0  0  0  0  0
   -5.5363   -1.7120   -2.0175 O   0  0  0  0  0  0  0  0  0  0  0  0
  -10.0966    2.8575   -1.1800 H   0  0  0  0  0  0  0  0  0  0  0  0
  -10.6556    3.4861    0.3682 H   0  0  0  0  0  0  0  0  0  0  0  0
   -9.5020    4.4097   -0.5912 H   0  0  0  0  0  0  0  0  0  0  0  0
   -7.7765    2.6304   -0.2632 H   0  0  0  0  0  0  0  0  0  0  0  0
   -8.3050    3.2944    1.2652 H   0  0  0  0  0  0  0  0  0  0  0  0
   -9.8247    1.3416    1.6506 H   0  0  0  0  0  0  0  0  0  0  0  0
   -8.9973   -0.7311    0.9964 H   0  0  0  0  0  0  0  0  0  0  0  0
   -7.8804   -0.7473   -1.2792 H   0  0  0  0  0  0  0  0  0  0  0  0
   -7.1416    0.8011   -0.9427 H   0  0  0  0  0  0  0  0  0  0  0  0
   -5.8887   -0.2104    0.9602 H   0  0  0  0  0  0  0  0  0  0  0  0
   -4.8838    0.0197   -1.2333 H   0  0  0  0  0  0  0  0  0  0  0  0
   -3.6177   -1.0091    0.6505 H   0  0  0  0  0  0  0  0  0  0  0  0
   -4.1138   -2.5984    0.1180 H   0  0  0  0  0  0  0  0  0  0  0  0
   -2.8896   -2.2431   -2.0866 H   0  0  0  0  0  0  0  0  0  0  0  0
   -0.8009   -1.2309   -1.8393 H   0  0  0  0  0  0  0  0  0  0  0  0
   -0.6236    0.6935   -0.2882 H   0  0  0  0  0  0  0  0  0  0  0  0
   -1.8616    0.0376    0.7623 H   0  0  0  0  0  0  0  0  0  0  0  0
   11.9337   -1.5752    0.3266 H   0  0  0  0  0  0  0  0  0  0  0  0
    9.8470    0.8159   -1.1290 H   0  0  0  0  0  0  0  0  0  0  0  0
    8.8602   -0.6088   -0.9551 H   0  0  0  0  0  0  0  0  0  0  0  0
    7.8501    0.3430    1.1494 H   0  0  0  0  0  0  0  0  0  0  0  0
    8.8419    1.7744    0.9666 H   0  0  0  0  0  0  0  0  0  0  0  0
    7.7240    2.3335   -1.2081 H   0  0  0  0  0  0  0  0  0  0  0  0
    5.4290    1.8873   -1.3081 H   0  0  0  0  0  0  0  0  0  0  0  0
    4.7469   -0.3432   -0.3638 H   0  0  0  0  0  0  0  0  0  0  0  0
    5.8933   -0.1660    0.9462 H   0  0  0  0  0  0  0  0  0  0  0  0
    4.6332    1.8132    1.8410 H   0  0  0  0  0  0  0  0  0  0  0  0
    2.2986    1.6698    1.6885 H   0  0  0  0  0  0  0  0  0  0  0  0
    1.4144    0.8171   -0.5025 H   0  0  0  0  0  0  0  0  0  0  0  0
    2.7380   -0.3178   -0.6294 H   0  0  0  0  0  0  0  0  0  0  0  0
    1.9148   -1.5099    1.4608 H   0  0  0  0  0  0  0  0  0  0  0  0
   -0.4097   -1.8201    1.4781 H   0  0  0  0  0  0  0  0  0  0  0  0
   -5.6032   -2.6431   -1.7801 H   0  0  0  0  0  0  0  0  0  0  0  0
   -6.6250   -2.0685    0.7278 O   0  0  0  0  0  0  0  0  0  0  0  0
   -7.2040   -2.5453    0.1238 H   0  0  0  0  0  0  0  0  0  0  0  0
 12 13  2  0
 13 15  1  0
 13 14  1  0
 15 16  1  0
 16 17  1  0
 17 18  2  0
 18 19  1  0
 20 19  1  0
 20 21  2  0
 21 22  1  0
 22 23  1  0
 23 24  2  0
 24 11  1  0
 10 11  1  0
 10  9  2  0
  9  8  1  0
  8  7  1  0
  7  6  1  0
  7 25  1  0
  6  5  1  0
  5  4  1  0
  4  3  2  0
  3  2  1  0
  2  1  1  0
  1 26  1  0
  1 27  1  0
  1 28  1  0
  2 29  1  0
  2 30  1  0
  3 31  1  0
  4 32  1  0
  5 33  1  0
  5 34  1  0
  6 35  1  1
  7 36  1  6
  8 37  1  0
  8 38  1  0
  9 39  1  0
 10 40  1  0
 11 41  1  0
 11 42  1  0
 14 43  1  0
 15 44  1  0
 15 45  1  0
 16 46  1  0
 16 47  1  0
 17 48  1  0
 18 49  1  0
 19 50  1  0
 19 51  1  0
 20 52  1  0
 21 53  1  0
 22 54  1  0
 22 55  1  0
 23 56  1  0
 24 57  1  0
 25 58  1  0
  6 59  1  0
 59 60  1  0
M  END
