
     RDKit          3D

 72 74  0  0  0  0  0  0  0  0999 V2000
    6.6633    3.3529   -0.7616 C   0  0  0  0  0  0  0  0  0  0  0  0
    5.5635    2.5121   -0.6746 C   0  0  0  0  0  0  0  0  0  0  0  0
    4.3279    3.0127   -0.2743 C   0  0  0  0  0  0  0  0  0  0  0  0
    4.2086    4.3612    0.0501 C   0  0  0  0  0  0  0  0  0  0  0  0
    5.3087    5.2021   -0.0380 C   0  0  0  0  0  0  0  0  0  0  0  0
    6.5383    4.6989   -0.4419 C   0  0  0  0  0  0  0  0  0  0  0  0
    3.1420    2.1077   -0.1615 C   0  0  0  0  0  0  0  0  0  0  0  0
    3.0780    1.4078    1.4959 S   0  0  1  0  0  0  0  0  0  0  0  0
    1.7932    0.3779    1.4851 N   0  0  0  0  0  0  0  0  0  0  0  0
    0.3445   -1.3765    0.8385 C   0  0  0  0  0  0  0  0  0  0  0  0
    0.1638   -2.6078    0.2578 N   0  0  0  0  0  0  0  0  0  0  0  0
    1.1336   -3.2554   -0.4667 C   0  0  0  0  0  0  0  0  0  0  0  0
    2.3720   -2.7000   -0.5341 C   0  0  0  0  0  0  0  0  0  0  0  0
    2.6623   -1.4867    0.1222 C   0  0  0  0  0  0  0  0  0  0  0  0
   -0.5951   -0.7875    1.3872 O   0  0  0  0  0  0  0  0  0  0  0  0
    0.8065   -4.5401   -1.1515 C   0  0  0  0  0  0  0  0  0  0  0  0
   -1.1709   -3.1554    0.4020 C   0  0  0  0  0  0  0  0  0  0  0  0
   -2.1479   -2.4434   -0.5229 C   0  0  0  0  0  0  0  0  0  0  0  0
    1.6790   -0.8286    0.7946 C   0  0  0  0  0  0  0  0  0  0  0  0
   -3.4207   -2.4804   -0.1067 N   0  0  0  0  0  0  0  0  0  0  0  0
   -5.5659   -1.3591    0.0957 C   0  0  0  0  0  0  0  0  0  0  0  0
   -5.3352   -0.3754    1.0310 N   0  0  0  0  0  0  0  0  0  0  0  0
   -6.5046   -0.1476    1.6570 C   0  0  0  0  0  0  0  0  0  0  0  0
   -7.4607   -0.9163    1.2081 N   0  0  0  0  0  0  0  0  0  0  0  0
   -6.8903   -1.6852    0.2301 C   0  0  0  0  0  0  0  0  0  0  0  0
   -4.1027    0.3306    1.2569 C   0  0  0  0  0  0  0  0  0  0  0  0
   -3.7604    1.2091    0.0533 C   0  0  0  0  0  0  0  0  0  0  0  0
   -2.4648    1.2138   -0.2668 N   0  0  0  0  0  0  0  0  0  0  0  0
   -1.8429    1.9516   -1.3737 C   0  0  1  0  0  0  0  0  0  0  0  0
   -2.0186    3.4584   -1.1840 C   0  0  0  0  0  0  0  0  0  0  0  0
   -0.3558    1.6093   -1.3211 C   0  0  0  0  0  0  0  0  0  0  0  0
   -2.4149    1.5001   -2.7183 C   0  0  0  0  0  0  0  0  0  0  0  0
   -4.6405    1.8390   -0.5124 O   0  0  0  0  0  0  0  0  0  0  0  0
   -1.7706   -1.9221   -1.5575 O   0  0  0  0  0  0  0  0  0  0  0  0
    4.2931    0.6399    1.7065 O   0  0  0  0  0  0  0  0  0  0  0  0
    2.7193    2.4572    2.4322 O   0  0  0  0  0  0  0  0  0  0  0  0
   -7.6809   -2.6958   -0.5271 C   0  0  0  0  0  0  0  0  0  0  0  0
   -4.5249   -1.8783   -0.8306 C   0  0  0  0  0  0  0  0  0  0  0  0
    7.6186    2.9569   -1.0798 H   0  0  0  0  0  0  0  0  0  0  0  0
    5.6661    1.4648   -0.9301 H   0  0  0  0  0  0  0  0  0  0  0  0
    3.2503    4.7586    0.3610 H   0  0  0  0  0  0  0  0  0  0  0  0
    5.2051    6.2506    0.2084 H   0  0  0  0  0  0  0  0  0  0  0  0
    7.3957    5.3555   -0.5110 H   0  0  0  0  0  0  0  0  0  0  0  0
    2.2016    2.6402   -0.3041 H   0  0  0  0  0  0  0  0  0  0  0  0
    3.1807    1.2774   -0.8697 H   0  0  0  0  0  0  0  0  0  0  0  0
    0.9339    0.7423    1.8817 H   0  0  0  0  0  0  0  0  0  0  0  0
    3.1457   -3.1994   -1.0972 H   0  0  0  0  0  0  0  0  0  0  0  0
    3.6730   -1.1072    0.0767 H   0  0  0  0  0  0  0  0  0  0  0  0
   -0.0432   -4.4364   -1.8272 H   0  0  0  0  0  0  0  0  0  0  0  0
    1.6629   -4.8603   -1.7394 H   0  0  0  0  0  0  0  0  0  0  0  0
    0.5770   -5.3385   -0.4431 H   0  0  0  0  0  0  0  0  0  0  0  0
   -1.1641   -4.2141    0.1536 H   0  0  0  0  0  0  0  0  0  0  0  0
   -1.4805   -3.0824    1.4438 H   0  0  0  0  0  0  0  0  0  0  0  0
   -3.6425   -2.9805    0.7405 H   0  0  0  0  0  0  0  0  0  0  0  0
   -6.5955    0.5863    2.4447 H   0  0  0  0  0  0  0  0  0  0  0  0
   -4.2378    0.9818    2.1220 H   0  0  0  0  0  0  0  0  0  0  0  0
   -3.3056   -0.3696    1.5043 H   0  0  0  0  0  0  0  0  0  0  0  0
   -1.8602    0.5831    0.2429 H   0  0  0  0  0  0  0  0  0  0  0  0
   -1.6032    3.7784   -0.2271 H   0  0  0  0  0  0  0  0  0  0  0  0
   -1.4921    3.9947   -1.9748 H   0  0  0  0  0  0  0  0  0  0  0  0
   -3.0659    3.7535   -1.2212 H   0  0  0  0  0  0  0  0  0  0  0  0
   -0.1869    0.5413   -1.4711 H   0  0  0  0  0  0  0  0  0  0  0  0
    0.1817    2.1470   -2.1016 H   0  0  0  0  0  0  0  0  0  0  0  0
    0.0709    1.8947   -0.3575 H   0  0  0  0  0  0  0  0  0  0  0  0
   -3.4689    1.7532   -2.8170 H   0  0  0  0  0  0  0  0  0  0  0  0
   -1.8758    1.9878   -3.5321 H   0  0  0  0  0  0  0  0  0  0  0  0
   -2.3073    0.4214   -2.8348 H   0  0  0  0  0  0  0  0  0  0  0  0
   -8.2407   -3.3404    0.1513 H   0  0  0  0  0  0  0  0  0  0  0  0
   -8.4036   -2.2215   -1.1938 H   0  0  0  0  0  0  0  0  0  0  0  0
   -7.0418   -3.3332   -1.1360 H   0  0  0  0  0  0  0  0  0  0  0  0
   -4.1191   -1.0883   -1.4650 H   0  0  0  0  0  0  0  0  0  0  0  0
   -4.9908   -2.6020   -1.5034 H   0  0  0  0  0  0  0  0  0  0  0  0
  1  2  2  0
  1  6  1  0
  1 39  1  0
  2  3  1  0
  2 40  1  0
  3  4  2  0
  3  7  1  0
  4  5  1  0
  4 41  1  0
  5  6  2  0
  5 42  1  0
  6 43  1  0
  7  8  1  0
  7 44  1  0
  7 45  1  0
  8  9  1  6
  8 35  2  0
  8 36  2  0
  9 19  1  0
  9 46  1  0
 10 11  1  0
 10 15  2  0
 10 19  1  0
 11 12  1  0
 11 17  1  0
 12 13  2  0
 12 16  1  0
 13 14  1  0
 13 47  1  0
 14 19  2  0
 14 48  1  0
 16 49  1  0
 16 50  1  0
 16 51  1  0
 17 18  1  0
 17 52  1  0
 17 53  1  0
 18 20  1  0
 18 34  2  0
 20 38  1  0
 20 54  1  0
 21 22  1  0
 21 25  2  0
 21 38  1  0
 22 23  1  0
 22 26  1  0
 23 24  2  0
 23 55  1  0
 24 25  1  0
 25 37  1  0
 26 27  1  0
 26 56  1  0
 26 57  1  0
 27 28  1  0
 27 33  2  0
 29 28  1  1
 28 58  1  0
 29 30  1  0
 29 31  1  0
 29 32  1  0
 30 59  1  0
 30 60  1  0
 30 61  1  0
 31 62  1  0
 31 63  1  0
 31 64  1  0
 32 65  1  0
 32 66  1  0
 32 67  1  0
 37 68  1  0
 37 69  1  0
 37 70  1  0
 38 71  1  0
 38 72  1  0
M  END
