
     RDKit          3D

 50 53  0  0  0  0  0  0  0  0999 V2000
   -2.3162    0.4056   -1.5214 C   0  0  0  0  0  0  0  0  0  0  0  0
   -1.2753   -0.4654   -1.8072 C   0  0  0  0  0  0  0  0  0  0  0  0
   -0.5243   -1.0389   -0.7880 C   0  0  0  0  0  0  0  0  0  0  0  0
    0.6198   -1.9684   -1.1053 C   0  0  0  0  0  0  0  0  0  0  0  0
    5.9989   -0.1681    0.8412 C   0  0  0  0  0  0  0  0  0  0  0  0
    6.2566    1.7941   -0.5767 C   0  0  0  0  0  0  0  0  0  0  0  0
   -5.1428   -1.4434    1.4099 C   0  0  0  0  0  0  0  0  0  0  0  0
   -5.6126   -1.2283   -1.0415 C   0  0  0  0  0  0  0  0  0  0  0  0
   -0.8247   -0.7200    0.5351 C   0  0  0  0  0  0  0  0  0  0  0  0
   -1.8584    0.1492    0.8366 C   0  0  0  0  0  0  0  0  0  0  0  0
   -2.6064    0.7008   -0.1975 C   0  0  0  0  0  0  0  0  0  0  0  0
    1.9062   -1.3403   -0.8866 N   0  0  0  0  0  0  0  0  0  0  0  0
    2.6471   -1.5454    0.2168 C   0  0  0  0  0  0  0  0  0  0  0  0
    2.3235   -2.3067    1.1176 O   0  0  0  0  0  0  0  0  0  0  0  0
    3.9246   -0.8059    0.2994 C   0  0  0  0  0  0  0  0  0  0  0  0
    4.9810   -1.1272    1.1040 C   0  0  0  0  0  0  0  0  0  0  0  0
    7.2931    0.0600    1.3170 C   0  0  0  0  0  0  0  0  0  0  0  0
    8.0281    1.0677    0.8941 N   0  0  0  0  0  0  0  0  0  0  0  0
    7.5139    1.9060   -0.0251 C   0  0  0  0  0  0  0  0  0  0  0  0
    5.4899    0.7195   -0.1285 C   0  0  0  0  0  0  0  0  0  0  0  0
    4.2406    0.3067   -0.4508 N   0  0  0  0  0  0  0  0  0  0  0  0
   -3.9879    1.7481    0.1815 S   0  0  1  0  0  0  0  0  0  0  0  0
   -3.7246    2.3648    1.4724 O   0  0  0  0  0  0  0  0  0  0  0  0
   -4.2178    2.5930   -0.9802 O   0  0  0  0  0  0  0  0  0  0  0  0
   -5.3143    0.8033    0.3587 N   0  0  0  0  0  0  0  0  0  0  0  0
   -5.5068    0.0250    1.5846 C   0  0  0  0  0  0  0  0  0  0  0  0
   -5.8751   -2.0471    0.2170 C   0  0  0  0  0  0  0  0  0  0  0  0
   -5.9699    0.2355   -0.8225 C   0  0  0  0  0  0  0  0  0  0  0  0
   -2.8816    0.8466   -2.3310 H   0  0  0  0  0  0  0  0  0  0  0  0
   -1.0468   -0.6942   -2.8407 H   0  0  0  0  0  0  0  0  0  0  0  0
    0.5624   -2.8623   -0.4863 H   0  0  0  0  0  0  0  0  0  0  0  0
    0.5683   -2.2889   -2.1455 H   0  0  0  0  0  0  0  0  0  0  0  0
   -4.0625   -1.5461    1.2734 H   0  0  0  0  0  0  0  0  0  0  0  0
   -5.3975   -1.9750    2.3291 H   0  0  0  0  0  0  0  0  0  0  0  0
   -4.5608   -1.3158   -1.3278 H   0  0  0  0  0  0  0  0  0  0  0  0
   -6.1999   -1.6078   -1.8803 H   0  0  0  0  0  0  0  0  0  0  0  0
   -0.2472   -1.1550    1.3411 H   0  0  0  0  0  0  0  0  0  0  0  0
   -2.0715    0.3895    1.8695 H   0  0  0  0  0  0  0  0  0  0  0  0
    2.2607   -0.7695   -1.6360 H   0  0  0  0  0  0  0  0  0  0  0  0
    5.0274   -1.9615    1.7847 H   0  0  0  0  0  0  0  0  0  0  0  0
    7.7323   -0.5964    2.0615 H   0  0  0  0  0  0  0  0  0  0  0  0
    8.1607    2.7178   -0.3375 H   0  0  0  0  0  0  0  0  0  0  0  0
    3.6120    0.8228   -1.0449 H   0  0  0  0  0  0  0  0  0  0  0  0
   -6.5664    0.1116    1.8437 H   0  0  0  0  0  0  0  0  0  0  0  0
   -4.9517    0.4785    2.4028 H   0  0  0  0  0  0  0  0  0  0  0  0
   -5.5686   -3.0839    0.0670 H   0  0  0  0  0  0  0  0  0  0  0  0
   -6.9510   -2.0638    0.4220 H   0  0  0  0  0  0  0  0  0  0  0  0
   -5.7373    0.8375   -1.6980 H   0  0  0  0  0  0  0  0  0  0  0  0
   -7.0472    0.3316   -0.6560 H   0  0  0  0  0  0  0  0  0  0  0  0
    5.9002    2.5015   -1.3129 H   0  0  0  0  0  0  0  0  0  0  0  0
  8 27  1  0
  8 28  1  0
 27  7  1  0
 28 25  1  0
  7 26  1  0
 25 26  1  0
 25 22  1  0
 23 22  2  0
 22 24  2  0
 22 11  1  6
  1 11  2  0
  1  2  1  0
 11 10  1  0
  2  3  2  0
 10  9  2  0
  3  9  1  0
  3  4  1  0
  4 12  1  0
 14 13  2  0
 12 13  1  0
 13 15  1  0
 15 16  2  0
 15 21  1  0
 16  5  1  0
 21 20  1  0
  5 20  1  0
  5 17  2  0
 20  6  2  0
 17 18  1  0
  6 19  1  0
 18 19  2  0
  1 29  1  0
  2 30  1  0
  4 31  1  0
  4 32  1  0
  6 50  1  0
  7 33  1  0
  7 34  1  0
  8 35  1  0
  8 36  1  0
  9 37  1  0
 10 38  1  0
 12 39  1  0
 16 40  1  0
 17 41  1  0
 19 42  1  0
 21 43  1  0
 26 44  1  0
 26 45  1  0
 27 46  1  0
 27 47  1  0
 28 48  1  0
 28 49  1  0
M  END
