
     RDKit          3D

 54 57  0  0  0  0  0  0  0  0999 V2000
    1.9316    3.8074   -0.3771 C   0  0  0  0  0  0  0  0  0  0  0  0
    2.6889    2.5396   -0.5089 C   0  0  0  0  0  0  0  0  0  0  0  0
    1.9929    1.3334   -0.5417 C   0  0  0  0  0  0  0  0  0  0  0  0
    2.7160    0.1280   -0.6675 C   0  0  0  0  0  0  0  0  0  0  0  0
    1.8554   -1.0171   -0.6809 C   0  0  0  0  0  0  0  0  0  0  0  0
    0.5556   -0.6715   -0.5697 C   0  0  0  0  0  0  0  0  0  0  0  0
   -0.6680   -1.5371   -0.6289 C   0  0  1  0  0  0  0  0  0  0  0  0
   -0.3980   -2.9323   -0.1145 C   0  0  0  0  0  0  0  0  0  0  0  0
   -0.4209   -3.1963    1.2515 C   0  0  0  0  0  0  0  0  0  0  0  0
   -0.1314   -4.4807    1.6896 C   0  0  0  0  0  0  0  0  0  0  0  0
    0.1830   -5.4914    0.7944 C   0  0  0  0  0  0  0  0  0  0  0  0
    0.2081   -5.2353   -0.5808 C   0  0  0  0  0  0  0  0  0  0  0  0
   -0.0930   -3.9386   -1.0172 C   0  0  0  0  0  0  0  0  0  0  0  0
   -3.9283   -0.3055    0.5266 C   0  0  0  0  0  0  0  0  0  0  0  0
   -4.4948    1.8634    1.3318 C   0  0  0  0  0  0  0  0  0  0  0  0
   -4.1046    3.3325    1.3801 C   0  0  0  0  0  0  0  0  0  0  0  0
   -4.1068    3.9371   -0.0175 C   0  0  0  0  0  0  0  0  0  0  0  0
   -3.2336    3.0946   -0.9370 C   0  0  0  0  0  0  0  0  0  0  0  0
   -3.6517    1.6325   -0.9012 C   0  0  0  0  0  0  0  0  0  0  0  0
    4.6930    1.2367   -0.7288 C   0  0  0  0  0  0  0  0  0  0  0  0
    4.0697    2.4798   -0.6083 C   0  0  0  0  0  0  0  0  0  0  0  0
    0.4618   -6.2417   -1.4875 N   0  0  0  0  0  0  0  0  0  0  0  0
   -3.6234    1.1070    0.4511 N   0  0  0  0  0  0  0  0  0  0  0  0
    4.0448    0.0870   -0.7584 N   0  0  0  0  0  0  0  0  0  0  0  0
    2.7018    4.8784   -0.3673 O   0  0  0  0  0  0  0  0  0  0  0  0
    0.7279    3.8296   -0.2890 O   0  0  0  0  0  0  0  0  0  0  0  0
   -1.6530   -0.8583    0.0973 O   0  0  0  0  0  0  0  0  0  0  0  0
    0.2951    1.0475   -0.4271 S   0  0  0  0  0  0  0  0  0  0  0  0
    2.2147   -2.0321   -0.7747 H   0  0  0  0  0  0  0  0  0  0  0  0
   -0.9630   -1.6100   -1.6888 H   0  0  0  0  0  0  0  0  0  0  0  0
   -0.6604   -2.4159    1.9618 H   0  0  0  0  0  0  0  0  0  0  0  0
   -0.1450   -4.7019    2.7497 H   0  0  0  0  0  0  0  0  0  0  0  0
    0.4095   -6.4867    1.1588 H   0  0  0  0  0  0  0  0  0  0  0  0
   -0.0907   -3.7219   -2.0809 H   0  0  0  0  0  0  0  0  0  0  0  0
   -3.2034   -2.2375   -0.0104 H   0  0  0  0  0  0  0  0  0  0  0  0
   -3.1204   -1.0790   -1.3349 H   0  0  0  0  0  0  0  0  0  0  0  0
   -4.9472   -0.5401    0.1703 H   0  0  0  0  0  0  0  0  0  0  0  0
   -3.8977   -0.5992    1.5803 H   0  0  0  0  0  0  0  0  0  0  0  0
   -5.5530    1.7813    1.0197 H   0  0  0  0  0  0  0  0  0  0  0  0
   -4.7920    3.8666    2.0401 H   0  0  0  0  0  0  0  0  0  0  0  0
   -3.1050    3.4235    1.8153 H   0  0  0  0  0  0  0  0  0  0  0  0
   -5.1317    3.9614   -0.4040 H   0  0  0  0  0  0  0  0  0  0  0  0
   -3.7577    4.9719    0.0091 H   0  0  0  0  0  0  0  0  0  0  0  0
   -3.2871    3.4562   -1.9665 H   0  0  0  0  0  0  0  0  0  0  0  0
   -2.1883    3.1707   -0.6227 H   0  0  0  0  0  0  0  0  0  0  0  0
   -4.6576    1.5285   -1.3500 H   0  0  0  0  0  0  0  0  0  0  0  0
   -2.9692    1.0587   -1.5299 H   0  0  0  0  0  0  0  0  0  0  0  0
    5.7729    1.1886   -0.8044 H   0  0  0  0  0  0  0  0  0  0  0  0
    4.6767    3.3733   -0.5947 H   0  0  0  0  0  0  0  0  0  0  0  0
    0.9783   -7.0297   -1.1308 H   0  0  0  0  0  0  0  0  0  0  0  0
    0.8117   -5.9445   -2.3842 H   0  0  0  0  0  0  0  0  0  0  0  0
    2.1646    5.6811   -0.2857 H   0  0  0  0  0  0  0  0  0  0  0  0
   -2.9775   -1.1917   -0.2525 C   0  0  0  0  0  0  0  0  0  0  0  0
   -4.4336    1.4327    2.3349 H   0  0  0  0  0  0  0  0  0  0  0  0
 17 16  1  0
 17 18  1  0
 16 15  1  0
 18 19  1  0
 15 23  1  0
 19 23  1  0
 23 14  1  0
 53 14  1  0
 53 27  1  0
  5  4  1  0
  5  6  2  0
 24  4  2  0
 24 20  1  0
  7 27  1  0
  7  6  1  0
  7  8  1  0
  4  3  1  0
  6 28  1  0
 13  8  1  0
 13 12  2  0
 20 21  2  0
 22 12  1  0
  8  9  2  0
 12 11  1  0
  3 28  1  0
  3  2  2  0
  9 10  1  0
 21  2  1  0
 11 10  2  0
  2  1  1  0
  1 26  2  0
  1 25  1  0
  5 29  1  0
  7 30  1  6
  9 31  1  0
 10 32  1  0
 11 33  1  0
 13 34  1  0
 53 35  1  0
 53 36  1  0
 14 37  1  0
 14 38  1  0
 15 54  1  0
 15 39  1  0
 16 40  1  0
 16 41  1  0
 17 42  1  0
 17 43  1  0
 18 44  1  0
 18 45  1  0
 19 46  1  0
 19 47  1  0
 20 48  1  0
 21 49  1  0
 22 50  1  0
 22 51  1  0
 25 52  1  0
M  END
