
     RDKit          3D

 34 36  0  0  0  0  0  0  0  0999 V2000
    0.6738   -1.2609   -1.2889 C   0  0  0  0  0  0  0  0  0  0  0  0
   -1.4381    0.0638   -1.2636 C   0  0  0  0  0  0  0  0  0  0  0  0
   -2.7767    0.1164    0.8515 N   0  0  0  0  0  0  0  0  0  0  0  0
    0.7942    1.2583    0.2334 C   0  0  2  0  0  0  0  0  0  0  0  0
    0.7048   -1.2736    0.2439 C   0  0  1  0  0  0  0  0  0  0  0  0
   -1.4391    0.0695    0.2716 C   0  0  2  0  0  0  0  0  0  0  0  0
   -0.0051    0.0105   -1.7968 C   0  0  1  0  0  0  0  0  0  0  0  0
    1.4579   -0.0307    0.7296 C   0  0  0  0  0  0  0  0  0  0  0  0
   -0.6485    1.2880    0.7516 C   0  0  0  0  0  0  0  0  0  0  0  0
   -0.7362   -1.1980    0.7610 C   0  0  0  0  0  0  0  0  0  0  0  0
    0.7636    1.2344   -1.2997 C   0  0  0  0  0  0  0  0  0  0  0  0
    1.5593    2.4767    0.7316 C   0  0  0  0  0  0  0  0  0  0  0  0
    1.3798   -2.5404    0.7509 C   0  0  0  0  0  0  0  0  0  0  0  0
    1.6948   -1.3324   -1.6803 H   0  0  0  0  0  0  0  0  0  0  0  0
    0.1368   -2.1450   -1.6511 H   0  0  0  0  0  0  0  0  0  0  0  0
   -2.0100   -0.7980   -1.6276 H   0  0  0  0  0  0  0  0  0  0  0  0
   -1.9467    0.9618   -1.6341 H   0  0  0  0  0  0  0  0  0  0  0  0
   -3.2645    0.9358    0.5045 H   0  0  0  0  0  0  0  0  0  0  0  0
   -3.3128   -0.6764    0.5137 H   0  0  0  0  0  0  0  0  0  0  0  0
   -0.0200    0.0065   -2.8910 H   0  0  0  0  0  0  0  0  0  0  0  0
    2.4977   -0.0705    0.3834 H   0  0  0  0  0  0  0  0  0  0  0  0
    1.4953   -0.0279    1.8261 H   0  0  0  0  0  0  0  0  0  0  0  0
   -0.6548    1.3185    1.8473 H   0  0  0  0  0  0  0  0  0  0  0  0
   -1.1443    2.2059    0.4093 H   0  0  0  0  0  0  0  0  0  0  0  0
   -1.2951   -2.0808    0.4235 H   0  0  0  0  0  0  0  0  0  0  0  0
   -0.7458   -1.2187    1.8568 H   0  0  0  0  0  0  0  0  0  0  0  0
    0.2934    2.1517   -1.6715 H   0  0  0  0  0  0  0  0  0  0  0  0
    1.7874    1.2246   -1.6895 H   0  0  0  0  0  0  0  0  0  0  0  0
    1.5547    2.5287    1.8230 H   0  0  0  0  0  0  0  0  0  0  0  0
    2.6020    2.4479    0.4063 H   0  0  0  0  0  0  0  0  0  0  0  0
    1.1181    3.4017    0.3528 H   0  0  0  0  0  0  0  0  0  0  0  0
    2.4187   -2.5971    0.4174 H   0  0  0  0  0  0  0  0  0  0  0  0
    1.3802   -2.5810    1.8428 H   0  0  0  0  0  0  0  0  0  0  0  0
    0.8656   -3.4327    0.3851 H   0  0  0  0  0  0  0  0  0  0  0  0
  4 12  1  6
 11  4  1  0
 11  7  1  0
  4  9  1  0
  4  8  1  0
  7  2  1  0
  7  1  1  0
  9  6  1  0
  2  6  1  0
  8  5  1  0
  1  5  1  0
  6  3  1  1
  6 10  1  0
  5 10  1  0
  5 13  1  6
  1 14  1  0
  1 15  1  0
  2 16  1  0
  2 17  1  0
  3 18  1  0
  3 19  1  0
  7 20  1  6
  8 21  1  0
  8 22  1  0
  9 23  1  0
  9 24  1  0
 10 25  1  0
 10 26  1  0
 11 27  1  0
 11 28  1  0
 12 29  1  0
 12 30  1  0
 12 31  1  0
 13 32  1  0
 13 33  1  0
 13 34  1  0
M  END
