
     RDKit          3D

117120  0  0  0  0  0  0  0  0999 V2000
    3.6397    1.8582    1.1247 C   0  0  0  0  0  0  0  0  0  0  0  0
    2.4244    1.9514    0.2837 C   0  0  0  0  0  0  0  0  0  0  0  0
   -0.0317    2.0875    0.4044 C   0  0  2  0  0  0  0  0  0  0  0  0
   -2.9065    1.7431    0.4458 C   0  0  1  0  0  0  0  0  0  0  0  0
   -5.3998    2.4217    0.4107 C   0  0  1  0  0  0  0  0  0  0  0  0
   -6.6934    2.3026   -0.4075 C   0  0  2  0  0  0  0  0  0  0  0  0
   -8.4438    1.4079    0.9088 C   0  0  2  0  0  0  0  0  0  0  0  0
   -7.9355    2.7437    0.3633 C   0  0  2  0  0  0  0  0  0  0  0  0
   -6.7671   -2.6056    1.1967 C   0  0  0  0  0  0  0  0  0  0  0  0
    2.4646    2.1105   -0.9327 O   0  0  0  0  0  0  0  0  0  0  0  0
    1.2711    1.8728    0.9762 N   0  0  0  0  0  0  0  0  0  0  0  0
   -0.8869    2.9426    1.3326 C   0  0  1  0  0  0  0  0  0  0  0  0
   -0.2575    4.1921    1.4816 O   0  0  0  0  0  0  0  0  0  0  0  0
   -2.3098    3.1057    0.7874 C   0  0  1  0  0  0  0  0  0  0  0  0
   -2.3228    3.9142   -0.3643 O   0  0  0  0  0  0  0  0  0  0  0  0
   -4.2301    1.7693   -0.3122 C   0  0  0  0  0  0  0  0  0  0  0  0
   -5.1988    3.7906    0.6887 O   0  0  0  0  0  0  0  0  0  0  0  0
   -6.9369    0.9463   -0.7992 O   0  0  0  0  0  0  0  0  0  0  0  0
   -8.1513    0.4917   -0.2738 C   0  0  1  0  0  0  0  0  0  0  0  0
   -9.8045    1.3710    1.2165 O   0  0  0  0  0  0  0  0  0  0  0  0
   -8.8553    3.2912   -0.5487 O   0  0  0  0  0  0  0  0  0  0  0  0
   -8.0192   -0.9140    0.0750 N   0  0  0  0  0  0  0  0  0  0  0  0
   -6.9666   -1.3267    0.8401 C   0  0  0  0  0  0  0  0  0  0  0  0
   -7.7076   -3.6158    0.7725 C   0  0  0  0  0  0  0  0  0  0  0  0
   -7.6508   -4.8009    1.0373 O   0  0  0  0  0  0  0  0  0  0  0  0
   -8.7387   -3.1137   -0.0059 N   0  0  0  0  0  0  0  0  0  0  0  0
   -8.9574   -1.8178   -0.3919 C   0  0  0  0  0  0  0  0  0  0  0  0
   -9.9007   -1.5028   -1.0841 O   0  0  0  0  0  0  0  0  0  0  0  0
   -2.0232    1.0181   -0.3884 O   0  0  0  0  0  0  0  0  0  0  0  0
   -0.7684    0.7672    0.1653 C   0  0  1  0  0  0  0  0  0  0  0  0
   -0.0599    0.0086   -0.7501 O   0  0  0  0  0  0  0  0  0  0  0  0
    0.0099   -1.3715   -0.5091 C   0  0  1  0  0  0  0  0  0  0  0  0
   -1.2295   -1.9953   -0.5562 O   0  0  0  0  0  0  0  0  0  0  0  0
   -1.8997   -1.9683   -1.8097 C   0  0  2  0  0  0  0  0  0  0  0  0
   -3.2123   -2.6991   -1.6296 C   0  0  0  0  0  0  0  0  0  0  0  0
   -4.0145   -1.9952   -0.7115 O   0  0  0  0  0  0  0  0  0  0  0  0
   -1.0213   -2.6261   -2.8778 C   0  0  1  0  0  0  0  0  0  0  0  0
   -1.5979   -2.5141   -4.1610 O   0  0  0  0  0  0  0  0  0  0  0  0
    0.3393   -1.9381   -2.9321 C   0  0  2  0  0  0  0  0  0  0  0  0
    1.2171   -2.5908   -3.8114 O   0  0  0  0  0  0  0  0  0  0  0  0
    0.9749   -1.9497   -1.5447 C   0  0  1  0  0  0  0  0  0  0  0  0
    2.2299   -1.2455   -1.5235 N   0  0  0  0  0  0  0  0  0  0  0  0
    3.4312   -1.8478   -1.4435 C   0  0  0  0  0  0  0  0  0  0  0  0
    3.5730   -3.0540   -1.2960 O   0  0  0  0  0  0  0  0  0  0  0  0
    4.6152   -0.9193   -1.5448 C   0  0  0  0  0  0  0  0  0  0  0  0
    3.5165    1.6317    2.1793 H   0  0  0  0  0  0  0  0  0  0  0  0
    0.0900    2.5917   -0.5577 H   0  0  0  0  0  0  0  0  0  0  0  0
   -3.0496    1.2067    1.3976 H   0  0  0  0  0  0  0  0  0  0  0  0
   -5.5394    1.9307    1.3834 H   0  0  0  0  0  0  0  0  0  0  0  0
   -6.5776    2.9088   -1.3137 H   0  0  0  0  0  0  0  0  0  0  0  0
   -7.8282    1.1157    1.7705 H   0  0  0  0  0  0  0  0  0  0  0  0
   -7.6969    3.4502    1.1662 H   0  0  0  0  0  0  0  0  0  0  0  0
    1.3296    1.7592    1.9766 H   0  0  0  0  0  0  0  0  0  0  0  0
   -0.9669    2.4252    2.3011 H   0  0  0  0  0  0  0  0  0  0  0  0
   -0.6237    4.6322    2.2559 H   0  0  0  0  0  0  0  0  0  0  0  0
   -2.9135    3.5486    1.5905 H   0  0  0  0  0  0  0  0  0  0  0  0
   -1.7968    4.6996   -0.1740 H   0  0  0  0  0  0  0  0  0  0  0  0
   -4.0846    2.2546   -1.2838 H   0  0  0  0  0  0  0  0  0  0  0  0
   -4.4835    0.7290   -0.5261 H   0  0  0  0  0  0  0  0  0  0  0  0
   -4.6921    4.1826   -0.0322 H   0  0  0  0  0  0  0  0  0  0  0  0
   -8.9570    0.5570   -1.0071 H   0  0  0  0  0  0  0  0  0  0  0  0
   -9.9309    1.6955    2.1137 H   0  0  0  0  0  0  0  0  0  0  0  0
   -9.7277    3.2750   -0.1376 H   0  0  0  0  0  0  0  0  0  0  0  0
   -6.2740   -0.5563    1.1462 H   0  0  0  0  0  0  0  0  0  0  0  0
   -9.4261   -3.7806   -0.3358 H   0  0  0  0  0  0  0  0  0  0  0  0
   -0.8673    0.2293    1.1264 H   0  0  0  0  0  0  0  0  0  0  0  0
    0.3920   -1.5572    0.5018 H   0  0  0  0  0  0  0  0  0  0  0  0
   -2.1102   -0.9345   -2.1092 H   0  0  0  0  0  0  0  0  0  0  0  0
   -3.6998   -2.7754   -2.6087 H   0  0  0  0  0  0  0  0  0  0  0  0
   -3.0110   -3.7250   -1.2902 H   0  0  0  0  0  0  0  0  0  0  0  0
   -4.8616   -2.4455   -0.6488 H   0  0  0  0  0  0  0  0  0  0  0  0
   -0.8612   -3.6806   -2.6082 H   0  0  0  0  0  0  0  0  0  0  0  0
   -2.1433   -3.2867   -4.3307 H   0  0  0  0  0  0  0  0  0  0  0  0
    0.1812   -0.8938   -3.2452 H   0  0  0  0  0  0  0  0  0  0  0  0
    0.8171   -2.5772   -4.6876 H   0  0  0  0  0  0  0  0  0  0  0  0
    1.1699   -2.9864   -1.2615 H   0  0  0  0  0  0  0  0  0  0  0  0
    2.2020   -0.2441   -1.6493 H   0  0  0  0  0  0  0  0  0  0  0  0
    5.2432   -1.0256   -0.6606 H   0  0  0  0  0  0  0  0  0  0  0  0
    5.2194   -1.2026   -2.4069 H   0  0  0  0  0  0  0  0  0  0  0  0
    4.3391    0.1278   -1.6447 H   0  0  0  0  0  0  0  0  0  0  0  0
    4.8511    2.0934    0.6246 C   0  0  0  0  0  0  0  0  0  0  0  0
    6.1233    2.0734    1.3977 C   0  0  0  0  0  0  0  0  0  0  0  0
    7.1498    1.1080    0.8025 C   0  0  0  0  0  0  0  0  0  0  0  0
    8.5119    1.2143    1.4763 C   0  0  0  0  0  0  0  0  0  0  0  0
    9.5409    0.2545    0.8920 C   0  0  0  0  0  0  0  0  0  0  0  0
   10.9284    0.4162    1.5010 C   0  0  0  0  0  0  0  0  0  0  0  0
   11.9525   -0.5530    0.9232 C   0  0  0  0  0  0  0  0  0  0  0  0
   13.3585   -0.3460    1.4737 C   0  0  0  0  0  0  0  0  0  0  0  0
   14.3677   -1.3365    0.9044 C   0  0  0  0  0  0  0  0  0  0  0  0
   15.8209   -1.0813    1.3087 C   0  0  1  0  0  0  0  0  0  0  0  0
   16.0270   -1.1830    2.8172 C   0  0  0  0  0  0  0  0  0  0  0  0
   16.7520   -2.0431    0.5770 C   0  0  0  0  0  0  0  0  0  0  0  0
    4.9406    2.3316   -0.4320 H   0  0  0  0  0  0  0  0  0  0  0  0
    6.5468    3.0843    1.3818 H   0  0  0  0  0  0  0  0  0  0  0  0
    5.9346    1.8275    2.4458 H   0  0  0  0  0  0  0  0  0  0  0  0
    6.7746    0.0832    0.8856 H   0  0  0  0  0  0  0  0  0  0  0  0
    7.2606    1.3107   -0.2680 H   0  0  0  0  0  0  0  0  0  0  0  0
    8.8775    2.2423    1.3798 H   0  0  0  0  0  0  0  0  0  0  0  0
    8.4047    1.0270    2.5501 H   0  0  0  0  0  0  0  0  0  0  0  0
    9.1979   -0.7764    1.0324 H   0  0  0  0  0  0  0  0  0  0  0  0
    9.6052    0.4088   -0.1908 H   0  0  0  0  0  0  0  0  0  0  0  0
   11.2726    1.4443    1.3416 H   0  0  0  0  0  0  0  0  0  0  0  0
   10.8699    0.2803    2.5865 H   0  0  0  0  0  0  0  0  0  0  0  0
   11.6306   -1.5815    1.1222 H   0  0  0  0  0  0  0  0  0  0  0  0
   11.9728   -0.4488   -0.1675 H   0  0  0  0  0  0  0  0  0  0  0  0
   13.6865    0.6754    1.2484 H   0  0  0  0  0  0  0  0  0  0  0  0
   13.3307   -0.4228    2.5651 H   0  0  0  0  0  0  0  0  0  0  0  0
   14.0866   -2.3542    1.2025 H   0  0  0  0  0  0  0  0  0  0  0  0
   14.3010   -1.3153   -0.1895 H   0  0  0  0  0  0  0  0  0  0  0  0
   16.0803   -0.0615    0.9988 H   0  0  0  0  0  0  0  0  0  0  0  0
   17.0709   -1.0070    3.0834 H   0  0  0  0  0  0  0  0  0  0  0  0
   15.4256   -0.4568    3.3651 H   0  0  0  0  0  0  0  0  0  0  0  0
   15.7575   -2.1787    3.1804 H   0  0  0  0  0  0  0  0  0  0  0  0
   16.6428   -1.9567   -0.5059 H   0  0  0  0  0  0  0  0  0  0  0  0
   17.7982   -1.8506    0.8215 H   0  0  0  0  0  0  0  0  0  0  0  0
   16.5349   -3.0790    0.8494 H   0  0  0  0  0  0  0  0  0  0  0  0
   -5.9223   -2.8800    1.8095 H   0  0  0  0  0  0  0  0  0  0  0  0
 13 12  1  0
 15 14  1  0
 14 12  1  0
 14  4  1  0
 12  3  1  0
 21  8  1  0
  8  7  1  0
  8  6  1  0
 17  5  1  0
 16  4  1  0
 16  5  1  0
  4 29  1  0
  3 11  1  0
  3 30  1  0
  1  2  1  0
 11  2  1  0
  7 20  1  0
  7 19  1  0
  5  6  1  0
  2 10  2  0
  6 18  1  0
 29 30  1  0
  9 23  2  0
  9 24  1  0
 23 22  1  0
 30 31  1  0
 19 22  1  0
 19 18  1  0
 22 27  1  0
 24 25  2  0
 24 26  1  0
 31 32  1  0
 26 27  1  0
 27 28  2  0
 32 33  1  0
 32 41  1  0
 33 34  1  0
 34 35  1  0
 34 37  1  0
 44 43  2  0
 42 41  1  0
 42 43  1  0
 35 36  1  0
 41 39  1  0
 43 45  1  0
 39 37  1  0
 39 40  1  0
 37 38  1  0
  1 46  1  0
  3 47  1  6
  4 48  1  1
  5 49  1  1
  6 50  1  6
  7 51  1  1
  8 52  1  1
  9117  1  0
 11 53  1  0
 12 54  1  1
 13 55  1  0
 14 56  1  1
 15 57  1  0
 16 58  1  0
 16 59  1  0
 17 60  1  0
 19 61  1  6
 20 62  1  0
 21 63  1  0
 23 64  1  0
 26 65  1  0
 30 66  1  1
 32 67  1  1
 34 68  1  6
 35 69  1  0
 35 70  1  0
 36 71  1  0
 37 72  1  1
 38 73  1  0
 39 74  1  6
 40 75  1  0
 41 76  1  1
 42 77  1  0
 45 78  1  0
 45 79  1  0
 45 80  1  0
  1 81  2  0
 81 82  1  0
 82 83  1  0
 83 84  1  0
 84 85  1  0
 85 86  1  0
 86 87  1  0
 87 88  1  0
 88 89  1  0
 89 90  1  0
 90 91  1  0
 90 92  1  0
 81 93  1  0
 82 94  1  0
 82 95  1  0
 83 96  1  0
 83 97  1  0
 84 98  1  0
 84 99  1  0
 85100  1  0
 85101  1  0
 86102  1  0
 86103  1  0
 87104  1  0
 87105  1  0
 88106  1  0
 88107  1  0
 89108  1  0
 89109  1  0
 90110  1  6
 91111  1  0
 91112  1  0
 91113  1  0
 92114  1  0
 92115  1  0
 92116  1  0
M  END
