
     RDKit          3D

 43 44  0  0  0  0  0  0  0  0999 V2000
   -6.0400   -1.3527   -1.1037 N   0  0  0  0  0  0  0  0  0  0  0  0
   -5.9415    0.0947   -1.1466 C   0  0  0  0  0  0  0  0  0  0  0  0
   -4.7496    0.6134   -0.3806 C   0  0  0  0  0  0  0  0  0  0  0  0
   -3.5825   -0.1339   -0.2683 C   0  0  0  0  0  0  0  0  0  0  0  0
   -2.4632    0.3586    0.4035 C   0  0  0  0  0  0  0  0  0  0  0  0
   -3.6863    2.3835    0.8689 C   0  0  0  0  0  0  0  0  0  0  0  0
   -4.7924    1.8775    0.2014 C   0  0  0  0  0  0  0  0  0  0  0  0
   -1.2377   -0.4597    0.5157 C   0  0  0  0  0  0  0  0  0  0  0  0
    1.1902   -0.6103    0.5512 C   0  0  0  0  0  0  0  0  0  0  0  0
    1.1048   -1.9898    0.7413 C   0  0  0  0  0  0  0  0  0  0  0  0
    3.9474   -1.4316    1.0832 O   0  0  0  0  0  0  0  0  0  0  0  0
    3.6583   -0.3046    0.7187 C   0  0  0  0  0  0  0  0  0  0  0  0
    4.7073    0.7715    0.5496 C   0  0  0  0  0  0  0  0  0  0  0  0
    5.8914    0.3102   -0.3040 C   0  0  1  0  0  0  0  0  0  0  0  0
    5.4560   -0.0283   -1.7259 C   0  0  0  0  0  0  0  0  0  0  0  0
    6.9759    1.3813   -0.3086 C   0  0  0  0  0  0  0  0  0  0  0  0
    2.3915    0.0973    0.4393 N   0  0  0  0  0  0  0  0  0  0  0  0
    0.0162    0.1364    0.4381 C   0  0  0  0  0  0  0  0  0  0  0  0
   -0.1480   -2.5830    0.8172 C   0  0  0  0  0  0  0  0  0  0  0  0
   -1.3112   -1.8401    0.7090 C   0  0  0  0  0  0  0  0  0  0  0  0
   -2.5263    1.6316    0.9722 C   0  0  0  0  0  0  0  0  0  0  0  0
   -6.3041   -1.6483   -0.1722 H   0  0  0  0  0  0  0  0  0  0  0  0
   -6.7868   -1.6546   -1.7156 H   0  0  0  0  0  0  0  0  0  0  0  0
   -5.8317    0.3900   -2.1946 H   0  0  0  0  0  0  0  0  0  0  0  0
   -6.8390    0.6142   -0.7843 H   0  0  0  0  0  0  0  0  0  0  0  0
   -3.5465   -1.1148   -0.7254 H   0  0  0  0  0  0  0  0  0  0  0  0
   -3.7338    3.3632    1.3268 H   0  0  0  0  0  0  0  0  0  0  0  0
   -5.6988    2.4687    0.1386 H   0  0  0  0  0  0  0  0  0  0  0  0
    1.9893   -2.5982    0.8265 H   0  0  0  0  0  0  0  0  0  0  0  0
    4.2809    1.6843    0.1235 H   0  0  0  0  0  0  0  0  0  0  0  0
    5.0618    1.0338    1.5517 H   0  0  0  0  0  0  0  0  0  0  0  0
    6.3055   -0.5922    0.1554 H   0  0  0  0  0  0  0  0  0  0  0  0
    5.0219    0.8437   -2.2211 H   0  0  0  0  0  0  0  0  0  0  0  0
    6.3071   -0.3577   -2.3241 H   0  0  0  0  0  0  0  0  0  0  0  0
    4.7156   -0.8297   -1.7523 H   0  0  0  0  0  0  0  0  0  0  0  0
    7.3110    1.6157    0.7030 H   0  0  0  0  0  0  0  0  0  0  0  0
    7.8467    1.0533   -0.8782 H   0  0  0  0  0  0  0  0  0  0  0  0
    6.6139    2.3068   -0.7624 H   0  0  0  0  0  0  0  0  0  0  0  0
    2.2855    1.0661    0.1812 H   0  0  0  0  0  0  0  0  0  0  0  0
    0.0900    1.2053    0.2703 H   0  0  0  0  0  0  0  0  0  0  0  0
   -0.2107   -3.6527    0.9697 H   0  0  0  0  0  0  0  0  0  0  0  0
   -2.2725   -2.3297    0.7968 H   0  0  0  0  0  0  0  0  0  0  0  0
   -1.6801    2.0263    1.5207 H   0  0  0  0  0  0  0  0  0  0  0  0
 15 14  1  0
 11 12  2  0
 14 13  1  0
 14 16  1  0
 13 12  1  0
  6  7  1  0
  6 21  2  0
 12 17  1  0
  7  3  2  0
 21  5  1  0
  1  2  1  0
  3  2  1  0
  3  4  1  0
 17  9  1  0
  5  4  2  0
  5  8  1  0
 18  9  2  0
 18  8  1  0
  9 10  1  0
  8 20  2  0
 10 19  2  0
 20 19  1  0
  1 22  1  0
  1 23  1  0
  2 24  1  0
  2 25  1  0
  4 26  1  0
  6 27  1  0
  7 28  1  0
 10 29  1  0
 13 30  1  0
 13 31  1  0
 14 32  1  1
 15 33  1  0
 15 34  1  0
 15 35  1  0
 16 36  1  0
 16 37  1  0
 16 38  1  0
 17 39  1  0
 18 40  1  0
 19 41  1  0
 20 42  1  0
 21 43  1  0
M  END
