
     RDKit          3D

 58 61  0  0  0  0  0  0  0  0999 V2000
   -3.9576    0.4983    0.2214 N   0  0  0  0  0  0  0  0  0  0  0  0
   -7.9788   -0.6814    0.3326 C   0  0  0  0  0  0  0  0  0  0  0  0
   -7.0660   -1.4254   -0.4105 C   0  0  0  0  0  0  0  0  0  0  0  0
   -5.7292   -1.0702   -0.4763 C   0  0  0  0  0  0  0  0  0  0  0  0
   -5.2782    0.0568    0.2140 C   0  0  0  0  0  0  0  0  0  0  0  0
   -7.5206    0.4434    1.0179 C   0  0  0  0  0  0  0  0  0  0  0  0
   -6.1932    0.8078    0.9598 C   0  0  0  0  0  0  0  0  0  0  0  0
    1.7888   -0.7244    0.1001 C   0  0  0  0  0  0  0  0  0  0  0  0
    2.9997   -0.4846    0.6014 C   0  0  0  0  0  0  0  0  0  0  0  0
    4.2016   -1.2508    0.2715 C   0  0  0  0  0  0  0  0  0  0  0  0
    5.4671   -0.6601    0.3033 C   0  0  0  0  0  0  0  0  0  0  0  0
    2.0876    2.9367   -1.6062 C   0  0  0  0  0  0  0  0  0  0  0  0
    0.8854    2.2797   -1.8268 C   0  0  0  0  0  0  0  0  0  0  0  0
    5.2810   -3.3236   -0.3148 C   0  0  0  0  0  0  0  0  0  0  0  0
   -0.4606   -0.0625   -0.2688 N   0  0  0  0  0  0  0  0  0  0  0  0
    0.6731    0.8831    1.4512 O   0  0  0  0  0  0  0  0  0  0  0  0
   -1.6051    0.8029   -0.2143 C   0  0  2  0  0  0  0  0  0  0  0  0
   -2.8709   -0.0260   -0.3988 C   0  0  0  0  0  0  0  0  0  0  0  0
   -1.5432    1.8929   -1.3129 C   0  0  0  0  0  0  0  0  0  0  0  0
   -0.2796    2.6918   -1.1852 C   0  0  0  0  0  0  0  0  0  0  0  0
   -0.2243    3.8005   -0.3455 C   0  0  0  0  0  0  0  0  0  0  0  0
    0.9721    4.4713   -0.1360 C   0  0  0  0  0  0  0  0  0  0  0  0
    2.1353    4.0319   -0.7553 C   0  0  0  0  0  0  0  0  0  0  0  0
   -2.8776   -1.0308   -1.0808 O   0  0  0  0  0  0  0  0  0  0  0  0
    6.6180   -1.3822    0.0378 C   0  0  0  0  0  0  0  0  0  0  0  0
    6.5332   -2.7293   -0.2677 C   0  0  0  0  0  0  0  0  0  0  0  0
    4.1287   -2.6057   -0.0486 C   0  0  0  0  0  0  0  0  0  0  0  0
    5.1549   -5.0034   -0.6948 Cl  0  0  0  0  0  0  0  0  0  0  0  0
    5.5875    0.7225    0.5865 N   0  0  0  0  0  0  0  0  0  0  0  0
    6.1727    1.3382    1.6189 C   0  0  0  0  0  0  0  0  0  0  0  0
    6.0695    2.6257    1.4322 N   0  0  0  0  0  0  0  0  0  0  0  0
    5.4189    2.7789    0.2750 N   0  0  0  0  0  0  0  0  0  0  0  0
    5.1260    1.6568   -0.2435 N   0  0  0  0  0  0  0  0  0  0  0  0
   -3.7937    1.3234    0.7797 H   0  0  0  0  0  0  0  0  0  0  0  0
   -7.3834   -2.3047   -0.9536 H   0  0  0  0  0  0  0  0  0  0  0  0
   -5.0560   -1.6727   -1.0618 H   0  0  0  0  0  0  0  0  0  0  0  0
   -8.2058    1.0400    1.6045 H   0  0  0  0  0  0  0  0  0  0  0  0
   -5.8574    1.6871    1.4963 H   0  0  0  0  0  0  0  0  0  0  0  0
    1.6296   -1.4934   -0.6483 H   0  0  0  0  0  0  0  0  0  0  0  0
    3.1121    0.3340    1.3040 H   0  0  0  0  0  0  0  0  0  0  0  0
    2.9895    2.5844   -2.0888 H   0  0  0  0  0  0  0  0  0  0  0  0
    0.8547    1.4273   -2.4952 H   0  0  0  0  0  0  0  0  0  0  0  0
   -0.3993   -0.6897   -1.0562 H   0  0  0  0  0  0  0  0  0  0  0  0
   -1.6085    1.2893    0.7625 H   0  0  0  0  0  0  0  0  0  0  0  0
   -1.5962    1.4115   -2.2927 H   0  0  0  0  0  0  0  0  0  0  0  0
   -2.4200    2.5376   -1.2228 H   0  0  0  0  0  0  0  0  0  0  0  0
   -1.1235    4.1375    0.1579 H   0  0  0  0  0  0  0  0  0  0  0  0
    0.9988    5.3318    0.5206 H   0  0  0  0  0  0  0  0  0  0  0  0
    3.0754    4.5366   -0.5742 H   0  0  0  0  0  0  0  0  0  0  0  0
    7.5828   -0.8932    0.0597 H   0  0  0  0  0  0  0  0  0  0  0  0
    7.4282   -3.2994   -0.4723 H   0  0  0  0  0  0  0  0  0  0  0  0
    3.1694   -3.1048   -0.0600 H   0  0  0  0  0  0  0  0  0  0  0  0
    6.6313    0.8300    2.4508 H   0  0  0  0  0  0  0  0  0  0  0  0
  -10.6706   -2.3085   -0.1801 H   0  0  0  0  0  0  0  0  0  0  0  0
   -9.4109   -1.0358    0.4260 C   0  0  0  0  0  0  0  0  0  0  0  0
    0.6321    0.1125    0.5059 C   0  0  0  0  0  0  0  0  0  0  0  0
  -10.2192   -0.4103    1.0719 O   0  0  0  0  0  0  0  0  0  0  0  0
   -9.7258   -2.1176   -0.2746 O   0  0  0  0  0  0  0  0  0  0  0  0
 31 30  2  0
 31 32  1  0
 30 29  1  0
 32 33  2  0
 29 33  1  0
 29 11  1  0
 25 11  2  0
 25 26  1  0
 11 10  1  0
 13 12  2  0
 13 20  1  0
 24 18  2  0
 26 14  2  0
 19 20  1  0
 19 17  1  0
 10  9  1  0
 10 27  2  0
 12 23  1  0
  9  8  2  0
 20 21  2  0
 15 17  1  0
 15 56  1  0
 14 27  1  0
 14 28  1  0
 18 17  1  0
 18  1  1  0
  4  3  1  0
  4  5  2  0
 23 22  2  0
  3  2  2  0
  8 56  1  0
 56 16  2  0
 21 22  1  0
  1  5  1  0
  5  7  1  0
 57 55  2  0
  2 55  1  0
  2  6  1  0
 55 58  1  0
  7  6  2  0
  1 34  1  0
  3 35  1  0
  4 36  1  0
  6 37  1  0
  7 38  1  0
  8 39  1  0
  9 40  1  0
 12 41  1  0
 13 42  1  0
 15 43  1  0
 17 44  1  1
 19 45  1  0
 19 46  1  0
 21 47  1  0
 22 48  1  0
 23 49  1  0
 25 50  1  0
 26 51  1  0
 27 52  1  0
 30 53  1  0
 58 54  1  0
M  END
