
     RDKit          3D

 44 45  0  0  0  0  0  0  0  0999 V2000
   -5.1607   -1.1301   -0.5610 C   0  0  0  0  0  0  0  0  0  0  0  0
   -6.3900   -0.7743   -0.0386 C   0  0  0  0  0  0  0  0  0  0  0  0
   -6.5525    0.4114    0.6801 C   0  0  0  0  0  0  0  0  0  0  0  0
   -7.8890    0.7835    1.2467 C   0  0  0  0  0  0  0  0  0  0  0  0
   -5.4396    1.2281    0.8568 C   0  0  0  0  0  0  0  0  0  0  0  0
   -4.2005    0.8717    0.3461 C   0  0  0  0  0  0  0  0  0  0  0  0
   -4.0450   -0.3155   -0.3653 C   0  0  0  0  0  0  0  0  0  0  0  0
   -2.7534   -0.7382   -0.9763 C   0  0  0  0  0  0  0  0  0  0  0  0
   -2.7125   -1.4940   -1.9211 O   0  0  0  0  0  0  0  0  0  0  0  0
   -1.6327   -0.2188   -0.3667 N   0  0  0  0  0  0  0  0  0  0  0  0
   -0.3267   -0.3010   -0.8412 C   0  0  0  0  0  0  0  0  0  0  0  0
   -0.0325   -0.7393   -1.9302 O   0  0  0  0  0  0  0  0  0  0  0  0
    0.5730    0.2086    0.0439 N   0  0  0  0  0  0  0  0  0  0  0  0
    1.9723    0.2334   -0.2199 C   0  0  2  0  0  0  0  0  0  0  0  0
    2.5676   -0.8970    0.3718 O   0  0  0  0  0  0  0  0  0  0  0  0
    3.9452   -1.0205    0.0836 C   0  0  2  0  0  0  0  0  0  0  0  0
    4.4298   -2.3237    0.6823 C   0  0  0  0  0  0  0  0  0  0  0  0
    3.7614   -3.3896    0.0516 O   0  0  0  0  0  0  0  0  0  0  0  0
    4.7006    0.1823    0.6511 C   0  0  1  0  0  0  0  0  0  0  0  0
    6.0550    0.0576    0.2969 O   0  0  0  0  0  0  0  0  0  0  0  0
    4.1013    1.4716    0.1017 C   0  0  2  0  0  0  0  0  0  0  0  0
    4.7658    2.5447    0.7240 O   0  0  0  0  0  0  0  0  0  0  0  0
    2.5989    1.5113    0.3438 C   0  0  1  0  0  0  0  0  0  0  0  0
    2.0942    2.6551   -0.2955 O   0  0  0  0  0  0  0  0  0  0  0  0
   -5.0653   -2.0516   -1.1200 H   0  0  0  0  0  0  0  0  0  0  0  0
   -7.2414   -1.4259   -0.1950 H   0  0  0  0  0  0  0  0  0  0  0  0
   -8.1457    0.1402    2.0904 H   0  0  0  0  0  0  0  0  0  0  0  0
   -7.9029    1.8132    1.6000 H   0  0  0  0  0  0  0  0  0  0  0  0
   -8.6791    0.6668    0.5047 H   0  0  0  0  0  0  0  0  0  0  0  0
   -5.5383    2.1623    1.3961 H   0  0  0  0  0  0  0  0  0  0  0  0
   -3.3733    1.5558    0.4910 H   0  0  0  0  0  0  0  0  0  0  0  0
   -1.7732    0.2663    0.5061 H   0  0  0  0  0  0  0  0  0  0  0  0
    0.2760    0.4202    0.9861 H   0  0  0  0  0  0  0  0  0  0  0  0
    2.1173    0.2179   -1.3070 H   0  0  0  0  0  0  0  0  0  0  0  0
    4.1001   -1.0496   -1.0077 H   0  0  0  0  0  0  0  0  0  0  0  0
    5.5138   -2.3851    0.5419 H   0  0  0  0  0  0  0  0  0  0  0  0
    4.2453   -2.3082    1.7657 H   0  0  0  0  0  0  0  0  0  0  0  0
    4.1276   -4.2112    0.3906 H   0  0  0  0  0  0  0  0  0  0  0  0
    4.5758    0.1810    1.7462 H   0  0  0  0  0  0  0  0  0  0  0  0
    6.5272    0.8212    0.6449 H   0  0  0  0  0  0  0  0  0  0  0  0
    4.2709    1.4875   -0.9870 H   0  0  0  0  0  0  0  0  0  0  0  0
    4.5411    3.3568    0.2595 H   0  0  0  0  0  0  0  0  0  0  0  0
    2.4169    1.5427    1.4296 H   0  0  0  0  0  0  0  0  0  0  0  0
    1.1878    2.8010   -0.0067 H   0  0  0  0  0  0  0  0  0  0  0  0
  1  2  2  0
  1  7  1  0
  2  3  1  0
  3  4  1  0
  3  5  2  0
  5  6  1  0
  6  7  2  0
  7  8  1  0
  8  9  2  0
  8 10  1  0
 10 11  1  0
 11 12  2  0
 11 13  1  0
 13 14  1  0
 14 15  1  0
 14 23  1  0
 15 16  1  0
 16 17  1  0
 16 19  1  0
 17 18  1  0
 19 20  1  0
 19 21  1  0
 21 22  1  0
 21 23  1  0
 23 24  1  0
  1 25  1  0
  2 26  1  0
  4 27  1  0
  4 28  1  0
  4 29  1  0
  5 30  1  0
  6 31  1  0
 10 32  1  0
 13 33  1  0
 14 34  1  6
 16 35  1  6
 17 36  1  0
 17 37  1  0
 18 38  1  0
 19 39  1  1
 20 40  1  0
 21 41  1  6
 22 42  1  0
 23 43  1  1
 24 44  1  0
M  END
