
     RDKit          3D

 41 43  0  0  0  0  0  0  0  0999 V2000
   -5.6593    0.3759    2.0752 F   0  0  0  0  0  0  0  0  0  0  0  0
   -5.0540    0.6546    0.9108 C   0  0  0  0  0  0  0  0  0  0  0  0
   -5.8621    0.9777   -0.1842 C   0  0  0  0  0  0  0  0  0  0  0  0
   -7.1860    0.9770    0.0275 O   0  0  0  0  0  0  0  0  0  0  0  0
   -8.0325    1.2643   -1.0702 C   0  0  0  0  0  0  0  0  0  0  0  0
   -5.2292    1.2698   -1.3849 C   0  0  0  0  0  0  0  0  0  0  0  0
   -3.8401    1.2315   -1.4756 C   0  0  0  0  0  0  0  0  0  0  0  0
   -3.6849    0.6181    0.8298 C   0  0  0  0  0  0  0  0  0  0  0  0
   -3.0541    0.9108   -0.3822 C   0  0  0  0  0  0  0  0  0  0  0  0
   -1.5565    0.8644   -0.4841 C   0  0  0  0  0  0  0  0  0  0  0  0
   -1.0911   -0.4941   -0.2921 N   0  0  0  0  0  0  0  0  0  0  0  0
    0.2022   -0.7990   -0.1519 C   0  0  0  0  0  0  0  0  0  0  0  0
    0.6569   -2.1665    0.0364 C   0  0  0  0  0  0  0  0  0  0  0  0
   -0.2929   -3.3175    0.0513 C   0  0  0  0  0  0  0  0  0  0  0  0
    0.3079   -4.4705    0.2489 O   0  0  0  0  0  0  0  0  0  0  0  0
   -1.4877   -3.1997   -0.1045 O   0  0  0  0  0  0  0  0  0  0  0  0
    1.9130   -2.4429    0.1967 N   0  0  0  0  0  0  0  0  0  0  0  0
    2.8150   -1.4411    0.1835 C   0  0  0  0  0  0  0  0  0  0  0  0
    4.1848   -1.7243    0.3592 C   0  0  0  0  0  0  0  0  0  0  0  0
    5.0990   -0.7105    0.3359 C   0  0  0  0  0  0  0  0  0  0  0  0
    1.0818    0.1817   -0.1794 N   0  0  0  0  0  0  0  0  0  0  0  0
    2.3799   -0.1130   -0.0124 C   0  0  0  0  0  0  0  0  0  0  0  0
    3.3412    0.9228   -0.0375 C   0  0  0  0  0  0  0  0  0  0  0  0
    4.6650    0.6209    0.1325 C   0  0  0  0  0  0  0  0  0  0  0  0
    5.7082    1.6959    0.1172 C   0  0  1  0  0  0  0  0  0  0  0  0
    6.3378    1.7792    1.2973 F   0  0  0  0  0  0  0  0  0  0  0  0
    6.6498    1.4464   -0.8030 F   0  0  0  0  0  0  0  0  0  0  0  0
    5.2090    2.9042   -0.1486 F   0  0  0  0  0  0  0  0  0  0  0  0
   -9.0516    1.1893   -0.7002 H   0  0  0  0  0  0  0  0  0  0  0  0
   -7.8702    2.2739   -1.4556 H   0  0  0  0  0  0  0  0  0  0  0  0
   -7.8965    0.5480   -1.8840 H   0  0  0  0  0  0  0  0  0  0  0  0
   -5.8026    1.5272   -2.2646 H   0  0  0  0  0  0  0  0  0  0  0  0
   -3.3738    1.4621   -2.4251 H   0  0  0  0  0  0  0  0  0  0  0  0
   -3.1091    0.3639    1.7120 H   0  0  0  0  0  0  0  0  0  0  0  0
   -1.2376    1.2509   -1.4568 H   0  0  0  0  0  0  0  0  0  0  0  0
   -1.1011    1.5087    0.2713 H   0  0  0  0  0  0  0  0  0  0  0  0
   -1.7523   -1.2523   -0.3537 H   0  0  0  0  0  0  0  0  0  0  0  0
   -0.3466   -5.1857    0.2462 H   0  0  0  0  0  0  0  0  0  0  0  0
    4.4916   -2.7507    0.5111 H   0  0  0  0  0  0  0  0  0  0  0  0
    6.1492   -0.9320    0.4707 H   0  0  0  0  0  0  0  0  0  0  0  0
    2.9936    1.9347   -0.1952 H   0  0  0  0  0  0  0  0  0  0  0  0
  1  2  1  0
 16 14  2  0
 15 14  1  0
 14 13  1  0
  2  8  2  0
  2  3  1  0
  4  3  1  0
  4  5  1  0
  8  9  1  0
 13 17  2  0
 13 12  1  0
  3  6  2  0
 17 18  1  0
 11 12  1  0
 11 10  1  0
 12 21  2  0
  9 10  1  0
  9  7  2  0
 18 19  2  0
 18 22  1  0
  6  7  1  0
 19 20  1  0
 21 22  1  0
 22 23  2  0
 20 24  2  0
 23 24  1  0
 24 25  1  0
 25 28  1  6
 25 27  1  0
 25 26  1  0
  5 29  1  0
  5 30  1  0
  5 31  1  0
  6 32  1  0
  7 33  1  0
  8 34  1  0
 10 35  1  0
 10 36  1  0
 11 37  1  0
 15 38  1  0
 19 39  1  0
 20 40  1  0
 23 41  1  0
M  END
