
     RDKit          3D

 54 56  0  0  0  0  0  0  0  0999 V2000
   -2.4575    0.9319   -0.1972 N   0  0  0  0  0  0  0  0  0  0  0  0
   -0.5147    2.0950    0.1335 N   0  0  0  0  0  0  0  0  0  0  0  0
    3.1331    0.4719   -1.6022 N   0  0  0  0  0  0  0  0  0  0  0  0
   -6.2483   -3.4280   -1.8484 C   0  0  0  0  0  0  0  0  0  0  0  0
   -1.2777    4.7090    1.0399 O   0  0  0  0  0  0  0  0  0  0  0  0
   -0.9205    0.0289    1.7678 S   0  0  0  0  0  0  0  0  0  0  0  0
   -5.1617   -1.0017    1.4066 C   0  0  0  0  0  0  0  0  0  0  0  0
   -4.1332   -0.0908    1.2597 C   0  0  0  0  0  0  0  0  0  0  0  0
   -5.5616   -1.8300    0.3611 C   0  0  0  0  0  0  0  0  0  0  0  0
   -3.8563   -0.8303   -1.0178 C   0  0  0  0  0  0  0  0  0  0  0  0
    4.0053   -1.5195    1.3340 C   0  0  0  0  0  0  0  0  0  0  0  0
    4.6709   -1.3696   -1.3479 C   0  0  0  0  0  0  0  0  0  0  0  0
    2.4037    0.3653    1.0168 C   0  0  0  0  0  0  0  0  0  0  0  0
   -0.9861    3.1673   -0.7398 C   0  0  0  0  0  0  0  0  0  0  0  0
    0.8021    2.2585    0.7416 C   0  0  0  0  0  0  0  0  0  0  0  0
   -5.2068   -2.4769   -1.9469 O   0  0  0  0  0  0  0  0  0  0  0  0
   -1.3077    1.0738    0.5109 C   0  0  0  0  0  0  0  0  0  0  0  0
    4.9397   -2.3979    0.8277 C   0  0  0  0  0  0  0  0  0  0  0  0
    5.2733   -2.3193   -0.5449 C   0  0  0  0  0  0  0  0  0  0  0  0
   -3.4707   -0.0175    0.0351 C   0  0  0  0  0  0  0  0  0  0  0  0
   -4.9084   -1.7362   -0.8631 C   0  0  0  0  0  0  0  0  0  0  0  0
    1.8235    1.2898    0.2202 C   0  0  0  0  0  0  0  0  0  0  0  0
    2.2051    1.3873   -1.1831 C   0  0  0  0  0  0  0  0  0  0  0  0
    3.3855   -0.5517    0.5314 C   0  0  0  0  0  0  0  0  0  0  0  0
    3.7320   -0.4814   -0.8206 C   0  0  0  0  0  0  0  0  0  0  0  0
   -2.5085    1.3813   -1.0984 H   0  0  0  0  0  0  0  0  0  0  0  0
    3.4069    0.5296   -2.5743 H   0  0  0  0  0  0  0  0  0  0  0  0
   -6.0353   -4.1903   -1.0944 H   0  0  0  0  0  0  0  0  0  0  0  0
   -7.2085   -2.9606   -1.6150 H   0  0  0  0  0  0  0  0  0  0  0  0
   -6.3207   -3.9087   -2.8207 H   0  0  0  0  0  0  0  0  0  0  0  0
    5.3287   -4.4389    1.4082 H   0  0  0  0  0  0  0  0  0  0  0  0
    6.6771   -3.3526    1.6801 H   0  0  0  0  0  0  0  0  0  0  0  0
    5.2780   -3.3003    2.7483 H   0  0  0  0  0  0  0  0  0  0  0  0
    7.2799   -3.0709   -0.7140 H   0  0  0  0  0  0  0  0  0  0  0  0
    6.0439   -4.2968   -0.9187 H   0  0  0  0  0  0  0  0  0  0  0  0
    6.3556   -3.1385   -2.2111 H   0  0  0  0  0  0  0  0  0  0  0  0
   -1.9144    5.2283    1.5392 H   0  0  0  0  0  0  0  0  0  0  0  0
   -5.6820   -1.0674    2.3534 H   0  0  0  0  0  0  0  0  0  0  0  0
   -3.8487    0.5567    2.0760 H   0  0  0  0  0  0  0  0  0  0  0  0
   -6.3750   -2.5246    0.5179 H   0  0  0  0  0  0  0  0  0  0  0  0
   -3.3391   -0.7728   -1.9684 H   0  0  0  0  0  0  0  0  0  0  0  0
    3.7332   -1.5699    2.3824 H   0  0  0  0  0  0  0  0  0  0  0  0
    4.9311   -1.3087   -2.3986 H   0  0  0  0  0  0  0  0  0  0  0  0
    2.1123    0.3050    2.0585 H   0  0  0  0  0  0  0  0  0  0  0  0
   -2.8453    3.5799    0.2738 H   0  0  0  0  0  0  0  0  0  0  0  0
   -2.2659    4.8595   -0.7902 H   0  0  0  0  0  0  0  0  0  0  0  0
   -0.1109    3.7119   -1.0821 H   0  0  0  0  0  0  0  0  0  0  0  0
   -1.4429    2.7813   -1.6542 H   0  0  0  0  0  0  0  0  0  0  0  0
    1.1247    3.2786    0.5408 H   0  0  0  0  0  0  0  0  0  0  0  0
    0.7230    2.1554    1.8234 H   0  0  0  0  0  0  0  0  0  0  0  0
    5.5882   -3.4224    1.7115 C   0  0  0  0  0  0  0  0  0  0  0  0
    6.2872   -3.2545   -1.1308 C   0  0  0  0  0  0  0  0  0  0  0  0
    1.7546    2.2194   -1.9651 O   0  0  0  0  0  0  0  0  0  0  0  0
   -1.9457    4.1163   -0.0486 C   0  0  0  0  0  0  0  0  0  0  0  0
  1 20  1  0
  1 17  1  0
  1 26  1  0
 15  2  1  0
  2 17  1  0
  2 14  1  0
 25  3  1  0
  3 23  1  0
  3 27  1  0
 16  4  1  0
  4 28  1  0
  4 29  1  0
  4 30  1  0
 51 18  1  0
 51 31  1  0
 51 32  1  0
 51 33  1  0
 52 19  1  0
 52 34  1  0
 52 35  1  0
 52 36  1  0
 23 53  2  0
 54  5  1  0
  5 37  1  0
 17  6  2  0
  8  7  2  0
  7  9  1  0
  7 38  1  0
  8 20  1  0
  8 39  1  0
  9 21  2  0
  9 40  1  0
 20 10  2  0
 10 21  1  0
 10 41  1  0
 18 11  1  0
 11 24  2  0
 11 42  1  0
 19 12  1  0
 12 25  2  0
 12 43  1  0
 24 13  1  0
 13 22  2  0
 13 44  1  0
 54 14  1  0
 54 45  1  0
 54 46  1  0
 14 47  1  0
 14 48  1  0
 22 15  1  0
 15 49  1  0
 15 50  1  0
 21 16  1  0
 19 18  2  0
 23 22  1  0
 25 24  1  0
M  END
