
     RDKit          3D

 30 31  0  0  0  0  0  0  0  0999 V2000
    2.0271   -1.4599   -0.1437 C   0  0  0  0  0  0  0  0  0  0  0  0
   -0.9828    1.7654    0.1919 C   0  0  0  0  0  0  0  0  0  0  0  0
   -1.9750    0.6877   -0.2096 C   0  0  1  0  0  0  0  0  0  0  0  0
    3.5191    0.3158    0.4626 C   0  0  0  0  0  0  0  0  0  0  0  0
    3.2608   -1.0396    0.3389 C   0  0  0  0  0  0  0  0  0  0  0  0
    1.0456   -0.5410   -0.5050 C   0  0  0  0  0  0  0  0  0  0  0  0
    1.3042    0.8284   -0.3719 C   0  0  0  0  0  0  0  0  0  0  0  0
    2.5422    1.2385    0.1089 C   0  0  0  0  0  0  0  0  0  0  0  0
   -0.2789   -1.0295   -1.0205 C   0  0  0  0  0  0  0  0  0  0  0  0
    0.2501    1.8423   -0.7133 C   0  0  0  0  0  0  0  0  0  0  0  0
   -1.4752   -0.7625   -0.0922 C   0  0  2  0  0  0  0  0  0  0  0  0
   -3.1870    0.8202    0.6523 N   0  0  0  0  0  0  0  0  0  0  0  0
   -2.5724   -1.5301   -0.4848 O   0  0  0  0  0  0  0  0  0  0  0  0
   -1.1845   -1.0294    1.2481 O   0  0  0  0  0  0  0  0  0  0  0  0
    1.8251   -2.5198   -0.2473 H   0  0  0  0  0  0  0  0  0  0  0  0
   -1.5011    2.7260    0.1407 H   0  0  0  0  0  0  0  0  0  0  0  0
   -0.6737    1.6319    1.2319 H   0  0  0  0  0  0  0  0  0  0  0  0
   -2.3182    0.8676   -1.2302 H   0  0  0  0  0  0  0  0  0  0  0  0
    4.4751    0.6586    0.8359 H   0  0  0  0  0  0  0  0  0  0  0  0
    4.0103   -1.7691    0.6164 H   0  0  0  0  0  0  0  0  0  0  0  0
    2.7454    2.2979    0.2118 H   0  0  0  0  0  0  0  0  0  0  0  0
   -0.5010   -0.5996   -2.0018 H   0  0  0  0  0  0  0  0  0  0  0  0
   -0.2189   -2.1108   -1.1719 H   0  0  0  0  0  0  0  0  0  0  0  0
   -0.0559    1.7427   -1.7602 H   0  0  0  0  0  0  0  0  0  0  0  0
    0.6757    2.8417   -0.6204 H   0  0  0  0  0  0  0  0  0  0  0  0
   -3.6020    1.7482    0.5704 H   0  0  0  0  0  0  0  0  0  0  0  0
   -3.9086    0.1451    0.3952 H   0  0  0  0  0  0  0  0  0  0  0  0
   -2.3591   -2.4676   -0.4003 H   0  0  0  0  0  0  0  0  0  0  0  0
   -0.2437   -1.1989    1.3731 H   0  0  0  0  0  0  0  0  0  0  0  0
   -2.9698    0.6713    1.6393 H   0  0  0  0  0  0  0  0  0  0  0  0
  2 10  1  0
  2  3  1  0
 12  3  1  0
 10  7  1  0
  8  7  2  0
  8  4  1  0
  3 11  1  0
  7  6  1  0
  4  5  2  0
 11 14  1  1
 11 13  1  0
 11  9  1  0
  6  1  2  0
  6  9  1  0
  5  1  1  0
  1 15  1  0
  2 16  1  0
  2 17  1  0
  3 18  1  6
  4 19  1  0
  5 20  1  0
  8 21  1  0
  9 22  1  0
  9 23  1  0
 10 24  1  0
 10 25  1  0
 12 26  1  0
 12 27  1  0
 13 28  1  0
 14 29  1  0
 30 12  1  0
M  CHG  1  12   1
M  END
