
     RDKit          3D

 29 30  0  0  0  0  0  0  0  0999 V2000
    6.6907    0.0737   -0.3246 N   0  0  0  0  0  0  0  0  0  0  0  0
    3.9322   -1.4403    0.7047 C   0  0  0  0  0  0  0  0  0  0  0  0
    2.9878   -1.0299   -0.4154 C   0  0  0  0  0  0  0  0  0  0  0  0
    1.5794   -0.7897    0.1121 C   0  0  0  0  0  0  0  0  0  0  0  0
    0.6276   -0.4160   -1.0149 C   0  0  0  0  0  0  0  0  0  0  0  0
   -1.2443    1.0220   -0.0622 C   0  0  0  0  0  0  0  0  0  0  0  0
   -2.7782   -0.3886    0.1655 C   0  0  0  0  0  0  0  0  0  0  0  0
   -3.9417   -1.1401    0.4145 C   0  0  0  0  0  0  0  0  0  0  0  0
   -2.8115   -2.9681   -0.4113 C   0  0  0  0  0  0  0  0  0  0  0  0
   -1.7059   -1.0741   -0.3805 C   0  0  0  0  0  0  0  0  0  0  0  0
    5.9770   -0.7518   -0.0499 N   0  0  0  0  0  0  0  0  0  0  0  0
    5.2920   -1.7185    0.2238 N   0  0  0  0  0  0  0  0  0  0  0  0
   -0.7148   -0.1459   -0.5343 N   0  0  0  0  0  0  0  0  0  0  0  0
   -2.4649    0.9321    0.3576 N   0  0  0  0  0  0  0  0  0  0  0  0
   -3.9172   -2.4425    0.1094 N   0  0  0  0  0  0  0  0  0  0  0  0
   -1.6670   -2.3671   -0.6887 N   0  0  0  0  0  0  0  0  0  0  0  0
   -0.2679    2.5980   -0.0452 Br  0  0  0  0  0  0  0  0  0  0  0  0
    3.9527   -0.6782    1.4898 H   0  0  0  0  0  0  0  0  0  0  0  0
    3.5929   -2.3680    1.1623 H   0  0  0  0  0  0  0  0  0  0  0  0
    3.3570   -0.1180   -0.8944 H   0  0  0  0  0  0  0  0  0  0  0  0
    2.9751   -1.8097   -1.1814 H   0  0  0  0  0  0  0  0  0  0  0  0
    1.2076   -1.6891    0.6101 H   0  0  0  0  0  0  0  0  0  0  0  0
    1.5954    0.0053    0.8631 H   0  0  0  0  0  0  0  0  0  0  0  0
    0.9846    0.4572   -1.5606 H   0  0  0  0  0  0  0  0  0  0  0  0
    0.5488   -1.2294   -1.7359 H   0  0  0  0  0  0  0  0  0  0  0  0
   -2.8607   -4.0286   -0.6337 H   0  0  0  0  0  0  0  0  0  0  0  0
   -5.8485   -1.1886    1.1213 H   0  0  0  0  0  0  0  0  0  0  0  0
   -5.0877    0.3589    1.1980 H   0  0  0  0  0  0  0  0  0  0  0  0
   -5.0491   -0.6091    0.9311 N   0  0  0  0  0  0  0  0  0  0  0  0
  1 11  2  0
 11 12  2  0
 12  2  1  0
  2  3  1  0
 29  8  1  0
  3  4  1  0
  8 15  1  0
  8  7  2  0
 15  9  2  0
 14  7  1  0
 14  6  2  0
  7 10  1  0
  9 16  1  0
  4  5  1  0
  6 17  1  0
  6 13  1  0
 10 16  2  0
 10 13  1  0
 13  5  1  0
  2 18  1  0
  2 19  1  0
  3 20  1  0
  3 21  1  0
  4 22  1  0
  4 23  1  0
  5 24  1  0
  5 25  1  0
  9 26  1  0
 29 27  1  0
 29 28  1  0
M  CHG  2   1  -1  11   1
M  END
