
     RDKit          3D

 22 22  0  0  0  0  0  0  0  0999 V2000
   -2.9802   -1.3603   -0.7695 O   0  0  0  0  0  0  0  0  0  0  0  0
   -2.6270   -0.4616    0.1373 C   0  0  0  0  0  0  0  0  0  0  0  0
   -3.3903    0.0177    0.9353 O   0  0  0  0  0  0  0  0  0  0  0  0
   -1.1699   -0.1193    0.0507 C   0  0  0  0  0  0  0  0  0  0  0  0
   -0.3251   -1.2424    0.0681 C   0  0  0  0  0  0  0  0  0  0  0  0
    1.0402   -1.3586    0.1133 C   0  0  0  0  0  0  0  0  0  0  0  0
    1.5395   -2.5952    0.1866 O   0  0  0  0  0  0  0  0  0  0  0  0
    2.0491   -0.3348    0.0812 C   0  0  0  0  0  0  0  0  0  0  0  0
    3.2439   -0.6733    0.1464 O   0  0  0  0  0  0  0  0  0  0  0  0
    1.7298    1.0658   -0.0697 C   0  0  0  0  0  0  0  0  0  0  0  0
    2.7991    1.8504   -0.1800 O   0  0  0  0  0  0  0  0  0  0  0  0
    0.5093    1.6935   -0.0887 C   0  0  0  0  0  0  0  0  0  0  0  0
   -0.8118    1.2189   -0.0065 C   0  0  0  0  0  0  0  0  0  0  0  0
   -1.8680    2.2976   -0.0151 C   0  0  0  0  0  0  0  0  0  0  0  0
   -3.9127   -1.5988   -0.6560 H   0  0  0  0  0  0  0  0  0  0  0  0
   -0.8247   -2.2045    0.0891 H   0  0  0  0  0  0  0  0  0  0  0  0
    2.5083   -2.5136    0.2040 H   0  0  0  0  0  0  0  0  0  0  0  0
    3.5939    1.2917   -0.1616 H   0  0  0  0  0  0  0  0  0  0  0  0
    0.5970    2.7702   -0.1834 H   0  0  0  0  0  0  0  0  0  0  0  0
   -1.4443    3.2436   -0.3440 H   0  0  0  0  0  0  0  0  0  0  0  0
   -2.7003    2.0660   -0.6773 H   0  0  0  0  0  0  0  0  0  0  0  0
   -2.2793    2.4507    0.9828 H   0  0  0  0  0  0  0  0  0  0  0  0
 11 10  1  0
  9  8  2  0
 10  8  1  0
 10 12  2  0
  8  6  1  0
 12 13  1  0
  7  6  1  0
  6  5  2  0
 13 14  1  0
 13  4  2  0
  5  4  1  0
  4  2  1  0
  2  3  2  0
  2  1  1  0
  1 15  1  0
  5 16  1  0
  7 17  1  0
 11 18  1  0
 12 19  1  0
 14 20  1  0
 14 21  1  0
 14 22  1  0
M  END
