
     RDKit          3D

 39 41  0  0  0  0  0  0  0  0999 V2000
    3.8690   -1.9696   -0.9168 C   0  0  0  0  0  0  0  0  0  0  0  0
    4.8531   -1.4744   -0.0790 C   0  0  0  0  0  0  0  0  0  0  0  0
    4.5984   -0.3029    0.6332 C   0  0  0  0  0  0  0  0  0  0  0  0
    3.3817    0.3622    0.5105 C   0  0  0  0  0  0  0  0  0  0  0  0
    2.3955   -0.1316   -0.3397 C   0  0  0  0  0  0  0  0  0  0  0  0
    2.6574   -1.3071   -1.0472 C   0  0  0  0  0  0  0  0  0  0  0  0
    1.1135    0.5692   -0.4907 C   0  0  0  0  0  0  0  0  0  0  0  0
   -0.1102   -0.0729   -0.8572 C   0  0  0  0  0  0  0  0  0  0  0  0
   -1.1683    0.7776   -0.9310 C   0  0  0  0  0  0  0  0  0  0  0  0
   -0.6782    2.3900   -0.5601 S   0  0  0  0  0  0  0  0  0  0  0  0
    0.9407    1.9111   -0.3016 C   0  0  0  0  0  0  0  0  0  0  0  0
   -2.6038    0.4564   -1.3047 C   0  0  2  0  0  0  0  0  0  0  0  0
   -3.5740    1.0210   -0.2748 C   0  0  0  0  0  0  0  0  0  0  0  0
   -3.4086    0.3528    1.0615 C   0  0  0  0  0  0  0  0  0  0  0  0
   -3.0180   -0.9654    1.0345 N   0  0  0  0  0  0  0  0  0  0  0  0
   -2.8356   -1.6987   -0.1496 C   0  0  0  0  0  0  0  0  0  0  0  0
   -2.8299   -0.9674   -1.3010 N   0  0  0  0  0  0  0  0  0  0  0  0
   -2.6872   -2.9617   -0.2073 N   0  0  0  0  0  0  0  0  0  0  0  0
   -2.9166    0.9989   -2.6960 C   0  0  0  0  0  0  0  0  0  0  0  0
   -2.8403   -1.6782    2.2896 C   0  0  0  0  0  0  0  0  0  0  0  0
   -3.6256    0.9362    2.1038 O   0  0  0  0  0  0  0  0  0  0  0  0
    5.5946    0.2199    1.5129 C   0  0  0  0  0  0  0  0  0  0  0  0
    6.3995    0.6411    2.2214 N   0  0  0  0  0  0  0  0  0  0  0  0
    4.0475   -2.8766   -1.4775 H   0  0  0  0  0  0  0  0  0  0  0  0
    5.8007   -1.9846    0.0251 H   0  0  0  0  0  0  0  0  0  0  0  0
    3.2054    1.2584    1.0908 H   0  0  0  0  0  0  0  0  0  0  0  0
    1.9133   -1.7083   -1.7229 H   0  0  0  0  0  0  0  0  0  0  0  0
   -0.1953   -1.1361   -1.0339 H   0  0  0  0  0  0  0  0  0  0  0  0
    1.6844    2.6489   -0.0394 H   0  0  0  0  0  0  0  0  0  0  0  0
   -3.4629    2.0969   -0.1423 H   0  0  0  0  0  0  0  0  0  0  0  0
   -4.5983    0.8445   -0.6183 H   0  0  0  0  0  0  0  0  0  0  0  0
   -2.7973   -3.4192    0.6864 H   0  0  0  0  0  0  0  0  0  0  0  0
   -2.2523    0.5547   -3.4384 H   0  0  0  0  0  0  0  0  0  0  0  0
   -3.9473    0.7741   -2.9709 H   0  0  0  0  0  0  0  0  0  0  0  0
   -2.7810    2.0794   -2.7288 H   0  0  0  0  0  0  0  0  0  0  0  0
   -3.6537   -2.3824    2.4667 H   0  0  0  0  0  0  0  0  0  0  0  0
   -1.8953   -2.2183    2.2805 H   0  0  0  0  0  0  0  0  0  0  0  0
   -2.8199   -0.9669    3.1060 H   0  0  0  0  0  0  0  0  0  0  0  0
   -2.5594   -1.4919   -2.1194 H   0  0  0  0  0  0  0  0  0  0  0  0
  1  6  2  0
  1  2  1  0
  6  5  1  0
 11 10  1  0
 11  7  2  0
 10  9  1  0
  2  3  2  0
  5  7  1  0
  5  4  2  0
  7  8  1  0
  9  8  2  0
  9 12  1  0
 12 19  1  6
  3  4  1  0
  3 22  1  0
 12 13  1  0
 12 17  1  0
 22 23  3  0
 13 14  1  0
 17 16  1  0
 14 21  2  0
 14 15  1  0
 16 15  1  0
 16 18  2  0
 15 20  1  0
  1 24  1  0
  2 25  1  0
  4 26  1  0
  6 27  1  0
  8 28  1  0
 11 29  1  0
 13 30  1  0
 13 31  1  0
 18 32  1  0
 19 33  1  0
 19 34  1  0
 19 35  1  0
 20 36  1  0
 20 37  1  0
 20 38  1  0
 17 39  1  0
M  END
