
     RDKit          3D

 28 30  0  0  0  0  0  0  0  0999 V2000
    3.6571    2.0681   -0.0158 C   0  0  0  0  0  0  0  0  0  0  0  0
    3.0949    0.6815   -0.0014 C   0  0  0  0  0  0  0  0  0  0  0  0
    3.9200   -0.3549    0.0124 N   0  0  0  0  0  0  0  0  0  0  0  0
    3.4311   -1.6014    0.0246 C   0  0  0  0  0  0  0  0  0  0  0  0
    2.0845   -1.9096    0.0236 C   0  0  0  0  0  0  0  0  0  0  0  0
    1.1912   -0.8415    0.0087 C   0  0  0  0  0  0  0  0  0  0  0  0
    1.7171    0.4604   -0.0033 C   0  0  0  0  0  0  0  0  0  0  0  0
    0.6814    1.3619   -0.0163 N   0  0  0  0  0  0  0  0  0  0  0  0
   -0.5074    0.6843   -0.0130 C   0  0  0  0  0  0  0  0  0  0  0  0
   -1.8015    1.1857   -0.0228 C   0  0  0  0  0  0  0  0  0  0  0  0
   -0.2394   -0.7017    0.0023 C   0  0  0  0  0  0  0  0  0  0  0  0
   -1.3048   -1.5948    0.0072 C   0  0  0  0  0  0  0  0  0  0  0  0
   -2.6016   -1.1159   -0.0023 C   0  0  0  0  0  0  0  0  0  0  0  0
   -2.8491    0.2704   -0.0170 C   0  0  0  0  0  0  0  0  0  0  0  0
   -4.0863    0.8004   -0.0259 O   0  0  0  0  0  0  0  0  0  0  0  0
   -5.2056   -0.0638   -0.0240 C   0  0  0  0  0  0  0  0  0  0  0  0
    3.3348    2.6163   -0.9038 H   0  0  0  0  0  0  0  0  0  0  0  0
    3.3218    2.6407    0.8517 H   0  0  0  0  0  0  0  0  0  0  0  0
    4.7445    2.0404   -0.0076 H   0  0  0  0  0  0  0  0  0  0  0  0
    4.1669   -2.3972    0.0360 H   0  0  0  0  0  0  0  0  0  0  0  0
    1.7532   -2.9398    0.0343 H   0  0  0  0  0  0  0  0  0  0  0  0
    0.7759    2.3639   -0.0247 H   0  0  0  0  0  0  0  0  0  0  0  0
   -1.9990    2.2503   -0.0345 H   0  0  0  0  0  0  0  0  0  0  0  0
   -1.1313   -2.6636    0.0178 H   0  0  0  0  0  0  0  0  0  0  0  0
   -3.4167   -1.8249    0.0012 H   0  0  0  0  0  0  0  0  0  0  0  0
   -5.2298   -0.7055   -0.9082 H   0  0  0  0  0  0  0  0  0  0  0  0
   -5.2384   -0.6904    0.8706 H   0  0  0  0  0  0  0  0  0  0  0  0
   -6.0856    0.5744   -0.0338 H   0  0  0  0  0  0  0  0  0  0  0  0
  1  2  1  0
  1 17  1  0
  1 18  1  0
  1 19  1  0
  2  3  2  0
  2  7  1  0
  3  4  1  0
  4  5  2  0
  4 20  1  0
  5  6  1  0
  5 21  1  0
  6  7  2  0
  6 11  1  0
  7  8  1  0
  8  9  1  0
  8 22  1  0
  9 10  1  0
  9 11  2  0
 10 14  2  0
 10 23  1  0
 11 12  1  0
 12 13  2  0
 12 24  1  0
 13 14  1  0
 13 25  1  0
 14 15  1  0
 15 16  1  0
 16 26  1  0
 16 27  1  0
 16 28  1  0
M  END
