
     RDKit          3D

 42 44  0  0  0  0  0  0  0  0999 V2000
    1.6206    0.9187    0.2672 N   0  0  0  0  0  0  0  0  0  0  0  0
   -0.6315    1.0332    0.1664 N   0  0  0  0  0  0  0  0  0  0  0  0
    0.5118   -0.6256   -1.0848 N   0  0  0  0  0  0  0  0  0  0  0  0
   -2.8891    1.2742    0.1484 N   0  0  0  0  0  0  0  0  0  0  0  0
    4.7512   -0.8492   -0.6457 C   0  0  0  0  0  0  0  0  0  0  0  0
   -3.9390   -2.6410    0.4523 N   0  0  0  0  0  0  0  0  0  0  0  0
    5.6951   -0.0627    0.0079 C   0  0  0  0  0  0  0  0  0  0  0  0
    7.9634    0.1092    0.8089 N   0  0  0  0  0  0  0  0  0  0  0  0
    5.2371    1.0531    0.7097 C   0  0  0  0  0  0  0  0  0  0  0  0
    3.8921    1.3516    0.7661 C   0  0  0  0  0  0  0  0  0  0  0  0
    2.9427    0.5426    0.1255 C   0  0  0  0  0  0  0  0  0  0  0  0
    3.3967   -0.5698   -0.5917 C   0  0  0  0  0  0  0  0  0  0  0  0
    0.4645    0.4030   -0.2514 C   0  0  0  0  0  0  0  0  0  0  0  0
   -1.8004    0.6027   -0.2920 C   0  0  0  0  0  0  0  0  0  0  0  0
   -1.8693   -0.4603   -1.2121 C   0  0  0  0  0  0  0  0  0  0  0  0
   -0.6699   -1.0287   -1.5556 C   0  0  0  0  0  0  0  0  0  0  0  0
   -4.2301    0.9064   -0.0287 C   0  0  0  0  0  0  0  0  0  0  0  0
   -5.1155    1.8648   -0.5124 C   0  0  0  0  0  0  0  0  0  0  0  0
   -6.4573    1.5662   -0.6893 C   0  0  0  0  0  0  0  0  0  0  0  0
   -6.9249    0.2893   -0.4162 C   0  0  0  0  0  0  0  0  0  0  0  0
   -6.0457   -0.6723    0.0571 C   0  0  0  0  0  0  0  0  0  0  0  0
   -4.7018   -0.3768    0.2758 C   0  0  0  0  0  0  0  0  0  0  0  0
   -3.8329   -1.3998    0.9465 C   0  0  0  0  0  0  0  0  0  0  0  0
   -3.1227   -1.1097    1.8965 O   0  0  0  0  0  0  0  0  0  0  0  0
    7.5281   -1.2054   -0.9647 O   0  0  0  0  0  0  0  0  0  0  0  0
    1.4607    1.7128    0.8689 H   0  0  0  0  0  0  0  0  0  0  0  0
   -2.7013    2.1139    0.6757 H   0  0  0  0  0  0  0  0  0  0  0  0
    5.0757   -1.7166   -1.2053 H   0  0  0  0  0  0  0  0  0  0  0  0
   -4.4449   -2.8364   -0.3946 H   0  0  0  0  0  0  0  0  0  0  0  0
   -3.3890   -3.3891    0.8433 H   0  0  0  0  0  0  0  0  0  0  0  0
    7.6377    0.6194    1.6108 H   0  0  0  0  0  0  0  0  0  0  0  0
    8.9399   -0.1357    0.7949 H   0  0  0  0  0  0  0  0  0  0  0  0
    5.9233    1.7252    1.2095 H   0  0  0  0  0  0  0  0  0  0  0  0
    3.5668    2.2303    1.3102 H   0  0  0  0  0  0  0  0  0  0  0  0
    2.6974   -1.2092   -1.1040 H   0  0  0  0  0  0  0  0  0  0  0  0
   -2.7947   -0.8053   -1.6467 H   0  0  0  0  0  0  0  0  0  0  0  0
   -0.6462   -1.8544   -2.2577 H   0  0  0  0  0  0  0  0  0  0  0  0
   -4.7410    2.8506   -0.7578 H   0  0  0  0  0  0  0  0  0  0  0  0
   -7.1315    2.3291   -1.0558 H   0  0  0  0  0  0  0  0  0  0  0  0
   -7.9683    0.0442   -0.5605 H   0  0  0  0  0  0  0  0  0  0  0  0
   -6.4202   -1.6594    0.2973 H   0  0  0  0  0  0  0  0  0  0  0  0
    7.1331   -0.4374   -0.0950 C   0  0  0  0  0  0  0  0  0  0  0  0
 11  1  1  0
  1 13  1  0
  1 26  1  0
  2 14  2  0
  2 13  1  0
 13  3  2  0
  3 16  1  0
 17  4  1  0
  4 14  1  0
  4 27  1  0
  7  5  2  0
  5 12  1  0
  5 28  1  0
  6 23  1  0
  6 29  1  0
  6 30  1  0
 42  7  1  0
  7  9  1  0
  8 42  1  0
  8 31  1  0
  8 32  1  0
  9 10  2  0
  9 33  1  0
 10 11  1  0
 10 34  1  0
 12 11  2  0
 12 35  1  0
 25 42  2  0
 14 15  1  0
 15 16  2  0
 15 36  1  0
 16 37  1  0
 18 17  2  0
 22 17  1  0
 19 18  1  0
 18 38  1  0
 20 19  2  0
 19 39  1  0
 20 21  1  0
 20 40  1  0
 21 22  2  0
 21 41  1  0
 22 23  1  0
 23 24  2  0
M  END
