
     RDKit          3D

 16 17  0  0  0  0  0  0  0  0999 V2000
    3.3145   -0.7377    0.0596 O   0  0  0  0  0  0  0  0  0  0  0  0
    2.5475    0.1948    0.0396 N   0  0  0  0  0  0  0  0  0  0  0  0
    2.8928    1.3523    0.0254 O   0  0  0  0  0  0  0  0  0  0  0  0
    1.1181   -0.0937    0.0322 C   0  0  0  0  0  0  0  0  0  0  0  0
    0.7068   -1.4422    0.0354 C   0  0  0  0  0  0  0  0  0  0  0  0
   -0.6288   -1.7586    0.0287 C   0  0  0  0  0  0  0  0  0  0  0  0
   -1.5434   -0.7010    0.0195 C   0  0  0  0  0  0  0  0  0  0  0  0
   -2.9067   -0.6904    0.0125 N   0  0  0  0  0  0  0  0  0  0  0  0
   -1.0998    0.6238    0.0174 C   0  0  0  0  0  0  0  0  0  0  0  0
    0.2461    0.9722    0.0231 C   0  0  0  0  0  0  0  0  0  0  0  0
   -2.2494    1.3337    0.0090 N   0  0  0  0  0  0  0  0  0  0  0  0
   -3.2950    0.5283    0.0065 N   0  0  0  0  0  0  0  0  0  0  0  0
    1.4414   -2.2325    0.0425 H   0  0  0  0  0  0  0  0  0  0  0  0
    0.5745    2.0010    0.0209 H   0  0  0  0  0  0  0  0  0  0  0  0
   -0.9575   -2.7883    0.0312 H   0  0  0  0  0  0  0  0  0  0  0  0
   -2.3855    2.3346    0.0068 H   0  0  0  0  0  0  0  0  0  0  0  0
  1  2  1  0
  2  3  2  0
  2  4  1  0
  4  5  2  0
  4 10  1  0
  5  6  1  0
  6  7  2  0
  7  8  1  0
  7  9  1  0
  8 12  2  0
  9 10  2  0
  9 11  1  0
 11 12  1  0
  5 13  1  0
 10 14  1  0
  6 15  1  0
 11 16  1  0
M  CHG  2   1  -1   2   1
M  END
