
     RDKit          3D

 34 35  0  0  0  0  0  0  0  0999 V2000
   -0.3250    0.8661    3.6242 C   0  0  2  0  0  0  0  0  0  0  0  0
    0.4412   -0.5426   -2.3358 C   0  0  0  0  0  0  0  0  0  0  0  0
    1.8544   -0.4694   -2.3495 C   0  0  0  0  0  0  0  0  0  0  0  0
    2.5385   -0.1514   -1.2110 C   0  0  0  0  0  0  0  0  0  0  0  0
    1.8526    0.1115   -0.0046 C   0  0  0  0  0  0  0  0  0  0  0  0
    2.5290    0.4338    1.1934 C   0  0  0  0  0  0  0  0  0  0  0  0
    1.8370    0.6778    2.3446 C   0  0  0  0  0  0  0  0  0  0  0  0
    0.4235    0.6224    2.3510 C   0  0  0  0  0  0  0  0  0  0  0  0
   -0.2592    0.3087    1.2050 C   0  0  0  0  0  0  0  0  0  0  0  0
    0.4384    0.0460    0.0052 C   0  0  0  0  0  0  0  0  0  0  0  0
   -0.2504   -0.2823   -1.1827 C   0  0  0  0  0  0  0  0  0  0  0  0
   -1.5390    1.4252    3.3684 F   0  0  0  0  0  0  0  0  0  0  0  0
    0.3508    1.7346    4.4228 F   0  0  0  0  0  0  0  0  0  0  0  0
   -0.6673   -0.6573    4.6333 P   0  0  2  0  0  0  0  0  0  0  0  0
   -1.4217   -0.3912    5.8727 O   0  0  0  0  0  0  0  0  0  0  0  0
    0.8168   -1.2234    4.7484 O   0  0  0  0  0  0  0  0  0  0  0  0
   -1.4839   -1.6086    3.6439 O   0  0  0  0  0  0  0  0  0  0  0  0
    0.4315   -1.7556   -4.3452 F   0  0  0  0  0  0  0  0  0  0  0  0
   -1.4838   -1.4604   -3.3329 F   0  0  0  0  0  0  0  0  0  0  0  0
   -0.6302    0.5756   -4.7159 P   0  0  2  0  0  0  0  0  0  0  0  0
   -1.2415    0.1902   -6.0025 O   0  0  0  0  0  0  0  0  0  0  0  0
   -1.4710    1.4814   -3.7119 O   0  0  0  0  0  0  0  0  0  0  0  0
    0.7967    1.2619   -4.9266 O   0  0  0  0  0  0  0  0  0  0  0  0
    2.4064   -0.6749   -3.2564 H   0  0  0  0  0  0  0  0  0  0  0  0
    3.6198   -0.1033   -1.2264 H   0  0  0  0  0  0  0  0  0  0  0  0
    3.6104    0.4840    1.1922 H   0  0  0  0  0  0  0  0  0  0  0  0
    2.3802    0.9188    3.2476 H   0  0  0  0  0  0  0  0  0  0  0  0
   -1.3410    0.2627    1.1880 H   0  0  0  0  0  0  0  0  0  0  0  0
   -1.3315   -0.3261   -1.1526 H   0  0  0  0  0  0  0  0  0  0  0  0
    0.9587   -1.8911    5.4354 H   0  0  0  0  0  0  0  0  0  0  0  0
   -0.9793   -2.0709    2.9612 H   0  0  0  0  0  0  0  0  0  0  0  0
   -1.9625    2.2090   -4.1207 H   0  0  0  0  0  0  0  0  0  0  0  0
    1.1143    1.8365   -4.2171 H   0  0  0  0  0  0  0  0  0  0  0  0
   -0.2886   -0.8715   -3.6000 C   0  0  1  0  0  0  0  0  0  0  0  0
  1  8  1  0
  1 12  1  6
  1 13  1  0
  1 14  1  0
  2  3  2  0
  2 11  1  0
  2 34  1  0
  3  4  1  0
  3 24  1  0
  4  5  2  0
  4 25  1  0
  5  6  1  0
  5 10  1  0
  6  7  2  0
  6 26  1  0
  7  8  1  0
  7 27  1  0
  8  9  2  0
  9 10  1  0
  9 28  1  0
 10 11  2  0
 11 29  1  0
 34 18  1  6
 34 19  1  0
 34 20  1  0
 14 15  2  0
 14 16  1  1
 14 17  1  0
 16 30  1  0
 17 31  1  0
 20 21  2  0
 20 22  1  1
 20 23  1  0
 22 32  1  0
 23 33  1  0
M  END
