
     RDKit          3D

 28 29  0  0  0  0  0  0  0  0999 V2000
    3.4221    0.3024    0.0917 C   0  0  0  0  0  0  0  0  0  0  0  0
    2.7625   -0.3284    1.1350 C   0  0  0  0  0  0  0  0  0  0  0  0
    1.3816   -0.4393    1.0886 C   0  0  0  0  0  0  0  0  0  0  0  0
   -1.5488   -0.3242    1.1753 C   0  0  0  0  0  0  0  0  0  0  0  0
   -2.9608    0.2015    0.9462 C   0  0  0  0  0  0  0  0  0  0  0  0
   -1.4601    1.3116   -0.6270 C   0  0  0  0  0  0  0  0  0  0  0  0
    1.3328    0.6884   -1.0018 N   0  0  0  0  0  0  0  0  0  0  0  0
   -1.0995   -1.0950   -1.1862 C   0  0  0  0  0  0  0  0  0  0  0  0
   -0.5429   -2.3184   -0.7703 O   0  0  0  0  0  0  0  0  0  0  0  0
   -0.8107   -0.0139   -0.1392 C   0  0  2  0  0  0  0  0  0  0  0  0
    0.6915    0.0914    0.0014 C   0  0  0  0  0  0  0  0  0  0  0  0
    2.6544    0.7900   -0.9544 C   0  0  0  0  0  0  0  0  0  0  0  0
   -2.7193    1.5305    0.2313 C   0  0  0  0  0  0  0  0  0  0  0  0
    4.4977    0.4138    0.0838 H   0  0  0  0  0  0  0  0  0  0  0  0
    3.3142   -0.7319    1.9743 H   0  0  0  0  0  0  0  0  0  0  0  0
    0.8514   -0.9316    1.8914 H   0  0  0  0  0  0  0  0  0  0  0  0
   -1.0936    0.2362    1.9978 H   0  0  0  0  0  0  0  0  0  0  0  0
   -1.5149   -1.3802    1.4466 H   0  0  0  0  0  0  0  0  0  0  0  0
   -3.5309   -0.4818    0.3115 H   0  0  0  0  0  0  0  0  0  0  0  0
   -3.5227    0.3158    1.8744 H   0  0  0  0  0  0  0  0  0  0  0  0
   -0.7668    2.1465   -0.5305 H   0  0  0  0  0  0  0  0  0  0  0  0
   -1.7076    1.2480   -1.6891 H   0  0  0  0  0  0  0  0  0  0  0  0
   -0.6761   -0.7630   -2.1436 H   0  0  0  0  0  0  0  0  0  0  0  0
   -2.1854   -1.1761   -1.3292 H   0  0  0  0  0  0  0  0  0  0  0  0
   -0.7788   -2.9895   -1.4169 H   0  0  0  0  0  0  0  0  0  0  0  0
    3.1289    1.2867   -1.7940 H   0  0  0  0  0  0  0  0  0  0  0  0
   -3.5768    1.8561   -0.3591 H   0  0  0  0  0  0  0  0  0  0  0  0
   -2.5334    2.3102    0.9732 H   0  0  0  0  0  0  0  0  0  0  0  0
  8  9  1  0
 10  8  1  6
 11 10  1  0
 11  7  2  0
  7 12  1  0
 12  1  2  0
  1  2  1  0
  2  3  2  0
  3 11  1  0
 10  4  1  0
  4  5  1  0
  5 13  1  0
 13  6  1  0
  6 10  1  0
  1 14  1  0
  2 15  1  0
  3 16  1  0
  4 17  1  0
  4 18  1  0
  5 19  1  0
  5 20  1  0
  6 21  1  0
  6 22  1  0
  8 23  1  0
  8 24  1  0
  9 25  1  0
 12 26  1  0
 13 27  1  0
 13 28  1  0
M  END
