
     RDKit          3D

 44 46  0  0  0  0  0  0  0  0999 V2000
    5.2600   -0.7256   -0.1545 C   0  0  0  0  0  0  0  0  0  0  0  0
    4.7063   -1.9809   -0.3423 C   0  0  0  0  0  0  0  0  0  0  0  0
    3.3465   -2.1905   -0.4421 C   0  0  0  0  0  0  0  0  0  0  0  0
    2.5415   -1.0682   -0.3473 C   0  0  0  0  0  0  0  0  0  0  0  0
    3.0530    0.2290   -0.1676 C   0  0  0  0  0  0  0  0  0  0  0  0
    4.4393    0.3932   -0.0710 C   0  0  0  0  0  0  0  0  0  0  0  0
    0.8075   -1.0087   -0.3929 S   0  0  0  0  0  0  0  0  0  0  0  0
    0.9178    0.7354   -0.1549 C   0  0  0  0  0  0  0  0  0  0  0  0
    2.1128    1.2180   -0.0553 N   0  0  0  0  0  0  0  0  0  0  0  0
    5.0405    1.7576    0.0607 C   0  0  0  0  0  0  0  0  0  0  0  0
    4.6650    2.6898   -0.6311 O   0  0  0  0  0  0  0  0  0  0  0  0
    6.0238    1.8526    0.9672 N   0  0  0  0  0  0  0  0  0  0  0  0
    5.5289   -3.0385   -0.4334 F   0  0  0  0  0  0  0  0  0  0  0  0
   -0.1891    1.5000   -0.1245 N   0  0  0  0  0  0  0  0  0  0  0  0
   -1.5193    1.0500   -0.1781 C   0  0  0  0  0  0  0  0  0  0  0  0
   -1.9762    0.0340    0.6594 C   0  0  0  0  0  0  0  0  0  0  0  0
   -3.2944   -0.3848    0.5841 C   0  0  0  0  0  0  0  0  0  0  0  0
   -4.1929    0.2186   -0.2914 C   0  0  0  0  0  0  0  0  0  0  0  0
   -3.7331    1.2547   -1.0956 C   0  0  0  0  0  0  0  0  0  0  0  0
   -2.4086    1.6636   -1.0536 C   0  0  0  0  0  0  0  0  0  0  0  0
   -5.6201   -0.2726   -0.3931 C   0  0  1  0  0  0  0  0  0  0  0  0
   -5.6277   -1.5918   -1.1655 C   0  0  0  0  0  0  0  0  0  0  0  0
   -6.2093   -0.3969    0.9348 N   0  0  0  0  0  0  0  0  0  0  0  0
   -6.2959    0.8944    1.5888 C   0  0  0  0  0  0  0  0  0  0  0  0
   -7.5122   -1.0322    0.9269 C   0  0  0  0  0  0  0  0  0  0  0  0
    6.3366   -0.6260   -0.0977 H   0  0  0  0  0  0  0  0  0  0  0  0
    2.9409   -3.1832   -0.5865 H   0  0  0  0  0  0  0  0  0  0  0  0
    6.2491    1.0984    1.5928 H   0  0  0  0  0  0  0  0  0  0  0  0
    6.5033    2.7281    1.1040 H   0  0  0  0  0  0  0  0  0  0  0  0
   -0.0243    2.4931   -0.2057 H   0  0  0  0  0  0  0  0  0  0  0  0
   -1.3172   -0.4148    1.3916 H   0  0  0  0  0  0  0  0  0  0  0  0
   -3.6375   -1.1726    1.2427 H   0  0  0  0  0  0  0  0  0  0  0  0
   -4.4166    1.7488   -1.7760 H   0  0  0  0  0  0  0  0  0  0  0  0
   -2.0649    2.4638   -1.6974 H   0  0  0  0  0  0  0  0  0  0  0  0
   -6.1882    0.4612   -0.9948 H   0  0  0  0  0  0  0  0  0  0  0  0
   -5.0681   -1.4757   -2.0934 H   0  0  0  0  0  0  0  0  0  0  0  0
   -5.1574   -2.3884   -0.5865 H   0  0  0  0  0  0  0  0  0  0  0  0
   -6.6348   -1.9090   -1.4335 H   0  0  0  0  0  0  0  0  0  0  0  0
   -6.9456    1.6047    1.0530 H   0  0  0  0  0  0  0  0  0  0  0  0
   -6.6961    0.7720    2.5958 H   0  0  0  0  0  0  0  0  0  0  0  0
   -5.3111    1.3519    1.6808 H   0  0  0  0  0  0  0  0  0  0  0  0
   -8.2474   -0.5141    0.2910 H   0  0  0  0  0  0  0  0  0  0  0  0
   -7.4486   -2.0662    0.5926 H   0  0  0  0  0  0  0  0  0  0  0  0
   -7.9090   -1.0463    1.9426 H   0  0  0  0  0  0  0  0  0  0  0  0
 25 23  1  0
 23 24  1  0
 23 21  1  0
 22 21  1  0
 21 18  1  0
 18 19  2  0
 18 17  1  0
 19 20  1  0
 17 16  2  0
 20 15  2  0
 16 15  1  0
 15 14  1  0
 11 10  2  0
 14  8  1  0
 12 10  1  0
 10  6  1  0
  9  8  2  0
  9  5  1  0
  8  7  1  0
  6  5  1  0
  6  1  2  0
  5  4  2  0
  7  4  1  0
  1  2  1  0
  4  3  1  0
  2  3  2  0
  2 13  1  0
  1 26  1  0
  3 27  1  0
 12 28  1  0
 12 29  1  0
 14 30  1  0
 16 31  1  0
 17 32  1  0
 19 33  1  0
 20 34  1  0
 21 35  1  6
 22 36  1  0
 22 37  1  0
 22 38  1  0
 24 39  1  0
 24 40  1  0
 24 41  1  0
 25 42  1  0
 25 43  1  0
 25 44  1  0
M  END
