
     RDKit          3D

 44 45  0  0  0  0  0  0  0  0999 V2000
    0.0651    0.6897   -0.0964 N   0  0  0  0  0  0  0  0  0  0  0  0
    0.2258    2.0530   -0.2884 C   0  0  0  0  0  0  0  0  0  0  0  0
    1.2997    2.5833   -0.4522 O   0  0  0  0  0  0  0  0  0  0  0  0
   -0.9443    2.7672   -0.2754 N   0  0  0  0  0  0  0  0  0  0  0  0
   -2.2363    2.3040   -0.1200 C   0  0  0  0  0  0  0  0  0  0  0  0
   -3.1821    3.0636   -0.1393 O   0  0  0  0  0  0  0  0  0  0  0  0
   -2.3174    0.8636    0.0653 C   0  0  0  0  0  0  0  0  0  0  0  0
   -1.1715    0.1455    0.0680 C   0  0  0  0  0  0  0  0  0  0  0  0
   -3.5878    0.2585    0.2390 C   0  0  0  0  0  0  0  0  0  0  0  0
   -4.6737   -0.2441    0.3862 C   0  0  0  0  0  0  0  0  0  0  0  0
   -5.9729   -0.8812    0.5471 C   0  0  0  0  0  0  0  0  0  0  0  0
    1.2238   -0.1928   -0.1024 C   0  0  1  0  0  0  0  0  0  0  0  0
   -6.0182   -2.2934   -0.0450 C   0  0  0  0  0  0  0  0  0  0  0  0
   -7.3809   -2.9401    0.1510 C   0  0  0  0  0  0  0  0  0  0  0  0
    1.9325   -0.2418   -1.4545 C   0  0  2  0  0  0  0  0  0  0  0  0
    0.9794   -0.6663   -2.3914 O   0  0  0  0  0  0  0  0  0  0  0  0
    3.0993   -1.2115   -1.3194 C   0  0  1  0  0  0  0  0  0  0  0  0
    3.7942   -1.2083   -2.5441 O   0  0  0  0  0  0  0  0  0  0  0  0
    3.9945   -0.8023   -0.1495 C   0  0  2  0  0  0  0  0  0  0  0  0
    5.0084   -1.7579    0.0608 O   0  0  0  0  0  0  0  0  0  0  0  0
    3.1563   -0.7043    1.1270 C   0  0  2  0  0  0  0  0  0  0  0  0
    2.0777    0.1942    0.9227 O   0  0  0  0  0  0  0  0  0  0  0  0
    3.9615   -0.1905    2.3001 C   0  0  0  0  0  0  0  0  0  0  0  0
    3.1520   -0.2054    3.4509 O   0  0  0  0  0  0  0  0  0  0  0  0
   -0.8346    3.7663   -0.4026 H   0  0  0  0  0  0  0  0  0  0  0  0
   -1.1965   -0.9254    0.2086 H   0  0  0  0  0  0  0  0  0  0  0  0
   -6.2293   -0.9217    1.6101 H   0  0  0  0  0  0  0  0  0  0  0  0
   -6.7366   -0.2576    0.0731 H   0  0  0  0  0  0  0  0  0  0  0  0
    0.8227   -1.1977    0.0935 H   0  0  0  0  0  0  0  0  0  0  0  0
   -5.7744   -2.2456   -1.1084 H   0  0  0  0  0  0  0  0  0  0  0  0
   -5.2446   -2.9037    0.4260 H   0  0  0  0  0  0  0  0  0  0  0  0
   -7.6356   -3.0095    1.2099 H   0  0  0  0  0  0  0  0  0  0  0  0
   -8.1675   -2.3671   -0.3428 H   0  0  0  0  0  0  0  0  0  0  0  0
   -7.3982   -3.9490   -0.2611 H   0  0  0  0  0  0  0  0  0  0  0  0
    2.3312    0.7486   -1.7044 H   0  0  0  0  0  0  0  0  0  0  0  0
    1.4094   -0.7311   -3.2505 H   0  0  0  0  0  0  0  0  0  0  0  0
    2.6940   -2.2128   -1.1051 H   0  0  0  0  0  0  0  0  0  0  0  0
    4.2982   -2.0244   -2.6185 H   0  0  0  0  0  0  0  0  0  0  0  0
    4.4228    0.1880   -0.3609 H   0  0  0  0  0  0  0  0  0  0  0  0
    5.7546   -1.5478   -0.5076 H   0  0  0  0  0  0  0  0  0  0  0  0
    2.7631   -1.7050    1.3715 H   0  0  0  0  0  0  0  0  0  0  0  0
    4.8402   -0.8323    2.4123 H   0  0  0  0  0  0  0  0  0  0  0  0
    4.3249    0.8201    2.0671 H   0  0  0  0  0  0  0  0  0  0  0  0
    3.7130   -0.0216    4.2094 H   0  0  0  0  0  0  0  0  0  0  0  0
 18 17  1  0
 20 19  1  0
 17 19  1  0
 17 15  1  0
 19 21  1  0
 16 15  1  0
 15 12  1  0
 24 23  1  0
 21 23  1  0
 21 22  1  0
 12 22  1  0
 12  1  1  0
  1  8  1  0
  1  2  1  0
  8  7  2  0
  3  2  2  0
  2  4  1  0
  7  9  1  0
  7  5  1  0
  9 10  3  0
 10 11  1  0
  4  5  1  0
  5  6  2  0
 11 13  1  0
 13 14  1  0
  4 25  1  0
  8 26  1  0
 11 27  1  0
 11 28  1  0
 12 29  1  1
 13 30  1  0
 13 31  1  0
 14 32  1  0
 14 33  1  0
 14 34  1  0
 15 35  1  6
 16 36  1  0
 17 37  1  1
 18 38  1  0
 19 39  1  6
 20 40  1  0
 21 41  1  1
 23 42  1  0
 23 43  1  0
 24 44  1  0
M  END
