
     RDKit          3D

 58 62  0  0  0  0  0  0  0  0999 V2000
    5.1171   -2.0938    0.0430 C   0  0  0  0  0  0  0  0  0  0  0  0
    6.0479   -1.0623   -0.0142 C   0  0  0  0  0  0  0  0  0  0  0  0
    5.6025    0.2369   -0.2178 C   0  0  0  0  0  0  0  0  0  0  0  0
    4.2479    0.5243   -0.3622 C   0  0  0  0  0  0  0  0  0  0  0  0
    3.3002   -0.5067   -0.3061 C   0  0  0  0  0  0  0  0  0  0  0  0
    3.7701   -1.8042   -0.1043 C   0  0  0  0  0  0  0  0  0  0  0  0
    3.8478    1.9676   -0.5433 C   0  0  0  0  0  0  0  0  0  0  0  0
    2.4000    2.1529   -0.9705 C   0  0  0  0  0  0  0  0  0  0  0  0
    1.4886    1.2416   -0.1616 C   0  0  2  0  0  0  0  0  0  0  0  0
    1.8215   -0.2216   -0.5008 C   0  0  2  0  0  0  0  0  0  0  0  0
    0.0124    1.4741   -0.4316 C   0  0  1  0  0  0  0  0  0  0  0  0
   -0.8968    0.5607    0.4021 C   0  0  2  0  0  0  0  0  0  0  0  0
   -0.5815   -0.8854    0.0343 C   0  0  0  0  0  0  0  0  0  0  0  0
    0.9018   -1.2074    0.2315 C   0  0  0  0  0  0  0  0  0  0  0  0
   -0.5794    2.8698   -0.2344 C   0  0  0  0  0  0  0  0  0  0  0  0
   -2.0988    2.6246   -0.0935 C   0  0  0  0  0  0  0  0  0  0  0  0
   -2.2713    1.0841   -0.0672 C   0  0  2  0  0  0  0  0  0  0  0  0
   -3.4567    0.5962    0.6150 N   0  0  0  0  0  0  0  0  0  0  0  0
   -0.7155    0.7708    1.9058 C   0  0  0  0  0  0  0  0  0  0  0  0
   -3.8923    1.2304    1.8385 C   0  0  0  0  0  0  0  0  0  0  0  0
   -4.3045   -0.3176    0.0302 C   0  0  0  0  0  0  0  0  0  0  0  0
    7.3768   -1.2655    0.1203 O   0  0  0  0  0  0  0  0  0  0  0  0
    5.4357   -3.1179    0.2027 H   0  0  0  0  0  0  0  0  0  0  0  0
    6.3271    1.0430   -0.2634 H   0  0  0  0  0  0  0  0  0  0  0  0
    3.0727   -2.6303   -0.0601 H   0  0  0  0  0  0  0  0  0  0  0  0
    4.0083    2.4881    0.4069 H   0  0  0  0  0  0  0  0  0  0  0  0
    4.5222    2.4459   -1.2579 H   0  0  0  0  0  0  0  0  0  0  0  0
    2.1200    3.2011   -0.8411 H   0  0  0  0  0  0  0  0  0  0  0  0
    2.2826    1.9263   -2.0360 H   0  0  0  0  0  0  0  0  0  0  0  0
    1.6950    1.4186    0.9031 H   0  0  0  0  0  0  0  0  0  0  0  0
    1.6060   -0.3324   -1.5754 H   0  0  0  0  0  0  0  0  0  0  0  0
   -0.1535    1.1979   -1.4848 H   0  0  0  0  0  0  0  0  0  0  0  0
   -1.1936   -1.5855    0.6105 H   0  0  0  0  0  0  0  0  0  0  0  0
   -0.8341   -1.0454   -1.0199 H   0  0  0  0  0  0  0  0  0  0  0  0
    1.0758   -2.2207   -0.1355 H   0  0  0  0  0  0  0  0  0  0  0  0
    1.1563   -1.2264    1.2954 H   0  0  0  0  0  0  0  0  0  0  0  0
   -0.1758    3.3368    0.6679 H   0  0  0  0  0  0  0  0  0  0  0  0
   -0.3480    3.5383   -1.0644 H   0  0  0  0  0  0  0  0  0  0  0  0
   -2.4815    3.1023    0.8076 H   0  0  0  0  0  0  0  0  0  0  0  0
   -2.6610    3.0476   -0.9267 H   0  0  0  0  0  0  0  0  0  0  0  0
   -2.3664    0.7853   -1.1132 H   0  0  0  0  0  0  0  0  0  0  0  0
   -0.8587    1.8099    2.2073 H   0  0  0  0  0  0  0  0  0  0  0  0
   -1.4268    0.1611    2.4656 H   0  0  0  0  0  0  0  0  0  0  0  0
    0.2799    0.4854    2.2439 H   0  0  0  0  0  0  0  0  0  0  0  0
   -4.7453    1.9023    1.6922 H   0  0  0  0  0  0  0  0  0  0  0  0
   -4.8149   -2.0047   -1.6525 C   0  0  0  0  0  0  0  0  0  0  0  0
   -4.1734    0.4857    2.5859 H   0  0  0  0  0  0  0  0  0  0  0  0
    7.5576   -2.2017    0.2582 H   0  0  0  0  0  0  0  0  0  0  0  0
   -5.6017   -0.5274    0.5414 C   0  0  0  0  0  0  0  0  0  0  0  0
   -6.4656   -1.4470   -0.0339 C   0  0  0  0  0  0  0  0  0  0  0  0
   -6.0912   -2.1968   -1.1391 C   0  0  0  0  0  0  0  0  0  0  0  0
   -3.9371   -1.0960   -1.0860 C   0  0  0  0  0  0  0  0  0  0  0  0
   -5.9580    0.0348    1.3925 H   0  0  0  0  0  0  0  0  0  0  0  0
   -7.4537   -1.5671    0.3932 H   0  0  0  0  0  0  0  0  0  0  0  0
   -6.7691   -2.9126   -1.5842 H   0  0  0  0  0  0  0  0  0  0  0  0
   -2.9489   -1.0183   -1.5134 H   0  0  0  0  0  0  0  0  0  0  0  0
   -3.0880    1.8147    2.2699 H   0  0  0  0  0  0  0  0  0  0  0  0
   -4.4826   -2.5794   -2.5085 H   0  0  0  0  0  0  0  0  0  0  0  0
 15 16  1  0
 15 11  1  0
 16 17  1  0
  8  7  1  0
  8  9  1  0
  7  4  1  0
 11  9  1  0
 11 12  1  0
 17 12  1  0
 17 18  1  0
 12 19  1  1
  9 10  1  0
 20 18  1  0
 12 13  1  0
  4  3  2  0
  4  5  1  0
  3  2  1  0
 10  5  1  0
 10 14  1  0
 13 14  1  0
  5  6  2  0
  2 22  1  0
  2  1  2  0
  6  1  1  0
  1 23  1  0
  3 24  1  0
  6 25  1  0
  7 26  1  0
  7 27  1  0
  8 28  1  0
  8 29  1  0
  9 30  1  1
 10 31  1  6
 11 32  1  6
 13 33  1  0
 13 34  1  0
 14 35  1  0
 14 36  1  0
 15 37  1  0
 15 38  1  0
 16 39  1  0
 16 40  1  0
 17 41  1  6
 19 42  1  0
 19 43  1  0
 19 44  1  0
 20 45  1  0
 20 47  1  0
 22 48  1  0
 21 49  1  0
 49 50  2  0
 50 51  1  0
 51 46  2  0
 46 52  1  0
 52 21  2  0
 18 21  1  0
 49 53  1  0
 50 54  1  0
 51 55  1  0
 52 56  1  0
 20 57  1  0
 46 58  1  0
M  END
