
     RDKit          3D

 50 54  0  0  0  0  0  0  0  0999 V2000
    8.6364    1.7135    0.1286 C   0  0  0  0  0  0  0  0  0  0  0  0
    7.1686   -0.0502   -0.5571 C   0  0  0  0  0  0  0  0  0  0  0  0
    5.9170   -0.8343   -0.2089 C   0  0  0  0  0  0  0  0  0  0  0  0
    5.0104    1.1371    0.8176 C   0  0  0  0  0  0  0  0  0  0  0  0
    6.2716    1.8931    0.4512 C   0  0  0  0  0  0  0  0  0  0  0  0
    3.4967   -0.5443   -0.0726 C   0  0  0  0  0  0  0  0  0  0  0  0
   -1.0059   -0.7521   -0.0486 C   0  0  0  0  0  0  0  0  0  0  0  0
   -0.3761   -1.9550   -0.0172 N   0  0  0  0  0  0  0  0  0  0  0  0
    2.0843   -2.5495   -0.0087 C   0  0  0  0  0  0  0  0  0  0  0  0
    3.3330   -1.9465   -0.0166 C   0  0  0  0  0  0  0  0  0  0  0  0
   -2.4510   -0.6071   -0.0291 C   0  0  0  0  0  0  0  0  0  0  0  0
   -3.0481    0.6666   -0.0335 C   0  0  0  0  0  0  0  0  0  0  0  0
   -5.2460    1.9568    0.0025 C   0  0  0  0  0  0  0  0  0  0  0  0
   -6.6150    2.0020    0.0399 C   0  0  0  0  0  0  0  0  0  0  0  0
   -7.3193    0.7999    0.0761 C   0  0  0  0  0  0  0  0  0  0  0  0
    7.4107    1.0017    0.4071 N   0  0  0  0  0  0  0  0  0  0  0  0
    4.7698    0.0452   -0.1161 N   0  0  0  0  0  0  0  0  0  0  0  0
    2.3605    0.2672   -0.1100 C   0  0  0  0  0  0  0  0  0  0  0  0
    1.1050   -0.3286   -0.0747 C   0  0  0  0  0  0  0  0  0  0  0  0
   -0.1387    0.2473   -0.0870 N   0  0  0  0  0  0  0  0  0  0  0  0
    0.9736   -1.7239   -0.0305 C   0  0  0  0  0  0  0  0  0  0  0  0
   -2.3016    1.7627   -0.0661 N   0  0  0  0  0  0  0  0  0  0  0  0
   -4.5029    0.7650    0.0003 C   0  0  0  0  0  0  0  0  0  0  0  0
   -4.6029    3.1354   -0.0341 F   0  0  0  0  0  0  0  0  0  0  0  0
   -6.6530   -0.4021    0.0738 C   0  0  0  0  0  0  0  0  0  0  0  0
   -5.2549   -0.4218    0.0358 C   0  0  0  0  0  0  0  0  0  0  0  0
   -4.6095   -1.6205    0.0348 N   0  0  0  0  0  0  0  0  0  0  0  0
   -3.2544   -1.8018    0.0055 C   0  0  0  0  0  0  0  0  0  0  0  0
    8.6337    2.2141   -0.8526 H   0  0  0  0  0  0  0  0  0  0  0  0
    8.8062    2.4764    0.8900 H   0  0  0  0  0  0  0  0  0  0  0  0
    9.4835    1.0261    0.1487 H   0  0  0  0  0  0  0  0  0  0  0  0
    8.0171   -0.7383   -0.5603 H   0  0  0  0  0  0  0  0  0  0  0  0
    7.0727    0.3509   -1.5817 H   0  0  0  0  0  0  0  0  0  0  0  0
    5.7496   -1.5706   -0.9963 H   0  0  0  0  0  0  0  0  0  0  0  0
    6.0875   -1.3888    0.7274 H   0  0  0  0  0  0  0  0  0  0  0  0
    5.0963    0.7584    1.8475 H   0  0  0  0  0  0  0  0  0  0  0  0
    4.1783    1.8374    0.8008 H   0  0  0  0  0  0  0  0  0  0  0  0
    6.1194    2.4080   -0.5138 H   0  0  0  0  0  0  0  0  0  0  0  0
    6.4458    2.6645    1.2047 H   0  0  0  0  0  0  0  0  0  0  0  0
   -0.8722   -2.8348    0.0156 H   0  0  0  0  0  0  0  0  0  0  0  0
    1.9966   -3.6274    0.0285 H   0  0  0  0  0  0  0  0  0  0  0  0
    4.1971   -2.5930    0.0282 H   0  0  0  0  0  0  0  0  0  0  0  0
   -7.1250    2.9555    0.0407 H   0  0  0  0  0  0  0  0  0  0  0  0
   -8.3999    0.8164    0.1060 H   0  0  0  0  0  0  0  0  0  0  0  0
    2.4393    1.3445   -0.1785 H   0  0  0  0  0  0  0  0  0  0  0  0
   -2.6976    2.6828   -0.0571 H   0  0  0  0  0  0  0  0  0  0  0  0
   -1.2886    1.6449   -0.0850 H   0  0  0  0  0  0  0  0  0  0  0  0
   -7.1991   -1.3358    0.1037 H   0  0  0  0  0  0  0  0  0  0  0  0
   -5.1694   -2.4616    0.0617 H   0  0  0  0  0  0  0  0  0  0  0  0
   -2.8179   -2.9565    0.0114 O   0  0  0  0  0  0  0  0  0  0  0  0
  3  2  1  0
  3 17  1  0
  2 16  1  0
 24 13  1  0
 16  1  1  0
 16  5  1  0
 17  4  1  0
 17  6  1  0
 22 12  1  0
  4  5  1  0
 18  6  2  0
 18 19  1  0
  6 10  1  0
 13 14  2  0
 13 23  1  0
 20 19  1  0
 20  7  2  0
 19 21  2  0
 14 15  1  0
 12 23  1  0
 12 11  2  0
 10  9  2  0
 23 26  2  0
  7 11  1  0
  7  8  1  0
 21  9  1  0
 21  8  1  0
 11 28  1  0
 15 25  2  0
 26 25  1  0
 26 27  1  0
 28 27  1  0
 28 50  2  0
  1 29  1  0
  1 30  1  0
  1 31  1  0
  2 32  1  0
  2 33  1  0
  3 34  1  0
  3 35  1  0
  4 36  1  0
  4 37  1  0
  5 38  1  0
  5 39  1  0
  8 40  1  0
  9 41  1  0
 10 42  1  0
 14 43  1  0
 15 44  1  0
 18 45  1  0
 22 46  1  0
 22 47  1  0
 25 48  1  0
 27 49  1  0
M  END
