
     RDKit          3D

 48 50  0  0  0  0  0  0  0  0999 V2000
    0.0822   -2.8117    4.2899 C   0  0  2  0  0  0  0  0  0  0  0  0
    1.0465   -3.9508    3.9459 C   0  0  0  0  0  0  0  0  0  0  0  0
    0.6021   -5.0915    3.8244 O   0  0  0  0  0  0  0  0  0  0  0  0
    3.2587   -4.7019    3.2716 C   0  0  0  0  0  0  0  0  0  0  0  0
    4.5394   -3.9311    2.9794 C   0  0  0  0  0  0  0  0  0  0  0  0
    4.4822   -2.7824    3.9798 C   0  0  0  0  0  0  0  0  0  0  0  0
    3.0088   -2.3928    3.9700 C   0  0  0  0  0  0  0  0  0  0  0  0
    0.1603   -3.5668    6.6370 C   0  0  0  0  0  0  0  0  0  0  0  0
    1.6823   -3.7420    8.0378 C   0  0  0  0  0  0  0  0  0  0  0  0
    2.9592   -3.5259    8.7176 C   0  0  0  0  0  0  0  0  0  0  0  0
    3.2690   -4.2057    9.8947 C   0  0  0  0  0  0  0  0  0  0  0  0
    4.4803   -3.9865   10.5257 C   0  0  0  0  0  0  0  0  0  0  0  0
    5.0894   -2.4035    8.7996 C   0  0  0  0  0  0  0  0  0  0  0  0
    3.8731   -2.6255    8.1765 C   0  0  0  0  0  0  0  0  0  0  0  0
   -0.7510   -3.1953    5.5227 C   0  0  1  0  0  0  0  0  0  0  0  0
    2.3309   -3.6644    3.7180 N   0  0  0  0  0  0  0  0  0  0  0  0
   -0.8039   -2.5294    3.1761 N   0  0  0  0  0  0  0  0  0  0  0  0
    1.3294   -3.0860    6.8965 N   0  0  0  0  0  0  0  0  0  0  0  0
    0.7786   -4.5755    8.4575 N   0  0  0  0  0  0  0  0  0  0  0  0
   -0.2225   -4.4634    7.5369 O   0  0  0  0  0  0  0  0  0  0  0  0
    5.3820   -3.0892    9.9683 C   0  0  0  0  0  0  0  0  0  0  0  0
    6.9405   -2.8035   10.7743 S   0  0  1  0  0  0  0  0  0  0  0  0
    7.4300   -1.4906   10.3607 O   0  0  0  0  0  0  0  0  0  0  0  0
    6.7725   -3.0742   12.1999 O   0  0  0  0  0  0  0  0  0  0  0  0
    8.0052   -4.0468   10.0831 C   0  0  0  0  0  0  0  0  0  0  0  0
   -1.6710   -2.0562    5.9690 C   0  0  0  0  0  0  0  0  0  0  0  0
    0.6179   -1.8903    4.5192 H   0  0  0  0  0  0  0  0  0  0  0  0
    4.5216   -3.5419    1.9590 H   0  0  0  0  0  0  0  0  0  0  0  0
    4.7678   -3.1358    4.9736 H   0  0  0  0  0  0  0  0  0  0  0  0
    2.6931   -1.9597    4.9178 H   0  0  0  0  0  0  0  0  0  0  0  0
    2.5654   -4.9027   10.3291 H   0  0  0  0  0  0  0  0  0  0  0  0
    4.7081   -4.5094   11.4446 H   0  0  0  0  0  0  0  0  0  0  0  0
    5.7891   -1.6990    8.3718 H   0  0  0  0  0  0  0  0  0  0  0  0
    3.6326   -2.0886    7.2695 H   0  0  0  0  0  0  0  0  0  0  0  0
   -1.3623   -4.0686    5.2804 H   0  0  0  0  0  0  0  0  0  0  0  0
   -1.1882   -3.3912    2.8072 H   0  0  0  0  0  0  0  0  0  0  0  0
   -0.2889   -2.0931    2.4223 H   0  0  0  0  0  0  0  0  0  0  0  0
    8.0546   -3.9201    9.0041 H   0  0  0  0  0  0  0  0  0  0  0  0
    8.9929   -3.9075   10.5223 H   0  0  0  0  0  0  0  0  0  0  0  0
    7.6210   -5.0328   10.3337 H   0  0  0  0  0  0  0  0  0  0  0  0
   -1.0958   -1.1709    6.2427 H   0  0  0  0  0  0  0  0  0  0  0  0
   -2.2743   -2.3510    6.8270 H   0  0  0  0  0  0  0  0  0  0  0  0
   -2.3424   -1.7926    5.1553 H   0  0  0  0  0  0  0  0  0  0  0  0
    3.4106   -5.4426    4.0621 H   0  0  0  0  0  0  0  0  0  0  0  0
    5.4267   -4.5541    3.0833 H   0  0  0  0  0  0  0  0  0  0  0  0
    5.1293   -1.9452    3.7220 H   0  0  0  0  0  0  0  0  0  0  0  0
    2.8013   -1.6726    3.1735 H   0  0  0  0  0  0  0  0  0  0  0  0
    2.8691   -5.2250    2.3980 H   0  0  0  0  0  0  0  0  0  0  0  0
  1  2  1  0
  1 15  1  0
  1 17  1  0
  1 27  1  1
  2  3  2  0
  2 16  1  0
  4  5  1  0
  4 16  1  0
  4 48  1  0
  5  6  1  0
  5 28  1  0
  6  7  1  0
  6 29  1  0
  7 16  1  0
  7 30  1  0
  8 15  1  0
  8 18  2  0
  8 20  1  0
  9 10  1  0
  9 18  1  0
  9 19  2  0
 10 11  2  0
 10 14  1  0
 11 12  1  0
 11 31  1  0
 12 21  2  0
 12 32  1  0
 13 14  2  0
 13 21  1  0
 13 33  1  0
 14 34  1  0
 15 26  1  0
 15 35  1  6
 17 36  1  0
 17 37  1  0
 19 20  1  0
 21 22  1  0
 22 23  2  0
 22 24  2  0
 22 25  1  6
 25 38  1  0
 25 39  1  0
 25 40  1  0
 26 41  1  0
 26 42  1  0
 26 43  1  0
  4 44  1  0
  5 45  1  0
  6 46  1  0
  7 47  1  0
M  END
