
     RDKit          3D

 29 28  0  0  0  0  0  0  0  0999 V2000
    1.6353   -2.6252    0.7664 O   0  0  0  0  0  0  0  0  0  0  0  0
    1.6283   -1.8063   -0.1186 C   0  0  0  0  0  0  0  0  0  0  0  0
    2.4923   -1.8134   -1.1262 O   0  0  0  0  0  0  0  0  0  0  0  0
    0.6641   -0.6439   -0.1916 C   0  0  2  0  0  0  0  0  0  0  0  0
    1.1306    0.4502    0.7723 C   0  0  0  0  0  0  0  0  0  0  0  0
    2.9175    1.1335    0.2895 Se  0  0  0  0  0  0  0  0  0  0  0  0
   -0.7573   -1.1020    0.1633 C   0  0  0  0  0  0  0  0  0  0  0  0
   -1.8248   -0.0832   -0.2190 C   0  0  0  0  0  0  0  0  0  0  0  0
   -3.2258   -0.5292    0.1792 C   0  0  0  0  0  0  0  0  0  0  0  0
   -4.3057    0.4547   -0.2511 C   0  0  0  0  0  0  0  0  0  0  0  0
   -5.7001    0.0220    0.1746 C   0  0  0  0  0  0  0  0  0  0  0  0
   -6.7045    0.9801   -0.2669 N   0  0  0  0  0  0  0  0  0  0  0  0
    3.1178   -2.5478   -1.0255 H   0  0  0  0  0  0  0  0  0  0  0  0
    0.6624   -0.2474   -1.2109 H   0  0  0  0  0  0  0  0  0  0  0  0
    0.4336    1.2863    0.7440 H   0  0  0  0  0  0  0  0  0  0  0  0
    1.1603    0.0634    1.7919 H   0  0  0  0  0  0  0  0  0  0  0  0
    2.9191    2.1740    1.3050 H   0  0  0  0  0  0  0  0  0  0  0  0
   -0.9740   -2.0393   -0.3574 H   0  0  0  0  0  0  0  0  0  0  0  0
   -0.8147   -1.3236    1.2328 H   0  0  0  0  0  0  0  0  0  0  0  0
   -1.6162    0.8855    0.2447 H   0  0  0  0  0  0  0  0  0  0  0  0
   -1.7871    0.0834   -1.3005 H   0  0  0  0  0  0  0  0  0  0  0  0
   -3.4339   -1.5124   -0.2567 H   0  0  0  0  0  0  0  0  0  0  0  0
   -3.2673   -0.6641    1.2655 H   0  0  0  0  0  0  0  0  0  0  0  0
   -4.0954    1.4448    0.1657 H   0  0  0  0  0  0  0  0  0  0  0  0
   -4.2771    0.5663   -1.3410 H   0  0  0  0  0  0  0  0  0  0  0  0
   -5.8816   -1.0004   -0.1885 H   0  0  0  0  0  0  0  0  0  0  0  0
   -5.7388   -0.0317    1.2663 H   0  0  0  0  0  0  0  0  0  0  0  0
   -6.7791    0.9414   -1.2762 H   0  0  0  0  0  0  0  0  0  0  0  0
   -7.6128    0.7004    0.0809 H   0  0  0  0  0  0  0  0  0  0  0  0
 10  9  1  0
 10 11  1  0
  9  8  1  0
 12 11  1  0
  8  7  1  0
  7  4  1  0
  4  5  1  0
  4  2  1  0
  5  6  1  0
  2  1  2  0
  2  3  1  0
  3 13  1  0
  4 14  1  6
  5 15  1  0
  5 16  1  0
  6 17  1  0
  7 18  1  0
  7 19  1  0
  8 20  1  0
  8 21  1  0
  9 22  1  0
  9 23  1  0
 10 24  1  0
 10 25  1  0
 11 26  1  0
 11 27  1  0
 12 28  1  0
 12 29  1  0
M  END
