
     RDKit          3D

 35 36  0  0  0  0  0  0  0  0999 V2000
   -4.0308    0.1626    1.8755 C   0  0  0  0  0  0  0  0  0  0  0  0
   -3.4130   -1.0683    2.0484 C   0  0  0  0  0  0  0  0  0  0  0  0
   -2.3543   -1.4351    1.2282 C   0  0  0  0  0  0  0  0  0  0  0  0
   -1.9085   -0.5819    0.2251 C   0  0  0  0  0  0  0  0  0  0  0  0
   -2.5349    0.6493    0.0519 C   0  0  0  0  0  0  0  0  0  0  0  0
   -3.5880    1.0200    0.8761 C   0  0  0  0  0  0  0  0  0  0  0  0
   -0.7910   -1.0214   -0.6883 C   0  0  1  0  0  0  0  0  0  0  0  0
   -1.3168   -1.5533   -2.0125 C   0  0  0  0  0  0  0  0  0  0  0  0
   -0.2336   -2.1429   -2.9067 C   0  0  0  0  0  0  0  0  0  0  0  0
   -0.8268   -2.6727   -4.1263 N   0  0  0  0  0  0  0  0  0  0  0  0
    0.0754    0.0709   -1.0040 O   0  0  0  0  0  0  0  0  0  0  0  0
    0.8838    0.5849   -0.0804 C   0  0  0  0  0  0  0  0  0  0  0  0
    1.0167    0.1146    1.2222 C   0  0  0  0  0  0  0  0  0  0  0  0
    1.9096    0.7447    2.0749 C   0  0  0  0  0  0  0  0  0  0  0  0
    2.6783    1.8315    1.6842 C   0  0  0  0  0  0  0  0  0  0  0  0
    2.5412    2.2969    0.3905 C   0  0  0  0  0  0  0  0  0  0  0  0
    1.6536    1.6857   -0.4905 C   0  0  0  0  0  0  0  0  0  0  0  0
    1.5147    2.1671   -1.8219 C   0  0  0  0  0  0  0  0  0  0  0  0
    1.4151    2.5688   -2.8976 N   0  0  0  0  0  0  0  0  0  0  0  0
    2.0597    0.1485    3.6876 Cl  0  0  0  0  0  0  0  0  0  0  0  0
   -4.8520    0.4549    2.5171 H   0  0  0  0  0  0  0  0  0  0  0  0
   -3.7504   -1.7416    2.8257 H   0  0  0  0  0  0  0  0  0  0  0  0
   -4.0636    1.9822    0.7370 H   0  0  0  0  0  0  0  0  0  0  0  0
   -1.8699   -2.3942    1.3741 H   0  0  0  0  0  0  0  0  0  0  0  0
   -2.2022    1.3292   -0.7227 H   0  0  0  0  0  0  0  0  0  0  0  0
   -0.2087   -1.8141   -0.2006 H   0  0  0  0  0  0  0  0  0  0  0  0
   -2.0551   -2.3270   -1.7901 H   0  0  0  0  0  0  0  0  0  0  0  0
   -1.8511   -0.7522   -2.5350 H   0  0  0  0  0  0  0  0  0  0  0  0
    0.5449   -1.3917   -3.0894 H   0  0  0  0  0  0  0  0  0  0  0  0
    0.2497   -2.9676   -2.3754 H   0  0  0  0  0  0  0  0  0  0  0  0
   -1.1706   -1.9034   -4.6886 H   0  0  0  0  0  0  0  0  0  0  0  0
   -0.1039   -3.1095   -4.6837 H   0  0  0  0  0  0  0  0  0  0  0  0
    0.4410   -0.7258    1.5813 H   0  0  0  0  0  0  0  0  0  0  0  0
    3.3660    2.3045    2.3696 H   0  0  0  0  0  0  0  0  0  0  0  0
    3.1250    3.1436    0.0569 H   0  0  0  0  0  0  0  0  0  0  0  0
  1  2  2  0
  1  6  1  0
  2  3  1  0
  3  4  2  0
  4  5  1  0
  4  7  1  0
  5  6  2  0
  7  8  1  0
  7 11  1  0
  8  9  1  0
  9 10  1  0
 11 12  1  0
 12 13  2  0
 12 17  1  0
 13 14  1  0
 14 15  2  0
 14 20  1  0
 15 16  1  0
 16 17  2  0
 17 18  1  0
 18 19  3  0
  1 21  1  0
  2 22  1  0
  6 23  1  0
  3 24  1  0
  5 25  1  0
  7 26  1  1
  8 27  1  0
  8 28  1  0
  9 29  1  0
  9 30  1  0
 10 31  1  0
 10 32  1  0
 13 33  1  0
 15 34  1  0
 16 35  1  0
M  END
