
     RDKit          3D

 44 46  0  0  0  0  0  0  0  0999 V2000
    3.9994   -0.3804   -1.2186 O   0  0  0  0  0  0  0  0  0  0  0  0
    3.7742    0.4106   -0.3231 C   0  0  0  0  0  0  0  0  0  0  0  0
    4.6316    1.3892    0.0512 N   0  0  0  0  0  0  0  0  0  0  0  0
    5.9332    1.5467   -0.5643 C   0  0  0  0  0  0  0  0  0  0  0  0
    6.5069    2.9123   -0.2381 C   0  0  0  0  0  0  0  0  0  0  0  0
    2.5916    0.4261    0.4003 N   0  0  0  0  0  0  0  0  0  0  0  0
    1.5823   -0.5227    0.2674 C   0  0  0  0  0  0  0  0  0  0  0  0
    0.2679   -0.1258    0.2311 C   0  0  0  0  0  0  0  0  0  0  0  0
   -0.7532   -1.0939    0.1884 C   0  0  0  0  0  0  0  0  0  0  0  0
   -2.1408   -0.7694    0.1590 C   0  0  0  0  0  0  0  0  0  0  0  0
   -3.0463   -1.7917    0.0391 C   0  0  0  0  0  0  0  0  0  0  0  0
   -2.6470   -3.1389   -0.0270 C   0  0  0  0  0  0  0  0  0  0  0  0
   -1.3254   -3.4947    0.0212 C   0  0  0  0  0  0  0  0  0  0  0  0
   -0.9111   -4.9334   -0.0349 C   0  0  0  0  0  0  0  0  0  0  0  0
   -0.3604   -2.4548    0.1229 C   0  0  0  0  0  0  0  0  0  0  0  0
    1.0268   -2.7211    0.1545 C   0  0  0  0  0  0  0  0  0  0  0  0
    1.9585   -1.8122    0.2420 N   0  0  0  0  0  0  0  0  0  0  0  0
   -2.6189    0.6238    0.2512 C   0  0  0  0  0  0  0  0  0  0  0  0
   -2.2688    1.4565    1.3110 C   0  0  0  0  0  0  0  0  0  0  0  0
   -2.7837    2.7408    1.3425 C   0  0  0  0  0  0  0  0  0  0  0  0
   -3.5979    3.2340    0.4192 N   0  0  0  0  0  0  0  0  0  0  0  0
   -3.9464    2.4483   -0.5962 C   0  0  0  0  0  0  0  0  0  0  0  0
   -4.8494    3.0407   -1.6343 C   0  0  0  0  0  0  0  0  0  0  0  0
   -3.4782    1.1433   -0.7107 C   0  0  0  0  0  0  0  0  0  0  0  0
    4.5064    1.8155    0.9546 H   0  0  0  0  0  0  0  0  0  0  0  0
    6.6223    0.7635   -0.2338 H   0  0  0  0  0  0  0  0  0  0  0  0
    5.8232    1.4391   -1.6428 H   0  0  0  0  0  0  0  0  0  0  0  0
    7.4823    3.0311   -0.7068 H   0  0  0  0  0  0  0  0  0  0  0  0
    5.8581    3.7098   -0.5994 H   0  0  0  0  0  0  0  0  0  0  0  0
    6.6447    3.0452    0.8363 H   0  0  0  0  0  0  0  0  0  0  0  0
    2.3107    1.3060    0.8009 H   0  0  0  0  0  0  0  0  0  0  0  0
    0.0253    0.9280    0.2180 H   0  0  0  0  0  0  0  0  0  0  0  0
   -4.1053   -1.5669    0.0192 H   0  0  0  0  0  0  0  0  0  0  0  0
   -3.4104   -3.9015   -0.1072 H   0  0  0  0  0  0  0  0  0  0  0  0
   -0.3861   -5.2378    0.8719 H   0  0  0  0  0  0  0  0  0  0  0  0
   -1.7773   -5.5821   -0.1449 H   0  0  0  0  0  0  0  0  0  0  0  0
   -0.2434   -5.1303   -0.8746 H   0  0  0  0  0  0  0  0  0  0  0  0
    1.3742   -3.7482    0.1180 H   0  0  0  0  0  0  0  0  0  0  0  0
   -1.6299    1.1111    2.1124 H   0  0  0  0  0  0  0  0  0  0  0  0
   -2.5271    3.4029    2.1618 H   0  0  0  0  0  0  0  0  0  0  0  0
   -4.2818    3.6757   -2.3172 H   0  0  0  0  0  0  0  0  0  0  0  0
   -5.3417    2.2743   -2.2307 H   0  0  0  0  0  0  0  0  0  0  0  0
   -5.6133    3.6626   -1.1707 H   0  0  0  0  0  0  0  0  0  0  0  0
   -3.7767    0.5368   -1.5568 H   0  0  0  0  0  0  0  0  0  0  0  0
 14 13  1  0
 16 17  1  0
 16 15  2  0
 17  7  2  0
  6  7  1  0
  6  2  1  0
 13 15  1  0
 13 12  2  0
 15  9  1  0
  7  8  1  0
  5  4  1  0
  3  2  1  0
  3  4  1  0
  2  1  2  0
 12 11  1  0
  8  9  2  0
  9 10  1  0
 11 10  2  0
 10 18  1  0
 18 19  2  0
 18 24  1  0
 19 20  1  0
 24 22  2  0
 20 21  2  0
 22 21  1  0
 22 23  1  0
  3 25  1  0
  4 26  1  0
  4 27  1  0
  5 28  1  0
  5 29  1  0
  5 30  1  0
  6 31  1  0
  8 32  1  0
 11 33  1  0
 12 34  1  0
 14 35  1  0
 14 36  1  0
 14 37  1  0
 16 38  1  0
 19 39  1  0
 20 40  1  0
 23 41  1  0
 23 42  1  0
 23 43  1  0
 24 44  1  0
M  END
