
     RDKit          3D

 50 53  0  0  0  0  0  0  0  0999 V2000
   -1.3499    0.3561    2.0821 O   0  0  0  0  0  0  0  0  0  0  0  0
   -1.5345    0.6087    0.9093 C   0  0  0  0  0  0  0  0  0  0  0  0
   -2.7625    1.2369    0.4206 C   0  0  0  0  0  0  0  0  0  0  0  0
   -3.8023    1.5205    1.3075 C   0  0  0  0  0  0  0  0  0  0  0  0
   -2.8867    1.5499   -0.9280 C   0  0  0  0  0  0  0  0  0  0  0  0
   -1.8377    1.2730   -1.7708 N   0  0  0  0  0  0  0  0  0  0  0  0
   -4.0548    2.1468   -1.4031 C   0  0  0  0  0  0  0  0  0  0  0  0
   -5.0833    2.4242   -0.5279 C   0  0  0  0  0  0  0  0  0  0  0  0
   -4.9409    2.1064    0.8175 C   0  0  0  0  0  0  0  0  0  0  0  0
   -5.9508    2.3838    1.6547 F   0  0  0  0  0  0  0  0  0  0  0  0
   -0.5937    0.2945   -0.0615 N   0  0  0  0  0  0  0  0  0  0  0  0
   -0.6737    0.6897   -1.3924 C   0  0  0  0  0  0  0  0  0  0  0  0
    0.2471    0.5122   -2.1625 O   0  0  0  0  0  0  0  0  0  0  0  0
    0.6478   -0.3539    0.3437 C   0  0  2  0  0  0  0  0  0  0  0  0
    1.7705    0.6811    0.2081 C   0  0  0  0  0  0  0  0  0  0  0  0
    3.0192    0.1523    0.0467 N   0  0  0  0  0  0  0  0  0  0  0  0
    4.1994    0.8620   -0.0296 C   0  0  0  0  0  0  0  0  0  0  0  0
    4.3193    2.1311   -0.2213 N   0  0  0  0  0  0  0  0  0  0  0  0
    5.6392    2.4896   -0.2464 C   0  0  0  0  0  0  0  0  0  0  0  0
    6.5346    1.4886   -0.0797 C   0  0  0  0  0  0  0  0  0  0  0  0
    5.6998    0.0013    0.1392 S   0  0  0  0  0  0  0  0  0  0  0  0
    1.5471    1.8640    0.3080 O   0  0  0  0  0  0  0  0  0  0  0  0
    0.8880   -1.7156   -0.3220 C   0  0  0  0  0  0  0  0  0  0  0  0
   -0.3174   -2.6555   -0.3321 C   0  0  1  0  0  0  0  0  0  0  0  0
   -0.0048   -3.8765   -1.1998 C   0  0  0  0  0  0  0  0  0  0  0  0
   -1.1628   -4.8678   -1.2350 C   0  0  0  0  0  0  0  0  0  0  0  0
   -1.5697   -5.2991    0.1695 C   0  0  0  0  0  0  0  0  0  0  0  0
   -1.8889   -4.0889    1.0397 C   0  0  0  0  0  0  0  0  0  0  0  0
   -0.7271   -3.1007    1.0721 C   0  0  0  0  0  0  0  0  0  0  0  0
   -3.7085    1.2805    2.3581 H   0  0  0  0  0  0  0  0  0  0  0  0
   -1.9012    1.5464   -2.7414 H   0  0  0  0  0  0  0  0  0  0  0  0
   -4.1543    2.3905   -2.4525 H   0  0  0  0  0  0  0  0  0  0  0  0
   -5.9942    2.8857   -0.8853 H   0  0  0  0  0  0  0  0  0  0  0  0
    0.5548   -0.5230    1.4190 H   0  0  0  0  0  0  0  0  0  0  0  0
    3.1007   -0.8522    0.0088 H   0  0  0  0  0  0  0  0  0  0  0  0
    5.9027    3.5259   -0.4007 H   0  0  0  0  0  0  0  0  0  0  0  0
    7.6113    1.5363   -0.0772 H   0  0  0  0  0  0  0  0  0  0  0  0
    1.2540   -1.5873   -1.3410 H   0  0  0  0  0  0  0  0  0  0  0  0
    1.6807   -2.2205    0.2409 H   0  0  0  0  0  0  0  0  0  0  0  0
   -1.1702   -2.1394   -0.7917 H   0  0  0  0  0  0  0  0  0  0  0  0
    0.2424   -3.5518   -2.2142 H   0  0  0  0  0  0  0  0  0  0  0  0
    0.8901   -4.3738   -0.8066 H   0  0  0  0  0  0  0  0  0  0  0  0
   -2.0204   -4.4014   -1.7326 H   0  0  0  0  0  0  0  0  0  0  0  0
   -0.8901   -5.7374   -1.8380 H   0  0  0  0  0  0  0  0  0  0  0  0
   -2.4284   -5.9736    0.1269 H   0  0  0  0  0  0  0  0  0  0  0  0
   -0.7512   -5.8667    0.6261 H   0  0  0  0  0  0  0  0  0  0  0  0
   -2.7804   -3.5865    0.6483 H   0  0  0  0  0  0  0  0  0  0  0  0
   -2.1354   -4.4056    2.0559 H   0  0  0  0  0  0  0  0  0  0  0  0
    0.1364   -3.5730    1.5564 H   0  0  0  0  0  0  0  0  0  0  0  0
   -0.9965   -2.2438    1.6936 H   0  0  0  0  0  0  0  0  0  0  0  0
 26 27  1  0
 26 25  1  0
 27 28  1  0
 10  9  1  0
 25 24  1  0
 28 29  1  0
  9  4  2  0
  9  8  1  0
  4  3  1  0
  8  7  2  0
 24 29  1  0
 24 23  1  0
  1  2  2  0
  3  2  1  0
  3  5  2  0
  7  5  1  0
  2 11  1  0
 23 14  1  0
  5  6  1  0
 11 14  1  0
 11 12  1  0
  6 12  1  0
 14 15  1  0
 12 13  2  0
 22 15  2  0
 15 16  1  0
 16 17  1  0
 17 21  1  0
 17 18  2  0
 21 20  1  0
 18 19  1  0
 20 19  2  0
  4 30  1  0
  6 31  1  0
  7 32  1  0
  8 33  1  0
 14 34  1  1
 16 35  1  0
 19 36  1  0
 20 37  1  0
 23 38  1  0
 23 39  1  0
 24 40  1  6
 25 41  1  0
 25 42  1  0
 26 43  1  0
 26 44  1  0
 27 45  1  0
 27 46  1  0
 28 47  1  0
 28 48  1  0
 29 49  1  0
 29 50  1  0
M  END
