
     RDKit          3D

 30 32  0  0  0  0  0  0  0  0999 V2000
    2.6441   -1.5059    0.0144 N   0  0  0  0  0  0  0  0  0  0  0  0
    2.9849    0.7074    0.0224 N   0  0  0  0  0  0  0  0  0  0  0  0
    3.5403   -0.5352    0.0128 C   0  0  0  0  0  0  0  0  0  0  0  0
    5.8277    0.3481    0.0010 C   0  0  0  0  0  0  0  0  0  0  0  0
    1.6152    0.5364    0.0239 C   0  0  0  0  0  0  0  0  0  0  0  0
    0.5670    1.4134    0.0257 C   0  0  0  0  0  0  0  0  0  0  0  0
   -0.7264    0.8662    0.0239 C   0  0  0  0  0  0  0  0  0  0  0  0
   -3.2141   -0.2789    0.0139 C   0  0  0  0  0  0  0  0  0  0  0  0
   -0.9413   -0.5336    0.0225 C   0  0  0  0  0  0  0  0  0  0  0  0
    0.1568   -1.4033    0.0215 C   0  0  0  0  0  0  0  0  0  0  0  0
    1.4350   -0.8715    0.0205 C   0  0  0  0  0  0  0  0  0  0  0  0
    4.8615   -0.7221    0.0026 N   0  0  0  0  0  0  0  0  0  0  0  0
   -1.8770    1.7465    0.0178 C   0  0  0  0  0  0  0  0  0  0  0  0
   -1.8403    2.9689    0.0179 O   0  0  0  0  0  0  0  0  0  0  0  0
   -3.0856    1.0875    0.0080 N   0  0  0  0  0  0  0  0  0  0  0  0
   -4.4673   -0.7565    0.0050 N   0  0  0  0  0  0  0  0  0  0  0  0
   -4.7497   -2.1695    0.0227 C   0  0  0  0  0  0  0  0  0  0  0  0
   -2.1991   -1.0820    0.0227 N   0  0  0  0  0  0  0  0  0  0  0  0
    5.7503    0.9711    0.8946 H   0  0  0  0  0  0  0  0  0  0  0  0
    6.8212   -0.0890   -0.0156 H   0  0  0  0  0  0  0  0  0  0  0  0
    0.7104    2.4860    0.0271 H   0  0  0  0  0  0  0  0  0  0  0  0
   -0.0069   -2.4733    0.0197 H   0  0  0  0  0  0  0  0  0  0  0  0
   -4.3167   -2.6777   -0.8395 H   0  0  0  0  0  0  0  0  0  0  0  0
   -4.3718   -2.6509    0.9262 H   0  0  0  0  0  0  0  0  0  0  0  0
    5.7287    0.9881   -0.8783 H   0  0  0  0  0  0  0  0  0  0  0  0
    5.1815   -1.6753   -0.0053 H   0  0  0  0  0  0  0  0  0  0  0  0
   -5.2404   -0.1151    0.0343 H   0  0  0  0  0  0  0  0  0  0  0  0
   -5.8279   -2.2968   -0.0096 H   0  0  0  0  0  0  0  0  0  0  0  0
   -3.9147    1.6670   -0.0064 H   0  0  0  0  0  0  0  0  0  0  0  0
    3.4747    1.5876    0.0088 H   0  0  0  0  0  0  0  0  0  0  0  0
  1 11  1  0
  2  5  1  0
  3  1  2  0
  3  2  1  0
  4 12  1  0
  4 19  1  0
  4 20  1  0
  4 25  1  0
  5  6  1  0
  6  7  2  0
  6 21  1  0
  7 13  1  0
  8 15  1  0
  8 16  1  0
  9  7  1  0
  9 18  1  0
 10  9  2  0
 10 22  1  0
 11  5  2  0
 11 10  1  0
 12  3  1  0
 12 26  1  0
 13 14  2  0
 13 15  1  0
 15 29  1  0
 16 27  1  0
 17 16  1  0
 17 23  1  0
 17 24  1  0
 17 28  1  0
 18  8  2  0
  2 30  1  0
M  END
