
     RDKit          3D

 22 23  0  0  0  0  0  0  0  0999 V2000
   -3.0513   -0.2366    0.9002 C   0  0  0  0  0  0  0  0  0  0  0  0
   -3.9578    0.7428    0.5305 C   0  0  0  0  0  0  0  0  0  0  0  0
   -3.7630    1.5893   -0.4744 N   0  0  0  0  0  0  0  0  0  0  0  0
   -2.6289    1.4758   -1.1525 C   0  0  0  0  0  0  0  0  0  0  0  0
   -1.6475    0.5359   -0.8730 C   0  0  0  0  0  0  0  0  0  0  0  0
   -1.8668   -0.3407    0.1775 C   0  0  0  0  0  0  0  0  0  0  0  0
   -0.7330   -1.5925    0.7109 S   0  0  0  0  0  0  0  0  0  0  0  0
    0.7636   -1.5843   -0.6714 S   0  0  0  0  0  0  0  0  0  0  0  0
    1.8829   -0.3193   -0.1382 C   0  0  0  0  0  0  0  0  0  0  0  0
    1.6512    0.5572    0.9099 C   0  0  0  0  0  0  0  0  0  0  0  0
    2.6218    1.5078    1.1903 C   0  0  0  0  0  0  0  0  0  0  0  0
    3.7569    1.6316    0.5154 N   0  0  0  0  0  0  0  0  0  0  0  0
    3.9635    0.7854   -0.4871 C   0  0  0  0  0  0  0  0  0  0  0  0
    3.0682   -0.2044   -0.8576 C   0  0  0  0  0  0  0  0  0  0  0  0
   -3.2745   -0.8948    1.7301 H   0  0  0  0  0  0  0  0  0  0  0  0
   -4.8883    0.8405    1.0781 H   0  0  0  0  0  0  0  0  0  0  0  0
   -2.4797    2.1710   -1.9709 H   0  0  0  0  0  0  0  0  0  0  0  0
   -0.7494    0.5005   -1.4740 H   0  0  0  0  0  0  0  0  0  0  0  0
    0.7514    0.5141    1.5077 H   0  0  0  0  0  0  0  0  0  0  0  0
    2.4629    2.2036    2.0063 H   0  0  0  0  0  0  0  0  0  0  0  0
    4.8943    0.8919   -1.0325 H   0  0  0  0  0  0  0  0  0  0  0  0
    3.3008   -0.8619   -1.6854 H   0  0  0  0  0  0  0  0  0  0  0  0
  1  2  2  0
  1  6  1  0
  1 15  1  0
  2  3  1  0
  2 16  1  0
  3  4  2  0
  4  5  1  0
  4 17  1  0
  5  6  2  0
  5 18  1  0
  6  7  1  0
  7  8  1  0
  8  9  1  0
  9 10  2  0
  9 14  1  0
 10 11  1  0
 10 19  1  0
 11 12  2  0
 11 20  1  0
 12 13  1  0
 13 14  2  0
 13 21  1  0
 14 22  1  0
M  END
