
     RDKit          3D

 38 38  0  0  0  0  0  0  0  0999 V2000
   19.8678   -6.6895   14.1625 C   0  0  0  0  0  0  0  0  0  0  0  0
   19.0775   -6.1163   15.3323 C   0  0  0  0  0  0  0  0  0  0  0  0
   19.3528   -6.3612   16.4874 O   0  0  0  0  0  0  0  0  0  0  0  0
   18.0295   -5.3276   14.9816 N   0  0  0  0  0  0  0  0  0  0  0  0
   17.1870   -4.7312   16.0174 C   0  0  0  0  0  0  0  0  0  0  0  0
   17.7594   -3.4251   16.5500 C   0  0  0  0  0  0  0  0  0  0  0  0
   16.7955   -2.7840   17.5436 C   0  0  0  0  0  0  0  0  0  0  0  0
   17.3550   -1.6116   18.1858 N   0  0  0  0  0  0  0  0  0  0  0  0
   18.0021   -1.6755   19.3455 C   0  0  0  0  0  0  0  0  0  0  0  0
   18.2070   -2.6739   20.0070 O   0  0  0  0  0  0  0  0  0  0  0  0
   18.4621   -0.3223   19.9177 C   0  0  2  0  0  0  0  0  0  0  0  0
   17.5929    0.0846   20.8453 F   0  0  0  0  0  0  0  0  0  0  0  0
   18.5485    0.6424   18.9965 F   0  0  0  0  0  0  0  0  0  0  0  0
   19.6530   -0.4427   20.4938 F   0  0  0  0  0  0  0  0  0  0  0  0
   17.7586   -4.9674   13.6371 C   0  0  0  0  0  0  0  0  0  0  0  0
   18.5375   -4.0115   12.9963 C   0  0  0  0  0  0  0  0  0  0  0  0
   18.2611   -3.6532   11.6883 C   0  0  0  0  0  0  0  0  0  0  0  0
   17.1920   -4.2528   11.0410 C   0  0  0  0  0  0  0  0  0  0  0  0
   16.9089   -3.8855    9.6587 N   0  0  0  0  0  0  0  0  0  0  0  0
   17.6175   -3.0586    9.1358 O   0  0  0  0  0  0  0  0  0  0  0  0
   15.9843   -4.4293    9.1047 O   0  0  0  0  0  0  0  0  0  0  0  0
   16.3932   -5.1966   11.6695 C   0  0  0  0  0  0  0  0  0  0  0  0
   16.6859   -5.5521   12.9729 C   0  0  0  0  0  0  0  0  0  0  0  0
   19.2114   -7.1818   13.4456 H   0  0  0  0  0  0  0  0  0  0  0  0
   20.4157   -5.9093   13.6362 H   0  0  0  0  0  0  0  0  0  0  0  0
   16.2036   -4.5589   15.5778 H   0  0  0  0  0  0  0  0  0  0  0  0
   17.0591   -5.4529   16.8241 H   0  0  0  0  0  0  0  0  0  0  0  0
   18.7197   -3.6095   17.0347 H   0  0  0  0  0  0  0  0  0  0  0  0
   17.9357   -2.7355   15.7194 H   0  0  0  0  0  0  0  0  0  0  0  0
   15.8791   -2.4797   17.0385 H   0  0  0  0  0  0  0  0  0  0  0  0
   16.5137   -3.4994   18.3163 H   0  0  0  0  0  0  0  0  0  0  0  0
   17.2995   -0.7247   17.7017 H   0  0  0  0  0  0  0  0  0  0  0  0
   19.3712   -3.5543   13.5109 H   0  0  0  0  0  0  0  0  0  0  0  0
   18.8745   -2.9132   11.1951 H   0  0  0  0  0  0  0  0  0  0  0  0
   15.5552   -5.6582   11.1681 H   0  0  0  0  0  0  0  0  0  0  0  0
   16.0818   -6.2932   13.4789 H   0  0  0  0  0  0  0  0  0  0  0  0
   21.0484   -7.8875   14.7304 Cl  0  0  0  0  0  0  0  0  0  0  0  0
    1.2054    2.6039    3.5910 H   0  0  0  0  0  0  0  0  0  0  0  0
 21 19  1  0
 20 19  2  0
 19 18  1  0
 18 22  2  0
 18 17  1  0
 22 23  1  0
 17 16  2  0
 23 15  2  0
  1  2  1  0
 16 15  1  0
 15  4  1  0
  2  4  1  0
  2  3  2  0
  4  5  1  0
  5  6  1  0
  6  7  1  0
 11 14  1  1
 10  9  2  0
  7  8  1  0
  9  8  1  0
  9 11  1  0
 13 11  1  0
 11 12  1  0
  1 24  1  0
  1 25  1  0
  5 26  1  0
  5 27  1  0
  6 28  1  0
  6 29  1  0
  7 30  1  0
  7 31  1  0
  8 32  1  0
 16 33  1  0
 17 34  1  0
 22 35  1  0
 23 36  1  0
  1 37  1  0
 21 38  1  0
M  CHG  1  19   1
M  END
