
     RDKit          3D

 29 30  0  0  0  0  0  0  0  0999 V2000
   -1.0070    0.2032    0.4869 N   0  0  0  0  0  0  0  0  0  0  0  0
    1.2619    0.8732   -0.0745 C   0  0  0  0  0  0  0  0  0  0  0  0
    0.8574   -1.3838    0.6528 C   0  0  0  0  0  0  0  0  0  0  0  0
    2.6131    0.5600   -0.1972 C   0  0  0  0  0  0  0  0  0  0  0  0
    3.1066   -0.7135    0.0783 C   0  0  0  0  0  0  0  0  0  0  0  0
   -1.2655    1.5962    0.8380 C   0  0  0  0  0  0  0  0  0  0  0  0
    4.4575   -0.9951   -0.0107 N   0  0  0  0  0  0  0  0  0  0  0  0
    0.8200    2.2921   -0.3368 C   0  0  0  0  0  0  0  0  0  0  0  0
   -4.2409   -0.8597   -0.5221 C   0  0  0  0  0  0  0  0  0  0  0  0
    0.3688   -0.1168    0.3373 C   0  0  0  0  0  0  0  0  0  0  0  0
   -1.9456   -0.5941   -0.0958 C   0  0  0  0  0  0  0  0  0  0  0  0
   -1.7124   -1.6407   -0.6630 O   0  0  0  0  0  0  0  0  0  0  0  0
   -3.1765   -0.1036    0.0464 O   0  0  0  0  0  0  0  0  0  0  0  0
    2.1980   -1.6845    0.5184 C   0  0  0  0  0  0  0  0  0  0  0  0
   -0.6897    2.4902   -0.2476 C   0  0  0  0  0  0  0  0  0  0  0  0
    0.1858   -2.1502    1.0138 H   0  0  0  0  0  0  0  0  0  0  0  0
    3.2992    1.3382   -0.5175 H   0  0  0  0  0  0  0  0  0  0  0  0
   -2.3287    1.7631    0.9721 H   0  0  0  0  0  0  0  0  0  0  0  0
   -0.7836    1.8009    1.7975 H   0  0  0  0  0  0  0  0  0  0  0  0
    4.9766   -0.4042   -0.6407 H   0  0  0  0  0  0  0  0  0  0  0  0
    4.6815   -1.9661   -0.1608 H   0  0  0  0  0  0  0  0  0  0  0  0
    1.3102    2.9353    0.4000 H   0  0  0  0  0  0  0  0  0  0  0  0
    1.1909    2.6192   -1.3106 H   0  0  0  0  0  0  0  0  0  0  0  0
   -4.1378   -0.9500   -1.6033 H   0  0  0  0  0  0  0  0  0  0  0  0
   -4.3089   -1.8551   -0.0836 H   0  0  0  0  0  0  0  0  0  0  0  0
   -5.1482   -0.3067   -0.2958 H   0  0  0  0  0  0  0  0  0  0  0  0
    2.5488   -2.6788    0.7679 H   0  0  0  0  0  0  0  0  0  0  0  0
   -1.1726    2.2443   -1.1967 H   0  0  0  0  0  0  0  0  0  0  0  0
   -0.9183    3.5357   -0.0352 H   0  0  0  0  0  0  0  0  0  0  0  0
  7  5  1  0
  4  5  1  0
  4  2  2  0
  5 14  2  0
  8  2  1  0
  8 15  1  0
  2 10  1  0
 14  3  1  0
 15  6  1  0
 10  3  2  0
 10  1  1  0
  6  1  1  0
  1 11  1  0
 11 13  1  0
 11 12  2  0
 13  9  1  0
  3 16  1  0
  4 17  1  0
  6 18  1  0
  6 19  1  0
  7 20  1  0
  7 21  1  0
  8 22  1  0
  8 23  1  0
  9 24  1  0
  9 25  1  0
  9 26  1  0
 14 27  1  0
 15 28  1  0
 15 29  1  0
M  END
