
     RDKit          3D

 77 81  0  0  0  0  0  0  0  0999 V2000
    3.1667    4.7234   -0.4668 C   0  0  0  0  0  0  0  0  0  0  0  0
    4.0962    3.7017   -0.5609 C   0  0  0  0  0  0  0  0  0  0  0  0
    2.3856    2.0717    0.0263 C   0  0  0  0  0  0  0  0  0  0  0  0
    1.8526    4.4330   -0.1464 C   0  0  0  0  0  0  0  0  0  0  0  0
    6.3340    2.3008    0.7630 O   0  0  0  0  0  0  0  0  0  0  0  0
    5.8818    1.3376    0.1680 C   0  0  0  0  0  0  0  0  0  0  0  0
    6.6700    0.0761    0.0271 C   0  0  0  0  0  0  0  0  0  0  0  0
    7.9460    0.0452    0.5911 C   0  0  0  0  0  0  0  0  0  0  0  0
    8.7266   -1.0919    0.5179 C   0  0  0  0  0  0  0  0  0  0  0  0
    8.2735   -2.2534   -0.1143 C   0  0  0  0  0  0  0  0  0  0  0  0
    9.1654   -3.4866   -0.1639 C   0  0  1  0  0  0  0  0  0  0  0  0
    8.4890   -4.6679   -0.8590 C   0  0  0  0  0  0  0  0  0  0  0  0
   10.4537   -3.1447   -0.9251 C   0  0  0  0  0  0  0  0  0  0  0  0
    9.5177   -3.9119    1.2686 C   0  0  0  0  0  0  0  0  0  0  0  0
    7.0010   -2.2137   -0.6777 C   0  0  0  0  0  0  0  0  0  0  0  0
    6.2139   -1.0727   -0.6118 C   0  0  0  0  0  0  0  0  0  0  0  0
    3.7115    2.3907   -0.3022 C   0  0  0  0  0  0  0  0  0  0  0  0
    2.0444    0.6489    0.3705 C   0  0  0  0  0  0  0  0  0  0  0  0
    1.4525    3.1160    0.0683 C   0  0  0  0  0  0  0  0  0  0  0  0
    0.0116    2.8804    0.3266 C   0  0  0  0  0  0  0  0  0  0  0  0
   -0.5846    3.7032    1.1748 N   0  0  0  0  0  0  0  0  0  0  0  0
   -0.5773    1.9006   -0.3380 N   0  0  0  0  0  0  0  0  0  0  0  0
   -1.8838    1.7517   -0.0756 C   0  0  0  0  0  0  0  0  0  0  0  0
   -2.5854    2.5005    0.7538 N   0  0  0  0  0  0  0  0  0  0  0  0
   -1.8932    3.4758    1.3522 C   0  0  0  0  0  0  0  0  0  0  0  0
   -2.5510    4.2734    2.1902 N   0  0  0  0  0  0  0  0  0  0  0  0
   -2.4712    0.7359   -0.7546 N   0  0  0  0  0  0  0  0  0  0  0  0
   -3.7760    0.2601   -0.7562 C   0  0  0  0  0  0  0  0  0  0  0  0
   -4.8030    0.7303    0.0655 C   0  0  0  0  0  0  0  0  0  0  0  0
   -6.0626    0.1569   -0.0109 C   0  0  0  0  0  0  0  0  0  0  0  0
   -6.3450   -0.8723   -0.9017 C   0  0  0  0  0  0  0  0  0  0  0  0
   -5.3246   -1.3184   -1.7384 C   0  0  0  0  0  0  0  0  0  0  0  0
   -4.0585   -0.7762   -1.6550 C   0  0  0  0  0  0  0  0  0  0  0  0
   -7.7264   -1.4056   -1.0822 C   0  0  0  0  0  0  0  0  0  0  0  0
   -8.1962   -1.4927   -2.2104 O   0  0  0  0  0  0  0  0  0  0  0  0
   -8.4275   -1.7246    0.0289 N   0  0  0  0  0  0  0  0  0  0  0  0
   -9.8340   -2.0801   -0.0576 C   0  0  0  0  0  0  0  0  0  0  0  0
  -10.0341   -3.5424    0.2991 C   0  0  0  0  0  0  0  0  0  0  0  0
   -9.4989   -3.8346    1.5719 O   0  0  0  0  0  0  0  0  0  0  0  0
   -8.1251   -3.5290    1.6312 C   0  0  0  0  0  0  0  0  0  0  0  0
   -7.8496   -2.0644    1.3196 C   0  0  0  0  0  0  0  0  0  0  0  0
    3.4676    5.7444   -0.6591 H   0  0  0  0  0  0  0  0  0  0  0  0
    5.1143    3.9254   -0.8433 H   0  0  0  0  0  0  0  0  0  0  0  0
    1.1209    5.2271   -0.0857 H   0  0  0  0  0  0  0  0  0  0  0  0
    8.3311    0.9215    1.0942 H   0  0  0  0  0  0  0  0  0  0  0  0
    9.7108   -1.0684    0.9694 H   0  0  0  0  0  0  0  0  0  0  0  0
    8.2326   -4.4466   -1.8964 H   0  0  0  0  0  0  0  0  0  0  0  0
    9.1671   -5.5226   -0.8675 H   0  0  0  0  0  0  0  0  0  0  0  0
    7.5787   -4.9771   -0.3423 H   0  0  0  0  0  0  0  0  0  0  0  0
   11.0022   -2.3252   -0.4578 H   0  0  0  0  0  0  0  0  0  0  0  0
   11.1159   -4.0123   -0.9478 H   0  0  0  0  0  0  0  0  0  0  0  0
   10.2407   -2.8584   -1.9564 H   0  0  0  0  0  0  0  0  0  0  0  0
    8.6212   -4.1740    1.8333 H   0  0  0  0  0  0  0  0  0  0  0  0
   10.1681   -4.7887    1.2500 H   0  0  0  0  0  0  0  0  0  0  0  0
   10.0411   -3.1268    1.8151 H   0  0  0  0  0  0  0  0  0  0  0  0
    6.5942   -3.0793   -1.1806 H   0  0  0  0  0  0  0  0  0  0  0  0
    5.2385   -1.1223   -1.0800 H   0  0  0  0  0  0  0  0  0  0  0  0
    4.3083    0.4891   -0.8085 H   0  0  0  0  0  0  0  0  0  0  0  0
    1.9707    0.0202   -0.5202 H   0  0  0  0  0  0  0  0  0  0  0  0
    2.8143    0.2169    1.0113 H   0  0  0  0  0  0  0  0  0  0  0  0
    1.0977    0.5661    0.8937 H   0  0  0  0  0  0  0  0  0  0  0  0
   -2.0744    5.0253    2.6561 H   0  0  0  0  0  0  0  0  0  0  0  0
   -3.5336    4.1438    2.3555 H   0  0  0  0  0  0  0  0  0  0  0  0
   -1.8345    0.2603   -1.3775 H   0  0  0  0  0  0  0  0  0  0  0  0
   -4.6286    1.5376    0.7568 H   0  0  0  0  0  0  0  0  0  0  0  0
   -6.8399    0.5455    0.6359 H   0  0  0  0  0  0  0  0  0  0  0  0
   -5.5115   -2.1062   -2.4567 H   0  0  0  0  0  0  0  0  0  0  0  0
   -3.2754   -1.1532   -2.3018 H   0  0  0  0  0  0  0  0  0  0  0  0
  -10.3900   -1.4489    0.6427 H   0  0  0  0  0  0  0  0  0  0  0  0
  -10.2094   -1.8811   -1.0580 H   0  0  0  0  0  0  0  0  0  0  0  0
  -11.0993   -3.7755    0.3310 H   0  0  0  0  0  0  0  0  0  0  0  0
   -9.5703   -4.1746   -0.4712 H   0  0  0  0  0  0  0  0  0  0  0  0
   -7.7802   -3.7579    2.6403 H   0  0  0  0  0  0  0  0  0  0  0  0
   -7.5588   -4.1568    0.9284 H   0  0  0  0  0  0  0  0  0  0  0  0
   -6.7744   -1.9043    1.3192 H   0  0  0  0  0  0  0  0  0  0  0  0
   -8.2840   -1.4246    2.0937 H   0  0  0  0  0  0  0  0  0  0  0  0
    4.6445    1.3407   -0.3915 N   0  0  0  0  0  0  0  0  0  0  0  0
 40 39  1  0
 40 41  1  0
 39 38  1  0
 38 37  1  0
 41 36  1  0
 37 36  1  0
 36 34  1  0
 34 35  2  0
 34 31  1  0
 31 30  1  0
 31 32  2  0
 11 13  1  6
 30 29  2  0
 32 33  1  0
 12 11  1  0
 15 16  2  0
 15 10  1  0
 16  7  1  0
 29 28  1  0
 33 28  2  0
 11 10  1  0
 11 14  1  0
 28 27  1  0
 10  9  2  0
 77 17  1  0
 77  6  1  0
  2 17  1  0
  2  1  2  0
 17  3  2  0
  1  4  1  0
 27 23  1  0
  7  6  1  0
  7  8  2  0
 22 23  2  0
 22 20  1  0
  3 18  1  0
  3 19  1  0
  4 19  2  0
 19 20  1  0
 23 24  1  0
  6  5  2  0
  9  8  1  0
 20 21  2  0
 24 25  2  0
 21 25  1  0
 25 26  1  0
  1 42  1  0
  2 43  1  0
  4 44  1  0
  8 45  1  0
  9 46  1  0
 12 47  1  0
 12 48  1  0
 12 49  1  0
 13 50  1  0
 13 51  1  0
 13 52  1  0
 14 53  1  0
 14 54  1  0
 14 55  1  0
 15 56  1  0
 16 57  1  0
 77 58  1  0
 18 59  1  0
 18 60  1  0
 18 61  1  0
 26 62  1  0
 26 63  1  0
 27 64  1  0
 29 65  1  0
 30 66  1  0
 32 67  1  0
 33 68  1  0
 37 69  1  0
 37 70  1  0
 38 71  1  0
 38 72  1  0
 40 73  1  0
 40 74  1  0
 41 75  1  0
 41 76  1  0
M  END
