
     RDKit          3D

 12 11  0  0  0  0  0  0  0  0999 V2000
    0.3217   -0.8674   -0.7735 C   0  0  0  0  0  0  0  0  0  0  0  0
   -0.2850   -0.1835   -1.9645 C   0  0  0  0  0  0  0  0  0  0  0  0
    0.3568    0.3254   -2.8458 O   0  0  0  0  0  0  0  0  0  0  0  0
    0.5293    1.5280    0.6134 O   0  0  0  0  0  0  0  0  0  0  0  0
    0.7814   -0.7992    1.8143 O   0  0  0  0  0  0  0  0  0  0  0  0
   -1.5079    0.1014    1.0203 O   0  0  0  0  0  0  0  0  0  0  0  0
    0.0681    0.1265    0.7205 P   0  0  2  0  0  0  0  0  0  0  0  0
    1.3930   -1.0132   -0.9197 H   0  0  0  0  0  0  0  0  0  0  0  0
   -0.1556   -1.8422   -0.6382 H   0  0  0  0  0  0  0  0  0  0  0  0
   -1.3868   -0.1767   -1.9840 H   0  0  0  0  0  0  0  0  0  0  0  0
    0.8601   -0.3946    2.6901 H   0  0  0  0  0  0  0  0  0  0  0  0
   -1.8929   -0.7654    1.2053 H   0  0  0  0  0  0  0  0  0  0  0  0
  1  2  1  0
  1  7  1  0
  1  8  1  0
  1  9  1  0
  2  3  2  0
  2 10  1  0
  4  7  2  0
  7  5  1  1
  5 11  1  0
  6  7  1  0
  6 12  1  0
M  END
