
     RDKit          3D

 20 21  0  0  0  0  0  0  0  0999 V2000
    3.6154    0.0993   -0.0308 C   0  0  0  0  0  0  0  0  0  0  0  0
    1.1701   -0.2865    0.0204 C   0  0  0  0  0  0  0  0  0  0  0  0
    1.8930   -1.4413   -0.1326 C   0  0  0  0  0  0  0  0  0  0  0  0
    3.2897   -1.2186   -0.1626 C   0  0  0  0  0  0  0  0  0  0  0  0
   -0.2758   -0.1314    0.1162 C   0  0  0  0  0  0  0  0  0  0  0  0
   -0.9046    1.2226    0.2592 C   0  0  0  0  0  0  0  0  0  0  0  0
   -2.2648    1.2293   -0.4209 C   0  0  0  0  0  0  0  0  0  0  0  0
   -3.0811    0.0270   -0.0301 C   0  0  0  0  0  0  0  0  0  0  0  0
   -2.3242   -1.0833    0.2356 N   0  0  0  0  0  0  0  0  0  0  0  0
   -0.9775   -1.1995    0.1171 N   0  0  0  0  0  0  0  0  0  0  0  0
    2.2238    1.0772    0.1269 S   0  0  0  0  0  0  0  0  0  0  0  0
    4.5975    0.5462   -0.0190 H   0  0  0  0  0  0  0  0  0  0  0  0
    1.4331   -2.4148   -0.2243 H   0  0  0  0  0  0  0  0  0  0  0  0
    4.0233   -2.0028   -0.2796 H   0  0  0  0  0  0  0  0  0  0  0  0
   -1.0141    1.4404    1.3273 H   0  0  0  0  0  0  0  0  0  0  0  0
   -2.8207    2.1362   -0.1910 H   0  0  0  0  0  0  0  0  0  0  0  0
   -2.8010   -1.9662    0.3433 H   0  0  0  0  0  0  0  0  0  0  0  0
   -0.2794    2.0120   -0.1578 H   0  0  0  0  0  0  0  0  0  0  0  0
   -2.1430    1.1889   -1.5068 H   0  0  0  0  0  0  0  0  0  0  0  0
   -4.2895   -0.0051    0.0134 O   0  0  0  0  0  0  0  0  0  0  0  0
 20  8  2  0
  7  8  1  0
  7  6  1  0
  8  9  1  0
  6  5  1  0
  9 10  1  0
  5 10  2  0
  5  2  1  0
 11  2  1  0
 11  1  1  0
  2  3  2  0
  1  4  2  0
  3  4  1  0
  1 12  1  0
  3 13  1  0
  4 14  1  0
  6 15  1  0
  7 16  1  0
  9 17  1  0
  6 18  1  0
  7 19  1  0
M  END
