
     RDKit          3D

 98101  0  0  0  0  0  0  0  0999 V2000
    4.5829    2.4047    0.6209 C   0  0  0  0  0  0  0  0  0  0  0  0
    5.2480    1.3574    0.0069 C   0  0  0  0  0  0  0  0  0  0  0  0
    3.4883    1.6578   -1.1177 C   0  0  0  0  0  0  0  0  0  0  0  0
   -7.5173    0.2563   -1.4686 O   0  0  0  0  0  0  0  0  0  0  0  0
   -6.9589   -0.5332   -0.7210 C   0  0  0  0  0  0  0  0  0  0  0  0
   -7.6317   -1.4620    0.0398 N   0  0  0  0  0  0  0  0  0  0  0  0
   -9.0184   -1.6054    0.1285 C   0  0  0  0  0  0  0  0  0  0  0  0
   -9.5572   -2.0457    1.3393 C   0  0  0  0  0  0  0  0  0  0  0  0
  -10.9184   -2.2432    1.4803 C   0  0  0  0  0  0  0  0  0  0  0  0
   -9.8897   -1.3831   -0.9339 C   0  0  0  0  0  0  0  0  0  0  0  0
  -11.2565   -1.5758   -0.7688 C   0  0  0  0  0  0  0  0  0  0  0  0
  -11.8108   -2.0048    0.4330 C   0  0  0  0  0  0  0  0  0  0  0  0
  -13.3063   -2.2126    0.6388 C   0  0  1  0  0  0  0  0  0  0  0  0
  -13.7972   -1.2865    1.7602 C   0  0  0  0  0  0  0  0  0  0  0  0
  -14.1105   -1.9081   -0.6252 C   0  0  0  0  0  0  0  0  0  0  0  0
  -13.5749   -3.6715    1.0339 C   0  0  0  0  0  0  0  0  0  0  0  0
   -5.6163   -0.5655   -0.5496 N   0  0  0  0  0  0  0  0  0  0  0  0
   -4.7257    0.2829   -1.3104 C   0  0  0  0  0  0  0  0  0  0  0  0
   -3.3563    0.3401   -0.6492 C   0  0  0  0  0  0  0  0  0  0  0  0
   -2.4173    1.2351   -1.4476 C   0  0  0  0  0  0  0  0  0  0  0  0
   -1.1390    1.4985   -0.8079 N   0  0  0  0  0  0  0  0  0  0  0  0
   -0.2250    0.3574   -0.6556 C   0  0  1  0  0  0  0  0  0  0  0  0
   -0.3887   -0.3337    0.6952 C   0  0  0  0  0  0  0  0  0  0  0  0
   -0.2563   -0.6461   -1.8088 C   0  0  0  0  0  0  0  0  0  0  0  0
    0.1102    3.5627   -0.2178 C   0  0  2  0  0  0  0  0  0  0  0  0
    0.6730    4.8780   -0.7471 C   0  0  1  0  0  0  0  0  0  0  0  0
    0.6205    5.8378    0.2772 O   0  0  0  0  0  0  0  0  0  0  0  0
    2.1176    4.4795   -1.0475 C   0  0  1  0  0  0  0  0  0  0  0  0
    3.0358    5.5302   -1.0792 O   0  0  0  0  0  0  0  0  0  0  0  0
    2.4171    3.5665    0.1402 C   0  0  1  0  0  0  0  0  0  0  0  0
    1.2116    2.9232    0.4444 O   0  0  0  0  0  0  0  0  0  0  0  0
    3.4486    2.5933   -0.1185 N   0  0  0  0  0  0  0  0  0  0  0  0
    4.5444    0.9021   -1.0774 N   0  0  0  0  0  0  0  0  0  0  0  0
    4.9877    3.0741    1.6987 N   0  0  0  0  0  0  0  0  0  0  0  0
    6.1471    2.6255    2.1449 C   0  0  0  0  0  0  0  0  0  0  0  0
    6.4791    0.9744    0.5766 C   0  0  0  0  0  0  0  0  0  0  0  0
    6.9008    1.6438    1.6544 N   0  0  0  0  0  0  0  0  0  0  0  0
    7.2108   -0.0250    0.0778 N   0  0  0  0  0  0  0  0  0  0  0  0
    8.5295   -0.3882    0.5503 C   0  0  0  0  0  0  0  0  0  0  0  0
    8.8793   -1.8036    0.1194 C   0  0  0  0  0  0  0  0  0  0  0  0
   10.2953   -2.1800    0.5314 C   0  0  0  0  0  0  0  0  0  0  0  0
   10.6484   -3.5984    0.1138 C   0  0  0  0  0  0  0  0  0  0  0  0
   12.0126   -3.9099    0.4865 N   0  0  0  0  0  0  0  0  0  0  0  0
   12.5886   -5.0921    0.2275 C   0  0  0  0  0  0  0  0  0  0  0  0
   11.9957   -5.9992   -0.3453 O   0  0  0  0  0  0  0  0  0  0  0  0
   14.0150   -5.2423    0.6953 C   0  0  0  0  0  0  0  0  0  0  0  0
    2.7056    1.5760   -1.8568 H   0  0  0  0  0  0  0  0  0  0  0  0
   -7.1109   -1.9021    0.7831 H   0  0  0  0  0  0  0  0  0  0  0  0
   -8.9017   -2.2322    2.1823 H   0  0  0  0  0  0  0  0  0  0  0  0
  -11.2833   -2.5843    2.4413 H   0  0  0  0  0  0  0  0  0  0  0  0
   -9.5198   -1.0674   -1.8968 H   0  0  0  0  0  0  0  0  0  0  0  0
  -11.8903   -1.3858   -1.6246 H   0  0  0  0  0  0  0  0  0  0  0  0
  -13.6052   -0.2389    1.5207 H   0  0  0  0  0  0  0  0  0  0  0  0
  -14.8731   -1.4061    1.9080 H   0  0  0  0  0  0  0  0  0  0  0  0
  -13.3091   -1.5056    2.7112 H   0  0  0  0  0  0  0  0  0  0  0  0
  -13.8241   -2.5546   -1.4571 H   0  0  0  0  0  0  0  0  0  0  0  0
  -15.1720   -2.0757   -0.4350 H   0  0  0  0  0  0  0  0  0  0  0  0
  -13.9949   -0.8714   -0.9472 H   0  0  0  0  0  0  0  0  0  0  0  0
  -13.0494   -3.9555    1.9466 H   0  0  0  0  0  0  0  0  0  0  0  0
  -14.6417   -3.8249    1.2101 H   0  0  0  0  0  0  0  0  0  0  0  0
  -13.2627   -4.3569    0.2438 H   0  0  0  0  0  0  0  0  0  0  0  0
   -5.2022   -1.3558   -0.0808 H   0  0  0  0  0  0  0  0  0  0  0  0
   -4.6232   -0.0746   -2.3416 H   0  0  0  0  0  0  0  0  0  0  0  0
   -5.1516    1.2857   -1.3645 H   0  0  0  0  0  0  0  0  0  0  0  0
   -3.4528    0.7282    0.3680 H   0  0  0  0  0  0  0  0  0  0  0  0
   -2.9608   -0.6759   -0.5710 H   0  0  0  0  0  0  0  0  0  0  0  0
   -2.3108    0.8284   -2.4653 H   0  0  0  0  0  0  0  0  0  0  0  0
   -2.9195    2.1984   -1.5668 H   0  0  0  0  0  0  0  0  0  0  0  0
    0.7792    0.7807   -0.6477 H   0  0  0  0  0  0  0  0  0  0  0  0
   -1.3412   -0.8553    0.7866 H   0  0  0  0  0  0  0  0  0  0  0  0
    0.4020   -1.0726    0.8407 H   0  0  0  0  0  0  0  0  0  0  0  0
   -0.3222    0.3953    1.5030 H   0  0  0  0  0  0  0  0  0  0  0  0
   -0.1255   -0.1574   -2.7762 H   0  0  0  0  0  0  0  0  0  0  0  0
    0.5583   -1.3614   -1.6904 H   0  0  0  0  0  0  0  0  0  0  0  0
   -1.1864   -1.2161   -1.8422 H   0  0  0  0  0  0  0  0  0  0  0  0
    0.2659    2.4718   -2.0878 H   0  0  0  0  0  0  0  0  0  0  0  0
   -1.2381    3.3139   -1.8155 H   0  0  0  0  0  0  0  0  0  0  0  0
   -0.6698    3.7450    0.5269 H   0  0  0  0  0  0  0  0  0  0  0  0
    0.1457    5.2162   -1.6484 H   0  0  0  0  0  0  0  0  0  0  0  0
    1.2477    6.5384    0.0630 H   0  0  0  0  0  0  0  0  0  0  0  0
    2.1332    3.9005   -1.9803 H   0  0  0  0  0  0  0  0  0  0  0  0
    3.0201    5.9308   -1.9543 H   0  0  0  0  0  0  0  0  0  0  0  0
    2.7769    4.1575    0.9889 H   0  0  0  0  0  0  0  0  0  0  0  0
    6.5451    3.1217    3.0235 H   0  0  0  0  0  0  0  0  0  0  0  0
    6.9015   -0.4271   -0.7934 H   0  0  0  0  0  0  0  0  0  0  0  0
    9.2808    0.3139    0.1709 H   0  0  0  0  0  0  0  0  0  0  0  0
    8.5467   -0.3121    1.6376 H   0  0  0  0  0  0  0  0  0  0  0  0
    8.1615   -2.5025    0.5576 H   0  0  0  0  0  0  0  0  0  0  0  0
    8.7829   -1.8904   -0.9678 H   0  0  0  0  0  0  0  0  0  0  0  0
   11.0049   -1.4809    0.0782 H   0  0  0  0  0  0  0  0  0  0  0  0
   10.4030   -2.0821    1.6162 H   0  0  0  0  0  0  0  0  0  0  0  0
    9.9605   -4.3065    0.5848 H   0  0  0  0  0  0  0  0  0  0  0  0
   10.5249   -3.7080   -0.9674 H   0  0  0  0  0  0  0  0  0  0  0  0
   12.5445   -3.2032    0.9674 H   0  0  0  0  0  0  0  0  0  0  0  0
   14.4485   -4.3208    1.0792 H   0  0  0  0  0  0  0  0  0  0  0  0
   14.0597   -5.9961    1.4818 H   0  0  0  0  0  0  0  0  0  0  0  0
   14.6317   -5.5975   -0.1297 H   0  0  0  0  0  0  0  0  0  0  0  0
   -0.4914    2.6917   -1.3179 C   0  0  0  0  0  0  0  0  0  0  0  0
 41 40  1  0
 41 42  1  0
 29 28  1  0
 39 40  1  0
 39 38  1  0
 46 44  1  0
 43 44  1  0
 43 42  1  0
 44 45  2  0
 28 26  1  0
 28 30  1  0
 38 36  1  0
 27 26  1  0
 36 37  1  0
 36  2  2  0
 33  2  1  0
 33  3  2  0
 37 35  2  0
  2  1  1  0
  3 32  1  0
 35 34  1  0
  1 32  1  0
  1 34  2  0
 26 25  1  0
 32 30  1  0
 30 31  1  0
 25 31  1  0
 25 98  1  0
 98 21  1  0
 21 22  1  0
 21 20  1  0
 22 23  1  0
 22 24  1  0
 19 20  1  0
 19 18  1  0
 18 17  1  0
 17  5  1  0
  4  5  2  0
  5  6  1  0
  6  7  1  0
  7 10  1  0
  7  8  2  0
 10 11  2  0
  8  9  1  0
 11 12  1  0
  9 12  2  0
 12 13  1  0
 13 16  1  1
 13 14  1  0
 13 15  1  0
  3 47  1  0
  6 48  1  0
  8 49  1  0
  9 50  1  0
 10 51  1  0
 11 52  1  0
 14 53  1  0
 14 54  1  0
 14 55  1  0
 15 56  1  0
 15 57  1  0
 15 58  1  0
 16 59  1  0
 16 60  1  0
 16 61  1  0
 17 62  1  0
 18 63  1  0
 18 64  1  0
 19 65  1  0
 19 66  1  0
 20 67  1  0
 20 68  1  0
 22 69  1  1
 23 70  1  0
 23 71  1  0
 23 72  1  0
 24 73  1  0
 24 74  1  0
 24 75  1  0
 98 76  1  0
 98 77  1  0
 25 78  1  1
 26 79  1  6
 27 80  1  0
 28 81  1  6
 29 82  1  0
 30 83  1  1
 35 84  1  0
 38 85  1  0
 39 86  1  0
 39 87  1  0
 40 88  1  0
 40 89  1  0
 41 90  1  0
 41 91  1  0
 42 92  1  0
 42 93  1  0
 43 94  1  0
 46 95  1  0
 46 96  1  0
 46 97  1  0
M  END
