
     RDKit          3D

 22 22  0  0  0  0  0  0  0  0999 V2000
    2.8433    0.1160   -1.8335 O   0  0  0  0  0  0  0  0  0  0  0  0
    2.2279    0.3000   -0.8205 C   0  0  0  0  0  0  0  0  0  0  0  0
    2.8864    0.0489    0.5417 C   0  0  0  0  0  0  0  0  0  0  0  0
    4.0167   -0.6072    0.4203 O   0  0  0  0  0  0  0  0  0  0  0  0
    2.4022    0.4445    1.5679 O   0  0  0  0  0  0  0  0  0  0  0  0
    0.8146    0.8066   -0.7635 C   0  0  0  0  0  0  0  0  0  0  0  0
   -0.0891   -0.2863   -0.2356 C   0  0  0  0  0  0  0  0  0  0  0  0
   -1.5271    0.0115   -0.0483 C   0  0  0  0  0  0  0  0  0  0  0  0
   -2.3640   -0.9843    0.4605 C   0  0  0  0  0  0  0  0  0  0  0  0
   -3.7139   -0.7369    0.6390 C   0  0  0  0  0  0  0  0  0  0  0  0
   -4.2437    0.5059    0.3094 C   0  0  0  0  0  0  0  0  0  0  0  0
   -3.4194    1.5006   -0.1984 C   0  0  0  0  0  0  0  0  0  0  0  0
   -2.0662    1.2555   -0.3757 C   0  0  0  0  0  0  0  0  0  0  0  0
    0.3756   -1.3825   -0.0002 O   0  0  0  0  0  0  0  0  0  0  0  0
    0.7541    1.6941   -0.1276 H   0  0  0  0  0  0  0  0  0  0  0  0
    0.4934    1.1006   -1.7651 H   0  0  0  0  0  0  0  0  0  0  0  0
    4.4271   -0.7421    1.2889 H   0  0  0  0  0  0  0  0  0  0  0  0
   -1.9571   -1.9528    0.7186 H   0  0  0  0  0  0  0  0  0  0  0  0
   -1.4428    2.0445   -0.7752 H   0  0  0  0  0  0  0  0  0  0  0  0
   -4.3557   -1.5131    1.0342 H   0  0  0  0  0  0  0  0  0  0  0  0
   -5.2996    0.6977    0.4485 H   0  0  0  0  0  0  0  0  0  0  0  0
   -3.8287    2.4674   -0.4586 H   0  0  0  0  0  0  0  0  0  0  0  0
  1  2  2  0
  2  3  1  0
  2  6  1  0
  3  4  1  0
  3  5  2  0
  6  7  1  0
  7  8  1  0
  7 14  2  0
  8  9  2  0
  8 13  1  0
  9 10  1  0
 10 11  2  0
 11 12  1  0
 12 13  2  0
  6 15  1  0
  6 16  1  0
  4 17  1  0
  9 18  1  0
 13 19  1  0
 10 20  1  0
 11 21  1  0
 12 22  1  0
M  END
