
     RDKit          3D

 18 18  0  0  0  0  0  0  0  0999 V2000
    1.3902   -0.9339   -0.3572 N   0  0  0  0  0  0  0  0  0  0  0  0
   -1.7957    0.9268   -0.6970 C   0  0  0  0  0  0  0  0  0  0  0  0
   -0.4512    0.6092   -0.7986 C   0  0  0  0  0  0  0  0  0  0  0  0
    0.0367   -0.5650   -0.2329 C   0  0  0  0  0  0  0  0  0  0  0  0
    2.4609   -0.1946   -0.0005 C   0  0  0  0  0  0  0  0  0  0  0  0
   -0.8377   -1.4308    0.4129 C   0  0  0  0  0  0  0  0  0  0  0  0
   -2.1901   -1.1320    0.5044 C   0  0  0  0  0  0  0  0  0  0  0  0
   -2.6431    0.0497   -0.0455 C   0  0  0  0  0  0  0  0  0  0  0  0
    3.6448   -0.7606   -0.2365 N   0  0  0  0  0  0  0  0  0  0  0  0
    2.3532    1.3235    0.7151 S   0  0  0  0  0  0  0  0  0  0  0  0
   -3.9473    0.3555    0.0489 F   0  0  0  0  0  0  0  0  0  0  0  0
    1.5592   -1.8883   -0.6431 H   0  0  0  0  0  0  0  0  0  0  0  0
   -2.1796    1.8390   -1.1340 H   0  0  0  0  0  0  0  0  0  0  0  0
    0.2163    1.2770   -1.3236 H   0  0  0  0  0  0  0  0  0  0  0  0
   -0.4637   -2.3470    0.8515 H   0  0  0  0  0  0  0  0  0  0  0  0
   -2.8722   -1.8059    1.0053 H   0  0  0  0  0  0  0  0  0  0  0  0
    3.7441   -1.6478   -0.7040 H   0  0  0  0  0  0  0  0  0  0  0  0
    4.4835   -0.2598   -0.0031 H   0  0  0  0  0  0  0  0  0  0  0  0
 10  5  2  0
  9  5  1  0
  5  1  1  0
  1  4  1  0
  3  4  1  0
  3  2  2  0
  4  6  2  0
  2  8  1  0
  6  7  1  0
  8  7  2  0
  8 11  1  0
  1 12  1  0
  2 13  1  0
  3 14  1  0
  6 15  1  0
  7 16  1  0
  9 17  1  0
  9 18  1  0
M  END
