
     RDKit          3D

 54 59  0  0  0  0  0  0  0  0999 V2000
   -7.8603   -1.5200    2.2674 O   0  0  0  0  0  0  0  0  0  0  0  0
   -7.8624   -0.6579    1.3971 C   0  0  0  0  0  0  0  0  0  0  0  0
   -8.6195    0.6353    1.5959 C   0  0  0  0  0  0  0  0  0  0  0  0
   -7.2096   -0.8221    0.2232 N   0  0  0  0  0  0  0  0  0  0  0  0
   -6.3970   -1.9986   -0.0282 C   0  0  0  0  0  0  0  0  0  0  0  0
   -4.9237   -1.6228   -0.1291 C   0  0  0  0  0  0  0  0  0  0  0  0
   -4.7268   -0.5400   -1.1879 C   0  0  1  0  0  0  0  0  0  0  0  0
   -5.6211    0.6606   -0.9059 C   0  0  0  0  0  0  0  0  0  0  0  0
   -7.0712    0.1970   -0.7992 C   0  0  0  0  0  0  0  0  0  0  0  0
   -3.3261   -0.1696   -1.3007 N   0  0  0  0  0  0  0  0  0  0  0  0
   -2.6531    0.7668   -0.6094 C   0  0  0  0  0  0  0  0  0  0  0  0
   -1.3211    0.6494   -0.9566 C   0  0  0  0  0  0  0  0  0  0  0  0
   -1.3111   -0.4219   -1.8723 C   0  0  0  0  0  0  0  0  0  0  0  0
   -2.5232   -0.9043   -2.0648 N   0  0  0  0  0  0  0  0  0  0  0  0
   -0.2045    1.4599   -0.4869 C   0  0  0  0  0  0  0  0  0  0  0  0
   -0.3165    2.8191   -0.2547 C   0  0  0  0  0  0  0  0  0  0  0  0
    0.6551    3.6206    0.2003 N   0  0  0  0  0  0  0  0  0  0  0  0
    1.8592    3.1340    0.4572 C   0  0  0  0  0  0  0  0  0  0  0  0
    2.8495    3.9729    0.8676 N   0  0  0  0  0  0  0  0  0  0  0  0
    2.0665    1.7682    0.2386 C   0  0  0  0  0  0  0  0  0  0  0  0
    1.0702    0.9231   -0.2169 C   0  0  0  0  0  0  0  0  0  0  0  0
    3.2100    1.0779    0.4576 O   0  0  0  0  0  0  0  0  0  0  0  0
    2.9511   -0.2158    0.1502 C   0  0  0  0  0  0  0  0  0  0  0  0
    1.6675   -0.3748   -0.2663 C   0  0  0  0  0  0  0  0  0  0  0  0
    4.0497   -1.1425    0.3259 C   0  0  0  0  0  0  0  0  0  0  0  0
    5.3007   -0.7219    0.8006 C   0  0  0  0  0  0  0  0  0  0  0  0
    5.8938    0.8146    1.2666 S   0  0  0  0  0  0  0  0  0  0  0  0
    7.4224    0.1688    1.6422 N   0  0  0  0  0  0  0  0  0  0  0  0
    7.5029   -1.0649    1.4461 N   0  0  0  0  0  0  0  0  0  0  0  0
    6.3472   -1.6369    0.9721 C   0  0  0  0  0  0  0  0  0  0  0  0
    6.1837   -2.9909    0.6779 C   0  0  0  0  0  0  0  0  0  0  0  0
    4.9555   -3.4030    0.2100 C   0  0  0  0  0  0  0  0  0  0  0  0
    3.9086   -2.4929    0.0374 C   0  0  0  0  0  0  0  0  0  0  0  0
   -7.9550    1.5002    1.5904 H   0  0  0  0  0  0  0  0  0  0  0  0
   -9.3682    0.7930    0.8190 H   0  0  0  0  0  0  0  0  0  0  0  0
   -9.1259    0.6017    2.5570 H   0  0  0  0  0  0  0  0  0  0  0  0
   -6.5542   -2.7286    0.7601 H   0  0  0  0  0  0  0  0  0  0  0  0
   -6.7266   -2.4540   -0.9680 H   0  0  0  0  0  0  0  0  0  0  0  0
   -4.5665   -1.2601    0.8392 H   0  0  0  0  0  0  0  0  0  0  0  0
   -4.3404   -2.5085   -0.3884 H   0  0  0  0  0  0  0  0  0  0  0  0
   -5.0006   -0.9485   -2.1647 H   0  0  0  0  0  0  0  0  0  0  0  0
   -5.3384    1.1438    0.0330 H   0  0  0  0  0  0  0  0  0  0  0  0
   -5.5299    1.3998   -1.7037 H   0  0  0  0  0  0  0  0  0  0  0  0
   -7.3934   -0.2236   -1.7570 H   0  0  0  0  0  0  0  0  0  0  0  0
   -7.7197    1.0428   -0.5938 H   0  0  0  0  0  0  0  0  0  0  0  0
   -3.1362    1.4379    0.0821 H   0  0  0  0  0  0  0  0  0  0  0  0
   -0.4699   -0.8331   -2.4108 H   0  0  0  0  0  0  0  0  0  0  0  0
   -1.2624    3.3125   -0.4549 H   0  0  0  0  0  0  0  0  0  0  0  0
    2.5436    4.8636    1.2259 H   0  0  0  0  0  0  0  0  0  0  0  0
    3.6245    3.5796    1.3754 H   0  0  0  0  0  0  0  0  0  0  0  0
    1.2040   -1.3014   -0.5626 H   0  0  0  0  0  0  0  0  0  0  0  0
    7.0021   -3.6835    0.8176 H   0  0  0  0  0  0  0  0  0  0  0  0
    4.7895   -4.4441   -0.0287 H   0  0  0  0  0  0  0  0  0  0  0  0
    2.9606   -2.8605   -0.3332 H   0  0  0  0  0  0  0  0  0  0  0  0
  3  2  1  0
  1  2  2  0
  2  4  1  0
  4  5  1  0
  4  9  1  0
  5  6  1  0
  6  7  1  0
 32 33  2  0
 32 31  1  0
  9  8  1  0
  8  7  1  0
 14 13  2  0
 14 10  1  0
 33 25  1  0
 31 30  2  0
 13 12  1  0
  7 10  1  0
 10 11  1  0
 25 23  1  0
 25 26  2  0
 24 23  2  0
 24 21  1  0
 30 26  1  0
 30 29  1  0
 12 11  2  0
 12 15  1  0
 23 22  1  0
 26 27  1  0
 21 15  1  0
 21 20  2  0
 15 16  2  0
 29 28  2  0
 22 20  1  0
 20 18  1  0
 16 17  1  0
 27 28  1  0
 18 17  2  0
 18 19  1  0
  3 34  1  0
  3 35  1  0
  3 36  1  0
  5 37  1  0
  5 38  1  0
  6 39  1  0
  6 40  1  0
  7 41  1  6
  8 42  1  0
  8 43  1  0
  9 44  1  0
  9 45  1  0
 11 46  1  0
 13 47  1  0
 16 48  1  0
 19 49  1  0
 19 50  1  0
 24 51  1  0
 31 52  1  0
 32 53  1  0
 33 54  1  0
M  END
