
     RDKit          3D

 28 27  0  0  0  0  0  0  0  0999 V2000
   -2.2191    0.0195    0.0344 N   0  0  1  0  0  0  0  0  0  0  0  0
   -0.9076   -0.7224    0.0356 C   0  0  0  0  0  0  0  0  0  0  0  0
    0.3328    0.1502    0.0299 C   0  0  0  0  0  0  0  0  0  0  0  0
    2.8708   -0.0021    0.0349 C   0  0  0  0  0  0  0  0  0  0  0  0
    2.9209    1.2058    0.0868 O   0  0  0  0  0  0  0  0  0  0  0  0
    4.1026   -0.8594   -0.0456 C   0  0  0  0  0  0  0  0  0  0  0  0
   -2.3565    0.8592   -1.1868 C   0  0  0  0  0  0  0  0  0  0  0  0
   -3.3134   -0.9917    0.0422 C   0  0  0  0  0  0  0  0  0  0  0  0
    1.5600   -0.7501    0.0401 C   0  0  0  0  0  0  0  0  0  0  0  0
   -2.3514    0.8724    1.2467 C   0  0  0  0  0  0  0  0  0  0  0  0
   -0.9258   -1.3686   -0.8431 H   0  0  0  0  0  0  0  0  0  0  0  0
   -0.9230   -1.3601    0.9206 H   0  0  0  0  0  0  0  0  0  0  0  0
    0.3564    0.8012    0.9044 H   0  0  0  0  0  0  0  0  0  0  0  0
    0.3587    0.7861   -0.8560 H   0  0  0  0  0  0  0  0  0  0  0  0
    5.0094   -0.2667    0.0516 H   0  0  0  0  0  0  0  0  0  0  0  0
    4.0866   -1.6284    0.7282 H   0  0  0  0  0  0  0  0  0  0  0  0
    4.1209   -1.3817   -1.0046 H   0  0  0  0  0  0  0  0  0  0  0  0
   -2.2209    0.2340   -2.0656 H   0  0  0  0  0  0  0  0  0  0  0  0
   -3.3513    1.2963   -1.2006 H   0  0  0  0  0  0  0  0  0  0  0  0
   -1.6178    1.6542   -1.1790 H   0  0  0  0  0  0  0  0  0  0  0  0
   -3.2278   -1.6047    0.9353 H   0  0  0  0  0  0  0  0  0  0  0  0
   -4.2709   -0.4780    0.0396 H   0  0  0  0  0  0  0  0  0  0  0  0
   -3.2288   -1.6163   -0.8426 H   0  0  0  0  0  0  0  0  0  0  0  0
    1.5553   -1.4311   -0.8177 H   0  0  0  0  0  0  0  0  0  0  0  0
    1.5565   -1.4015    0.9212 H   0  0  0  0  0  0  0  0  0  0  0  0
   -1.6138    1.6682    1.2268 H   0  0  0  0  0  0  0  0  0  0  0  0
   -3.3469    1.3080    1.2605 H   0  0  0  0  0  0  0  0  0  0  0  0
   -2.2107    0.2569    2.1314 H   0  0  0  0  0  0  0  0  0  0  0  0
  1  2  1  6
  1  7  1  0
  1  8  1  0
  1 10  1  0
  2  3  1  0
  2 11  1  0
  2 12  1  0
  3  9  1  0
  3 13  1  0
  3 14  1  0
  4  5  2  0
  4  6  1  0
  4  9  1  0
  6 15  1  0
  6 16  1  0
  6 17  1  0
  7 18  1  0
  7 19  1  0
  7 20  1  0
  8 21  1  0
  8 22  1  0
  8 23  1  0
  9 24  1  0
  9 25  1  0
 10 26  1  0
 10 27  1  0
 10 28  1  0
M  CHG  1   1   1
M  END
