
     RDKit          3D

 58 61  0  0  0  0  0  0  0  0999 V2000
   -2.8154   -2.2803    0.0031 C   0  0  0  0  0  0  0  0  0  0  0  0
    0.2324    1.2439   -0.0228 N   0  0  0  0  0  0  0  0  0  0  0  0
   -1.9075    0.5958   -0.0515 N   0  0  0  0  0  0  0  0  0  0  0  0
   -1.4519   -1.8665    0.0366 C   0  0  0  0  0  0  0  0  0  0  0  0
   -0.4978   -2.7770    0.0954 N   0  0  0  0  0  0  0  0  0  0  0  0
   -1.1134   -0.5045    0.0068 C   0  0  0  0  0  0  0  0  0  0  0  0
   -2.9634    3.3369   -0.3204 C   0  0  0  0  0  0  0  0  0  0  0  0
   -3.0313    4.6342   -0.2363 N   0  0  0  0  0  0  0  0  0  0  0  0
   -1.7666    5.0564    0.0313 O   0  0  0  0  0  0  0  0  0  0  0  0
   -0.9153    4.0469    0.1218 N   0  0  0  0  0  0  0  0  0  0  0  0
   -1.5923    2.9638   -0.0901 C   0  0  0  0  0  0  0  0  0  0  0  0
   -1.0799    1.6106   -0.0588 C   0  0  0  0  0  0  0  0  0  0  0  0
    1.4014    2.1203   -0.0485 C   0  0  0  0  0  0  0  0  0  0  0  0
    1.8979    2.4639    1.3422 C   0  0  0  0  0  0  0  0  0  0  0  0
   -3.9757   -2.6044   -0.0236 C   0  0  0  0  0  0  0  0  0  0  0  0
   -5.3941   -3.0043   -0.0523 C   0  0  1  0  0  0  0  0  0  0  0  0
   -6.2714   -1.7525   -0.0835 C   0  0  0  0  0  0  0  0  0  0  0  0
   -5.6485   -3.8737   -1.2808 C   0  0  0  0  0  0  0  0  0  0  0  0
   -5.6892   -3.8043    1.0769 O   0  0  0  0  0  0  0  0  0  0  0  0
    0.2300   -0.1236    0.0369 C   0  0  0  0  0  0  0  0  0  0  0  0
    1.2365   -1.0946    0.1207 C   0  0  0  0  0  0  0  0  0  0  0  0
    0.7887   -2.4108    0.1385 C   0  0  0  0  0  0  0  0  0  0  0  0
    3.5427   -1.6770    0.2385 C   0  0  0  0  0  0  0  0  0  0  0  0
    4.8740   -0.9669    0.3682 C   0  0  2  0  0  0  0  0  0  0  0  0
    5.1622   -0.0469   -0.8163 C   0  0  0  0  0  0  0  0  0  0  0  0
    6.4591    0.5809   -0.6499 N   0  0  0  0  0  0  0  0  0  0  0  0
    7.5379   -0.3906   -0.6354 C   0  0  0  0  0  0  0  0  0  0  0  0
    7.3599   -1.3313    0.5464 C   0  0  0  0  0  0  0  0  0  0  0  0
    5.9925   -2.0043    0.4905 C   0  0  0  0  0  0  0  0  0  0  0  0
   -4.9230    2.8840   -0.5257 H   0  0  0  0  0  0  0  0  0  0  0  0
   -3.8591    1.5464   -0.3992 H   0  0  0  0  0  0  0  0  0  0  0  0
    2.1726    1.6239   -0.6304 H   0  0  0  0  0  0  0  0  0  0  0  0
    1.1269    3.0179   -0.5954 H   0  0  0  0  0  0  0  0  0  0  0  0
    1.1247    2.9587    1.9291 H   0  0  0  0  0  0  0  0  0  0  0  0
    2.2264    1.5737    1.8775 H   0  0  0  0  0  0  0  0  0  0  0  0
    2.7472    3.1420    1.2652 H   0  0  0  0  0  0  0  0  0  0  0  0
   -6.0600   -1.1444   -0.9627 H   0  0  0  0  0  0  0  0  0  0  0  0
   -7.3234   -2.0404   -0.1116 H   0  0  0  0  0  0  0  0  0  0  0  0
   -6.1066   -1.1316    0.7989 H   0  0  0  0  0  0  0  0  0  0  0  0
   -5.0316   -4.7722   -1.2602 H   0  0  0  0  0  0  0  0  0  0  0  0
   -6.6974   -4.1715   -1.3158 H   0  0  0  0  0  0  0  0  0  0  0  0
   -5.4197   -3.3235   -2.1921 H   0  0  0  0  0  0  0  0  0  0  0  0
   -5.6232   -3.2574    1.8676 H   0  0  0  0  0  0  0  0  0  0  0  0
    1.4981   -3.2268    0.1915 H   0  0  0  0  0  0  0  0  0  0  0  0
    3.3893   -2.3432    1.0947 H   0  0  0  0  0  0  0  0  0  0  0  0
    3.5188   -2.2889   -0.6714 H   0  0  0  0  0  0  0  0  0  0  0  0
    4.8601   -0.3606    1.2818 H   0  0  0  0  0  0  0  0  0  0  0  0
    5.0957   -0.6438   -1.7439 H   0  0  0  0  0  0  0  0  0  0  0  0
    4.4082    0.7392   -0.8888 H   0  0  0  0  0  0  0  0  0  0  0  0
    6.6073    1.2444   -1.3985 H   0  0  0  0  0  0  0  0  0  0  0  0
    7.5760   -0.9882   -1.5621 H   0  0  0  0  0  0  0  0  0  0  0  0
    8.4896    0.1396   -0.5600 H   0  0  0  0  0  0  0  0  0  0  0  0
    8.1518   -2.0830    0.5470 H   0  0  0  0  0  0  0  0  0  0  0  0
    7.4521   -0.7630    1.4766 H   0  0  0  0  0  0  0  0  0  0  0  0
    5.8377   -2.6306    1.3730 H   0  0  0  0  0  0  0  0  0  0  0  0
    5.9561   -2.6710   -0.3788 H   0  0  0  0  0  0  0  0  0  0  0  0
    2.5081   -0.6989    0.1886 O   0  0  0  0  0  0  0  0  0  0  0  0
   -3.9891    2.5210   -0.6246 N   0  0  0  0  0  0  0  0  0  0  0  0
  1  4  1  0
  1 15  3  0
  2 12  1  0
  2 13  1  0
  2 20  1  0
  3  6  1  0
  3 12  2  0
  4  5  2  0
  4  6  1  0
 57 21  1  0
 57 23  1  0
  5 22  1  0
  6 20  2  0
 58  7  1  0
  7  8  2  0
  7 11  1  0
  8  9  1  0
  9 10  1  0
 10 11  2  0
 11 12  1  0
 13 14  1  0
 16 15  1  1
 16 17  1  0
 16 18  1  0
 16 19  1  0
 20 21  1  0
 21 22  2  0
 23 24  1  0
 24 25  1  0
 24 29  1  0
 25 26  1  0
 26 27  1  0
 27 28  1  0
 28 29  1  0
 58 30  1  0
 58 31  1  0
 13 32  1  0
 13 33  1  0
 14 34  1  0
 14 35  1  0
 14 36  1  0
 17 37  1  0
 17 38  1  0
 17 39  1  0
 18 40  1  0
 18 41  1  0
 18 42  1  0
 19 43  1  0
 22 44  1  0
 23 45  1  0
 23 46  1  0
 24 47  1  1
 25 48  1  0
 25 49  1  0
 26 50  1  0
 27 51  1  0
 27 52  1  0
 28 53  1  0
 28 54  1  0
 29 55  1  0
 29 56  1  0
M  END
