
     RDKit          3D

  9  8  0  0  0  0  0  0  0  0999 V2000
   -0.8082   -0.0067   -0.1924 C   0  0  0  0  0  0  0  0  0  0  0  0
    0.2860    0.0004   -1.4345 S   0  0  0  0  0  0  0  0  0  0  0  0
   -0.5204    0.0097    1.0898 N   0  0  0  0  0  0  0  0  0  0  0  0
    0.8212    0.0407    1.6217 C   0  0  0  0  0  0  0  0  0  0  0  0
   -1.8783   -0.0265   -0.3865 H   0  0  0  0  0  0  0  0  0  0  0  0
   -1.2868    0.0070    1.7445 H   0  0  0  0  0  0  0  0  0  0  0  0
    0.7633    0.0303    2.7056 H   0  0  0  0  0  0  0  0  0  0  0  0
    1.3910   -0.8246    1.2837 H   0  0  0  0  0  0  0  0  0  0  0  0
    1.3460    0.9400    1.2986 H   0  0  0  0  0  0  0  0  0  0  0  0
  1  2  2  0
  1  3  1  0
  1  5  1  0
  3  4  1  0
  3  6  1  0
  4  7  1  0
  4  8  1  0
  4  9  1  0
M  END
