
     RDKit          3D

 49 52  0  0  0  0  0  0  0  0999 V2000
    4.7017   -0.7685    0.3119 C   0  0  0  0  0  0  0  0  0  0  0  0
    5.9513   -0.3828   -0.2269 C   0  0  0  0  0  0  0  0  0  0  0  0
    7.0394   -1.0752    0.2672 C   0  0  0  0  0  0  0  0  0  0  0  0
    6.9699   -2.0638    1.1592 N   0  0  0  0  0  0  0  0  0  0  0  0
    4.6272   -1.7894    1.1673 N   0  0  0  0  0  0  0  0  0  0  0  0
   -7.0753   -1.5138    0.1786 F   0  0  0  0  0  0  0  0  0  0  0  0
   -7.5389    0.3817   -0.7184 F   0  0  0  0  0  0  0  0  0  0  0  0
   -7.6519    0.1449    1.4171 F   0  0  0  0  0  0  0  0  0  0  0  0
   -5.5009    0.2148    0.4511 C   0  0  0  0  0  0  0  0  0  0  0  0
   -4.9204    0.3598    1.7214 C   0  0  0  0  0  0  0  0  0  0  0  0
   -3.5843    0.6832    1.8667 C   0  0  0  0  0  0  0  0  0  0  0  0
   -4.7575    0.3805   -0.7084 C   0  0  0  0  0  0  0  0  0  0  0  0
   -3.4130    0.7038   -0.5759 C   0  0  0  0  0  0  0  0  0  0  0  0
   -2.8466    0.8522    0.7030 C   0  0  0  0  0  0  0  0  0  0  0  0
   -1.5402    1.1638    0.4636 N   0  0  0  0  0  0  0  0  0  0  0  0
   -2.4582    0.9138   -1.5425 N   0  0  0  0  0  0  0  0  0  0  0  0
   -1.3663    1.1840   -0.8834 C   0  0  0  0  0  0  0  0  0  0  0  0
    1.0372    1.0643   -0.6442 N   0  0  0  0  0  0  0  0  0  0  0  0
    2.2891    1.7410   -0.9252 C   0  0  0  0  0  0  0  0  0  0  0  0
    3.3601    1.2663    0.0337 C   0  0  0  0  0  0  0  0  0  0  0  0
    1.2015   -0.3767   -0.7293 C   0  0  0  0  0  0  0  0  0  0  0  0
    2.2733   -0.8644    0.2282 C   0  0  0  0  0  0  0  0  0  0  0  0
    3.5197   -0.1776   -0.0616 N   0  0  0  0  0  0  0  0  0  0  0  0
    6.1629    0.6133   -1.3356 C   0  0  0  0  0  0  0  0  0  0  0  0
    6.8213    1.9153   -0.8806 C   0  0  0  0  0  0  0  0  0  0  0  0
    5.7468   -2.3827    1.5382 C   0  0  0  0  0  0  0  0  0  0  0  0
    8.0316   -0.8339   -0.1044 H   0  0  0  0  0  0  0  0  0  0  0  0
   -5.5172    0.2236    2.6127 H   0  0  0  0  0  0  0  0  0  0  0  0
   -3.1443    0.8010    2.8475 H   0  0  0  0  0  0  0  0  0  0  0  0
   -5.1928    0.2655   -1.6928 H   0  0  0  0  0  0  0  0  0  0  0  0
   -0.0069    1.1638   -2.5098 H   0  0  0  0  0  0  0  0  0  0  0  0
    0.0165    2.6298   -1.5394 H   0  0  0  0  0  0  0  0  0  0  0  0
    2.6283    1.5730   -1.9610 H   0  0  0  0  0  0  0  0  0  0  0  0
    2.1515    2.8162   -0.7942 H   0  0  0  0  0  0  0  0  0  0  0  0
    4.2905    1.7790   -0.1862 H   0  0  0  0  0  0  0  0  0  0  0  0
    3.0767    1.5398    1.0587 H   0  0  0  0  0  0  0  0  0  0  0  0
    0.2609   -0.8680   -0.4690 H   0  0  0  0  0  0  0  0  0  0  0  0
    1.4591   -0.6919   -1.7537 H   0  0  0  0  0  0  0  0  0  0  0  0
    1.9519   -0.6960    1.2643 H   0  0  0  0  0  0  0  0  0  0  0  0
    2.4046   -1.9361    0.0948 H   0  0  0  0  0  0  0  0  0  0  0  0
    6.8060    0.1469   -2.0860 H   0  0  0  0  0  0  0  0  0  0  0  0
    5.2214    0.8161   -1.8474 H   0  0  0  0  0  0  0  0  0  0  0  0
    6.9362    2.6005   -1.7206 H   0  0  0  0  0  0  0  0  0  0  0  0
    6.2409    2.4249   -0.1107 H   0  0  0  0  0  0  0  0  0  0  0  0
    7.8132    1.7273   -0.4687 H   0  0  0  0  0  0  0  0  0  0  0  0
    5.6460   -3.2118    2.2311 H   0  0  0  0  0  0  0  0  0  0  0  0
   -0.8062    1.3175    1.1385 H   0  0  0  0  0  0  0  0  0  0  0  0
   -0.0445    1.5386   -1.4769 C   0  0  0  0  0  0  0  0  0  0  0  0
   -6.9359   -0.1854    0.3354 C   0  0  1  0  0  0  0  0  0  0  0  0
 49  6  1  6
  8 49  1  0
 49  7  1  0
 49  9  1  0
  9 12  2  0
  9 10  1  0
 12 13  1  0
 10 11  2  0
 13 16  1  0
 13 14  2  0
 16 17  2  0
 25 24  1  0
 24  2  1  0
 11 14  1  0
 14 15  1  0
 17 15  1  0
 17 48  1  0
 22 21  1  0
 22 23  1  0
  2  3  2  0
  2  1  1  0
 48 18  1  0
 21 18  1  0
  3  4  1  0
 18 19  1  0
 23  1  1  0
 23 20  1  0
  1  5  2  0
  4 26  2  0
 20 19  1  0
  5 26  1  0
  3 27  1  0
 10 28  1  0
 11 29  1  0
 12 30  1  0
 48 31  1  0
 48 32  1  0
 19 33  1  0
 19 34  1  0
 20 35  1  0
 20 36  1  0
 21 37  1  0
 21 38  1  0
 22 39  1  0
 22 40  1  0
 24 41  1  0
 24 42  1  0
 25 43  1  0
 25 44  1  0
 25 45  1  0
 26 46  1  0
 15 47  1  0
M  END
