
     RDKit          3D

 28 29  0  0  0  0  0  0  0  0999 V2000
    0.3384    3.0728   -1.2696 N   0  0  0  0  0  0  0  0  0  0  0  0
    0.2353    2.1986   -0.1135 C   0  0  2  0  0  0  0  0  0  0  0  0
   -0.4846    2.9205    1.0180 C   0  0  0  0  0  0  0  0  0  0  0  0
   -0.1945    3.9675    1.6010 O   0  0  0  0  0  0  0  0  0  0  0  0
    1.6200    1.7182    0.3720 C   0  0  0  0  0  0  0  0  0  0  0  0
    1.5221    0.5119    1.2029 C   0  0  0  0  0  0  0  0  0  0  0  0
    1.3069    0.4891    2.6032 C   0  0  0  0  0  0  0  0  0  0  0  0
    1.6206   -0.8507    0.7836 C   0  0  0  0  0  0  0  0  0  0  0  0
    1.2724   -0.8205    3.0402 N   0  0  0  0  0  0  0  0  0  0  0  0
    1.4622   -1.6573    1.9428 C   0  0  0  0  0  0  0  0  0  0  0  0
    1.8321   -1.4735   -0.4884 C   0  0  0  0  0  0  0  0  0  0  0  0
    1.5017   -3.1057    1.9213 C   0  0  0  0  0  0  0  0  0  0  0  0
    1.8819   -2.8154   -0.5945 C   0  0  0  0  0  0  0  0  0  0  0  0
    1.7276   -3.7279    0.5552 C   0  0  0  0  0  0  0  0  0  0  0  0
    1.3641   -3.8141    2.9297 O   0  0  0  0  0  0  0  0  0  0  0  0
    1.7866   -5.0045    0.3794 N   0  0  0  0  0  0  0  0  0  0  0  0
   -1.6201    2.2858    1.4251 O   0  0  0  0  0  0  0  0  0  0  0  0
   -0.5513    3.4823   -1.4763 H   0  0  0  0  0  0  0  0  0  0  0  0
    0.6754    2.5610   -2.0598 H   0  0  0  0  0  0  0  0  0  0  0  0
   -0.3994    1.2801   -0.3288 H   0  0  0  0  0  0  0  0  0  0  0  0
   -2.0373    2.7866    2.1448 H   0  0  0  0  0  0  0  0  0  0  0  0
    2.2720    1.4986   -0.5169 H   0  0  0  0  0  0  0  0  0  0  0  0
    2.1053    2.5475    0.9551 H   0  0  0  0  0  0  0  0  0  0  0  0
    1.1815    1.3411    3.2796 H   0  0  0  0  0  0  0  0  0  0  0  0
    1.1372   -1.1340    3.9684 H   0  0  0  0  0  0  0  0  0  0  0  0
    1.9514   -0.8232   -1.3688 H   0  0  0  0  0  0  0  0  0  0  0  0
    2.0448   -3.2954   -1.5741 H   0  0  0  0  0  0  0  0  0  0  0  0
    2.5885   -5.4534    0.7787 H   0  0  0  0  0  0  0  0  0  0  0  0
  1  2  1  0
  1 18  1  0
  1 19  1  0
  2  3  1  0
  2  5  1  0
  2 20  1  6
  3  4  2  0
  3 17  1  0
 17 21  1  0
  5  6  1  0
  5 22  1  0
  5 23  1  0
  6  7  2  0
  6  8  1  0
  7  9  1  0
  7 24  1  0
  8 10  2  0
  8 11  1  0
  9 10  1  0
  9 25  1  0
 10 12  1  0
 11 13  2  0
 11 26  1  0
 12 14  1  0
 12 15  2  0
 13 14  1  0
 13 27  1  0
 14 16  2  0
 16 28  1  0
M  END
