
     RDKit          3D

 45 46  0  0  0  0  0  0  0  0999 V2000
    0.4772    2.7890    1.8097 O   0  0  0  0  0  0  0  0  0  0  0  0
    1.0939    2.1721    0.9535 C   0  0  0  0  0  0  0  0  0  0  0  0
    2.1022    2.6878    0.2402 N   0  0  0  0  0  0  0  0  0  0  0  0
    2.5710    4.0482    0.3989 C   0  0  0  0  0  0  0  0  0  0  0  0
    3.9878    4.1773   -0.1143 C   0  0  0  0  0  0  0  0  0  0  0  0
    4.0025    3.8209   -1.4797 O   0  0  0  0  0  0  0  0  0  0  0  0
    0.7612    0.7462    0.6471 C   0  0  0  0  0  0  0  0  0  0  0  0
    1.7859   -0.1679    0.4606 C   0  0  0  0  0  0  0  0  0  0  0  0
    1.5280   -1.5054    0.2008 C   0  0  0  0  0  0  0  0  0  0  0  0
    2.9039   -2.6060   -0.0520 S   0  0  1  0  0  0  0  0  0  0  0  0
    2.6948   -3.3148   -1.2994 O   0  0  0  0  0  0  0  0  0  0  0  0
    4.1047   -1.8135    0.1404 O   0  0  0  0  0  0  0  0  0  0  0  0
    2.8858   -3.7243    1.1418 N   0  0  0  0  0  0  0  0  0  0  0  0
   -0.5767    0.3189    0.5866 C   0  0  0  0  0  0  0  0  0  0  0  0
   -0.8315   -1.0262    0.3193 C   0  0  0  0  0  0  0  0  0  0  0  0
    0.2032   -1.9201    0.1227 C   0  0  0  0  0  0  0  0  0  0  0  0
   -0.2067   -3.5665   -0.1814 Cl  0  0  0  0  0  0  0  0  0  0  0  0
   -1.8631    1.4877    0.8141 S   0  0  0  0  0  0  0  0  0  0  0  0
   -3.3563    0.6676    0.1493 C   0  0  2  0  0  0  0  0  0  0  0  0
   -4.2302    1.7684   -0.4529 C   0  0  0  0  0  0  0  0  0  0  0  0
   -5.5261    1.1813   -1.0054 C   0  0  0  0  0  0  0  0  0  0  0  0
   -6.2887    0.3919    0.0517 C   0  0  0  0  0  0  0  0  0  0  0  0
   -5.4081   -0.6880    0.6716 C   0  0  0  0  0  0  0  0  0  0  0  0
   -4.1132   -0.1014    1.2270 C   0  0  0  0  0  0  0  0  0  0  0  0
    2.4311    2.1867   -0.5711 H   0  0  0  0  0  0  0  0  0  0  0  0
    1.9131    4.7482   -0.1260 H   0  0  0  0  0  0  0  0  0  0  0  0
    2.5546    4.3172    1.4545 H   0  0  0  0  0  0  0  0  0  0  0  0
    4.3166    5.2115    0.0429 H   0  0  0  0  0  0  0  0  0  0  0  0
    4.6468    3.5319    0.4775 H   0  0  0  0  0  0  0  0  0  0  0  0
    4.9147    3.6851   -1.7498 H   0  0  0  0  0  0  0  0  0  0  0  0
    2.8116    0.1681    0.5304 H   0  0  0  0  0  0  0  0  0  0  0  0
    2.1302   -4.3963    1.0869 H   0  0  0  0  0  0  0  0  0  0  0  0
    2.9928   -3.3442    2.0754 H   0  0  0  0  0  0  0  0  0  0  0  0
   -1.8420   -1.4013    0.2665 H   0  0  0  0  0  0  0  0  0  0  0  0
   -3.0461    0.0018   -0.6615 H   0  0  0  0  0  0  0  0  0  0  0  0
   -4.4606    2.5153    0.3144 H   0  0  0  0  0  0  0  0  0  0  0  0
   -3.6823    2.2848   -1.2435 H   0  0  0  0  0  0  0  0  0  0  0  0
   -6.1464    1.9865   -1.4051 H   0  0  0  0  0  0  0  0  0  0  0  0
   -5.2890    0.5235   -1.8481 H   0  0  0  0  0  0  0  0  0  0  0  0
   -6.6387    1.0710    0.8363 H   0  0  0  0  0  0  0  0  0  0  0  0
   -7.1810   -0.0585   -0.3889 H   0  0  0  0  0  0  0  0  0  0  0  0
   -5.9448   -1.2064    1.4691 H   0  0  0  0  0  0  0  0  0  0  0  0
   -5.1720   -1.4440   -0.0847 H   0  0  0  0  0  0  0  0  0  0  0  0
   -3.4933   -0.8932    1.6532 H   0  0  0  0  0  0  0  0  0  0  0  0
   -4.3434    0.5843    2.0488 H   0  0  0  0  0  0  0  0  0  0  0  0
  5  6  1  0
  5  4  1  0
  4  3  1  0
  1  2  2  0
 24 23  1  0
 24 19  1  0
 23 22  1  0
  2  3  1  0
  2  7  1  0
 19 18  1  0
 19 20  1  0
 18 14  1  0
 22 21  1  0
  7 14  2  0
  7  8  1  0
 14 15  1  0
 20 21  1  0
  8  9  2  0
 15 16  2  0
  9 16  1  0
  9 10  1  0
 16 17  1  0
 10 13  1  1
 11 10  2  0
 10 12  2  0
  3 25  1  0
  4 26  1  0
  4 27  1  0
  5 28  1  0
  5 29  1  0
  6 30  1  0
  8 31  1  0
 13 32  1  0
 13 33  1  0
 15 34  1  0
 19 35  1  6
 20 36  1  0
 20 37  1  0
 21 38  1  0
 21 39  1  0
 22 40  1  0
 22 41  1  0
 23 42  1  0
 23 43  1  0
 24 44  1  0
 24 45  1  0
M  END
