
     RDKit          3D

 36 38  0  0  0  0  0  0  0  0999 V2000
   -4.9441    0.7052    0.3100 S   0  0  0  0  0  0  0  0  0  0  0  0
   -3.4141   -0.0396   -0.0014 C   0  0  0  0  0  0  0  0  0  0  0  0
   -1.0411    0.0907   -0.0064 N   0  0  0  0  0  0  0  0  0  0  0  0
    5.2923   -2.6471   -0.0603 O   0  0  0  0  0  0  0  0  0  0  0  0
   -2.1919    0.7479   -0.0390 C   0  0  0  0  0  0  0  0  0  0  0  0
    0.1671    2.1267   -0.1107 N   0  0  0  0  0  0  0  0  0  0  0  0
    6.9328   -1.2901   -0.1734 O   0  0  0  0  0  0  0  0  0  0  0  0
    0.0835    0.8044   -0.0540 C   0  0  0  0  0  0  0  0  0  0  0  0
    1.2175    0.0443   -0.0313 N   0  0  0  0  0  0  0  0  0  0  0  0
   -0.9905    2.7777   -0.1366 C   0  0  0  0  0  0  0  0  0  0  0  0
    5.7500   -1.5307   -0.1261 N   0  0  0  0  0  0  0  0  0  0  0  0
   -2.2142    2.1466   -0.1089 C   0  0  0  0  0  0  0  0  0  0  0  0
   -4.8934   -1.8026   -0.0777 N   0  0  0  0  0  0  0  0  0  0  0  0
    2.5562    0.3904   -0.1018 C   0  0  0  0  0  0  0  0  0  0  0  0
    3.4681   -0.6684   -0.0811 C   0  0  0  0  0  0  0  0  0  0  0  0
    4.8231   -0.4055   -0.1501 C   0  0  0  0  0  0  0  0  0  0  0  0
    5.3285    0.8824   -0.2424 C   0  0  0  0  0  0  0  0  0  0  0  0
    4.4151    1.9217   -0.2626 C   0  0  0  0  0  0  0  0  0  0  0  0
    3.0482    1.6968   -0.1930 C   0  0  0  0  0  0  0  0  0  0  0  0
   -3.5968   -1.3899   -0.1840 C   0  0  0  0  0  0  0  0  0  0  0  0
   -5.7093   -0.8279    0.1784 C   0  0  0  0  0  0  0  0  0  0  0  0
   -7.1816   -0.9750    0.3257 C   0  0  0  0  0  0  0  0  0  0  0  0
   -2.5559   -2.4154   -0.4835 C   0  0  0  0  0  0  0  0  0  0  0  0
    1.0265   -0.9453    0.0222 H   0  0  0  0  0  0  0  0  0  0  0  0
   -0.9326    3.8588   -0.1864 H   0  0  0  0  0  0  0  0  0  0  0  0
   -3.1286    2.7206   -0.1513 H   0  0  0  0  0  0  0  0  0  0  0  0
    3.1082   -1.6860   -0.0108 H   0  0  0  0  0  0  0  0  0  0  0  0
    6.3888    1.0761   -0.2983 H   0  0  0  0  0  0  0  0  0  0  0  0
    4.7729    2.9397   -0.3353 H   0  0  0  0  0  0  0  0  0  0  0  0
    2.3665    2.5305   -0.2088 H   0  0  0  0  0  0  0  0  0  0  0  0
   -7.6918   -0.6761   -0.5915 H   0  0  0  0  0  0  0  0  0  0  0  0
   -7.4283   -2.0145    0.5295 H   0  0  0  0  0  0  0  0  0  0  0  0
   -7.5693   -0.3569    1.1340 H   0  0  0  0  0  0  0  0  0  0  0  0
   -2.0122   -2.6958    0.4197 H   0  0  0  0  0  0  0  0  0  0  0  0
   -3.0312   -3.3098   -0.8816 H   0  0  0  0  0  0  0  0  0  0  0  0
   -1.8182   -2.0545   -1.1954 H   0  0  0  0  0  0  0  0  0  0  0  0
  1 21  1  0
  2  1  1  0
  2 20  2  0
  3  5  2  0
  5  2  1  0
  6  8  2  0
  6 10  1  0
  8  3  1  0
  9  8  1  0
  9 14  1  0
  9 24  1  0
 10 12  2  0
 10 25  1  0
 11  4  2  0
 11  7  1  0
 12  5  1  0
 12 26  1  0
 13 21  2  0
 14 15  2  0
 15 16  1  0
 15 27  1  0
 16 11  1  0
 17 16  2  0
 17 28  1  0
 18 17  1  0
 18 29  1  0
 19 14  1  0
 19 18  2  0
 19 30  1  0
 20 13  1  0
 21 22  1  0
 22 31  1  0
 22 32  1  0
 22 33  1  0
 23 20  1  0
 23 34  1  0
 23 35  1  0
 23 36  1  0
M  CHG  2   7  -1  11   1
M  END
