
     RDKit          3D

 53 54  0  0  0  0  0  0  0  0999 V2000
    2.9489    0.2767   -0.3160 C   0  0  1  0  0  0  0  0  0  0  0  0
    1.5298    0.2995   -0.1971 N   0  0  0  0  0  0  0  0  0  0  0  0
    3.5497    1.5708    0.2389 C   0  0  2  0  0  0  0  0  0  0  0  0
   -0.6313   -0.1890   -0.7456 N   0  0  0  0  0  0  0  0  0  0  0  0
    3.1547    2.6856   -0.5175 O   0  0  0  0  0  0  0  0  0  0  0  0
    5.0674    1.4799    0.1697 C   0  0  1  0  0  0  0  0  0  0  0  0
    5.6928    2.5728    0.7986 O   0  0  0  0  0  0  0  0  0  0  0  0
    5.5624    0.2127    0.8572 C   0  0  2  0  0  0  0  0  0  0  0  0
    6.9438    0.0364    0.6665 O   0  0  0  0  0  0  0  0  0  0  0  0
    4.8395   -1.0042    0.2776 C   0  0  2  0  0  0  0  0  0  0  0  0
    3.4422   -0.8307    0.4002 O   0  0  0  0  0  0  0  0  0  0  0  0
    5.2111   -2.2786    1.0054 C   0  0  0  0  0  0  0  0  0  0  0  0
    4.5791   -3.3642    0.3709 O   0  0  0  0  0  0  0  0  0  0  0  0
    0.7039   -0.2377   -1.1367 C   0  0  0  0  0  0  0  0  0  0  0  0
    1.0819   -0.6787   -2.1983 O   0  0  0  0  0  0  0  0  0  0  0  0
   -1.7133   -0.6268   -1.4760 C   0  0  0  0  0  0  0  0  0  0  0  0
   -1.6171   -1.2105   -2.5321 O   0  0  0  0  0  0  0  0  0  0  0  0
   -3.0399   -0.3435   -0.8568 C   0  0  0  0  0  0  0  0  0  0  0  0
   -4.1321   -1.1045   -1.2743 C   0  0  0  0  0  0  0  0  0  0  0  0
   -5.3869   -0.8844   -0.7406 C   0  0  0  0  0  0  0  0  0  0  0  0
   -5.6129    0.1080    0.2188 C   0  0  0  0  0  0  0  0  0  0  0  0
   -4.5200    0.8752    0.6124 C   0  0  0  0  0  0  0  0  0  0  0  0
   -3.2545    0.6560    0.0861 C   0  0  0  0  0  0  0  0  0  0  0  0
   -7.0158    0.3194    0.7732 C   0  0  1  0  0  0  0  0  0  0  0  0
   -7.5302   -0.9971    1.3696 C   0  0  0  0  0  0  0  0  0  0  0  0
   -7.0527    1.3877    1.8654 C   0  0  0  0  0  0  0  0  0  0  0  0
   -7.9406    0.7580   -0.3708 C   0  0  0  0  0  0  0  0  0  0  0  0
    3.2084    0.1923   -1.3786 H   0  0  0  0  0  0  0  0  0  0  0  0
    1.1523    0.5512    0.7054 H   0  0  0  0  0  0  0  0  0  0  0  0
    3.2497    1.6716    1.2941 H   0  0  0  0  0  0  0  0  0  0  0  0
   -0.8266    0.1890    0.1688 H   0  0  0  0  0  0  0  0  0  0  0  0
    2.2194    2.8513   -0.3622 H   0  0  0  0  0  0  0  0  0  0  0  0
    5.3573    1.4227   -0.8919 H   0  0  0  0  0  0  0  0  0  0  0  0
    5.5545    3.3579    0.2598 H   0  0  0  0  0  0  0  0  0  0  0  0
    5.3157    0.2815    1.9291 H   0  0  0  0  0  0  0  0  0  0  0  0
    7.3940    0.8149    1.0110 H   0  0  0  0  0  0  0  0  0  0  0  0
    5.1143   -1.1039   -0.7855 H   0  0  0  0  0  0  0  0  0  0  0  0
    6.3012   -2.3792    0.9918 H   0  0  0  0  0  0  0  0  0  0  0  0
    4.9086   -2.1858    2.0578 H   0  0  0  0  0  0  0  0  0  0  0  0
    4.8546   -4.1695    0.8178 H   0  0  0  0  0  0  0  0  0  0  0  0
   -3.9979   -1.8807   -2.0156 H   0  0  0  0  0  0  0  0  0  0  0  0
   -6.2071   -1.5031   -1.0829 H   0  0  0  0  0  0  0  0  0  0  0  0
   -4.6339    1.6653    1.3408 H   0  0  0  0  0  0  0  0  0  0  0  0
   -2.4529    1.3066    0.4136 H   0  0  0  0  0  0  0  0  0  0  0  0
   -6.8991   -1.3297    2.1958 H   0  0  0  0  0  0  0  0  0  0  0  0
   -8.5422   -0.8634    1.7568 H   0  0  0  0  0  0  0  0  0  0  0  0
   -7.5685   -1.7989    0.6316 H   0  0  0  0  0  0  0  0  0  0  0  0
   -6.7317    2.3645    1.4997 H   0  0  0  0  0  0  0  0  0  0  0  0
   -8.0729    1.4975    2.2352 H   0  0  0  0  0  0  0  0  0  0  0  0
   -6.4249    1.1205    2.7176 H   0  0  0  0  0  0  0  0  0  0  0  0
   -7.9911    0.0137   -1.1669 H   0  0  0  0  0  0  0  0  0  0  0  0
   -8.9553    0.9099    0.0031 H   0  0  0  0  0  0  0  0  0  0  0  0
   -7.6033    1.6977   -0.8123 H   0  0  0  0  0  0  0  0  0  0  0  0
  1  2  1  0
  1  3  1  0
  1 11  1  0
  2 14  1  0
  3  5  1  0
  3  6  1  0
  4 14  1  0
  4 16  1  0
  6  7  1  0
  6  8  1  0
  8  9  1  0
  8 10  1  0
 10 11  1  0
 10 12  1  0
 12 13  1  0
 14 15  2  0
 16 17  2  0
 16 18  1  0
 18 19  2  0
 18 23  1  0
 19 20  1  0
 20 21  2  0
 21 22  1  0
 21 24  1  0
 22 23  2  0
 24 25  1  1
 24 26  1  0
 24 27  1  0
  1 28  1  6
  2 29  1  0
  3 30  1  1
  4 31  1  0
  5 32  1  0
  6 33  1  6
  7 34  1  0
  8 35  1  1
  9 36  1  0
 10 37  1  6
 12 38  1  0
 12 39  1  0
 13 40  1  0
 19 41  1  0
 20 42  1  0
 22 43  1  0
 23 44  1  0
 25 45  1  0
 25 46  1  0
 25 47  1  0
 26 48  1  0
 26 49  1  0
 26 50  1  0
 27 51  1  0
 27 52  1  0
 27 53  1  0
M  END
