
     RDKit          3D

 43 45  0  0  0  0  0  0  0  0999 V2000
    4.9159    2.8597    0.3084 C   0  0  0  0  0  0  0  0  0  0  0  0
    4.3998    1.4701    0.2221 C   0  0  0  0  0  0  0  0  0  0  0  0
    5.0452    0.2773   -0.0378 C   0  0  0  0  0  0  0  0  0  0  0  0
    4.1175   -0.7748    0.0480 C   0  0  0  0  0  0  0  0  0  0  0  0
    2.9051   -0.1985    0.3539 C   0  0  0  0  0  0  0  0  0  0  0  0
    3.1038    1.1528    0.4482 N   0  0  0  0  0  0  0  0  0  0  0  0
    1.6253   -0.8990    0.5283 C   0  0  0  0  0  0  0  0  0  0  0  0
    1.6043   -2.1170    0.6608 O   0  0  0  0  0  0  0  0  0  0  0  0
    0.5124   -0.1380    0.5416 N   0  0  0  0  0  0  0  0  0  0  0  0
   -0.8183   -0.6943    0.6737 C   0  0  1  0  0  0  0  0  0  0  0  0
   -1.7480    0.3139    1.3386 C   0  0  0  0  0  0  0  0  0  0  0  0
   -3.1476   -0.2683    1.4313 C   0  0  0  0  0  0  0  0  0  0  0  0
   -3.6497   -0.6540    0.1191 N   0  0  0  0  0  0  0  0  0  0  0  0
   -2.8170   -1.6613   -0.5203 C   0  0  0  0  0  0  0  0  0  0  0  0
   -1.3968   -1.1324   -0.6704 C   0  0  0  0  0  0  0  0  0  0  0  0
   -4.9640   -0.5588   -0.2080 C   0  0  0  0  0  0  0  0  0  0  0  0
   -5.7912    0.5441    0.1294 C   0  0  0  0  0  0  0  0  0  0  0  0
   -7.1612    0.4675   -0.0690 C   0  0  0  0  0  0  0  0  0  0  0  0
   -7.6929   -0.6392   -0.6998 C   0  0  0  0  0  0  0  0  0  0  0  0
   -6.7986   -1.6067   -1.1333 C   0  0  0  0  0  0  0  0  0  0  0  0
   -5.5038   -1.5778   -0.8783 N   0  0  0  0  0  0  0  0  0  0  0  0
   -5.2695    1.8255    0.5468 N   0  0  0  0  0  0  0  0  0  0  0  0
   -5.9488    2.5015    1.2874 O   0  0  0  0  0  0  0  0  0  0  0  0
   -4.2046    2.1832    0.0973 O   0  0  0  0  0  0  0  0  0  0  0  0
    6.8628    0.1120   -0.4297 Br  0  0  0  0  0  0  0  0  0  0  0  0
    5.3867    3.0495    1.2745 H   0  0  0  0  0  0  0  0  0  0  0  0
    5.6616    3.0480   -0.4625 H   0  0  0  0  0  0  0  0  0  0  0  0
    4.1138    3.5852    0.1811 H   0  0  0  0  0  0  0  0  0  0  0  0
    4.3025   -1.8245   -0.1117 H   0  0  0  0  0  0  0  0  0  0  0  0
    2.4161    1.8341    0.7299 H   0  0  0  0  0  0  0  0  0  0  0  0
    0.5646    0.8202    0.2339 H   0  0  0  0  0  0  0  0  0  0  0  0
   -0.7454   -1.5701    1.3239 H   0  0  0  0  0  0  0  0  0  0  0  0
   -1.3911    0.5517    2.3425 H   0  0  0  0  0  0  0  0  0  0  0  0
   -1.7744    1.2437    0.7647 H   0  0  0  0  0  0  0  0  0  0  0  0
   -3.1192   -1.1674    2.0615 H   0  0  0  0  0  0  0  0  0  0  0  0
   -3.8194    0.4198    1.9350 H   0  0  0  0  0  0  0  0  0  0  0  0
   -2.8120   -2.5865    0.0709 H   0  0  0  0  0  0  0  0  0  0  0  0
   -3.2280   -1.9069   -1.4953 H   0  0  0  0  0  0  0  0  0  0  0  0
   -1.3959   -0.2834   -1.3601 H   0  0  0  0  0  0  0  0  0  0  0  0
   -0.7735   -1.9140   -1.1087 H   0  0  0  0  0  0  0  0  0  0  0  0
   -7.7988    1.2934    0.2147 H   0  0  0  0  0  0  0  0  0  0  0  0
   -8.7519   -0.7267   -0.8913 H   0  0  0  0  0  0  0  0  0  0  0  0
   -7.1509   -2.4575   -1.7056 H   0  0  0  0  0  0  0  0  0  0  0  0
 25  3  1  0
 24 22  1  0
  3  4  1  0
  3  2  2  0
  4  5  2  0
 23 22  2  0
 22 17  1  0
  2  1  1  0
  2  6  1  0
 18 17  2  0
 18 19  1  0
 17 16  1  0
  5  6  1  0
  5  7  1  0
  9  7  1  0
  9 10  1  0
 19 20  2  0
 11 10  1  0
 11 12  1  0
 16 13  1  0
 16 21  2  0
 15 10  1  0
 15 14  1  0
 13 12  1  0
 13 14  1  0
  7  8  2  0
 20 21  1  0
  1 26  1  0
  1 27  1  0
  1 28  1  0
  4 29  1  0
  6 30  1  0
  9 31  1  0
 10 32  1  1
 11 33  1  0
 11 34  1  0
 12 35  1  0
 12 36  1  0
 14 37  1  0
 14 38  1  0
 15 39  1  0
 15 40  1  0
 18 41  1  0
 19 42  1  0
 20 43  1  0
M  CHG  2  22   1  24  -1
M  END
