
     RDKit          3D

 76 75  0  0  0  0  0  0  0  0999 V2000
   -0.3423    3.8878   -2.7224 O   0  0  0  0  0  0  0  0  0  0  0  0
   -1.9045    4.7832   -0.8356 O   0  0  0  0  0  0  0  0  0  0  0  0
   -1.1780    3.6560   -1.4997 P   0  0  1  0  0  0  0  0  0  0  0  0
   -2.2861    2.4901   -1.7965 O   0  0  0  0  0  0  0  0  0  0  0  0
   -0.2650    2.8557   -0.3864 O   0  0  0  0  0  0  0  0  0  0  0  0
    0.3974    3.5586    0.6320 C   0  0  0  0  0  0  0  0  0  0  0  0
    0.7929    2.6193    1.7588 C   0  0  1  0  0  0  0  0  0  0  0  0
   -0.3633    2.0495    2.5503 C   0  0  0  0  0  0  0  0  0  0  0  0
   -1.1508    1.2127    1.7122 O   0  0  0  0  0  0  0  0  0  0  0  0
   -2.3871    0.9161    2.0906 C   0  0  0  0  0  0  0  0  0  0  0  0
   -2.8525    1.2433    3.1546 O   0  0  0  0  0  0  0  0  0  0  0  0
   -3.1141    0.1558    1.0164 C   0  0  0  0  0  0  0  0  0  0  0  0
   -4.4943   -0.3282    1.4288 C   0  0  0  0  0  0  0  0  0  0  0  0
   -5.2143   -1.0266    0.2822 C   0  0  0  0  0  0  0  0  0  0  0  0
   -6.5977   -1.5337    0.6690 C   0  0  0  0  0  0  0  0  0  0  0  0
   -7.3299   -2.2093   -0.4836 C   0  0  0  0  0  0  0  0  0  0  0  0
   -8.7138   -2.7207   -0.1025 C   0  0  0  0  0  0  0  0  0  0  0  0
   -9.4455   -3.3897   -1.2592 C   0  0  0  0  0  0  0  0  0  0  0  0
  -10.8359   -3.8904   -0.8870 C   0  0  0  0  0  0  0  0  0  0  0  0
  -11.5525   -4.5639   -2.0493 C   0  0  0  0  0  0  0  0  0  0  0  0
    1.5585    1.5126    1.2702 O   0  0  0  0  0  0  0  0  0  0  0  0
    2.8676    1.6579    1.0812 C   0  0  0  0  0  0  0  0  0  0  0  0
    3.4672    2.6775    1.3132 O   0  0  0  0  0  0  0  0  0  0  0  0
    3.4813    0.3970    0.5375 C   0  0  0  0  0  0  0  0  0  0  0  0
    5.0014    0.3926    0.5665 C   0  0  0  0  0  0  0  0  0  0  0  0
    5.5719   -0.9168    0.0364 C   0  0  0  0  0  0  0  0  0  0  0  0
    7.0936   -0.9643    0.0818 C   0  0  0  0  0  0  0  0  0  0  0  0
    7.6657   -2.2766   -0.4396 C   0  0  0  0  0  0  0  0  0  0  0  0
    9.1866   -2.3387   -0.3781 C   0  0  0  0  0  0  0  0  0  0  0  0
    9.7549   -3.6547   -0.8943 C   0  0  0  0  0  0  0  0  0  0  0  0
   11.2751   -3.7272   -0.8222 C   0  0  0  0  0  0  0  0  0  0  0  0
   11.8280   -5.0497   -1.3355 C   0  0  0  0  0  0  0  0  0  0  0  0
   -1.9578    1.7981   -2.3807 H   0  0  0  0  0  0  0  0  0  0  0  0
   -0.2320    4.3426    1.0663 H   0  0  0  0  0  0  0  0  0  0  0  0
    1.2984    4.0518    0.2488 H   0  0  0  0  0  0  0  0  0  0  0  0
    1.3839    3.2057    2.4696 H   0  0  0  0  0  0  0  0  0  0  0  0
   -0.9518    2.8811    2.9440 H   0  0  0  0  0  0  0  0  0  0  0  0
    0.0126    1.4760    3.4021 H   0  0  0  0  0  0  0  0  0  0  0  0
   -2.4901   -0.6845    0.6966 H   0  0  0  0  0  0  0  0  0  0  0  0
   -3.1779    0.8163    0.1449 H   0  0  0  0  0  0  0  0  0  0  0  0
   -4.4089   -1.0133    2.2770 H   0  0  0  0  0  0  0  0  0  0  0  0
   -5.0972    0.5166    1.7724 H   0  0  0  0  0  0  0  0  0  0  0  0
   -4.6083   -1.8660   -0.0764 H   0  0  0  0  0  0  0  0  0  0  0  0
   -5.3048   -0.3350   -0.5624 H   0  0  0  0  0  0  0  0  0  0  0  0
   -7.1997   -0.6971    1.0411 H   0  0  0  0  0  0  0  0  0  0  0  0
   -6.5058   -2.2370    1.5037 H   0  0  0  0  0  0  0  0  0  0  0  0
   -6.7261   -3.0434   -0.8586 H   0  0  0  0  0  0  0  0  0  0  0  0
   -7.4219   -1.5034   -1.3163 H   0  0  0  0  0  0  0  0  0  0  0  0
   -9.3166   -1.8875    0.2757 H   0  0  0  0  0  0  0  0  0  0  0  0
   -8.6223   -3.4299    0.7274 H   0  0  0  0  0  0  0  0  0  0  0  0
   -8.8465   -4.2287   -1.6313 H   0  0  0  0  0  0  0  0  0  0  0  0
   -9.5281   -2.6838   -2.0930 H   0  0  0  0  0  0  0  0  0  0  0  0
  -11.4355   -3.0513   -0.5200 H   0  0  0  0  0  0  0  0  0  0  0  0
  -10.7555   -4.5925   -0.0515 H   0  0  0  0  0  0  0  0  0  0  0  0
  -10.9968   -5.4356   -2.3999 H   0  0  0  0  0  0  0  0  0  0  0  0
  -12.5501   -4.9016   -1.7660 H   0  0  0  0  0  0  0  0  0  0  0  0
  -11.6617   -3.8823   -2.8951 H   0  0  0  0  0  0  0  0  0  0  0  0
    3.0828   -0.4565    1.0930 H   0  0  0  0  0  0  0  0  0  0  0  0
    3.1203    0.2706   -0.4896 H   0  0  0  0  0  0  0  0  0  0  0  0
    5.3904    1.2252   -0.0250 H   0  0  0  0  0  0  0  0  0  0  0  0
    5.3494    0.5517    1.5910 H   0  0  0  0  0  0  0  0  0  0  0  0
    5.1659   -1.7527    0.6168 H   0  0  0  0  0  0  0  0  0  0  0  0
    5.2337   -1.0719   -0.9941 H   0  0  0  0  0  0  0  0  0  0  0  0
    7.5027   -0.1314   -0.5006 H   0  0  0  0  0  0  0  0  0  0  0  0
    7.4296   -0.8064    1.1127 H   0  0  0  0  0  0  0  0  0  0  0  0
    7.2453   -3.1085    0.1366 H   0  0  0  0  0  0  0  0  0  0  0  0
    7.3375   -2.4300   -1.4737 H   0  0  0  0  0  0  0  0  0  0  0  0
    9.6089   -1.5085   -0.9554 H   0  0  0  0  0  0  0  0  0  0  0  0
    9.5136   -2.1837    0.6563 H   0  0  0  0  0  0  0  0  0  0  0  0
    9.3253   -4.4845   -0.3216 H   0  0  0  0  0  0  0  0  0  0  0  0
    9.4345   -3.8073   -1.9312 H   0  0  0  0  0  0  0  0  0  0  0  0
   11.7044   -2.9010   -1.3979 H   0  0  0  0  0  0  0  0  0  0  0  0
   11.5959   -3.5726    0.2130 H   0  0  0  0  0  0  0  0  0  0  0  0
   11.5691   -5.2046   -2.3845 H   0  0  0  0  0  0  0  0  0  0  0  0
   12.9150   -5.0902   -1.2553 H   0  0  0  0  0  0  0  0  0  0  0  0
   11.4229   -5.8910   -0.7697 H   0  0  0  0  0  0  0  0  0  0  0  0
  3  1  1  6
  2  3  2  0
  3  4  1  0
  3  5  1  0
  4 33  1  0
  5  6  1  0
  6  7  1  0
  6 34  1  0
  6 35  1  0
  7  8  1  0
  7 21  1  0
  7 36  1  1
  8  9  1  0
  8 37  1  0
  8 38  1  0
  9 10  1  0
 10 11  2  0
 10 12  1  0
 12 13  1  0
 12 39  1  0
 12 40  1  0
 13 14  1  0
 13 41  1  0
 13 42  1  0
 14 15  1  0
 14 43  1  0
 14 44  1  0
 15 16  1  0
 15 45  1  0
 15 46  1  0
 16 17  1  0
 16 47  1  0
 16 48  1  0
 17 18  1  0
 17 49  1  0
 17 50  1  0
 18 19  1  0
 18 51  1  0
 18 52  1  0
 19 20  1  0
 19 53  1  0
 19 54  1  0
 20 55  1  0
 20 56  1  0
 20 57  1  0
 21 22  1  0
 22 23  2  0
 22 24  1  0
 24 25  1  0
 24 58  1  0
 24 59  1  0
 25 26  1  0
 25 60  1  0
 25 61  1  0
 26 27  1  0
 26 62  1  0
 26 63  1  0
 27 28  1  0
 27 64  1  0
 27 65  1  0
 28 29  1  0
 28 66  1  0
 28 67  1  0
 29 30  1  0
 29 68  1  0
 29 69  1  0
 30 31  1  0
 30 70  1  0
 30 71  1  0
 31 32  1  0
 31 72  1  0
 31 73  1  0
 32 74  1  0
 32 75  1  0
 32 76  1  0
M  CHG  1   1  -1
M  END
