
     RDKit          3D

 41 42  0  0  0  0  0  0  0  0999 V2000
   -8.8339   -0.8404    0.1401 N   0  0  0  0  0  0  0  0  0  0  0  0
   -7.7458    0.1260    0.1444 C   0  0  0  0  0  0  0  0  0  0  0  0
   -6.4045   -0.5727   -0.0220 C   0  0  0  0  0  0  0  0  0  0  0  0
   -5.2560    0.4238   -0.0206 C   0  0  0  0  0  0  0  0  0  0  0  0
   -3.9001   -0.2094   -0.2527 C   0  0  0  0  0  0  0  0  0  0  0  0
   -3.7611   -1.2719   -0.8345 O   0  0  0  0  0  0  0  0  0  0  0  0
   -2.8679    0.5329    0.2198 N   0  0  0  0  0  0  0  0  0  0  0  0
   -1.4877    0.3163    0.1111 C   0  0  0  0  0  0  0  0  0  0  0  0
   -0.9014   -0.7940   -0.5024 C   0  0  0  0  0  0  0  0  0  0  0  0
    0.4765   -0.9097   -0.5603 C   0  0  0  0  0  0  0  0  0  0  0  0
    1.3112    0.0636   -0.0157 C   0  0  0  0  0  0  0  0  0  0  0  0
    0.7326    1.1687    0.6007 C   0  0  0  0  0  0  0  0  0  0  0  0
   -0.6486    1.2842    0.6569 C   0  0  0  0  0  0  0  0  0  0  0  0
    2.6407   -0.1448   -0.1351 O   0  0  0  0  0  0  0  0  0  0  0  0
    3.5269    0.7837    0.4710 C   0  0  0  0  0  0  0  0  0  0  0  0
    4.9241    0.2974    0.2298 C   0  0  0  0  0  0  0  0  0  0  0  0
    5.7711    0.9722   -0.6416 C   0  0  0  0  0  0  0  0  0  0  0  0
    7.0618    0.5108   -0.8720 C   0  0  0  0  0  0  0  0  0  0  0  0
    7.5126   -0.6359   -0.2342 C   0  0  0  0  0  0  0  0  0  0  0  0
    6.6704   -1.3184    0.6367 C   0  0  0  0  0  0  0  0  0  0  0  0
    5.3847   -0.8532    0.8672 C   0  0  0  0  0  0  0  0  0  0  0  0
   -8.7817   -1.4018    0.9815 H   0  0  0  0  0  0  0  0  0  0  0  0
   -9.7183   -0.3517    0.1961 H   0  0  0  0  0  0  0  0  0  0  0  0
   -7.8940    0.8134   -0.6934 H   0  0  0  0  0  0  0  0  0  0  0  0
   -7.7170    0.7501    1.0498 H   0  0  0  0  0  0  0  0  0  0  0  0
   -6.2674   -1.2942    0.7895 H   0  0  0  0  0  0  0  0  0  0  0  0
   -6.4117   -1.1419   -0.9535 H   0  0  0  0  0  0  0  0  0  0  0  0
   -5.4061    1.1623   -0.8166 H   0  0  0  0  0  0  0  0  0  0  0  0
   -5.2498    0.9920    0.9137 H   0  0  0  0  0  0  0  0  0  0  0  0
   -3.1220    1.3882    0.6904 H   0  0  0  0  0  0  0  0  0  0  0  0
   -1.5047   -1.5739   -0.9359 H   0  0  0  0  0  0  0  0  0  0  0  0
    0.9146   -1.7771   -1.0382 H   0  0  0  0  0  0  0  0  0  0  0  0
    1.3291    1.9554    1.0420 H   0  0  0  0  0  0  0  0  0  0  0  0
   -1.0754    2.1571    1.1370 H   0  0  0  0  0  0  0  0  0  0  0  0
    3.3929    1.7842    0.0451 H   0  0  0  0  0  0  0  0  0  0  0  0
    3.3231    0.8516    1.5459 H   0  0  0  0  0  0  0  0  0  0  0  0
    5.4234    1.8674   -1.1433 H   0  0  0  0  0  0  0  0  0  0  0  0
    7.7118    1.0459   -1.5518 H   0  0  0  0  0  0  0  0  0  0  0  0
    8.5176   -0.9962   -0.4115 H   0  0  0  0  0  0  0  0  0  0  0  0
    7.0185   -2.2119    1.1386 H   0  0  0  0  0  0  0  0  0  0  0  0
    4.7357   -1.3850    1.5527 H   0  0  0  0  0  0  0  0  0  0  0  0
  1  2  1  0
  2  3  1  0
  3  4  1  0
  4  5  1  0
  5  6  2  0
  5  7  1  0
  7  8  1  0
  8  9  2  0
  8 13  1  0
  9 10  1  0
 10 11  2  0
 11 12  1  0
 11 14  1  0
 12 13  2  0
 14 15  1  0
 15 16  1  0
 16 17  2  0
 16 21  1  0
 17 18  1  0
 18 19  2  0
 19 20  1  0
 20 21  2  0
  1 22  1  0
  1 23  1  0
  2 24  1  0
  2 25  1  0
  3 26  1  0
  3 27  1  0
  4 28  1  0
  4 29  1  0
  7 30  1  0
  9 31  1  0
 10 32  1  0
 12 33  1  0
 13 34  1  0
 15 35  1  0
 15 36  1  0
 17 37  1  0
 18 38  1  0
 19 39  1  0
 20 40  1  0
 21 41  1  0
M  END
