
     RDKit          3D

 49 52  0  0  0  0  0  0  0  0999 V2000
   -2.7098   -1.6309    0.1658 C   0  0  0  0  0  0  0  0  0  0  0  0
   -3.5425   -2.7006    0.2530 O   0  0  0  0  0  0  0  0  0  0  0  0
   -3.7344   -3.3949   -0.9719 C   0  0  0  0  0  0  0  0  0  0  0  0
   -1.3406   -1.7901    0.4119 C   0  0  0  0  0  0  0  0  0  0  0  0
   -0.9338   -3.0405    0.6965 O   0  0  0  0  0  0  0  0  0  0  0  0
    0.4424   -3.2540    0.9365 C   0  0  0  0  0  0  0  0  0  0  0  0
   -0.5061   -0.6831    0.3621 C   0  0  0  0  0  0  0  0  0  0  0  0
   -1.0151    0.5754    0.0418 C   0  0  0  0  0  0  0  0  0  0  0  0
   -0.1820    1.7697   -0.0042 C   0  0  0  0  0  0  0  0  0  0  0  0
    1.1850    1.9979   -0.0520 C   0  0  0  0  0  0  0  0  0  0  0  0
    2.3382    1.1042   -0.1626 C   0  0  0  0  0  0  0  0  0  0  0  0
    2.3735    0.1073   -1.1418 C   0  0  0  0  0  0  0  0  0  0  0  0
    3.4474   -0.7520   -1.2434 C   0  0  0  0  0  0  0  0  0  0  0  0
    4.5307   -0.6331   -0.3672 C   0  0  0  0  0  0  0  0  0  0  0  0
    5.5300   -1.5149   -0.5350 O   0  0  0  0  0  0  0  0  0  0  0  0
    6.6370   -1.4607    0.3436 C   0  0  0  0  0  0  0  0  0  0  0  0
    4.5159    0.3653    0.6036 C   0  0  0  0  0  0  0  0  0  0  0  0
    3.4245    1.2193    0.6979 C   0  0  0  0  0  0  0  0  0  0  0  0
    1.3237    3.3373    0.0224 N   0  0  0  0  0  0  0  0  0  0  0  0
    0.1670    3.9967    0.0960 N   0  0  0  0  0  0  0  0  0  0  0  0
   -0.7521    3.0556    0.0818 C   0  0  0  0  0  0  0  0  0  0  0  0
   -2.2245    3.2467    0.1789 C   0  0  0  0  0  0  0  0  0  0  0  0
   -2.9161    2.1138   -0.5819 C   0  0  0  0  0  0  0  0  0  0  0  0
   -2.3832    0.7516   -0.2032 C   0  0  0  0  0  0  0  0  0  0  0  0
   -3.2111   -0.3697   -0.1465 C   0  0  0  0  0  0  0  0  0  0  0  0
   -4.5387   -0.2522   -0.4257 O   0  0  0  0  0  0  0  0  0  0  0  0
   -5.3621   -0.0807    0.7203 C   0  0  0  0  0  0  0  0  0  0  0  0
   -4.2014   -2.7581   -1.7270 H   0  0  0  0  0  0  0  0  0  0  0  0
   -2.7936   -3.7826   -1.3700 H   0  0  0  0  0  0  0  0  0  0  0  0
   -4.3967   -4.2337   -0.7650 H   0  0  0  0  0  0  0  0  0  0  0  0
    1.0566   -2.9714    0.0768 H   0  0  0  0  0  0  0  0  0  0  0  0
    0.7936   -2.7054    1.8144 H   0  0  0  0  0  0  0  0  0  0  0  0
    0.5635   -4.3189    1.1184 H   0  0  0  0  0  0  0  0  0  0  0  0
    0.5483   -0.7835    0.5752 H   0  0  0  0  0  0  0  0  0  0  0  0
    1.5493    0.0063   -1.8363 H   0  0  0  0  0  0  0  0  0  0  0  0
    3.4599   -1.5207   -2.0057 H   0  0  0  0  0  0  0  0  0  0  0  0
    7.1691   -0.5087    0.2724 H   0  0  0  0  0  0  0  0  0  0  0  0
    6.3397   -1.6225    1.3827 H   0  0  0  0  0  0  0  0  0  0  0  0
    7.3094   -2.2600    0.0425 H   0  0  0  0  0  0  0  0  0  0  0  0
    5.3320    0.4906    1.3019 H   0  0  0  0  0  0  0  0  0  0  0  0
    3.4231    1.9725    1.4761 H   0  0  0  0  0  0  0  0  0  0  0  0
    2.1865    3.8535   -0.0501 H   0  0  0  0  0  0  0  0  0  0  0  0
   -2.5321    3.2265    1.2298 H   0  0  0  0  0  0  0  0  0  0  0  0
   -2.5281    4.2143   -0.2224 H   0  0  0  0  0  0  0  0  0  0  0  0
   -3.9912    2.1718   -0.4186 H   0  0  0  0  0  0  0  0  0  0  0  0
   -2.7642    2.2655   -1.6567 H   0  0  0  0  0  0  0  0  0  0  0  0
   -6.3897   -0.0083    0.3694 H   0  0  0  0  0  0  0  0  0  0  0  0
   -5.2826   -0.9258    1.4069 H   0  0  0  0  0  0  0  0  0  0  0  0
   -5.1112    0.8364    1.2605 H   0  0  0  0  0  0  0  0  0  0  0  0
  1  2  1  0
  1  4  2  0
  1 25  1  0
  2  3  1  0
  4  5  1  0
  4  7  1  0
  5  6  1  0
  7  8  2  0
  8  9  1  0
  8 24  1  0
  9 10  2  0
  9 21  1  0
 10 11  1  0
 10 19  1  0
 11 12  2  0
 11 18  1  0
 12 13  1  0
 13 14  2  0
 14 15  1  0
 14 17  1  0
 15 16  1  0
 17 18  2  0
 19 20  1  0
 20 21  2  0
 22 23  1  0
 23 24  1  0
 24 25  2  0
 25 26  1  0
 26 27  1  0
  3 28  1  0
  3 29  1  0
  3 30  1  0
  6 31  1  0
  6 32  1  0
  6 33  1  0
  7 34  1  0
 12 35  1  0
 13 36  1  0
 16 37  1  0
 16 38  1  0
 16 39  1  0
 17 40  1  0
 18 41  1  0
 19 42  1  0
 22 43  1  0
 22 44  1  0
 23 45  1  0
 23 46  1  0
 27 47  1  0
 27 48  1  0
 27 49  1  0
 22 21  1  0
M  END
