
     RDKit          3D

 17 18  0  0  0  0  0  0  0  0999 V2000
   -2.8860   -0.2937   -0.0507 C   0  0  0  0  0  0  0  0  0  0  0  0
   -1.4986    0.0375   -0.0331 C   0  0  0  0  0  0  0  0  0  0  0  0
   -1.1157    1.3948   -0.0215 C   0  0  0  0  0  0  0  0  0  0  0  0
    0.2136    1.7472   -0.0048 C   0  0  0  0  0  0  0  0  0  0  0  0
    1.1865    0.7408    0.0002 C   0  0  0  0  0  0  0  0  0  0  0  0
    0.7761   -0.6127   -0.0113 C   0  0  0  0  0  0  0  0  0  0  0  0
   -0.5598   -0.9844   -0.0278 C   0  0  0  0  0  0  0  0  0  0  0  0
    3.0023   -0.5665    0.0128 C   0  0  0  0  0  0  0  0  0  0  0  0
    2.6111    0.7397    0.0155 C   0  0  0  0  0  0  0  0  0  0  0  0
   -4.0085   -0.5551   -0.0642 N   0  0  0  0  0  0  0  0  0  0  0  0
    1.9056   -1.3789   -0.0031 N   0  0  0  0  0  0  0  0  0  0  0  0
   -1.8807    2.1582   -0.0263 H   0  0  0  0  0  0  0  0  0  0  0  0
    0.4974    2.7910    0.0031 H   0  0  0  0  0  0  0  0  0  0  0  0
   -0.8699   -2.0207   -0.0343 H   0  0  0  0  0  0  0  0  0  0  0  0
    3.9955   -0.9847    0.0227 H   0  0  0  0  0  0  0  0  0  0  0  0
    3.2635    1.5966    0.0267 H   0  0  0  0  0  0  0  0  0  0  0  0
    1.9294   -2.3823   -0.0095 H   0  0  0  0  0  0  0  0  0  0  0  0
 10  1  3  0
  1  2  1  0
  2  3  2  0
  2  7  1  0
  3  4  1  0
  7  6  2  0
  4  5  2  0
  6  5  1  0
  6 11  1  0
  5  9  1  0
 11  8  1  0
  9  8  2  0
  3 12  1  0
  4 13  1  0
  7 14  1  0
  8 15  1  0
  9 16  1  0
 11 17  1  0
M  END
