
     RDKit          3D

 48 52  0  0  0  0  0  0  0  0999 V2000
   -1.9989    0.6045   -2.2735 C   0  0  0  0  0  0  0  0  0  0  0  0
   -3.2865    0.7530   -2.0797 N   0  0  0  0  0  0  0  0  0  0  0  0
   -3.7874    0.3052   -0.9114 C   0  0  0  0  0  0  0  0  0  0  0  0
   -5.0999    0.4425   -0.6781 N   0  0  0  0  0  0  0  0  0  0  0  0
   -5.5266   -0.0090    0.4921 C   0  0  0  0  0  0  0  0  0  0  0  0
   -6.8326    0.1197    0.7672 N   0  0  0  0  0  0  0  0  0  0  0  0
   -4.7892   -0.5828    1.4719 N   0  0  0  0  0  0  0  0  0  0  0  0
   -3.5018   -0.7266    1.2599 C   0  0  0  0  0  0  0  0  0  0  0  0
   -2.7188   -1.2751    2.1812 N   0  0  0  0  0  0  0  0  0  0  0  0
   -2.9125   -0.2830    0.0183 C   0  0  0  0  0  0  0  0  0  0  0  0
   -1.6109   -0.4344   -0.1993 N   0  0  0  0  0  0  0  0  0  0  0  0
   -1.1297    0.0019   -1.3409 C   0  0  0  0  0  0  0  0  0  0  0  0
    0.3391   -0.1679   -1.6381 C   0  0  0  0  0  0  0  0  0  0  0  0
    1.1554    0.0514   -0.4701 N   0  0  0  0  0  0  0  0  0  0  0  0
    1.2112    1.4064    0.0456 C   0  0  1  0  0  0  0  0  0  0  0  0
    0.8325    1.4504    1.5011 C   0  0  0  0  0  0  0  0  0  0  0  0
    1.4042    2.2546    2.3891 C   0  0  0  0  0  0  0  0  0  0  0  0
    2.5110    3.1931    2.0366 C   0  0  0  0  0  0  0  0  0  0  0  0
    3.0760    2.9294    0.6799 C   0  0  0  0  0  0  0  0  0  0  0  0
    2.5316    2.1006   -0.2120 C   0  0  0  0  0  0  0  0  0  0  0  0
    3.2225    1.8300   -1.4884 C   0  0  0  0  0  0  0  0  0  0  0  0
    3.6430    0.6168   -1.8574 C   0  0  0  0  0  0  0  0  0  0  0  0
    3.4597   -0.5877   -1.0414 C   0  0  0  0  0  0  0  0  0  0  0  0
    4.4846   -1.5304   -0.9707 C   0  0  0  0  0  0  0  0  0  0  0  0
    2.2778   -0.7921   -0.3159 C   0  0  0  0  0  0  0  0  0  0  0  0
    2.1749   -1.9188    0.4924 C   0  0  0  0  0  0  0  0  0  0  0  0
    3.2006   -2.8454    0.5833 C   0  0  0  0  0  0  0  0  0  0  0  0
    4.3622   -2.6552   -0.1621 C   0  0  0  0  0  0  0  0  0  0  0  0
    5.3316   -3.5879   -0.0670 O   0  0  0  0  0  0  0  0  0  0  0  0
   -1.5969    0.9771   -3.2108 H   0  0  0  0  0  0  0  0  0  0  0  0
   -7.4658    0.4407    0.0566 H   0  0  0  0  0  0  0  0  0  0  0  0
   -7.2162   -0.3005    1.5945 H   0  0  0  0  0  0  0  0  0  0  0  0
   -3.1019   -1.6221    3.0437 H   0  0  0  0  0  0  0  0  0  0  0  0
   -1.7410   -1.4145    1.9902 H   0  0  0  0  0  0  0  0  0  0  0  0
    0.5028   -1.1928   -1.9807 H   0  0  0  0  0  0  0  0  0  0  0  0
    0.6064    0.4780   -2.4870 H   0  0  0  0  0  0  0  0  0  0  0  0
    0.4435    1.9665   -0.5081 H   0  0  0  0  0  0  0  0  0  0  0  0
    0.0250    0.7882    1.7926 H   0  0  0  0  0  0  0  0  0  0  0  0
    1.0665    2.2484    3.4195 H   0  0  0  0  0  0  0  0  0  0  0  0
    2.1571    4.2299    2.1017 H   0  0  0  0  0  0  0  0  0  0  0  0
    3.3097    3.1305    2.7832 H   0  0  0  0  0  0  0  0  0  0  0  0
    4.0091    3.4279    0.4365 H   0  0  0  0  0  0  0  0  0  0  0  0
    4.2278    0.5164   -2.7657 H   0  0  0  0  0  0  0  0  0  0  0  0
    5.3891   -1.3771   -1.5516 H   0  0  0  0  0  0  0  0  0  0  0  0
    1.2547   -2.0748    1.0418 H   0  0  0  0  0  0  0  0  0  0  0  0
    3.1007   -3.7194    1.2148 H   0  0  0  0  0  0  0  0  0  0  0  0
    6.0789   -3.3551   -0.6291 H   0  0  0  0  0  0  0  0  0  0  0  0
    3.4711    2.6790   -2.1170 H   0  0  0  0  0  0  0  0  0  0  0  0
  1  2  2  0
  1 12  1  0
  1 30  1  0
  2  3  1  0
  3  4  2  0
  3 10  1  0
  4  5  1  0
  5  6  1  0
  5  7  2  0
  6 31  1  0
  6 32  1  0
  7  8  1  0
  8  9  1  0
  8 10  2  0
  9 33  1  0
  9 34  1  0
 10 11  1  0
 11 12  2  0
 12 13  1  0
 13 14  1  0
 13 35  1  0
 13 36  1  0
 14 15  1  0
 14 25  1  0
 15 16  1  0
 15 20  1  0
 15 37  1  6
 16 17  2  0
 16 38  1  0
 17 18  1  0
 17 39  1  0
 18 19  1  0
 18 40  1  0
 18 41  1  0
 19 20  2  0
 19 42  1  0
 20 21  1  0
 21 22  2  0
 22 23  1  0
 22 43  1  0
 23 24  1  0
 23 25  2  0
 24 28  2  0
 24 44  1  0
 25 26  1  0
 26 27  2  0
 26 45  1  0
 27 28  1  0
 27 46  1  0
 28 29  1  0
 29 47  1  0
 21 48  1  0
M  END
