
     RDKit          3D

 40 42  0  0  0  0  0  0  0  0999 V2000
    6.3878   -2.0952    0.2431 C   0  0  0  0  0  0  0  0  0  0  0  0
    7.5785   -1.8911    0.1788 O   0  0  0  0  0  0  0  0  0  0  0  0
    0.5293    1.1539   -0.0345 N   0  0  0  0  0  0  0  0  0  0  0  0
    5.8722   -3.3084    0.4038 O   0  0  0  0  0  0  0  0  0  0  0  0
   -1.4424    2.4667   -0.1651 N   0  0  0  0  0  0  0  0  0  0  0  0
   -5.1800    0.4228    0.0471 C   0  0  0  0  0  0  0  0  0  0  0  0
   -5.5372   -0.9212    0.1239 C   0  0  0  0  0  0  0  0  0  0  0  0
   -4.5173   -1.8738    0.1808 C   0  0  0  0  0  0  0  0  0  0  0  0
   -3.1957   -1.4860    0.1605 C   0  0  0  0  0  0  0  0  0  0  0  0
   -2.8381   -0.1311    0.0806 C   0  0  0  0  0  0  0  0  0  0  0  0
   -3.8580    0.8263    0.0241 C   0  0  0  0  0  0  0  0  0  0  0  0
   -0.7960    1.3204   -0.0495 C   0  0  0  0  0  0  0  0  0  0  0  0
    1.2792    2.2339   -0.1503 C   0  0  0  0  0  0  0  0  0  0  0  0
    0.6990    3.5114   -0.2819 C   0  0  0  0  0  0  0  0  0  0  0  0
   -0.6697    3.5507   -0.2805 C   0  0  0  0  0  0  0  0  0  0  0  0
    3.4772    1.0379   -0.0424 C   0  0  0  0  0  0  0  0  0  0  0  0
    4.8516    1.2991   -0.1482 C   0  0  0  0  0  0  0  0  0  0  0  0
    5.7739    0.2818   -0.0525 C   0  0  0  0  0  0  0  0  0  0  0  0
    5.3633   -1.0368    0.1505 C   0  0  0  0  0  0  0  0  0  0  0  0
    3.9988   -1.2947    0.2579 C   0  0  0  0  0  0  0  0  0  0  0  0
    3.0606   -0.2813    0.1651 C   0  0  0  0  0  0  0  0  0  0  0  0
   -7.8686   -0.4706    0.1056 O   0  0  0  0  0  0  0  0  0  0  0  0
   -7.1797   -2.5881    0.2069 O   0  0  0  0  0  0  0  0  0  0  0  0
   -0.8805   -0.6583    0.1387 H   0  0  0  0  0  0  0  0  0  0  0  0
    6.5838   -3.9630    0.4601 H   0  0  0  0  0  0  0  0  0  0  0  0
    3.1159    3.0128   -0.2671 H   0  0  0  0  0  0  0  0  0  0  0  0
   -5.9507    1.1807    0.0045 H   0  0  0  0  0  0  0  0  0  0  0  0
   -4.7424   -2.9296    0.2412 H   0  0  0  0  0  0  0  0  0  0  0  0
   -2.4214   -2.2423    0.2042 H   0  0  0  0  0  0  0  0  0  0  0  0
   -3.6192    1.8745   -0.0384 H   0  0  0  0  0  0  0  0  0  0  0  0
    1.2941    4.4081   -0.3795 H   0  0  0  0  0  0  0  0  0  0  0  0
   -1.1869    4.4982   -0.3780 H   0  0  0  0  0  0  0  0  0  0  0  0
    5.1937    2.3142   -0.3116 H   0  0  0  0  0  0  0  0  0  0  0  0
    6.8261    0.5158   -0.1420 H   0  0  0  0  0  0  0  0  0  0  0  0
    3.6400   -2.3017    0.4211 H   0  0  0  0  0  0  0  0  0  0  0  0
    2.0141   -0.5160    0.2554 H   0  0  0  0  0  0  0  0  0  0  0  0
   -8.1318   -2.7656    0.2160 H   0  0  0  0  0  0  0  0  0  0  0  0
    2.6368    2.1327   -0.1495 N   0  0  0  0  0  0  0  0  0  0  0  0
   -1.4864    0.1455    0.0676 N   0  0  0  0  0  0  0  0  0  0  0  0
   -6.9679   -1.2780    0.1433 C   0  0  0  0  0  0  0  0  0  0  0  0
  2  1  2  0
  4  1  1  0
  1 19  1  0
 10 39  1  0
 39 12  1  0
 39 24  1  0
  3 13  2  0
  3 12  1  0
  4 25  1  0
 12  5  2  0
  5 15  1  0
 16 38  1  0
 38 13  1  0
 38 26  1  0
  7  6  2  0
  6 11  1  0
  6 27  1  0
 40  7  1  0
  7  8  1  0
  8  9  2  0
  8 28  1  0
  9 10  1  0
  9 29  1  0
 11 10  2  0
 11 30  1  0
 22 40  2  0
 23 40  1  0
 13 14  1  0
 14 15  2  0
 14 31  1  0
 15 32  1  0
 21 16  1  0
 17 16  2  0
 18 17  1  0
 17 33  1  0
 19 18  2  0
 18 34  1  0
 19 20  1  0
 20 21  2  0
 20 35  1  0
 21 36  1  0
 23 37  1  0
M  END
