
     RDKit          3D

 20 19  0  0  0  0  0  0  0  0999 V2000
   -3.3977    1.3181    0.3678 C   0  0  0  0  0  0  0  0  0  0  0  0
   -3.1417    0.0634    0.0087 C   0  0  0  0  0  0  0  0  0  0  0  0
   -4.1978   -0.8653   -0.5116 C   0  0  0  0  0  0  0  0  0  0  0  0
   -1.7861   -0.5670    0.0807 C   0  0  0  0  0  0  0  0  0  0  0  0
    1.2977    0.1325   -0.2292 C   0  0  0  0  0  0  0  0  0  0  0  0
    2.6691   -0.4740    0.0921 C   0  0  0  0  0  0  0  0  0  0  0  0
    0.3912   -0.1955    0.6963 N   0  0  0  0  0  0  0  0  0  0  0  0
   -0.8458    0.3501    0.6321 O   0  0  0  0  0  0  0  0  0  0  0  0
    1.0994    0.8095   -1.2135 O   0  0  0  0  0  0  0  0  0  0  0  0
    2.8759   -1.1553    1.0613 O   0  0  0  0  0  0  0  0  0  0  0  0
    3.5481   -0.1425   -0.8210 O   0  0  0  0  0  0  0  0  0  0  0  0
   -4.4026    1.7144    0.2937 H   0  0  0  0  0  0  0  0  0  0  0  0
   -2.6404    1.9918    0.7439 H   0  0  0  0  0  0  0  0  0  0  0  0
   -4.3148   -1.7329    0.1418 H   0  0  0  0  0  0  0  0  0  0  0  0
   -5.1622   -0.3664   -0.5878 H   0  0  0  0  0  0  0  0  0  0  0  0
   -3.9346   -1.2491   -1.5000 H   0  0  0  0  0  0  0  0  0  0  0  0
   -1.8349   -1.4717    0.6992 H   0  0  0  0  0  0  0  0  0  0  0  0
   -1.4702   -0.8780   -0.9222 H   0  0  0  0  0  0  0  0  0  0  0  0
    0.6140   -0.7035    1.5427 H   0  0  0  0  0  0  0  0  0  0  0  0
    4.4141   -0.5272   -0.6126 H   0  0  0  0  0  0  0  0  0  0  0  0
  3  2  1  0
  2  4  1  0
  2  1  2  0
  9  5  2  0
  8  4  1  0
  8  7  1  0
  5  7  1  0
  5  6  1  0
 10  6  2  0
  6 11  1  0
  1 12  1  0
  1 13  1  0
  3 14  1  0
  3 15  1  0
  3 16  1  0
  4 17  1  0
  4 18  1  0
  7 19  1  0
 11 20  1  0
M  END
