
     RDKit          3D

 21 23  0  0  0  0  0  0  0  0999 V2000
    1.7113    1.5373    0.0014 C   0  0  0  0  0  0  0  0  0  0  0  0
    0.7245    0.5565    0.0067 C   0  0  0  0  0  0  0  0  0  0  0  0
    3.0379    1.1358    0.0026 C   0  0  0  0  0  0  0  0  0  0  0  0
    3.3801   -0.2197    0.0087 C   0  0  0  0  0  0  0  0  0  0  0  0
    2.4101   -1.2129    0.0137 C   0  0  0  0  0  0  0  0  0  0  0  0
    1.0942   -0.7904    0.0125 C   0  0  0  0  0  0  0  0  0  0  0  0
    0.0048   -1.6045    0.0174 O   0  0  0  0  0  0  0  0  0  0  0  0
   -1.0864   -0.7927    0.0147 C   0  0  0  0  0  0  0  0  0  0  0  0
   -0.7193    0.5551    0.0080 C   0  0  0  0  0  0  0  0  0  0  0  0
   -2.4012   -1.2181    0.0177 C   0  0  0  0  0  0  0  0  0  0  0  0
   -3.3734   -0.2269    0.0134 C   0  0  0  0  0  0  0  0  0  0  0  0
   -3.0341    1.1293    0.0063 C   0  0  0  0  0  0  0  0  0  0  0  0
   -1.7083    1.5337    0.0032 C   0  0  0  0  0  0  0  0  0  0  0  0
    1.4522    2.5883   -0.0032 H   0  0  0  0  0  0  0  0  0  0  0  0
    3.8222    1.8805   -0.0008 H   0  0  0  0  0  0  0  0  0  0  0  0
    4.4246   -0.5027    0.0105 H   0  0  0  0  0  0  0  0  0  0  0  0
    2.6720   -2.2626    0.0184 H   0  0  0  0  0  0  0  0  0  0  0  0
   -2.6609   -2.2684    0.0239 H   0  0  0  0  0  0  0  0  0  0  0  0
   -1.4517    2.5852   -0.0025 H   0  0  0  0  0  0  0  0  0  0  0  0
   -4.4171   -0.5123    0.0155 H   0  0  0  0  0  0  0  0  0  0  0  0
   -3.8201    1.8722    0.0035 H   0  0  0  0  0  0  0  0  0  0  0  0
  1  2  2  0
  1  3  1  0
  2  6  1  0
  2  9  1  0
  3  4  2  0
  4  5  1  0
  5  6  2  0
  6  7  1  0
  7  8  1  0
  8  9  2  0
  8 10  1  0
  9 13  1  0
 10 11  2  0
 11 12  1  0
 12 13  2  0
  1 14  1  0
  3 15  1  0
  4 16  1  0
  5 17  1  0
 10 18  1  0
 13 19  1  0
 11 20  1  0
 12 21  1  0
M  END
