
     RDKit          3D

 18 17  0  0  0  0  0  0  0  0999 V2000
   -2.6032    0.3711    0.0667 C   0  0  0  0  0  0  0  0  0  0  0  0
   -1.3137    0.6888   -0.0547 N   0  0  0  0  0  0  0  0  0  0  0  0
   -0.2379   -0.2828   -0.0483 C   0  0  0  0  0  0  0  0  0  0  0  0
   -3.0401   -0.7608    0.2084 O   0  0  0  0  0  0  0  0  0  0  0  0
    1.1115    0.4148    0.0088 C   0  0  0  0  0  0  0  0  0  0  0  0
    2.2725   -0.5710    0.0050 C   0  0  0  0  0  0  0  0  0  0  0  0
    3.6234    0.1280    0.0651 C   0  0  0  0  0  0  0  0  0  0  0  0
   -0.3508   -0.9446    0.8141 H   0  0  0  0  0  0  0  0  0  0  0  0
   -0.2937   -0.9136   -0.9412 H   0  0  0  0  0  0  0  0  0  0  0  0
    1.2088    1.0931   -0.8454 H   0  0  0  0  0  0  0  0  0  0  0  0
    1.1619    1.0364    0.9084 H   0  0  0  0  0  0  0  0  0  0  0  0
    2.1728   -1.2527    0.8546 H   0  0  0  0  0  0  0  0  0  0  0  0
    2.2190   -1.1928   -0.8935 H   0  0  0  0  0  0  0  0  0  0  0  0
    3.7600    0.7947   -0.7887 H   0  0  0  0  0  0  0  0  0  0  0  0
    3.7135    0.7313    0.9706 H   0  0  0  0  0  0  0  0  0  0  0  0
    4.4453   -0.5882    0.0611 H   0  0  0  0  0  0  0  0  0  0  0  0
   -3.2547    1.2573    0.0296 H   0  0  0  0  0  0  0  0  0  0  0  0
   -1.0834    1.6594   -0.1957 H   0  0  0  0  0  0  0  0  0  0  0  0
  2  1  1  0
  4  1  2  0
  1 17  1  0
  2  3  1  0
  2 18  1  0
  5  3  1  0
  8  3  1  0
  3  9  1  0
 10  5  1  0
  6  5  1  0
  5 11  1  0
  7  6  1  0
 12  6  1  0
  6 13  1  0
 14  7  1  0
 15  7  1  0
  7 16  1  0
M  END
