
     RDKit          3D

 38 39  0  0  0  0  0  0  0  0999 V2000
    2.6930    0.5589    0.7086 N   0  0  0  0  0  0  0  0  0  0  0  0
    2.7791   -0.8991    0.7031 C   0  0  2  0  0  0  0  0  0  0  0  0
    4.2771   -1.2804    0.7373 C   0  0  0  0  0  0  0  0  0  0  0  0
    5.0395    0.0157    0.9863 C   0  0  0  0  0  0  0  0  0  0  0  0
    3.9918    1.1385    1.0420 C   0  0  0  0  0  0  0  0  0  0  0  0
    2.0572   -1.6054   -0.4455 C   0  0  0  0  0  0  0  0  0  0  0  0
    2.3226   -2.7770   -0.7628 O   0  0  0  0  0  0  0  0  0  0  0  0
    1.0564   -0.9261   -1.1151 N   0  0  0  0  0  0  0  0  0  0  0  0
    0.6922    0.4276   -0.8131 C   0  0  2  0  0  0  0  0  0  0  0  0
    1.8251    1.2309   -0.1344 C   0  0  0  0  0  0  0  0  0  0  0  0
    1.8692    2.4627   -0.2970 O   0  0  0  0  0  0  0  0  0  0  0  0
   -0.5505    0.5725    0.0856 C   0  0  0  0  0  0  0  0  0  0  0  0
   -1.7979    0.0726   -0.6107 C   0  0  0  0  0  0  0  0  0  0  0  0
   -3.0135    0.3888    0.2633 C   0  0  0  0  0  0  0  0  0  0  0  0
   -4.2528   -0.0801   -0.3253 N   0  0  0  0  0  0  0  0  0  0  0  0
   -5.4844    0.1002    0.2651 C   0  0  0  0  0  0  0  0  0  0  0  0
   -5.6002    0.7498    1.4729 N   0  0  0  0  0  0  0  0  0  0  0  0
   -6.6166   -0.3768   -0.3612 N   0  0  0  0  0  0  0  0  0  0  0  0
    2.2785   -1.2667    1.6503 H   0  0  0  0  0  0  0  0  0  0  0  0
    4.4545   -2.0229    1.5531 H   0  0  0  0  0  0  0  0  0  0  0  0
    4.5819   -1.7567   -0.2279 H   0  0  0  0  0  0  0  0  0  0  0  0
    5.6058   -0.0301    1.9487 H   0  0  0  0  0  0  0  0  0  0  0  0
    5.7739    0.2088    0.1660 H   0  0  0  0  0  0  0  0  0  0  0  0
    4.2414    1.9759    0.3340 H   0  0  0  0  0  0  0  0  0  0  0  0
    3.9206    1.5669    2.0795 H   0  0  0  0  0  0  0  0  0  0  0  0
    0.5981   -1.3742   -1.8740 H   0  0  0  0  0  0  0  0  0  0  0  0
    0.4774    0.9609   -1.7916 H   0  0  0  0  0  0  0  0  0  0  0  0
   -0.3973    0.0166    1.0469 H   0  0  0  0  0  0  0  0  0  0  0  0
   -0.6569    1.6640    0.3302 H   0  0  0  0  0  0  0  0  0  0  0  0
   -1.9007    0.5723   -1.6105 H   0  0  0  0  0  0  0  0  0  0  0  0
   -1.7224   -1.0335   -0.7837 H   0  0  0  0  0  0  0  0  0  0  0  0
   -2.8754   -0.1021    1.2712 H   0  0  0  0  0  0  0  0  0  0  0  0
   -3.0747    1.5072    0.4099 H   0  0  0  0  0  0  0  0  0  0  0  0
   -4.1941   -0.5586   -1.2006 H   0  0  0  0  0  0  0  0  0  0  0  0
   -4.7963    1.1052    1.9396 H   0  0  0  0  0  0  0  0  0  0  0  0
   -6.4902    0.8849    1.8968 H   0  0  0  0  0  0  0  0  0  0  0  0
   -6.5575   -0.8519   -1.2331 H   0  0  0  0  0  0  0  0  0  0  0  0
   -7.5158   -0.2568    0.0474 H   0  0  0  0  0  0  0  0  0  0  0  0
  1  2  1  0
  1  5  1  0
  2  3  1  0
  2  6  1  0
  2 19  1  1
  3  4  1  0
  3 20  1  0
  3 21  1  0
  4  5  1  0
  4 22  1  0
  4 23  1  0
  5 24  1  0
  5 25  1  0
  6  7  2  0
  8  9  1  0
  8 26  1  0
  9 10  1  0
  9 12  1  0
  9 27  1  6
 10 11  2  0
 12 13  1  0
 12 28  1  0
 12 29  1  0
 13 14  1  0
 13 30  1  0
 13 31  1  0
 14 15  1  0
 14 32  1  0
 14 33  1  0
 15 16  1  0
 15 34  1  0
 16 17  1  0
 16 18  2  0
 17 35  1  0
 17 36  1  0
 18 37  1  0
 18 38  1  0
  1 10  1  0
  8  6  1  0
M  CHG  1  18   1
M  END
