
     RDKit          3D

 20 20  0  0  0  0  0  0  0  0999 V2000
    1.2826    1.1699    0.0263 C   0  0  0  0  0  0  0  0  0  0  0  0
   -4.5061   -0.0425   -0.0125 C   0  0  0  0  0  0  0  0  0  0  0  0
   -3.1140   -0.6434    0.0025 C   0  0  0  0  0  0  0  0  0  0  0  0
   -0.7928    0.2040    0.0135 C   0  0  0  0  0  0  0  0  0  0  0  0
   -0.2304   -1.0943    0.0096 C   0  0  0  0  0  0  0  0  0  0  0  0
    1.1329   -1.2187    0.0138 C   0  0  0  0  0  0  0  0  0  0  0  0
    1.9315   -0.0655    0.0221 C   0  0  0  0  0  0  0  0  0  0  0  0
    3.3463   -0.1394    0.0261 C   0  0  0  0  0  0  0  0  0  0  0  0
   -2.1154    0.4034    0.0081 N   0  0  0  0  0  0  0  0  0  0  0  0
    4.4992   -0.1984    0.0301 N   0  0  0  0  0  0  0  0  0  0  0  0
   -0.0242    1.3063    0.0223 N   0  0  0  0  0  0  0  0  0  0  0  0
    1.8651    2.0853    0.0334 H   0  0  0  0  0  0  0  0  0  0  0  0
   -4.6785    0.5756    0.8692 H   0  0  0  0  0  0  0  0  0  0  0  0
   -4.6600    0.5737   -0.8990 H   0  0  0  0  0  0  0  0  0  0  0  0
   -5.2526   -0.8344   -0.0194 H   0  0  0  0  0  0  0  0  0  0  0  0
   -2.9960   -1.2810    0.8842 H   0  0  0  0  0  0  0  0  0  0  0  0
   -2.9795   -1.2860   -0.8729 H   0  0  0  0  0  0  0  0  0  0  0  0
   -0.8584   -1.9734    0.0031 H   0  0  0  0  0  0  0  0  0  0  0  0
    1.5889   -2.1999    0.0106 H   0  0  0  0  0  0  0  0  0  0  0  0
   -2.4230    1.3638    0.0164 H   0  0  0  0  0  0  0  0  0  0  0  0
 10  8  3  0
  8  7  1  0
  7  6  1  0
  7  1  2  0
  6  5  2  0
  1 11  1  0
  5  4  1  0
 11  4  2  0
  4  9  1  0
  9  3  1  0
  3  2  1  0
  1 12  1  0
  2 13  1  0
  2 14  1  0
  2 15  1  0
  3 16  1  0
  3 17  1  0
  5 18  1  0
  6 19  1  0
  9 20  1  0
M  END
