
     RDKit          3D

 37 39  0  0  0  0  0  0  0  0999 V2000
    2.7859   -3.4274   -0.0780 C   0  0  0  0  0  0  0  0  0  0  0  0
    1.4531   -3.1926   -0.3795 C   0  0  0  0  0  0  0  0  0  0  0  0
    0.9450   -1.8971   -0.3802 C   0  0  0  0  0  0  0  0  0  0  0  0
   -0.7147   -1.6170   -0.9060 S   0  0  0  0  0  0  0  0  0  0  0  0
   -1.4964   -0.9745    0.6259 C   0  0  2  0  0  0  0  0  0  0  0  0
   -2.7555   -0.2370    0.2433 C   0  0  0  0  0  0  0  0  0  0  0  0
   -2.7885    0.7168   -0.7724 C   0  0  0  0  0  0  0  0  0  0  0  0
   -3.9627    1.3990   -1.0591 C   0  0  0  0  0  0  0  0  0  0  0  0
   -5.1203    1.1393   -0.3371 C   0  0  0  0  0  0  0  0  0  0  0  0
   -5.0979    0.1872    0.6727 C   0  0  0  0  0  0  0  0  0  0  0  0
   -3.9234   -0.4962    0.9566 C   0  0  0  0  0  0  0  0  0  0  0  0
   -0.5200   -0.1332    1.4603 C   0  0  0  0  0  0  0  0  0  0  0  0
    0.2129    0.9134    0.6592 C   0  0  0  0  0  0  0  0  0  0  0  0
   -0.1303    2.0820    0.6376 O   0  0  0  0  0  0  0  0  0  0  0  0
    1.2971    0.4994   -0.0580 N   0  0  0  0  0  0  0  0  0  0  0  0
    1.9901    1.5025   -0.8294 C   0  0  0  0  0  0  0  0  0  0  0  0
    2.7113    2.5041    0.0464 C   0  0  0  0  0  0  0  0  0  0  0  0
    2.9972    3.6047   -0.6300 O   0  0  0  0  0  0  0  0  0  0  0  0
    3.0206    2.3103    1.1926 O   0  0  0  0  0  0  0  0  0  0  0  0
    1.7814   -0.8265   -0.0443 C   0  0  0  0  0  0  0  0  0  0  0  0
    3.1109   -1.0718    0.2810 C   0  0  0  0  0  0  0  0  0  0  0  0
    3.6137   -2.3634    0.2514 C   0  0  0  0  0  0  0  0  0  0  0  0
    3.1718   -4.4379   -0.0926 H   0  0  0  0  0  0  0  0  0  0  0  0
    0.7983   -4.0173   -0.6290 H   0  0  0  0  0  0  0  0  0  0  0  0
   -1.7779   -1.8319    1.2392 H   0  0  0  0  0  0  0  0  0  0  0  0
   -1.9019    0.9242   -1.3575 H   0  0  0  0  0  0  0  0  0  0  0  0
   -3.9715    2.1362   -1.8512 H   0  0  0  0  0  0  0  0  0  0  0  0
   -6.0344    1.6730   -0.5631 H   0  0  0  0  0  0  0  0  0  0  0  0
   -5.9952   -0.0284    1.2384 H   0  0  0  0  0  0  0  0  0  0  0  0
   -3.9157   -1.2408    1.7438 H   0  0  0  0  0  0  0  0  0  0  0  0
   -1.0899    0.3709    2.2413 H   0  0  0  0  0  0  0  0  0  0  0  0
    0.1849   -0.7985    1.9612 H   0  0  0  0  0  0  0  0  0  0  0  0
    2.7278    1.0123   -1.4675 H   0  0  0  0  0  0  0  0  0  0  0  0
    1.2986    2.0186   -1.4978 H   0  0  0  0  0  0  0  0  0  0  0  0
    3.5105    4.2154   -0.0796 H   0  0  0  0  0  0  0  0  0  0  0  0
    3.7555   -0.2502    0.5661 H   0  0  0  0  0  0  0  0  0  0  0  0
    4.6519   -2.5378    0.5005 H   0  0  0  0  0  0  0  0  0  0  0  0
  1  2  2  0
  1 22  1  0
  2  3  1  0
  3  4  1  0
  3 20  2  0
  4  5  1  0
  5  6  1  0
  5 12  1  0
  6  7  2  0
  6 11  1  0
  7  8  1  0
  8  9  2  0
  9 10  1  0
 10 11  2  0
 12 13  1  0
 13 14  2  0
 13 15  1  0
 15 16  1  0
 15 20  1  0
 16 17  1  0
 17 18  1  0
 17 19  2  0
 20 21  1  0
 21 22  2  0
  1 23  1  0
  2 24  1  0
  5 25  1  1
  7 26  1  0
  8 27  1  0
  9 28  1  0
 10 29  1  0
 11 30  1  0
 12 31  1  0
 12 32  1  0
 16 33  1  0
 16 34  1  0
 18 35  1  0
 21 36  1  0
 22 37  1  0
M  END
