
     RDKit          3D

 39 41  0  0  0  0  0  0  0  0999 V2000
    3.6510   -1.6556   -0.7171 C   0  0  0  0  0  0  0  0  0  0  0  0
    4.6472   -0.9289   -0.0181 C   0  0  0  0  0  0  0  0  0  0  0  0
    4.3610    0.2661    0.6114 C   0  0  0  0  0  0  0  0  0  0  0  0
    2.3596   -1.1964   -0.7933 C   0  0  0  0  0  0  0  0  0  0  0  0
    2.4412    1.8292    1.0048 N   0  0  0  0  0  0  0  0  0  0  0  0
    1.1439    1.8884    0.6877 N   0  0  0  0  0  0  0  0  0  0  0  0
    0.8766    0.8146   -0.0090 C   0  0  0  0  0  0  0  0  0  0  0  0
    2.0395    0.0131   -0.1649 C   0  0  0  0  0  0  0  0  0  0  0  0
    3.0427    0.7197    0.5207 C   0  0  0  0  0  0  0  0  0  0  0  0
   -0.5053    0.5342   -0.5234 C   0  0  1  0  0  0  0  0  0  0  0  0
   -1.5601    0.5034    0.5970 C   0  0  0  0  0  0  0  0  0  0  0  0
   -0.8625    1.5226   -1.5402 C   0  0  0  0  0  0  0  0  0  0  0  0
   -1.1443    2.3070   -2.3335 N   0  0  0  0  0  0  0  0  0  0  0  0
    5.9116   -1.3871    0.0515 O   0  0  0  0  0  0  0  0  0  0  0  0
   -2.9609    0.1030    0.1432 C   0  0  1  0  0  0  0  0  0  0  0  0
   -3.0138   -1.3344   -0.3783 C   0  0  0  0  0  0  0  0  0  0  0  0
   -4.4271   -1.7472   -0.7757 C   0  0  0  0  0  0  0  0  0  0  0  0
   -5.4085   -1.5596    0.3758 C   0  0  0  0  0  0  0  0  0  0  0  0
   -5.3668   -0.1282    0.8995 C   0  0  0  0  0  0  0  0  0  0  0  0
   -3.9520    0.2802    1.2949 C   0  0  0  0  0  0  0  0  0  0  0  0
    3.9179   -2.5893   -1.1980 H   0  0  0  0  0  0  0  0  0  0  0  0
    5.1252    0.8177    1.1434 H   0  0  0  0  0  0  0  0  0  0  0  0
    1.6135   -1.7644   -1.3345 H   0  0  0  0  0  0  0  0  0  0  0  0
    2.8540    2.5711    1.5458 H   0  0  0  0  0  0  0  0  0  0  0  0
   -0.4867   -0.4343   -1.0307 H   0  0  0  0  0  0  0  0  0  0  0  0
   -1.2041   -0.2031    1.3521 H   0  0  0  0  0  0  0  0  0  0  0  0
   -1.5865    1.4855    1.0748 H   0  0  0  0  0  0  0  0  0  0  0  0
    5.9998   -2.2110   -0.4401 H   0  0  0  0  0  0  0  0  0  0  0  0
   -3.2750    0.7753   -0.6676 H   0  0  0  0  0  0  0  0  0  0  0  0
   -2.3436   -1.4628   -1.2327 H   0  0  0  0  0  0  0  0  0  0  0  0
   -2.6429   -2.0037    0.4076 H   0  0  0  0  0  0  0  0  0  0  0  0
   -4.7528   -1.1435   -1.6301 H   0  0  0  0  0  0  0  0  0  0  0  0
   -4.4296   -2.7862   -1.1138 H   0  0  0  0  0  0  0  0  0  0  0  0
   -6.4215   -1.8151    0.0550 H   0  0  0  0  0  0  0  0  0  0  0  0
   -5.1565   -2.2530    1.1856 H   0  0  0  0  0  0  0  0  0  0  0  0
   -5.7334    0.5494    0.1207 H   0  0  0  0  0  0  0  0  0  0  0  0
   -6.0403   -0.0156    1.7524 H   0  0  0  0  0  0  0  0  0  0  0  0
   -3.6211   -0.3267    2.1465 H   0  0  0  0  0  0  0  0  0  0  0  0
   -3.9410    1.3199    1.6342 H   0  0  0  0  0  0  0  0  0  0  0  0
 17 16  1  0
 17 18  1  0
 16 15  1  0
 18 19  1  0
  1  4  2  0
  1  2  1  0
 14  2  1  0
  4  8  1  0
  2  3  2  0
 11 15  1  0
 11 10  1  0
 15 20  1  0
 19 20  1  0
  8  7  1  0
  8  9  2  0
  3  9  1  0
 12 13  3  0
 12 10  1  0
 10  7  1  0
  7  6  2  0
  9  5  1  0
  6  5  1  0
  1 21  1  0
  3 22  1  0
  4 23  1  0
  5 24  1  0
 10 25  1  6
 11 26  1  0
 11 27  1  0
 14 28  1  0
 15 29  1  6
 16 30  1  0
 16 31  1  0
 17 32  1  0
 17 33  1  0
 18 34  1  0
 18 35  1  0
 19 36  1  0
 19 37  1  0
 20 38  1  0
 20 39  1  0
M  END
