
     RDKit          3D

 16 17  0  0  0  0  0  0  0  0999 V2000
    2.5644    1.2341   -0.0245 C   0  0  0  0  0  0  0  0  0  0  0  0
    1.1654    1.4590   -0.0501 C   0  0  0  0  0  0  0  0  0  0  0  0
    0.4410    0.2991   -0.0062 C   0  0  0  0  0  0  0  0  0  0  0  0
    1.4840   -1.0730    0.0716 S   0  0  0  0  0  0  0  0  0  0  0  0
    2.8848   -0.0877    0.0389 C   0  0  0  0  0  0  0  0  0  0  0  0
   -1.0013    0.1796   -0.0157 C   0  0  0  0  0  0  0  0  0  0  0  0
   -1.6723   -0.9945   -0.0764 N   0  0  0  0  0  0  0  0  0  0  0  0
   -3.0059   -0.7135   -0.0707 C   0  0  0  0  0  0  0  0  0  0  0  0
   -3.0843    0.6491   -0.0054 C   0  0  0  0  0  0  0  0  0  0  0  0
   -1.8362    1.1937    0.0287 N   0  0  0  0  0  0  0  0  0  0  0  0
    3.3019    2.0228   -0.0524 H   0  0  0  0  0  0  0  0  0  0  0  0
    0.7084    2.4367   -0.1029 H   0  0  0  0  0  0  0  0  0  0  0  0
    3.8636   -0.5405    0.0700 H   0  0  0  0  0  0  0  0  0  0  0  0
   -1.2788   -1.9216   -0.1323 H   0  0  0  0  0  0  0  0  0  0  0  0
   -3.7562   -1.4836   -0.1139 H   0  0  0  0  0  0  0  0  0  0  0  0
   -3.9728    1.2605    0.0203 H   0  0  0  0  0  0  0  0  0  0  0  0
 10  9  1  0
 10  6  2  0
  4  5  1  0
  4  3  1  0
  9  8  2  0
  5  1  2  0
  3  6  1  0
  3  2  2  0
  6  7  1  0
  1  2  1  0
  8  7  1  0
  1 11  1  0
  2 12  1  0
  5 13  1  0
  7 14  1  0
  8 15  1  0
  9 16  1  0
M  END
