
     RDKit          3D

 39 38  0  0  0  0  0  0  0  0999 V2000
    8.3348   -1.2209   -0.0433 O   0  0  0  0  0  0  0  0  0  0  0  0
    8.2010   -0.0226   -0.0159 C   0  0  0  0  0  0  0  0  0  0  0  0
    9.2323    0.8183    0.0084 O   0  0  0  0  0  0  0  0  0  0  0  0
    6.8866    0.7066   -0.0077 C   0  0  0  0  0  0  0  0  0  0  0  0
    5.6711   -0.2061   -0.0056 C   0  0  0  0  0  0  0  0  0  0  0  0
    4.3712    0.5885   -0.0005 C   0  0  0  0  0  0  0  0  0  0  0  0
    3.1317   -0.2974    0.0008 C   0  0  0  0  0  0  0  0  0  0  0  0
    1.8322    0.4971    0.0056 C   0  0  0  0  0  0  0  0  0  0  0  0
    0.5871   -0.3813    0.0030 C   0  0  0  0  0  0  0  0  0  0  0  0
   -0.7073    0.4216    0.0072 C   0  0  0  0  0  0  0  0  0  0  0  0
   -1.9553   -0.4526    0.0014 C   0  0  0  0  0  0  0  0  0  0  0  0
   -3.2404    0.3680    0.0065 C   0  0  0  0  0  0  0  0  0  0  0  0
   -4.4595   -0.5264   -0.0057 C   0  0  0  0  0  0  0  0  0  0  0  0
   -5.6258    0.3228    0.0030 O   0  0  0  0  0  0  0  0  0  0  0  0
   -6.8091   -0.2538   -0.0214 C   0  0  0  0  0  0  0  0  0  0  0  0
   -7.0296   -1.4315   -0.0501 O   0  0  0  0  0  0  0  0  0  0  0  0
   -8.0342    1.0278   -0.0045 S   0  0  0  0  0  0  0  0  0  0  0  0
   10.0639    0.3215   -0.0048 H   0  0  0  0  0  0  0  0  0  0  0  0
    6.8700    1.3702    0.8629 H   0  0  0  0  0  0  0  0  0  0  0  0
    6.8640    1.3709   -0.8778 H   0  0  0  0  0  0  0  0  0  0  0  0
    5.6950   -0.8587   -0.8827 H   0  0  0  0  0  0  0  0  0  0  0  0
    5.7002   -0.8621    0.8689 H   0  0  0  0  0  0  0  0  0  0  0  0
    4.3476    1.2454    0.8762 H   0  0  0  0  0  0  0  0  0  0  0  0
    4.3435    1.2490   -0.8744 H   0  0  0  0  0  0  0  0  0  0  0  0
    3.1541   -0.9544   -0.8759 H   0  0  0  0  0  0  0  0  0  0  0  0
    3.1586   -0.9576    0.8749 H   0  0  0  0  0  0  0  0  0  0  0  0
    1.8110    1.1523    0.8838 H   0  0  0  0  0  0  0  0  0  0  0  0
    1.8092    1.1601   -0.8668 H   0  0  0  0  0  0  0  0  0  0  0  0
    0.6064   -1.0365   -0.8751 H   0  0  0  0  0  0  0  0  0  0  0  0
    0.6075   -1.0433    0.8759 H   0  0  0  0  0  0  0  0  0  0  0  0
   -0.7271    1.0746    0.8869 H   0  0  0  0  0  0  0  0  0  0  0  0
   -0.7264    1.0854   -0.8642 H   0  0  0  0  0  0  0  0  0  0  0  0
   -1.9382   -1.1039   -0.8790 H   0  0  0  0  0  0  0  0  0  0  0  0
   -1.9387   -1.1154    0.8732 H   0  0  0  0  0  0  0  0  0  0  0  0
   -3.2627    1.0090    0.8927 H   0  0  0  0  0  0  0  0  0  0  0  0
   -3.2586    1.0259   -0.8672 H   0  0  0  0  0  0  0  0  0  0  0  0
   -4.4739   -1.1550   -0.8989 H   0  0  0  0  0  0  0  0  0  0  0  0
   -4.4771   -1.1766    0.8718 H   0  0  0  0  0  0  0  0  0  0  0  0
   -9.0893    0.2075   -0.0405 H   0  0  0  0  0  0  0  0  0  0  0  0
  1  2  2  0
  2  3  1  0
  2  4  1  0
  3 18  1  0
  4  5  1  0
  4 19  1  0
  4 20  1  0
  5  6  1  0
  5 21  1  0
  5 22  1  0
  6  7  1  0
  6 23  1  0
  6 24  1  0
  7  8  1  0
  7 25  1  0
  7 26  1  0
  8  9  1  0
  8 27  1  0
  8 28  1  0
  9 10  1  0
  9 29  1  0
  9 30  1  0
 10 11  1  0
 10 31  1  0
 10 32  1  0
 11 12  1  0
 11 33  1  0
 11 34  1  0
 12 13  1  0
 12 35  1  0
 12 36  1  0
 13 14  1  0
 13 37  1  0
 13 38  1  0
 14 15  1  0
 15 16  2  0
 15 17  1  0
 17 39  1  0
M  END
