
     RDKit          3D

 29 30  0  0  0  0  0  0  0  0999 V2000
   -1.6077   -0.6923    0.3418 N   0  0  0  0  0  0  0  0  0  0  0  0
   -3.9793   -0.8960    0.4167 C   0  0  0  0  0  0  0  0  0  0  0  0
   -5.2270   -0.3496    0.2028 C   0  0  0  0  0  0  0  0  0  0  0  0
   -5.3243    0.9350   -0.3201 C   0  0  0  0  0  0  0  0  0  0  0  0
   -4.1466    1.6013   -0.6044 C   0  0  0  0  0  0  0  0  0  0  0  0
    2.1009   -0.7313    0.2081 C   0  0  0  0  0  0  0  0  0  0  0  0
    3.8474   -0.7367   -1.4406 C   0  0  0  0  0  0  0  0  0  0  0  0
    2.8871    0.0707    1.0228 C   0  0  0  0  0  0  0  0  0  0  0  0
    0.7254   -1.1380    0.6477 C   0  0  0  0  0  0  0  0  0  0  0  0
   -0.3531   -0.1838    0.1565 C   0  0  0  0  0  0  0  0  0  0  0  0
   -2.8537   -0.1256    0.0999 C   0  0  0  0  0  0  0  0  0  0  0  0
   -2.9370    1.0954   -0.4026 N   0  0  0  0  0  0  0  0  0  0  0  0
   -0.1088    0.9022   -0.3173 O   0  0  0  0  0  0  0  0  0  0  0  0
    2.5851   -1.1424   -1.0309 C   0  0  0  0  0  0  0  0  0  0  0  0
    4.6412    0.0641   -0.6321 C   0  0  0  0  0  0  0  0  0  0  0  0
    4.1595    0.4711    0.6132 C   0  0  0  0  0  0  0  0  0  0  0  0
    4.8780    1.2390    1.4487 O   0  0  0  0  0  0  0  0  0  0  0  0
   -1.6420   -1.6176    0.7423 H   0  0  0  0  0  0  0  0  0  0  0  0
   -3.8689   -1.8947    0.8208 H   0  0  0  0  0  0  0  0  0  0  0  0
   -6.1154   -0.9206    0.4385 H   0  0  0  0  0  0  0  0  0  0  0  0
   -6.2805    1.4047   -0.5003 H   0  0  0  0  0  0  0  0  0  0  0  0
   -4.1776    2.6032   -1.0184 H   0  0  0  0  0  0  0  0  0  0  0  0
    4.2261   -1.0535   -2.4047 H   0  0  0  0  0  0  0  0  0  0  0  0
    2.5185    0.3870    1.9924 H   0  0  0  0  0  0  0  0  0  0  0  0
    0.4981   -2.1538    0.3141 H   0  0  0  0  0  0  0  0  0  0  0  0
    0.6556   -1.1551    1.7438 H   0  0  0  0  0  0  0  0  0  0  0  0
    1.9775   -1.7738   -1.6681 H   0  0  0  0  0  0  0  0  0  0  0  0
    5.6301    0.3716   -0.9512 H   0  0  0  0  0  0  0  0  0  0  0  0
    5.7344    1.4582    1.0474 H   0  0  0  0  0  0  0  0  0  0  0  0
  3  2  2  0
  3  4  1  0
  2 11  1  0
 13 10  2  0
  4  5  2  0
 10  9  1  0
 10  1  1  0
 11  1  1  0
 11 12  2  0
  9  6  1  0
 14  6  1  0
 14  7  2  0
  5 12  1  0
  6  8  2  0
  7 15  1  0
 15 16  2  0
  8 16  1  0
 16 17  1  0
  1 18  1  0
  2 19  1  0
  3 20  1  0
  4 21  1  0
  5 22  1  0
  7 23  1  0
  8 24  1  0
  9 25  1  0
  9 26  1  0
 14 27  1  0
 15 28  1  0
 17 29  1  0
M  END
