
     RDKit          3D

 21 22  0  0  0  0  0  0  0  0999 V2000
    1.5024   -2.1183    0.0426 Cl  0  0  0  0  0  0  0  0  0  0  0  0
    2.0757   -0.4867    0.0246 C   0  0  0  0  0  0  0  0  0  0  0  0
    3.4332   -0.2261    0.0230 C   0  0  0  0  0  0  0  0  0  0  0  0
    3.8839    1.0878    0.0074 C   0  0  0  0  0  0  0  0  0  0  0  0
    2.9668    2.1254   -0.0064 C   0  0  0  0  0  0  0  0  0  0  0  0
    1.6016    1.8657   -0.0042 C   0  0  0  0  0  0  0  0  0  0  0  0
    1.1438    0.5540    0.0121 C   0  0  0  0  0  0  0  0  0  0  0  0
   -0.1523    0.1944    0.0173 O   0  0  0  0  0  0  0  0  0  0  0  0
   -1.1414    1.1937    0.0076 C   0  0  0  0  0  0  0  0  0  0  0  0
   -2.4464    0.4843    0.0333 C   0  0  0  0  0  0  0  0  0  0  0  0
   -2.6154   -0.8352   -0.0084 N   0  0  0  0  0  0  0  0  0  0  0  0
   -3.9103   -1.1001    0.0286 N   0  0  0  0  0  0  0  0  0  0  0  0
   -4.5057    0.0233    0.0902 N   0  0  0  0  0  0  0  0  0  0  0  0
   -3.6329    1.0328    0.0959 N   0  0  0  0  0  0  0  0  0  0  0  0
    4.1352   -1.0487    0.0333 H   0  0  0  0  0  0  0  0  0  0  0  0
    4.9463    1.2892    0.0060 H   0  0  0  0  0  0  0  0  0  0  0  0
    3.3053    3.1528   -0.0201 H   0  0  0  0  0  0  0  0  0  0  0  0
    0.9095    2.6966   -0.0149 H   0  0  0  0  0  0  0  0  0  0  0  0
   -1.0707    1.8520    0.8793 H   0  0  0  0  0  0  0  0  0  0  0  0
   -1.0844    1.8173   -0.8906 H   0  0  0  0  0  0  0  0  0  0  0  0
   -1.9307   -1.5773   -0.0604 H   0  0  0  0  0  0  0  0  0  0  0  0
  1  2  1  0
  2  3  2  0
  2  7  1  0
  3  4  1  0
  4  5  2  0
  5  6  1  0
  6  7  2  0
  7  8  1  0
  8  9  1  0
  9 10  1  0
 10 11  1  0
 10 14  2  0
 11 12  1  0
 12 13  2  0
 13 14  1  0
  3 15  1  0
  4 16  1  0
  5 17  1  0
  6 18  1  0
  9 19  1  0
  9 20  1  0
 11 21  1  0
M  END
