
     RDKit          3D

 17 18  0  0  0  0  0  0  0  0999 V2000
   -0.7175   -2.6296    0.0320 C   0  0  0  0  0  0  0  0  0  0  0  0
   -1.9883    2.1941    0.0096 C   0  0  0  0  0  0  0  0  0  0  0  0
   -0.7633    1.5915    0.0047 C   0  0  0  0  0  0  0  0  0  0  0  0
   -1.9019   -1.9501    0.0354 C   0  0  0  0  0  0  0  0  0  0  0  0
    0.5096   -1.9380    0.0194 C   0  0  0  0  0  0  0  0  0  0  0  0
   -3.1441    1.3891    0.0225 C   0  0  0  0  0  0  0  0  0  0  0  0
   -0.6841    0.1806    0.0128 C   0  0  0  0  0  0  0  0  0  0  0  0
   -1.9122   -0.5376    0.0260 C   0  0  0  0  0  0  0  0  0  0  0  0
    0.5189   -0.5705    0.0100 C   0  0  0  0  0  0  0  0  0  0  0  0
   -3.1142    0.0847    0.0303 N   0  0  0  0  0  0  0  0  0  0  0  0
    2.1891    0.3136   -0.0076 Br  0  0  0  0  0  0  0  0  0  0  0  0
   -0.7064   -3.7109    0.0384 H   0  0  0  0  0  0  0  0  0  0  0  0
   -2.8489   -2.4733    0.0460 H   0  0  0  0  0  0  0  0  0  0  0  0
    1.4328   -2.5013    0.0179 H   0  0  0  0  0  0  0  0  0  0  0  0
   -2.0804    3.2709    0.0042 H   0  0  0  0  0  0  0  0  0  0  0  0
    0.1310    2.1993   -0.0053 H   0  0  0  0  0  0  0  0  0  0  0  0
   -4.1232    1.8563    0.0256 H   0  0  0  0  0  0  0  0  0  0  0  0
  1  4  2  0
  1  5  1  0
  2  3  2  0
  2  6  1  0
  3  7  1  0
  4  8  1  0
  5  9  2  0
  6 10  2  0
  7  8  2  0
  7  9  1  0
  8 10  1  0
  9 11  1  0
  1 12  1  0
  4 13  1  0
  5 14  1  0
  2 15  1  0
  3 16  1  0
  6 17  1  0
M  END
