
     RDKit          3D

 63 65  0  0  0  0  0  0  0  0999 V2000
    4.9333   -0.0357    0.5807 C   0  0  0  0  0  0  0  0  0  0  0  0
    4.4346   -1.0906    1.3492 C   0  0  0  0  0  0  0  0  0  0  0  0
    5.1500   -2.2692    1.4700 C   0  0  0  0  0  0  0  0  0  0  0  0
    6.3716   -2.4205    0.8285 C   0  0  0  0  0  0  0  0  0  0  0  0
    6.8893   -1.3897    0.0467 C   0  0  0  0  0  0  0  0  0  0  0  0
    6.1567   -0.2012   -0.0519 C   0  0  0  0  0  0  0  0  0  0  0  0
    8.1842   -1.5480   -0.6558 C   0  0  0  0  0  0  0  0  0  0  0  0
    8.4758   -0.8596   -1.7622 C   0  0  0  0  0  0  0  0  0  0  0  0
    1.6988    1.7258    0.2028 C   0  0  0  0  0  0  0  0  0  0  0  0
    4.1500    1.2754    0.5121 C   0  0  1  0  0  0  0  0  0  0  0  0
    4.2581    1.9443    1.8901 C   0  0  0  0  0  0  0  0  0  0  0  0
    4.6823    2.2258   -0.5620 C   0  0  0  0  0  0  0  0  0  0  0  0
   -0.7277    1.6833   -0.2565 C   0  0  0  0  0  0  0  0  0  0  0  0
   -0.9357    3.0113   -0.6279 C   0  0  0  0  0  0  0  0  0  0  0  0
   -2.2329    3.4904   -0.6952 C   0  0  0  0  0  0  0  0  0  0  0  0
   -3.3117    2.6779   -0.4045 C   0  0  0  0  0  0  0  0  0  0  0  0
   -3.1337    1.3351   -0.0431 C   0  0  0  0  0  0  0  0  0  0  0  0
   -1.8203    0.8626    0.0164 C   0  0  0  0  0  0  0  0  0  0  0  0
   -4.1214   -0.8309    0.5800 C   0  0  2  0  0  0  0  0  0  0  0  0
   -5.4119   -1.3780    1.1832 C   0  0  1  0  0  0  0  0  0  0  0  0
   -5.2923   -2.8540    0.8434 C   0  0  2  0  0  0  0  0  0  0  0  0
   -4.6711   -2.8106   -0.5583 C   0  0  1  0  0  0  0  0  0  0  0  0
   -5.6896   -2.7834   -1.6845 C   0  0  0  0  0  0  0  0  0  0  0  0
    9.1643   -2.5338   -0.0858 C   0  0  0  0  0  0  0  0  0  0  0  0
   -4.2172    0.5507    0.2780 N   0  0  0  0  0  0  0  0  0  0  0  0
    2.7674    0.8911    0.2061 N   0  0  0  0  0  0  0  0  0  0  0  0
    0.5381    1.0994   -0.2061 N   0  0  0  0  0  0  0  0  0  0  0  0
    1.7329    2.9003    0.5321 O   0  0  0  0  0  0  0  0  0  0  0  0
   -3.8799   -1.6266   -0.5746 O   0  0  0  0  0  0  0  0  0  0  0  0
   -5.5334   -1.1833    2.5618 O   0  0  0  0  0  0  0  0  0  0  0  0
   -6.4955   -3.5679    0.8497 O   0  0  0  0  0  0  0  0  0  0  0  0
   -4.9822   -2.6707   -2.8975 O   0  0  0  0  0  0  0  0  0  0  0  0
   -4.9187    3.3379   -0.4867 Cl  0  0  0  0  0  0  0  0  0  0  0  0
    3.4872   -0.9901    1.8639 H   0  0  0  0  0  0  0  0  0  0  0  0
    4.7549   -3.0780    2.0708 H   0  0  0  0  0  0  0  0  0  0  0  0
    6.9094   -3.3535    0.9338 H   0  0  0  0  0  0  0  0  0  0  0  0
    6.5770    0.6134   -0.6251 H   0  0  0  0  0  0  0  0  0  0  0  0
    9.4345   -0.9735   -2.2512 H   0  0  0  0  0  0  0  0  0  0  0  0
    7.7812   -0.1721   -2.2268 H   0  0  0  0  0  0  0  0  0  0  0  0
    5.3108    2.0774    2.1415 H   0  0  0  0  0  0  0  0  0  0  0  0
    3.7816    2.9210    1.8987 H   0  0  0  0  0  0  0  0  0  0  0  0
    3.8008    1.3300    2.6664 H   0  0  0  0  0  0  0  0  0  0  0  0
    4.6917    1.7533   -1.5450 H   0  0  0  0  0  0  0  0  0  0  0  0
    4.0489    3.1090   -0.6162 H   0  0  0  0  0  0  0  0  0  0  0  0
    5.6927    2.5641   -0.3313 H   0  0  0  0  0  0  0  0  0  0  0  0
   -0.1163    3.6648   -0.8792 H   0  0  0  0  0  0  0  0  0  0  0  0
   -2.4055    4.5183   -0.9852 H   0  0  0  0  0  0  0  0  0  0  0  0
   -1.6344   -0.1713    0.2772 H   0  0  0  0  0  0  0  0  0  0  0  0
   -3.3065   -0.9746    1.2996 H   0  0  0  0  0  0  0  0  0  0  0  0
   -6.2733   -0.9563    0.6420 H   0  0  0  0  0  0  0  0  0  0  0  0
   -4.5645   -3.3022    1.5365 H   0  0  0  0  0  0  0  0  0  0  0  0
   -4.0088   -3.6689   -0.7158 H   0  0  0  0  0  0  0  0  0  0  0  0
   -6.2789   -3.7061   -1.6470 H   0  0  0  0  0  0  0  0  0  0  0  0
   -6.3889   -1.9472   -1.5474 H   0  0  0  0  0  0  0  0  0  0  0  0
    9.3456   -2.3484    0.9746 H   0  0  0  0  0  0  0  0  0  0  0  0
    8.7979   -3.5593   -0.1707 H   0  0  0  0  0  0  0  0  0  0  0  0
   10.1175   -2.4840   -0.6100 H   0  0  0  0  0  0  0  0  0  0  0  0
   -5.1061    0.8611   -0.0857 H   0  0  0  0  0  0  0  0  0  0  0  0
    2.6667    0.0168   -0.2862 H   0  0  0  0  0  0  0  0  0  0  0  0
    0.5444    0.0907   -0.2219 H   0  0  0  0  0  0  0  0  0  0  0  0
   -5.7058   -0.2509    2.7283 H   0  0  0  0  0  0  0  0  0  0  0  0
   -6.8063   -3.6326    1.7582 H   0  0  0  0  0  0  0  0  0  0  0  0
   -5.6142   -2.7431   -3.6178 H   0  0  0  0  0  0  0  0  0  0  0  0
 33 16  1  0
 31 21  1  0
 20 21  1  0
 20 30  1  0
 20 19  1  0
 21 22  1  0
 32 23  1  0
 25 19  1  0
 25 17  1  0
 16 15  1  0
 16 17  2  0
 23 22  1  0
 19 29  1  0
 15 14  2  0
 22 29  1  0
 17 18  1  0
 14 13  1  0
 18 13  2  0
 13 27  1  0
 27  9  1  0
 28  9  2  0
  9 26  1  0
 10 26  1  6
 24  7  1  0
 12 10  1  0
 10  1  1  0
 10 11  1  0
  6  1  1  0
  6  5  2  0
  7  8  2  0
  7  5  1  0
  1  2  2  0
  5  4  1  0
  2  3  1  0
  4  3  2  0
  2 34  1  0
  3 35  1  0
  4 36  1  0
  6 37  1  0
  8 38  1  0
  8 39  1  0
 11 40  1  0
 11 41  1  0
 11 42  1  0
 12 43  1  0
 12 44  1  0
 12 45  1  0
 14 46  1  0
 15 47  1  0
 18 48  1  0
 19 49  1  1
 20 50  1  6
 21 51  1  1
 22 52  1  6
 23 53  1  0
 23 54  1  0
 24 55  1  0
 24 56  1  0
 24 57  1  0
 25 58  1  0
 26 59  1  0
 27 60  1  0
 30 61  1  0
 31 62  1  0
 32 63  1  0
M  END
