
     RDKit          3D

 23 23  0  0  0  0  0  0  0  0999 V2000
    0.3948    0.4529    3.0450 C   0  0  0  0  0  0  0  0  0  0  0  0
    0.1845   -0.0997    1.6448 C   0  0  2  0  0  0  0  0  0  0  0  0
    0.3612    1.0185    0.6112 C   0  0  0  0  0  0  0  0  0  0  0  0
    0.1969    0.5257   -0.7969 C   0  0  0  0  0  0  0  0  0  0  0  0
   -1.0182    0.6509   -1.4653 C   0  0  0  0  0  0  0  0  0  0  0  0
   -1.1756    0.1658   -2.7572 C   0  0  0  0  0  0  0  0  0  0  0  0
   -0.1167   -0.4613   -3.4002 C   0  0  0  0  0  0  0  0  0  0  0  0
    1.1003   -0.5947   -2.7432 C   0  0  0  0  0  0  0  0  0  0  0  0
    1.2528   -0.1035   -1.4538 C   0  0  0  0  0  0  0  0  0  0  0  0
    0.3361   -0.5993    3.9769 O   0  0  0  0  0  0  0  0  0  0  0  0
   -1.0537   -0.7561    1.5082 O   0  0  0  0  0  0  0  0  0  0  0  0
   -0.3707    1.2177    3.2461 H   0  0  0  0  0  0  0  0  0  0  0  0
    1.3652    0.9667    3.0722 H   0  0  0  0  0  0  0  0  0  0  0  0
    0.9448   -0.8658    1.4570 H   0  0  0  0  0  0  0  0  0  0  0  0
   -0.3610    1.8160    0.8140 H   0  0  0  0  0  0  0  0  0  0  0  0
    1.3542    1.4565    0.7400 H   0  0  0  0  0  0  0  0  0  0  0  0
   -1.8491    1.1436   -0.9734 H   0  0  0  0  0  0  0  0  0  0  0  0
   -2.1276    0.2769   -3.2609 H   0  0  0  0  0  0  0  0  0  0  0  0
   -0.2390   -0.8405   -4.4066 H   0  0  0  0  0  0  0  0  0  0  0  0
    1.9337   -1.0794   -3.2361 H   0  0  0  0  0  0  0  0  0  0  0  0
    2.2082   -0.2073   -0.9512 H   0  0  0  0  0  0  0  0  0  0  0  0
    0.4228   -0.2230    4.8571 H   0  0  0  0  0  0  0  0  0  0  0  0
   -1.7586   -0.1127    1.6406 H   0  0  0  0  0  0  0  0  0  0  0  0
  1  2  1  0
  1 10  1  0
  1 12  1  0
  1 13  1  0
  2  3  1  0
  2 11  1  0
  2 14  1  6
  3  4  1  0
  3 15  1  0
  3 16  1  0
  4  5  2  0
  4  9  1  0
  5  6  1  0
  5 17  1  0
  6  7  2  0
  6 18  1  0
  7  8  1  0
  7 19  1  0
  8  9  2  0
  8 20  1  0
  9 21  1  0
 10 22  1  0
 11 23  1  0
M  END
