
     RDKit          3D

 30 31  0  0  0  0  0  0  0  0999 V2000
    0.0086   -0.5528    4.2071 C   0  0  0  0  0  0  0  0  0  0  0  0
    1.2079   -0.2249    3.5865 C   0  0  0  0  0  0  0  0  0  0  0  0
    1.2059    0.3830    2.3415 C   0  0  0  0  0  0  0  0  0  0  0  0
    0.0099    0.6788    1.6965 C   0  0  0  0  0  0  0  0  0  0  0  0
   -1.1865    0.3511    2.3247 C   0  0  0  0  0  0  0  0  0  0  0  0
   -1.1900   -0.2558    3.5702 C   0  0  0  0  0  0  0  0  0  0  0  0
    0.0083   -1.1999    5.5586 C   0  0  0  0  0  0  0  0  0  0  0  0
   -0.0027   -0.1862    6.6776 C   0  0  0  0  0  0  0  0  0  0  0  0
    0.0386    0.5565   -0.6504 C   0  0  0  0  0  0  0  0  0  0  0  0
    0.0388    1.2637   -1.8412 C   0  0  0  0  0  0  0  0  0  0  0  0
    0.0693    0.5760   -3.0426 C   0  0  0  0  0  0  0  0  0  0  0  0
    0.1017   -0.8212   -3.0953 C   0  0  0  0  0  0  0  0  0  0  0  0
    0.0982   -1.4938   -1.8729 C   0  0  0  0  0  0  0  0  0  0  0  0
    0.0671   -0.8286   -0.6576 C   0  0  0  0  0  0  0  0  0  0  0  0
    3.0198    0.8831    1.4209 I   0  0  0  0  0  0  0  0  0  0  0  0
   -2.9995    0.8005    1.3766 I   0  0  0  0  0  0  0  0  0  0  0  0
    0.0671    1.6957   -4.8224 I   0  0  0  0  0  0  0  0  0  0  0  0
    0.1430   -3.5903   -1.8762 I   0  0  0  0  0  0  0  0  0  0  0  0
   -0.0193    1.0076    6.5269 O   0  0  0  0  0  0  0  0  0  0  0  0
    0.0080   -0.7811    7.8628 O   0  0  0  0  0  0  0  0  0  0  0  0
    0.0089    1.3082    0.4939 O   0  0  0  0  0  0  0  0  0  0  0  0
    0.1369   -1.5515   -4.2129 O   0  0  0  0  0  0  0  0  0  0  0  0
    2.1446   -0.4511    4.0786 H   0  0  0  0  0  0  0  0  0  0  0  0
   -2.1273   -0.5059    4.0496 H   0  0  0  0  0  0  0  0  0  0  0  0
    0.8838   -1.8427    5.6826 H   0  0  0  0  0  0  0  0  0  0  0  0
   -0.8600   -1.8534    5.6770 H   0  0  0  0  0  0  0  0  0  0  0  0
    0.0159    2.3450   -1.8193 H   0  0  0  0  0  0  0  0  0  0  0  0
    0.0657   -1.3965    0.2631 H   0  0  0  0  0  0  0  0  0  0  0  0
    0.0001   -0.1184    8.5697 H   0  0  0  0  0  0  0  0  0  0  0  0
    0.1307   -1.0079   -5.0113 H   0  0  0  0  0  0  0  0  0  0  0  0
  1  2  2  0
  1  6  1  0
  1  7  1  0
  2  3  1  0
  2 23  1  0
  3  4  2  0
  3 15  1  0
  4  5  1  0
  4 21  1  0
  5  6  2  0
  5 16  1  0
  6 24  1  0
  7  8  1  0
  7 25  1  0
  7 26  1  0
  8 19  2  0
  8 20  1  0
  9 10  2  0
  9 14  1  0
  9 21  1  0
 10 11  1  0
 10 27  1  0
 11 12  2  0
 11 17  1  0
 12 13  1  0
 12 22  1  0
 13 14  2  0
 13 18  1  0
 14 28  1  0
 20 29  1  0
 22 30  1  0
M  END
