
     RDKit          3D

 64 68  0  0  0  0  0  0  0  0999 V2000
   -7.4184   -4.5399    0.2078 C   0  0  0  0  0  0  0  0  0  0  0  0
    1.9190    8.3658    0.3710 C   0  0  0  0  0  0  0  0  0  0  0  0
   -6.0863   -3.0126    1.4975 C   0  0  0  0  0  0  0  0  0  0  0  0
   -7.2067   -3.7646   -0.9239 C   0  0  0  0  0  0  0  0  0  0  0  0
    2.3180    7.0624    0.2982 C   0  0  0  0  0  0  0  0  0  0  0  0
    3.4920   -1.5497   -0.8998 C   0  0  0  0  0  0  0  0  0  0  0  0
    0.5394    8.6608    0.3091 C   0  0  0  0  0  0  0  0  0  0  0  0
    3.0985   -3.5543    0.3656 C   0  0  0  0  0  0  0  0  0  0  0  0
   -3.5732   -1.2585    0.0048 C   0  0  0  0  0  0  0  0  0  0  0  0
    2.6118   -2.3845   -0.2339 C   0  0  0  0  0  0  0  0  0  0  0  0
   -5.8561   -2.2127    0.3805 C   0  0  0  0  0  0  0  0  0  0  0  0
   -0.0154    6.4555    0.1139 C   0  0  0  0  0  0  0  0  0  0  0  0
   -6.4318   -2.6267   -0.8121 C   0  0  0  0  0  0  0  0  0  0  0  0
   -1.4583   -0.0006   -0.0028 C   0  0  0  0  0  0  0  0  0  0  0  0
    0.5405   -1.0070   -0.1215 C   0  0  0  0  0  0  0  0  0  0  0  0
    7.5557   -2.6194   -1.0776 C   0  0  0  0  0  0  0  0  0  0  0  0
    4.1357   -5.8717    1.5498 C   0  0  0  0  0  0  0  0  0  0  0  0
   -6.8567   -4.1647    1.4204 C   0  0  0  0  0  0  0  0  0  0  0  0
   -0.6748    4.1310   -0.0930 C   0  0  0  0  0  0  0  0  0  0  0  0
   -1.0026    5.4561   -0.0181 C   0  0  0  0  0  0  0  0  0  0  0  0
    4.8466   -1.8772   -0.9566 C   0  0  0  0  0  0  0  0  0  0  0  0
    1.6648    4.6831    0.0891 C   0  0  0  0  0  0  0  0  0  0  0  0
   -5.0024   -0.9806    0.4641 C   0  0  0  0  0  0  0  0  0  0  0  0
    1.3405    6.0492    0.1650 C   0  0  0  0  0  0  0  0  0  0  0  0
    0.6833    3.7222   -0.0364 C   0  0  0  0  0  0  0  0  0  0  0  0
    5.3374   -3.0298   -0.3718 C   0  0  0  0  0  0  0  0  0  0  0  0
    4.4396   -3.8849    0.2989 C   0  0  0  0  0  0  0  0  0  0  0  0
    0.4115    1.2265   -0.0977 C   0  0  0  0  0  0  0  0  0  0  0  0
   -0.3925    7.7541    0.1861 N   0  0  0  0  0  0  0  0  0  0  0  0
   -0.9054    1.2238   -0.0250 N   0  0  0  0  0  0  0  0  0  0  0  0
   -0.7870   -1.1451   -0.0490 N   0  0  0  0  0  0  0  0  0  0  0  0
    1.1948    0.1443   -0.1533 N   0  0  0  0  0  0  0  0  0  0  0  0
   -2.7925   -0.0454    0.0806 N   0  0  0  0  0  0  0  0  0  0  0  0
    1.0993    2.3984   -0.1185 N   0  0  0  0  0  0  0  0  0  0  0  0
    1.2297   -2.1692   -0.1581 N   0  0  0  0  0  0  0  0  0  0  0  0
    6.6266   -3.4248   -0.3839 O   0  0  0  0  0  0  0  0  0  0  0  0
    4.9831   -4.9874    0.8453 O   0  0  0  0  0  0  0  0  0  0  0  0
   -6.2286   -1.8831   -1.9158 F   0  0  0  0  0  0  0  0  0  0  0  0
   -8.0233   -5.4340    0.1371 H   0  0  0  0  0  0  0  0  0  0  0  0
    2.6352    9.1690    0.4744 H   0  0  0  0  0  0  0  0  0  0  0  0
   -5.6547   -2.7173    2.4465 H   0  0  0  0  0  0  0  0  0  0  0  0
   -7.6376   -4.0361   -1.8789 H   0  0  0  0  0  0  0  0  0  0  0  0
    3.3673    6.7968    0.3414 H   0  0  0  0  0  0  0  0  0  0  0  0
    3.1502   -0.6455   -1.3766 H   0  0  0  0  0  0  0  0  0  0  0  0
    0.2132    9.6941    0.3658 H   0  0  0  0  0  0  0  0  0  0  0  0
    2.4029   -4.1965    0.8910 H   0  0  0  0  0  0  0  0  0  0  0  0
   -3.1245   -2.0196    0.6439 H   0  0  0  0  0  0  0  0  0  0  0  0
   -3.5753   -1.6581   -1.0142 H   0  0  0  0  0  0  0  0  0  0  0  0
    7.3087   -2.5333   -2.1395 H   0  0  0  0  0  0  0  0  0  0  0  0
    7.6258   -1.6143   -0.6520 H   0  0  0  0  0  0  0  0  0  0  0  0
    8.5225   -3.1078   -0.9816 H   0  0  0  0  0  0  0  0  0  0  0  0
    4.7649   -6.6818    1.9101 H   0  0  0  0  0  0  0  0  0  0  0  0
    3.6607   -5.3855    2.4062 H   0  0  0  0  0  0  0  0  0  0  0  0
    3.3569   -6.2899    0.9064 H   0  0  0  0  0  0  0  0  0  0  0  0
   -7.0203   -4.7642    2.3058 H   0  0  0  0  0  0  0  0  0  0  0  0
   -1.4505    3.3902   -0.1910 H   0  0  0  0  0  0  0  0  0  0  0  0
   -2.0416    5.7578   -0.0615 H   0  0  0  0  0  0  0  0  0  0  0  0
    5.5084   -1.2051   -1.4862 H   0  0  0  0  0  0  0  0  0  0  0  0
    2.7087    4.3917    0.1330 H   0  0  0  0  0  0  0  0  0  0  0  0
   -4.9816   -0.6299    1.4974 H   0  0  0  0  0  0  0  0  0  0  0  0
   -5.4317   -0.1728   -0.1338 H   0  0  0  0  0  0  0  0  0  0  0  0
   -3.2717    0.8383    0.0072 H   0  0  0  0  0  0  0  0  0  0  0  0
    2.0994    2.2629   -0.1448 H   0  0  0  0  0  0  0  0  0  0  0  0
    0.6565   -2.9889   -0.0281 H   0  0  0  0  0  0  0  0  0  0  0  0
  1  4  2  0
  1 18  1  0
  2  5  2  0
  2  7  1  0
  3 11  1  0
  3 18  2  0
  4 13  1  0
  5 24  1  0
  6 10  2  0
  6 21  1  0
  7 29  2  0
  8 10  1  0
  8 27  2  0
  9 23  1  0
  9 33  1  0
 10 35  1  0
 11 13  2  0
 11 23  1  0
 12 20  1  0
 12 24  2  0
 12 29  1  0
 13 38  1  0
 14 30  2  0
 14 31  1  0
 14 33  1  0
 15 31  2  0
 15 32  1  0
 15 35  1  0
 16 36  1  0
 17 37  1  0
 19 20  2  0
 19 25  1  0
 21 26  2  0
 22 24  1  0
 22 25  2  0
 25 34  1  0
 26 27  1  0
 26 36  1  0
 27 37  1  0
 28 30  1  0
 28 32  2  0
 28 34  1  0
  1 39  1  0
  2 40  1  0
  3 41  1  0
  4 42  1  0
  5 43  1  0
  6 44  1  0
  7 45  1  0
  8 46  1  0
  9 47  1  0
  9 48  1  0
 16 49  1  0
 16 50  1  0
 16 51  1  0
 17 52  1  0
 17 53  1  0
 17 54  1  0
 18 55  1  0
 19 56  1  0
 20 57  1  0
 21 58  1  0
 22 59  1  0
 23 60  1  0
 23 61  1  0
 33 62  1  0
 34 63  1  0
 35 64  1  0
M  END
