
     RDKit          3D

 43 45  0  0  0  0  0  0  0  0999 V2000
   -5.5353    0.2067    0.9006 C   0  0  0  0  0  0  0  0  0  0  0  0
   -4.6765    0.2497   -0.1960 C   0  0  0  0  0  0  0  0  0  0  0  0
   -5.1781   -0.2663   -1.3846 C   0  0  0  0  0  0  0  0  0  0  0  0
   -6.4541   -0.7721   -1.5193 C   0  0  0  0  0  0  0  0  0  0  0  0
   -7.2780   -0.7804   -0.4043 C   0  0  0  0  0  0  0  0  0  0  0  0
   -6.8252   -0.2947    0.8119 C   0  0  0  0  0  0  0  0  0  0  0  0
    8.0319    2.6600   -1.1973 C   0  0  0  0  0  0  0  0  0  0  0  0
    7.7162    1.2131   -0.8634 C   0  0  0  0  0  0  0  0  0  0  0  0
    6.2451    0.9645   -0.6023 C   0  0  0  0  0  0  0  0  0  0  0  0
    5.3731    1.7326   -0.9651 O   0  0  0  0  0  0  0  0  0  0  0  0
    4.7877   -0.7972    0.4029 C   0  0  0  0  0  0  0  0  0  0  0  0
    3.5380   -0.2550    0.1157 C   0  0  0  0  0  0  0  0  0  0  0  0
    4.8617   -2.0163    1.0855 C   0  0  0  0  0  0  0  0  0  0  0  0
    3.7077   -2.6728    1.4706 C   0  0  0  0  0  0  0  0  0  0  0  0
    2.4602   -2.1364    1.1862 C   0  0  0  0  0  0  0  0  0  0  0  0
    2.3784   -0.9253    0.5073 C   0  0  0  0  0  0  0  0  0  0  0  0
    1.0672   -0.3477    0.1992 C   0  0  0  0  0  0  0  0  0  0  0  0
   -0.0975   -0.9583    0.5279 N   0  0  0  0  0  0  0  0  0  0  0  0
    0.9249    0.7987   -0.4187 N   0  0  0  0  0  0  0  0  0  0  0  0
   -0.4138    0.9333   -0.4888 N   0  0  0  0  0  0  0  0  0  0  0  0
   -1.0141   -0.1259    0.0754 C   0  0  0  0  0  0  0  0  0  0  0  0
   -2.3528   -0.3220    0.1245 N   0  0  0  0  0  0  0  0  0  0  0  0
   -3.2714    0.7731   -0.1255 C   0  0  0  0  0  0  0  0  0  0  0  0
   -4.9868    0.7814    2.4400 Cl  0  0  0  0  0  0  0  0  0  0  0  0
   -4.3762   -0.2644   -2.4574 F   0  0  0  0  0  0  0  0  0  0  0  0
   -6.7933   -1.1521   -2.4735 H   0  0  0  0  0  0  0  0  0  0  0  0
   -8.2824   -1.1735   -0.4822 H   0  0  0  0  0  0  0  0  0  0  0  0
   -7.4652   -0.3100    1.6826 H   0  0  0  0  0  0  0  0  0  0  0  0
    9.0951    2.7683   -1.4079 H   0  0  0  0  0  0  0  0  0  0  0  0
    7.4829    2.9991   -2.0743 H   0  0  0  0  0  0  0  0  0  0  0  0
    7.7878    3.3255   -0.3695 H   0  0  0  0  0  0  0  0  0  0  0  0
    8.0142    0.5634   -1.6930 H   0  0  0  0  0  0  0  0  0  0  0  0
    8.3045    0.8814   -0.0043 H   0  0  0  0  0  0  0  0  0  0  0  0
    6.8193   -0.7372    0.3075 H   0  0  0  0  0  0  0  0  0  0  0  0
    3.4536    0.6806   -0.4116 H   0  0  0  0  0  0  0  0  0  0  0  0
    5.8289   -2.4496    1.3115 H   0  0  0  0  0  0  0  0  0  0  0  0
    3.7840   -3.6141    1.9990 H   0  0  0  0  0  0  0  0  0  0  0  0
    1.5594   -2.6532    1.4875 H   0  0  0  0  0  0  0  0  0  0  0  0
   -3.0174    1.2375   -1.0789 H   0  0  0  0  0  0  0  0  0  0  0  0
   -0.8197    1.7481   -0.9206 H   0  0  0  0  0  0  0  0  0  0  0  0
   -2.6395   -0.9980    0.8163 H   0  0  0  0  0  0  0  0  0  0  0  0
   -3.1959    1.5560    0.6339 H   0  0  0  0  0  0  0  0  0  0  0  0
    6.0022   -0.2045    0.0496 N   0  0  0  0  0  0  0  0  0  0  0  0
 25  3  1  0
  4  3  2  0
  4  5  1  0
  3  2  1  0
  7  8  1  0
 20 19  1  0
 20 21  1  0
 22 21  1  0
 22 23  1  0
  5  6  2  0
 19 17  2  0
 21 18  2  0
  2 23  1  0
  2  1  2  0
 17 18  1  0
 17 16  1  0
 12 16  1  0
 12 11  2  0
  8  9  1  0
 43 11  1  0
 43  9  1  0
 16 15  2  0
 11 13  1  0
  9 10  2  0
 15 14  1  0
 13 14  2  0
  6  1  1  0
  1 24  1  0
  4 26  1  0
  5 27  1  0
  6 28  1  0
  7 29  1  0
  7 30  1  0
  7 31  1  0
  8 32  1  0
  8 33  1  0
 43 34  1  0
 12 35  1  0
 13 36  1  0
 14 37  1  0
 15 38  1  0
 23 39  1  0
 20 40  1  0
 22 41  1  0
 23 42  1  0
M  END
