
     RDKit          3D

  4  3  0  0  0  0  0  0  0  0999 V2000
   -1.0875   -0.1624    0.0039 S   0  0  0  0  0  0  0  0  0  0  0  0
    0.4761    0.0488   -0.0183 C   0  0  0  0  0  0  0  0  0  0  0  0
    1.6554    0.1081   -0.0450 N   0  0  0  0  0  0  0  0  0  0  0  0
    2.4333    0.7408   -0.0047 H   0  0  0  0  0  0  0  0  0  0  0  0
  3  2  2  0
  2  1  2  0
  3  4  1  0
M  END
