
     RDKit          3D

 73 76  0  0  0  0  0  0  0  0999 V2000
    5.0990   -2.5829   -0.0153 C   0  0  0  0  0  0  0  0  0  0  0  0
  -10.2990   -0.0965   -0.0948 N   0  0  0  0  0  0  0  0  0  0  0  0
    3.7387   -1.9360    0.0124 C   0  0  0  0  0  0  0  0  0  0  0  0
    7.7021    3.0860   -0.2999 N   0  0  0  0  0  0  0  0  0  0  0  0
    3.5291   -0.6161   -0.1631 C   0  0  0  0  0  0  0  0  0  0  0  0
    2.1717   -0.0334   -0.2904 C   0  0  0  0  0  0  0  0  0  0  0  0
    1.2191   -0.5673   -1.1618 C   0  0  0  0  0  0  0  0  0  0  0  0
   -8.5158   -1.2778    0.6199 O   0  0  0  0  0  0  0  0  0  0  0  0
   -0.0433   -0.0193   -1.2725 C   0  0  0  0  0  0  0  0  0  0  0  0
   -0.3988    1.0923   -0.5059 C   0  0  0  0  0  0  0  0  0  0  0  0
   -2.1084    2.6195    0.1534 C   0  0  0  0  0  0  0  0  0  0  0  0
   -3.5637    2.8634   -0.1672 C   0  0  0  0  0  0  0  0  0  0  0  0
   -5.7943    1.9521   -0.1106 C   0  0  0  0  0  0  0  0  0  0  0  0
   -6.6312    0.7265    0.2225 C   0  0  0  0  0  0  0  0  0  0  0  0
   -8.0971    0.9657   -0.0997 C   0  0  0  0  0  0  0  0  0  0  0  0
   -8.9805   -0.2363    0.1729 C   0  0  0  0  0  0  0  0  0  0  0  0
  -10.8452    1.0565   -0.7815 C   0  0  0  0  0  0  0  0  0  0  0  0
  -11.1800   -1.2403    0.0258 C   0  0  0  0  0  0  0  0  0  0  0  0
   -4.3922    1.7284    0.1846 N   0  0  0  0  0  0  0  0  0  0  0  0
   -1.6525    1.5562   -0.6689 O   0  0  0  0  0  0  0  0  0  0  0  0
    0.5439    1.6539    0.3513 C   0  0  0  0  0  0  0  0  0  0  0  0
    1.8127    1.0947    0.4402 C   0  0  0  0  0  0  0  0  0  0  0  0
    5.5237   -3.1460    1.3393 C   0  0  0  0  0  0  0  0  0  0  0  0
    2.6148   -2.8669    0.2839 C   0  0  0  0  0  0  0  0  0  0  0  0
    2.4186   -4.0073   -0.4951 C   0  0  0  0  0  0  0  0  0  0  0  0
    1.3776   -4.8843   -0.2240 C   0  0  0  0  0  0  0  0  0  0  0  0
    0.5241   -4.6454    0.8450 C   0  0  0  0  0  0  0  0  0  0  0  0
    0.7217   -3.5231    1.6397 C   0  0  0  0  0  0  0  0  0  0  0  0
    1.7569   -2.6437    1.3609 C   0  0  0  0  0  0  0  0  0  0  0  0
    4.6362    0.3677   -0.2494 C   0  0  0  0  0  0  0  0  0  0  0  0
    5.5607    0.4928    0.7677 C   0  0  0  0  0  0  0  0  0  0  0  0
    6.5736    1.4536    0.6520 C   0  0  0  0  0  0  0  0  0  0  0  0
    7.6710    1.8804    1.4474 C   0  0  0  0  0  0  0  0  0  0  0  0
    8.3246    2.8495    0.8572 N   0  0  0  0  0  0  0  0  0  0  0  0
    6.6350    2.2757   -0.4851 C   0  0  0  0  0  0  0  0  0  0  0  0
    5.7001    2.1714   -1.5225 C   0  0  0  0  0  0  0  0  0  0  0  0
    4.7148    1.2252   -1.3771 C   0  0  0  0  0  0  0  0  0  0  0  0
    5.0796   -3.4033   -0.7402 H   0  0  0  0  0  0  0  0  0  0  0  0
    5.8495   -1.8798   -0.3745 H   0  0  0  0  0  0  0  0  0  0  0  0
    8.0508    3.8017   -0.9163 H   0  0  0  0  0  0  0  0  0  0  0  0
    1.4675   -1.4282   -1.7688 H   0  0  0  0  0  0  0  0  0  0  0  0
   -0.7646   -0.4491   -1.9566 H   0  0  0  0  0  0  0  0  0  0  0  0
   -1.5305    3.5298   -0.0386 H   0  0  0  0  0  0  0  0  0  0  0  0
   -1.9943    2.3600    1.2117 H   0  0  0  0  0  0  0  0  0  0  0  0
   -3.8847    3.7275    0.4215 H   0  0  0  0  0  0  0  0  0  0  0  0
   -3.6607    3.1593   -1.2241 H   0  0  0  0  0  0  0  0  0  0  0  0
   -5.9599    2.2330   -1.1642 H   0  0  0  0  0  0  0  0  0  0  0  0
   -6.1398    2.8035    0.4856 H   0  0  0  0  0  0  0  0  0  0  0  0
   -6.2592   -0.1311   -0.3450 H   0  0  0  0  0  0  0  0  0  0  0  0
   -6.5069    0.4821    1.2794 H   0  0  0  0  0  0  0  0  0  0  0  0
   -8.4646    1.8230    0.4740 H   0  0  0  0  0  0  0  0  0  0  0  0
   -8.2018    1.2535   -1.1513 H   0  0  0  0  0  0  0  0  0  0  0  0
  -11.9079    1.1306   -0.5592 H   0  0  0  0  0  0  0  0  0  0  0  0
  -10.3823    1.9816   -0.4482 H   0  0  0  0  0  0  0  0  0  0  0  0
  -10.7318    0.9851   -1.8667 H   0  0  0  0  0  0  0  0  0  0  0  0
  -11.2877   -1.7697   -0.9249 H   0  0  0  0  0  0  0  0  0  0  0  0
  -10.8026   -1.9387    0.7660 H   0  0  0  0  0  0  0  0  0  0  0  0
  -12.1672   -0.9052    0.3408 H   0  0  0  0  0  0  0  0  0  0  0  0
   -4.0796    0.9186   -0.3388 H   0  0  0  0  0  0  0  0  0  0  0  0
    0.3157    2.5252    0.9503 H   0  0  0  0  0  0  0  0  0  0  0  0
    2.5305    1.5513    1.1109 H   0  0  0  0  0  0  0  0  0  0  0  0
    5.5639   -2.3655    2.1004 H   0  0  0  0  0  0  0  0  0  0  0  0
    4.8317   -3.9123    1.6902 H   0  0  0  0  0  0  0  0  0  0  0  0
    6.5135   -3.5988    1.2736 H   0  0  0  0  0  0  0  0  0  0  0  0
    3.0737   -4.2033   -1.3355 H   0  0  0  0  0  0  0  0  0  0  0  0
    1.2351   -5.7561   -0.8498 H   0  0  0  0  0  0  0  0  0  0  0  0
   -0.2844   -5.3320    1.0607 H   0  0  0  0  0  0  0  0  0  0  0  0
    0.0683   -3.3347    2.4820 H   0  0  0  0  0  0  0  0  0  0  0  0
    1.9022   -1.7727    1.9878 H   0  0  0  0  0  0  0  0  0  0  0  0
    5.4990   -0.1356    1.6473 H   0  0  0  0  0  0  0  0  0  0  0  0
    7.9876    1.5076    2.4096 H   0  0  0  0  0  0  0  0  0  0  0  0
    5.7456    2.8063   -2.3974 H   0  0  0  0  0  0  0  0  0  0  0  0
    3.9711    1.1213   -2.1574 H   0  0  0  0  0  0  0  0  0  0  0  0
 23  1  1  0
  1  3  1  0
 29 28  2  0
 29 24  1  0
 28 27  1  0
  3 24  1  0
  3  5  2  0
 24 25  2  0
 27 26  2  0
 33 34  2  0
 33 32  1  0
 34  4  1  0
 31 32  1  0
 31 30  2  0
 32 35  2  0
 30  5  1  0
 30 37  1  0
  5  6  1  0
 35  4  1  0
 35 36  1  0
 25 26  1  0
 37 36  2  0
  7  6  2  0
  7  9  1  0
  6 22  1  0
  9 10  2  0
 22 21  2  0
 10 21  1  0
 10 20  1  0
 20 11  1  0
 11 12  1  0
 12 19  1  0
 19 13  1  0
 13 14  1  0
 14 15  1  0
 15 16  1  0
  8 16  2  0
 16  2  1  0
  2 18  1  0
  2 17  1  0
  1 38  1  0
  1 39  1  0
  4 40  1  0
  7 41  1  0
  9 42  1  0
 11 43  1  0
 11 44  1  0
 12 45  1  0
 12 46  1  0
 13 47  1  0
 13 48  1  0
 14 49  1  0
 14 50  1  0
 15 51  1  0
 15 52  1  0
 17 53  1  0
 17 54  1  0
 17 55  1  0
 18 56  1  0
 18 57  1  0
 18 58  1  0
 19 59  1  0
 21 60  1  0
 22 61  1  0
 23 62  1  0
 23 63  1  0
 23 64  1  0
 25 65  1  0
 26 66  1  0
 27 67  1  0
 28 68  1  0
 29 69  1  0
 31 70  1  0
 33 71  1  0
 36 72  1  0
 37 73  1  0
M  END
