
     RDKit          3D

 32 34  0  0  0  0  0  0  0  0999 V2000
    3.6630   -2.0718    0.6949 C   0  0  0  0  0  0  0  0  0  0  0  0
    4.5992   -1.1340    0.2860 C   0  0  0  0  0  0  0  0  0  0  0  0
    2.3176   -1.7413    0.6753 C   0  0  0  0  0  0  0  0  0  0  0  0
   -0.0673    0.9158    0.9777 C   0  0  0  0  0  0  0  0  0  0  0  0
   -1.4184    1.1708    1.0051 C   0  0  0  0  0  0  0  0  0  0  0  0
    4.1841    0.1166   -0.1480 C   0  0  0  0  0  0  0  0  0  0  0  0
   -0.4448   -1.0244   -0.3880 C   0  0  0  0  0  0  0  0  0  0  0  0
    0.4381   -0.1893    0.2705 C   0  0  0  0  0  0  0  0  0  0  0  0
    1.8898   -0.4822    0.2540 C   0  0  0  0  0  0  0  0  0  0  0  0
   -2.3128    0.3334    0.3310 C   0  0  0  0  0  0  0  0  0  0  0  0
   -1.8265   -0.7830   -0.3731 C   0  0  0  0  0  0  0  0  0  0  0  0
    2.8347    0.4610   -0.1756 C   0  0  0  0  0  0  0  0  0  0  0  0
   -2.7520   -1.6376   -1.0564 C   0  0  0  0  0  0  0  0  0  0  0  0
   -4.0643   -1.3472   -1.0063 C   0  0  0  0  0  0  0  0  0  0  0  0
   -3.7460    0.6285    0.3688 C   0  0  0  0  0  0  0  0  0  0  0  0
    2.4179    1.8209   -0.6794 C   0  0  0  0  0  0  0  0  0  0  0  0
   -4.5270   -0.2592   -0.3216 N   0  0  0  0  0  0  0  0  0  0  0  0
   -4.2405    1.5816    0.9573 O   0  0  0  0  0  0  0  0  0  0  0  0
    3.3852    2.3067   -1.5773 O   0  0  0  0  0  0  0  0  0  0  0  0
    3.9755   -3.0515    1.0316 H   0  0  0  0  0  0  0  0  0  0  0  0
    5.6544   -1.3747    0.2995 H   0  0  0  0  0  0  0  0  0  0  0  0
    1.5809   -2.4649    1.0027 H   0  0  0  0  0  0  0  0  0  0  0  0
   -1.7949    2.0233    1.5545 H   0  0  0  0  0  0  0  0  0  0  0  0
    4.9258    0.8312   -0.4782 H   0  0  0  0  0  0  0  0  0  0  0  0
   -0.0698   -1.8784   -0.9393 H   0  0  0  0  0  0  0  0  0  0  0  0
   -2.4058   -2.5038   -1.6013 H   0  0  0  0  0  0  0  0  0  0  0  0
   -4.8204   -1.9441   -1.4940 H   0  0  0  0  0  0  0  0  0  0  0  0
    1.4320    1.7496   -1.1553 H   0  0  0  0  0  0  0  0  0  0  0  0
    2.2997    2.5017    0.1742 H   0  0  0  0  0  0  0  0  0  0  0  0
    3.1715    3.2229   -1.7749 H   0  0  0  0  0  0  0  0  0  0  0  0
   -5.5222   -0.0841   -0.3187 H   0  0  0  0  0  0  0  0  0  0  0  0
    0.6087    1.5609    1.5240 H   0  0  0  0  0  0  0  0  0  0  0  0
  1 20  1  0
  2  1  2  0
  2 21  1  0
  3  1  1  0
  3 22  1  0
  4 32  1  0
  5  4  2  0
  5 23  1  0
  6  2  1  0
  6 24  1  0
  7  8  2  0
  7 25  1  0
  8  4  1  0
  8  9  1  0
  9  3  2  0
 10  5  1  0
 11  7  1  0
 11 10  2  0
 12  6  2  0
 12  9  1  0
 13 11  1  0
 13 26  1  0
 14 13  2  0
 14 17  1  0
 14 27  1  0
 15 10  1  0
 15 18  2  0
 16 12  1  0
 16 19  1  0
 16 28  1  0
 16 29  1  0
 17 15  1  0
 17 31  1  0
 19 30  1  0
M  END
