
     RDKit          3D

 22 24  0  0  0  0  0  0  0  0999 V2000
   -1.5334   -0.0008   -1.3990 N   0  0  0  0  0  0  0  0  0  0  0  0
   -1.5285    0.0093   -2.7116 C   0  0  0  0  0  0  0  0  0  0  0  0
   -0.3599    0.0241   -3.4862 C   0  0  0  0  0  0  0  0  0  0  0  0
    0.8487    0.0281   -2.8394 C   0  0  0  0  0  0  0  0  0  0  0  0
    0.8774    0.0173   -1.4345 C   0  0  0  0  0  0  0  0  0  0  0  0
    2.1059    0.0210   -0.7043 C   0  0  0  0  0  0  0  0  0  0  0  0
    2.1052    0.0107    0.6476 C   0  0  0  0  0  0  0  0  0  0  0  0
    0.8760   -0.0049    1.3764 C   0  0  0  0  0  0  0  0  0  0  0  0
    0.8461   -0.0172    2.7812 C   0  0  0  0  0  0  0  0  0  0  0  0
   -0.3628   -0.0322    3.4270 C   0  0  0  0  0  0  0  0  0  0  0  0
   -1.5309   -0.0346    2.6511 C   0  0  0  0  0  0  0  0  0  0  0  0
   -1.5346   -0.0244    1.3387 N   0  0  0  0  0  0  0  0  0  0  0  0
   -0.3580   -0.0091    0.6944 C   0  0  0  0  0  0  0  0  0  0  0  0
   -0.3573    0.0027   -0.7537 C   0  0  0  0  0  0  0  0  0  0  0  0
   -2.4969    0.0058   -3.2007 H   0  0  0  0  0  0  0  0  0  0  0  0
   -0.4239    0.0319   -4.5652 H   0  0  0  0  0  0  0  0  0  0  0  0
    1.7776    0.0399   -3.3959 H   0  0  0  0  0  0  0  0  0  0  0  0
    3.0374    0.0325   -1.2566 H   0  0  0  0  0  0  0  0  0  0  0  0
    3.0360    0.0145    1.2013 H   0  0  0  0  0  0  0  0  0  0  0  0
    1.7749   -0.0145    3.3382 H   0  0  0  0  0  0  0  0  0  0  0  0
   -0.4277   -0.0415    4.5060 H   0  0  0  0  0  0  0  0  0  0  0  0
   -2.4998   -0.0454    3.1390 H   0  0  0  0  0  0  0  0  0  0  0  0
  1  2  2  0
  1 14  1  0
  2  3  1  0
  2 15  1  0
  3  4  2  0
  3 16  1  0
  4  5  1  0
  4 17  1  0
  5  6  1  0
  5 14  2  0
  6  7  2  0
  6 18  1  0
  7  8  1  0
  7 19  1  0
  8  9  1  0
  8 13  2  0
  9 10  2  0
  9 20  1  0
 10 11  1  0
 10 21  1  0
 11 12  2  0
 11 22  1  0
 12 13  1  0
 13 14  1  0
M  END
