
     RDKit          3D

 41 43  0  0  0  0  0  0  0  0999 V2000
    1.9628   -0.2699    0.1756 N   0  0  0  0  0  0  0  0  0  0  0  0
    3.5435   -2.0993   -0.0851 C   0  0  1  0  0  0  0  0  0  0  0  0
    3.6942   -3.6049    0.1366 C   0  0  0  0  0  0  0  0  0  0  0  0
   -1.5217    0.2803    0.0064 C   0  0  0  0  0  0  0  0  0  0  0  0
   -1.6685    1.6404    0.0335 C   0  0  0  0  0  0  0  0  0  0  0  0
   -0.5436    3.8476    0.1271 C   0  0  0  0  0  0  0  0  0  0  0  0
    2.0930   -1.7041    0.2212 C   0  0  0  0  0  0  0  0  0  0  0  0
    4.4033   -1.3065    0.7957 N   0  0  0  0  0  0  0  0  0  0  0  0
    3.8961   -1.7505   -1.5294 C   0  0  0  0  0  0  0  0  0  0  0  0
    0.7879    0.3750    0.1383 C   0  0  0  0  0  0  0  0  0  0  0  0
   -0.3169   -0.3295    0.0690 N   0  0  0  0  0  0  0  0  0  0  0  0
   -0.5015    2.4350    0.1059 C   0  0  0  0  0  0  0  0  0  0  0  0
    0.5194    4.6067    0.1795 N   0  0  0  0  0  0  0  0  0  0  0  0
    1.7250    4.0102    0.2137 C   0  0  0  0  0  0  0  0  0  0  0  0
    1.8943    2.6485    0.2011 C   0  0  0  0  0  0  0  0  0  0  0  0
    0.7617    1.8223    0.1521 C   0  0  0  0  0  0  0  0  0  0  0  0
   -2.6836   -0.6328   -0.0705 C   0  0  0  0  0  0  0  0  0  0  0  0
   -2.5291   -1.9994    0.1552 C   0  0  0  0  0  0  0  0  0  0  0  0
   -3.6374   -2.8279    0.0844 C   0  0  0  0  0  0  0  0  0  0  0  0
   -4.8635   -2.4005   -0.1945 N   0  0  0  0  0  0  0  0  0  0  0  0
   -5.0109   -1.0989   -0.4166 C   0  0  0  0  0  0  0  0  0  0  0  0
   -3.9706   -0.1864   -0.3685 C   0  0  0  0  0  0  0  0  0  0  0  0
    2.8079    0.2210    0.4307 H   0  0  0  0  0  0  0  0  0  0  0  0
    3.0232   -4.1777   -0.5063 H   0  0  0  0  0  0  0  0  0  0  0  0
    4.7157   -3.9231   -0.0805 H   0  0  0  0  0  0  0  0  0  0  0  0
    3.4741   -3.8727    1.1725 H   0  0  0  0  0  0  0  0  0  0  0  0
   -2.6362    2.1213    0.0099 H   0  0  0  0  0  0  0  0  0  0  0  0
   -1.5084    4.3456    0.0958 H   0  0  0  0  0  0  0  0  0  0  0  0
    1.8046   -2.0926    1.2074 H   0  0  0  0  0  0  0  0  0  0  0  0
    1.4193   -2.1614   -0.5045 H   0  0  0  0  0  0  0  0  0  0  0  0
    4.2922   -1.6156    1.7555 H   0  0  0  0  0  0  0  0  0  0  0  0
    5.3760   -1.4700    0.5633 H   0  0  0  0  0  0  0  0  0  0  0  0
    3.7652   -0.6867   -1.7291 H   0  0  0  0  0  0  0  0  0  0  0  0
    4.9366   -2.0054   -1.7412 H   0  0  0  0  0  0  0  0  0  0  0  0
    3.2711   -2.3066   -2.2289 H   0  0  0  0  0  0  0  0  0  0  0  0
    2.5847    4.6674    0.2527 H   0  0  0  0  0  0  0  0  0  0  0  0
    2.9004    2.2518    0.2258 H   0  0  0  0  0  0  0  0  0  0  0  0
   -1.5579   -2.4121    0.3871 H   0  0  0  0  0  0  0  0  0  0  0  0
   -3.5242   -3.8917    0.2628 H   0  0  0  0  0  0  0  0  0  0  0  0
   -6.0130   -0.7563   -0.6494 H   0  0  0  0  0  0  0  0  0  0  0  0
   -4.1812    0.8533   -0.5764 H   0  0  0  0  0  0  0  0  0  0  0  0
  2  8  1  1
  9  2  1  0
  3  2  1  0
  2  7  1  0
  7  1  1  0
  1 10  1  0
 10 11  2  0
 10 16  1  0
 11  4  1  0
 15 16  1  0
 15 14  2  0
 16 12  2  0
 22 21  2  0
 22 17  1  0
 14 13  1  0
  4 17  1  0
  4  5  2  0
 21 20  1  0
 17 18  2  0
 12  5  1  0
 12  6  1  0
 20 19  2  0
 18 19  1  0
 13  6  2  0
  1 23  1  0
  3 24  1  0
  3 25  1  0
  3 26  1  0
  5 27  1  0
  6 28  1  0
  7 29  1  0
  7 30  1  0
  8 31  1  0
  8 32  1  0
  9 33  1  0
  9 34  1  0
  9 35  1  0
 14 36  1  0
 15 37  1  0
 18 38  1  0
 19 39  1  0
 21 40  1  0
 22 41  1  0
M  END
