
     RDKit          3D

 43 44  0  0  0  0  0  0  0  0999 V2000
   -2.2665    1.0947    3.8792 O   0  0  0  0  0  0  0  0  0  0  0  0
   -1.2432    1.2956    3.0284 C   0  0  0  0  0  0  0  0  0  0  0  0
   -0.3043    0.2629    2.8813 C   0  0  0  0  0  0  0  0  0  0  0  0
   -0.4836   -1.0519    3.6084 C   0  0  1  0  0  0  0  0  0  0  0  0
   -1.4344   -1.9514    2.8126 C   0  0  0  0  0  0  0  0  0  0  0  0
    0.8294   -1.7806    3.8792 C   0  0  0  0  0  0  0  0  0  0  0  0
    0.7429    0.4706    1.9945 C   0  0  0  0  0  0  0  0  0  0  0  0
    0.8635    1.6443    1.2540 C   0  0  0  0  0  0  0  0  0  0  0  0
   -0.0704    2.6571    1.4222 C   0  0  0  0  0  0  0  0  0  0  0  0
   -1.1160    2.4838    2.3124 C   0  0  0  0  0  0  0  0  0  0  0  0
    2.1945    1.8373    0.1082 S   0  0  0  0  0  0  0  0  0  0  0  0
    0.6000    0.1119   -3.8054 C   0  0  0  0  0  0  0  0  0  0  0  0
   -0.0886   -0.1823   -2.6216 C   0  0  0  0  0  0  0  0  0  0  0  0
   -1.2726   -1.1273   -2.6188 C   0  0  1  0  0  0  0  0  0  0  0  0
   -0.7854   -2.5788   -2.5628 C   0  0  0  0  0  0  0  0  0  0  0  0
   -2.2731   -0.8583   -1.4983 C   0  0  0  0  0  0  0  0  0  0  0  0
    0.3943    0.3579   -1.4333 C   0  0  0  0  0  0  0  0  0  0  0  0
    1.5164    1.1742   -1.3953 C   0  0  0  0  0  0  0  0  0  0  0  0
    2.1798    1.4654   -2.5828 C   0  0  0  0  0  0  0  0  0  0  0  0
    1.7220    0.9351   -3.7757 C   0  0  0  0  0  0  0  0  0  0  0  0
   -2.8307    1.8754    3.9167 H   0  0  0  0  0  0  0  0  0  0  0  0
   -0.9450   -0.8466    4.5775 H   0  0  0  0  0  0  0  0  0  0  0  0
   -1.6316   -2.8812    3.3489 H   0  0  0  0  0  0  0  0  0  0  0  0
   -2.3910   -1.4650    2.6225 H   0  0  0  0  0  0  0  0  0  0  0  0
   -0.9930   -2.2097    1.8473 H   0  0  0  0  0  0  0  0  0  0  0  0
    1.2979   -2.1371    2.9600 H   0  0  0  0  0  0  0  0  0  0  0  0
    1.5475   -1.1458    4.3998 H   0  0  0  0  0  0  0  0  0  0  0  0
    0.6436   -2.6559    4.5023 H   0  0  0  0  0  0  0  0  0  0  0  0
    1.4873   -0.3036    1.8575 H   0  0  0  0  0  0  0  0  0  0  0  0
    0.0133    3.5743    0.8563 H   0  0  0  0  0  0  0  0  0  0  0  0
   -1.8451    3.2750    2.4466 H   0  0  0  0  0  0  0  0  0  0  0  0
   -0.5957   -0.8483   -4.9687 H   0  0  0  0  0  0  0  0  0  0  0  0
   -1.8383   -0.9981   -3.5502 H   0  0  0  0  0  0  0  0  0  0  0  0
   -1.6254   -3.2711   -2.6348 H   0  0  0  0  0  0  0  0  0  0  0  0
   -0.0904   -2.8110   -3.3709 H   0  0  0  0  0  0  0  0  0  0  0  0
   -0.2717   -2.7702   -1.6186 H   0  0  0  0  0  0  0  0  0  0  0  0
   -1.8616   -1.0896   -0.5137 H   0  0  0  0  0  0  0  0  0  0  0  0
   -2.6053    0.1803   -1.4908 H   0  0  0  0  0  0  0  0  0  0  0  0
   -3.1515   -1.4903   -1.6321 H   0  0  0  0  0  0  0  0  0  0  0  0
   -0.1227    0.1320   -0.5108 H   0  0  0  0  0  0  0  0  0  0  0  0
    3.0511    2.1090   -2.5872 H   0  0  0  0  0  0  0  0  0  0  0  0
    2.2374    1.1623   -4.7009 H   0  0  0  0  0  0  0  0  0  0  0  0
    0.2403   -0.3731   -5.0161 O   0  0  0  0  0  0  0  0  0  0  0  0
  1  2  1  0
  1 21  1  0
  2  3  2  0
  2 10  1  0
  3  4  1  0
  3  7  1  0
  4  5  1  0
  4  6  1  0
  4 22  1  1
  5 23  1  0
  5 24  1  0
  5 25  1  0
  6 26  1  0
  6 27  1  0
  6 28  1  0
  7  8  2  0
  7 29  1  0
  8  9  1  0
  8 11  1  0
  9 10  2  0
  9 30  1  0
 10 31  1  0
 11 18  1  0
 43 12  1  0
 43 32  1  0
 12 13  2  0
 12 20  1  0
 13 14  1  0
 13 17  1  0
 14 15  1  0
 14 16  1  0
 14 33  1  6
 15 34  1  0
 15 35  1  0
 15 36  1  0
 16 37  1  0
 16 38  1  0
 16 39  1  0
 17 18  2  0
 17 40  1  0
 18 19  1  0
 19 20  2  0
 19 41  1  0
 20 42  1  0
M  END
