
     RDKit          3D

 37 39  0  0  0  0  0  0  0  0999 V2000
   -2.8830   -1.2763   -0.0837 C   0  0  0  0  0  0  0  0  0  0  0  0
    4.5560    0.4591   -0.0974 C   0  0  0  0  0  0  0  0  0  0  0  0
   -1.5778   -0.9448   -0.1253 O   0  0  0  0  0  0  0  0  0  0  0  0
   -3.8876   -0.2472   -0.3044 C   0  0  0  0  0  0  0  0  0  0  0  0
    5.3738   -0.7581    0.0256 C   0  0  0  0  0  0  0  0  0  0  0  0
   -3.0084   -2.6162    0.1439 C   0  0  0  0  0  0  0  0  0  0  0  0
   -0.8553   -2.0627    0.0797 C   0  0  0  0  0  0  0  0  0  0  0  0
    1.1546   -0.8395   -0.0337 N   0  0  0  0  0  0  0  0  0  0  0  0
   -1.6912   -3.1278    0.2497 C   0  0  0  0  0  0  0  0  0  0  0  0
    0.5779   -1.9706    0.1014 C   0  0  0  0  0  0  0  0  0  0  0  0
    3.1409    0.3932   -0.1067 C   0  0  0  0  0  0  0  0  0  0  0  0
   -3.7511    1.0966    0.0609 C   0  0  0  0  0  0  0  0  0  0  0  0
    6.6783   -0.5244    0.0186 O   0  0  0  0  0  0  0  0  0  0  0  0
    2.4830   -0.8012   -0.0102 N   0  0  0  0  0  0  0  0  0  0  0  0
    4.9283   -1.8860    0.1281 O   0  0  0  0  0  0  0  0  0  0  0  0
   -2.3360    1.6783    0.8744 Cl  0  0  0  0  0  0  0  0  0  0  0  0
    5.1787    1.7106   -0.2030 C   0  0  0  0  0  0  0  0  0  0  0  0
   -5.0907   -0.6286   -0.9106 C   0  0  0  0  0  0  0  0  0  0  0  0
    2.4127    1.5903   -0.2155 C   0  0  0  0  0  0  0  0  0  0  0  0
   -4.7635    2.0142   -0.1802 C   0  0  0  0  0  0  0  0  0  0  0  0
    4.4527    2.8758   -0.3139 C   0  0  0  0  0  0  0  0  0  0  0  0
   -6.1092    0.2770   -1.1420 C   0  0  0  0  0  0  0  0  0  0  0  0
    3.0604    2.8013   -0.3179 C   0  0  0  0  0  0  0  0  0  0  0  0
   -5.9425    1.6077   -0.7830 C   0  0  0  0  0  0  0  0  0  0  0  0
   -3.9293   -3.1678    0.2436 H   0  0  0  0  0  0  0  0  0  0  0  0
   -1.3962   -4.1475    0.4376 H   0  0  0  0  0  0  0  0  0  0  0  0
    1.1194   -2.9063    0.2441 H   0  0  0  0  0  0  0  0  0  0  0  0
    7.1598   -1.3598    0.1112 H   0  0  0  0  0  0  0  0  0  0  0  0
    3.0343   -1.6478    0.0971 H   0  0  0  0  0  0  0  0  0  0  0  0
    6.2578    1.7686   -0.1975 H   0  0  0  0  0  0  0  0  0  0  0  0
   -5.2134   -1.6580   -1.2207 H   0  0  0  0  0  0  0  0  0  0  0  0
    1.3334    1.5521   -0.2157 H   0  0  0  0  0  0  0  0  0  0  0  0
   -4.6300    3.0468    0.1124 H   0  0  0  0  0  0  0  0  0  0  0  0
    4.9561    3.8288   -0.3963 H   0  0  0  0  0  0  0  0  0  0  0  0
   -7.0237   -0.0533   -1.6154 H   0  0  0  0  0  0  0  0  0  0  0  0
    2.4695    3.7045   -0.4010 H   0  0  0  0  0  0  0  0  0  0  0  0
   -6.7246    2.3314   -0.9683 H   0  0  0  0  0  0  0  0  0  0  0  0
  3  1  1  0
  4  1  1  0
  1  6  2  0
  5  2  1  0
  2 17  2  0
  2 11  1  0
  3  7  1  0
 18  4  1  0
  4 12  2  0
 15  5  2  0
 13  5  1  0
  9  6  1  0
  6 25  1  0
 10  7  1  0
  7  9  2  0
 14  8  1  0
 10  8  2  0
  9 26  1  0
 10 27  1  0
 14 11  1  0
 11 19  2  0
 20 12  1  0
 12 16  1  0
 13 28  1  0
 14 29  1  0
 17 21  1  0
 17 30  1  0
 22 18  2  0
 18 31  1  0
 19 23  1  0
 19 32  1  0
 24 20  2  0
 20 33  1  0
 21 23  2  0
 21 34  1  0
 22 24  1  0
 22 35  1  0
 23 36  1  0
 24 37  1  0
M  END
