
     RDKit          3D

 29 30  0  0  0  0  0  0  0  0999 V2000
    7.3779    0.2741   -0.0626 C   0  0  0  0  0  0  0  0  0  0  0  0
   -4.5353    1.0038    1.3315 N   0  0  0  0  0  0  0  0  0  0  0  0
    5.2478    1.2004    1.2840 O   0  0  0  0  0  0  0  0  0  0  0  0
   -4.8162   -1.3898    0.5065 O   0  0  0  0  0  0  0  0  0  0  0  0
   -4.7756    0.5307   -1.1056 O   0  0  0  0  0  0  0  0  0  0  0  0
    2.5469    0.4271    0.4601 C   0  0  0  0  0  0  0  0  0  0  0  0
    3.4806   -0.7852   -1.1347 N   0  0  0  0  0  0  0  0  0  0  0  0
    2.2244   -0.9450   -1.2489 N   0  0  0  0  0  0  0  0  0  0  0  0
    6.0279   -0.0569   -0.3997 O   0  0  0  0  0  0  0  0  0  0  0  0
    5.0751    0.4652    0.3438 C   0  0  0  0  0  0  0  0  0  0  0  0
    3.7380    0.0495   -0.0979 C   0  0  0  0  0  0  0  0  0  0  0  0
   -0.4498   -1.3531    0.1461 C   0  0  0  0  0  0  0  0  0  0  0  0
   -0.4658    0.9772   -0.3762 C   0  0  0  0  0  0  0  0  0  0  0  0
   -1.8312   -1.3453    0.2498 C   0  0  0  0  0  0  0  0  0  0  0  0
   -1.8399    0.9857   -0.2687 C   0  0  0  0  0  0  0  0  0  0  0  0
    0.2386   -0.1974   -0.1686 C   0  0  0  0  0  0  0  0  0  0  0  0
   -2.5416   -0.1712    0.0488 C   0  0  0  0  0  0  0  0  0  0  0  0
    1.6363   -0.2166   -0.2857 N   0  0  0  0  0  0  0  0  0  0  0  0
   -4.3331   -0.0796    0.1305 S   0  0  1  0  0  0  0  0  0  0  0  0
    7.6281   -0.0655    0.9416 H   0  0  0  0  0  0  0  0  0  0  0  0
    7.9990   -0.2443   -0.7862 H   0  0  0  0  0  0  0  0  0  0  0  0
    7.5513    1.3468   -0.1368 H   0  0  0  0  0  0  0  0  0  0  0  0
   -5.2050    1.7341    1.1199 H   0  0  0  0  0  0  0  0  0  0  0  0
   -4.6650    0.5964    2.2500 H   0  0  0  0  0  0  0  0  0  0  0  0
    2.2966    1.0553    1.2979 H   0  0  0  0  0  0  0  0  0  0  0  0
    0.2126   -2.4761    0.3611 F   0  0  0  0  0  0  0  0  0  0  0  0
    0.1856    2.0881   -0.6776 F   0  0  0  0  0  0  0  0  0  0  0  0
   -2.4203   -2.4865    0.5544 F   0  0  0  0  0  0  0  0  0  0  0  0
   -2.4821    2.1237   -0.4712 F   0  0  0  0  0  0  0  0  0  0  0  0
  9  1  1  0
  1 20  1  0
  1 21  1  0
  1 22  1  0
 19  2  1  1
  2 23  1  0
  2 24  1  0
  3 10  2  0
 19  4  2  0
  5 19  2  0
 26 12  1  0
 27 13  1  0
 14 28  1  0
 15 29  1  0
 11  6  2  0
  6 18  1  0
  6 25  1  0
 11  7  1  0
  7  8  2  0
 18  8  1  0
  9 10  1  0
 10 11  1  0
 16 12  2  0
 12 14  1  0
 16 13  1  0
 13 15  2  0
 14 17  2  0
 15 17  1  0
 18 16  1  0
 17 19  1  0
M  END
