
     RDKit          3D

107106  0  0  0  0  0  0  0  0999 V2000
   19.1713    5.4884   -0.5377 C   0  0  0  0  0  0  0  0  0  0  0  0
   18.1954    4.6398    0.2651 C   0  0  0  0  0  0  0  0  0  0  0  0
   16.9071    4.3441   -0.4938 C   0  0  0  0  0  0  0  0  0  0  0  0
   15.9228    3.4921    0.2967 C   0  0  0  0  0  0  0  0  0  0  0  0
   14.6362    3.1929   -0.4632 C   0  0  0  0  0  0  0  0  0  0  0  0
   13.6549    2.3415    0.3320 C   0  0  0  0  0  0  0  0  0  0  0  0
   12.3657    2.0366   -0.4210 C   0  0  0  0  0  0  0  0  0  0  0  0
   11.3941    1.1819    0.3823 C   0  0  0  0  0  0  0  0  0  0  0  0
   10.0999    0.8684   -0.3586 C   0  0  0  0  0  0  0  0  0  0  0  0
    9.1432    0.0082    0.4565 C   0  0  0  0  0  0  0  0  0  0  0  0
    7.8420   -0.3161   -0.2673 C   0  0  0  0  0  0  0  0  0  0  0  0
    6.9116   -1.1951    0.5579 C   0  0  0  0  0  0  0  0  0  0  0  0
    5.6012   -1.5302   -0.1434 C   0  0  0  0  0  0  0  0  0  0  0  0
    4.7246   -2.4603    0.6853 C   0  0  0  0  0  0  0  0  0  0  0  0
    3.4130   -2.7938   -0.0075 C   0  0  0  0  0  0  0  0  0  0  0  0
    2.5839   -3.8025    0.7398 C   0  0  0  0  0  0  0  0  0  0  0  0
    1.4304   -4.0455    0.1240 O   0  0  0  0  0  0  0  0  0  0  0  0
    0.5840   -5.0497    0.6818 C   0  0  0  0  0  0  0  0  0  0  0  0
   -0.6100   -5.2514   -0.2214 C   0  0  2  0  0  0  0  0  0  0  0  0
   -0.2465   -5.5726   -1.6591 C   0  0  0  0  0  0  0  0  0  0  0  0
   -1.4016   -4.0528   -0.1477 O   0  0  0  0  0  0  0  0  0  0  0  0
   -2.7193   -4.1447   -0.3109 C   0  0  0  0  0  0  0  0  0  0  0  0
   -3.3924   -2.8106   -0.1312 C   0  0  0  0  0  0  0  0  0  0  0  0
   -4.8948   -2.8567   -0.3563 C   0  0  0  0  0  0  0  0  0  0  0  0
   -5.5610   -1.5106   -0.1017 C   0  0  0  0  0  0  0  0  0  0  0  0
   -7.0669   -1.5562   -0.3266 C   0  0  0  0  0  0  0  0  0  0  0  0
   -7.7681   -0.2370   -0.0301 C   0  0  0  0  0  0  0  0  0  0  0  0
   -9.2718   -0.2971   -0.2679 C   0  0  0  0  0  0  0  0  0  0  0  0
   -9.9922    1.0052    0.0562 C   0  0  0  0  0  0  0  0  0  0  0  0
  -11.4927    0.9372   -0.1997 C   0  0  0  0  0  0  0  0  0  0  0  0
  -12.2254    2.2301    0.1344 C   0  0  0  0  0  0  0  0  0  0  0  0
  -13.7254    2.1518   -0.1213 C   0  0  0  0  0  0  0  0  0  0  0  0
  -14.4653    3.4401    0.2145 C   0  0  0  0  0  0  0  0  0  0  0  0
  -15.9630    3.3604   -0.0540 C   0  0  0  0  0  0  0  0  0  0  0  0
  -16.7067    4.6455    0.2852 C   0  0  0  0  0  0  0  0  0  0  0  0
  -18.2033    4.5680    0.0082 C   0  0  0  0  0  0  0  0  0  0  0  0
  -18.9367    5.8564    0.3535 C   0  0  0  0  0  0  0  0  0  0  0  0
   -3.2889   -5.1780   -0.5582 O   0  0  0  0  0  0  0  0  0  0  0  0
    2.9082   -4.3484    1.7646 O   0  0  0  0  0  0  0  0  0  0  0  0
   19.4479    4.9923   -1.4699 H   0  0  0  0  0  0  0  0  0  0  0  0
   18.7310    6.4527   -0.7985 H   0  0  0  0  0  0  0  0  0  0  0  0
   20.0892    5.6830    0.0179 H   0  0  0  0  0  0  0  0  0  0  0  0
   18.6731    3.6962    0.5469 H   0  0  0  0  0  0  0  0  0  0  0  0
   17.9529    5.1472    1.2040 H   0  0  0  0  0  0  0  0  0  0  0  0
   16.4274    5.2885   -0.7750 H   0  0  0  0  0  0  0  0  0  0  0  0
   17.1506    3.8385   -1.4351 H   0  0  0  0  0  0  0  0  0  0  0  0
   16.4043    2.5491    0.5791 H   0  0  0  0  0  0  0  0  0  0  0  0
   15.6784    3.9984    1.2372 H   0  0  0  0  0  0  0  0  0  0  0  0
   14.1542    4.1351   -0.7473 H   0  0  0  0  0  0  0  0  0  0  0  0
   14.8801    2.6841   -1.4025 H   0  0  0  0  0  0  0  0  0  0  0  0
   14.1393    1.4003    0.6159 H   0  0  0  0  0  0  0  0  0  0  0  0
   13.4129    2.8500    1.2719 H   0  0  0  0  0  0  0  0  0  0  0  0
   11.8780    2.9765   -0.7030 H   0  0  0  0  0  0  0  0  0  0  0  0
   12.6061    1.5278   -1.3612 H   0  0  0  0  0  0  0  0  0  0  0  0
   11.8852    0.2436    0.6641 H   0  0  0  0  0  0  0  0  0  0  0  0
   11.1570    1.6907    1.3234 H   0  0  0  0  0  0  0  0  0  0  0  0
    9.6034    1.8048   -0.6371 H   0  0  0  0  0  0  0  0  0  0  0  0
   10.3345    0.3597   -1.3003 H   0  0  0  0  0  0  0  0  0  0  0  0
    9.6442   -0.9265    0.7332 H   0  0  0  0  0  0  0  0  0  0  0  0
    8.9139    0.5159    1.4001 H   0  0  0  0  0  0  0  0  0  0  0  0
    7.3293    0.6155   -0.5314 H   0  0  0  0  0  0  0  0  0  0  0  0
    8.0681   -0.8160   -1.2157 H   0  0  0  0  0  0  0  0  0  0  0  0
    7.4295   -2.1258    0.8158 H   0  0  0  0  0  0  0  0  0  0  0  0
    6.6939   -0.6994    1.5104 H   0  0  0  0  0  0  0  0  0  0  0  0
    5.0586   -0.6053   -0.3667 H   0  0  0  0  0  0  0  0  0  0  0  0
    5.8150   -1.9983   -1.1106 H   0  0  0  0  0  0  0  0  0  0  0  0
    5.2771   -3.3808    0.8902 H   0  0  0  0  0  0  0  0  0  0  0  0
    4.5216   -2.0004    1.6564 H   0  0  0  0  0  0  0  0  0  0  0  0
    2.8134   -1.8914   -0.1603 H   0  0  0  0  0  0  0  0  0  0  0  0
    3.6002   -3.1931   -1.0100 H   0  0  0  0  0  0  0  0  0  0  0  0
    1.1196   -5.9988    0.7585 H   0  0  0  0  0  0  0  0  0  0  0  0
    0.2576   -4.7645    1.6848 H   0  0  0  0  0  0  0  0  0  0  0  0
   -1.1726   -6.0842    0.2083 H   0  0  0  0  0  0  0  0  0  0  0  0
    0.4301   -6.4276   -1.6863 H   0  0  0  0  0  0  0  0  0  0  0  0
   -1.1320   -5.8377   -2.2346 H   0  0  0  0  0  0  0  0  0  0  0  0
    0.2453   -4.7345   -2.1508 H   0  0  0  0  0  0  0  0  0  0  0  0
   -3.1684   -2.4547    0.8799 H   0  0  0  0  0  0  0  0  0  0  0  0
   -2.9207   -2.0883   -0.8046 H   0  0  0  0  0  0  0  0  0  0  0  0
   -5.1040   -3.1795   -1.3801 H   0  0  0  0  0  0  0  0  0  0  0  0
   -5.3436   -3.6068    0.3001 H   0  0  0  0  0  0  0  0  0  0  0  0
   -5.3572   -1.1899    0.9259 H   0  0  0  0  0  0  0  0  0  0  0  0
   -5.1172   -0.7477   -0.7506 H   0  0  0  0  0  0  0  0  0  0  0  0
   -7.2668   -1.8510   -1.3628 H   0  0  0  0  0  0  0  0  0  0  0  0
   -7.5017   -2.3439    0.2988 H   0  0  0  0  0  0  0  0  0  0  0  0
   -7.5770    0.0516    1.0096 H   0  0  0  0  0  0  0  0  0  0  0  0
   -7.3329    0.5564   -0.6480 H   0  0  0  0  0  0  0  0  0  0  0  0
   -9.4601   -0.5672   -1.3131 H   0  0  0  0  0  0  0  0  0  0  0  0
   -9.7013   -1.1067    0.3330 H   0  0  0  0  0  0  0  0  0  0  0  0
   -9.8156    1.2682    1.1051 H   0  0  0  0  0  0  0  0  0  0  0  0
   -9.5585    1.8192   -0.5355 H   0  0  0  0  0  0  0  0  0  0  0  0
  -11.6672    0.6815   -1.2509 H   0  0  0  0  0  0  0  0  0  0  0  0
  -11.9233    0.1157    0.3842 H   0  0  0  0  0  0  0  0  0  0  0  0
  -12.0502    2.4879    1.1849 H   0  0  0  0  0  0  0  0  0  0  0  0
  -11.7992    3.0518   -0.4522 H   0  0  0  0  0  0  0  0  0  0  0  0
  -13.8987    1.8960   -1.1727 H   0  0  0  0  0  0  0  0  0  0  0  0
  -14.1503    1.3271    0.4621 H   0  0  0  0  0  0  0  0  0  0  0  0
  -14.2995    3.6917    1.2680 H   0  0  0  0  0  0  0  0  0  0  0  0
  -14.0363    4.2667   -0.3631 H   0  0  0  0  0  0  0  0  0  0  0  0
  -16.1276    3.1122   -1.1085 H   0  0  0  0  0  0  0  0  0  0  0  0
  -16.3913    2.5310    0.5203 H   0  0  0  0  0  0  0  0  0  0  0  0
  -16.5478    4.8910    1.3414 H   0  0  0  0  0  0  0  0  0  0  0  0
  -16.2755    5.4767   -0.2843 H   0  0  0  0  0  0  0  0  0  0  0  0
  -18.3617    4.3257   -1.0472 H   0  0  0  0  0  0  0  0  0  0  0  0
  -18.6328    3.7367    0.5762 H   0  0  0  0  0  0  0  0  0  0  0  0
  -18.8313    6.0979    1.4131 H   0  0  0  0  0  0  0  0  0  0  0  0
  -18.5399    6.6996   -0.2154 H   0  0  0  0  0  0  0  0  0  0  0  0
  -20.0030    5.7838    0.1363 H   0  0  0  0  0  0  0  0  0  0  0  0
  1  2  1  0
  2  3  1  0
  3  4  1  0
  4  5  1  0
  5  6  1  0
  6  7  1  0
  7  8  1  0
  8  9  1  0
  9 10  1  0
 10 11  1  0
 11 12  1  0
 12 13  1  0
 13 14  1  0
 14 15  1  0
 15 16  1  0
 16 17  1  0
 16 39  2  0
 17 18  1  0
 18 19  1  0
 19 20  1  0
 19 21  1  0
 21 22  1  0
 22 23  1  0
 22 38  2  0
 23 24  1  0
 24 25  1  0
 25 26  1  0
 26 27  1  0
 27 28  1  0
 28 29  1  0
 29 30  1  0
 30 31  1  0
 31 32  1  0
 32 33  1  0
 33 34  1  0
 34 35  1  0
 35 36  1  0
 36 37  1  0
  1 40  1  0
  1 41  1  0
  1 42  1  0
  2 43  1  0
  2 44  1  0
  3 45  1  0
  3 46  1  0
  4 47  1  0
  4 48  1  0
  5 49  1  0
  5 50  1  0
  6 51  1  0
  6 52  1  0
  7 53  1  0
  7 54  1  0
  8 55  1  0
  8 56  1  0
  9 57  1  0
  9 58  1  0
 10 59  1  0
 10 60  1  0
 11 61  1  0
 11 62  1  0
 12 63  1  0
 12 64  1  0
 13 65  1  0
 13 66  1  0
 14 67  1  0
 14 68  1  0
 15 69  1  0
 15 70  1  0
 18 71  1  0
 18 72  1  0
 19 73  1  1
 20 74  1  0
 20 75  1  0
 20 76  1  0
 23 77  1  0
 23 78  1  0
 24 79  1  0
 24 80  1  0
 25 81  1  0
 25 82  1  0
 26 83  1  0
 26 84  1  0
 27 85  1  0
 27 86  1  0
 28 87  1  0
 28 88  1  0
 29 89  1  0
 29 90  1  0
 30 91  1  0
 30 92  1  0
 31 93  1  0
 31 94  1  0
 32 95  1  0
 32 96  1  0
 33 97  1  0
 33 98  1  0
 34 99  1  0
 34100  1  0
 35101  1  0
 35102  1  0
 36103  1  0
 36104  1  0
 37105  1  0
 37106  1  0
 37107  1  0
M  END
