
     RDKit          3D

 23 22  0  0  0  0  0  0  0  0999 V2000
    1.9169    1.2507    0.3466 O   0  0  0  0  0  0  0  0  0  0  0  0
    1.9417    0.0803    0.0822 C   0  0  0  0  0  0  0  0  0  0  0  0
    3.2867   -0.6629    0.0232 C   0  0  0  0  0  0  0  0  0  0  0  0
    3.3694   -1.8175   -0.2989 O   0  0  0  0  0  0  0  0  0  0  0  0
    4.2851    0.1216    0.3543 O   0  0  0  0  0  0  0  0  0  0  0  0
    0.7406   -0.7480   -0.2524 C   0  0  0  0  0  0  0  0  0  0  0  0
   -0.6016   -0.1373    0.1762 C   0  0  1  0  0  0  0  0  0  0  0  0
   -0.6711    0.0262    1.5617 O   0  0  0  0  0  0  0  0  0  0  0  0
   -0.7843    1.2634   -0.4145 C   0  0  0  0  0  0  0  0  0  0  0  0
   -0.9855    2.2586    0.2222 O   0  0  0  0  0  0  0  0  0  0  0  0
   -0.6811    1.2283   -1.7362 O   0  0  0  0  0  0  0  0  0  0  0  0
   -1.7011   -1.0912   -0.3220 C   0  0  0  0  0  0  0  0  0  0  0  0
   -3.0870   -0.6280    0.0361 C   0  0  0  0  0  0  0  0  0  0  0  0
   -3.8651   -1.6230    0.4337 O   0  0  0  0  0  0  0  0  0  0  0  0
   -3.4612    0.5136   -0.0613 O   0  0  0  0  0  0  0  0  0  0  0  0
    5.1261   -0.3597    0.3079 H   0  0  0  0  0  0  0  0  0  0  0  0
    0.7663   -0.9325   -1.3316 H   0  0  0  0  0  0  0  0  0  0  0  0
    0.8436   -1.7392    0.1979 H   0  0  0  0  0  0  0  0  0  0  0  0
   -0.5258   -0.8286    1.9820 H   0  0  0  0  0  0  0  0  0  0  0  0
   -0.8035    2.1167   -2.1030 H   0  0  0  0  0  0  0  0  0  0  0  0
   -1.6597   -1.1950   -1.4098 H   0  0  0  0  0  0  0  0  0  0  0  0
   -1.5146   -2.0877    0.0836 H   0  0  0  0  0  0  0  0  0  0  0  0
   -4.7607   -1.2964    0.6111 H   0  0  0  0  0  0  0  0  0  0  0  0
  4  3  2  0
  5  3  1  0
  3  2  1  0
  2  6  1  0
  2  1  2  0
  6  7  1  0
  7  8  1  1
  7 12  1  0
  7  9  1  0
 12 13  1  0
 15 13  2  0
 13 14  1  0
  9 10  2  0
  9 11  1  0
  5 16  1  0
  6 17  1  0
  6 18  1  0
  8 19  1  0
 11 20  1  0
 12 21  1  0
 12 22  1  0
 14 23  1  0
M  END
