
     RDKit          3D

 40 42  0  0  0  0  0  0  0  0999 V2000
   -2.0433   -0.1932    0.0195 C   0  0  0  0  0  0  0  0  0  0  0  0
   -2.3571    1.1109   -0.3982 C   0  0  0  0  0  0  0  0  0  0  0  0
   -0.7027   -0.5813    0.0847 C   0  0  0  0  0  0  0  0  0  0  0  0
   -1.3616    2.0199   -0.7412 C   0  0  0  0  0  0  0  0  0  0  0  0
    0.3038    0.3091   -0.2606 C   0  0  0  0  0  0  0  0  0  0  0  0
   -0.0455    1.6104   -0.6701 C   0  0  0  0  0  0  0  0  0  0  0  0
   -3.2195   -0.9527    0.3337 C   0  0  0  0  0  0  0  0  0  0  0  0
   -4.3646   -0.2541    0.1579 C   0  0  0  0  0  0  0  0  0  0  0  0
   -4.0700    1.3721   -0.3919 S   0  0  0  0  0  0  0  0  0  0  0  0
    1.7216   -0.1003   -0.2115 C   0  0  0  0  0  0  0  0  0  0  0  0
    2.1159   -1.3728   -0.5935 C   0  0  0  0  0  0  0  0  0  0  0  0
    2.7042    0.8018    0.2205 C   0  0  0  0  0  0  0  0  0  0  0  0
    3.4574   -1.7458   -0.5556 C   0  0  0  0  0  0  0  0  0  0  0  0
    4.0394    0.4438    0.2640 C   0  0  0  0  0  0  0  0  0  0  0  0
    4.4279   -0.8527   -0.1346 C   0  0  0  0  0  0  0  0  0  0  0  0
    5.0387    1.2473    0.6727 O   0  0  0  0  0  0  0  0  0  0  0  0
    4.7184    2.5658    1.0661 C   0  0  0  0  0  0  0  0  0  0  0  0
    5.7462   -1.1119   -0.0706 O   0  0  0  0  0  0  0  0  0  0  0  0
    6.1950   -2.3852   -0.4883 C   0  0  0  0  0  0  0  0  0  0  0  0
   -5.7910   -0.7316    0.2993 C   0  0  1  0  0  0  0  0  0  0  0  0
   -6.3706   -1.1726   -0.9554 N   0  0  0  0  0  0  0  0  0  0  0  0
   -5.8167   -1.8485    1.2170 N   0  0  0  0  0  0  0  0  0  0  0  0
   -0.4544   -1.5783    0.4283 H   0  0  0  0  0  0  0  0  0  0  0  0
   -1.6074    3.0221   -1.0666 H   0  0  0  0  0  0  0  0  0  0  0  0
    0.7325    2.3059   -0.9591 H   0  0  0  0  0  0  0  0  0  0  0  0
   -3.1974   -1.9782    0.6743 H   0  0  0  0  0  0  0  0  0  0  0  0
    1.3860   -2.0880   -0.9507 H   0  0  0  0  0  0  0  0  0  0  0  0
    2.3988    1.7866    0.5481 H   0  0  0  0  0  0  0  0  0  0  0  0
    3.7271   -2.7430   -0.8749 H   0  0  0  0  0  0  0  0  0  0  0  0
    5.6567    3.0447    1.3351 H   0  0  0  0  0  0  0  0  0  0  0  0
    4.2548    3.1340    0.2549 H   0  0  0  0  0  0  0  0  0  0  0  0
    4.0539    2.5856    1.9342 H   0  0  0  0  0  0  0  0  0  0  0  0
    5.9497   -2.5810   -1.5356 H   0  0  0  0  0  0  0  0  0  0  0  0
    7.2764   -2.3837   -0.3765 H   0  0  0  0  0  0  0  0  0  0  0  0
    5.7803   -3.1886    0.1265 H   0  0  0  0  0  0  0  0  0  0  0  0
   -6.4961   -0.3871   -1.5810 H   0  0  0  0  0  0  0  0  0  0  0  0
   -5.7379   -1.8170   -1.4154 H   0  0  0  0  0  0  0  0  0  0  0  0
   -5.5109   -1.5532    2.1353 H   0  0  0  0  0  0  0  0  0  0  0  0
   -6.7733   -2.1662    1.3134 H   0  0  0  0  0  0  0  0  0  0  0  0
   -6.4017    0.1194    0.6349 H   0  0  0  0  0  0  0  0  0  0  0  0
  3  1  2  0
  1  7  1  0
  1  2  1  0
  2  4  2  0
  2  9  1  0
  5  3  1  0
  3 23  1  0
  6  4  1  0
  4 24  1  0
 10  5  1  0
  5  6  2  0
  6 25  1  0
  7  8  2  0
  7 26  1  0
  8 20  1  0
  8  9  1  0
 12 10  1  0
 10 11  2  0
 13 11  1  0
 11 27  1  0
 14 12  2  0
 12 28  1  0
 15 13  2  0
 13 29  1  0
 16 14  1  0
 14 15  1  0
 18 15  1  0
 17 16  1  0
 17 30  1  0
 17 31  1  0
 17 32  1  0
 19 18  1  0
 19 33  1  0
 19 34  1  0
 19 35  1  0
 22 20  1  0
 20 21  1  0
 21 36  1  0
 21 37  1  0
 22 38  1  0
 22 39  1  0
 20 40  1  1
M  END
