
     RDKit          3D

 51 54  0  0  0  0  0  0  0  0999 V2000
    5.3369   -4.1657   -0.1658 C   0  0  0  0  0  0  0  0  0  0  0  0
    6.6942   -3.8984   -0.0257 C   0  0  0  0  0  0  0  0  0  0  0  0
    7.6338   -4.7463   -0.6119 C   0  0  0  0  0  0  0  0  0  0  0  0
    7.2374   -5.8568   -1.3676 C   0  0  0  0  0  0  0  0  0  0  0  0
    5.8733   -6.0887   -1.5028 C   0  0  0  0  0  0  0  0  0  0  0  0
    4.9287   -5.2723   -0.9108 C   0  0  0  0  0  0  0  0  0  0  0  0
    8.2413   -6.7727   -2.0035 C   0  0  0  0  0  0  0  0  0  0  0  0
    4.3211   -3.3887    0.4066 N   0  0  0  0  0  0  0  0  0  0  0  0
    4.4101   -2.1996    1.0460 C   0  0  0  0  0  0  0  0  0  0  0  0
    2.0773   -2.5027    2.0042 C   0  0  0  0  0  0  0  0  0  0  0  0
    3.1122   -1.6740    1.5749 C   0  0  0  0  0  0  0  0  0  0  0  0
    2.9702   -0.2958    1.6769 C   0  0  0  0  0  0  0  0  0  0  0  0
    1.7938    0.2495    2.1726 C   0  0  0  0  0  0  0  0  0  0  0  0
    0.7613   -0.5776    2.5945 C   0  0  0  0  0  0  0  0  0  0  0  0
    0.9118   -1.9539    2.5130 C   0  0  0  0  0  0  0  0  0  0  0  0
    1.6832    1.7403    2.2623 C   0  0  1  0  0  0  0  0  0  0  0  0
    0.4671    2.1443    2.6362 F   0  0  0  0  0  0  0  0  0  0  0  0
    2.5548    2.2444    3.1480 F   0  0  0  0  0  0  0  0  0  0  0  0
    1.9512    2.3283    1.0886 F   0  0  0  0  0  0  0  0  0  0  0  0
    8.9997   -4.4700   -0.5123 N   0  0  0  0  0  0  0  0  0  0  0  0
   11.0293   -3.5924    0.4578 C   0  0  0  0  0  0  0  0  0  0  0  0
   11.7023   -3.2572    1.6240 C   0  0  0  0  0  0  0  0  0  0  0  0
   11.0417   -3.2634    2.8424 C   0  0  0  0  0  0  0  0  0  0  0  0
    9.7069   -3.6274    2.8381 C   0  0  0  0  0  0  0  0  0  0  0  0
    9.0521   -4.0042    1.7495 N   0  0  0  0  0  0  0  0  0  0  0  0
    9.6819   -4.0047    0.5825 C   0  0  0  0  0  0  0  0  0  0  0  0
   11.1560   -2.9530   -1.9748 C   0  0  0  0  0  0  0  0  0  0  0  0
   11.9459   -2.8722   -3.1065 C   0  0  0  0  0  0  0  0  0  0  0  0
   13.2102   -3.2790   -3.1253 N   0  0  0  0  0  0  0  0  0  0  0  0
   13.6784   -3.7569   -1.9821 C   0  0  0  0  0  0  0  0  0  0  0  0
   13.0149   -3.8834   -0.8458 N   0  0  0  0  0  0  0  0  0  0  0  0
   11.7401   -3.4911   -0.8297 C   0  0  0  0  0  0  0  0  0  0  0  0
    5.4431   -1.5685    1.1889 O   0  0  0  0  0  0  0  0  0  0  0  0
    7.0290   -3.0384    0.5268 H   0  0  0  0  0  0  0  0  0  0  0  0
    5.5404   -6.9452   -2.0761 H   0  0  0  0  0  0  0  0  0  0  0  0
    3.8748   -5.4949   -1.0262 H   0  0  0  0  0  0  0  0  0  0  0  0
    8.9280   -7.1973   -1.2682 H   0  0  0  0  0  0  0  0  0  0  0  0
    7.7415   -7.6005   -2.5034 H   0  0  0  0  0  0  0  0  0  0  0  0
    8.8496   -6.2665   -2.7586 H   0  0  0  0  0  0  0  0  0  0  0  0
    3.3917   -3.7472    0.2487 H   0  0  0  0  0  0  0  0  0  0  0  0
    3.7833    0.3427    1.3555 H   0  0  0  0  0  0  0  0  0  0  0  0
   -0.1575   -0.1693    2.9912 H   0  0  0  0  0  0  0  0  0  0  0  0
    0.1156   -2.6008    2.8543 H   0  0  0  0  0  0  0  0  0  0  0  0
    9.5636   -4.7880   -1.2836 H   0  0  0  0  0  0  0  0  0  0  0  0
   12.7414   -2.9604    1.5664 H   0  0  0  0  0  0  0  0  0  0  0  0
   11.5399   -2.9828    3.7588 H   0  0  0  0  0  0  0  0  0  0  0  0
    9.1359   -3.6300    3.7601 H   0  0  0  0  0  0  0  0  0  0  0  0
   10.1391   -2.5878   -1.9863 H   0  0  0  0  0  0  0  0  0  0  0  0
   11.5466   -2.4592   -4.0256 H   0  0  0  0  0  0  0  0  0  0  0  0
   14.7132   -4.0819   -1.9759 H   0  0  0  0  0  0  0  0  0  0  0  0
    2.1749   -3.5806    1.9735 H   0  0  0  0  0  0  0  0  0  0  0  0
  1  8  1  0
  1  6  1  0
  1  2  2  0
  2  3  1  0
  2 34  1  0
  3  4  2  0
  3 20  1  0
  4  5  1  0
  4  7  1  0
  5  6  2  0
  5 35  1  0
  6 36  1  0
  7 37  1  0
  7 38  1  0
  7 39  1  0
  8  9  1  0
  8 40  1  0
  9 11  1  0
  9 33  2  0
 10 15  2  0
 10 11  1  0
 10 51  1  0
 11 12  2  0
 12 13  1  0
 12 41  1  0
 13 14  2  0
 13 16  1  0
 14 15  1  0
 14 42  1  0
 15 43  1  0
 16 17  1  1
 16 18  1  0
 16 19  1  0
 20 26  1  0
 20 44  1  0
 21 26  1  0
 21 32  1  0
 21 22  2  0
 22 23  1  0
 22 45  1  0
 23 24  2  0
 23 46  1  0
 24 25  1  0
 24 47  1  0
 25 26  2  0
 27 32  2  0
 27 28  1  0
 27 48  1  0
 28 29  2  0
 28 49  1  0
 29 30  1  0
 30 31  2  0
 30 50  1  0
 31 32  1  0
M  END
