
     RDKit          3D

 52 55  0  0  0  0  0  0  0  0999 V2000
    7.9405    3.0710    0.0876 C   0  0  0  0  0  0  0  0  0  0  0  0
    6.6743    3.0125   -0.5359 O   0  0  0  0  0  0  0  0  0  0  0  0
    5.9184    1.9120   -0.3471 C   0  0  0  0  0  0  0  0  0  0  0  0
    4.6777    1.8901   -0.9858 C   0  0  0  0  0  0  0  0  0  0  0  0
    3.8282    0.8074   -0.8594 C   0  0  0  0  0  0  0  0  0  0  0  0
    6.2942    0.8177    0.4249 C   0  0  0  0  0  0  0  0  0  0  0  0
    5.4311   -0.2617    0.5621 C   0  0  0  0  0  0  0  0  0  0  0  0
    4.1932   -0.2853   -0.0699 C   0  0  0  0  0  0  0  0  0  0  0  0
    3.4013   -1.4355    0.0730 N   0  0  0  0  0  0  0  0  0  0  0  0
    2.0519   -1.5213    0.1183 C   0  0  0  0  0  0  0  0  0  0  0  0
    1.3020   -0.4402    0.0016 N   0  0  0  0  0  0  0  0  0  0  0  0
   -0.0360   -0.5553    0.0568 C   0  0  0  0  0  0  0  0  0  0  0  0
   -0.6995    0.6352   -0.0872 N   0  0  0  0  0  0  0  0  0  0  0  0
   -2.0905    0.7851   -0.0047 C   0  0  0  0  0  0  0  0  0  0  0  0
   -2.6248    1.5356    1.0500 C   0  0  0  0  0  0  0  0  0  0  0  0
   -1.7291    2.1307    2.0958 C   0  0  0  0  0  0  0  0  0  0  0  0
   -3.9994    1.7095    1.1146 C   0  0  0  0  0  0  0  0  0  0  0  0
   -4.8510    1.1519    0.1616 C   0  0  0  0  0  0  0  0  0  0  0  0
   -6.2820    1.3629    0.3075 C   0  0  0  0  0  0  0  0  0  0  0  0
   -7.2424    0.8887   -0.5023 C   0  0  0  0  0  0  0  0  0  0  0  0
   -8.6109    1.1631   -0.2534 C   0  0  0  0  0  0  0  0  0  0  0  0
   -9.7306    1.3739   -0.0677 N   0  0  0  0  0  0  0  0  0  0  0  0
   -4.2898    0.4281   -0.8915 C   0  0  0  0  0  0  0  0  0  0  0  0
   -2.9211    0.2425   -0.9990 C   0  0  0  0  0  0  0  0  0  0  0  0
   -2.3577   -0.4846   -2.1811 C   0  0  0  0  0  0  0  0  0  0  0  0
   -0.7435   -1.6524    0.2354 N   0  0  0  0  0  0  0  0  0  0  0  0
    0.0077   -2.7549    0.3413 C   0  0  0  0  0  0  0  0  0  0  0  0
    1.3976   -2.7527    0.2880 C   0  0  0  0  0  0  0  0  0  0  0  0
    1.7669   -4.0660    0.4420 N   0  0  0  0  0  0  0  0  0  0  0  0
    0.6267   -4.7663    0.5749 C   0  0  0  0  0  0  0  0  0  0  0  0
   -0.4538   -4.0246    0.5215 N   0  0  0  0  0  0  0  0  0  0  0  0
    8.3797    4.0261   -0.1910 H   0  0  0  0  0  0  0  0  0  0  0  0
    7.8634    3.0251    1.1777 H   0  0  0  0  0  0  0  0  0  0  0  0
    8.6021    2.2693   -0.2521 H   0  0  0  0  0  0  0  0  0  0  0  0
    4.3816    2.7320   -1.5995 H   0  0  0  0  0  0  0  0  0  0  0  0
    2.8827    0.8190   -1.3785 H   0  0  0  0  0  0  0  0  0  0  0  0
    7.2472    0.7840    0.9352 H   0  0  0  0  0  0  0  0  0  0  0  0
    5.7384   -1.1002    1.1757 H   0  0  0  0  0  0  0  0  0  0  0  0
    3.9096   -2.2739    0.3046 H   0  0  0  0  0  0  0  0  0  0  0  0
   -0.1308    1.4535    0.0668 H   0  0  0  0  0  0  0  0  0  0  0  0
   -1.0401    2.8657    1.6735 H   0  0  0  0  0  0  0  0  0  0  0  0
   -2.3119    2.6366    2.8632 H   0  0  0  0  0  0  0  0  0  0  0  0
   -1.1220    1.3674    2.5852 H   0  0  0  0  0  0  0  0  0  0  0  0
   -4.4216    2.2769    1.9362 H   0  0  0  0  0  0  0  0  0  0  0  0
   -6.5812    1.9598    1.1628 H   0  0  0  0  0  0  0  0  0  0  0  0
   -7.0354    0.2797   -1.3734 H   0  0  0  0  0  0  0  0  0  0  0  0
   -4.9225    0.0132   -1.6669 H   0  0  0  0  0  0  0  0  0  0  0  0
   -2.0947   -1.5112   -1.9256 H   0  0  0  0  0  0  0  0  0  0  0  0
   -3.0800   -0.5137   -2.9954 H   0  0  0  0  0  0  0  0  0  0  0  0
   -1.4505   -0.0022   -2.5466 H   0  0  0  0  0  0  0  0  0  0  0  0
    2.6948   -4.4591    0.4515 H   0  0  0  0  0  0  0  0  0  0  0  0
    0.6394   -5.8372    0.7095 H   0  0  0  0  0  0  0  0  0  0  0  0
 30 29  1  0
 30 31  2  0
 29 28  1  0
 31 27  1  0
 28 27  2  0
 28 10  1  0
  7  6  1  0
  7  8  2  0
  9  8  1  0
  9 10  1  0
  6  3  2  0
 27 26  1  0
  8  5  1  0
 10 11  2  0
  3  2  1  0
  3  4  1  0
 26 12  2  0
  5  4  2  0
 11 12  1  0
  1  2  1  0
 12 13  1  0
 13 14  1  0
 16 15  1  0
 14 15  2  0
 14 24  1  0
 15 17  1  0
 25 24  1  0
 24 23  2  0
 17 18  2  0
 23 18  1  0
 18 19  1  0
 19 20  2  0
 20 21  1  0
 21 22  3  0
  1 32  1  0
  1 33  1  0
  1 34  1  0
  4 35  1  0
  5 36  1  0
  6 37  1  0
  7 38  1  0
  9 39  1  0
 13 40  1  0
 16 41  1  0
 16 42  1  0
 16 43  1  0
 17 44  1  0
 19 45  1  0
 20 46  1  0
 23 47  1  0
 25 48  1  0
 25 49  1  0
 25 50  1  0
 29 51  1  0
 30 52  1  0
M  END
