
     RDKit          3D

 60 63  0  0  0  0  0  0  0  0999 V2000
    4.9685    3.1354   -2.3105 C   0  0  0  0  0  0  0  0  0  0  0  0
    5.4701    2.5870   -1.0312 C   0  0  0  0  0  0  0  0  0  0  0  0
    6.6812    2.9549   -0.6128 O   0  0  0  0  0  0  0  0  0  0  0  0
    6.9629    2.3579    0.5851 N   0  0  0  0  0  0  0  0  0  0  0  0
    5.9260    1.6338    0.8861 C   0  0  0  0  0  0  0  0  0  0  0  0
    5.8641    0.8373    2.1382 C   0  0  0  0  0  0  0  0  0  0  0  0
    4.9251    1.7364   -0.1241 C   0  0  0  0  0  0  0  0  0  0  0  0
    3.5856    1.1390   -0.1323 C   0  0  0  0  0  0  0  0  0  0  0  0
    2.4599    1.9635    0.0464 C   0  0  0  0  0  0  0  0  0  0  0  0
    3.3809   -0.2095   -0.3002 C   0  0  0  0  0  0  0  0  0  0  0  0
    4.4895   -1.1742   -0.5490 C   0  0  0  0  0  0  0  0  0  0  0  0
    2.1075   -0.6964   -0.2523 N   0  0  0  0  0  0  0  0  0  0  0  0
    1.8799   -2.1045   -0.4025 C   0  0  0  0  0  0  0  0  0  0  0  0
    1.9285   -2.9129    0.7208 C   0  0  0  0  0  0  0  0  0  0  0  0
    1.7194   -4.2737    0.5633 C   0  0  0  0  0  0  0  0  0  0  0  0
    1.7812   -5.3000    1.9546 Cl  0  0  0  0  0  0  0  0  0  0  0  0
    1.4627   -4.8250   -0.6825 C   0  0  0  0  0  0  0  0  0  0  0  0
    1.4138   -3.9915   -1.7905 C   0  0  0  0  0  0  0  0  0  0  0  0
    1.6202   -2.6267   -1.6584 C   0  0  0  0  0  0  0  0  0  0  0  0
    0.9571    0.0727   -0.0549 C   0  0  0  0  0  0  0  0  0  0  0  0
   -0.1300   -0.4985   -0.0108 O   0  0  0  0  0  0  0  0  0  0  0  0
    1.1810    1.4863    0.0785 C   0  0  0  0  0  0  0  0  0  0  0  0
    0.0748    2.4717    0.2731 C   0  0  0  0  0  0  0  0  0  0  0  0
    0.3156    3.6716    0.3570 O   0  0  0  0  0  0  0  0  0  0  0  0
   -1.1679    1.9810    0.3525 N   0  0  0  0  0  0  0  0  0  0  0  0
   -2.3107    2.8371    0.5880 C   0  0  0  0  0  0  0  0  0  0  0  0
   -3.5791    2.0529    0.3984 C   0  0  0  0  0  0  0  0  0  0  0  0
   -4.3155    1.6222    1.4962 C   0  0  0  0  0  0  0  0  0  0  0  0
   -5.4817    0.8915    1.3264 C   0  0  0  0  0  0  0  0  0  0  0  0
   -5.9049    0.5934    0.0399 C   0  0  0  0  0  0  0  0  0  0  0  0
   -7.4097   -0.3184   -0.1905 S   0  0  1  0  0  0  0  0  0  0  0  0
   -8.6590    0.9448   -0.2589 C   0  0  0  0  0  0  0  0  0  0  0  0
   -7.3511   -0.9811   -1.4916 O   0  0  0  0  0  0  0  0  0  0  0  0
   -7.6427   -1.1299    1.0024 O   0  0  0  0  0  0  0  0  0  0  0  0
   -5.1811    1.0042   -1.0720 C   0  0  0  0  0  0  0  0  0  0  0  0
   -4.0186    1.7323   -0.8842 C   0  0  0  0  0  0  0  0  0  0  0  0
    5.7060    3.0222   -3.1053 H   0  0  0  0  0  0  0  0  0  0  0  0
    4.0623    2.6113   -2.6062 H   0  0  0  0  0  0  0  0  0  0  0  0
    4.7326    4.1967   -2.2209 H   0  0  0  0  0  0  0  0  0  0  0  0
    4.9253    1.0180    2.6610 H   0  0  0  0  0  0  0  0  0  0  0  0
    5.9186   -0.2314    1.9265 H   0  0  0  0  0  0  0  0  0  0  0  0
    6.6866    1.0889    2.8047 H   0  0  0  0  0  0  0  0  0  0  0  0
    2.6164    3.0281    0.1680 H   0  0  0  0  0  0  0  0  0  0  0  0
    4.5937   -1.8886    0.2690 H   0  0  0  0  0  0  0  0  0  0  0  0
    4.3179   -1.7500   -1.4586 H   0  0  0  0  0  0  0  0  0  0  0  0
    5.4312   -0.6451   -0.6616 H   0  0  0  0  0  0  0  0  0  0  0  0
    2.1292   -2.4904    1.6963 H   0  0  0  0  0  0  0  0  0  0  0  0
    1.5844   -1.9755   -2.5216 H   0  0  0  0  0  0  0  0  0  0  0  0
    1.3045   -5.8891   -0.7901 H   0  0  0  0  0  0  0  0  0  0  0  0
    1.2124   -4.4134   -2.7655 H   0  0  0  0  0  0  0  0  0  0  0  0
   -1.2834    0.9755    0.3172 H   0  0  0  0  0  0  0  0  0  0  0  0
   -2.2785    3.2581    1.5968 H   0  0  0  0  0  0  0  0  0  0  0  0
   -2.2900    3.6784   -0.1083 H   0  0  0  0  0  0  0  0  0  0  0  0
   -3.9775    1.8568    2.4975 H   0  0  0  0  0  0  0  0  0  0  0  0
   -3.4515    2.0587   -1.7470 H   0  0  0  0  0  0  0  0  0  0  0  0
   -6.0424    0.5630    2.1910 H   0  0  0  0  0  0  0  0  0  0  0  0
   -5.5142    0.7669   -2.0733 H   0  0  0  0  0  0  0  0  0  0  0  0
   -8.4605    1.6063   -1.0989 H   0  0  0  0  0  0  0  0  0  0  0  0
   -9.6186    0.4462   -0.3935 H   0  0  0  0  0  0  0  0  0  0  0  0
   -8.6570    1.5041    0.6738 H   0  0  0  0  0  0  0  0  0  0  0  0
  1  2  1  0
  2  3  1  0
  2  7  2  0
  3  4  1  0
  4  5  2  0
  5  6  1  0
  5  7  1  0
  7  8  1  0
  8  9  1  0
  8 10  2  0
  9 22  2  0
 10 11  1  0
 10 12  1  0
 12 13  1  0
 12 20  1  0
 13 14  2  0
 13 19  1  0
 14 15  1  0
 15 16  1  0
 15 17  2  0
 17 18  1  0
 18 19  2  0
 20 21  2  0
 20 22  1  0
 22 23  1  0
 23 24  2  0
 23 25  1  0
 25 26  1  0
 26 27  1  0
 27 28  2  0
 27 36  1  0
 28 29  1  0
 29 30  2  0
 30 31  1  0
 30 35  1  0
 31 32  1  6
 31 33  2  0
 31 34  2  0
 35 36  2  0
  1 37  1  0
  1 38  1  0
  1 39  1  0
  6 40  1  0
  6 41  1  0
  6 42  1  0
  9 43  1  0
 11 44  1  0
 11 45  1  0
 11 46  1  0
 14 47  1  0
 19 48  1  0
 17 49  1  0
 18 50  1  0
 25 51  1  0
 26 52  1  0
 26 53  1  0
 28 54  1  0
 36 55  1  0
 29 56  1  0
 35 57  1  0
 32 58  1  0
 32 59  1  0
 32 60  1  0
M  END
