
     RDKit          3D

 35 37  0  0  0  0  0  0  0  0999 V2000
    1.8091    1.4489   -0.4420 C   0  0  0  0  0  0  0  0  0  0  0  0
    4.3445   -0.0153    1.2461 C   0  0  0  0  0  0  0  0  0  0  0  0
    3.2427   -0.5099   -1.0190 C   0  0  0  0  0  0  0  0  0  0  0  0
   -4.8153   -0.1673    0.7770 C   0  0  0  0  0  0  0  0  0  0  0  0
   -1.0078    0.6214   -1.5193 C   0  0  0  0  0  0  0  0  0  0  0  0
   -2.3426    1.0390   -1.4879 C   0  0  0  0  0  0  0  0  0  0  0  0
   -3.1304    0.5168   -0.4928 C   0  0  0  0  0  0  0  0  0  0  0  0
   -2.6359   -0.3935    0.4303 C   0  0  0  0  0  0  0  0  0  0  0  0
   -1.3385   -0.8325    0.3967 C   0  0  0  0  0  0  0  0  0  0  0  0
   -0.5081   -0.2876   -0.5967 C   0  0  0  0  0  0  0  0  0  0  0  0
    1.0333   -2.0469   -0.7884 O   0  0  0  0  0  0  0  0  0  0  0  0
    1.9146    0.0323   -0.7641 N   0  0  0  0  0  0  0  0  0  0  0  0
    2.9074    1.9506    0.4944 C   0  0  0  0  0  0  0  0  0  0  0  0
    3.2717    1.0007    1.6355 C   0  0  0  0  0  0  0  0  0  0  0  0
    3.9138   -1.0689    0.2326 C   0  0  0  0  0  0  0  0  0  0  0  0
   -3.6180   -0.7230    1.3039 O   0  0  0  0  0  0  0  0  0  0  0  0
   -4.4296    0.7730   -0.2179 O   0  0  0  0  0  0  0  0  0  0  0  0
    1.8189    2.0488   -1.3573 H   0  0  0  0  0  0  0  0  0  0  0  0
    0.8470    1.6180    0.0354 H   0  0  0  0  0  0  0  0  0  0  0  0
    5.2031    0.5354    0.8469 H   0  0  0  0  0  0  0  0  0  0  0  0
    4.7036   -0.5240    2.1445 H   0  0  0  0  0  0  0  0  0  0  0  0
    3.1598   -1.2919   -1.7729 H   0  0  0  0  0  0  0  0  0  0  0  0
    3.8499    0.2839   -1.4592 H   0  0  0  0  0  0  0  0  0  0  0  0
   -5.3686    0.3380    1.5677 H   0  0  0  0  0  0  0  0  0  0  0  0
   -0.3640    1.0144   -2.2951 H   0  0  0  0  0  0  0  0  0  0  0  0
   -2.7289    1.7394   -2.2154 H   0  0  0  0  0  0  0  0  0  0  0  0
   -0.9643   -1.5536    1.1112 H   0  0  0  0  0  0  0  0  0  0  0  0
    3.8124    2.1942   -0.0691 H   0  0  0  0  0  0  0  0  0  0  0  0
    2.5497    2.9019    0.8952 H   0  0  0  0  0  0  0  0  0  0  0  0
    2.3773    0.4908    2.0090 H   0  0  0  0  0  0  0  0  0  0  0  0
    3.6547    1.5913    2.4708 H   0  0  0  0  0  0  0  0  0  0  0  0
    4.7941   -1.6377   -0.0799 H   0  0  0  0  0  0  0  0  0  0  0  0
    3.2373   -1.7856    0.7027 H   0  0  0  0  0  0  0  0  0  0  0  0
    0.8811   -0.8314   -0.7152 C   0  0  0  0  0  0  0  0  0  0  0  0
   -5.4251   -0.9567    0.3244 H   0  0  0  0  0  0  0  0  0  0  0  0
 15  3  1  0
 15  2  1  0
  3 12  1  0
 13  1  1  0
 13 14  1  0
  2 14  1  0
  1 12  1  0
 12 34  1  0
 16  8  1  0
 16  4  1  0
  9  8  2  0
  9 10  1  0
 34 10  1  0
 34 11  2  0
  8  7  1  0
 10  5  2  0
  4 17  1  0
  7 17  1  0
  7  6  2  0
  5  6  1  0
  1 18  1  0
  1 19  1  0
  2 20  1  0
  2 21  1  0
  3 22  1  0
  3 23  1  0
  4 35  1  0
  4 24  1  0
  5 25  1  0
  6 26  1  0
  9 27  1  0
 13 28  1  0
 13 29  1  0
 14 30  1  0
 14 31  1  0
 15 32  1  0
 15 33  1  0
M  END
