
     RDKit          3D

 60 64  0  0  0  0  0  0  0  0999 V2000
   -1.8216   -0.1279   -0.8377 C   0  0  0  0  0  0  0  0  0  0  0  0
   -2.5422    0.5022   -1.8476 C   0  0  0  0  0  0  0  0  0  0  0  0
   -3.7551   -0.1715   -2.4352 C   0  0  0  0  0  0  0  0  0  0  0  0
   -4.6682   -0.6385   -1.4107 N   0  0  0  0  0  0  0  0  0  0  0  0
   -5.2691    0.4808   -0.7068 C   0  0  0  0  0  0  0  0  0  0  0  0
   -6.2820   -0.0307    0.2608 C   0  0  0  0  0  0  0  0  0  0  0  0
   -6.9654    0.8515    1.5655 S   0  0  0  0  0  0  0  0  0  0  0  0
   -7.8979   -0.5354    1.9798 C   0  0  0  0  0  0  0  0  0  0  0  0
   -7.7177   -1.5617    1.2162 N   0  0  0  0  0  0  0  0  0  0  0  0
   -6.8055   -1.2838    0.2348 C   0  0  0  0  0  0  0  0  0  0  0  0
   -6.3928   -2.2720   -0.8029 C   0  0  0  0  0  0  0  0  0  0  0  0
   -5.6743   -1.5488   -1.9361 C   0  0  0  0  0  0  0  0  0  0  0  0
   -2.1075    1.7356   -2.3168 C   0  0  0  0  0  0  0  0  0  0  0  0
   -0.9648    2.3226   -1.7866 C   0  0  0  0  0  0  0  0  0  0  0  0
   -0.2532    1.6860   -0.7836 C   0  0  0  0  0  0  0  0  0  0  0  0
   -0.6747    0.4465   -0.2943 C   0  0  0  0  0  0  0  0  0  0  0  0
    0.0819   -0.2424    0.7720 C   0  0  0  0  0  0  0  0  0  0  0  0
   -0.5777   -0.9664    1.7652 C   0  0  0  0  0  0  0  0  0  0  0  0
    0.1470   -1.6137    2.7547 C   0  0  0  0  0  0  0  0  0  0  0  0
    1.5328   -1.5504    2.7644 C   0  0  0  0  0  0  0  0  0  0  0  0
    1.4762   -0.1829    0.7996 C   0  0  0  0  0  0  0  0  0  0  0  0
    2.2126   -0.8285    1.7864 C   0  0  0  0  0  0  0  0  0  0  0  0
    3.7179   -0.7373    1.8277 C   0  0  0  0  0  0  0  0  0  0  0  0
    4.2944   -0.4875    0.5256 N   0  0  0  0  0  0  0  0  0  0  0  0
    5.7264   -0.2758    0.5628 C   0  0  0  0  0  0  0  0  0  0  0  0
    6.2531    0.0630   -0.8299 C   0  0  0  0  0  0  0  0  0  0  0  0
    7.7341    0.2964   -0.8166 C   0  0  0  0  0  0  0  0  0  0  0  0
    8.6275   -0.7311   -1.1067 C   0  0  0  0  0  0  0  0  0  0  0  0
    9.9484   -0.6058   -1.0737 N   0  0  0  0  0  0  0  0  0  0  0  0
   10.4506    0.5776   -0.7412 C   0  0  0  0  0  0  0  0  0  0  0  0
    9.6591    1.6745   -0.4342 C   0  0  0  0  0  0  0  0  0  0  0  0
    8.2816    1.5279   -0.4729 C   0  0  0  0  0  0  0  0  0  0  0  0
   -2.1599   -1.0946   -0.4837 H   0  0  0  0  0  0  0  0  0  0  0  0
   -4.2449    0.5122   -3.1485 H   0  0  0  0  0  0  0  0  0  0  0  0
   -3.4307   -1.0413   -3.0134 H   0  0  0  0  0  0  0  0  0  0  0  0
   -2.6652    2.2432   -3.0948 H   0  0  0  0  0  0  0  0  0  0  0  0
   -4.4881    1.0386   -0.1848 H   0  0  0  0  0  0  0  0  0  0  0  0
   -5.7481    1.1906   -1.4039 H   0  0  0  0  0  0  0  0  0  0  0  0
   -6.4111   -1.0231   -2.5655 H   0  0  0  0  0  0  0  0  0  0  0  0
   -5.1767   -2.2793   -2.5752 H   0  0  0  0  0  0  0  0  0  0  0  0
   -8.5752   -0.5139    2.8220 H   0  0  0  0  0  0  0  0  0  0  0  0
   -5.7373   -3.0285   -0.3619 H   0  0  0  0  0  0  0  0  0  0  0  0
   -7.2648   -2.7991   -1.1955 H   0  0  0  0  0  0  0  0  0  0  0  0
   -0.6372    3.2886   -2.1485 H   0  0  0  0  0  0  0  0  0  0  0  0
    0.6221    2.1660   -0.3635 H   0  0  0  0  0  0  0  0  0  0  0  0
   -1.6597   -1.0129    1.7773 H   0  0  0  0  0  0  0  0  0  0  0  0
    2.0056    0.3539    0.0226 H   0  0  0  0  0  0  0  0  0  0  0  0
   -0.3728   -2.1695    3.5244 H   0  0  0  0  0  0  0  0  0  0  0  0
    2.0900   -2.0656    3.5383 H   0  0  0  0  0  0  0  0  0  0  0  0
    3.9972    0.0954    2.4826 H   0  0  0  0  0  0  0  0  0  0  0  0
    4.1174   -1.6411    2.3130 H   0  0  0  0  0  0  0  0  0  0  0  0
    4.0902   -1.2706   -0.0850 H   0  0  0  0  0  0  0  0  0  0  0  0
    5.9322    0.5588    1.2402 H   0  0  0  0  0  0  0  0  0  0  0  0
    6.2815   -1.1403    0.9603 H   0  0  0  0  0  0  0  0  0  0  0  0
    6.0167   -0.7569   -1.5139 H   0  0  0  0  0  0  0  0  0  0  0  0
    5.7320    0.9487   -1.1996 H   0  0  0  0  0  0  0  0  0  0  0  0
    8.2437   -1.7082   -1.3865 H   0  0  0  0  0  0  0  0  0  0  0  0
    7.6352    2.3667   -0.2420 H   0  0  0  0  0  0  0  0  0  0  0  0
   11.5318    0.6591   -0.7199 H   0  0  0  0  0  0  0  0  0  0  0  0
   10.1143    2.6198   -0.1719 H   0  0  0  0  0  0  0  0  0  0  0  0
  1  2  2  0
  1 16  1  0
  2  3  1  0
  2 13  1  0
  3  4  1  0
  4  5  1  0
  4 12  1  0
  5  6  1  0
  6  7  1  0
  6 10  2  0
  7  8  1  0
  8  9  2  0
  9 10  1  0
 10 11  1  0
 11 12  1  0
 13 14  2  0
 14 15  1  0
 15 16  2  0
 16 17  1  0
 17 18  2  0
 17 21  1  0
 18 19  1  0
 19 20  2  0
 20 22  1  0
 21 22  2  0
 22 23  1  0
 23 24  1  0
 24 25  1  0
 25 26  1  0
 26 27  1  0
 27 28  2  0
 27 32  1  0
 28 29  1  0
 29 30  2  0
 30 31  1  0
 31 32  2  0
  1 33  1  0
  3 34  1  0
  3 35  1  0
 13 36  1  0
  5 37  1  0
  5 38  1  0
 12 39  1  0
 12 40  1  0
  8 41  1  0
 11 42  1  0
 11 43  1  0
 14 44  1  0
 15 45  1  0
 18 46  1  0
 21 47  1  0
 19 48  1  0
 20 49  1  0
 23 50  1  0
 23 51  1  0
 24 52  1  0
 25 53  1  0
 25 54  1  0
 26 55  1  0
 26 56  1  0
 28 57  1  0
 32 58  1  0
 30 59  1  0
 31 60  1  0
M  END
