
     RDKit          3D

 52 53  0  0  0  0  0  0  0  0999 V2000
    8.1344    0.7547    2.2519 C   0  0  0  0  0  0  0  0  0  0  0  0
    6.8946    1.0617    1.4690 C   0  0  0  0  0  0  0  0  0  0  0  0
    6.2451    2.0671    1.6197 O   0  0  0  0  0  0  0  0  0  0  0  0
    6.4827   -0.0025    0.4502 C   0  0  2  0  0  0  0  0  0  0  0  0
    7.2617    0.2263   -0.8395 C   0  0  0  0  0  0  0  0  0  0  0  0
    7.1163   -0.9147   -1.8155 C   0  0  0  0  0  0  0  0  0  0  0  0
    7.4826   -0.5534   -3.0381 O   0  0  0  0  0  0  0  0  0  0  0  0
    6.7482   -2.0244   -1.5297 O   0  0  0  0  0  0  0  0  0  0  0  0
    5.0696    0.0224    0.1869 N   0  0  0  0  0  0  0  0  0  0  0  0
    4.1964   -0.3338    1.1484 C   0  0  0  0  0  0  0  0  0  0  0  0
    4.5679   -0.6989    2.2550 O   0  0  0  0  0  0  0  0  0  0  0  0
    2.7516   -0.2864    0.7827 C   0  0  0  0  0  0  0  0  0  0  0  0
    1.8131   -0.1482    1.8001 C   0  0  0  0  0  0  0  0  0  0  0  0
    0.4592   -0.1206    1.5038 C   0  0  0  0  0  0  0  0  0  0  0  0
    2.3092   -0.4208   -0.5327 C   0  0  0  0  0  0  0  0  0  0  0  0
    0.9560   -0.4061   -0.8232 C   0  0  0  0  0  0  0  0  0  0  0  0
    0.0169   -0.2549    0.1930 C   0  0  0  0  0  0  0  0  0  0  0  0
   -1.4554   -0.2736   -0.1153 C   0  0  0  0  0  0  0  0  0  0  0  0
   -1.7547    0.6558   -1.1966 N   0  0  0  0  0  0  0  0  0  0  0  0
   -3.1332    0.4526   -2.0739 S   0  0  2  0  0  0  0  0  0  0  0  0
   -3.1072   -0.9012   -2.6017 O   0  0  0  0  0  0  0  0  0  0  0  0
   -3.1969    1.5902   -2.9746 O   0  0  0  0  0  0  0  0  0  0  0  0
   -4.4881    0.5596   -0.9466 C   0  0  0  0  0  0  0  0  0  0  0  0
   -5.1069   -0.5872   -0.4966 C   0  0  0  0  0  0  0  0  0  0  0  0
   -4.9117    1.8155   -0.5028 C   0  0  0  0  0  0  0  0  0  0  0  0
   -5.9502    1.9141    0.3896 C   0  0  0  0  0  0  0  0  0  0  0  0
   -6.5952    0.7623    0.8597 C   0  0  0  0  0  0  0  0  0  0  0  0
   -7.5911    0.9225    1.7138 O   0  0  0  0  0  0  0  0  0  0  0  0
   -6.1642   -0.5026    0.4091 C   0  0  0  0  0  0  0  0  0  0  0  0
   -6.8528   -1.7055    0.9003 C   0  0  0  0  0  0  0  0  0  0  0  0
   -6.3777   -2.8344    0.4232 O   0  0  0  0  0  0  0  0  0  0  0  0
   -7.7840   -1.6593    1.6872 O   0  0  0  0  0  0  0  0  0  0  0  0
    7.8511    0.0902    3.0727 H   0  0  0  0  0  0  0  0  0  0  0  0
    8.8734    0.2146    1.6602 H   0  0  0  0  0  0  0  0  0  0  0  0
    8.5821    1.6528    2.6707 H   0  0  0  0  0  0  0  0  0  0  0  0
    6.7540   -0.9803    0.8570 H   0  0  0  0  0  0  0  0  0  0  0  0
    6.9732    1.1679   -1.3126 H   0  0  0  0  0  0  0  0  0  0  0  0
    8.3299    0.3230   -0.6203 H   0  0  0  0  0  0  0  0  0  0  0  0
    7.4204   -1.3086   -3.6423 H   0  0  0  0  0  0  0  0  0  0  0  0
    4.7382    0.5307   -0.6171 H   0  0  0  0  0  0  0  0  0  0  0  0
    2.1394   -0.0504    2.8270 H   0  0  0  0  0  0  0  0  0  0  0  0
   -0.2595    0.0032    2.3044 H   0  0  0  0  0  0  0  0  0  0  0  0
    3.0120   -0.5692   -1.3426 H   0  0  0  0  0  0  0  0  0  0  0  0
    0.6290   -0.5223   -1.8488 H   0  0  0  0  0  0  0  0  0  0  0  0
   -1.7392   -1.2779   -0.4336 H   0  0  0  0  0  0  0  0  0  0  0  0
   -2.0306   -0.0463    0.7870 H   0  0  0  0  0  0  0  0  0  0  0  0
   -1.5823    1.6292   -0.9669 H   0  0  0  0  0  0  0  0  0  0  0  0
   -4.7791   -1.5548   -0.8502 H   0  0  0  0  0  0  0  0  0  0  0  0
   -4.4352    2.7197   -0.8582 H   0  0  0  0  0  0  0  0  0  0  0  0
   -6.2868    2.8834    0.7320 H   0  0  0  0  0  0  0  0  0  0  0  0
   -7.9451    0.0373    1.9507 H   0  0  0  0  0  0  0  0  0  0  0  0
   -6.8713   -3.5882    0.7805 H   0  0  0  0  0  0  0  0  0  0  0  0
  1  2  1  0
  1 33  1  0
  1 34  1  0
  1 35  1  0
  2  3  2  0
  2  4  1  0
  4  5  1  0
  4  9  1  0
  4 36  1  1
  5  6  1  0
  5 37  1  0
  5 38  1  0
  6  7  1  0
  6  8  2  0
  7 39  1  0
  9 10  1  0
  9 40  1  0
 10 11  2  0
 10 12  1  0
 12 13  2  0
 12 15  1  0
 13 14  1  0
 13 41  1  0
 14 17  2  0
 14 42  1  0
 15 16  2  0
 15 43  1  0
 16 17  1  0
 16 44  1  0
 17 18  1  0
 18 19  1  0
 18 45  1  0
 18 46  1  0
 20 19  1  1
 19 47  1  0
 20 21  2  0
 20 22  2  0
 20 23  1  0
 23 24  2  0
 23 25  1  0
 24 29  1  0
 24 48  1  0
 25 26  2  0
 25 49  1  0
 26 27  1  0
 26 50  1  0
 27 28  1  0
 27 29  2  0
 28 51  1  0
 29 30  1  0
 30 31  1  0
 30 32  2  0
 31 52  1  0
M  END
