
     RDKit          3D

 74 75  0  0  0  0  0  0  0  0999 V2000
   -1.6654   -0.3294    3.2874 O   0  0  0  0  0  0  0  0  0  0  0  0
   -1.9202   -1.6385    2.8180 C   0  0  0  0  0  0  0  0  0  0  0  0
   -2.7438   -1.5378    1.5539 C   0  0  2  0  0  0  0  0  0  0  0  0
   -3.0971   -2.8959    0.9462 C   0  0  2  0  0  0  0  0  0  0  0  0
   -3.8718   -2.6926   -0.3591 C   0  0  2  0  0  0  0  0  0  0  0  0
   -3.0966   -1.7585   -1.2925 C   0  0  2  0  0  0  0  0  0  0  0  0
   -2.7236   -0.4886   -0.5336 C   0  0  1  0  0  0  0  0  0  0  0  0
   -1.9830   -0.8216    0.6059 O   0  0  0  0  0  0  0  0  0  0  0  0
   -1.9159    0.2699   -1.3650 O   0  0  0  0  0  0  0  0  0  0  0  0
   -1.8783    1.6655   -1.2113 C   0  0  1  0  0  0  0  0  0  0  0  0
   -3.0203    2.3892   -1.9628 C   0  0  2  0  0  0  0  0  0  0  0  0
   -4.0637    2.7168   -0.8817 C   0  0  2  0  0  0  0  0  0  0  0  0
   -3.1831    2.8008    0.3768 C   0  0  2  0  0  0  0  0  0  0  0  0
   -1.9998    2.0454    0.1150 O   0  0  0  0  0  0  0  0  0  0  0  0
   -3.8296    2.2840    1.6524 C   0  0  0  0  0  0  0  0  0  0  0  0
   -2.9482    2.3130    2.7469 O   0  0  0  0  0  0  0  0  0  0  0  0
   -5.0492    1.7181   -0.8649 O   0  0  0  0  0  0  0  0  0  0  0  0
   -3.4582    1.6056   -3.0286 O   0  0  0  0  0  0  0  0  0  0  0  0
   -0.5275    2.0955   -1.7641 C   0  0  0  0  0  0  0  0  0  0  0  0
    0.4761    1.4103   -1.0292 O   0  0  0  0  0  0  0  0  0  0  0  0
   -3.9173   -1.4871   -2.4042 O   0  0  0  0  0  0  0  0  0  0  0  0
   -5.1345   -2.1562   -0.0507 O   0  0  0  0  0  0  0  0  0  0  0  0
   -3.8323   -3.6361    1.8860 O   0  0  0  0  0  0  0  0  0  0  0  0
    1.7464    1.6211   -1.3566 C   0  0  0  0  0  0  0  0  0  0  0  0
    2.6702    0.7874   -0.5116 C   0  0  0  0  0  0  0  0  0  0  0  0
    2.0872    2.3831   -2.2267 O   0  0  0  0  0  0  0  0  0  0  0  0
    4.1415    0.9591   -0.8516 C   0  0  0  0  0  0  0  0  0  0  0  0
    5.0258    0.0546   -0.0018 C   0  0  0  0  0  0  0  0  0  0  0  0
    6.5079    0.1975   -0.3230 C   0  0  0  0  0  0  0  0  0  0  0  0
   -1.3037   -0.3867    4.1764 H   0  0  0  0  0  0  0  0  0  0  0  0
   -0.9847   -2.1736    2.6075 H   0  0  0  0  0  0  0  0  0  0  0  0
   -2.4768   -2.2248    3.5538 H   0  0  0  0  0  0  0  0  0  0  0  0
   -3.6738   -0.9960    1.7903 H   0  0  0  0  0  0  0  0  0  0  0  0
   -2.1533   -3.4012    0.6917 H   0  0  0  0  0  0  0  0  0  0  0  0
   -3.9778   -3.6702   -0.8571 H   0  0  0  0  0  0  0  0  0  0  0  0
   -2.1660   -2.2605   -1.5972 H   0  0  0  0  0  0  0  0  0  0  0  0
   -3.6417    0.0377   -0.2452 H   0  0  0  0  0  0  0  0  0  0  0  0
   -2.6210    3.3512   -2.3140 H   0  0  0  0  0  0  0  0  0  0  0  0
   -4.5183    3.6942   -1.0729 H   0  0  0  0  0  0  0  0  0  0  0  0
   -2.8889    3.8467    0.5284 H   0  0  0  0  0  0  0  0  0  0  0  0
   -4.6827    2.9278    1.8882 H   0  0  0  0  0  0  0  0  0  0  0  0
   -4.2277    1.2759    1.4926 H   0  0  0  0  0  0  0  0  0  0  0  0
   -2.4488    1.4846    2.7604 H   0  0  0  0  0  0  0  0  0  0  0  0
   -5.7919    2.0271   -0.3371 H   0  0  0  0  0  0  0  0  0  0  0  0
   -4.1079    2.1017   -3.5373 H   0  0  0  0  0  0  0  0  0  0  0  0
   -0.4629    1.8567   -2.8294 H   0  0  0  0  0  0  0  0  0  0  0  0
   -0.4201    3.1770   -1.6530 H   0  0  0  0  0  0  0  0  0  0  0  0
   -3.7190   -0.6034   -2.7428 H   0  0  0  0  0  0  0  0  0  0  0  0
   -5.5015   -1.8072   -0.8717 H   0  0  0  0  0  0  0  0  0  0  0  0
   -3.9332   -4.5349    1.5570 H   0  0  0  0  0  0  0  0  0  0  0  0
    2.4864    1.0329    0.5392 H   0  0  0  0  0  0  0  0  0  0  0  0
    2.3716   -0.2603   -0.6217 H   0  0  0  0  0  0  0  0  0  0  0  0
    4.3054    0.7351   -1.9090 H   0  0  0  0  0  0  0  0  0  0  0  0
    4.4378    2.0013   -0.7048 H   0  0  0  0  0  0  0  0  0  0  0  0
    4.8617    0.2738    1.0588 H   0  0  0  0  0  0  0  0  0  0  0  0
    4.7226   -0.9882   -0.1473 H   0  0  0  0  0  0  0  0  0  0  0  0
    6.6697   -0.0103   -1.3863 H   0  0  0  0  0  0  0  0  0  0  0  0
    6.8155    1.2373   -0.1657 H   0  0  0  0  0  0  0  0  0  0  0  0
    7.3914   -0.7224    0.5108 C   0  0  0  0  0  0  0  0  0  0  0  0
    8.8754   -0.5836    0.1943 C   0  0  0  0  0  0  0  0  0  0  0  0
    9.7564   -1.5098    1.0238 C   0  0  0  0  0  0  0  0  0  0  0  0
   11.2422   -1.3655    0.7175 C   0  0  0  0  0  0  0  0  0  0  0  0
   12.1128   -2.2964    1.5503 C   0  0  0  0  0  0  0  0  0  0  0  0
    7.2275   -0.5167    1.5743 H   0  0  0  0  0  0  0  0  0  0  0  0
    7.0823   -1.7615    0.3513 H   0  0  0  0  0  0  0  0  0  0  0  0
    9.0393   -0.7845   -0.8701 H   0  0  0  0  0  0  0  0  0  0  0  0
    9.1857    0.4544    0.3588 H   0  0  0  0  0  0  0  0  0  0  0  0
    9.5870   -1.3141    2.0885 H   0  0  0  0  0  0  0  0  0  0  0  0
    9.4509   -2.5485    0.8541 H   0  0  0  0  0  0  0  0  0  0  0  0
   11.4127   -1.5594   -0.3460 H   0  0  0  0  0  0  0  0  0  0  0  0
   11.5475   -0.3284    0.8889 H   0  0  0  0  0  0  0  0  0  0  0  0
   13.1720   -2.1630    1.3269 H   0  0  0  0  0  0  0  0  0  0  0  0
   11.9763   -2.1152    2.6183 H   0  0  0  0  0  0  0  0  0  0  0  0
   11.8658   -3.3427    1.3609 H   0  0  0  0  0  0  0  0  0  0  0  0
  1  2  1  0
  2  3  1  0
 21  6  1  0
  3  8  1  0
  3  4  1  0
  8  7  1  0
 23  4  1  0
  6  7  1  0
  6  5  1  0
  4  5  1  0
  7  9  1  0
 22  5  1  0
 10  9  1  1
 14 10  1  0
 14 13  1  0
 10 19  1  0
 10 11  1  0
 19 20  1  0
 15 13  1  0
 15 16  1  0
 13 12  1  0
 18 11  1  0
 11 12  1  0
 20 24  1  0
 12 17  1  0
 26 24  2  0
 24 25  1  0
 25 27  1  0
 27 28  1  0
 28 29  1  0
  1 30  1  0
  2 31  1  0
  2 32  1  0
  3 33  1  1
  4 34  1  6
  5 35  1  6
  6 36  1  6
  7 37  1  1
 11 38  1  6
 12 39  1  6
 13 40  1  1
 15 41  1  0
 15 42  1  0
 16 43  1  0
 17 44  1  0
 18 45  1  0
 19 46  1  0
 19 47  1  0
 21 48  1  0
 22 49  1  0
 23 50  1  0
 25 51  1  0
 25 52  1  0
 27 53  1  0
 27 54  1  0
 28 55  1  0
 28 56  1  0
 29 57  1  0
 29 58  1  0
 29 59  1  0
 59 60  1  0
 60 61  1  0
 61 62  1  0
 62 63  1  0
 59 64  1  0
 59 65  1  0
 60 66  1  0
 60 67  1  0
 61 68  1  0
 61 69  1  0
 62 70  1  0
 62 71  1  0
 63 72  1  0
 63 73  1  0
 63 74  1  0
M  END
