
     RDKit          3D

 26 27  0  0  0  0  0  0  0  0999 V2000
   -2.7213    0.3606   -0.0830 C   0  0  0  0  0  0  0  0  0  0  0  0
   -0.3238    0.4895   -0.2125 C   0  0  0  0  0  0  0  0  0  0  0  0
    2.0928    0.6696    1.6061 C   0  0  0  0  0  0  0  0  0  0  0  0
    2.0314    0.7385    0.0839 C   0  0  1  0  0  0  0  0  0  0  0  0
    3.0653    1.7138   -0.4483 C   0  0  0  0  0  0  0  0  0  0  0  0
    2.2147   -0.6378   -0.5472 C   0  0  0  0  0  0  0  0  0  0  0  0
    1.0659   -1.5656   -0.2507 C   0  0  0  0  0  0  0  0  0  0  0  0
    1.2103   -2.7702   -0.1584 O   0  0  0  0  0  0  0  0  0  0  0  0
   -0.2359   -0.9084   -0.1496 C   0  0  0  0  0  0  0  0  0  0  0  0
   -1.4211   -1.6466   -0.0369 C   0  0  0  0  0  0  0  0  0  0  0  0
   -2.6514   -1.0386   -0.0034 C   0  0  0  0  0  0  0  0  0  0  0  0
   -3.9381    0.9146   -0.0455 O   0  0  0  0  0  0  0  0  0  0  0  0
   -1.5638    1.1204   -0.1816 C   0  0  0  0  0  0  0  0  0  0  0  0
    0.7520    1.2781   -0.3113 O   0  0  0  0  0  0  0  0  0  0  0  0
    1.9251    1.6551    2.0413 H   0  0  0  0  0  0  0  0  0  0  0  0
    1.3555   -0.0150    2.0289 H   0  0  0  0  0  0  0  0  0  0  0  0
    3.0778    0.3247    1.9207 H   0  0  0  0  0  0  0  0  0  0  0  0
    4.0642    1.3846   -0.1631 H   0  0  0  0  0  0  0  0  0  0  0  0
    3.0278    1.7777   -1.5364 H   0  0  0  0  0  0  0  0  0  0  0  0
    2.9121    2.7118   -0.0358 H   0  0  0  0  0  0  0  0  0  0  0  0
    2.2739   -0.5371   -1.6379 H   0  0  0  0  0  0  0  0  0  0  0  0
    3.1555   -1.0815   -0.2175 H   0  0  0  0  0  0  0  0  0  0  0  0
   -1.3595   -2.7258    0.0156 H   0  0  0  0  0  0  0  0  0  0  0  0
   -3.5591   -1.6213    0.0799 H   0  0  0  0  0  0  0  0  0  0  0  0
   -3.8810    1.8763   -0.0927 H   0  0  0  0  0  0  0  0  0  0  0  0
   -1.6124    2.2027   -0.2249 H   0  0  0  0  0  0  0  0  0  0  0  0
  8  7  2  0
 10 11  1  0
 10  9  2  0
 11  1  2  0
  7  9  1  0
  7  6  1  0
  9  2  1  0
  1 12  1  0
  1 13  1  0
  6  4  1  0
  2 13  2  0
  2 14  1  0
 14  4  1  0
  4  5  1  6
  4  3  1  0
  3 15  1  0
  3 16  1  0
  3 17  1  0
  5 18  1  0
  5 19  1  0
  5 20  1  0
  6 21  1  0
  6 22  1  0
 10 23  1  0
 11 24  1  0
 12 25  1  0
 13 26  1  0
M  END
