
     RDKit          3D

 51 54  0  0  0  0  0  0  0  0999 V2000
   -8.9670    1.0203   -0.1314 C   0  0  0  0  0  0  0  0  0  0  0  0
   -8.0109    2.0195   -0.2228 C   0  0  0  0  0  0  0  0  0  0  0  0
   -6.6563    1.7336   -0.3155 C   0  0  0  0  0  0  0  0  0  0  0  0
   -3.7709    1.9635   -0.5387 O   0  0  0  0  0  0  0  0  0  0  0  0
    0.0556   -0.9941   -1.4587 O   0  0  0  0  0  0  0  0  0  0  0  0
   -8.5286   -0.2944   -0.1361 C   0  0  0  0  0  0  0  0  0  0  0  0
   -7.1879   -0.6155   -0.2276 C   0  0  0  0  0  0  0  0  0  0  0  0
   -6.2342    0.4027   -0.3181 C   0  0  0  0  0  0  0  0  0  0  0  0
   -4.9029   -0.0050   -0.4037 N   0  0  0  0  0  0  0  0  0  0  0  0
   -3.7751    0.7476   -0.5183 C   0  0  0  0  0  0  0  0  0  0  0  0
   -2.5143   -0.0817   -0.6415 C   0  0  0  0  0  0  0  0  0  0  0  0
   -1.2616    0.7524   -0.4527 C   0  0  0  0  0  0  0  0  0  0  0  0
   -0.0015   -0.0394   -0.7113 C   0  0  0  0  0  0  0  0  0  0  0  0
    1.0820    0.4487   -0.0466 N   0  0  0  0  0  0  0  0  0  0  0  0
    2.3057   -0.0623   -0.2597 N   0  0  0  0  0  0  0  0  0  0  0  0
    3.2731    0.4700    0.3710 C   0  0  0  0  0  0  0  0  0  0  0  0
    4.4161   -3.7252    0.3550 C   0  0  0  0  0  0  0  0  0  0  0  0
    4.0351   -2.4177    0.3521 C   0  0  0  0  0  0  0  0  0  0  0  0
    4.9928   -1.3674    0.2175 C   0  0  0  0  0  0  0  0  0  0  0  0
    4.6571    0.0024    0.2272 C   0  0  0  0  0  0  0  0  0  0  0  0
    5.6679    0.9820    0.1385 C   0  0  0  0  0  0  0  0  0  0  0  0
    5.3857    2.3810    0.1122 C   0  0  0  0  0  0  0  0  0  0  0  0
    6.3852    3.3018    0.0231 C   0  0  0  0  0  0  0  0  0  0  0  0
    5.7794   -4.0923    0.2190 C   0  0  0  0  0  0  0  0  0  0  0  0
    6.7272   -3.1261    0.1026 C   0  0  0  0  0  0  0  0  0  0  0  0
    6.3713   -1.7460    0.1090 C   0  0  0  0  0  0  0  0  0  0  0  0
    7.3554   -0.7686    0.0223 C   0  0  0  0  0  0  0  0  0  0  0  0
    7.0376    0.5840    0.0390 C   0  0  0  0  0  0  0  0  0  0  0  0
    8.0558    1.5760   -0.0539 C   0  0  0  0  0  0  0  0  0  0  0  0
    7.7425    2.8988   -0.0576 C   0  0  0  0  0  0  0  0  0  0  0  0
  -10.0192    1.2571   -0.0587 H   0  0  0  0  0  0  0  0  0  0  0  0
   -8.3270    3.0544   -0.2201 H   0  0  0  0  0  0  0  0  0  0  0  0
   -5.9477    2.5409   -0.3823 H   0  0  0  0  0  0  0  0  0  0  0  0
   -6.8775   -1.6532   -0.2307 H   0  0  0  0  0  0  0  0  0  0  0  0
   -4.7650   -1.0047   -0.3921 H   0  0  0  0  0  0  0  0  0  0  0  0
   -2.5428   -0.9017    0.0808 H   0  0  0  0  0  0  0  0  0  0  0  0
   -2.5162   -0.5505   -1.6297 H   0  0  0  0  0  0  0  0  0  0  0  0
   -1.2595    1.5937   -1.1520 H   0  0  0  0  0  0  0  0  0  0  0  0
   -1.2385    1.1905    0.5471 H   0  0  0  0  0  0  0  0  0  0  0  0
    0.9732    1.2475    0.5697 H   0  0  0  0  0  0  0  0  0  0  0  0
    3.1049    1.3137    1.0447 H   0  0  0  0  0  0  0  0  0  0  0  0
    3.6669   -4.4983    0.4638 H   0  0  0  0  0  0  0  0  0  0  0  0
    2.9875   -2.1786    0.4462 H   0  0  0  0  0  0  0  0  0  0  0  0
    4.3633    2.7304    0.1484 H   0  0  0  0  0  0  0  0  0  0  0  0
    6.1424    4.3562    0.0056 H   0  0  0  0  0  0  0  0  0  0  0  0
    6.0563   -5.1383    0.2151 H   0  0  0  0  0  0  0  0  0  0  0  0
    7.7742   -3.3874    0.0072 H   0  0  0  0  0  0  0  0  0  0  0  0
    8.3939   -1.0695   -0.0599 H   0  0  0  0  0  0  0  0  0  0  0  0
    9.0872    1.2531   -0.1266 H   0  0  0  0  0  0  0  0  0  0  0  0
    8.5203    3.6470   -0.1290 H   0  0  0  0  0  0  0  0  0  0  0  0
   -9.6882   -1.5787   -0.0248 Cl  0  0  0  0  0  0  0  0  0  0  0  0
  1  2  2  0
  1  6  1  0
  2  3  1  0
  3  8  2  0
  4 10  2  0
  5 13  2  0
 51  6  1  0
  6  7  2  0
  7  8  1  0
  8  9  1  0
  9 10  1  0
 10 11  1  0
 11 12  1  0
 12 13  1  0
 13 14  1  0
 14 15  1  0
 15 16  2  0
 16 20  1  0
 17 18  2  0
 17 24  1  0
 18 19  1  0
 19 20  2  0
 19 26  1  0
 20 21  1  0
 21 22  2  0
 21 28  1  0
 22 23  1  0
 23 30  2  0
 24 25  2  0
 25 26  1  0
 26 27  2  0
 27 28  1  0
 28 29  2  0
 29 30  1  0
  1 31  1  0
  2 32  1  0
  3 33  1  0
  7 34  1  0
  9 35  1  0
 11 36  1  0
 11 37  1  0
 12 38  1  0
 12 39  1  0
 14 40  1  0
 16 41  1  0
 17 42  1  0
 18 43  1  0
 22 44  1  0
 23 45  1  0
 24 46  1  0
 25 47  1  0
 27 48  1  0
 29 49  1  0
 30 50  1  0
M  END
