
     RDKit          3D

 39 41  0  0  0  0  0  0  0  0999 V2000
   -1.6800   -1.0253   -0.4986 C   0  0  2  0  0  0  0  0  0  0  0  0
    0.0044    0.5885    0.6041 C   0  0  0  0  0  0  0  0  0  0  0  0
   -1.1151    0.4272   -0.4048 C   0  0  2  0  0  0  0  0  0  0  0  0
   -2.3882    1.1793    0.0707 C   0  0  1  0  0  0  0  0  0  0  0  0
   -3.1542   -0.7911   -0.1469 C   0  0  2  0  0  0  0  0  0  0  0  0
   -3.3141    1.3659   -1.1367 C   0  0  0  0  0  0  0  0  0  0  0  0
   -3.8421   -0.0750   -1.3181 C   0  0  0  0  0  0  0  0  0  0  0  0
   -1.0077   -2.0232    0.4117 C   0  0  0  0  0  0  0  0  0  0  0  0
   -3.0746    0.2161    0.8484 O   0  0  0  0  0  0  0  0  0  0  0  0
   -0.2254    0.3321    1.7803 O   0  0  0  0  0  0  0  0  0  0  0  0
   -1.5418   -2.6362    1.2999 O   0  0  0  0  0  0  0  0  0  0  0  0
   -1.5635   -1.3991   -1.5193 H   0  0  0  0  0  0  0  0  0  0  0  0
   -0.8380    0.7728   -1.3956 H   0  0  0  0  0  0  0  0  0  0  0  0
   -2.1943    2.0809    0.6504 H   0  0  0  0  0  0  0  0  0  0  0  0
   -3.6795   -1.6671    0.2288 H   0  0  0  0  0  0  0  0  0  0  0  0
   -4.1185    2.0627   -0.8998 H   0  0  0  0  0  0  0  0  0  0  0  0
   -2.7911    1.7510   -2.0113 H   0  0  0  0  0  0  0  0  0  0  0  0
   -3.5808   -0.5112   -2.2825 H   0  0  0  0  0  0  0  0  0  0  0  0
   -4.9262   -0.1245   -1.2166 H   0  0  0  0  0  0  0  0  0  0  0  0
    0.2633   -2.1986    0.0651 O   0  0  0  0  0  0  0  0  0  0  0  0
    1.1995    1.0646    0.1961 N   0  0  0  0  0  0  0  0  0  0  0  0
    2.2839    1.2268    1.1513 C   0  0  0  0  0  0  0  0  0  0  0  0
    3.3926    0.2272    0.8678 C   0  0  0  0  0  0  0  0  0  0  0  0
    3.8748    0.3714   -0.4916 N   0  0  0  0  0  0  0  0  0  0  0  0
    2.7930    0.2075   -1.4411 C   0  0  0  0  0  0  0  0  0  0  0  0
    1.6759    1.2021   -1.1691 C   0  0  0  0  0  0  0  0  0  0  0  0
    4.9673   -0.5324   -0.7708 C   0  0  0  0  0  0  0  0  0  0  0  0
    0.6899   -2.8334    0.6600 H   0  0  0  0  0  0  0  0  0  0  0  0
    2.6750    2.2446    1.0595 H   0  0  0  0  0  0  0  0  0  0  0  0
    1.9095    1.1000    2.1624 H   0  0  0  0  0  0  0  0  0  0  0  0
    4.2174    0.4082    1.5613 H   0  0  0  0  0  0  0  0  0  0  0  0
    3.0193   -0.7929    1.0666 H   0  0  0  0  0  0  0  0  0  0  0  0
    3.1749    0.3787   -2.4504 H   0  0  0  0  0  0  0  0  0  0  0  0
    2.3733   -0.8127   -1.4181 H   0  0  0  0  0  0  0  0  0  0  0  0
    0.8808    1.0532   -1.8914 H   0  0  0  0  0  0  0  0  0  0  0  0
    2.0492    2.2211   -1.3070 H   0  0  0  0  0  0  0  0  0  0  0  0
    4.6830   -1.5932   -0.6893 H   0  0  0  0  0  0  0  0  0  0  0  0
    5.3430   -0.3646   -1.7814 H   0  0  0  0  0  0  0  0  0  0  0  0
    5.7881   -0.3527   -0.0750 H   0  0  0  0  0  0  0  0  0  0  0  0
 10  2  2  0
 11  8  2  0
  9  4  1  0
  9  5  1  0
  2  3  1  0
  8  1  1  0
  4  3  1  0
  4  6  1  0
  5  1  1  0
  5  7  1  0
  3  1  1  0
  6  7  1  0
  1 12  1  6
  3 13  1  6
  4 14  1  1
  5 15  1  1
  6 16  1  0
  6 17  1  0
  7 18  1  0
  7 19  1  0
  8 20  1  0
  2 21  1  0
 21 22  1  0
 22 23  1  0
 23 24  1  0
 24 25  1  0
 25 26  1  0
 26 21  1  0
 24 27  1  0
 20 28  1  0
 22 29  1  0
 22 30  1  0
 23 31  1  0
 23 32  1  0
 25 33  1  0
 25 34  1  0
 26 35  1  0
 26 36  1  0
 27 37  1  0
 27 38  1  0
 27 39  1  0
M  END
