
     RDKit          3D

 12 12  0  0  0  0  0  0  0  0999 V2000
   -0.8949    1.4743    0.0310 C   0  0  0  0  0  0  0  0  0  0  0  0
   -2.3308    1.6780   -0.0065 C   0  0  0  0  0  0  0  0  0  0  0  0
   -3.2425    0.7742   -0.0165 N   0  0  0  0  0  0  0  0  0  0  0  0
   -0.4444    0.2192    0.0368 C   0  0  0  0  0  0  0  0  0  0  0  0
   -2.8523   -0.5612    0.0155 C   0  0  0  0  0  0  0  0  0  0  0  0
   -1.3789   -0.9309    0.0109 C   0  0  0  0  0  0  0  0  0  0  0  0
    1.6006   -0.2066    0.0748 I   0  0  0  0  0  0  0  0  0  0  0  0
   -0.2554    2.3445    0.0476 H   0  0  0  0  0  0  0  0  0  0  0  0
   -2.6690    2.7105   -0.0302 H   0  0  0  0  0  0  0  0  0  0  0  0
   -1.1883   -1.5478   -0.8741 H   0  0  0  0  0  0  0  0  0  0  0  0
   -1.1919   -1.5926    0.8625 H   0  0  0  0  0  0  0  0  0  0  0  0
   -3.6914   -1.4305    0.0405 O   0  0  0  0  0  0  0  0  0  0  0  0
  3  2  2  0
  3  5  1  0
 12  5  2  0
  2  1  1  0
  5  6  1  0
  1  4  2  0
  6  4  1  0
  4  7  1  0
  1  8  1  0
  2  9  1  0
  6 10  1  0
  6 11  1  0
M  END
