
     RDKit          3D

 22 22  0  0  0  0  0  0  0  0999 V2000
   -1.1604   -0.2638   -0.4599 C   0  0  0  0  0  0  0  0  0  0  0  0
   -1.2820    0.0960    0.8180 C   0  0  0  0  0  0  0  0  0  0  0  0
   -2.4572    0.3378    1.4351 O   0  0  0  0  0  0  0  0  0  0  0  0
   -0.1110    0.3004    1.7496 C   0  0  1  0  0  0  0  0  0  0  0  0
   -0.3512   -0.2564    3.0224 O   0  0  0  0  0  0  0  0  0  0  0  0
    1.1352   -0.3697    1.1872 C   0  0  1  0  0  0  0  0  0  0  0  0
    0.1791   -0.5094   -1.1077 C   0  0  2  0  0  0  0  0  0  0  0  0
    1.3235    0.0335   -0.2618 C   0  0  0  0  0  0  0  0  0  0  0  0
    0.2068    0.0693   -2.5074 C   0  0  0  0  0  0  0  0  0  0  0  0
    0.9731    0.9138   -2.8968 O   0  0  0  0  0  0  0  0  0  0  0  0
   -0.7220   -0.4790   -3.2823 O   0  0  0  0  0  0  0  0  0  0  0  0
    2.2862   -0.0008    1.9074 O   0  0  0  0  0  0  0  0  0  0  0  0
   -2.0525   -0.4122   -1.0603 H   0  0  0  0  0  0  0  0  0  0  0  0
   -3.1901    0.2088    0.8215 H   0  0  0  0  0  0  0  0  0  0  0  0
    0.0847    1.3806    1.8313 H   0  0  0  0  0  0  0  0  0  0  0  0
   -0.9578    0.3121    3.5061 H   0  0  0  0  0  0  0  0  0  0  0  0
    0.9792   -1.4595    1.2358 H   0  0  0  0  0  0  0  0  0  0  0  0
    0.3151   -1.5930   -1.2338 H   0  0  0  0  0  0  0  0  0  0  0  0
    1.3645    1.1237   -0.3338 H   0  0  0  0  0  0  0  0  0  0  0  0
    2.2749   -0.3541   -0.6306 H   0  0  0  0  0  0  0  0  0  0  0  0
   -0.6927   -0.0855   -4.1673 H   0  0  0  0  0  0  0  0  0  0  0  0
    2.1528   -0.2416    2.8302 H   0  0  0  0  0  0  0  0  0  0  0  0
  1  2  2  0
  1  7  1  0
  1 13  1  0
  2  3  1  0
  2  4  1  0
  3 14  1  0
  4  5  1  0
  4  6  1  0
  4 15  1  1
  5 16  1  0
  6  8  1  0
  6 12  1  0
  6 17  1  6
  7  8  1  0
  7  9  1  0
  7 18  1  6
  8 19  1  0
  8 20  1  0
  9 10  2  0
  9 11  1  0
 11 21  1  0
 12 22  1  0
M  END
