
     RDKit          3D

 42 45  0  0  0  0  0  0  0  0999 V2000
   -7.5909   -0.2137    0.1526 O   0  0  0  0  0  0  0  0  0  0  0  0
   -6.2478   -0.1492    0.1035 C   0  0  0  0  0  0  0  0  0  0  0  0
   -5.5235   -1.2450    0.5683 C   0  0  0  0  0  0  0  0  0  0  0  0
   -4.1411   -1.2247    0.5405 C   0  0  0  0  0  0  0  0  0  0  0  0
   -3.4373   -0.1236    0.0451 C   0  0  0  0  0  0  0  0  0  0  0  0
   -1.9782   -0.0909    0.0154 C   0  0  0  0  0  0  0  0  0  0  0  0
   -1.1500    0.9941    0.0535 C   0  0  0  0  0  0  0  0  0  0  0  0
    0.2370    0.6715    0.0270 C   0  0  0  0  0  0  0  0  0  0  0  0
    1.2849    1.7022    0.1098 C   0  0  0  0  0  0  0  0  0  0  0  0
    1.2068    2.8513   -0.6775 C   0  0  0  0  0  0  0  0  0  0  0  0
    2.1738    3.8399   -0.6123 C   0  0  0  0  0  0  0  0  0  0  0  0
    3.2531    3.6992    0.2568 C   0  0  0  0  0  0  0  0  0  0  0  0
    4.1719    4.6842    0.2839 O   0  0  0  0  0  0  0  0  0  0  0  0
    3.3408    2.5633    1.0587 C   0  0  0  0  0  0  0  0  0  0  0  0
    2.3659    1.5825    0.9818 C   0  0  0  0  0  0  0  0  0  0  0  0
    0.4518   -0.6844   -0.0446 C   0  0  0  0  0  0  0  0  0  0  0  0
    1.7041   -1.4349   -0.1519 C   0  0  0  0  0  0  0  0  0  0  0  0
    1.9031   -2.6172    0.5608 C   0  0  0  0  0  0  0  0  0  0  0  0
    3.0799   -3.3401    0.4451 C   0  0  0  0  0  0  0  0  0  0  0  0
    4.0963   -2.8873   -0.3911 C   0  0  0  0  0  0  0  0  0  0  0  0
    5.2622   -3.5424   -0.5432 O   0  0  0  0  0  0  0  0  0  0  0  0
    3.9123   -1.7079   -1.1126 C   0  0  0  0  0  0  0  0  0  0  0  0
    2.7313   -1.0005   -0.9947 C   0  0  0  0  0  0  0  0  0  0  0  0
   -1.0478   -1.5413   -0.0802 S   0  0  0  0  0  0  0  0  0  0  0  0
   -4.1789    0.9629   -0.4230 C   0  0  0  0  0  0  0  0  0  0  0  0
   -5.5624    0.9582   -0.3919 C   0  0  0  0  0  0  0  0  0  0  0  0
   -7.9814    0.6000   -0.1856 H   0  0  0  0  0  0  0  0  0  0  0  0
   -6.0449   -2.1090    0.9605 H   0  0  0  0  0  0  0  0  0  0  0  0
   -3.6064   -2.0827    0.9303 H   0  0  0  0  0  0  0  0  0  0  0  0
   -1.5112    2.0096    0.1503 H   0  0  0  0  0  0  0  0  0  0  0  0
    0.3813    2.9737   -1.3683 H   0  0  0  0  0  0  0  0  0  0  0  0
    2.0977    4.7206   -1.2379 H   0  0  0  0  0  0  0  0  0  0  0  0
    4.8727    4.4754    0.9114 H   0  0  0  0  0  0  0  0  0  0  0  0
    4.1664    2.4450    1.7515 H   0  0  0  0  0  0  0  0  0  0  0  0
    2.4476    0.7130    1.6213 H   0  0  0  0  0  0  0  0  0  0  0  0
    1.1345   -2.9819    1.2317 H   0  0  0  0  0  0  0  0  0  0  0  0
    3.2039   -4.2546    1.0140 H   0  0  0  0  0  0  0  0  0  0  0  0
    5.2730   -4.3404   -0.0028 H   0  0  0  0  0  0  0  0  0  0  0  0
    4.6933   -1.3543   -1.7740 H   0  0  0  0  0  0  0  0  0  0  0  0
    2.6032   -0.0990   -1.5793 H   0  0  0  0  0  0  0  0  0  0  0  0
   -3.6723    1.8254   -0.8365 H   0  0  0  0  0  0  0  0  0  0  0  0
   -6.1074    1.8165   -0.7678 H   0  0  0  0  0  0  0  0  0  0  0  0
 14 15  2  0
 14 12  1  0
 13 12  1  0
 15  9  1  0
 12 11  2  0
 18 19  2  0
 18 17  1  0
 19 20  1  0
  9  8  1  0
  9 10  2  0
 11 10  1  0
  8  7  1  0
  8 16  2  0
  7  6  2  0
 25 26  1  0
 25  5  2  0
 17 16  1  0
 17 23  2  0
 16 24  1  0
 20 21  1  0
 20 22  2  0
 26  2  2  0
  6 24  1  0
  6  5  1  0
  5  4  1  0
 23 22  1  0
  2  1  1  0
  2  3  1  0
  4  3  2  0
  1 27  1  0
  3 28  1  0
  4 29  1  0
  7 30  1  0
 10 31  1  0
 11 32  1  0
 13 33  1  0
 14 34  1  0
 15 35  1  0
 18 36  1  0
 19 37  1  0
 21 38  1  0
 22 39  1  0
 23 40  1  0
 25 41  1  0
 26 42  1  0
M  END
