
     RDKit          3D

 34 37  0  0  0  0  0  0  0  0999 V2000
    7.0128    1.2322   -0.1109 O   0  0  0  0  0  0  0  0  0  0  0  0
    5.7406    0.8125   -0.0157 C   0  0  0  0  0  0  0  0  0  0  0  0
    5.4073   -0.3964   -0.6266 C   0  0  0  0  0  0  0  0  0  0  0  0
    4.1103   -0.8706   -0.5694 C   0  0  0  0  0  0  0  0  0  0  0  0
    4.7592    1.5327    0.6616 C   0  0  0  0  0  0  0  0  0  0  0  0
    3.4638    1.0486    0.7314 C   0  0  0  0  0  0  0  0  0  0  0  0
    3.1388   -0.1474    0.1109 C   0  0  0  0  0  0  0  0  0  0  0  0
    1.8110   -0.6316    0.1662 N   0  0  0  0  0  0  0  0  0  0  0  0
    0.6671    0.0629    0.0575 C   0  0  0  0  0  0  0  0  0  0  0  0
    1.5660   -1.9264    0.3465 N   0  0  0  0  0  0  0  0  0  0  0  0
    0.2939   -2.0881    0.3537 N   0  0  0  0  0  0  0  0  0  0  0  0
   -0.3128   -0.8919    0.1827 C   0  0  0  0  0  0  0  0  0  0  0  0
   -1.7609   -0.7208    0.1365 C   0  0  0  0  0  0  0  0  0  0  0  0
   -2.6200   -1.8353    0.3038 C   0  0  0  0  0  0  0  0  0  0  0  0
   -2.1991    0.4970   -0.0657 N   0  0  0  0  0  0  0  0  0  0  0  0
   -3.5316    0.7125   -0.1208 C   0  0  0  0  0  0  0  0  0  0  0  0
   -4.4739   -0.3350    0.0338 C   0  0  0  0  0  0  0  0  0  0  0  0
   -3.9675   -1.6354    0.2520 C   0  0  0  0  0  0  0  0  0  0  0  0
   -3.9995    2.0284   -0.3413 C   0  0  0  0  0  0  0  0  0  0  0  0
   -5.3432    2.2815   -0.4029 C   0  0  0  0  0  0  0  0  0  0  0  0
   -6.2803    1.2379   -0.2482 C   0  0  0  0  0  0  0  0  0  0  0  0
   -5.8538   -0.0453   -0.0342 C   0  0  0  0  0  0  0  0  0  0  0  0
    7.1280    2.0735    0.3455 H   0  0  0  0  0  0  0  0  0  0  0  0
    6.1644   -0.9573   -1.1589 H   0  0  0  0  0  0  0  0  0  0  0  0
    3.8566   -1.8000   -1.0608 H   0  0  0  0  0  0  0  0  0  0  0  0
    5.0031    2.4696    1.1479 H   0  0  0  0  0  0  0  0  0  0  0  0
    2.7182    1.6060    1.2836 H   0  0  0  0  0  0  0  0  0  0  0  0
    0.6307    1.1245   -0.1137 H   0  0  0  0  0  0  0  0  0  0  0  0
   -2.2062   -2.8198    0.4710 H   0  0  0  0  0  0  0  0  0  0  0  0
   -4.6542   -2.4638    0.3766 H   0  0  0  0  0  0  0  0  0  0  0  0
   -3.2732    2.8224   -0.4589 H   0  0  0  0  0  0  0  0  0  0  0  0
   -5.6944    3.2908   -0.5734 H   0  0  0  0  0  0  0  0  0  0  0  0
   -7.3384    1.4570   -0.3002 H   0  0  0  0  0  0  0  0  0  0  0  0
   -6.5678   -0.8512    0.0831 H   0  0  0  0  0  0  0  0  0  0  0  0
  1  2  1  0
  2  5  2  0
  2  3  1  0
  5  6  1  0
  3  4  2  0
  6  7  2  0
  4  7  1  0
  7  8  1  0
  8 10  1  0
  8  9  1  0
 10 11  2  0
  9 12  2  0
 11 12  1  0
 12 13  1  0
 13 14  2  0
 13 15  1  0
 14 18  1  0
 15 16  2  0
 18 17  2  0
 16 17  1  0
 16 19  1  0
 17 22  1  0
 19 20  2  0
 22 21  2  0
 20 21  1  0
  1 23  1  0
  3 24  1  0
  4 25  1  0
  5 26  1  0
  6 27  1  0
  9 28  1  0
 14 29  1  0
 18 30  1  0
 19 31  1  0
 20 32  1  0
 21 33  1  0
 22 34  1  0
M  END
