
     RDKit          3D

 22 21  0  0  0  0  0  0  0  0999 V2000
   -1.9659   -0.1549   -1.7278 O   0  0  0  0  0  0  0  0  0  0  0  0
   -1.8945   -0.0088   -0.2770 S   0  0  1  0  0  0  0  0  0  0  0  0
   -2.6649    1.0586    0.3582 O   0  0  0  0  0  0  0  0  0  0  0  0
   -2.4819   -1.5324    0.4461 C   0  0  0  0  0  0  0  0  0  0  0  0
   -0.3381    0.2186    0.1225 N   0  0  0  0  0  0  0  0  0  0  0  0
    0.8135   -0.3932   -0.5564 C   0  0  2  0  0  0  0  0  0  0  0  0
    0.7918   -1.9194   -0.5044 C   0  0  0  0  0  0  0  0  0  0  0  0
    2.1682    0.2683    0.1523 B   0  0  1  0  0  0  0  0  0  0  0  0
    2.1620    0.0259    1.6084 O   0  0  0  0  0  0  0  0  0  0  0  0
    3.3138   -0.3623   -0.5265 O   0  0  0  0  0  0  0  0  0  0  0  0
    2.1792    1.7321    0.0442 O   0  0  0  0  0  0  0  0  0  0  0  0
   -1.9390   -2.3760    0.0299 H   0  0  0  0  0  0  0  0  0  0  0  0
   -2.3389   -1.4948    1.5238 H   0  0  0  0  0  0  0  0  0  0  0  0
   -3.5426   -1.6268    0.2180 H   0  0  0  0  0  0  0  0  0  0  0  0
   -0.2013    0.3945    1.1116 H   0  0  0  0  0  0  0  0  0  0  0  0
    0.7603   -0.0853   -1.6067 H   0  0  0  0  0  0  0  0  0  0  0  0
   -0.0570   -2.3608   -1.0342 H   0  0  0  0  0  0  0  0  0  0  0  0
    1.6936   -2.3256   -0.9622 H   0  0  0  0  0  0  0  0  0  0  0  0
    0.7563   -2.2809    0.5274 H   0  0  0  0  0  0  0  0  0  0  0  0
    2.1973   -0.9191    1.7739 H   0  0  0  0  0  0  0  0  0  0  0  0
    4.1260    0.0313   -0.1952 H   0  0  0  0  0  0  0  0  0  0  0  0
    1.9206    1.9856   -0.8441 H   0  0  0  0  0  0  0  0  0  0  0  0
  1  2  2  0
  2  3  2  0
  2  4  1  0
  2  5  1  6
  5  6  1  0
  6  7  1  0
  6  8  1  0
  8  9  1  1
  8 10  1  0
  8 11  1  0
  4 12  1  0
  4 13  1  0
  4 14  1  0
  5 15  1  0
  6 16  1  6
  7 17  1  0
  7 18  1  0
  7 19  1  0
  9 20  1  0
 10 21  1  0
 11 22  1  0
M  CHG  1   8  -1
M  END
