
     RDKit          3D

 19 18  0  0  0  0  0  0  0  0999 V2000
    0.0535    1.4598   -0.1398 N   0  0  0  0  0  0  0  0  0  0  0  0
    0.0210    0.0468    0.2205 C   0  0  1  0  0  0  0  0  0  0  0  0
   -1.2240   -0.7007   -0.2705 C   0  0  0  0  0  0  0  0  0  0  0  0
   -2.5350   -0.1383    0.2608 C   0  0  0  0  0  0  0  0  0  0  0  0
    1.2893   -0.6406   -0.2820 C   0  0  0  0  0  0  0  0  0  0  0  0
    2.5726   -0.0757    0.3079 C   0  0  0  0  0  0  0  0  0  0  0  0
   -0.0736    1.5511   -1.1425 H   0  0  0  0  0  0  0  0  0  0  0  0
    0.0282   -0.0003    1.3173 H   0  0  0  0  0  0  0  0  0  0  0  0
   -1.2348   -0.6866   -1.3665 H   0  0  0  0  0  0  0  0  0  0  0  0
   -1.1393   -1.7530    0.0177 H   0  0  0  0  0  0  0  0  0  0  0  0
   -2.5560   -0.1466    1.3528 H   0  0  0  0  0  0  0  0  0  0  0  0
   -2.7000    0.8896   -0.0663 H   0  0  0  0  0  0  0  0  0  0  0  0
   -3.3849   -0.7256   -0.0881 H   0  0  0  0  0  0  0  0  0  0  0  0
    1.2186   -1.7080   -0.0546 H   0  0  0  0  0  0  0  0  0  0  0  0
    1.3216   -0.5693   -1.3755 H   0  0  0  0  0  0  0  0  0  0  0  0
    2.6757    0.9846    0.0813 H   0  0  0  0  0  0  0  0  0  0  0  0
    2.5866   -0.1839    1.3945 H   0  0  0  0  0  0  0  0  0  0  0  0
    3.4490   -0.5924   -0.0856 H   0  0  0  0  0  0  0  0  0  0  0  0
   -0.7305    1.9437    0.2794 H   0  0  0  0  0  0  0  0  0  0  0  0
  1  2  1  0
  1  7  1  0
  2  3  1  0
  2  5  1  0
  2  8  1  1
  3  4  1  0
  3  9  1  0
  3 10  1  0
  4 11  1  0
  4 12  1  0
  4 13  1  0
  5  6  1  0
  5 14  1  0
  5 15  1  0
  6 16  1  0
  6 17  1  0
  6 18  1  0
  1 19  1  0
M  END
