
     RDKit          3D

 33 36  0  0  0  0  0  0  0  0999 V2000
    0.7289   -3.5074   -0.4961 C   0  0  0  0  0  0  0  0  0  0  0  0
    1.9557   -2.8863   -0.5627 C   0  0  0  0  0  0  0  0  0  0  0  0
    0.8172   -0.7802    0.0195 C   0  0  0  0  0  0  0  0  0  0  0  0
   -0.4443   -2.7962   -0.1833 C   0  0  0  0  0  0  0  0  0  0  0  0
   -0.4311   -1.4370    0.0694 C   0  0  0  0  0  0  0  0  0  0  0  0
   -1.5290    1.1388   -1.4447 C   0  0  0  0  0  0  0  0  0  0  0  0
   -2.3928    2.1597   -1.7178 C   0  0  0  0  0  0  0  0  0  0  0  0
   -2.0715    0.4293   -0.3278 C   0  0  0  0  0  0  0  0  0  0  0  0
   -1.6740   -0.7116    0.3946 C   0  0  0  0  0  0  0  0  0  0  0  0
   -2.5043   -1.1550    1.4130 C   0  0  0  0  0  0  0  0  0  0  0  0
   -3.6966   -0.4919    1.7381 C   0  0  0  0  0  0  0  0  0  0  0  0
   -4.1014    0.6347    1.0503 C   0  0  0  0  0  0  0  0  0  0  0  0
   -3.2788    1.0802    0.0175 C   0  0  0  0  0  0  0  0  0  0  0  0
    1.9838   -1.5153   -0.2963 C   0  0  0  0  0  0  0  0  0  0  0  0
    3.0381   -0.6614   -0.2585 N   0  0  0  0  0  0  0  0  0  0  0  0
    2.5904    0.5893    0.0816 C   0  0  0  0  0  0  0  0  0  0  0  0
    1.2325    0.5564    0.2634 C   0  0  0  0  0  0  0  0  0  0  0  0
    3.4666    1.7513    0.2199 C   0  0  0  0  0  0  0  0  0  0  0  0
    3.0724    2.8517    0.5243 O   0  0  0  0  0  0  0  0  0  0  0  0
    4.7365    1.4548   -0.0257 O   0  0  0  0  0  0  0  0  0  0  0  0
   -3.4374    2.1286   -0.8405 N   0  0  0  0  0  0  0  0  0  0  0  0
    0.6586   -4.5692   -0.6926 H   0  0  0  0  0  0  0  0  0  0  0  0
    2.8570   -3.4345   -0.8035 H   0  0  0  0  0  0  0  0  0  0  0  0
   -1.3856   -3.3312   -0.1615 H   0  0  0  0  0  0  0  0  0  0  0  0
   -2.3428    2.9188   -2.4816 H   0  0  0  0  0  0  0  0  0  0  0  0
   -2.2163   -2.0295    1.9833 H   0  0  0  0  0  0  0  0  0  0  0  0
   -4.3073   -0.8731    2.5464 H   0  0  0  0  0  0  0  0  0  0  0  0
   -5.0246    1.1426    1.2989 H   0  0  0  0  0  0  0  0  0  0  0  0
    3.9969   -0.9161   -0.4326 H   0  0  0  0  0  0  0  0  0  0  0  0
    0.6132    1.3962    0.5339 H   0  0  0  0  0  0  0  0  0  0  0  0
    5.2939    2.2408    0.0766 H   0  0  0  0  0  0  0  0  0  0  0  0
   -4.2128    2.7694   -0.8443 H   0  0  0  0  0  0  0  0  0  0  0  0
   -0.6178    0.9214   -1.9774 H   0  0  0  0  0  0  0  0  0  0  0  0
 19 18  2  0
 18 20  1  0
 18 16  1  0
 16 17  2  0
 16 15  1  0
 17  3  1  0
 15 14  1  0
  7 21  1  0
  7  6  2  0
 21 13  1  0
  6  8  1  0
  3 14  2  0
  3  5  1  0
 13  8  2  0
 13 12  1  0
 14  2  1  0
  8  9  1  0
 12 11  2  0
  9  5  1  0
  9 10  2  0
  5  4  2  0
 11 10  1  0
  2  1  2  0
  4  1  1  0
  1 22  1  0
  2 23  1  0
  4 24  1  0
  6 33  1  0
  7 25  1  0
 10 26  1  0
 11 27  1  0
 12 28  1  0
 15 29  1  0
 17 30  1  0
 20 31  1  0
 21 32  1  0
M  END
