
     RDKit          3D

 66 68  0  0  0  0  0  0  0  0999 V2000
   -1.3468    2.6823    0.0213 N   0  0  0  0  0  0  0  0  0  0  0  0
   -1.8761    0.4475   -0.5246 N   0  0  0  0  0  0  0  0  0  0  0  0
   -8.1542   -5.6568    0.8691 C   0  0  0  0  0  0  0  0  0  0  0  0
    7.7778   -2.2031    0.2194 C   0  0  0  0  0  0  0  0  0  0  0  0
    7.1380   -0.0015   -0.7673 C   0  0  0  0  0  0  0  0  0  0  0  0
    5.5493   -1.2947    2.2641 O   0  0  0  0  0  0  0  0  0  0  0  0
    7.1416    0.2475    1.9967 O   0  0  0  0  0  0  0  0  0  0  0  0
   -2.8990    6.0473    0.3422 C   0  0  0  0  0  0  0  0  0  0  0  0
   -4.1959    5.6675   -0.0023 C   0  0  0  0  0  0  0  0  0  0  0  0
    2.1847   -1.5474   -1.6229 C   0  0  0  0  0  0  0  0  0  0  0  0
    2.7049    0.4957   -0.5217 C   0  0  0  0  0  0  0  0  0  0  0  0
    3.4502   -2.0278   -1.3373 C   0  0  0  0  0  0  0  0  0  0  0  0
    3.9785    0.0284   -0.2197 C   0  0  0  0  0  0  0  0  0  0  0  0
   -1.8531    5.1297    0.3882 C   0  0  0  0  0  0  0  0  0  0  0  0
   -4.5003    4.3434   -0.3187 C   0  0  0  0  0  0  0  0  0  0  0  0
   -7.1334   -4.6548    1.3910 C   0  0  0  0  0  0  0  0  0  0  0  0
   -6.3866   -3.9357    0.2754 C   0  0  0  0  0  0  0  0  0  0  0  0
   -5.3644   -2.9273    0.7850 C   0  0  0  0  0  0  0  0  0  0  0  0
   -4.6178   -2.2177   -0.3363 C   0  0  0  0  0  0  0  0  0  0  0  0
   -3.6066   -1.1978    0.1723 C   0  0  0  0  0  0  0  0  0  0  0  0
    0.3982    0.2322   -1.4973 C   0  0  0  0  0  0  0  0  0  0  0  0
   -2.8679   -0.5179   -0.9727 C   0  0  0  0  0  0  0  0  0  0  0  0
   -0.5153    0.0014   -0.2914 C   0  0  0  0  0  0  0  0  0  0  0  0
    5.5612   -1.8325   -0.4032 O   0  0  0  0  0  0  0  0  0  0  0  0
   -3.4485    2.1201   -0.5256 O   0  0  0  0  0  0  0  0  0  0  0  0
    6.3638   -0.7370    1.5773 C   0  0  0  0  0  0  0  0  0  0  0  0
    1.7859   -0.2727   -1.2257 C   0  0  0  0  0  0  0  0  0  0  0  0
    4.3627   -1.2453   -0.6296 C   0  0  0  0  0  0  0  0  0  0  0  0
   -2.1646    1.7349   -0.3339 C   0  0  0  0  0  0  0  0  0  0  0  0
   -2.1428    3.8082    0.0759 C   0  0  0  0  0  0  0  0  0  0  0  0
   -3.4482    3.4612   -0.2661 C   0  0  0  0  0  0  0  0  0  0  0  0
    6.6752   -1.1433    0.1348 C   0  0  1  0  0  0  0  0  0  0  0  0
   -8.9067   -5.1657    0.2491 H   0  0  0  0  0  0  0  0  0  0  0  0
   -7.6760   -6.4240    0.2570 H   0  0  0  0  0  0  0  0  0  0  0  0
   -8.6752   -6.1612    1.6836 H   0  0  0  0  0  0  0  0  0  0  0  0
    8.6798   -1.7880    0.6657 H   0  0  0  0  0  0  0  0  0  0  0  0
    7.4607   -3.0595    0.8146 H   0  0  0  0  0  0  0  0  0  0  0  0
    8.0269   -2.5505   -0.7831 H   0  0  0  0  0  0  0  0  0  0  0  0
    7.2848   -0.3912   -1.7751 H   0  0  0  0  0  0  0  0  0  0  0  0
    6.4376    0.8291   -0.8275 H   0  0  0  0  0  0  0  0  0  0  0  0
    8.0935    0.3944   -0.4284 H   0  0  0  0  0  0  0  0  0  0  0  0
    6.9706    0.4341    2.9329 H   0  0  0  0  0  0  0  0  0  0  0  0
   -2.7001    7.0844    0.5789 H   0  0  0  0  0  0  0  0  0  0  0  0
   -4.9813    6.4105   -0.0259 H   0  0  0  0  0  0  0  0  0  0  0  0
    1.4980   -2.1768   -2.1770 H   0  0  0  0  0  0  0  0  0  0  0  0
    2.4317    1.4921   -0.1939 H   0  0  0  0  0  0  0  0  0  0  0  0
    3.7416   -3.0187   -1.6630 H   0  0  0  0  0  0  0  0  0  0  0  0
    4.6374    0.6854    0.3295 H   0  0  0  0  0  0  0  0  0  0  0  0
   -0.8505    5.4360    0.6561 H   0  0  0  0  0  0  0  0  0  0  0  0
   -5.5018    4.0359   -0.5876 H   0  0  0  0  0  0  0  0  0  0  0  0
   -7.6355   -3.9172    2.0245 H   0  0  0  0  0  0  0  0  0  0  0  0
   -6.4131   -5.1674    2.0362 H   0  0  0  0  0  0  0  0  0  0  0  0
   -5.8825   -4.6743   -0.3577 H   0  0  0  0  0  0  0  0  0  0  0  0
   -7.1078   -3.4249   -0.3723 H   0  0  0  0  0  0  0  0  0  0  0  0
   -5.8689   -2.1848    1.4128 H   0  0  0  0  0  0  0  0  0  0  0  0
   -4.6445   -3.4360    1.4354 H   0  0  0  0  0  0  0  0  0  0  0  0
   -4.1059   -2.9600   -0.9581 H   0  0  0  0  0  0  0  0  0  0  0  0
   -5.3387   -1.7176   -0.9921 H   0  0  0  0  0  0  0  0  0  0  0  0
   -4.1175   -0.4439    0.7781 H   0  0  0  0  0  0  0  0  0  0  0  0
   -2.8839   -1.6920    0.8297 H   0  0  0  0  0  0  0  0  0  0  0  0
   -0.0211   -0.2724   -2.3713 H   0  0  0  0  0  0  0  0  0  0  0  0
    0.4187    1.3006   -1.7216 H   0  0  0  0  0  0  0  0  0  0  0  0
   -3.5754   -0.0371   -1.6490 H   0  0  0  0  0  0  0  0  0  0  0  0
   -2.3417   -1.2661   -1.5693 H   0  0  0  0  0  0  0  0  0  0  0  0
   -0.1121    0.5134    0.5835 H   0  0  0  0  0  0  0  0  0  0  0  0
   -0.5530   -1.0615   -0.0488 H   0  0  0  0  0  0  0  0  0  0  0  0
 30  1  1  0
  1 29  2  0
 29  2  1  0
  2 22  1  0
  2 23  1  0
 16  3  1  0
  3 33  1  0
  3 34  1  0
  3 35  1  0
  4 32  1  0
  4 36  1  0
  4 37  1  0
  4 38  1  0
  5 32  1  0
  5 39  1  0
  5 40  1  0
  5 41  1  0
 26  6  2  0
 26  7  1  0
  7 42  1  0
  9  8  2  0
  8 14  1  0
  8 43  1  0
  9 15  1  0
  9 44  1  0
 27 10  2  0
 10 12  1  0
 10 45  1  0
 27 11  1  0
 11 13  2  0
 11 46  1  0
 12 28  2  0
 12 47  1  0
 13 28  1  0
 13 48  1  0
 14 30  2  0
 14 49  1  0
 15 31  2  0
 15 50  1  0
 16 17  1  0
 16 51  1  0
 16 52  1  0
 18 17  1  0
 17 53  1  0
 17 54  1  0
 19 18  1  0
 18 55  1  0
 18 56  1  0
 20 19  1  0
 19 57  1  0
 19 58  1  0
 20 22  1  0
 20 59  1  0
 20 60  1  0
 23 21  1  0
 21 27  1  0
 21 61  1  0
 21 62  1  0
 22 63  1  0
 22 64  1  0
 23 65  1  0
 23 66  1  0
 28 24  1  0
 32 24  1  6
 31 25  1  0
 25 29  1  0
 32 26  1  0
 31 30  1  0
M  END
