
     RDKit          3D

 43 45  0  0  0  0  0  0  0  0999 V2000
    3.3382    0.7505   -0.5049 C   0  0  0  0  0  0  0  0  0  0  0  0
    1.9680    0.3973   -0.6895 O   0  0  0  0  0  0  0  0  0  0  0  0
    1.7079   -0.7735   -1.2367 C   0  0  0  0  0  0  0  0  0  0  0  0
    2.5684   -1.5470   -1.5856 O   0  0  0  0  0  0  0  0  0  0  0  0
    0.2380   -1.0812   -1.4246 C   0  0  2  0  0  0  0  0  0  0  0  0
   -0.0880   -0.9117   -2.9222 C   0  0  2  0  0  0  0  0  0  0  0  0
    0.0654    0.5004   -3.2449 N   0  0  0  0  0  0  0  0  0  0  0  0
    0.2021    0.7387   -4.6693 C   0  0  0  0  0  0  0  0  0  0  0  0
   -1.5631   -1.2513   -3.2378 C   0  0  0  0  0  0  0  0  0  0  0  0
   -2.2865    0.1019   -3.0930 C   0  0  0  0  0  0  0  0  0  0  0  0
   -1.1562    1.0731   -2.6795 C   0  0  1  0  0  0  0  0  0  0  0  0
   -0.9965    1.1364   -1.1601 C   0  0  0  0  0  0  0  0  0  0  0  0
   -0.7627   -0.2649   -0.6087 C   0  0  2  0  0  0  0  0  0  0  0  0
   -0.3149   -0.2380    0.7522 O   0  0  0  0  0  0  0  0  0  0  0  0
   -1.2069   -0.1303    1.7245 C   0  0  0  0  0  0  0  0  0  0  0  0
   -2.4003   -0.0789    1.5464 O   0  0  0  0  0  0  0  0  0  0  0  0
   -0.5736   -0.0783    3.0669 C   0  0  0  0  0  0  0  0  0  0  0  0
   -1.4041   -0.0298    4.1854 C   0  0  0  0  0  0  0  0  0  0  0  0
   -0.8592    0.0237    5.4581 C   0  0  0  0  0  0  0  0  0  0  0  0
    0.5199    0.0320    5.6245 C   0  0  0  0  0  0  0  0  0  0  0  0
    1.3524   -0.0128    4.5136 C   0  0  0  0  0  0  0  0  0  0  0  0
    0.8114   -0.0684    3.2384 C   0  0  0  0  0  0  0  0  0  0  0  0
    3.8534    0.0344    0.1349 H   0  0  0  0  0  0  0  0  0  0  0  0
    3.8630    0.8230   -1.4575 H   0  0  0  0  0  0  0  0  0  0  0  0
    3.3317    1.7236   -0.0230 H   0  0  0  0  0  0  0  0  0  0  0  0
    0.1164   -2.1386   -1.1686 H   0  0  0  0  0  0  0  0  0  0  0  0
    0.6059   -1.5204   -3.5043 H   0  0  0  0  0  0  0  0  0  0  0  0
    0.2909    1.8098   -4.8525 H   0  0  0  0  0  0  0  0  0  0  0  0
    1.1152    0.2638   -5.0296 H   0  0  0  0  0  0  0  0  0  0  0  0
   -0.6302    0.3637   -5.2813 H   0  0  0  0  0  0  0  0  0  0  0  0
   -1.9612   -2.0250   -2.5792 H   0  0  0  0  0  0  0  0  0  0  0  0
   -1.6446   -1.6361   -4.2545 H   0  0  0  0  0  0  0  0  0  0  0  0
   -3.0931    0.0754   -2.3583 H   0  0  0  0  0  0  0  0  0  0  0  0
   -2.7336    0.4116   -4.0381 H   0  0  0  0  0  0  0  0  0  0  0  0
   -1.3140    2.0827   -3.0630 H   0  0  0  0  0  0  0  0  0  0  0  0
   -1.8975    1.5628   -0.7138 H   0  0  0  0  0  0  0  0  0  0  0  0
   -0.1628    1.7937   -0.9128 H   0  0  0  0  0  0  0  0  0  0  0  0
   -1.7073   -0.8149   -0.6416 H   0  0  0  0  0  0  0  0  0  0  0  0
   -2.4786   -0.0349    4.0614 H   0  0  0  0  0  0  0  0  0  0  0  0
   -1.5116    0.0600    6.3203 H   0  0  0  0  0  0  0  0  0  0  0  0
    0.9451    0.0751    6.6189 H   0  0  0  0  0  0  0  0  0  0  0  0
    2.4269   -0.0038    4.6393 H   0  0  0  0  0  0  0  0  0  0  0  0
    1.4724   -0.0970    2.3834 H   0  0  0  0  0  0  0  0  0  0  0  0
  1  2  1  0
  1 23  1  0
  1 24  1  0
  1 25  1  0
  2  3  1  0
  3  4  2  0
  3  5  1  0
  5  6  1  0
  5 13  1  0
  5 26  1  1
  6  7  1  0
  6  9  1  0
  6 27  1  6
  7  8  1  0
  7 11  1  0
  8 28  1  0
  8 29  1  0
  8 30  1  0
  9 10  1  0
  9 31  1  0
  9 32  1  0
 10 11  1  0
 10 33  1  0
 10 34  1  0
 11 12  1  0
 11 35  1  6
 12 13  1  0
 12 36  1  0
 12 37  1  0
 13 14  1  0
 13 38  1  1
 14 15  1  0
 15 16  2  0
 15 17  1  0
 17 18  2  0
 17 22  1  0
 18 19  1  0
 18 39  1  0
 19 20  2  0
 19 40  1  0
 20 21  1  0
 20 41  1  0
 21 22  2  0
 21 42  1  0
 22 43  1  0
M  END
