
     RDKit          3D

 62 63  0  0  0  0  0  0  0  0999 V2000
   -6.6001   -4.0585   -1.4638 C   0  0  0  0  0  0  0  0  0  0  0  0
   -7.8504   -4.2286   -0.8819 C   0  0  0  0  0  0  0  0  0  0  0  0
   -8.4072   -3.1948   -0.1412 C   0  0  0  0  0  0  0  0  0  0  0  0
   -7.7167   -1.9998    0.0179 C   0  0  0  0  0  0  0  0  0  0  0  0
   -6.4622   -1.8170   -0.5609 C   0  0  0  0  0  0  0  0  0  0  0  0
   -5.9140   -2.8631   -1.3016 C   0  0  0  0  0  0  0  0  0  0  0  0
   -5.6925   -0.5468   -0.3506 C   0  0  0  0  0  0  0  0  0  0  0  0
   -4.7501   -0.6427    0.8744 C   0  0  1  0  0  0  0  0  0  0  0  0
   -4.0112    0.6807    0.9783 C   0  0  0  0  0  0  0  0  0  0  0  0
   -2.7970    0.7192    0.4061 N   0  0  0  0  0  0  0  0  0  0  0  0
   -4.5128    1.6587    1.5133 O   0  0  0  0  0  0  0  0  0  0  0  0
   -5.3987   -0.9142    2.1383 N   0  0  0  0  0  0  0  0  0  0  0  0
    2.5391    0.0877    0.9775 C   0  0  0  0  0  0  0  0  0  0  0  0
   -2.0994    1.9653    0.2212 C   0  0  1  0  0  0  0  0  0  0  0  0
   -0.7103    1.7168   -0.3664 C   0  0  0  0  0  0  0  0  0  0  0  0
    0.2128    0.9667    0.5861 C   0  0  0  0  0  0  0  0  0  0  0  0
    1.6108    0.7992    0.0072 C   0  0  0  0  0  0  0  0  0  0  0  0
    3.8728   -0.0058    0.4218 N   0  0  0  0  0  0  0  0  0  0  0  0
    4.8721   -0.6120    1.0795 C   0  0  0  0  0  0  0  0  0  0  0  0
    6.0307   -0.4935    0.4181 O   0  0  0  0  0  0  0  0  0  0  0  0
    4.7503   -1.2014    2.1359 O   0  0  0  0  0  0  0  0  0  0  0  0
    7.1826   -1.0995    1.0134 C   0  0  0  0  0  0  0  0  0  0  0  0
    8.3589   -0.7377    0.1578 C   0  0  0  0  0  0  0  0  0  0  0  0
    8.9124    0.5390    0.2308 C   0  0  0  0  0  0  0  0  0  0  0  0
    9.9887    0.8870   -0.5717 C   0  0  0  0  0  0  0  0  0  0  0  0
   10.5257   -0.0412   -1.4565 C   0  0  0  0  0  0  0  0  0  0  0  0
    9.9808   -1.3151   -1.5349 C   0  0  0  0  0  0  0  0  0  0  0  0
    8.9001   -1.6590   -0.7319 C   0  0  0  0  0  0  0  0  0  0  0  0
   -2.9055    2.8713   -0.7125 C   0  0  0  0  0  0  0  0  0  0  0  0
   -3.5486    2.4402   -1.6496 O   0  0  0  0  0  0  0  0  0  0  0  0
   -2.7583    4.1752   -0.4289 N   0  0  0  0  0  0  0  0  0  0  0  0
   -3.4578    5.1121   -1.1257 O   0  0  0  0  0  0  0  0  0  0  0  0
   -6.1601   -4.8566   -2.0481 H   0  0  0  0  0  0  0  0  0  0  0  0
   -8.3881   -5.1595   -1.0080 H   0  0  0  0  0  0  0  0  0  0  0  0
   -9.3826   -3.3173    0.3120 H   0  0  0  0  0  0  0  0  0  0  0  0
   -8.1653   -1.1951    0.5890 H   0  0  0  0  0  0  0  0  0  0  0  0
   -4.9404   -2.7368   -1.7613 H   0  0  0  0  0  0  0  0  0  0  0  0
   -5.1006   -0.3138   -1.2396 H   0  0  0  0  0  0  0  0  0  0  0  0
   -6.3799    0.2889   -0.1957 H   0  0  0  0  0  0  0  0  0  0  0  0
   -4.0306   -1.4463    0.6890 H   0  0  0  0  0  0  0  0  0  0  0  0
   -2.4796   -0.0848   -0.1128 H   0  0  0  0  0  0  0  0  0  0  0  0
   -6.1158   -0.2204    2.3134 H   0  0  0  0  0  0  0  0  0  0  0  0
   -5.8707   -1.8088    2.0942 H   0  0  0  0  0  0  0  0  0  0  0  0
    2.5601    0.6306    1.9279 H   0  0  0  0  0  0  0  0  0  0  0  0
    2.1532   -0.9124    1.1904 H   0  0  0  0  0  0  0  0  0  0  0  0
   -1.9786    2.4538    1.1935 H   0  0  0  0  0  0  0  0  0  0  0  0
   -0.8052    1.1752   -1.3130 H   0  0  0  0  0  0  0  0  0  0  0  0
   -0.2638    2.6844   -0.6079 H   0  0  0  0  0  0  0  0  0  0  0  0
    0.2725    1.5165    1.5307 H   0  0  0  0  0  0  0  0  0  0  0  0
   -0.2027   -0.0156    0.8279 H   0  0  0  0  0  0  0  0  0  0  0  0
    2.0245    1.7830   -0.2374 H   0  0  0  0  0  0  0  0  0  0  0  0
    1.5598    0.2373   -0.9301 H   0  0  0  0  0  0  0  0  0  0  0  0
    4.0849    0.5141   -0.4150 H   0  0  0  0  0  0  0  0  0  0  0  0
    7.3181   -0.7305    2.0322 H   0  0  0  0  0  0  0  0  0  0  0  0
    7.0577   -2.1834    1.0600 H   0  0  0  0  0  0  0  0  0  0  0  0
    8.5022    1.2640    0.9239 H   0  0  0  0  0  0  0  0  0  0  0  0
   10.4111    1.8813   -0.5057 H   0  0  0  0  0  0  0  0  0  0  0  0
   11.3688    0.2283   -2.0796 H   0  0  0  0  0  0  0  0  0  0  0  0
   10.3958   -2.0417   -2.2210 H   0  0  0  0  0  0  0  0  0  0  0  0
    8.4785   -2.6551   -0.7961 H   0  0  0  0  0  0  0  0  0  0  0  0
   -2.3607    4.5006    0.4403 H   0  0  0  0  0  0  0  0  0  0  0  0
   -2.8550    5.4519   -1.7999 H   0  0  0  0  0  0  0  0  0  0  0  0
  1  2  2  0
  1  6  1  0
  2  3  1  0
  3  4  2  0
  4  5  1  0
  5  6  2  0
  5  7  1  0
  7  8  1  0
  8  9  1  0
  8 12  1  0
  9 10  1  0
  9 11  2  0
 10 14  1  0
 13 17  1  0
 13 18  1  0
 14 15  1  0
 14 29  1  0
 15 16  1  0
 16 17  1  0
 18 19  1  0
 19 20  1  0
 19 21  2  0
 20 22  1  0
 22 23  1  0
 23 24  2  0
 23 28  1  0
 24 25  1  0
 25 26  2  0
 26 27  1  0
 27 28  2  0
 29 30  2  0
 29 31  1  0
 31 32  1  0
  1 33  1  0
  2 34  1  0
  3 35  1  0
  4 36  1  0
  6 37  1  0
  7 38  1  0
  7 39  1  0
  8 40  1  6
 10 41  1  0
 12 42  1  0
 12 43  1  0
 13 44  1  0
 13 45  1  0
 14 46  1  1
 15 47  1  0
 15 48  1  0
 16 49  1  0
 16 50  1  0
 17 51  1  0
 17 52  1  0
 18 53  1  0
 22 54  1  0
 22 55  1  0
 24 56  1  0
 25 57  1  0
 26 58  1  0
 27 59  1  0
 28 60  1  0
 31 61  1  0
 32 62  1  0
M  END
