
     RDKit          3D

 45 47  0  0  0  0  0  0  0  0999 V2000
   -3.3280    0.4399    0.0659 C   0  0  0  0  0  0  0  0  0  0  0  0
    0.2211   -0.6669    0.1264 C   0  0  0  0  0  0  0  0  0  0  0  0
    4.7504   -1.9149    0.2512 C   0  0  0  0  0  0  0  0  0  0  0  0
    5.9327    0.5566   -0.0759 C   0  0  0  0  0  0  0  0  0  0  0  0
    4.5495    0.4641   -0.0411 C   0  0  0  0  0  0  0  0  0  0  0  0
    8.2195   -0.4903    0.0038 C   0  0  1  0  0  0  0  0  0  0  0  0
   -7.9245   -0.6266    2.0155 C   0  0  0  0  0  0  0  0  0  0  0  0
   -7.5235   -1.4826    0.9069 N   0  0  0  0  0  0  0  0  0  0  0  0
   -7.1257   -0.7830   -0.5255 S   0  0  1  0  0  0  0  0  0  0  0  0
   -6.7206   -1.8626   -1.4103 O   0  0  0  0  0  0  0  0  0  0  0  0
   -8.2298    0.0863   -0.8953 O   0  0  0  0  0  0  0  0  0  0  0  0
   -5.7126    0.2482   -0.2185 C   0  0  0  0  0  0  0  0  0  0  0  0
   -5.8950    1.5982    0.0431 C   0  0  0  0  0  0  0  0  0  0  0  0
   -4.7689    2.3591    0.3178 C   0  0  0  0  0  0  0  0  0  0  0  0
   -3.5001    1.8024    0.3345 C   0  0  0  0  0  0  0  0  0  0  0  0
   -2.1104   -0.2270    0.0808 N   0  0  0  0  0  0  0  0  0  0  0  0
   -0.8315    0.2437    0.0809 C   0  0  0  0  0  0  0  0  0  0  0  0
    1.5108   -0.1421    0.1099 C   0  0  0  0  0  0  0  0  0  0  0  0
    2.5687   -1.0014    0.1628 N   0  0  0  0  0  0  0  0  0  0  0  0
    3.9353   -0.7800    0.1230 C   0  0  0  0  0  0  0  0  0  0  0  0
    6.1233   -1.8118    0.2168 C   0  0  0  0  0  0  0  0  0  0  0  0
    6.7320   -0.5688    0.0532 C   0  0  0  0  0  0  0  0  0  0  0  0
    8.7198   -1.1026   -1.0832 F   0  0  0  0  0  0  0  0  0  0  0  0
    8.6722    0.7674   -0.0191 F   0  0  0  0  0  0  0  0  0  0  0  0
    8.7894   -1.0914    1.0609 F   0  0  0  0  0  0  0  0  0  0  0  0
    1.7277    1.1750    0.0505 N   0  0  0  0  0  0  0  0  0  0  0  0
    0.6525    1.9382    0.0144 C   0  0  0  0  0  0  0  0  0  0  0  0
   -0.6107    1.5609    0.0271 N   0  0  0  0  0  0  0  0  0  0  0  0
   -4.4570   -0.3350   -0.2135 C   0  0  0  0  0  0  0  0  0  0  0  0
    0.0475   -1.7343    0.1730 H   0  0  0  0  0  0  0  0  0  0  0  0
    4.2973   -2.8903    0.3842 H   0  0  0  0  0  0  0  0  0  0  0  0
    6.3697    1.5371   -0.2081 H   0  0  0  0  0  0  0  0  0  0  0  0
    3.9550    1.3565   -0.1402 H   0  0  0  0  0  0  0  0  0  0  0  0
   -8.1906   -1.2728    2.8480 H   0  0  0  0  0  0  0  0  0  0  0  0
   -7.1363    0.0546    2.3463 H   0  0  0  0  0  0  0  0  0  0  0  0
   -8.8037   -0.0485    1.7429 H   0  0  0  0  0  0  0  0  0  0  0  0
   -6.8715   -2.2152    1.1642 H   0  0  0  0  0  0  0  0  0  0  0  0
   -6.8761    2.0504    0.0292 H   0  0  0  0  0  0  0  0  0  0  0  0
   -4.8789    3.4153    0.5245 H   0  0  0  0  0  0  0  0  0  0  0  0
   -2.6474    2.4249    0.5475 H   0  0  0  0  0  0  0  0  0  0  0  0
   -2.1849   -1.2322    0.0423 H   0  0  0  0  0  0  0  0  0  0  0  0
    2.3097   -1.9730    0.2459 H   0  0  0  0  0  0  0  0  0  0  0  0
    6.7141   -2.7128    0.3228 H   0  0  0  0  0  0  0  0  0  0  0  0
    0.8297    3.0077   -0.0314 H   0  0  0  0  0  0  0  0  0  0  0  0
   -4.3409   -1.3900   -0.4318 H   0  0  0  0  0  0  0  0  0  0  0  0
 14 13  1  0
 14 15  2  0
 13 12  2  0
 15  1  1  0
  7  8  1  0
 10  9  2  0
 12  9  1  0
 12 29  1  0
  1 29  2  0
  1 16  1  0
  9  8  1  1
  9 11  2  0
  6 24  1  6
 16 17  1  0
 21  3  2  0
 21 22  1  0
 25  6  1  0
 17  2  2  0
 17 28  1  0
  6 22  1  0
  6 23  1  0
  3 20  1  0
  2 18  1  0
 22  4  2  0
 28 27  2  0
 20 19  1  0
 20  5  2  0
 18 19  1  0
 18 26  2  0
 27 26  1  0
  4  5  1  0
  2 30  1  0
  3 31  1  0
  4 32  1  0
  5 33  1  0
  7 34  1  0
  7 35  1  0
  7 36  1  0
  8 37  1  0
 13 38  1  0
 14 39  1  0
 15 40  1  0
 16 41  1  0
 19 42  1  0
 21 43  1  0
 27 44  1  0
 29 45  1  0
M  END
