
     RDKit          3D

 52 56  0  0  0  0  0  0  0  0999 V2000
    0.6336    1.9521    0.2288 C   0  0  0  0  0  0  0  0  0  0  0  0
    1.0316    3.3238    0.1404 C   0  0  0  0  0  0  0  0  0  0  0  0
    2.3480    3.6982    0.3285 C   0  0  0  0  0  0  0  0  0  0  0  0
    0.1414    4.2814   -0.1498 O   0  0  0  0  0  0  0  0  0  0  0  0
    2.8676    1.3537    0.8486 C   0  0  0  0  0  0  0  0  0  0  0  0
    3.2550    2.6934    0.6697 C   0  0  0  0  0  0  0  0  0  0  0  0
    4.0671    0.6723    1.2173 C   0  0  0  0  0  0  0  0  0  0  0  0
    4.2287   -0.7765    1.5410 C   0  0  0  0  0  0  0  0  0  0  0  0
    3.6003   -1.6667    0.4963 C   0  0  0  0  0  0  0  0  0  0  0  0
    4.0606   -1.6436   -0.8190 C   0  0  0  0  0  0  0  0  0  0  0  0
    2.3825   -3.2536   -1.4443 C   0  0  0  0  0  0  0  0  0  0  0  0
    2.5328   -2.4947    0.8191 C   0  0  0  0  0  0  0  0  0  0  0  0
   -4.6248   -0.0844   -1.6876 C   0  0  0  0  0  0  0  0  0  0  0  0
   -3.2901    0.3346   -1.6611 C   0  0  0  0  0  0  0  0  0  0  0  0
   -2.9391   -0.6904    0.5135 C   0  0  0  0  0  0  0  0  0  0  0  0
   -1.1015    0.4399   -0.5968 N   0  0  0  0  0  0  0  0  0  0  0  0
   -5.0752   -0.7952   -0.6027 C   0  0  0  0  0  0  0  0  0  0  0  0
   -6.2209   -2.0590    0.8245 C   0  0  0  0  0  0  0  0  0  0  0  0
    1.5453    0.9903    0.6208 C   0  0  0  0  0  0  0  0  0  0  0  0
   -0.7895    1.6152   -0.0082 C   0  0  0  0  0  0  0  0  0  0  0  0
   -1.6723    2.4076    0.3347 O   0  0  0  0  0  0  0  0  0  0  0  0
    4.5784    2.7238    0.9228 N   0  0  0  0  0  0  0  0  0  0  0  0
    5.0670    1.5123    1.2464 N   0  0  0  0  0  0  0  0  0  0  0  0
    1.9074   -3.2945   -0.1382 C   0  0  0  0  0  0  0  0  0  0  0  0
    3.4549   -2.4350   -1.7809 C   0  0  0  0  0  0  0  0  0  0  0  0
   -2.4692    0.0382   -0.5868 C   0  0  0  0  0  0  0  0  0  0  0  0
   -0.2022   -0.3940   -1.3829 C   0  0  0  0  0  0  0  0  0  0  0  0
   -4.2511   -1.0896    0.4723 C   0  0  0  0  0  0  0  0  0  0  0  0
   -4.9507   -1.7803    1.4015 O   0  0  0  0  0  0  0  0  0  0  0  0
   -6.3104   -1.2965   -0.3729 O   0  0  0  0  0  0  0  0  0  0  0  0
    2.6434    4.7356    0.2387 H   0  0  0  0  0  0  0  0  0  0  0  0
   -0.7545    3.9129   -0.0198 H   0  0  0  0  0  0  0  0  0  0  0  0
    5.2940   -0.9959    1.6422 H   0  0  0  0  0  0  0  0  0  0  0  0
    3.7738   -0.9849    2.5132 H   0  0  0  0  0  0  0  0  0  0  0  0
    4.8899   -1.0003   -1.0906 H   0  0  0  0  0  0  0  0  0  0  0  0
    1.9087   -3.8614   -2.2062 H   0  0  0  0  0  0  0  0  0  0  0  0
    2.1667   -2.5090    1.8410 H   0  0  0  0  0  0  0  0  0  0  0  0
    1.0725   -5.0085    0.8609 H   0  0  0  0  0  0  0  0  0  0  0  0
    0.0059   -3.6173    0.8216 H   0  0  0  0  0  0  0  0  0  0  0  0
    0.2513   -4.5780   -0.6358 H   0  0  0  0  0  0  0  0  0  0  0  0
   -2.8945    0.8971   -2.4970 H   0  0  0  0  0  0  0  0  0  0  0  0
   -2.2923   -0.9211    1.3497 H   0  0  0  0  0  0  0  0  0  0  0  0
   -6.2973   -3.1258    0.5924 H   0  0  0  0  0  0  0  0  0  0  0  0
   -7.0123   -1.7597    1.5123 H   0  0  0  0  0  0  0  0  0  0  0  0
    1.2331   -0.0362    0.7588 H   0  0  0  0  0  0  0  0  0  0  0  0
    5.1970    3.5171    0.8939 H   0  0  0  0  0  0  0  0  0  0  0  0
    3.8140   -2.4132   -2.8020 H   0  0  0  0  0  0  0  0  0  0  0  0
    0.0852   -1.3035   -0.8536 H   0  0  0  0  0  0  0  0  0  0  0  0
   -0.7094   -0.6833   -2.3018 H   0  0  0  0  0  0  0  0  0  0  0  0
    0.6981    0.1477   -1.6559 H   0  0  0  0  0  0  0  0  0  0  0  0
    0.7481   -4.1690    0.2429 C   0  0  0  0  0  0  0  0  0  0  0  0
   -5.2693    0.1509   -2.5234 H   0  0  0  0  0  0  0  0  0  0  0  0
 27 16  1  0
 21 20  2  0
 16 20  1  0
 16 26  1  0
 20  1  1  0
 11 25  1  0
 11 24  2  0
 25 10  2  0
 14 26  1  0
 14 13  2  0
 26 15  2  0
  1 19  1  0
  1  2  2  0
 51 24  1  0
  4  2  1  0
 24 12  1  0
 13 17  1  0
 10  9  1  0
 19  5  2  0
  2  3  1  0
 15 28  1  0
 12  9  2  0
  9  8  1  0
 17 28  2  0
 17 30  1  0
 28 29  1  0
  5  6  1  0
  5  7  1  0
  3  6  2  0
 30 18  1  0
  6 22  1  0
  8  7  1  0
  7 23  2  0
 29 18  1  0
 22 23  1  0
  3 31  1  0
  4 32  1  0
  8 33  1  0
  8 34  1  0
 10 35  1  0
 11 36  1  0
 12 37  1  0
 51 38  1  0
 51 39  1  0
 51 40  1  0
 13 52  1  0
 14 41  1  0
 15 42  1  0
 18 43  1  0
 18 44  1  0
 19 45  1  0
 22 46  1  0
 25 47  1  0
 27 48  1  0
 27 49  1  0
 27 50  1  0
M  END
