
     RDKit          3D

 53 57  0  0  0  0  0  0  0  0999 V2000
    0.9329    0.1489   -0.8805 C   0  0  0  0  0  0  0  0  0  0  0  0
    0.0043    0.0694   -1.9097 C   0  0  0  0  0  0  0  0  0  0  0  0
   -1.3478   -0.1240   -1.6457 C   0  0  0  0  0  0  0  0  0  0  0  0
   -1.8108   -0.2623   -0.3337 C   0  0  0  0  0  0  0  0  0  0  0  0
   -0.8668   -0.1965    0.7008 C   0  0  0  0  0  0  0  0  0  0  0  0
    0.4733    0.0167    0.4289 C   0  0  0  0  0  0  0  0  0  0  0  0
   -3.1475   -0.4921   -0.0379 N   0  0  0  0  0  0  0  0  0  0  0  0
    0.4385    0.2573   -3.3143 C   0  0  0  0  0  0  0  0  0  0  0  0
    1.4083    0.0940    1.4748 N   0  0  0  0  0  0  0  0  0  0  0  0
    2.7730   -0.0649    1.2801 C   0  0  0  0  0  0  0  0  0  0  0  0
    3.1604   -0.1417   -0.0081 N   0  0  0  0  0  0  0  0  0  0  0  0
    2.3912    0.4051   -1.1068 C   0  0  0  0  0  0  0  0  0  0  0  0
    3.5306   -0.1601    2.2299 O   0  0  0  0  0  0  0  0  0  0  0  0
    0.9666    0.2343    2.8034 C   0  0  0  0  0  0  0  0  0  0  0  0
    0.8692    1.4963   -3.7832 C   0  0  0  0  0  0  0  0  0  0  0  0
    1.2703    1.6825   -5.0969 C   0  0  0  0  0  0  0  0  0  0  0  0
    1.2358    0.5963   -5.9497 C   0  0  0  0  0  0  0  0  0  0  0  0
    0.8207   -0.6552   -5.5386 C   0  0  0  0  0  0  0  0  0  0  0  0
    0.4295   -0.7926   -4.2207 C   0  0  0  0  0  0  0  0  0  0  0  0
    0.7791   -0.8698    3.6300 C   0  0  0  0  0  0  0  0  0  0  0  0
    0.3214   -0.7291    4.9293 C   0  0  0  0  0  0  0  0  0  0  0  0
    0.0406    0.5404    5.4108 C   0  0  0  0  0  0  0  0  0  0  0  0
    0.2128    1.6593    4.6111 C   0  0  0  0  0  0  0  0  0  0  0  0
    0.6764    1.4952    3.3163 C   0  0  0  0  0  0  0  0  0  0  0  0
    0.0345   -2.0008   -3.8036 F   0  0  0  0  0  0  0  0  0  0  0  0
    1.6177    0.7536   -7.2229 F   0  0  0  0  0  0  0  0  0  0  0  0
    0.8993    2.8734    2.3065 Cl  0  0  0  0  0  0  0  0  0  0  0  0
    1.1086   -2.4403    3.0044 Cl  0  0  0  0  0  0  0  0  0  0  0  0
   -4.0756   -0.6530   -1.1426 C   0  0  0  0  0  0  0  0  0  0  0  0
   -5.3756   -1.2712   -0.6603 C   0  0  0  0  0  0  0  0  0  0  0  0
   -5.9489   -0.4594    0.3937 N   0  0  0  0  0  0  0  0  0  0  0  0
   -5.0379   -0.3979    1.5184 C   0  0  0  0  0  0  0  0  0  0  0  0
   -3.7336    0.2394    1.0804 C   0  0  0  0  0  0  0  0  0  0  0  0
   -2.0330   -0.1225   -2.4806 H   0  0  0  0  0  0  0  0  0  0  0  0
   -1.1834   -0.3449    1.7227 H   0  0  0  0  0  0  0  0  0  0  0  0
    4.1586   -0.1929   -0.1419 H   0  0  0  0  0  0  0  0  0  0  0  0
    2.5846    1.4792   -1.2204 H   0  0  0  0  0  0  0  0  0  0  0  0
    2.7307   -0.0730   -2.0252 H   0  0  0  0  0  0  0  0  0  0  0  0
    0.8826    2.3375   -3.1022 H   0  0  0  0  0  0  0  0  0  0  0  0
    1.5980    2.6512   -5.4478 H   0  0  0  0  0  0  0  0  0  0  0  0
    0.8059   -1.4966   -6.2188 H   0  0  0  0  0  0  0  0  0  0  0  0
    0.1840   -1.5988    5.5560 H   0  0  0  0  0  0  0  0  0  0  0  0
   -0.3199    0.6594    6.4233 H   0  0  0  0  0  0  0  0  0  0  0  0
   -0.0079    2.6469    4.9904 H   0  0  0  0  0  0  0  0  0  0  0  0
   -4.2868    0.3081   -1.6352 H   0  0  0  0  0  0  0  0  0  0  0  0
   -3.6406   -1.3187   -1.8881 H   0  0  0  0  0  0  0  0  0  0  0  0
   -6.0693   -1.3221   -1.5011 H   0  0  0  0  0  0  0  0  0  0  0  0
   -5.1734   -2.3050   -0.3377 H   0  0  0  0  0  0  0  0  0  0  0  0
   -6.8326   -0.8541    0.6872 H   0  0  0  0  0  0  0  0  0  0  0  0
   -5.4741    0.2122    2.3112 H   0  0  0  0  0  0  0  0  0  0  0  0
   -4.8207   -1.3892    1.9467 H   0  0  0  0  0  0  0  0  0  0  0  0
   -3.0534    0.2456    1.9288 H   0  0  0  0  0  0  0  0  0  0  0  0
   -3.9150    1.2862    0.7979 H   0  0  0  0  0  0  0  0  0  0  0  0
  1  2  1  0
  1  6  2  0
  1 12  1  0
  2  3  2  0
  2  8  1  0
  3  4  1  0
  3 34  1  0
  4  5  2  0
  4  7  1  0
  5  6  1  0
  5 35  1  0
  6  9  1  0
  7 29  1  0
  7 33  1  0
  8 15  2  0
  8 19  1  0
  9 10  1  0
  9 14  1  0
 10 11  1  0
 10 13  2  0
 11 12  1  0
 11 36  1  0
 12 37  1  0
 12 38  1  0
 14 20  2  0
 14 24  1  0
 15 16  1  0
 15 39  1  0
 16 17  2  0
 16 40  1  0
 17 18  1  0
 17 26  1  0
 18 19  2  0
 18 41  1  0
 19 25  1  0
 20 21  1  0
 20 28  1  0
 21 22  2  0
 21 42  1  0
 22 23  1  0
 22 43  1  0
 23 24  2  0
 23 44  1  0
 24 27  1  0
 29 30  1  0
 29 45  1  0
 29 46  1  0
 30 31  1  0
 30 47  1  0
 30 48  1  0
 31 32  1  0
 31 49  1  0
 32 33  1  0
 32 50  1  0
 32 51  1  0
 33 52  1  0
 33 53  1  0
M  END
