
     RDKit          3D

101100  0  0  0  0  0  0  0  0999 V2000
   -0.6905   10.0630    1.1430 C   0  0  0  0  0  0  0  0  0  0  0  0
   -0.4982    8.7208    1.8358 C   0  0  0  0  0  0  0  0  0  0  0  0
   -0.4850    7.5513    0.8591 C   0  0  0  0  0  0  0  0  0  0  0  0
   -0.3159    6.1970    1.5363 C   0  0  0  0  0  0  0  0  0  0  0  0
   -0.2933    5.0403    0.5454 C   0  0  0  0  0  0  0  0  0  0  0  0
   -0.1550    3.6778    1.2123 C   0  0  0  0  0  0  0  0  0  0  0  0
   -0.1224    2.5452    0.1900 C   0  0  0  0  0  0  0  0  0  0  0  0
   -0.0523    1.2049    0.8957 C   0  0  0  0  0  0  0  0  0  0  0  0
   -0.0016   -0.0041   -0.0052 N   0  0  1  0  0  0  0  0  0  0  0  0
    0.0524   -1.2126    0.8965 C   0  0  0  0  0  0  0  0  0  0  0  0
    0.1186   -2.5534    0.1914 C   0  0  0  0  0  0  0  0  0  0  0  0
    0.1535   -3.6852    1.2144 C   0  0  0  0  0  0  0  0  0  0  0  0
    0.2883   -5.0485    0.5484 C   0  0  0  0  0  0  0  0  0  0  0  0
    0.3128   -6.2041    1.5405 C   0  0  0  0  0  0  0  0  0  0  0  0
    0.4803   -7.5592    0.8644 C   0  0  0  0  0  0  0  0  0  0  0  0
    0.4943   -8.7277    1.8423 C   0  0  0  0  0  0  0  0  0  0  0  0
    0.6848  -10.0707    1.1507 C   0  0  0  0  0  0  0  0  0  0  0  0
   -1.2122   -0.0570   -0.9038 C   0  0  0  0  0  0  0  0  0  0  0  0
   -2.5516   -0.1254   -0.1960 C   0  0  0  0  0  0  0  0  0  0  0  0
   -3.6852   -0.1594   -1.2172 C   0  0  0  0  0  0  0  0  0  0  0  0
   -5.0471   -0.2983   -0.5493 C   0  0  0  0  0  0  0  0  0  0  0  0
   -6.2043   -0.3216   -1.5396 C   0  0  0  0  0  0  0  0  0  0  0  0
   -7.5581   -0.4928   -0.8619 C   0  0  0  0  0  0  0  0  0  0  0  0
   -8.7281   -0.5064   -1.8380 C   0  0  0  0  0  0  0  0  0  0  0  0
  -10.0695   -0.7017   -1.1447 C   0  0  0  0  0  0  0  0  0  0  0  0
    1.2053    0.0476   -0.9091 C   0  0  0  0  0  0  0  0  0  0  0  0
    2.5472    0.1158   -0.2064 C   0  0  0  0  0  0  0  0  0  0  0  0
    3.6779    0.1502   -1.2306 C   0  0  0  0  0  0  0  0  0  0  0  0
    5.0418    0.2836   -0.5655 C   0  0  0  0  0  0  0  0  0  0  0  0
    6.1969    0.3072   -1.5581 C   0  0  0  0  0  0  0  0  0  0  0  0
    7.5525    0.4721   -0.8825 C   0  0  0  0  0  0  0  0  0  0  0  0
    8.7205    0.4864   -1.8610 C   0  0  0  0  0  0  0  0  0  0  0  0
   10.0642    0.6734   -1.1698 C   0  0  0  0  0  0  0  0  0  0  0  0
    0.1031   10.2494    0.4165 H   0  0  0  0  0  0  0  0  0  0  0  0
   -1.6402   10.0943    0.6051 H   0  0  0  0  0  0  0  0  0  0  0  0
   -0.6871   10.8888    1.8551 H   0  0  0  0  0  0  0  0  0  0  0  0
    0.4377    8.7291    2.4031 H   0  0  0  0  0  0  0  0  0  0  0  0
   -1.2962    8.5703    2.5693 H   0  0  0  0  0  0  0  0  0  0  0  0
   -1.4159    7.5532    0.2805 H   0  0  0  0  0  0  0  0  0  0  0  0
    0.3219    7.6965    0.1322 H   0  0  0  0  0  0  0  0  0  0  0  0
    0.6102    6.1931    2.1218 H   0  0  0  0  0  0  0  0  0  0  0  0
   -1.1298    6.0460    2.2538 H   0  0  0  0  0  0  0  0  0  0  0  0
   -1.2115    5.0572   -0.0519 H   0  0  0  0  0  0  0  0  0  0  0  0
    0.5310    5.1835   -0.1613 H   0  0  0  0  0  0  0  0  0  0  0  0
    0.7572    3.6523    1.8169 H   0  0  0  0  0  0  0  0  0  0  0  0
   -0.9895    3.5246    1.9040 H   0  0  0  0  0  0  0  0  0  0  0  0
   -1.0141    2.6116   -0.4374 H   0  0  0  0  0  0  0  0  0  0  0  0
    0.7379    2.6868   -0.4684 H   0  0  0  0  0  0  0  0  0  0  0  0
    0.8307    1.1562    1.5312 H   0  0  0  0  0  0  0  0  0  0  0  0
    0.9172   -1.0800    1.5457 H   0  0  0  0  0  0  0  0  0  0  0  0
   -1.1643    0.8244   -1.5417 H   0  0  0  0  0  0  0  0  0  0  0  0
    1.1548   -0.8344   -1.5460 H   0  0  0  0  0  0  0  0  0  0  0  0
   -0.7447   -2.6941   -0.4632 H   0  0  0  0  0  0  0  0  0  0  0  0
    1.0078   -2.6213   -0.4394 H   0  0  0  0  0  0  0  0  0  0  0  0
    0.9905   -3.5324    1.9031 H   0  0  0  0  0  0  0  0  0  0  0  0
   -0.7566   -3.6582    1.8223 H   0  0  0  0  0  0  0  0  0  0  0  0
   -0.5385   -5.1916   -0.1555 H   0  0  0  0  0  0  0  0  0  0  0  0
    1.2046   -5.0669   -0.0518 H   0  0  0  0  0  0  0  0  0  0  0  0
    1.1284   -6.0526    2.2560 H   0  0  0  0  0  0  0  0  0  0  0  0
   -0.6120   -6.1995    2.1280 H   0  0  0  0  0  0  0  0  0  0  0  0
   -0.3276   -7.7049    0.1388 H   0  0  0  0  0  0  0  0  0  0  0  0
    1.4105   -7.5621    0.2847 H   0  0  0  0  0  0  0  0  0  0  0  0
    1.2933   -8.5769    2.5747 H   0  0  0  0  0  0  0  0  0  0  0  0
   -0.4409   -8.7347    2.4109 H   0  0  0  0  0  0  0  0  0  0  0  0
   -0.1119  -10.2590    0.4282 H   0  0  0  0  0  0  0  0  0  0  0  0
    1.6321  -10.1020    0.6087 H   0  0  0  0  0  0  0  0  0  0  0  0
    0.6855  -10.8955    1.8641 H   0  0  0  0  0  0  0  0  0  0  0  0
   -2.6172   -1.0161    0.4329 H   0  0  0  0  0  0  0  0  0  0  0  0
   -2.6921    0.7360    0.4611 H   0  0  0  0  0  0  0  0  0  0  0  0
   -3.6609    0.7523   -1.8227 H   0  0  0  0  0  0  0  0  0  0  0  0
   -3.5321   -0.9944   -1.9084 H   0  0  0  0  0  0  0  0  0  0  0  0
   -5.0632   -1.2164    0.0481 H   0  0  0  0  0  0  0  0  0  0  0  0
   -5.1904    0.5261    0.1573 H   0  0  0  0  0  0  0  0  0  0  0  0
   -6.2019    0.6048   -2.1247 H   0  0  0  0  0  0  0  0  0  0  0  0
   -6.0529   -1.1350   -2.2577 H   0  0  0  0  0  0  0  0  0  0  0  0
   -7.5587   -1.4244   -0.2843 H   0  0  0  0  0  0  0  0  0  0  0  0
   -7.7041    0.3132   -0.1342 H   0  0  0  0  0  0  0  0  0  0  0  0
   -8.7380    0.4301   -2.4042 H   0  0  0  0  0  0  0  0  0  0  0  0
   -8.5769   -1.3032   -2.5727 H   0  0  0  0  0  0  0  0  0  0  0  0
  -10.8961   -0.6972   -1.8560 H   0  0  0  0  0  0  0  0  0  0  0  0
  -10.0995   -1.6527   -0.6091 H   0  0  0  0  0  0  0  0  0  0  0  0
  -10.2561    0.0899   -0.4161 H   0  0  0  0  0  0  0  0  0  0  0  0
    2.6154    1.0056    0.4235 H   0  0  0  0  0  0  0  0  0  0  0  0
    2.6892   -0.7468    0.4489 H   0  0  0  0  0  0  0  0  0  0  0  0
    3.6495   -0.7598   -1.8384 H   0  0  0  0  0  0  0  0  0  0  0  0
    3.5251    0.9874   -1.9191 H   0  0  0  0  0  0  0  0  0  0  0  0
    5.0615    1.1997    0.0349 H   0  0  0  0  0  0  0  0  0  0  0  0
    5.1844   -0.5435    0.1381 H   0  0  0  0  0  0  0  0  0  0  0  0
    6.1906   -0.6172   -2.1464 H   0  0  0  0  0  0  0  0  0  0  0  0
    6.0464    1.1235   -2.2730 H   0  0  0  0  0  0  0  0  0  0  0  0
    7.5569    1.4014   -0.3014 H   0  0  0  0  0  0  0  0  0  0  0  0
    7.6978   -0.3370   -0.1582 H   0  0  0  0  0  0  0  0  0  0  0  0
    8.7258   -0.4474   -2.4318 H   0  0  0  0  0  0  0  0  0  0  0  0
    8.5704    1.2874   -2.5914 H   0  0  0  0  0  0  0  0  0  0  0  0
   -0.9146    1.0719    1.5480 H   0  0  0  0  0  0  0  0  0  0  0  0
   -0.8281   -1.1625    1.5353 H   0  0  0  0  0  0  0  0  0  0  0  0
   -1.0808   -0.9211   -1.5539 H   0  0  0  0  0  0  0  0  0  0  0  0
    1.0715    0.9110   -1.5600 H   0  0  0  0  0  0  0  0  0  0  0  0
   10.0990    1.6215   -0.6294 H   0  0  0  0  0  0  0  0  0  0  0  0
   10.2497   -0.1229   -0.4460 H   0  0  0  0  0  0  0  0  0  0  0  0
   10.8889    0.6698   -1.8833 H   0  0  0  0  0  0  0  0  0  0  0  0
  1  2  1  0
  2  3  1  0
  3  4  1  0
  4  5  1  0
  5  6  1  0
  6  7  1  0
  7  8  1  0
  9  8  1  1
  8 95  1  0
  9 10  1  0
  9 18  1  0
  9 26  1  0
 10 11  1  0
 10 96  1  0
 11 12  1  0
 12 13  1  0
 13 14  1  0
 14 15  1  0
 15 16  1  0
 16 17  1  0
 18 19  1  0
 32 33  1  0
 18 97  1  0
 19 20  1  0
 20 21  1  0
 21 22  1  0
 22 23  1  0
 23 24  1  0
 24 25  1  0
 26 27  1  0
 27 28  1  0
 28 29  1  0
 29 30  1  0
 30 31  1  0
 31 32  1  0
 26 98  1  0
  1 34  1  0
  1 35  1  0
  1 36  1  0
  2 37  1  0
  2 38  1  0
  3 39  1  0
  3 40  1  0
  4 41  1  0
  4 42  1  0
  5 43  1  0
  5 44  1  0
  6 45  1  0
  6 46  1  0
  7 47  1  0
  7 48  1  0
  8 49  1  0
 10 50  1  0
 18 51  1  0
 26 52  1  0
 11 53  1  0
 11 54  1  0
 12 55  1  0
 12 56  1  0
 13 57  1  0
 13 58  1  0
 14 59  1  0
 14 60  1  0
 15 61  1  0
 15 62  1  0
 16 63  1  0
 16 64  1  0
 17 65  1  0
 17 66  1  0
 17 67  1  0
 19 68  1  0
 19 69  1  0
 20 70  1  0
 20 71  1  0
 21 72  1  0
 21 73  1  0
 22 74  1  0
 22 75  1  0
 23 76  1  0
 23 77  1  0
 24 78  1  0
 24 79  1  0
 25 80  1  0
 25 81  1  0
 25 82  1  0
 27 83  1  0
 27 84  1  0
 28 85  1  0
 28 86  1  0
 29 87  1  0
 29 88  1  0
 30 89  1  0
 30 90  1  0
 31 91  1  0
 31 92  1  0
 32 93  1  0
 32 94  1  0
 33 99  1  0
 33100  1  0
 33101  1  0
M  CHG  1   9   1
M  END
