
     RDKit          3D

 52 56  0  0  0  0  0  0  0  0999 V2000
   -4.2158    2.7028   -1.4162 C   0  0  0  0  0  0  0  0  0  0  0  0
   -2.2600   -1.9495   -0.1159 N   0  0  0  0  0  0  0  0  0  0  0  0
   -1.7858    0.1147   -0.5860 O   0  0  0  0  0  0  0  0  0  0  0  0
    0.4196    2.0042   -0.2507 S   0  0  0  0  0  0  0  0  0  0  0  0
   -4.8089    1.8720   -0.3311 C   0  0  0  0  0  0  0  0  0  0  0  0
   -0.9555   -1.7217    0.2405 N   0  0  0  0  0  0  0  0  0  0  0  0
    2.0020   -1.3609    0.9038 O   0  0  0  0  0  0  0  0  0  0  0  0
   -4.7584    0.4689   -0.1945 C   0  0  0  0  0  0  0  0  0  0  0  0
    3.7817   -4.6518   -1.0905 N   0  0  0  0  0  0  0  0  0  0  0  0
   -4.0843   -0.5289   -1.0830 C   0  0  0  0  0  0  0  0  0  0  0  0
   -5.8400    1.3896    1.4426 N   0  0  0  0  0  0  0  0  0  0  0  0
   -2.7212   -0.8511   -0.5967 C   0  0  0  0  0  0  0  0  0  0  0  0
   -5.4756    2.4140    0.6722 N   0  0  0  0  0  0  0  0  0  0  0  0
   -0.7091   -0.4909   -0.0541 C   0  0  0  0  0  0  0  0  0  0  0  0
    0.4811    0.2974    0.0998 C   0  0  0  0  0  0  0  0  0  0  0  0
    1.7104   -0.1096    0.5302 C   0  0  0  0  0  0  0  0  0  0  0  0
    2.8641   -2.1159    0.0233 C   0  0  1  0  0  0  0  0  0  0  0  0
    3.6490   -3.0989    0.8683 C   0  0  0  0  0  0  0  0  0  0  0  0
    4.5185   -3.9771   -0.0366 C   0  0  0  0  0  0  0  0  0  0  0  0
    2.9982   -3.7171   -1.8795 C   0  0  0  0  0  0  0  0  0  0  0  0
    2.0618   -2.8376   -1.0454 C   0  0  0  0  0  0  0  0  0  0  0  0
    2.6573    0.9706    0.5906 C   0  0  0  0  0  0  0  0  0  0  0  0
    3.9890    0.9481    1.0228 C   0  0  0  0  0  0  0  0  0  0  0  0
    4.7156    2.1191    1.0156 C   0  0  0  0  0  0  0  0  0  0  0  0
    4.1339    3.3215    0.5899 C   0  0  0  0  0  0  0  0  0  0  0  0
    2.8179    3.3683    0.1742 C   0  0  0  0  0  0  0  0  0  0  0  0
    2.0860    2.1839    0.1835 C   0  0  0  0  0  0  0  0  0  0  0  0
   -5.4367    0.1971    0.9766 C   0  0  0  0  0  0  0  0  0  0  0  0
   -5.7212   -1.0957    1.6533 C   0  0  0  0  0  0  0  0  0  0  0  0
   -4.5622    2.3820   -2.3998 H   0  0  0  0  0  0  0  0  0  0  0  0
   -4.4820    3.7511   -1.2918 H   0  0  0  0  0  0  0  0  0  0  0  0
   -3.1269    2.6323   -1.4228 H   0  0  0  0  0  0  0  0  0  0  0  0
   -4.6463   -1.4624   -1.1262 H   0  0  0  0  0  0  0  0  0  0  0  0
   -4.0205   -0.1534   -2.1076 H   0  0  0  0  0  0  0  0  0  0  0  0
    3.5643   -1.4278   -0.4686 H   0  0  0  0  0  0  0  0  0  0  0  0
    4.2777   -2.5712    1.5911 H   0  0  0  0  0  0  0  0  0  0  0  0
    2.9560   -3.7297    1.4344 H   0  0  0  0  0  0  0  0  0  0  0  0
    5.0404   -4.7223    0.5654 H   0  0  0  0  0  0  0  0  0  0  0  0
    5.2913   -3.3575   -0.5041 H   0  0  0  0  0  0  0  0  0  0  0  0
    3.6914   -3.0787   -2.4376 H   0  0  0  0  0  0  0  0  0  0  0  0
    2.4215   -4.2723   -2.6208 H   0  0  0  0  0  0  0  0  0  0  0  0
    1.2939   -3.4542   -0.5706 H   0  0  0  0  0  0  0  0  0  0  0  0
    1.5490   -2.1220   -1.6934 H   0  0  0  0  0  0  0  0  0  0  0  0
    4.4406    0.0263    1.3664 H   0  0  0  0  0  0  0  0  0  0  0  0
    5.7449    2.1144    1.3483 H   0  0  0  0  0  0  0  0  0  0  0  0
    4.7220    4.2295    0.5968 H   0  0  0  0  0  0  0  0  0  0  0  0
    2.3679    4.2998   -0.1425 H   0  0  0  0  0  0  0  0  0  0  0  0
   -6.4449   -1.6843    1.0874 H   0  0  0  0  0  0  0  0  0  0  0  0
   -4.8137   -1.6931    1.7416 H   0  0  0  0  0  0  0  0  0  0  0  0
   -6.1231   -0.9470    2.6545 H   0  0  0  0  0  0  0  0  0  0  0  0
   -6.3726    1.5610    2.2807 H   0  0  0  0  0  0  0  0  0  0  0  0
    3.1602   -5.3348   -0.6725 H   0  0  0  0  0  0  0  0  0  0  0  0
  5  1  1  0
  1 30  1  0
  1 31  1  0
  1 32  1  0
 12  2  2  0
  2  6  1  0
 12  3  1  0
  3 14  1  0
 15  4  1  0
  4 27  1  0
 13  5  2  0
  8  5  1  0
  6 14  2  0
 17  7  1  0
  7 16  1  0
 28  8  2  0
  8 10  1  0
 20  9  1  0
  9 19  1  0
  9 52  1  0
 10 12  1  0
 10 33  1  0
 10 34  1  0
 11 28  1  0
 11 13  1  0
 14 15  1  0
 15 16  2  0
 16 22  1  0
 21 17  1  0
 17 18  1  0
 17 35  1  6
 19 18  1  0
 18 36  1  0
 18 37  1  0
 19 38  1  0
 19 39  1  0
 20 21  1  0
 20 40  1  0
 20 41  1  0
 21 42  1  0
 21 43  1  0
 27 22  2  0
 22 23  1  0
 23 24  2  0
 23 44  1  0
 25 24  1  0
 24 45  1  0
 26 25  2  0
 25 46  1  0
 27 26  1  0
 26 47  1  0
 29 28  1  0
 29 48  1  0
 29 49  1  0
 29 50  1  0
 11 51  1  0
M  END
