
     RDKit          3D

 33 33  0  0  0  0  0  0  0  0999 V2000
    3.2746    0.3494    0.2460 C   0  0  0  0  0  0  0  0  0  0  0  0
    1.9622   -0.3171   -0.0768 C   0  0  0  0  0  0  0  0  0  0  0  0
    1.8437   -1.5201   -0.2245 O   0  0  0  0  0  0  0  0  0  0  0  0
    0.9153    0.5410   -0.1716 N   0  0  0  0  0  0  0  0  0  0  0  0
   -0.4620    0.1198   -0.2360 C   0  0  2  0  0  0  0  0  0  0  0  0
   -1.0918    0.4477   -1.6149 C   0  0  1  0  0  0  0  0  0  0  0  0
   -0.4401   -0.3542   -2.7747 C   0  0  1  0  0  0  0  0  0  0  0  0
   -1.2501    0.7781    0.9085 C   0  0  0  0  0  0  0  0  0  0  0  0
   -2.4476    0.1685   -1.6371 O   0  0  0  0  0  0  0  0  0  0  0  0
   -1.0191    1.7964   -1.9186 O   0  0  0  0  0  0  0  0  0  0  0  0
   -1.0670   -0.1010   -3.9256 F   0  0  0  0  0  0  0  0  0  0  0  0
    0.8489   -0.0544   -2.9617 F   0  0  0  0  0  0  0  0  0  0  0  0
   -0.5208   -1.6729   -2.5617 F   0  0  0  0  0  0  0  0  0  0  0  0
   -0.6880    0.3674    2.2408 C   0  0  0  0  0  0  0  0  0  0  0  0
    0.1930    1.1899    2.9374 C   0  0  0  0  0  0  0  0  0  0  0  0
    0.7441    0.7819    4.1457 C   0  0  0  0  0  0  0  0  0  0  0  0
    0.4188   -0.4587    4.6760 C   0  0  0  0  0  0  0  0  0  0  0  0
   -0.4639   -1.2858    3.9924 C   0  0  0  0  0  0  0  0  0  0  0  0
   -1.0108   -0.8736    2.7856 C   0  0  0  0  0  0  0  0  0  0  0  0
    4.0970   -0.3492    0.1177 H   0  0  0  0  0  0  0  0  0  0  0  0
    3.4496    1.2224   -0.3827 H   0  0  0  0  0  0  0  0  0  0  0  0
    3.2690    0.6912    1.2829 H   0  0  0  0  0  0  0  0  0  0  0  0
    1.0893    1.5022    0.0826 H   0  0  0  0  0  0  0  0  0  0  0  0
   -0.4804   -0.9637   -0.0940 H   0  0  0  0  0  0  0  0  0  0  0  0
   -1.2127    1.8649    0.8001 H   0  0  0  0  0  0  0  0  0  0  0  0
   -2.3004    0.4934    0.8469 H   0  0  0  0  0  0  0  0  0  0  0  0
   -2.6315   -0.6856   -1.2288 H   0  0  0  0  0  0  0  0  0  0  0  0
   -0.1092    2.1102   -1.8573 H   0  0  0  0  0  0  0  0  0  0  0  0
    0.4473    2.1657    2.5390 H   0  0  0  0  0  0  0  0  0  0  0  0
    1.4273    1.4357    4.6722 H   0  0  0  0  0  0  0  0  0  0  0  0
    0.8466   -0.7774    5.6176 H   0  0  0  0  0  0  0  0  0  0  0  0
   -0.7287   -2.2530    4.4003 H   0  0  0  0  0  0  0  0  0  0  0  0
   -1.7015   -1.5259    2.2627 H   0  0  0  0  0  0  0  0  0  0  0  0
  1  2  1  0
  1 20  1  0
  1 21  1  0
  1 22  1  0
  2  3  2  0
  2  4  1  0
  4  5  1  0
  4 23  1  0
  5  6  1  0
  5  8  1  0
  5 24  1  1
  6  7  1  0
  6  9  1  1
  6 10  1  0
  7 11  1  6
  7 12  1  0
  7 13  1  0
  8 14  1  0
  8 25  1  0
  8 26  1  0
  9 27  1  0
 10 28  1  0
 14 15  2  0
 14 19  1  0
 15 16  1  0
 15 29  1  0
 16 17  2  0
 16 30  1  0
 17 18  1  0
 17 31  1  0
 18 19  2  0
 18 32  1  0
 19 33  1  0
M  END
