
     RDKit          3D

 20 21  0  0  0  0  0  0  0  0999 V2000
    5.2145   -4.4036   -0.7981 O   0  0  0  0  0  0  0  0  0  0  0  0
    3.9121   -4.1952   -0.4873 C   0  0  0  0  0  0  0  0  0  0  0  0
    3.0396   -5.2351   -0.1218 C   0  0  0  0  0  0  0  0  0  0  0  0
    1.7320   -4.9747    0.1868 C   0  0  0  0  0  0  0  0  0  0  0  0
    1.2377   -3.6540    0.1434 C   0  0  0  0  0  0  0  0  0  0  0  0
    2.1121   -2.5957   -0.2264 C   0  0  0  0  0  0  0  0  0  0  0  0
    3.4591   -2.8931   -0.5418 C   0  0  0  0  0  0  0  0  0  0  0  0
    4.2655   -1.8682   -0.8907 O   0  0  0  0  0  0  0  0  0  0  0  0
    1.6052   -1.2724   -0.2726 C   0  0  0  0  0  0  0  0  0  0  0  0
    0.2962   -1.0183    0.0336 C   0  0  0  0  0  0  0  0  0  0  0  0
   -0.5737   -2.0669    0.4012 C   0  0  0  0  0  0  0  0  0  0  0  0
   -0.1102   -3.3517    0.4537 C   0  0  0  0  0  0  0  0  0  0  0  0
    5.4148   -5.3452   -0.8217 H   0  0  0  0  0  0  0  0  0  0  0  0
    3.4150   -6.2518   -0.0872 H   0  0  0  0  0  0  0  0  0  0  0  0
    1.0693   -5.7845    0.4646 H   0  0  0  0  0  0  0  0  0  0  0  0
    5.1384   -2.1947   -1.1392 H   0  0  0  0  0  0  0  0  0  0  0  0
    2.2548   -0.4541   -0.5523 H   0  0  0  0  0  0  0  0  0  0  0  0
   -0.0766   -0.0028   -0.0058 H   0  0  0  0  0  0  0  0  0  0  0  0
   -1.6066   -1.8495    0.6397 H   0  0  0  0  0  0  0  0  0  0  0  0
   -0.7733   -4.1620    0.7334 H   0  0  0  0  0  0  0  0  0  0  0  0
  1  2  1  0
  1 13  1  0
  2  3  2  0
  2  7  1  0
  3  4  1  0
  3 14  1  0
  4  5  2  0
  4 15  1  0
  5  6  1  0
  5 12  1  0
  6  7  2  0
  6  9  1  0
  7  8  1  0
  8 16  1  0
  9 10  2  0
  9 17  1  0
 10 11  1  0
 10 18  1  0
 11 12  2  0
 11 19  1  0
 12 20  1  0
M  END
