
     RDKit          3D

 80 83  0  0  0  0  0  0  0  0999 V2000
   -1.3587    5.7000    1.0556 N   0  0  0  0  0  0  0  0  0  0  0  0
   -1.4657    4.6276    0.1981 C   0  0  0  0  0  0  0  0  0  0  0  0
   -2.2838    4.6940   -0.7883 N   0  0  0  0  0  0  0  0  0  0  0  0
   -0.5860    3.6150    0.4819 N   0  0  0  0  0  0  0  0  0  0  0  0
   -0.6689    2.3136   -0.1300 C   0  0  1  0  0  0  0  0  0  0  0  0
    0.6835    1.6121   -0.0848 C   0  0  1  0  0  0  0  0  0  0  0  0
    0.5700    0.2530   -0.7663 C   0  0  0  0  0  0  0  0  0  0  0  0
    1.6184    2.4385   -0.7509 O   0  0  0  0  0  0  0  0  0  0  0  0
    2.9420    2.2693   -0.5496 C   0  0  0  0  0  0  0  0  0  0  0  0
    3.5089    1.3375    0.3170 C   0  0  0  0  0  0  0  0  0  0  0  0
    4.8888    1.2728    0.4587 C   0  0  0  0  0  0  0  0  0  0  0  0
    5.7277    2.1045   -0.2706 C   0  0  0  0  0  0  0  0  0  0  0  0
    5.1532    3.0158   -1.1564 C   0  0  0  0  0  0  0  0  0  0  0  0
    3.7800    3.1107   -1.2825 C   0  0  0  0  0  0  0  0  0  0  0  0
    7.1293    1.9973   -0.1568 N   0  0  0  0  0  0  0  0  0  0  0  0
    7.9573    2.9308    0.4324 C   0  0  0  0  0  0  0  0  0  0  0  0
    9.2159    2.7653    0.6132 N   0  0  0  0  0  0  0  0  0  0  0  0
    7.3533    4.0769    0.8733 N   0  0  0  0  0  0  0  0  0  0  0  0
   -1.7215    1.4226    0.5338 C   0  0  0  0  0  0  0  0  0  0  0  0
   -1.8287    0.0269   -0.0897 C   0  0  2  0  0  0  0  0  0  0  0  0
   -2.7838   -0.8149    0.5920 N   0  0  0  0  0  0  0  0  0  0  0  0
   -4.1492   -0.5838    0.5065 C   0  0  0  0  0  0  0  0  0  0  0  0
   -4.9906   -1.0375    1.5298 C   0  0  0  0  0  0  0  0  0  0  0  0
   -6.3603   -0.8857    1.4548 C   0  0  0  0  0  0  0  0  0  0  0  0
   -6.9689   -0.2658    0.3582 C   0  0  0  0  0  0  0  0  0  0  0  0
   -6.1386    0.1949   -0.6611 C   0  0  0  0  0  0  0  0  0  0  0  0
   -4.7588    0.0391   -0.5828 C   0  0  0  0  0  0  0  0  0  0  0  0
   -8.3590   -0.1495    0.3851 N   0  0  0  0  0  0  0  0  0  0  0  0
   -9.2135    0.3914   -0.5398 C   0  0  0  0  0  0  0  0  0  0  0  0
   -8.8058    0.8356   -1.6693 N   0  0  0  0  0  0  0  0  0  0  0  0
  -10.5307    0.3321   -0.1258 N   0  0  0  0  0  0  0  0  0  0  0  0
   -0.4560   -0.6368   -0.0716 C   0  0  1  0  0  0  0  0  0  0  0  0
   -0.5715   -1.8810   -0.7297 O   0  0  0  0  0  0  0  0  0  0  0  0
    0.3717   -2.8366   -0.5411 C   0  0  0  0  0  0  0  0  0  0  0  0
    0.2269   -3.9988   -1.2986 C   0  0  0  0  0  0  0  0  0  0  0  0
    1.1221   -5.0399   -1.1666 C   0  0  0  0  0  0  0  0  0  0  0  0
    1.4419   -2.7523    0.3394 C   0  0  0  0  0  0  0  0  0  0  0  0
    2.3454   -3.8033    0.4735 C   0  0  0  0  0  0  0  0  0  0  0  0
    2.2017   -4.9670   -0.2770 C   0  0  0  0  0  0  0  0  0  0  0  0
    3.0549   -6.0659   -0.2274 N   0  0  0  0  0  0  0  0  0  0  0  0
    4.1342   -6.3030    0.5875 C   0  0  0  0  0  0  0  0  0  0  0  0
    4.7313   -7.5169    0.3149 N   0  0  0  0  0  0  0  0  0  0  0  0
    4.4760   -5.4934    1.5174 N   0  0  0  0  0  0  0  0  0  0  0  0
   -1.1364    5.4959    2.0172 H   0  0  0  0  0  0  0  0  0  0  0  0
   -2.1220    6.3518    0.9731 H   0  0  0  0  0  0  0  0  0  0  0  0
   -2.2219    3.8889   -1.3970 H   0  0  0  0  0  0  0  0  0  0  0  0
   -0.1355    3.6459    1.3844 H   0  0  0  0  0  0  0  0  0  0  0  0
   -0.9239    2.4438   -1.1869 H   0  0  0  0  0  0  0  0  0  0  0  0
    0.9725    1.4882    0.9688 H   0  0  0  0  0  0  0  0  0  0  0  0
    0.2664    0.4034   -1.8074 H   0  0  0  0  0  0  0  0  0  0  0  0
    1.5409   -0.2468   -0.7930 H   0  0  0  0  0  0  0  0  0  0  0  0
    2.9041    0.6622    0.9062 H   0  0  0  0  0  0  0  0  0  0  0  0
    5.3142    0.5549    1.1490 H   0  0  0  0  0  0  0  0  0  0  0  0
    5.7876    3.6509   -1.7626 H   0  0  0  0  0  0  0  0  0  0  0  0
    3.3458    3.8285   -1.9672 H   0  0  0  0  0  0  0  0  0  0  0  0
    7.5011    1.0604   -0.1817 H   0  0  0  0  0  0  0  0  0  0  0  0
    9.5172    1.8603    0.2719 H   0  0  0  0  0  0  0  0  0  0  0  0
    6.4776    4.3595    0.4679 H   0  0  0  0  0  0  0  0  0  0  0  0
    7.9854    4.8434    1.0328 H   0  0  0  0  0  0  0  0  0  0  0  0
   -1.4824    1.3196    1.5985 H   0  0  0  0  0  0  0  0  0  0  0  0
   -2.6913    1.9217    0.4796 H   0  0  0  0  0  0  0  0  0  0  0  0
   -2.1309    0.1245   -1.1372 H   0  0  0  0  0  0  0  0  0  0  0  0
   -2.4874   -1.0606    1.5264 H   0  0  0  0  0  0  0  0  0  0  0  0
   -4.5629   -1.5186    2.4020 H   0  0  0  0  0  0  0  0  0  0  0  0
   -6.9694   -1.2526    2.2736 H   0  0  0  0  0  0  0  0  0  0  0  0
   -6.5693    0.6746   -1.5251 H   0  0  0  0  0  0  0  0  0  0  0  0
   -4.1678    0.4131   -1.4088 H   0  0  0  0  0  0  0  0  0  0  0  0
   -8.7941   -0.5692    1.1901 H   0  0  0  0  0  0  0  0  0  0  0  0
   -9.5819    1.2200   -2.1956 H   0  0  0  0  0  0  0  0  0  0  0  0
  -10.6982    0.4316    0.8643 H   0  0  0  0  0  0  0  0  0  0  0  0
  -11.1631    0.9058   -0.6610 H   0  0  0  0  0  0  0  0  0  0  0  0
   -0.1711   -0.7875    0.9801 H   0  0  0  0  0  0  0  0  0  0  0  0
   -0.5994   -4.0857   -1.9933 H   0  0  0  0  0  0  0  0  0  0  0  0
    0.9799   -5.9304   -1.7686 H   0  0  0  0  0  0  0  0  0  0  0  0
    1.6073   -1.8750    0.9511 H   0  0  0  0  0  0  0  0  0  0  0  0
    3.1608   -3.7133    1.1721 H   0  0  0  0  0  0  0  0  0  0  0  0
    2.7987   -6.8198   -0.8445 H   0  0  0  0  0  0  0  0  0  0  0  0
    4.7179   -7.8267   -0.6452 H   0  0  0  0  0  0  0  0  0  0  0  0
    5.6417   -7.6412    0.7281 H   0  0  0  0  0  0  0  0  0  0  0  0
    5.3127   -5.8253    1.9830 H   0  0  0  0  0  0  0  0  0  0  0  0
  3  2  2  0
  1  2  1  0
  2  4  1  0
 13 14  2  0
 13 12  1  0
 14  9  1  0
 17 16  2  0
 18 16  1  0
 16 15  1  0
 15 12  1  0
 12 11  2  0
  9  8  1  0
  9 10  2  0
  4  5  1  0
  8  6  1  0
  5  6  1  0
  5 19  1  0
 11 10  1  0
  6  7  1  0
 19 20  1  0
  7 32  1  0
 20 32  1  0
 20 21  1  0
 26 27  2  0
 26 25  1  0
 28 25  1  0
 28 29  1  0
 32 33  1  0
 27 22  1  0
 25 24  2  0
 30 29  2  0
 22 21  1  0
 22 23  2  0
 24 23  1  0
 33 34  1  0
 29 31  1  0
 34 37  1  0
 34 35  2  0
 37 38  2  0
 35 36  1  0
 38 39  1  0
 36 39  2  0
 39 40  1  0
 40 41  1  0
 43 41  2  0
 41 42  1  0
  1 44  1  0
  1 45  1  0
  3 46  1  0
  4 47  1  0
  5 48  1  6
  6 49  1  1
  7 50  1  0
  7 51  1  0
 10 52  1  0
 11 53  1  0
 13 54  1  0
 14 55  1  0
 15 56  1  0
 17 57  1  0
 18 58  1  0
 18 59  1  0
 19 60  1  0
 19 61  1  0
 20 62  1  6
 21 63  1  0
 23 64  1  0
 24 65  1  0
 26 66  1  0
 27 67  1  0
 28 68  1  0
 30 69  1  0
 31 70  1  0
 31 71  1  0
 32 72  1  1
 35 73  1  0
 36 74  1  0
 37 75  1  0
 38 76  1  0
 40 77  1  0
 42 78  1  0
 42 79  1  0
 43 80  1  0
M  END
