
     RDKit          3D

 28 29  0  0  0  0  0  0  0  0999 V2000
    1.1609    0.3963    0.2964 N   0  0  0  0  0  0  0  0  0  0  0  0
   -0.1902    0.8967    0.4791 C   0  0  1  0  0  0  0  0  0  0  0  0
   -2.5998   -1.4107    0.1080 C   0  0  0  0  0  0  0  0  0  0  0  0
    1.4078   -0.7251   -0.4793 C   0  0  0  0  0  0  0  0  0  0  0  0
    3.8143   -0.5246    0.0980 C   0  0  0  0  0  0  0  0  0  0  0  0
    3.4658    0.6293    0.8893 C   0  0  0  0  0  0  0  0  0  0  0  0
   -3.7403   -1.3845   -0.5694 O   0  0  0  0  0  0  0  0  0  0  0  0
   -1.9459   -2.3993    0.2935 O   0  0  0  0  0  0  0  0  0  0  0  0
   -2.2864   -0.0455    0.6957 C   0  0  2  0  0  0  0  0  0  0  0  0
   -2.4073    1.1551   -0.2614 C   0  0  1  0  0  0  0  0  0  0  0  0
   -2.6791    2.3367    0.4416 O   0  0  0  0  0  0  0  0  0  0  0  0
   -0.9750    1.2370   -0.7884 C   0  0  1  0  0  0  0  0  0  0  0  0
   -0.5612    2.4803   -1.2594 O   0  0  0  0  0  0  0  0  0  0  0  0
   -0.9645   -0.0268    1.1937 O   0  0  0  0  0  0  0  0  0  0  0  0
    0.5445   -1.3267   -1.0766 O   0  0  0  0  0  0  0  0  0  0  0  0
    2.1853    1.0230    0.9542 C   0  0  0  0  0  0  0  0  0  0  0  0
    2.7234   -1.1077   -0.5275 N   0  0  0  0  0  0  0  0  0  0  0  0
    4.9301   -0.9879   -0.0432 O   0  0  0  0  0  0  0  0  0  0  0  0
   -0.0715    1.8170    1.0606 H   0  0  0  0  0  0  0  0  0  0  0  0
    4.2314    1.1642    1.4290 H   0  0  0  0  0  0  0  0  0  0  0  0
   -3.9687   -2.2763   -0.8737 H   0  0  0  0  0  0  0  0  0  0  0  0
   -2.9889    0.0815    1.5297 H   0  0  0  0  0  0  0  0  0  0  0  0
   -3.1351    0.9851   -1.0599 H   0  0  0  0  0  0  0  0  0  0  0  0
   -3.5865    2.3017    0.7608 H   0  0  0  0  0  0  0  0  0  0  0  0
   -0.8515    0.4539   -1.5399 H   0  0  0  0  0  0  0  0  0  0  0  0
   -0.8645    2.5835   -2.1664 H   0  0  0  0  0  0  0  0  0  0  0  0
    1.8979    1.8813    1.5447 H   0  0  0  0  0  0  0  0  0  0  0  0
    2.9068   -1.9274   -1.0934 H   0  0  0  0  0  0  0  0  0  0  0  0
 15  4  2  0
 17  4  1  0
 17  5  1  0
  4  1  1  0
 18  5  2  0
  5  6  1  0
  1  2  1  0
  1 16  1  0
 13 12  1  0
  2 12  1  0
  2 14  1  0
 11 10  1  0
  6 16  2  0
 12 10  1  0
 14  9  1  0
 10  9  1  0
  9  3  1  0
  3  8  2  0
  3  7  1  0
  2 19  1  1
  6 20  1  0
  7 21  1  0
  9 22  1  1
 10 23  1  6
 11 24  1  0
 12 25  1  6
 13 26  1  0
 16 27  1  0
 17 28  1  0
M  END
