
     RDKit          3D

 97100  0  0  0  0  0  0  0  0999 V2000
   -1.4284    7.3458   -2.0790 C   0  0  0  0  0  0  0  0  0  0  0  0
   -1.4093    6.5450   -3.2130 C   0  0  0  0  0  0  0  0  0  0  0  0
   -1.7924    6.7937   -0.8567 C   0  0  0  0  0  0  0  0  0  0  0  0
   -1.7523    5.2016   -3.1236 C   0  0  0  0  0  0  0  0  0  0  0  0
   -2.1359    5.4516   -0.7733 C   0  0  0  0  0  0  0  0  0  0  0  0
   -0.1742   -2.5497   -2.8102 C   0  0  0  0  0  0  0  0  0  0  0  0
    0.7251   -3.5360   -0.8090 C   0  0  0  0  0  0  0  0  0  0  0  0
   -1.4804   -4.1852   -1.5812 C   0  0  0  0  0  0  0  0  0  0  0  0
   -2.1214    4.6379   -1.9050 C   0  0  0  0  0  0  0  0  0  0  0  0
    0.8565   -2.6591   -1.8824 C   0  0  0  0  0  0  0  0  0  0  0  0
   -1.3121   -3.3148   -2.6396 C   0  0  0  0  0  0  0  0  0  0  0  0
   -0.4335   -4.2710   -0.6820 C   0  0  0  0  0  0  0  0  0  0  0  0
   -3.0206    0.7645    0.7147 C   0  0  0  0  0  0  0  0  0  0  0  0
   -2.5000   -1.4267    2.7708 C   0  0  0  0  0  0  0  0  0  0  0  0
   -0.3736    0.0664   -0.6376 C   0  0  0  0  0  0  0  0  0  0  0  0
   -4.7068   -0.6808   -0.1188 C   0  0  0  0  0  0  0  0  0  0  0  0
    5.6830    0.5579   -0.5314 C   0  0  0  0  0  0  0  0  0  0  0  0
   -3.5500   -0.5996   -1.1062 C   0  0  0  0  0  0  0  0  0  0  0  0
    5.3483   -0.5542    1.5327 C   0  0  0  0  0  0  0  0  0  0  0  0
    6.4707   -0.0101    0.6416 C   0  0  2  0  0  0  0  0  0  0  0  0
    4.4952   -0.4084   -0.6733 C   0  0  2  0  0  0  0  0  0  0  0  0
   -4.0797   -0.2502    1.2103 C   0  0  2  0  0  0  0  0  0  0  0  0
   -1.6771   -2.6876    2.8783 C   0  0  0  0  0  0  0  0  0  0  0  0
    9.9954    1.1098    3.7975 C   0  0  0  0  0  0  0  0  0  0  0  0
   -6.7023    0.2923    4.0572 C   0  0  0  0  0  0  0  0  0  0  0  0
   -6.8399   -1.4282    2.2481 C   0  0  0  0  0  0  0  0  0  0  0  0
   -2.4554    3.1768   -1.7945 C   0  0  0  0  0  0  0  0  0  0  0  0
    2.0731   -1.7856   -1.9810 C   0  0  0  0  0  0  0  0  0  0  0  0
   -5.0309    0.3839    2.2214 C   0  0  0  0  0  0  0  0  0  0  0  0
    8.9729    1.6155    2.7886 C   0  0  0  0  0  0  0  0  0  0  0  0
   -1.2576    2.3754   -1.2857 C   0  0  0  0  0  0  0  0  0  0  0  0
   -1.5378    0.8676   -1.2484 C   0  0  2  0  0  0  0  0  0  0  0  0
    3.1969    0.3214   -1.0140 C   0  0  2  0  0  0  0  0  0  0  0  0
   -5.9005   -0.5494    3.0670 C   0  0  1  0  0  0  0  0  0  0  0  0
    1.9708   -0.5994   -1.0073 C   0  0  1  0  0  0  0  0  0  0  0  0
    4.3772   -1.1216    0.6083 N   0  0  0  0  0  0  0  0  0  0  0  0
   -2.7626    0.4991   -0.5874 N   0  0  0  0  0  0  0  0  0  0  0  0
    0.7890    0.1804   -1.3026 N   0  0  0  0  0  0  0  0  0  0  0  0
   -2.5101    1.6447    1.3760 O   0  0  0  0  0  0  0  0  0  0  0  0
   -2.3880   -0.5115    3.5690 O   0  0  0  0  0  0  0  0  0  0  0  0
   -0.5231   -0.6134    0.3607 O   0  0  0  0  0  0  0  0  0  0  0  0
    3.3137    1.0318   -2.2296 O   0  0  0  0  0  0  0  0  0  0  0  0
    7.2785    0.9754    1.2259 O   0  0  0  0  0  0  0  0  0  0  0  0
   -2.3057   -3.2023   -3.5336 F   0  0  0  0  0  0  0  0  0  0  0  0
   -0.5600   -5.1083    0.3579 F   0  0  0  0  0  0  0  0  0  0  0  0
   -1.1642    8.3933   -2.1467 H   0  0  0  0  0  0  0  0  0  0  0  0
   -1.1293    6.9663   -4.1701 H   0  0  0  0  0  0  0  0  0  0  0  0
   -1.8113    7.4118    0.0320 H   0  0  0  0  0  0  0  0  0  0  0  0
   -1.7366    4.5824   -4.0133 H   0  0  0  0  0  0  0  0  0  0  0  0
   -2.4220    5.0283    0.1832 H   0  0  0  0  0  0  0  0  0  0  0  0
   -0.0954   -1.8750   -3.6535 H   0  0  0  0  0  0  0  0  0  0  0  0
    1.5102   -3.6312   -0.0690 H   0  0  0  0  0  0  0  0  0  0  0  0
   -2.3801   -4.7749   -1.4658 H   0  0  0  0  0  0  0  0  0  0  0  0
   -5.4891    0.0260   -0.3990 H   0  0  0  0  0  0  0  0  0  0  0  0
   -5.1537   -1.6735   -0.0903 H   0  0  0  0  0  0  0  0  0  0  0  0
    5.3374    1.5633   -0.2714 H   0  0  0  0  0  0  0  0  0  0  0  0
    6.2731    0.6345   -1.4439 H   0  0  0  0  0  0  0  0  0  0  0  0
   -2.9643   -1.5249   -1.1343 H   0  0  0  0  0  0  0  0  0  0  0  0
   -3.8848   -0.3895   -2.1226 H   0  0  0  0  0  0  0  0  0  0  0  0
    5.6727   -1.3082    2.2503 H   0  0  0  0  0  0  0  0  0  0  0  0
    4.9094    0.2744    2.1007 H   0  0  0  0  0  0  0  0  0  0  0  0
    7.0862   -0.8556    0.2960 H   0  0  0  0  0  0  0  0  0  0  0  0
    4.7050   -1.1322   -1.4691 H   0  0  0  0  0  0  0  0  0  0  0  0
   -0.6919   -2.4914    2.4536 H   0  0  0  0  0  0  0  0  0  0  0  0
   -1.5475   -2.9630    3.9229 H   0  0  0  0  0  0  0  0  0  0  0  0
   -2.1051   -3.5331    2.3429 H   0  0  0  0  0  0  0  0  0  0  0  0
   10.5356    1.9368    4.2575 H   0  0  0  0  0  0  0  0  0  0  0  0
    9.5170    0.5422    4.5975 H   0  0  0  0  0  0  0  0  0  0  0  0
   10.7311    0.4568    3.3248 H   0  0  0  0  0  0  0  0  0  0  0  0
   -7.2995   -0.3387    4.7172 H   0  0  0  0  0  0  0  0  0  0  0  0
   -6.0493    0.9032    4.6825 H   0  0  0  0  0  0  0  0  0  0  0  0
   -7.3867    0.9660    3.5347 H   0  0  0  0  0  0  0  0  0  0  0  0
   -7.4710   -0.8256    1.5902 H   0  0  0  0  0  0  0  0  0  0  0  0
   -6.3029   -2.1467    1.6298 H   0  0  0  0  0  0  0  0  0  0  0  0
   -7.4990   -2.0008    2.9029 H   0  0  0  0  0  0  0  0  0  0  0  0
   -3.3005    3.0429   -1.1168 H   0  0  0  0  0  0  0  0  0  0  0  0
   -2.7642    2.7906   -2.7700 H   0  0  0  0  0  0  0  0  0  0  0  0
    2.9626   -2.3757   -1.7514 H   0  0  0  0  0  0  0  0  0  0  0  0
    2.1881   -1.4227   -3.0057 H   0  0  0  0  0  0  0  0  0  0  0  0
   -4.4441    1.0009    2.9032 H   0  0  0  0  0  0  0  0  0  0  0  0
   -5.6802    1.0742    1.6708 H   0  0  0  0  0  0  0  0  0  0  0  0
    8.2785    2.3032    3.2787 H   0  0  0  0  0  0  0  0  0  0  0  0
    9.4777    2.1810    2.0011 H   0  0  0  0  0  0  0  0  0  0  0  0
   -0.4154    2.5464   -1.9604 H   0  0  0  0  0  0  0  0  0  0  0  0
   -0.9545    2.7382   -0.3041 H   0  0  0  0  0  0  0  0  0  0  0  0
    8.8864   -0.2376    1.6930 H   0  0  0  0  0  0  0  0  0  0  0  0
    7.6765   -0.0858    2.9655 H   0  0  0  0  0  0  0  0  0  0  0  0
   -1.6478    0.5424   -2.2890 H   0  0  0  0  0  0  0  0  0  0  0  0
    3.0207    1.0783   -0.2417 H   0  0  0  0  0  0  0  0  0  0  0  0
   -5.2394   -1.2019    3.6452 H   0  0  0  0  0  0  0  0  0  0  0  0
    1.8686   -0.9874    0.0056 H   0  0  0  0  0  0  0  0  0  0  0  0
    4.5739   -2.1020    0.4704 H   0  0  0  0  0  0  0  0  0  0  0  0
    0.8195    0.7467   -2.1368 H   0  0  0  0  0  0  0  0  0  0  0  0
    3.6618    0.4410   -2.9060 H   0  0  0  0  0  0  0  0  0  0  0  0
   -3.3529   -1.4087    1.7235 N   0  0  0  0  0  0  0  0  0  0  0  0
    8.1948    0.4706    2.1729 C   0  0  0  0  0  0  0  0  0  0  0  0
   -3.2951   -2.1971    1.0991 H   0  0  0  0  0  0  0  0  0  0  0  0
  1  3  2  0
  1  2  1  0
  1 46  1  0
  2  4  2  0
  2 47  1  0
  3  5  1  0
  3 48  1  0
  4  9  1  0
  4 49  1  0
  5  9  2  0
  5 50  1  0
 11  6  2  0
  6 10  1  0
  6 51  1  0
 12  7  1  0
 10  7  2  0
  7 52  1  0
 11  8  1  0
  8 12  2  0
  8 53  1  0
  9 27  1  0
 10 28  1  0
 44 11  1  0
 12 45  1  0
 37 13  1  0
 13 39  2  0
 13 22  1  0
 40 14  2  0
 23 14  1  0
 14 95  1  0
 32 15  1  0
 41 15  2  0
 15 38  1  0
 16 18  1  0
 16 22  1  0
 16 54  1  0
 16 55  1  0
 17 20  1  0
 17 21  1  0
 17 56  1  0
 17 57  1  0
 18 37  1  0
 18 58  1  0
 18 59  1  0
 20 19  1  0
 19 36  1  0
 19 60  1  0
 19 61  1  0
 20 43  1  0
 20 62  1  6
 21 33  1  0
 21 36  1  0
 21 63  1  6
 22 95  1  1
 22 29  1  0
 23 64  1  0
 23 65  1  0
 23 66  1  0
 30 24  1  0
 24 67  1  0
 24 68  1  0
 24 69  1  0
 34 25  1  0
 25 70  1  0
 25 71  1  0
 25 72  1  0
 26 34  1  0
 26 73  1  0
 26 74  1  0
 26 75  1  0
 27 31  1  0
 27 76  1  0
 27 77  1  0
 35 28  1  0
 28 78  1  0
 28 79  1  0
 29 34  1  0
 29 80  1  0
 29 81  1  0
 96 30  1  0
 30 82  1  0
 30 83  1  0
 31 32  1  0
 31 84  1  0
 31 85  1  0
 96 43  1  0
 96 86  1  0
 96 87  1  0
 32 37  1  0
 32 88  1  6
 35 33  1  0
 33 42  1  0
 33 89  1  1
 34 90  1  1
 38 35  1  0
 35 91  1  1
 36 92  1  0
 95 97  1  0
 38 93  1  0
 42 94  1  0
M  END
