
     RDKit          3D

 83 85  0  0  0  0  0  0  0  0999 V2000
   -4.5774    1.0201   -1.5989 C   0  0  0  0  0  0  0  0  0  0  0  0
   -3.5595    0.7249   -2.5009 C   0  0  0  0  0  0  0  0  0  0  0  0
   -2.4235    0.0779   -2.0274 C   0  0  0  0  0  0  0  0  0  0  0  0
   -2.2992   -0.2779   -0.6865 C   0  0  0  0  0  0  0  0  0  0  0  0
   -3.3392    0.0009    0.1931 C   0  0  0  0  0  0  0  0  0  0  0  0
   -4.4682    0.6680   -0.2597 C   0  0  0  0  0  0  0  0  0  0  0  0
   -5.6212    0.8959    0.6731 C   0  0  0  0  0  0  0  0  0  0  0  0
   -5.7948    2.1380    1.1528 N   0  0  0  0  0  0  0  0  0  0  0  0
   -6.3605   -0.0417    0.9469 O   0  0  0  0  0  0  0  0  0  0  0  0
   -6.9270    2.4089    2.0271 C   0  0  0  0  0  0  0  0  0  0  0  0
   -6.6556    2.0725    3.4882 C   0  0  0  0  0  0  0  0  0  0  0  0
   -7.8465    2.4240    4.3684 C   0  0  0  0  0  0  0  0  0  0  0  0
   -4.8574    3.2310    0.9454 C   0  0  0  0  0  0  0  0  0  0  0  0
   -5.3092    4.2373   -0.1043 C   0  0  0  0  0  0  0  0  0  0  0  0
   -4.3343    5.4018   -0.2076 C   0  0  0  0  0  0  0  0  0  0  0  0
   -1.1021   -1.0006   -0.1484 C   0  0  0  0  0  0  0  0  0  0  0  0
    0.0443   -0.8182   -0.8266 N   0  0  0  0  0  0  0  0  0  0  0  0
   -1.1880   -1.6900    0.8569 O   0  0  0  0  0  0  0  0  0  0  0  0
    1.2841   -1.4988   -0.5295 C   0  0  2  0  0  0  0  0  0  0  0  0
    2.4238   -0.4698   -0.5433 C   0  0  2  0  0  0  0  0  0  0  0  0
    1.5013   -2.6672   -1.5083 C   0  0  0  0  0  0  0  0  0  0  0  0
    2.5007    0.2039   -1.7847 O   0  0  0  0  0  0  0  0  0  0  0  0
    3.7637   -1.0602   -0.1292 C   0  0  0  0  0  0  0  0  0  0  0  0
    4.7587   -0.0161    0.0017 N   0  0  0  0  0  0  0  0  0  0  0  0
    6.0472   -0.5213    0.4243 C   0  0  0  0  0  0  0  0  0  0  0  0
    7.0724    0.5736    0.5681 C   0  0  0  0  0  0  0  0  0  0  0  0
    0.3625   -3.6421   -1.4568 C   0  0  0  0  0  0  0  0  0  0  0  0
    0.3368   -4.6270   -0.4738 C   0  0  0  0  0  0  0  0  0  0  0  0
   -0.7492   -5.4743   -0.4030 C   0  0  0  0  0  0  0  0  0  0  0  0
   -1.8227   -5.3927   -1.2698 C   0  0  0  0  0  0  0  0  0  0  0  0
   -1.7629   -4.4070   -2.2348 C   0  0  0  0  0  0  0  0  0  0  0  0
   -0.6984   -3.5346   -2.3504 C   0  0  0  0  0  0  0  0  0  0  0  0
    8.4154    0.3118    0.2958 C   0  0  0  0  0  0  0  0  0  0  0  0
    9.3616    1.3072    0.4682 C   0  0  0  0  0  0  0  0  0  0  0  0
    8.9992    2.5777    0.9018 C   0  0  0  0  0  0  0  0  0  0  0  0
    7.6584    2.8439    1.1678 C   0  0  0  0  0  0  0  0  0  0  0  0
    6.7039    1.8388    1.0005 C   0  0  0  0  0  0  0  0  0  0  0  0
    7.1915    4.0362    1.5899 O   0  0  0  0  0  0  0  0  0  0  0  0
    8.1058    5.1012    1.7483 C   0  0  0  0  0  0  0  0  0  0  0  0
   -3.6822    1.1138   -3.9447 C   0  0  0  0  0  0  0  0  0  0  0  0
   -0.7705   -6.4221    0.5448 F   0  0  0  0  0  0  0  0  0  0  0  0
   -2.7837   -4.2980   -3.0966 F   0  0  0  0  0  0  0  0  0  0  0  0
   -5.4745    1.5139   -1.9547 H   0  0  0  0  0  0  0  0  0  0  0  0
   -1.6444   -0.1682   -2.7390 H   0  0  0  0  0  0  0  0  0  0  0  0
   -3.2577   -0.2883    1.2329 H   0  0  0  0  0  0  0  0  0  0  0  0
   -7.1684    3.4697    1.9319 H   0  0  0  0  0  0  0  0  0  0  0  0
   -7.7989    1.8595    1.6706 H   0  0  0  0  0  0  0  0  0  0  0  0
   -6.4261    1.0089    3.5792 H   0  0  0  0  0  0  0  0  0  0  0  0
   -5.7703    2.6153    3.8305 H   0  0  0  0  0  0  0  0  0  0  0  0
   -8.0706    3.4913    4.3251 H   0  0  0  0  0  0  0  0  0  0  0  0
   -8.7427    1.8860    4.0536 H   0  0  0  0  0  0  0  0  0  0  0  0
   -7.6567    2.1680    5.4106 H   0  0  0  0  0  0  0  0  0  0  0  0
   -4.7231    3.7397    1.9042 H   0  0  0  0  0  0  0  0  0  0  0  0
   -3.8795    2.8303    0.6798 H   0  0  0  0  0  0  0  0  0  0  0  0
   -5.3975    3.7388   -1.0725 H   0  0  0  0  0  0  0  0  0  0  0  0
   -6.3057    4.6117    0.1455 H   0  0  0  0  0  0  0  0  0  0  0  0
   -4.2422    5.9251    0.7458 H   0  0  0  0  0  0  0  0  0  0  0  0
   -3.3384    5.0614   -0.4960 H   0  0  0  0  0  0  0  0  0  0  0  0
   -4.6637    6.1270   -0.9512 H   0  0  0  0  0  0  0  0  0  0  0  0
    0.0671   -0.1711   -1.5986 H   0  0  0  0  0  0  0  0  0  0  0  0
    1.2101   -1.8995    0.4829 H   0  0  0  0  0  0  0  0  0  0  0  0
    2.1647    0.3011    0.1885 H   0  0  0  0  0  0  0  0  0  0  0  0
    1.6078   -2.2842   -2.5264 H   0  0  0  0  0  0  0  0  0  0  0  0
    2.4334   -3.1759   -1.2583 H   0  0  0  0  0  0  0  0  0  0  0  0
    2.8447   -0.4005   -2.4518 H   0  0  0  0  0  0  0  0  0  0  0  0
    3.6428   -1.5510    0.8413 H   0  0  0  0  0  0  0  0  0  0  0  0
    4.0740   -1.8486   -0.8350 H   0  0  0  0  0  0  0  0  0  0  0  0
    4.8667    0.4516   -0.8906 H   0  0  0  0  0  0  0  0  0  0  0  0
    5.9179   -1.0103    1.3965 H   0  0  0  0  0  0  0  0  0  0  0  0
    6.4472   -1.2978   -0.2464 H   0  0  0  0  0  0  0  0  0  0  0  0
    1.1509   -4.7286    0.2331 H   0  0  0  0  0  0  0  0  0  0  0  0
   -2.6642   -6.0687   -1.1984 H   0  0  0  0  0  0  0  0  0  0  0  0
   -0.6995   -2.7799   -3.1265 H   0  0  0  0  0  0  0  0  0  0  0  0
    8.7164   -0.6686   -0.0527 H   0  0  0  0  0  0  0  0  0  0  0  0
   10.4032    1.1020    0.2569 H   0  0  0  0  0  0  0  0  0  0  0  0
    9.7637    3.3334    1.0193 H   0  0  0  0  0  0  0  0  0  0  0  0
    5.6631    2.0574    1.2055 H   0  0  0  0  0  0  0  0  0  0  0  0
    8.8674    4.8809    2.5013 H   0  0  0  0  0  0  0  0  0  0  0  0
    8.6048    5.3553    0.8092 H   0  0  0  0  0  0  0  0  0  0  0  0
    7.5269    5.9602    2.0791 H   0  0  0  0  0  0  0  0  0  0  0  0
   -3.4261    2.1657   -4.0846 H   0  0  0  0  0  0  0  0  0  0  0  0
   -3.0143    0.5293   -4.5757 H   0  0  0  0  0  0  0  0  0  0  0  0
   -4.7000    0.9784   -4.3096 H   0  0  0  0  0  0  0  0  0  0  0  0
  1  6  2  0
  1  2  1  0
  1 43  1  0
  2  3  2  0
  2 40  1  0
  3  4  1  0
  3 44  1  0
  4  5  2  0
  4 16  1  0
  5  6  1  0
  5 45  1  0
  6  7  1  0
  7  8  1  0
  7  9  2  0
  8 10  1  0
  8 13  1  0
 10 11  1  0
 10 46  1  0
 10 47  1  0
 11 12  1  0
 11 48  1  0
 11 49  1  0
 12 50  1  0
 12 51  1  0
 12 52  1  0
 13 14  1  0
 13 53  1  0
 13 54  1  0
 14 15  1  0
 14 55  1  0
 14 56  1  0
 15 57  1  0
 15 58  1  0
 15 59  1  0
 16 17  1  0
 16 18  2  0
 17 19  1  0
 17 60  1  0
 19 21  1  0
 19 20  1  0
 19 61  1  1
 20 22  1  0
 20 23  1  0
 20 62  1  1
 21 27  1  0
 21 63  1  0
 21 64  1  0
 22 65  1  0
 23 24  1  0
 23 66  1  0
 23 67  1  0
 24 25  1  0
 24 68  1  0
 25 26  1  0
 25 69  1  0
 25 70  1  0
 26 37  1  0
 26 33  2  0
 27 32  1  0
 27 28  2  0
 28 29  1  0
 28 71  1  0
 29 30  2  0
 29 41  1  0
 30 31  1  0
 30 72  1  0
 31 42  1  0
 31 32  2  0
 32 73  1  0
 33 34  1  0
 33 74  1  0
 34 35  2  0
 34 75  1  0
 35 36  1  0
 35 76  1  0
 36 38  1  0
 36 37  2  0
 37 77  1  0
 38 39  1  0
 39 78  1  0
 39 79  1  0
 39 80  1  0
 40 81  1  0
 40 82  1  0
 40 83  1  0
M  END
