
     RDKit          3D

 60 64  0  0  0  0  0  0  0  0999 V2000
    2.6937   -1.5564    2.0763 C   0  0  0  0  0  0  0  0  0  0  0  0
    3.2229   -2.6365    2.7728 C   0  0  0  0  0  0  0  0  0  0  0  0
    4.0804   -3.5195    2.1338 C   0  0  0  0  0  0  0  0  0  0  0  0
    4.4064   -3.3179    0.7966 C   0  0  0  0  0  0  0  0  0  0  0  0
    3.8806   -2.2373    0.1055 C   0  0  0  0  0  0  0  0  0  0  0  0
    3.0202   -1.3461    0.7425 C   0  0  0  0  0  0  0  0  0  0  0  0
    2.4602   -0.1450    0.0027 C   0  0  1  0  0  0  0  0  0  0  0  0
    3.5426    0.8544   -0.3053 C   0  0  0  0  0  0  0  0  0  0  0  0
    4.1063    1.6105    0.7113 C   0  0  0  0  0  0  0  0  0  0  0  0
    5.1481    2.4745    0.4208 C   0  0  0  0  0  0  0  0  0  0  0  0
    5.8573    3.4160    1.6947 Cl  0  0  0  0  0  0  0  0  0  0  0  0
    5.6374    2.5926   -0.8732 C   0  0  0  0  0  0  0  0  0  0  0  0
    5.0592    1.8434   -1.8815 C   0  0  0  0  0  0  0  0  0  0  0  0
    4.0001    0.9695   -1.6181 C   0  0  0  0  0  0  0  0  0  0  0  0
    3.4295    0.2775   -2.6707 N   0  0  0  0  0  0  0  0  0  0  0  0
    2.3463   -0.3919   -2.4413 C   0  0  0  0  0  0  0  0  0  0  0  0
    1.6809   -1.0402   -3.6170 C   0  0  0  0  0  0  0  0  0  0  0  0
    1.7777   -0.5431   -1.2226 N   0  0  0  0  0  0  0  0  0  0  0  0
    0.4851   -1.1746   -1.0243 C   0  0  0  0  0  0  0  0  0  0  0  0
   -0.6353   -0.1382   -0.9788 C   0  0  0  0  0  0  0  0  0  0  0  0
   -1.9418   -0.7458   -0.8265 N   0  0  0  0  0  0  0  0  0  0  0  0
   -2.9957    0.2036   -1.1312 C   0  0  0  0  0  0  0  0  0  0  0  0
   -4.3701   -0.4454   -1.0735 C   0  0  0  0  0  0  0  0  0  0  0  0
   -2.1501   -1.3105    0.4959 C   0  0  0  0  0  0  0  0  0  0  0  0
   -3.5084   -1.9844    0.5717 C   0  0  0  0  0  0  0  0  0  0  0  0
   -4.5762   -1.0619    0.2276 N   0  0  0  0  0  0  0  0  0  0  0  0
   -5.4241   -0.6259    1.1843 C   0  0  0  0  0  0  0  0  0  0  0  0
   -5.2772   -0.8722    2.3757 O   0  0  0  0  0  0  0  0  0  0  0  0
   -6.6173    0.1486    0.7865 C   0  0  0  0  0  0  0  0  0  0  0  0
   -7.3301    1.0465    1.5161 C   0  0  0  0  0  0  0  0  0  0  0  0
   -8.4333    1.4330    0.7061 C   0  0  0  0  0  0  0  0  0  0  0  0
   -8.3146    0.7273   -0.4452 C   0  0  0  0  0  0  0  0  0  0  0  0
   -7.2207   -0.0524   -0.4069 O   0  0  0  0  0  0  0  0  0  0  0  0
    2.0192   -0.8722    2.5783 H   0  0  0  0  0  0  0  0  0  0  0  0
    2.9593   -2.7889    3.8114 H   0  0  0  0  0  0  0  0  0  0  0  0
    4.4934   -4.3628    2.6720 H   0  0  0  0  0  0  0  0  0  0  0  0
    5.0741   -4.0045    0.2922 H   0  0  0  0  0  0  0  0  0  0  0  0
    4.1512   -2.0898   -0.9335 H   0  0  0  0  0  0  0  0  0  0  0  0
    1.7231    0.3321    0.6586 H   0  0  0  0  0  0  0  0  0  0  0  0
    3.7418    1.5164    1.7272 H   0  0  0  0  0  0  0  0  0  0  0  0
    6.4570    3.2634   -1.0924 H   0  0  0  0  0  0  0  0  0  0  0  0
    5.4217    1.9338   -2.8975 H   0  0  0  0  0  0  0  0  0  0  0  0
    2.2513   -0.8091   -4.5117 H   0  0  0  0  0  0  0  0  0  0  0  0
    1.6339   -2.1245   -3.5049 H   0  0  0  0  0  0  0  0  0  0  0  0
    0.6606   -0.6823   -3.7606 H   0  0  0  0  0  0  0  0  0  0  0  0
    0.2849   -1.8986   -1.8110 H   0  0  0  0  0  0  0  0  0  0  0  0
    0.5366   -1.7491   -0.0975 H   0  0  0  0  0  0  0  0  0  0  0  0
   -0.4327    0.6007   -0.1847 H   0  0  0  0  0  0  0  0  0  0  0  0
   -0.6269    0.4148   -1.9216 H   0  0  0  0  0  0  0  0  0  0  0  0
   -2.9828    1.0648   -0.4407 H   0  0  0  0  0  0  0  0  0  0  0  0
   -2.8449    0.5956   -2.1394 H   0  0  0  0  0  0  0  0  0  0  0  0
   -1.3919   -2.0664    0.7039 H   0  0  0  0  0  0  0  0  0  0  0  0
   -2.0696   -0.5424    1.2839 H   0  0  0  0  0  0  0  0  0  0  0  0
   -5.1150    0.3171   -1.2739 H   0  0  0  0  0  0  0  0  0  0  0  0
   -4.4562   -1.2100   -1.8502 H   0  0  0  0  0  0  0  0  0  0  0  0
   -3.5374   -2.8146   -0.1405 H   0  0  0  0  0  0  0  0  0  0  0  0
   -3.6733   -2.3887    1.5661 H   0  0  0  0  0  0  0  0  0  0  0  0
   -7.0936    1.3945    2.5082 H   0  0  0  0  0  0  0  0  0  0  0  0
   -9.2140    2.1344    0.9501 H   0  0  0  0  0  0  0  0  0  0  0  0
   -8.9129    0.6769   -1.3406 H   0  0  0  0  0  0  0  0  0  0  0  0
  1  2  2  0
  1  6  1  0
  2  3  1  0
  3  4  2  0
  4  5  1  0
  5  6  2  0
  6  7  1  0
  7  8  1  0
  7 18  1  0
  8  9  2  0
  8 14  1  0
  9 10  1  0
 10 11  1  0
 10 12  2  0
 12 13  1  0
 13 14  2  0
 14 15  1  0
 15 16  2  0
 16 17  1  0
 16 18  1  0
 18 19  1  0
 19 20  1  0
 20 21  1  0
 21 22  1  0
 21 24  1  0
 22 23  1  0
 23 26  1  0
 24 25  1  0
 25 26  1  0
 26 27  1  0
 27 28  2  0
 27 29  1  0
 29 30  2  0
 29 33  1  0
 30 31  1  0
 31 32  2  0
 32 33  1  0
  1 34  1  0
  2 35  1  0
  3 36  1  0
  4 37  1  0
  5 38  1  0
  7 39  1  1
  9 40  1  0
 12 41  1  0
 13 42  1  0
 17 43  1  0
 17 44  1  0
 17 45  1  0
 19 46  1  0
 19 47  1  0
 20 48  1  0
 20 49  1  0
 22 50  1  0
 22 51  1  0
 24 52  1  0
 24 53  1  0
 23 54  1  0
 23 55  1  0
 25 56  1  0
 25 57  1  0
 30 58  1  0
 31 59  1  0
 32 60  1  0
M  END
