
     RDKit          3D

 31 33  0  0  0  0  0  0  0  0999 V2000
   -1.7629   -2.1601    0.4473 C   0  0  0  0  0  0  0  0  0  0  0  0
   -0.2698   -0.5810   -0.3298 C   0  0  0  0  0  0  0  0  0  0  0  0
   -1.2585    0.4112   -0.0948 C   0  0  0  0  0  0  0  0  0  0  0  0
   -2.4803   -0.0798    0.4007 C   0  0  0  0  0  0  0  0  0  0  0  0
   -2.6525    2.1312    0.2804 C   0  0  0  0  0  0  0  0  0  0  0  0
    0.9519   -0.3391   -0.8513 N   0  0  0  0  0  0  0  0  0  0  0  0
    1.3577    0.9195   -1.4460 C   0  0  0  0  0  0  0  0  0  0  0  0
    2.3742    1.6316   -0.5642 C   0  0  0  0  0  0  0  0  0  0  0  0
    3.5684    0.7101   -0.3266 C   0  0  0  0  0  0  0  0  0  0  0  0
    3.1289   -0.6577    0.2148 C   0  0  2  0  0  0  0  0  0  0  0  0
   -0.5611   -1.8511   -0.0220 N   0  0  0  0  0  0  0  0  0  0  0  0
   -2.7780   -1.3529    0.6725 N   0  0  0  0  0  0  0  0  0  0  0  0
   -3.3053    0.9720    0.6036 N   0  0  0  0  0  0  0  0  0  0  0  0
   -1.3933    1.8389   -0.1493 C   0  0  0  0  0  0  0  0  0  0  0  0
    2.0620   -1.2655   -0.6978 C   0  0  0  0  0  0  0  0  0  0  0  0
    2.6369   -0.6346    1.5868 N   0  0  0  0  0  0  0  0  0  0  0  0
   -1.9246   -3.2114    0.6648 H   0  0  0  0  0  0  0  0  0  0  0  0
   -3.1385    3.0863    0.3898 H   0  0  0  0  0  0  0  0  0  0  0  0
    1.8232    0.6891   -2.4113 H   0  0  0  0  0  0  0  0  0  0  0  0
    0.4943    1.5357   -1.6721 H   0  0  0  0  0  0  0  0  0  0  0  0
    2.6936    2.5574   -1.0467 H   0  0  0  0  0  0  0  0  0  0  0  0
    1.9058    1.9162    0.3832 H   0  0  0  0  0  0  0  0  0  0  0  0
    4.0992    0.5682   -1.2742 H   0  0  0  0  0  0  0  0  0  0  0  0
    4.2806    1.1686    0.3643 H   0  0  0  0  0  0  0  0  0  0  0  0
    3.9887   -1.3339    0.1922 H   0  0  0  0  0  0  0  0  0  0  0  0
   -4.2437    0.9095    0.9643 H   0  0  0  0  0  0  0  0  0  0  0  0
   -0.6680    2.5778   -0.4438 H   0  0  0  0  0  0  0  0  0  0  0  0
    1.7026   -2.2053   -0.2898 H   0  0  0  0  0  0  0  0  0  0  0  0
    2.4928   -1.4680   -1.6834 H   0  0  0  0  0  0  0  0  0  0  0  0
    3.3522   -0.2456    2.1898 H   0  0  0  0  0  0  0  0  0  0  0  0
    1.8475   -0.0040    1.6673 H   0  0  0  0  0  0  0  0  0  0  0  0
  1 12  2  0
  1 11  1  0
 12  4  1  0
 11  2  2  0
  2  6  1  0
  2  3  1  0
  4  3  2  0
  4 13  1  0
  7  6  1  0
  7  8  1  0
  6 15  1  0
  3 14  1  0
 13  5  1  0
 15 10  1  0
 14  5  2  0
  8  9  1  0
 10  9  1  0
 10 16  1  0
  1 17  1  0
  5 18  1  0
  7 19  1  0
  7 20  1  0
  8 21  1  0
  8 22  1  0
  9 23  1  0
  9 24  1  0
 10 25  1  1
 13 26  1  0
 14 27  1  0
 15 28  1  0
 15 29  1  0
 16 30  1  0
 16 31  1  0
M  END
