
     RDKit          3D

 44 46  0  0  0  0  0  0  0  0999 V2000
    0.4660   -3.7057   -0.3553 O   0  0  0  0  0  0  0  0  0  0  0  0
    0.7302   -2.7308    0.6214 C   0  0  0  0  0  0  0  0  0  0  0  0
    1.3311   -1.5200   -0.0690 C   0  0  1  0  0  0  0  0  0  0  0  0
    0.4649   -1.0104   -1.0838 O   0  0  0  0  0  0  0  0  0  0  0  0
   -0.3405   -0.0094   -0.5671 C   0  0  1  0  0  0  0  0  0  0  0  0
   -1.7355   -0.4369   -0.5715 N   0  0  0  0  0  0  0  0  0  0  0  0
   -2.7553    0.3055   -0.0658 C   0  0  0  0  0  0  0  0  0  0  0  0
   -2.6748    1.4766    0.5708 N   0  0  0  0  0  0  0  0  0  0  0  0
   -3.8686    1.9176    0.9350 C   0  0  0  0  0  0  0  0  0  0  0  0
   -5.0487    1.3427    0.7365 N   0  0  0  0  0  0  0  0  0  0  0  0
   -5.1124    0.1637    0.1031 C   0  0  0  0  0  0  0  0  0  0  0  0
   -6.2989   -0.4136   -0.0782 N   0  0  0  0  0  0  0  0  0  0  0  0
   -3.9059   -0.4158   -0.3338 C   0  0  0  0  0  0  0  0  0  0  0  0
   -3.6012   -1.5808   -0.9876 N   0  0  0  0  0  0  0  0  0  0  0  0
   -2.3041   -1.5557   -1.1130 C   0  0  0  0  0  0  0  0  0  0  0  0
    0.1417    0.2895    0.8743 C   0  0  2  0  0  0  0  0  0  0  0  0
    0.1530    1.6441    1.1919 O   0  0  0  0  0  0  0  0  0  0  0  0
    1.5373   -0.3379    0.8823 C   0  0  2  0  0  0  0  0  0  0  0  0
    2.5130    0.6018    0.3853 N   0  0  0  0  0  0  0  0  0  0  0  0
    5.9327    1.6752    0.6907 N   0  0  0  0  0  0  0  0  0  0  0  0
    4.7375    1.4642   -0.0945 C   0  0  1  0  0  0  0  0  0  0  0  0
    5.0880    1.0786   -1.5291 C   0  0  0  0  0  0  0  0  0  0  0  0
    5.7588    2.1519   -2.1384 O   0  0  0  0  0  0  0  0  0  0  0  0
    3.8326    0.3647    0.4644 C   0  0  0  0  0  0  0  0  0  0  0  0
    4.2904   -0.6734    0.9205 O   0  0  0  0  0  0  0  0  0  0  0  0
   -0.0231   -4.4215    0.0599 H   0  0  0  0  0  0  0  0  0  0  0  0
    1.4504   -3.0818    1.3726 H   0  0  0  0  0  0  0  0  0  0  0  0
   -0.1814   -2.4487    1.1639 H   0  0  0  0  0  0  0  0  0  0  0  0
    2.2596   -1.8153   -0.5609 H   0  0  0  0  0  0  0  0  0  0  0  0
   -0.2716    0.8867   -1.1938 H   0  0  0  0  0  0  0  0  0  0  0  0
   -3.8881    2.8652    1.4613 H   0  0  0  0  0  0  0  0  0  0  0  0
   -6.3845   -1.2671   -0.6017 H   0  0  0  0  0  0  0  0  0  0  0  0
   -7.1412    0.0675    0.1867 H   0  0  0  0  0  0  0  0  0  0  0  0
   -1.7072   -2.3279   -1.5721 H   0  0  0  0  0  0  0  0  0  0  0  0
   -0.4795   -0.2772    1.5803 H   0  0  0  0  0  0  0  0  0  0  0  0
   -0.7713    1.9452    1.1210 H   0  0  0  0  0  0  0  0  0  0  0  0
    1.8182   -0.6729    1.8838 H   0  0  0  0  0  0  0  0  0  0  0  0
    2.1998    1.5156    0.0961 H   0  0  0  0  0  0  0  0  0  0  0  0
    6.3888    0.7861    0.8596 H   0  0  0  0  0  0  0  0  0  0  0  0
    4.1767    2.4043   -0.1264 H   0  0  0  0  0  0  0  0  0  0  0  0
    5.7043    0.1691   -1.5088 H   0  0  0  0  0  0  0  0  0  0  0  0
    4.1616    0.8260   -2.0621 H   0  0  0  0  0  0  0  0  0  0  0  0
    6.0006    1.8839   -3.0294 H   0  0  0  0  0  0  0  0  0  0  0  0
    5.6875    2.0453    1.6003 H   0  0  0  0  0  0  0  0  0  0  0  0
  1  2  1  0
  1 26  1  0
  2  3  1  0
  2 27  1  0
  2 28  1  0
  3  4  1  0
  3 18  1  0
  3 29  1  6
  4  5  1  0
  5  6  1  0
  5 16  1  0
  5 30  1  6
  6  7  1  0
  6 15  1  0
  7  8  2  0
  7 13  1  0
  8  9  1  0
  9 10  2  0
  9 31  1  0
 10 11  1  0
 11 12  1  0
 11 13  2  0
 12 32  1  0
 12 33  1  0
 13 14  1  0
 14 15  2  0
 15 34  1  0
 16 17  1  0
 16 18  1  0
 16 35  1  1
 17 36  1  0
 18 19  1  0
 18 37  1  1
 19 24  1  0
 19 38  1  0
 20 21  1  0
 20 44  1  0
 20 39  1  0
 21 22  1  0
 21 24  1  0
 21 40  1  6
 22 23  1  0
 22 41  1  0
 22 42  1  0
 23 43  1  0
 24 25  2  0
M  END
