
     RDKit          3D

 26 26  0  0  0  0  0  0  0  0999 V2000
    2.3151   -0.5389   -0.0004 C   0  0  0  0  0  0  0  0  0  0  0  0
    2.9741   -0.2595   -1.1959 C   0  0  0  0  0  0  0  0  0  0  0  0
    4.2367    0.3188   -1.1969 C   0  0  0  0  0  0  0  0  0  0  0  0
    4.8624    0.6300    0.0034 C   0  0  0  0  0  0  0  0  0  0  0  0
    4.2163    0.3553    1.2019 C   0  0  0  0  0  0  0  0  0  0  0  0
    2.9540   -0.2232    1.1970 C   0  0  0  0  0  0  0  0  0  0  0  0
    0.9285   -1.1190   -0.0031 C   0  0  0  0  0  0  0  0  0  0  0  0
   -0.1441   -0.0297   -0.0105 C   0  0  0  0  0  0  0  0  0  0  0  0
   -1.5409   -0.6277   -0.0184 C   0  0  0  0  0  0  0  0  0  0  0  0
   -2.6335    0.3926   -0.0270 C   0  0  0  0  0  0  0  0  0  0  0  0
   -4.0670   -0.1669   -0.0400 C   0  0  0  0  0  0  0  0  0  0  0  0
   -4.3010   -1.3458   -0.0539 O   0  0  0  0  0  0  0  0  0  0  0  0
   -4.9636    0.7940   -0.0350 O   0  0  0  0  0  0  0  0  0  0  0  0
   -2.4647    1.5827   -0.0257 O   0  0  0  0  0  0  0  0  0  0  0  0
    2.4962   -0.5005   -2.1384 H   0  0  0  0  0  0  0  0  0  0  0  0
    4.7333    0.5231   -2.1370 H   0  0  0  0  0  0  0  0  0  0  0  0
    5.8469    1.0801    0.0050 H   0  0  0  0  0  0  0  0  0  0  0  0
    4.6969    0.5886    2.1435 H   0  0  0  0  0  0  0  0  0  0  0  0
    2.4597   -0.4363    2.1380 H   0  0  0  0  0  0  0  0  0  0  0  0
    0.7976   -1.7630   -0.8770 H   0  0  0  0  0  0  0  0  0  0  0  0
    0.7914   -1.7563    0.8749 H   0  0  0  0  0  0  0  0  0  0  0  0
   -0.0162    0.6113    0.8654 H   0  0  0  0  0  0  0  0  0  0  0  0
   -0.0062    0.6100   -0.8858 H   0  0  0  0  0  0  0  0  0  0  0  0
   -1.6799   -1.2833   -0.8856 H   0  0  0  0  0  0  0  0  0  0  0  0
   -1.6913   -1.2807    0.8491 H   0  0  0  0  0  0  0  0  0  0  0  0
   -5.8594    0.4220   -0.0428 H   0  0  0  0  0  0  0  0  0  0  0  0
  1  6  2  0
  1  2  1  0
  1  7  1  0
  2  3  2  0
  2 15  1  0
  3  4  1  0
  3 16  1  0
  4  5  2  0
  4 17  1  0
  5  6  1  0
  5 18  1  0
  6 19  1  0
  7  8  1  0
  7 20  1  0
  7 21  1  0
  8  9  1  0
  8 22  1  0
  8 23  1  0
  9 10  1  0
  9 24  1  0
  9 25  1  0
 10 11  1  0
 10 14  2  0
 11 12  2  0
 11 13  1  0
 13 26  1  0
M  END
