
     RDKit          3D

 45 47  0  0  0  0  0  0  0  0999 V2000
   -3.4726    0.0478    0.1752 C   0  0  0  0  0  0  0  0  0  0  0  0
   -0.4842    2.1222   -0.2716 C   0  0  0  0  0  0  0  0  0  0  0  0
   -4.4189   -1.0636    0.0511 C   0  0  0  0  0  0  0  0  0  0  0  0
   -2.7966    3.2391    1.4354 C   0  0  0  0  0  0  0  0  0  0  0  0
   -6.6043   -2.0178    0.4456 C   0  0  0  0  0  0  0  0  0  0  0  0
   -6.2262   -3.1866   -0.2039 C   0  0  0  0  0  0  0  0  0  0  0  0
    2.9259    0.8773   -0.5439 C   0  0  0  0  0  0  0  0  0  0  0  0
    4.0146   -1.2746   -0.6133 C   0  0  0  0  0  0  0  0  0  0  0  0
    4.9507   -0.8471    0.3265 C   0  0  0  0  0  0  0  0  0  0  0  0
    4.8667    0.4488    0.8297 C   0  0  0  0  0  0  0  0  0  0  0  0
    6.0061   -1.7984    0.7526 C   0  0  0  0  0  0  0  0  0  0  0  0
   -4.9433   -3.2939   -0.7236 C   0  0  0  0  0  0  0  0  0  0  0  0
   -5.7110   -0.9656    0.5720 C   0  0  0  0  0  0  0  0  0  0  0  0
   -4.0476   -2.2423   -0.5960 C   0  0  0  0  0  0  0  0  0  0  0  0
    3.0162   -0.4202   -1.0447 C   0  0  0  0  0  0  0  0  0  0  0  0
    3.8595    1.2972    0.3970 C   0  0  0  0  0  0  0  0  0  0  0  0
   -2.1824    0.1664   -0.3643 C   0  0  0  0  0  0  0  0  0  0  0  0
   -1.7435    1.4093    0.0401 C   0  0  0  0  0  0  0  0  0  0  0  0
    1.8660    2.0209   -2.5249 C   0  0  0  0  0  0  0  0  0  0  0  0
    1.8398    1.8168   -1.0123 C   0  0  1  0  0  0  0  0  0  0  0  0
   -3.7809    1.1410    0.8618 N   0  0  0  0  0  0  0  0  0  0  0  0
   -2.7435    1.9516    0.7717 N   0  0  0  0  0  0  0  0  0  0  0  0
    0.5495    1.3169   -0.5613 N   0  0  0  0  0  0  0  0  0  0  0  0
    6.8386   -1.2853    1.6471 O   0  0  0  0  0  0  0  0  0  0  0  0
    6.1015   -2.9265    0.3312 O   0  0  0  0  0  0  0  0  0  0  0  0
   -0.4169    3.3431   -0.2720 O   0  0  0  0  0  0  0  0  0  0  0  0
   -2.9112    4.0448    0.7145 H   0  0  0  0  0  0  0  0  0  0  0  0
   -3.6542    3.2240    2.0998 H   0  0  0  0  0  0  0  0  0  0  0  0
   -1.8958    3.4079    2.0183 H   0  0  0  0  0  0  0  0  0  0  0  0
   -7.6020   -1.9236    0.8548 H   0  0  0  0  0  0  0  0  0  0  0  0
   -6.9264   -4.0056   -0.3038 H   0  0  0  0  0  0  0  0  0  0  0  0
    4.0676   -2.2782   -1.0129 H   0  0  0  0  0  0  0  0  0  0  0  0
    5.5776    0.8098    1.5600 H   0  0  0  0  0  0  0  0  0  0  0  0
   -4.6356   -4.1991   -1.2308 H   0  0  0  0  0  0  0  0  0  0  0  0
   -6.0205   -0.0593    1.0756 H   0  0  0  0  0  0  0  0  0  0  0  0
   -3.0506   -2.3489   -1.0047 H   0  0  0  0  0  0  0  0  0  0  0  0
    2.3087   -0.7768   -1.7842 H   0  0  0  0  0  0  0  0  0  0  0  0
    3.8041    2.3022    0.7962 H   0  0  0  0  0  0  0  0  0  0  0  0
   -1.6584   -0.5377   -0.9897 H   0  0  0  0  0  0  0  0  0  0  0  0
    2.8414    2.3905   -2.8409 H   0  0  0  0  0  0  0  0  0  0  0  0
    1.6640    1.0914   -3.0570 H   0  0  0  0  0  0  0  0  0  0  0  0
    1.1142    2.7516   -2.8213 H   0  0  0  0  0  0  0  0  0  0  0  0
    1.9992    2.7832   -0.5322 H   0  0  0  0  0  0  0  0  0  0  0  0
    0.4241    0.3185   -0.4975 H   0  0  0  0  0  0  0  0  0  0  0  0
    7.5050   -1.9439    1.8928 H   0  0  0  0  0  0  0  0  0  0  0  0
 25 11  2  0
 11 24  1  0
 11  9  1  0
  8  9  2  0
  8 15  1  0
  9 10  1  0
 15  7  2  0
 10 16  2  0
 26  2  2  0
  7 16  1  0
  7 20  1  0
  4 22  1  0
 20 23  1  0
 20 19  1  0
  2 23  1  0
  2 18  1  0
 22 18  1  0
 22 21  1  0
 18 17  2  0
 21  1  2  0
 17  1  1  0
  1  3  1  0
  3 13  1  0
  3 14  2  0
 13  5  2  0
 14 12  1  0
  5  6  1  0
 12  6  2  0
  4 27  1  0
  4 28  1  0
  4 29  1  0
  5 30  1  0
  6 31  1  0
  8 32  1  0
 10 33  1  0
 12 34  1  0
 13 35  1  0
 14 36  1  0
 15 37  1  0
 16 38  1  0
 17 39  1  0
 19 40  1  0
 19 41  1  0
 19 42  1  0
 20 43  1  1
 23 44  1  0
 24 45  1  0
M  END
