
     RDKit          3D

 35 38  0  0  0  0  0  0  0  0999 V2000
    4.7230   -1.4337    0.7024 C   0  0  0  0  0  0  0  0  0  0  0  0
    3.3441   -1.2805    0.6879 C   0  0  0  0  0  0  0  0  0  0  0  0
    0.7400    1.3003    0.2497 C   0  0  0  0  0  0  0  0  0  0  0  0
   -0.6289    1.4798    0.2494 C   0  0  0  0  0  0  0  0  0  0  0  0
    5.5548   -0.4754    0.1473 C   0  0  0  0  0  0  0  0  0  0  0  0
    0.4597   -1.0464   -0.0785 C   0  0  0  0  0  0  0  0  0  0  0  0
    3.6118    0.8183   -0.4554 C   0  0  0  0  0  0  0  0  0  0  0  0
    1.3118    0.0359    0.0883 C   0  0  0  0  0  0  0  0  0  0  0  0
    2.7766   -0.1476    0.1056 C   0  0  0  0  0  0  0  0  0  0  0  0
   -0.9298   -0.9072   -0.0836 C   0  0  0  0  0  0  0  0  0  0  0  0
   -1.4695    0.3820    0.0853 C   0  0  0  0  0  0  0  0  0  0  0  0
    4.9937    0.6595   -0.4347 C   0  0  0  0  0  0  0  0  0  0  0  0
   -3.1418   -1.8878   -0.2540 C   0  0  0  0  0  0  0  0  0  0  0  0
   -1.8048   -2.0602   -0.2609 C   0  0  0  0  0  0  0  0  0  0  0  0
   -3.6917   -0.5855   -0.0794 C   0  0  0  0  0  0  0  0  0  0  0  0
   -3.6590    1.6299    0.2259 C   0  0  0  0  0  0  0  0  0  0  0  0
   -1.2110   -3.4194   -0.4464 C   0  0  0  0  0  0  0  0  0  0  0  0
   -4.9374   -0.2364   -0.0473 N   0  0  0  0  0  0  0  0  0  0  0  0
   -4.9019    1.1051    0.1372 N   0  0  0  0  0  0  0  0  0  0  0  0
   -2.8553    0.4980    0.0804 N   0  0  0  0  0  0  0  0  0  0  0  0
   -3.3211    2.7881    0.3903 O   0  0  0  0  0  0  0  0  0  0  0  0
    5.8318    1.5693   -0.9687 O   0  0  0  0  0  0  0  0  0  0  0  0
    5.1588   -2.3112    1.1618 H   0  0  0  0  0  0  0  0  0  0  0  0
    2.7168   -2.0308    1.1511 H   0  0  0  0  0  0  0  0  0  0  0  0
    6.6303   -0.6001    0.1618 H   0  0  0  0  0  0  0  0  0  0  0  0
   -1.0342    2.4692    0.3874 H   0  0  0  0  0  0  0  0  0  0  0  0
    0.8845   -2.0302   -0.2279 H   0  0  0  0  0  0  0  0  0  0  0  0
    3.1838    1.6937   -0.9321 H   0  0  0  0  0  0  0  0  0  0  0  0
    5.3364    2.3053   -1.3449 H   0  0  0  0  0  0  0  0  0  0  0  0
   -3.8281   -2.7143   -0.3772 H   0  0  0  0  0  0  0  0  0  0  0  0
   -0.5979   -3.7068    0.4098 H   0  0  0  0  0  0  0  0  0  0  0  0
   -1.9906   -4.1685   -0.5667 H   0  0  0  0  0  0  0  0  0  0  0  0
   -0.5694   -3.4548   -1.3286 H   0  0  0  0  0  0  0  0  0  0  0  0
   -5.7591    1.6311    0.2040 H   0  0  0  0  0  0  0  0  0  0  0  0
    1.3727    2.1653    0.4010 H   0  0  0  0  0  0  0  0  0  0  0  0
  1  2  2  0
  1  5  1  0
  2  9  1  0
  3  4  2  0
  3  8  1  0
  4 11  1  0
  5 12  2  0
  6  8  2  0
  6 10  1  0
  7  9  2  0
  7 12  1  0
  8  9  1  0
 10 11  2  0
 10 14  1  0
 11 20  1  0
 12 22  1  0
 13 14  2  0
 13 15  1  0
 14 17  1  0
 15 18  2  0
 15 20  1  0
 16 19  1  0
 16 20  1  0
 16 21  2  0
 18 19  1  0
  1 23  1  0
  2 24  1  0
  5 25  1  0
  3 35  1  0
  4 26  1  0
  6 27  1  0
  7 28  1  0
 22 29  1  0
 13 30  1  0
 17 31  1  0
 17 32  1  0
 17 33  1  0
 19 34  1  0
M  END
