
     RDKit          3D

 61 62  0  0  0  0  0  0  0  0999 V2000
   -3.2759    1.3950   -1.9105 O   0  0  0  0  0  0  0  0  0  0  0  0
   -3.5926    0.8283   -0.8625 C   0  0  0  0  0  0  0  0  0  0  0  0
   -3.1539    1.2839    0.4378 C   0  0  0  0  0  0  0  0  0  0  0  0
   -3.5249    0.6156    1.5744 C   0  0  0  0  0  0  0  0  0  0  0  0
   -3.0869    0.9932    2.9532 C   0  0  0  0  0  0  0  0  0  0  0  0
   -4.3427   -0.4722    1.4947 N   0  0  0  0  0  0  0  0  0  0  0  0
   -4.6265   -1.1496    2.6387 O   0  0  0  0  0  0  0  0  0  0  0  0
   -4.8040   -1.0017    0.3176 C   0  0  0  0  0  0  0  0  0  0  0  0
   -5.6124   -2.1487    0.2956 C   0  0  0  0  0  0  0  0  0  0  0  0
   -6.0553   -2.6357   -0.9129 C   0  0  0  0  0  0  0  0  0  0  0  0
   -5.7122   -2.0068   -2.1148 C   0  0  0  0  0  0  0  0  0  0  0  0
   -4.9177   -0.8850   -2.0877 C   0  0  0  0  0  0  0  0  0  0  0  0
   -4.4471   -0.3616   -0.8760 C   0  0  0  0  0  0  0  0  0  0  0  0
   -2.2250    2.4709    0.4605 C   0  0  0  0  0  0  0  0  0  0  0  0
   -0.7897    2.0345    0.3894 C   0  0  0  0  0  0  0  0  0  0  0  0
    0.0973    2.2669   -0.5805 C   0  0  0  0  0  0  0  0  0  0  0  0
   -0.1765    3.0634   -1.8214 C   0  0  0  0  0  0  0  0  0  0  0  0
    1.4922    1.7081   -0.4734 C   0  0  0  0  0  0  0  0  0  0  0  0
    1.7143    0.4799   -1.3723 C   0  0  0  0  0  0  0  0  0  0  0  0
    3.1335    0.0045   -1.3172 C   0  0  0  0  0  0  0  0  0  0  0  0
    3.6299   -0.9839   -0.5679 C   0  0  0  0  0  0  0  0  0  0  0  0
    2.8057   -1.8327    0.3562 C   0  0  0  0  0  0  0  0  0  0  0  0
    5.1027   -1.2943   -0.5912 C   0  0  0  0  0  0  0  0  0  0  0  0
    5.8120   -0.9624    0.7314 C   0  0  0  0  0  0  0  0  0  0  0  0
    7.2592   -1.3443    0.6960 C   0  0  0  0  0  0  0  0  0  0  0  0
    8.3159   -0.5362    0.5776 C   0  0  0  0  0  0  0  0  0  0  0  0
    8.2374    0.9582    0.4699 C   0  0  0  0  0  0  0  0  0  0  0  0
    9.7121   -1.0870    0.5375 C   0  0  0  0  0  0  0  0  0  0  0  0
   -3.9380    1.2292    3.5934 H   0  0  0  0  0  0  0  0  0  0  0  0
   -2.5359    0.1809    3.4271 H   0  0  0  0  0  0  0  0  0  0  0  0
   -2.4411    1.8629    2.9331 H   0  0  0  0  0  0  0  0  0  0  0  0
   -5.4595   -0.7897    2.9797 H   0  0  0  0  0  0  0  0  0  0  0  0
   -5.8853   -2.6522    1.2111 H   0  0  0  0  0  0  0  0  0  0  0  0
   -6.6779   -3.5206   -0.9263 H   0  0  0  0  0  0  0  0  0  0  0  0
   -6.0681   -2.4029   -3.0561 H   0  0  0  0  0  0  0  0  0  0  0  0
   -4.6430   -0.3874   -3.0081 H   0  0  0  0  0  0  0  0  0  0  0  0
   -2.4758    3.1275   -0.3707 H   0  0  0  0  0  0  0  0  0  0  0  0
   -2.3757    3.0676    1.3627 H   0  0  0  0  0  0  0  0  0  0  0  0
   -0.4538    1.4461    1.2419 H   0  0  0  0  0  0  0  0  0  0  0  0
    0.3895    3.9986   -1.8031 H   0  0  0  0  0  0  0  0  0  0  0  0
    0.1539    2.5242   -2.7120 H   0  0  0  0  0  0  0  0  0  0  0  0
   -1.2277    3.3020   -1.9581 H   0  0  0  0  0  0  0  0  0  0  0  0
    2.2215    2.4813   -0.7400 H   0  0  0  0  0  0  0  0  0  0  0  0
    1.7045    1.4218    0.5596 H   0  0  0  0  0  0  0  0  0  0  0  0
    1.0150   -0.3028   -1.0699 H   0  0  0  0  0  0  0  0  0  0  0  0
    1.4636    0.7331   -2.4063 H   0  0  0  0  0  0  0  0  0  0  0  0
    3.8333    0.5672   -1.9315 H   0  0  0  0  0  0  0  0  0  0  0  0
    3.0389   -2.8913    0.2202 H   0  0  0  0  0  0  0  0  0  0  0  0
    3.0181   -1.6002    1.4025 H   0  0  0  0  0  0  0  0  0  0  0  0
    1.7345   -1.7058    0.2116 H   0  0  0  0  0  0  0  0  0  0  0  0
    5.2487   -2.3584   -0.8107 H   0  0  0  0  0  0  0  0  0  0  0  0
    5.5889   -0.7392   -1.3972 H   0  0  0  0  0  0  0  0  0  0  0  0
    5.6789    0.0998    0.9458 H   0  0  0  0  0  0  0  0  0  0  0  0
    5.3248   -1.5027    1.5482 H   0  0  0  0  0  0  0  0  0  0  0  0
    7.4490   -2.4145    0.7451 H   0  0  0  0  0  0  0  0  0  0  0  0
    8.7710    1.4340    1.2967 H   0  0  0  0  0  0  0  0  0  0  0  0
    8.7253    1.2983   -0.4470 H   0  0  0  0  0  0  0  0  0  0  0  0
    7.2191    1.3412    0.4640 H   0  0  0  0  0  0  0  0  0  0  0  0
    9.7294   -2.1741    0.6155 H   0  0  0  0  0  0  0  0  0  0  0  0
   10.2166   -0.8062   -0.3910 H   0  0  0  0  0  0  0  0  0  0  0  0
   10.3172   -0.6803    1.3525 H   0  0  0  0  0  0  0  0  0  0  0  0
  1  2  2  0
  2  3  1  0
  2 13  1  0
  3  4  2  0
  3 14  1  0
  4  5  1  0
  4  6  1  0
  6  7  1  0
  6  8  1  0
  8  9  1  0
  8 13  2  0
  9 10  2  0
 10 11  1  0
 11 12  2  0
 12 13  1  0
 14 15  1  0
 15 16  2  0
 16 17  1  0
 16 18  1  0
 18 19  1  0
 19 20  1  0
 20 21  2  0
 21 22  1  0
 21 23  1  0
 23 24  1  0
 24 25  1  0
 25 26  2  0
 26 27  1  0
 26 28  1  0
  5 29  1  0
  5 30  1  0
  5 31  1  0
  7 32  1  0
  9 33  1  0
 10 34  1  0
 11 35  1  0
 12 36  1  0
 14 37  1  0
 14 38  1  0
 15 39  1  0
 17 40  1  0
 17 41  1  0
 17 42  1  0
 18 43  1  0
 18 44  1  0
 19 45  1  0
 19 46  1  0
 20 47  1  0
 22 48  1  0
 22 49  1  0
 22 50  1  0
 23 51  1  0
 23 52  1  0
 24 53  1  0
 24 54  1  0
 25 55  1  0
 27 56  1  0
 27 57  1  0
 27 58  1  0
 28 59  1  0
 28 60  1  0
 28 61  1  0
M  END
