
     RDKit          3D

 37 38  0  0  0  0  0  0  0  0999 V2000
    3.4043   -0.3222    0.0112 N   0  0  0  0  0  0  0  0  0  0  0  0
    0.5624    1.2072   -1.0805 S   0  0  0  0  0  0  0  0  0  0  0  0
    0.1222    0.7568    0.6282 C   0  0  2  0  0  0  0  0  0  0  0  0
    1.5387   -1.2762    0.6940 N   0  0  0  0  0  0  0  0  0  0  0  0
    2.6832   -1.5286    0.0337 C   0  0  0  0  0  0  0  0  0  0  0  0
    3.0322   -2.5900   -0.4304 O   0  0  0  0  0  0  0  0  0  0  0  0
    1.3793    0.0678    1.1714 C   0  0  1  0  0  0  0  0  0  0  0  0
    2.6288    0.7723    0.5819 C   0  0  2  0  0  0  0  0  0  0  0  0
    2.1662    1.7850   -0.4756 C   0  0  0  0  0  0  0  0  0  0  0  0
   -1.1463   -0.0710    0.7198 C   0  0  0  0  0  0  0  0  0  0  0  0
   -2.3789    0.6515    0.1899 C   0  0  0  0  0  0  0  0  0  0  0  0
   -3.6563   -0.1482    0.4106 C   0  0  0  0  0  0  0  0  0  0  0  0
   -4.8632    0.5482   -0.1948 C   0  0  0  0  0  0  0  0  0  0  0  0
   -6.1583   -0.1855    0.0126 C   0  0  0  0  0  0  0  0  0  0  0  0
   -6.2848   -1.2224    0.6155 O   0  0  0  0  0  0  0  0  0  0  0  0
   -7.1812    0.4485   -0.5551 O   0  0  0  0  0  0  0  0  0  0  0  0
    4.7271   -0.2154   -0.3702 C   0  0  0  0  0  0  0  0  0  0  0  0
    5.3914    1.1016   -0.0611 C   0  0  0  0  0  0  0  0  0  0  0  0
    5.3250   -1.1267   -0.8968 O   0  0  0  0  0  0  0  0  0  0  0  0
   -0.0141    1.6859    1.1922 H   0  0  0  0  0  0  0  0  0  0  0  0
    0.9043   -2.0238    0.9236 H   0  0  0  0  0  0  0  0  0  0  0  0
    1.3692    0.0993    2.2642 H   0  0  0  0  0  0  0  0  0  0  0  0
    3.1950    1.2762    1.3644 H   0  0  0  0  0  0  0  0  0  0  0  0
    2.8600    1.8715   -1.3094 H   0  0  0  0  0  0  0  0  0  0  0  0
    2.0572    2.7704   -0.0203 H   0  0  0  0  0  0  0  0  0  0  0  0
   -1.0188   -1.0121    0.1773 H   0  0  0  0  0  0  0  0  0  0  0  0
   -1.3029   -0.3315    1.7721 H   0  0  0  0  0  0  0  0  0  0  0  0
   -2.4701    1.6291    0.6742 H   0  0  0  0  0  0  0  0  0  0  0  0
   -2.2548    0.8498   -0.8795 H   0  0  0  0  0  0  0  0  0  0  0  0
   -3.5430   -1.1434   -0.0279 H   0  0  0  0  0  0  0  0  0  0  0  0
   -3.8108   -0.2968    1.4823 H   0  0  0  0  0  0  0  0  0  0  0  0
   -4.9767    1.5551    0.2202 H   0  0  0  0  0  0  0  0  0  0  0  0
   -4.7239    0.6925   -1.2708 H   0  0  0  0  0  0  0  0  0  0  0  0
   -8.0001   -0.0469   -0.4054 H   0  0  0  0  0  0  0  0  0  0  0  0
    5.3806    1.3027    1.0112 H   0  0  0  0  0  0  0  0  0  0  0  0
    6.4246    1.0630   -0.3946 H   0  0  0  0  0  0  0  0  0  0  0  0
    4.9031    1.9422   -0.5534 H   0  0  0  0  0  0  0  0  0  0  0  0
  1  5  1  0
  1  8  1  0
  1 17  1  0
  2  3  1  0
  2  9  1  0
  3  7  1  0
  3 10  1  0
  4  5  1  0
  4  7  1  0
  5  6  2  0
  7  8  1  0
  8  9  1  0
 10 11  1  0
 11 12  1  0
 12 13  1  0
 13 14  1  0
 14 15  2  0
 14 16  1  0
 17 18  1  0
 17 19  2  0
  3 20  1  1
  4 21  1  0
  7 22  1  1
  8 23  1  1
  9 24  1  0
  9 25  1  0
 10 26  1  0
 10 27  1  0
 11 28  1  0
 11 29  1  0
 12 30  1  0
 12 31  1  0
 13 32  1  0
 13 33  1  0
 16 34  1  0
 18 35  1  0
 18 36  1  0
 18 37  1  0
M  END
