
     RDKit          3D

 21 22  0  0  0  0  0  0  0  0999 V2000
   -3.3807   -0.4369   -0.2449 O   0  0  0  0  0  0  0  0  0  0  0  0
   -2.3488    0.3436    0.0636 C   0  0  0  0  0  0  0  0  0  0  0  0
   -2.4599    1.5006    0.3785 O   0  0  0  0  0  0  0  0  0  0  0  0
   -1.0826   -0.3960   -0.0049 C   0  0  0  0  0  0  0  0  0  0  0  0
    0.2769    0.0865    0.0246 C   0  0  0  0  0  0  0  0  0  0  0  0
    0.8898    1.4174   -0.0024 C   0  0  0  0  0  0  0  0  0  0  0  0
    0.2670    2.4420   -0.1805 O   0  0  0  0  0  0  0  0  0  0  0  0
    2.3870    1.4090    0.2291 C   0  0  0  0  0  0  0  0  0  0  0  0
    3.0916    0.2282   -0.4360 C   0  0  0  0  0  0  0  0  0  0  0  0
    2.5365   -1.1110    0.0447 C   0  0  0  0  0  0  0  0  0  0  0  0
    1.0609   -1.0275    0.0273 C   0  0  0  0  0  0  0  0  0  0  0  0
    0.3026   -2.1315    0.0101 O   0  0  0  0  0  0  0  0  0  0  0  0
   -0.9869   -1.7482   -0.0108 C   0  0  0  0  0  0  0  0  0  0  0  0
   -4.2083    0.0561   -0.1429 H   0  0  0  0  0  0  0  0  0  0  0  0
    2.8028    2.3542   -0.1206 H   0  0  0  0  0  0  0  0  0  0  0  0
    2.5457    1.3700    1.3136 H   0  0  0  0  0  0  0  0  0  0  0  0
    2.9715    0.2984   -1.5197 H   0  0  0  0  0  0  0  0  0  0  0  0
    4.1606    0.2789   -0.2318 H   0  0  0  0  0  0  0  0  0  0  0  0
    2.8880   -1.9310   -0.5839 H   0  0  0  0  0  0  0  0  0  0  0  0
    2.8774   -1.3237    1.0636 H   0  0  0  0  0  0  0  0  0  0  0  0
   -1.7228   -2.5356   -0.0126 H   0  0  0  0  0  0  0  0  0  0  0  0
  7  6  2  0
  8  9  1  0
  8  6  1  0
  9 10  1  0
  6  5  1  0
  5 11  2  0
  5  4  1  0
 10 11  1  0
  3  2  2  0
  2  4  1  0
  2  1  1  0
 11 12  1  0
  4 13  2  0
 12 13  1  0
  1 14  1  0
  8 15  1  0
  8 16  1  0
  9 17  1  0
  9 18  1  0
 10 19  1  0
 10 20  1  0
 13 21  1  0
M  END
