
     RDKit          3D

 78 79  0  0  0  0  0  0  0  0999 V2000
   14.6781    1.7822   -1.0143 C   0  0  0  0  0  0  0  0  0  0  0  0
   13.6249    0.9451   -0.3016 C   0  0  0  0  0  0  0  0  0  0  0  0
   12.2027    1.3046   -0.7155 C   0  0  0  0  0  0  0  0  0  0  0  0
   11.1419    0.4564   -0.0257 C   0  0  0  0  0  0  0  0  0  0  0  0
    9.7193    0.8115   -0.4415 C   0  0  0  0  0  0  0  0  0  0  0  0
    8.6664   -0.0783    0.2073 C   0  0  0  0  0  0  0  0  0  0  0  0
    7.2414    0.2707   -0.2048 C   0  0  0  0  0  0  0  0  0  0  0  0
    6.2015   -0.6786    0.3776 C   0  0  0  0  0  0  0  0  0  0  0  0
    4.7757   -0.3252   -0.0273 C   0  0  0  0  0  0  0  0  0  0  0  0
    3.7491   -1.3316    0.4812 C   0  0  0  0  0  0  0  0  0  0  0  0
    2.3368   -0.9371    0.0793 C   0  0  0  0  0  0  0  0  0  0  0  0
    1.1554   -2.2168    0.6090 S   0  0  0  0  0  0  0  0  0  0  0  0
   -0.4034   -1.4590    0.1079 C   0  0  1  0  0  0  0  0  0  0  0  0
   -1.4030   -2.5492   -0.2802 C   0  0  2  0  0  0  0  0  0  0  0  0
   -0.9777   -3.2728   -1.4036 O   0  0  0  0  0  0  0  0  0  0  0  0
   -2.7218   -1.8810   -0.6461 C   0  0  1  0  0  0  0  0  0  0  0  0
   -3.7408   -2.8265   -0.8767 O   0  0  0  0  0  0  0  0  0  0  0  0
   -0.9052   -0.6955    1.1693 O   0  0  0  0  0  0  0  0  0  0  0  0
   -2.0681    0.0358    0.8266 C   0  0  2  0  0  0  0  0  0  0  0  0
   -2.4168    0.9073    2.0131 C   0  0  0  0  0  0  0  0  0  0  0  0
   -1.3587    1.8114    2.2337 O   0  0  0  0  0  0  0  0  0  0  0  0
   -3.1935   -0.9409    0.4573 C   0  0  1  0  0  0  0  0  0  0  0  0
   -4.3128   -0.2518   -0.0526 O   0  0  0  0  0  0  0  0  0  0  0  0
   -5.4998   -0.1809    0.6859 C   0  0  1  0  0  0  0  0  0  0  0  0
   -5.7137    1.0990    1.1910 O   0  0  0  0  0  0  0  0  0  0  0  0
   -5.8256    2.1311    0.2207 C   0  0  2  0  0  0  0  0  0  0  0  0
   -6.0204    3.4289    0.9755 C   0  0  0  0  0  0  0  0  0  0  0  0
   -4.8648    3.6862    1.7378 O   0  0  0  0  0  0  0  0  0  0  0  0
   -6.9883    1.8366   -0.7290 C   0  0  1  0  0  0  0  0  0  0  0  0
   -7.0045    2.8431   -1.7116 O   0  0  0  0  0  0  0  0  0  0  0  0
   -6.8191    0.4503   -1.3403 C   0  0  2  0  0  0  0  0  0  0  0  0
   -7.9605    0.1916   -2.1256 O   0  0  0  0  0  0  0  0  0  0  0  0
   -6.6566   -0.5846   -0.2290 C   0  0  1  0  0  0  0  0  0  0  0  0
   -6.5226   -1.8887   -0.7280 O   0  0  0  0  0  0  0  0  0  0  0  0
   15.6873    1.5085   -0.7047 H   0  0  0  0  0  0  0  0  0  0  0  0
   14.6179    1.6517   -2.0966 H   0  0  0  0  0  0  0  0  0  0  0  0
   14.5466    2.8455   -0.8049 H   0  0  0  0  0  0  0  0  0  0  0  0
   13.8011   -0.1158   -0.5041 H   0  0  0  0  0  0  0  0  0  0  0  0
   13.7280    1.0679    0.7811 H   0  0  0  0  0  0  0  0  0  0  0  0
   12.0216    2.3638   -0.5015 H   0  0  0  0  0  0  0  0  0  0  0  0
   12.1041    1.1942   -1.8014 H   0  0  0  0  0  0  0  0  0  0  0  0
   11.3267   -0.6012   -0.2446 H   0  0  0  0  0  0  0  0  0  0  0  0
   11.2395    0.5624    1.0605 H   0  0  0  0  0  0  0  0  0  0  0  0
    9.5192    1.8593   -0.1924 H   0  0  0  0  0  0  0  0  0  0  0  0
    9.6316    0.7368   -1.5312 H   0  0  0  0  0  0  0  0  0  0  0  0
    8.8699   -1.1231   -0.0524 H   0  0  0  0  0  0  0  0  0  0  0  0
    8.7553   -0.0146    1.2975 H   0  0  0  0  0  0  0  0  0  0  0  0
    7.0143    1.2972    0.1024 H   0  0  0  0  0  0  0  0  0  0  0  0
    7.1669    0.2576   -1.2980 H   0  0  0  0  0  0  0  0  0  0  0  0
    6.4264   -1.7003    0.0529 H   0  0  0  0  0  0  0  0  0  0  0  0
    6.2795   -0.6827    1.4702 H   0  0  0  0  0  0  0  0  0  0  0  0
    4.5264    0.6732    0.3465 H   0  0  0  0  0  0  0  0  0  0  0  0
    4.7114   -0.2681   -1.1191 H   0  0  0  0  0  0  0  0  0  0  0  0
    3.9842   -2.3221    0.0799 H   0  0  0  0  0  0  0  0  0  0  0  0
    3.8137   -1.4105    1.5702 H   0  0  0  0  0  0  0  0  0  0  0  0
    2.0573    0.0103    0.5423 H   0  0  0  0  0  0  0  0  0  0  0  0
    2.2632   -0.8233   -1.0035 H   0  0  0  0  0  0  0  0  0  0  0  0
   -0.2012   -0.8271   -0.7704 H   0  0  0  0  0  0  0  0  0  0  0  0
   -1.5614   -3.2052    0.5903 H   0  0  0  0  0  0  0  0  0  0  0  0
   -0.1211   -3.6682   -1.2020 H   0  0  0  0  0  0  0  0  0  0  0  0
   -2.5457   -1.2732   -1.5474 H   0  0  0  0  0  0  0  0  0  0  0  0
   -3.5475   -3.2959   -1.6951 H   0  0  0  0  0  0  0  0  0  0  0  0
   -1.8683    0.6795   -0.0456 H   0  0  0  0  0  0  0  0  0  0  0  0
   -3.3515    1.4313    1.8061 H   0  0  0  0  0  0  0  0  0  0  0  0
   -2.5914    0.2642    2.8880 H   0  0  0  0  0  0  0  0  0  0  0  0
   -1.6810    2.5052    2.8150 H   0  0  0  0  0  0  0  0  0  0  0  0
   -3.4680   -1.5259    1.3472 H   0  0  0  0  0  0  0  0  0  0  0  0
   -5.4567   -0.8474    1.5557 H   0  0  0  0  0  0  0  0  0  0  0  0
   -4.9002    2.2018   -0.3675 H   0  0  0  0  0  0  0  0  0  0  0  0
   -6.2096    4.2260    0.2490 H   0  0  0  0  0  0  0  0  0  0  0  0
   -6.9172    3.3449    1.6055 H   0  0  0  0  0  0  0  0  0  0  0  0
   -4.9795    4.5343    2.1755 H   0  0  0  0  0  0  0  0  0  0  0  0
   -7.9227    1.8402   -0.1440 H   0  0  0  0  0  0  0  0  0  0  0  0
   -7.7322    2.6639   -2.3159 H   0  0  0  0  0  0  0  0  0  0  0  0
   -5.9130    0.4540   -1.9655 H   0  0  0  0  0  0  0  0  0  0  0  0
   -7.8396   -0.6599   -2.5584 H   0  0  0  0  0  0  0  0  0  0  0  0
   -7.5683   -0.5752    0.3794 H   0  0  0  0  0  0  0  0  0  0  0  0
   -5.5953   -2.0587   -0.9586 H   0  0  0  0  0  0  0  0  0  0  0  0
  1  2  1  0
  2  3  1  0
  3  4  1  0
  4  5  1  0
  5  6  1  0
  6  7  1  0
  7  8  1  0
  8  9  1  0
  9 10  1  0
 11 10  1  0
 11 12  1  0
 12 13  1  0
 15 14  1  0
 13 14  1  0
 13 18  1  0
 14 16  1  0
 18 19  1  0
 21 20  1  0
 19 20  1  0
 19 22  1  0
 16 17  1  0
 16 22  1  0
 22 23  1  0
 23 24  1  0
 28 27  1  0
 24 25  1  0
 24 33  1  0
 25 26  1  0
 27 26  1  0
 26 29  1  0
 34 33  1  0
 33 31  1  0
 29 31  1  0
 29 30  1  0
 31 32  1  0
  1 35  1  0
  1 36  1  0
  1 37  1  0
  2 38  1  0
  2 39  1  0
  3 40  1  0
  3 41  1  0
  4 42  1  0
  4 43  1  0
  5 44  1  0
  5 45  1  0
  6 46  1  0
  6 47  1  0
  7 48  1  0
  7 49  1  0
  8 50  1  0
  8 51  1  0
  9 52  1  0
  9 53  1  0
 10 54  1  0
 10 55  1  0
 11 56  1  0
 11 57  1  0
 13 58  1  6
 14 59  1  1
 15 60  1  0
 16 61  1  6
 17 62  1  0
 19 63  1  6
 20 64  1  0
 20 65  1  0
 21 66  1  0
 22 67  1  1
 24 68  1  1
 26 69  1  6
 27 70  1  0
 27 71  1  0
 28 72  1  0
 29 73  1  1
 30 74  1  0
 31 75  1  6
 32 76  1  0
 33 77  1  1
 34 78  1  0
M  END
