
     RDKit          3D

 29 30  0  0  0  0  0  0  0  0999 V2000
    0.5300    0.8472    0.5777 C   0  0  0  0  0  0  0  0  0  0  0  0
    1.3278    0.4646   -0.5055 C   0  0  0  0  0  0  0  0  0  0  0  0
    1.9782    1.4084   -1.2883 C   0  0  0  0  0  0  0  0  0  0  0  0
    1.8284    2.7569   -1.0089 C   0  0  0  0  0  0  0  0  0  0  0  0
    1.0550    3.1541    0.0724 C   0  0  0  0  0  0  0  0  0  0  0  0
   -1.8171   -0.1196    1.4720 S   0  0  1  0  0  0  0  0  0  0  0  0
   -2.2666   -1.4849   -0.7995 C   0  0  0  0  0  0  0  0  0  0  0  0
    0.4277    2.2090    0.8646 C   0  0  0  0  0  0  0  0  0  0  0  0
   -2.7335    0.9179   -0.8553 C   0  0  0  0  0  0  0  0  0  0  0  0
   -3.0870    0.2737   -2.1903 C   0  0  0  0  0  0  0  0  0  0  0  0
   -2.2004   -0.9666   -2.2302 C   0  0  0  0  0  0  0  0  0  0  0  0
   -0.1396   -0.0840    1.3928 N   0  0  0  0  0  0  0  0  0  0  0  0
   -2.4415   -0.2547   -0.0138 N   0  0  0  0  0  0  0  0  0  0  0  0
   -2.0846   -1.3434    2.2004 O   0  0  0  0  0  0  0  0  0  0  0  0
   -2.2463    1.1648    1.9861 O   0  0  0  0  0  0  0  0  0  0  0  0
    1.5828   -1.3599   -0.9218 Br  0  0  0  0  0  0  0  0  0  0  0  0
    2.5954    1.0960   -2.1199 H   0  0  0  0  0  0  0  0  0  0  0  0
    2.3287    3.4883   -1.6287 H   0  0  0  0  0  0  0  0  0  0  0  0
    0.9522    4.2032    0.3143 H   0  0  0  0  0  0  0  0  0  0  0  0
   -1.3675   -2.0319   -0.5142 H   0  0  0  0  0  0  0  0  0  0  0  0
   -0.1423    2.5247    1.7262 H   0  0  0  0  0  0  0  0  0  0  0  0
   -1.8637    1.5705   -0.9578 H   0  0  0  0  0  0  0  0  0  0  0  0
   -3.5525    1.5003   -0.4373 H   0  0  0  0  0  0  0  0  0  0  0  0
   -4.1403   -0.0131   -2.2030 H   0  0  0  0  0  0  0  0  0  0  0  0
   -2.9147    0.9564   -3.0211 H   0  0  0  0  0  0  0  0  0  0  0  0
   -1.1745   -0.6881   -2.4809 H   0  0  0  0  0  0  0  0  0  0  0  0
   -2.5333   -1.7132   -2.9497 H   0  0  0  0  0  0  0  0  0  0  0  0
    0.2564   -1.0157    1.4342 H   0  0  0  0  0  0  0  0  0  0  0  0
   -3.1218   -2.1464   -0.6510 H   0  0  0  0  0  0  0  0  0  0  0  0
  4  5  2  0
  4  3  1  0
  5  8  1  0
  3  2  2  0
  8  1  2  0
  2  1  1  0
  2 16  1  0
  1 12  1  0
  9 10  1  0
  9 13  1  0
 10 11  1  0
  6 12  1  6
 11  7  1  0
  7 13  1  0
 15  6  2  0
 13  6  1  0
  6 14  2  0
  3 17  1  0
  4 18  1  0
  5 19  1  0
  7 29  1  0
  7 20  1  0
  8 21  1  0
  9 22  1  0
  9 23  1  0
 10 24  1  0
 10 25  1  0
 11 26  1  0
 11 27  1  0
 12 28  1  0
M  END
