
     RDKit          3D

 14 15  0  0  0  0  0  0  0  0999 V2000
   -0.7134    0.0282   -2.0687 C   0  0  0  0  0  0  0  0  0  0  0  0
   -1.5172    0.0323   -1.0679 N   0  0  0  0  0  0  0  0  0  0  0  0
   -0.8178    0.0144    0.1176 C   0  0  0  0  0  0  0  0  0  0  0  0
    0.9832    0.0029   -1.7024 S   0  0  0  0  0  0  0  0  0  0  0  0
    0.5798   -0.0035   -0.0204 C   0  0  0  0  0  0  0  0  0  0  0  0
    1.4233   -0.0224    1.0858 C   0  0  0  0  0  0  0  0  0  0  0  0
    0.8421   -0.0236    2.3402 C   0  0  0  0  0  0  0  0  0  0  0  0
   -0.5501   -0.0060    2.4928 C   0  0  0  0  0  0  0  0  0  0  0  0
   -1.3849    0.0129    1.3933 C   0  0  0  0  0  0  0  0  0  0  0  0
   -1.0383    0.0400   -3.1005 H   0  0  0  0  0  0  0  0  0  0  0  0
    2.4988   -0.0356    0.9719 H   0  0  0  0  0  0  0  0  0  0  0  0
    1.4755   -0.0383    3.2170 H   0  0  0  0  0  0  0  0  0  0  0  0
   -0.9756   -0.0076    3.4876 H   0  0  0  0  0  0  0  0  0  0  0  0
   -2.4611    0.0265    1.5054 H   0  0  0  0  0  0  0  0  0  0  0  0
  1  2  2  0
  1  4  1  0
  1 10  1  0
  2  3  1  0
  3  5  2  0
  3  9  1  0
  4  5  1  0
  5  6  1  0
  6  7  2  0
  6 11  1  0
  7  8  1  0
  7 12  1  0
  8  9  2  0
  8 13  1  0
  9 14  1  0
M  END
