
     RDKit          3D

 49 52  0  0  0  0  0  0  0  0999 V2000
    3.8900    1.6968    1.3448 C   0  0  0  0  0  0  0  0  0  0  0  0
    5.2108    1.0219    1.0713 C   0  0  0  0  0  0  0  0  0  0  0  0
    1.5729   -2.4482    0.4340 C   0  0  0  0  0  0  0  0  0  0  0  0
    3.9421   -1.0320    0.6115 C   0  0  0  0  0  0  0  0  0  0  0  0
    3.8350   -2.2749    1.2227 C   0  0  0  0  0  0  0  0  0  0  0  0
    2.6478   -2.9819    1.1272 C   0  0  0  0  0  0  0  0  0  0  0  0
    1.6773   -1.2157   -0.2109 C   0  0  0  0  0  0  0  0  0  0  0  0
    2.8802   -0.5071   -0.1381 C   0  0  0  0  0  0  0  0  0  0  0  0
    3.5170    3.1009   -0.7372 C   0  0  0  0  0  0  0  0  0  0  0  0
    3.0430    1.9026    0.0675 C   0  0  1  0  0  0  0  0  0  0  0  0
    6.2880    1.5876    1.1572 O   0  0  0  0  0  0  0  0  0  0  0  0
    5.1318   -0.2938    0.7291 N   0  0  0  0  0  0  0  0  0  0  0  0
    3.0283    0.7323   -0.8045 N   0  0  0  0  0  0  0  0  0  0  0  0
    0.5199   -0.7040   -0.9801 C   0  0  0  0  0  0  0  0  0  0  0  0
    0.6361   -0.3739   -2.3329 C   0  0  0  0  0  0  0  0  0  0  0  0
   -0.4821    0.0349   -3.0347 C   0  0  0  0  0  0  0  0  0  0  0  0
   -1.7273    0.1376   -2.4202 C   0  0  0  0  0  0  0  0  0  0  0  0
   -1.8449   -0.1846   -1.0728 C   0  0  0  0  0  0  0  0  0  0  0  0
   -0.7190   -0.6075   -0.3622 C   0  0  0  0  0  0  0  0  0  0  0  0
   -2.9943   -0.1192   -0.3682 O   0  0  0  0  0  0  0  0  0  0  0  0
   -4.1841    0.2633   -1.0456 C   0  0  0  0  0  0  0  0  0  0  0  0
   -5.2960    0.2394   -0.0413 C   0  0  0  0  0  0  0  0  0  0  0  0
   -6.0111   -0.9324    0.1895 C   0  0  0  0  0  0  0  0  0  0  0  0
   -7.0218   -0.9660    1.1403 C   0  0  0  0  0  0  0  0  0  0  0  0
   -7.3247    0.1754    1.8721 C   0  0  0  0  0  0  0  0  0  0  0  0
   -6.6151    1.3484    1.6489 C   0  0  0  0  0  0  0  0  0  0  0  0
   -5.6049    1.3778    0.6970 C   0  0  0  0  0  0  0  0  0  0  0  0
    3.3256    1.0932    2.0610 H   0  0  0  0  0  0  0  0  0  0  0  0
    4.0791    2.6596    1.8194 H   0  0  0  0  0  0  0  0  0  0  0  0
    0.6479   -3.0073    0.3693 H   0  0  0  0  0  0  0  0  0  0  0  0
    4.6700   -2.6738    1.7846 H   0  0  0  0  0  0  0  0  0  0  0  0
    2.5563   -3.9482    1.6052 H   0  0  0  0  0  0  0  0  0  0  0  0
    4.5425    2.9651   -1.0900 H   0  0  0  0  0  0  0  0  0  0  0  0
    2.8799    3.2554   -1.6078 H   0  0  0  0  0  0  0  0  0  0  0  0
    3.4926    4.0067   -0.1325 H   0  0  0  0  0  0  0  0  0  0  0  0
    2.0171    2.0906    0.3977 H   0  0  0  0  0  0  0  0  0  0  0  0
    6.0065   -0.7956    0.6576 H   0  0  0  0  0  0  0  0  0  0  0  0
    3.8768    0.7185   -1.3616 H   0  0  0  0  0  0  0  0  0  0  0  0
    1.5913   -0.4515   -2.8316 H   0  0  0  0  0  0  0  0  0  0  0  0
   -0.3951    0.2781   -4.0859 H   0  0  0  0  0  0  0  0  0  0  0  0
   -2.5774    0.4642   -3.0035 H   0  0  0  0  0  0  0  0  0  0  0  0
   -0.8248   -0.8528    0.6883 H   0  0  0  0  0  0  0  0  0  0  0  0
   -4.0762    1.2657   -1.4737 H   0  0  0  0  0  0  0  0  0  0  0  0
   -4.3945   -0.4301   -1.8667 H   0  0  0  0  0  0  0  0  0  0  0  0
   -5.7809   -1.8228   -0.3840 H   0  0  0  0  0  0  0  0  0  0  0  0
   -7.5750   -1.8812    1.3076 H   0  0  0  0  0  0  0  0  0  0  0  0
   -8.1145    0.1520    2.6115 H   0  0  0  0  0  0  0  0  0  0  0  0
   -6.8494    2.2407    2.2148 H   0  0  0  0  0  0  0  0  0  0  0  0
   -5.0565    2.2961    0.5221 H   0  0  0  0  0  0  0  0  0  0  0  0
 24 25  1  0
 24 23  2  0
 12  4  1  0
 12  2  1  0
  5  6  1  0
  5  4  2  0
 25 26  2  0
 11  2  2  0
 23 22  1  0
  6  3  2  0
  4  8  1  0
 26 27  1  0
 22 27  2  0
 22 21  1  0
  2  1  1  0
 21 20  1  0
  3  7  1  0
  8  7  2  0
  8 13  1  0
  7 14  1  0
 13 10  1  0
 19 14  1  0
 19 18  2  0
  9 10  1  0
  1 10  1  0
 20 18  1  0
 14 15  2  0
 18 17  1  0
 15 16  1  0
 17 16  2  0
  1 28  1  0
  1 29  1  0
  3 30  1  0
  5 31  1  0
  6 32  1  0
  9 33  1  0
  9 34  1  0
  9 35  1  0
 10 36  1  1
 12 37  1  0
 13 38  1  0
 15 39  1  0
 16 40  1  0
 17 41  1  0
 19 42  1  0
 21 43  1  0
 21 44  1  0
 23 45  1  0
 24 46  1  0
 25 47  1  0
 26 48  1  0
 27 49  1  0
M  END
