
     RDKit          3D

 44 46  0  0  0  0  0  0  0  0999 V2000
   -0.1430   -3.2931    0.5650 O   0  0  0  0  0  0  0  0  0  0  0  0
   -0.0303   -2.1144    0.2697 C   0  0  0  0  0  0  0  0  0  0  0  0
    1.2857   -1.4298    0.3138 C   0  0  0  0  0  0  0  0  0  0  0  0
    1.3864   -0.0993    0.0138 N   0  0  0  0  0  0  0  0  0  0  0  0
    2.4459   -2.0406    0.6593 C   0  0  0  0  0  0  0  0  0  0  0  0
    3.7408   -0.9143    0.6180 S   0  0  0  0  0  0  0  0  0  0  0  0
    2.6068    0.3056    0.1321 C   0  0  0  0  0  0  0  0  0  0  0  0
    2.9644    1.6059   -0.1071 N   0  0  0  0  0  0  0  0  0  0  0  0
    4.2330    2.0937    0.0309 C   0  0  0  0  0  0  0  0  0  0  0  0
    5.1445    1.3593    0.3605 O   0  0  0  0  0  0  0  0  0  0  0  0
    4.3755    3.5645   -0.2159 C   0  0  0  0  0  0  0  0  0  0  0  0
   -1.0358   -1.2992   -0.1091 N   0  0  0  0  0  0  0  0  0  0  0  0
   -2.3996   -1.5611   -0.2177 C   0  0  0  0  0  0  0  0  0  0  0  0
   -3.2266   -0.4233   -0.3226 C   0  0  0  0  0  0  0  0  0  0  0  0
   -4.5920   -0.5938   -0.5051 C   0  0  0  0  0  0  0  0  0  0  0  0
   -5.1490   -1.8653   -0.5709 C   0  0  0  0  0  0  0  0  0  0  0  0
   -4.3325   -2.9772   -0.4441 C   0  0  0  0  0  0  0  0  0  0  0  0
   -2.9615   -2.8337   -0.2704 C   0  0  0  0  0  0  0  0  0  0  0  0
   -2.6002    0.8400   -0.2506 N   0  0  0  0  0  0  0  0  0  0  0  0
   -3.1455    1.8860   -1.1016 C   0  0  0  0  0  0  0  0  0  0  0  0
   -2.1658    3.0474   -1.1841 C   0  0  0  0  0  0  0  0  0  0  0  0
   -1.8399    3.5822    0.2057 C   0  0  0  0  0  0  0  0  0  0  0  0
   -1.3664    2.4550    1.1148 C   0  0  0  0  0  0  0  0  0  0  0  0
   -2.3636    1.3076    1.1157 C   0  0  0  0  0  0  0  0  0  0  0  0
    2.6058   -3.0712    0.9331 H   0  0  0  0  0  0  0  0  0  0  0  0
    2.2148    2.2239   -0.3855 H   0  0  0  0  0  0  0  0  0  0  0  0
    4.1046    4.1055    0.6927 H   0  0  0  0  0  0  0  0  0  0  0  0
    5.4059    3.8048   -0.4626 H   0  0  0  0  0  0  0  0  0  0  0  0
    3.7221    3.9125   -1.0144 H   0  0  0  0  0  0  0  0  0  0  0  0
   -0.7970   -0.3306   -0.3057 H   0  0  0  0  0  0  0  0  0  0  0  0
   -5.2321    0.2751   -0.5895 H   0  0  0  0  0  0  0  0  0  0  0  0
   -6.2158   -1.9810   -0.7098 H   0  0  0  0  0  0  0  0  0  0  0  0
   -4.7560   -3.9721   -0.4902 H   0  0  0  0  0  0  0  0  0  0  0  0
   -2.3393   -3.7110   -0.1946 H   0  0  0  0  0  0  0  0  0  0  0  0
   -3.3266    1.4701   -2.0942 H   0  0  0  0  0  0  0  0  0  0  0  0
   -4.1118    2.2592   -0.7262 H   0  0  0  0  0  0  0  0  0  0  0  0
   -1.2501    2.7071   -1.6770 H   0  0  0  0  0  0  0  0  0  0  0  0
   -2.5941    3.8342   -1.8090 H   0  0  0  0  0  0  0  0  0  0  0  0
   -1.0860    4.3698    0.1455 H   0  0  0  0  0  0  0  0  0  0  0  0
   -2.7376    4.0392    0.6359 H   0  0  0  0  0  0  0  0  0  0  0  0
   -0.3968    2.0798    0.7724 H   0  0  0  0  0  0  0  0  0  0  0  0
   -1.2282    2.8143    2.1370 H   0  0  0  0  0  0  0  0  0  0  0  0
   -3.3084    1.6316    1.5814 H   0  0  0  0  0  0  0  0  0  0  0  0
   -1.9849    0.4789    1.7168 H   0  0  0  0  0  0  0  0  0  0  0  0
 22 23  1  0
 22 21  1  0
 11  9  1  0
 23 24  1  0
 21 20  1  0
  9  8  1  0
  9 10  2  0
 24 19  1  0
 20 19  1  0
  8  7  1  0
 19 14  1  0
  7  4  2  0
  7  6  1  0
  4  3  1  0
 14 15  2  0
 14 13  1  0
 15 16  1  0
  6  5  1  0
 12 13  1  0
 12  2  1  0
 13 18  2  0
  3  2  1  0
  3  5  2  0
 16 17  2  0
  2  1  2  0
 18 17  1  0
  5 25  1  0
  8 26  1  0
 11 27  1  0
 11 28  1  0
 11 29  1  0
 12 30  1  0
 15 31  1  0
 16 32  1  0
 17 33  1  0
 18 34  1  0
 20 35  1  0
 20 36  1  0
 21 37  1  0
 21 38  1  0
 22 39  1  0
 22 40  1  0
 23 41  1  0
 23 42  1  0
 24 43  1  0
 24 44  1  0
M  END
