
     RDKit          3D

 23 24  0  0  0  0  0  0  0  0999 V2000
   -3.1950    0.3963    0.0861 C   0  0  0  0  0  0  0  0  0  0  0  0
   -2.8626   -0.8446   -0.4911 C   0  0  0  0  0  0  0  0  0  0  0  0
   -1.5595   -1.2813   -0.5079 C   0  0  0  0  0  0  0  0  0  0  0  0
   -0.5223   -0.4975    0.0143 C   0  0  0  0  0  0  0  0  0  0  0  0
   -0.8544    0.7306    0.5987 C   0  0  0  0  0  0  0  0  0  0  0  0
   -2.1590    1.1685    0.6418 C   0  0  0  0  0  0  0  0  0  0  0  0
   -4.4808    0.8142    0.1415 N   0  0  0  0  0  0  0  0  0  0  0  0
    0.8347   -1.0402    0.0018 C   0  0  0  0  0  0  0  0  0  0  0  0
    1.8991   -0.1121   -0.0536 N   0  0  0  0  0  0  0  0  0  0  0  0
    1.0956   -2.2205    0.0351 O   0  0  0  0  0  0  0  0  0  0  0  0
    3.1921   -0.3688    0.3507 C   0  0  0  0  0  0  0  0  0  0  0  0
    3.9032    0.7342    0.0085 C   0  0  0  0  0  0  0  0  0  0  0  0
    3.0963    1.6523   -0.6213 N   0  0  0  0  0  0  0  0  0  0  0  0
    1.9126    1.1236   -0.6443 C   0  0  0  0  0  0  0  0  0  0  0  0
   -3.6428   -1.4591   -0.9233 H   0  0  0  0  0  0  0  0  0  0  0  0
   -1.3327   -2.2402   -0.9558 H   0  0  0  0  0  0  0  0  0  0  0  0
   -0.0945    1.3461    1.0627 H   0  0  0  0  0  0  0  0  0  0  0  0
   -2.3924    2.1151    1.1130 H   0  0  0  0  0  0  0  0  0  0  0  0
   -5.1656    0.3683   -0.4448 H   0  0  0  0  0  0  0  0  0  0  0  0
   -4.6712    1.7773    0.3593 H   0  0  0  0  0  0  0  0  0  0  0  0
    3.4717   -1.2797    0.8503 H   0  0  0  0  0  0  0  0  0  0  0  0
    4.9511    0.9228    0.1806 H   0  0  0  0  0  0  0  0  0  0  0  0
    1.0366    1.5561   -1.1013 H   0  0  0  0  0  0  0  0  0  0  0  0
  1  2  2  0
  1  6  1  0
  1  7  1  0
  2  3  1  0
  3  4  2  0
  4  5  1  0
  4  8  1  0
  5  6  2  0
  8  9  1  0
  8 10  2  0
  9 11  1  0
  9 14  1  0
 11 12  2  0
 12 13  1  0
 13 14  2  0
  2 15  1  0
  3 16  1  0
  5 17  1  0
  6 18  1  0
  7 19  1  0
  7 20  1  0
 11 21  1  0
 12 22  1  0
 14 23  1  0
M  END
