
     RDKit          3D

 36 38  0  0  0  0  0  0  0  0999 V2000
    4.6192    2.0129    0.5860 C   0  0  0  0  0  0  0  0  0  0  0  0
    3.3793    1.9459    1.2091 C   0  0  0  0  0  0  0  0  0  0  0  0
    2.5178    0.8956    0.9543 C   0  0  0  0  0  0  0  0  0  0  0  0
    2.8877   -0.1257    0.0749 C   0  0  0  0  0  0  0  0  0  0  0  0
    1.9610   -1.2508   -0.1773 C   0  0  0  0  0  0  0  0  0  0  0  0
    2.3959   -2.5723   -0.2872 C   0  0  0  0  0  0  0  0  0  0  0  0
    1.4593   -3.5688   -0.4987 C   0  0  0  0  0  0  0  0  0  0  0  0
    0.1204   -3.2301   -0.6052 C   0  0  0  0  0  0  0  0  0  0  0  0
    4.1215   -0.0303   -0.5460 C   0  0  0  0  0  0  0  0  0  0  0  0
    5.0027    1.0225   -0.3077 C   0  0  0  0  0  0  0  0  0  0  0  0
    6.1710    1.0111   -0.9705 O   0  0  0  0  0  0  0  0  0  0  0  0
    0.6717   -0.9348   -0.2376 N   0  0  0  0  0  0  0  0  0  0  0  0
   -0.2198   -1.8926   -0.4474 C   0  0  0  0  0  0  0  0  0  0  0  0
   -1.6508   -1.4824   -0.5947 C   0  0  0  0  0  0  0  0  0  0  0  0
   -2.3007   -2.0201   -1.4881 O   0  0  0  0  0  0  0  0  0  0  0  0
   -2.2537   -0.4839    0.2870 C   0  0  0  0  0  0  0  0  0  0  0  0
   -3.5490   -0.0204   -0.0200 C   0  0  0  0  0  0  0  0  0  0  0  0
   -4.2532   -0.4315   -1.0734 O   0  0  0  0  0  0  0  0  0  0  0  0
   -4.1749    0.9311    0.7958 C   0  0  0  0  0  0  0  0  0  0  0  0
   -5.4028    1.4116    0.5349 O   0  0  0  0  0  0  0  0  0  0  0  0
   -3.4965    1.3735    1.9147 C   0  0  0  0  0  0  0  0  0  0  0  0
   -4.1019    2.2734    2.6935 F   0  0  0  0  0  0  0  0  0  0  0  0
   -2.2345    0.9129    2.2606 C   0  0  0  0  0  0  0  0  0  0  0  0
   -1.6210   -0.0106    1.4467 C   0  0  0  0  0  0  0  0  0  0  0  0
    5.2909    2.8379    0.7924 H   0  0  0  0  0  0  0  0  0  0  0  0
    3.0911    2.7252    1.9015 H   0  0  0  0  0  0  0  0  0  0  0  0
    1.5551    0.8487    1.4437 H   0  0  0  0  0  0  0  0  0  0  0  0
    3.4404   -2.8259   -0.1817 H   0  0  0  0  0  0  0  0  0  0  0  0
    1.7708   -4.6014   -0.5794 H   0  0  0  0  0  0  0  0  0  0  0  0
   -0.6351   -3.9825   -0.7828 H   0  0  0  0  0  0  0  0  0  0  0  0
    6.6971    1.7816   -0.7286 H   0  0  0  0  0  0  0  0  0  0  0  0
   -3.7431   -1.1519   -1.5101 H   0  0  0  0  0  0  0  0  0  0  0  0
   -5.7758    0.9706   -0.2383 H   0  0  0  0  0  0  0  0  0  0  0  0
   -1.7548    1.2794    3.1577 H   0  0  0  0  0  0  0  0  0  0  0  0
   -0.6453   -0.3793    1.7188 H   0  0  0  0  0  0  0  0  0  0  0  0
    4.5032   -0.9598   -1.4359 F   0  0  0  0  0  0  0  0  0  0  0  0
 36  9  1  0
 11 10  1  0
 15 14  2  0
 18 17  1  0
  9 10  1  0
  9  4  2  0
 10  1  2  0
  8  7  1  0
  8 13  2  0
  7  6  2  0
 14 13  1  0
 14 16  1  0
 13 12  1  0
  6  5  1  0
 12  5  2  0
  5  4  1  0
  4  3  1  0
 17 16  2  0
 17 19  1  0
  1  2  1  0
 16 24  1  0
 20 19  1  0
 19 21  2  0
  3  2  2  0
 24 23  2  0
 21 23  1  0
 21 22  1  0
  1 25  1  0
  2 26  1  0
  3 27  1  0
  6 28  1  0
  7 29  1  0
  8 30  1  0
 11 31  1  0
 18 32  1  0
 20 33  1  0
 23 34  1  0
 24 35  1  0
M  END
