
     RDKit          3D

 23 23  0  0  0  0  0  0  0  0999 V2000
   -3.7821    1.0107   -0.2285 O   0  0  0  0  0  0  0  0  0  0  0  0
   -2.8894    0.1354    0.2209 C   0  0  0  0  0  0  0  0  0  0  0  0
   -3.1216   -0.6491    1.1058 O   0  0  0  0  0  0  0  0  0  0  0  0
   -1.5786    0.2566   -0.5076 C   0  0  0  0  0  0  0  0  0  0  0  0
   -0.5374   -0.7400   -0.0281 C   0  0  0  0  0  0  0  0  0  0  0  0
    0.7504   -0.6736   -0.8404 C   0  0  2  0  0  0  0  0  0  0  0  0
    1.8300   -1.6364   -0.3198 C   0  0  0  0  0  0  0  0  0  0  0  0
    2.6461   -0.7587    0.5058 N   0  0  0  0  0  0  0  0  0  0  0  0
    2.4570    0.5089    0.1490 C   0  0  0  0  0  0  0  0  0  0  0  0
    3.1729    1.5240    0.5821 N   0  0  0  0  0  0  0  0  0  0  0  0
    1.4431    0.6064   -0.7047 N   0  0  0  0  0  0  0  0  0  0  0  0
   -4.6151    0.9143    0.2566 H   0  0  0  0  0  0  0  0  0  0  0  0
   -1.7698    0.1297   -1.5781 H   0  0  0  0  0  0  0  0  0  0  0  0
   -1.2319    1.2877   -0.3882 H   0  0  0  0  0  0  0  0  0  0  0  0
   -0.3120   -0.5802    1.0297 H   0  0  0  0  0  0  0  0  0  0  0  0
   -0.9261   -1.7562   -0.1212 H   0  0  0  0  0  0  0  0  0  0  0  0
    0.5376   -0.8644   -1.8928 H   0  0  0  0  0  0  0  0  0  0  0  0
    1.4085   -2.4497    0.2678 H   0  0  0  0  0  0  0  0  0  0  0  0
    3.9603    1.3831    1.1922 H   0  0  0  0  0  0  0  0  0  0  0  0
    2.9575    2.4682    0.3098 H   0  0  0  0  0  0  0  0  0  0  0  0
    2.4195   -2.0606   -1.1342 H   0  0  0  0  0  0  0  0  0  0  0  0
    3.4989   -1.0720    0.9415 H   0  0  0  0  0  0  0  0  0  0  0  0
    1.0434    1.4901   -0.9762 H   0  0  0  0  0  0  0  0  0  0  0  0
  2  1  1  0
  1 12  1  0
  4  2  1  0
  3  2  2  0
  4  5  1  0
  4 13  1  0
  4 14  1  0
  5  6  1  0
  5 15  1  0
  5 16  1  0
  6 11  1  0
  6  7  1  0
  6 17  1  6
  7  8  1  0
  7 18  1  0
  9  8  1  0
 11  9  1  0
  9 10  2  0
 10 19  1  0
 10 20  1  0
  7 21  1  0
  8 22  1  0
 11 23  1  0
M  CHG  1  10   1
M  END
