
     RDKit          3D

 19 20  0  0  0  0  0  0  0  0999 V2000
   -2.7424   -0.0376    0.2056 C   0  0  0  0  0  0  0  0  0  0  0  0
   -2.6139   -1.4085    0.0509 C   0  0  0  0  0  0  0  0  0  0  0  0
   -1.3600   -1.9636   -0.1159 C   0  0  0  0  0  0  0  0  0  0  0  0
   -0.2282   -1.1512   -0.1462 C   0  0  0  0  0  0  0  0  0  0  0  0
   -0.4047    0.2218   -0.0159 C   0  0  0  0  0  0  0  0  0  0  0  0
   -1.6515    0.8002    0.1749 C   0  0  0  0  0  0  0  0  0  0  0  0
    2.2146   -1.1389    0.1014 C   0  0  0  0  0  0  0  0  0  0  0  0
   -3.9601    0.4856    0.3854 F   0  0  0  0  0  0  0  0  0  0  0  0
    1.0348   -1.7059   -0.2847 N   0  0  0  0  0  0  0  0  0  0  0  0
    2.1229    0.2008    0.4525 N   0  0  0  0  0  0  0  0  0  0  0  0
    3.2531   -1.7535    0.1747 O   0  0  0  0  0  0  0  0  0  0  0  0
    1.0046    1.2327   -0.2371 S   0  0  1  0  0  0  0  0  0  0  0  0
   -3.4886   -2.0443    0.0753 H   0  0  0  0  0  0  0  0  0  0  0  0
   -1.2561   -3.0364   -0.2112 H   0  0  0  0  0  0  0  0  0  0  0  0
   -1.7680    1.8704    0.2877 H   0  0  0  0  0  0  0  0  0  0  0  0
    1.0846   -2.6934   -0.4936 H   0  0  0  0  0  0  0  0  0  0  0  0
    2.9902    0.6394    0.7497 H   0  0  0  0  0  0  0  0  0  0  0  0
    1.2598    1.3685   -1.6571 O   0  0  0  0  0  0  0  0  0  0  0  0
    0.9451    2.4234    0.5831 O   0  0  0  0  0  0  0  0  0  0  0  0
  3  2  1  0
  3  4  2  0
 11  7  2  0
  9  4  1  0
  9  7  1  0
  2  1  2  0
  4  5  1  0
  7 10  1  0
  1  8  1  0
  1  6  1  0
  5  6  2  0
  5 12  1  0
 12 10  1  1
 12 19  2  0
 12 18  2  0
  2 13  1  0
  3 14  1  0
  6 15  1  0
  9 16  1  0
 10 17  1  0
M  END
