
     RDKit          3D

 44 46  0  0  0  0  0  0  0  0999 V2000
    2.2615   -0.8031   -0.0457 C   0  0  0  0  0  0  0  0  0  0  0  0
    0.9727   -0.3534   -0.0947 C   0  0  0  0  0  0  0  0  0  0  0  0
    0.2251   -1.5636   -0.1150 C   0  0  0  0  0  0  0  0  0  0  0  0
   -1.2193   -1.7774   -0.1345 C   0  0  0  0  0  0  0  0  0  0  0  0
    3.4124   -0.0766    0.0279 N   0  0  0  0  0  0  0  0  0  0  0  0
    0.8333    1.9094   -1.1311 C   0  0  0  0  0  0  0  0  0  0  0  0
    0.4378    3.2330   -1.1061 C   0  0  0  0  0  0  0  0  0  0  0  0
   -0.2736    3.7336   -0.0136 C   0  0  0  0  0  0  0  0  0  0  0  0
   -0.1581    1.5632    1.0182 C   0  0  0  0  0  0  0  0  0  0  0  0
    1.0239   -2.6014   -0.0855 N   0  0  0  0  0  0  0  0  0  0  0  0
    2.3041   -2.1261   -0.0350 O   0  0  0  0  0  0  0  0  0  0  0  0
    0.5419    1.0502   -0.0693 C   0  0  0  0  0  0  0  0  0  0  0  0
   -0.5705    2.8871    1.0539 C   0  0  0  0  0  0  0  0  0  0  0  0
   -2.0868   -0.7632   -0.5429 C   0  0  0  0  0  0  0  0  0  0  0  0
   -3.4518   -0.9332   -0.5293 C   0  0  0  0  0  0  0  0  0  0  0  0
   -4.0078   -2.1414   -0.0959 C   0  0  0  0  0  0  0  0  0  0  0  0
   -3.1594   -3.1664    0.2931 C   0  0  0  0  0  0  0  0  0  0  0  0
   -1.7767   -3.0088    0.2649 C   0  0  0  0  0  0  0  0  0  0  0  0
   -1.0445   -4.0613    0.6377 O   0  0  0  0  0  0  0  0  0  0  0  0
   -5.3375   -2.2528   -0.0856 O   0  0  0  0  0  0  0  0  0  0  0  0
   -4.4996    0.3418   -1.0462 Cl  0  0  0  0  0  0  0  0  0  0  0  0
   -1.3266    5.5958    1.0147 C   0  0  0  0  0  0  0  0  0  0  0  0
    4.7108   -0.5392   -0.0235 C   0  0  0  0  0  0  0  0  0  0  0  0
    5.7322    0.5620    0.1176 C   0  0  0  0  0  0  0  0  0  0  0  0
    4.9796   -1.7089   -0.1662 O   0  0  0  0  0  0  0  0  0  0  0  0
    7.1646    0.0658    0.0635 C   0  0  0  0  0  0  0  0  0  0  0  0
    3.2752    0.9208    0.1227 H   0  0  0  0  0  0  0  0  0  0  0  0
    1.3669    1.5340   -1.9960 H   0  0  0  0  0  0  0  0  0  0  0  0
    0.6705    3.8877   -1.9365 H   0  0  0  0  0  0  0  0  0  0  0  0
   -0.3905    0.9198    1.8576 H   0  0  0  0  0  0  0  0  0  0  0  0
   -1.1132    3.2390    1.9204 H   0  0  0  0  0  0  0  0  0  0  0  0
   -1.6872    0.1793   -0.8881 H   0  0  0  0  0  0  0  0  0  0  0  0
   -3.5706   -4.1155    0.6176 H   0  0  0  0  0  0  0  0  0  0  0  0
   -0.0927   -3.8773    0.5041 H   0  0  0  0  0  0  0  0  0  0  0  0
   -5.6041   -3.1199    0.2429 H   0  0  0  0  0  0  0  0  0  0  0  0
   -1.5102    6.6352    0.7550 H   0  0  0  0  0  0  0  0  0  0  0  0
   -2.2863    5.1024    1.1879 H   0  0  0  0  0  0  0  0  0  0  0  0
   -0.7402    5.5611    1.9364 H   0  0  0  0  0  0  0  0  0  0  0  0
    5.5517    1.3005   -0.6694 H   0  0  0  0  0  0  0  0  0  0  0  0
    5.5419    1.0853    1.0596 H   0  0  0  0  0  0  0  0  0  0  0  0
    7.3685   -0.6641    0.8458 H   0  0  0  0  0  0  0  0  0  0  0  0
    7.3959   -0.3943   -0.8963 H   0  0  0  0  0  0  0  0  0  0  0  0
    7.8476    0.9022    0.2036 H   0  0  0  0  0  0  0  0  0  0  0  0
   -0.6273    5.0279   -0.0762 O   0  0  0  0  0  0  0  0  0  0  0  0
 22 44  1  0
 20 16  1  0
 44  8  1  0
 16 17  2  0
 16 15  1  0
 21 15  1  0
 17 18  1  0
  7  8  1  0
  7  6  2  0
 15 14  2  0
  8 13  2  0
  6 12  1  0
 18 19  1  0
 18  4  2  0
 14  4  1  0
 13  9  1  0
  4  3  1  0
 12  9  2  0
 12  2  1  0
 26 24  1  0
  3  2  1  0
  3 10  2  0
  2  1  2  0
 24 23  1  0
 10 11  1  0
  1 11  1  0
  1  5  1  0
 23  5  1  0
 23 25  2  0
  5 27  1  0
  6 28  1  0
  7 29  1  0
  9 30  1  0
 13 31  1  0
 14 32  1  0
 17 33  1  0
 19 34  1  0
 20 35  1  0
 22 36  1  0
 22 37  1  0
 22 38  1  0
 24 39  1  0
 24 40  1  0
 26 41  1  0
 26 42  1  0
 26 43  1  0
M  END
