
     RDKit          3D

  4  3  0  0  0  0  0  0  0  0999 V2000
   -0.5939    0.0289    0.0404 C   0  0  0  0  0  0  0  0  0  0  0  0
    0.6065    0.0233    0.0399 C   0  0  0  0  0  0  0  0  0  0  0  0
   -1.6600    0.0337    0.0409 H   0  0  0  0  0  0  0  0  0  0  0  0
    1.6726    0.0181    0.0392 H   0  0  0  0  0  0  0  0  0  0  0  0
  2  1  3  0
  1  3  1  0
  2  4  1  0
M  END
