
     RDKit          3D

 53 52  0  0  0  0  0  0  0  0999 V2000
    1.4633   -0.0064   -1.0640 C   0  0  0  0  0  0  0  0  0  0  0  0
    5.2966   -0.0134   -0.4504 C   0  0  0  0  0  0  0  0  0  0  0  0
   -2.7865    0.0019   -0.2980 C   0  0  0  0  0  0  0  0  0  0  0  0
   -5.3064   -0.0038   -0.4823 C   0  0  0  0  0  0  0  0  0  0  0  0
   -0.0056    0.0003   -0.0082 P   0  0  1  0  0  0  0  0  0  0  0  0
   -0.0119   -1.4625    1.0557 C   0  0  0  0  0  0  0  0  0  0  0  0
   -0.0213   -2.7800    0.2834 C   0  0  0  0  0  0  0  0  0  0  0  0
   -0.0239   -3.9798    1.2245 C   0  0  0  0  0  0  0  0  0  0  0  0
   -0.0373   -5.2997    0.4673 C   0  0  0  0  0  0  0  0  0  0  0  0
   -0.0044    1.4701    1.0463 C   0  0  0  0  0  0  0  0  0  0  0  0
    0.0017    2.7823    0.2652 C   0  0  0  0  0  0  0  0  0  0  0  0
    0.0029    3.9888    1.1978 C   0  0  0  0  0  0  0  0  0  0  0  0
    0.0050    5.3031    0.4311 C   0  0  0  0  0  0  0  0  0  0  0  0
    2.7760   -0.0115   -0.2835 C   0  0  0  0  0  0  0  0  0  0  0  0
    3.9820   -0.0145   -1.2167 C   0  0  0  0  0  0  0  0  0  0  0  0
   -1.4693    0.0003   -1.0709 C   0  0  0  0  0  0  0  0  0  0  0  0
   -3.9864    0.0019   -1.2391 C   0  0  0  0  0  0  0  0  0  0  0  0
    1.3875   -0.8808   -1.7160 H   0  0  0  0  0  0  0  0  0  0  0  0
    1.3944    0.8687   -1.7161 H   0  0  0  0  0  0  0  0  0  0  0  0
    6.1509   -0.0206   -1.1273 H   0  0  0  0  0  0  0  0  0  0  0  0
    5.3821    0.8718    0.1824 H   0  0  0  0  0  0  0  0  0  0  0  0
    5.3773   -0.8902    0.1946 H   0  0  0  0  0  0  0  0  0  0  0  0
   -2.8427   -0.8739    0.3553 H   0  0  0  0  0  0  0  0  0  0  0  0
   -2.8415    0.8788    0.3540 H   0  0  0  0  0  0  0  0  0  0  0  0
   -6.1559   -0.0033   -1.1652 H   0  0  0  0  0  0  0  0  0  0  0  0
   -5.3920   -0.8871    0.1530 H   0  0  0  0  0  0  0  0  0  0  0  0
   -5.3961    0.8748    0.1592 H   0  0  0  0  0  0  0  0  0  0  0  0
    0.8646   -1.3912    1.7055 H   0  0  0  0  0  0  0  0  0  0  0  0
   -0.8847   -1.3813    1.7093 H   0  0  0  0  0  0  0  0  0  0  0  0
   -0.9004   -2.8308   -0.3664 H   0  0  0  0  0  0  0  0  0  0  0  0
    0.8522   -2.8401   -0.3725 H   0  0  0  0  0  0  0  0  0  0  0  0
    0.8561   -3.9308    1.8717 H   0  0  0  0  0  0  0  0  0  0  0  0
   -0.8952   -3.9191    1.8823 H   0  0  0  0  0  0  0  0  0  0  0  0
   -0.9215   -5.3801   -0.1676 H   0  0  0  0  0  0  0  0  0  0  0  0
    0.8404   -5.3942   -0.1746 H   0  0  0  0  0  0  0  0  0  0  0  0
   -0.0415   -6.1492    1.1502 H   0  0  0  0  0  0  0  0  0  0  0  0
   -0.8811    1.4006    1.6959 H   0  0  0  0  0  0  0  0  0  0  0  0
    0.8682    1.3956    1.7010 H   0  0  0  0  0  0  0  0  0  0  0  0
    0.8799    2.8308   -0.3855 H   0  0  0  0  0  0  0  0  0  0  0  0
   -0.8726    2.8361   -0.3902 H   0  0  0  0  0  0  0  0  0  0  0  0
   -0.8731    3.9396    1.8503 H   0  0  0  0  0  0  0  0  0  0  0  0
    0.8782    3.9372    1.8512 H   0  0  0  0  0  0  0  0  0  0  0  0
    0.8855    5.3843   -0.2088 H   0  0  0  0  0  0  0  0  0  0  0  0
   -0.8765    5.3877   -0.2070 H   0  0  0  0  0  0  0  0  0  0  0  0
    0.0075    6.1577    1.1077 H   0  0  0  0  0  0  0  0  0  0  0  0
    2.8302    0.8639    0.3705 H   0  0  0  0  0  0  0  0  0  0  0  0
    2.8243   -0.8886    0.3686 H   0  0  0  0  0  0  0  0  0  0  0  0
    3.9322    0.8599   -1.8714 H   0  0  0  0  0  0  0  0  0  0  0  0
    3.9307   -0.8915   -1.8677 H   0  0  0  0  0  0  0  0  0  0  0  0
   -1.3939   -0.8753   -1.7214 H   0  0  0  0  0  0  0  0  0  0  0  0
   -1.3930    0.8741   -1.7235 H   0  0  0  0  0  0  0  0  0  0  0  0
   -3.9332    0.8796   -1.8891 H   0  0  0  0  0  0  0  0  0  0  0  0
   -3.9292   -0.8717   -1.8942 H   0  0  0  0  0  0  0  0  0  0  0  0
  5  1  1  6
  1 14  1  0
  2 15  1  0
  3 16  1  0
  3 17  1  0
  4 17  1  0
  5  6  1  0
  5 10  1  0
  5 16  1  0
  6  7  1  0
  7  8  1  0
  8  9  1  0
 10 11  1  0
 11 12  1  0
 12 13  1  0
 14 15  1  0
  1 18  1  0
  1 19  1  0
  2 20  1  0
  2 21  1  0
  2 22  1  0
  3 23  1  0
  3 24  1  0
  4 25  1  0
  4 26  1  0
  4 27  1  0
  6 28  1  0
  6 29  1  0
  7 30  1  0
  7 31  1  0
  8 32  1  0
  8 33  1  0
  9 34  1  0
  9 35  1  0
  9 36  1  0
 10 37  1  0
 10 38  1  0
 11 39  1  0
 11 40  1  0
 12 41  1  0
 12 42  1  0
 13 43  1  0
 13 44  1  0
 13 45  1  0
 14 46  1  0
 14 47  1  0
 15 48  1  0
 15 49  1  0
 16 50  1  0
 16 51  1  0
 17 52  1  0
 17 53  1  0
M  CHG  1   5   1
M  END
