
     RDKit          3D

166166  0  0  0  0  0  0  0  0999 V2000
    5.4945    5.8205    0.9588 C   0  0  2  0  0  0  0  0  0  0  0  0
    4.9237    4.8619    1.9982 C   0  0  2  0  0  0  0  0  0  0  0  0
    3.4063    4.7931    1.8432 C   0  0  2  0  0  0  0  0  0  0  0  0
    3.0774    4.4030    0.4050 C   0  0  2  0  0  0  0  0  0  0  0  0
    5.0563    5.3936   -0.4463 C   0  0  1  0  0  0  0  0  0  0  0  0
   19.4614  -12.3577    1.8854 C   0  0  0  0  0  0  0  0  0  0  0  0
   19.2015  -10.8773    1.6434 C   0  0  0  0  0  0  0  0  0  0  0  0
   17.7319  -10.5670    1.3861 C   0  0  0  0  0  0  0  0  0  0  0  0
   17.4598   -9.0873    1.1477 C   0  0  0  0  0  0  0  0  0  0  0  0
   15.9894   -8.7769    0.8962 C   0  0  0  0  0  0  0  0  0  0  0  0
   15.7179   -7.2964    0.6621 C   0  0  0  0  0  0  0  0  0  0  0  0
   14.2472   -6.9832    0.4158 C   0  0  0  0  0  0  0  0  0  0  0  0
   13.9783   -5.5015    0.1862 C   0  0  0  0  0  0  0  0  0  0  0  0
   12.5075   -5.1826   -0.0519 C   0  0  0  0  0  0  0  0  0  0  0  0
   12.2445   -3.6991   -0.2770 C   0  0  0  0  0  0  0  0  0  0  0  0
   10.7732   -3.3699   -0.4984 C   0  0  0  0  0  0  0  0  0  0  0  0
   10.5215   -1.8843   -0.7209 C   0  0  0  0  0  0  0  0  0  0  0  0
    8.8339   -0.0459   -1.1263 C   0  0  0  0  0  0  0  0  0  0  0  0
    7.3697    0.3435   -1.3101 C   0  0  1  0  0  0  0  0  0  0  0  0
    6.5839   -0.0971   -0.2143 O   0  0  0  0  0  0  0  0  0  0  0  0
    7.1886    1.8656   -1.4973 C   0  0  1  0  0  0  0  0  0  0  0  0
    8.2182    2.4531   -2.2590 O   0  0  0  0  0  0  0  0  0  0  0  0
    5.8369    2.2602   -2.1265 C   0  0  1  0  0  0  0  0  0  0  0  0
    5.6702    4.1839   -0.7369 O   0  0  0  0  0  0  0  0  0  0  0  0
    6.8939    5.8377    1.0978 O   0  0  0  0  0  0  0  0  0  0  0  0
    5.2355    5.2651    3.3072 O   0  0  0  0  0  0  0  0  0  0  0  0
    3.6587    5.3151   -0.5135 O   0  0  0  0  0  0  0  0  0  0  0  0
    1.5870    4.3658    0.1468 C   0  0  0  0  0  0  0  0  0  0  0  0
    1.3708    3.8301   -1.1373 O   0  0  0  0  0  0  0  0  0  0  0  0
    2.8063    6.0352    2.1345 O   0  0  0  0  0  0  0  0  0  0  0  0
    2.1934    6.1241    3.4044 C   0  0  0  0  0  0  0  0  0  0  0  0
    1.7023    7.5214    3.5914 C   0  0  0  0  0  0  0  0  0  0  0  0
    0.4445    7.8357    3.8732 C   0  0  0  0  0  0  0  0  0  0  0  0
    4.7213    1.5719   -1.5179 N   0  0  0  0  0  0  0  0  0  0  0  0
    3.5735    1.3086   -2.1700 C   0  0  0  0  0  0  0  0  0  0  0  0
    3.4089    1.5857   -3.3503 O   0  0  0  0  0  0  0  0  0  0  0  0
    2.5080    0.6434   -1.3228 C   0  0  0  0  0  0  0  0  0  0  0  0
    1.1816    0.4551   -2.0401 C   0  0  0  0  0  0  0  0  0  0  0  0
    0.0565    0.0780   -1.0847 C   0  0  0  0  0  0  0  0  0  0  0  0
   -1.2797   -0.1049   -1.7943 C   0  0  0  0  0  0  0  0  0  0  0  0
   -2.4572   -0.2643   -0.8414 C   0  0  0  0  0  0  0  0  0  0  0  0
   -3.7919   -0.4277   -1.5582 C   0  0  0  0  0  0  0  0  0  0  0  0
   -4.9818   -0.4889   -0.6086 C   0  0  0  0  0  0  0  0  0  0  0  0
   -6.3180   -0.6393   -1.3249 C   0  0  0  0  0  0  0  0  0  0  0  0
   -7.5095   -0.6652   -0.3754 C   0  0  0  0  0  0  0  0  0  0  0  0
   -8.8475   -0.8063   -1.0903 C   0  0  0  0  0  0  0  0  0  0  0  0
  -10.0385   -0.8201   -0.1399 C   0  0  0  0  0  0  0  0  0  0  0  0
  -11.3777   -0.9548   -0.8537 C   0  0  0  0  0  0  0  0  0  0  0  0
  -12.5682   -0.9643    0.0974 C   0  0  0  0  0  0  0  0  0  0  0  0
  -13.9082   -1.0944   -0.6160 C   0  0  0  0  0  0  0  0  0  0  0  0
  -15.0984   -1.1024    0.3355 C   0  0  0  0  0  0  0  0  0  0  0  0
  -16.4387   -1.2288   -0.3777 C   0  0  0  0  0  0  0  0  0  0  0  0
  -17.6288   -1.2361    0.5740 C   0  0  0  0  0  0  0  0  0  0  0  0
  -18.9695   -1.3588   -0.1392 C   0  0  0  0  0  0  0  0  0  0  0  0
  -20.1594   -1.3658    0.8127 C   0  0  0  0  0  0  0  0  0  0  0  0
  -21.5006   -1.4838    0.0996 C   0  0  0  0  0  0  0  0  0  0  0  0
  -22.6900   -1.4906    1.0520 C   0  0  0  0  0  0  0  0  0  0  0  0
  -24.0321   -1.6021    0.3394 C   0  0  0  0  0  0  0  0  0  0  0  0
  -25.2203   -1.6091    1.2932 C   0  0  0  0  0  0  0  0  0  0  0  0
  -26.5650   -1.7121    0.5834 C   0  0  0  0  0  0  0  0  0  0  0  0
  -27.7421   -1.7174    1.5492 C   0  0  0  0  0  0  0  0  0  0  0  0
    5.0708    6.8158    1.1439 H   0  0  0  0  0  0  0  0  0  0  0  0
    5.3163    3.8528    1.8020 H   0  0  0  0  0  0  0  0  0  0  0  0
    3.0155    4.0051    2.5024 H   0  0  0  0  0  0  0  0  0  0  0  0
    3.4726    3.3929    0.2364 H   0  0  0  0  0  0  0  0  0  0  0  0
    5.3329    6.1629   -1.1813 H   0  0  0  0  0  0  0  0  0  0  0  0
   19.1620  -12.9570    1.0233 H   0  0  0  0  0  0  0  0  0  0  0  0
   20.5171  -12.5550    2.0749 H   0  0  0  0  0  0  0  0  0  0  0  0
   18.8971  -12.7201    2.7467 H   0  0  0  0  0  0  0  0  0  0  0  0
   19.5460  -10.2983    2.5059 H   0  0  0  0  0  0  0  0  0  0  0  0
   19.7979  -10.5341    0.7922 H   0  0  0  0  0  0  0  0  0  0  0  0
   17.3861  -11.1448    0.5216 H   0  0  0  0  0  0  0  0  0  0  0  0
   17.1349  -10.9131    2.2374 H   0  0  0  0  0  0  0  0  0  0  0  0
   17.8086   -8.5102    2.0115 H   0  0  0  0  0  0  0  0  0  0  0  0
   18.0547   -8.7418    0.2948 H   0  0  0  0  0  0  0  0  0  0  0  0
   15.6405   -9.3520    0.0312 H   0  0  0  0  0  0  0  0  0  0  0  0
   15.3947   -9.1241    1.7485 H   0  0  0  0  0  0  0  0  0  0  0  0
   16.0699   -6.7217    1.5261 H   0  0  0  0  0  0  0  0  0  0  0  0
   16.3106   -6.9496   -0.1917 H   0  0  0  0  0  0  0  0  0  0  0  0
   13.8946   -7.5556   -0.4494 H   0  0  0  0  0  0  0  0  0  0  0  0
   13.6545   -7.3312    1.2692 H   0  0  0  0  0  0  0  0  0  0  0  0
   14.3362   -4.9296    1.0497 H   0  0  0  0  0  0  0  0  0  0  0  0
   14.5680   -5.1545   -0.6698 H   0  0  0  0  0  0  0  0  0  0  0  0
   12.1480   -5.7520   -0.9163 H   0  0  0  0  0  0  0  0  0  0  0  0
   11.9181   -5.5296    0.8042 H   0  0  0  0  0  0  0  0  0  0  0  0
   12.6145   -3.1305    0.5835 H   0  0  0  0  0  0  0  0  0  0  0  0
   12.8273   -3.3546   -1.1386 H   0  0  0  0  0  0  0  0  0  0  0  0
   10.3991   -3.9369   -1.3582 H   0  0  0  0  0  0  0  0  0  0  0  0
   10.1915   -3.7114    0.3650 H   0  0  0  0  0  0  0  0  0  0  0  0
   10.9175   -1.3186    0.1302 H   0  0  0  0  0  0  0  0  0  0  0  0
   11.0883   -1.5476   -1.5959 H   0  0  0  0  0  0  0  0  0  0  0  0
    8.6480   -2.0964   -1.7595 H   0  0  0  0  0  0  0  0  0  0  0  0
    8.4893   -1.8790   -0.0293 H   0  0  0  0  0  0  0  0  0  0  0  0
    9.2529    0.5160   -0.2811 H   0  0  0  0  0  0  0  0  0  0  0  0
    9.4047    0.2631   -2.0037 H   0  0  0  0  0  0  0  0  0  0  0  0
    6.9729   -0.1839   -2.1864 H   0  0  0  0  0  0  0  0  0  0  0  0
    7.0120    0.1987    0.5972 H   0  0  0  0  0  0  0  0  0  0  0  0
    7.2767    2.3162   -0.5026 H   0  0  0  0  0  0  0  0  0  0  0  0
    8.1728    2.1103   -3.1587 H   0  0  0  0  0  0  0  0  0  0  0  0
    5.8753    1.9671   -3.1822 H   0  0  0  0  0  0  0  0  0  0  0  0
    6.3831    4.2849   -2.6777 H   0  0  0  0  0  0  0  0  0  0  0  0
    4.6455    3.9924   -2.5336 H   0  0  0  0  0  0  0  0  0  0  0  0
    7.2328    6.6554    0.7217 H   0  0  0  0  0  0  0  0  0  0  0  0
    6.1907    5.3765    3.3625 H   0  0  0  0  0  0  0  0  0  0  0  0
    1.1267    3.7451    0.9270 H   0  0  0  0  0  0  0  0  0  0  0  0
    1.1659    5.3733    0.2440 H   0  0  0  0  0  0  0  0  0  0  0  0
    0.4225    3.7621   -1.2763 H   0  0  0  0  0  0  0  0  0  0  0  0
    1.3594    5.4151    3.4883 H   0  0  0  0  0  0  0  0  0  0  0  0
    2.9071    5.8815    4.1997 H   0  0  0  0  0  0  0  0  0  0  0  0
    2.4500    8.3050    3.5107 H   0  0  0  0  0  0  0  0  0  0  0  0
    0.1383    8.8611    4.0331 H   0  0  0  0  0  0  0  0  0  0  0  0
   -0.3279    7.0800    3.9575 H   0  0  0  0  0  0  0  0  0  0  0  0
    4.8164    1.2660   -0.5636 H   0  0  0  0  0  0  0  0  0  0  0  0
    2.8906   -0.3171   -0.9623 H   0  0  0  0  0  0  0  0  0  0  0  0
    2.3556    1.2571   -0.4305 H   0  0  0  0  0  0  0  0  0  0  0  0
    0.9095    1.3832   -2.5464 H   0  0  0  0  0  0  0  0  0  0  0  0
    1.2787   -0.3054   -2.8200 H   0  0  0  0  0  0  0  0  0  0  0  0
    0.3119   -0.8373   -0.5401 H   0  0  0  0  0  0  0  0  0  0  0  0
   -0.0421    0.8651   -0.3283 H   0  0  0  0  0  0  0  0  0  0  0  0
   -1.4613    0.7612   -2.4409 H   0  0  0  0  0  0  0  0  0  0  0  0
   -1.2242   -0.9713   -2.4625 H   0  0  0  0  0  0  0  0  0  0  0  0
   -2.2893   -1.1247   -0.1841 H   0  0  0  0  0  0  0  0  0  0  0  0
   -2.5054    0.6117   -0.1845 H   0  0  0  0  0  0  0  0  0  0  0  0
   -3.9312    0.4065   -2.2552 H   0  0  0  0  0  0  0  0  0  0  0  0
   -3.7681   -1.3340   -2.1738 H   0  0  0  0  0  0  0  0  0  0  0  0
   -4.8484   -1.3217    0.0909 H   0  0  0  0  0  0  0  0  0  0  0  0
   -4.9997    0.4197    0.0041 H   0  0  0  0  0  0  0  0  0  0  0  0
   -6.4418    0.1845   -2.0369 H   0  0  0  0  0  0  0  0  0  0  0  0
   -6.3098   -1.5572   -1.9236 H   0  0  0  0  0  0  0  0  0  0  0  0
   -7.3887   -1.4899    0.3359 H   0  0  0  0  0  0  0  0  0  0  0  0
   -7.5135    0.2523    0.2241 H   0  0  0  0  0  0  0  0  0  0  0  0
   -8.9650    0.0156   -1.8053 H   0  0  0  0  0  0  0  0  0  0  0  0
   -8.8472   -1.7267   -1.6853 H   0  0  0  0  0  0  0  0  0  0  0  0
   -9.9228   -1.6434    0.5739 H   0  0  0  0  0  0  0  0  0  0  0  0
  -10.0360    0.0993    0.4568 H   0  0  0  0  0  0  0  0  0  0  0  0
  -11.4923   -0.1321   -1.5684 H   0  0  0  0  0  0  0  0  0  0  0  0
  -11.3817   -1.8750   -1.4491 H   0  0  0  0  0  0  0  0  0  0  0  0
  -12.4550   -1.7882    0.8108 H   0  0  0  0  0  0  0  0  0  0  0  0
  -12.5623   -0.0451    0.6943 H   0  0  0  0  0  0  0  0  0  0  0  0
  -14.0210   -0.2705   -1.3296 H   0  0  0  0  0  0  0  0  0  0  0  0
  -13.9148   -2.0138   -1.2127 H   0  0  0  0  0  0  0  0  0  0  0  0
  -14.9867   -1.9274    1.0479 H   0  0  0  0  0  0  0  0  0  0  0  0
  -15.0903   -0.1839    0.9335 H   0  0  0  0  0  0  0  0  0  0  0  0
  -16.5502   -0.4036   -1.0899 H   0  0  0  0  0  0  0  0  0  0  0  0
  -16.4472   -2.1472   -0.9759 H   0  0  0  0  0  0  0  0  0  0  0  0
  -17.5185   -2.0626    1.2850 H   0  0  0  0  0  0  0  0  0  0  0  0
  -17.6189   -0.3187    1.1736 H   0  0  0  0  0  0  0  0  0  0  0  0
  -19.0796   -0.5320   -0.8499 H   0  0  0  0  0  0  0  0  0  0  0  0
  -18.9797   -2.2760   -0.7391 H   0  0  0  0  0  0  0  0  0  0  0  0
  -20.0507   -2.1941    1.5218 H   0  0  0  0  0  0  0  0  0  0  0  0
  -20.1474   -0.4498    1.4144 H   0  0  0  0  0  0  0  0  0  0  0  0
  -21.6091   -0.6549   -0.6089 H   0  0  0  0  0  0  0  0  0  0  0  0
  -21.5130   -2.3994   -0.5027 H   0  0  0  0  0  0  0  0  0  0  0  0
  -22.5833   -2.3217    1.7582 H   0  0  0  0  0  0  0  0  0  0  0  0
  -22.6750   -0.5768    1.6569 H   0  0  0  0  0  0  0  0  0  0  0  0
  -24.1387   -0.7702   -0.3657 H   0  0  0  0  0  0  0  0  0  0  0  0
  -24.0477   -2.5153   -0.2664 H   0  0  0  0  0  0  0  0  0  0  0  0
  -25.1165   -2.4438    1.9957 H   0  0  0  0  0  0  0  0  0  0  0  0
  -25.2019   -0.6982    1.9026 H   0  0  0  0  0  0  0  0  0  0  0  0
  -26.6683   -0.8775   -0.1173 H   0  0  0  0  0  0  0  0  0  0  0  0
  -26.5846   -2.6216   -0.0255 H   0  0  0  0  0  0  0  0  0  0  0  0
  -27.6823   -2.5635    2.2360 H   0  0  0  0  0  0  0  0  0  0  0  0
  -27.7604   -0.8063    2.1503 H   0  0  0  0  0  0  0  0  0  0  0  0
  -28.6953   -1.7846    1.0235 H   0  0  0  0  0  0  0  0  0  0  0  0
    5.6179    3.7693   -2.0861 C   0  0  0  0  0  0  0  0  0  0  0  0
    9.0484   -1.5390   -0.9052 C   0  0  0  0  0  0  0  0  0  0  0  0
  6  7  1  0
  8  9  1  0
  8  7  1  0
  9 10  1  0
 11 10  1  0
 11 12  1  0
 12 13  1  0
 13 14  1  0
 14 15  1  0
 15 16  1  0
 16 17  1  0
 20 19  1  0
 17166  1  0
166 18  1  0
 19 18  1  0
 19 21  1  0
 43 44  1  0
 43 42  1  0
 21 22  1  0
 21 23  1  0
 41 42  1  0
 41 40  1  0
 25  1  1  0
 44 45  1  0
 26  2  1  0
 39 40  1  0
 39 38  1  0
 34 23  1  0
 34 35  1  0
 61 60  1  0
 23165  1  0
  2  1  1  0
  2  3  1  0
  1  5  1  0
 24165  1  0
 24  5  1  0
 46 45  1  0
 46 47  1  0
 37 38  1  0
 37 35  1  0
 35 36  2  0
 60 59  1  0
  5 27  1  0
  3 30  1  0
  3  4  1  0
 33 32  2  0
 47 48  1  0
 32 31  1  0
 30 31  1  0
  4 27  1  0
  4 28  1  0
 59 58  1  0
 48 49  1  0
 58 57  1  0
 28 29  1  0
 49 50  1  0
 57 56  1  0
 50 51  1  0
 56 55  1  0
 55 54  1  0
 52 51  1  0
 52 53  1  0
 53 54  1  0
  1 62  1  1
  2 63  1  6
  3 64  1  1
  4 65  1  6
  5 66  1  6
  6 67  1  0
  6 68  1  0
  6 69  1  0
  7 70  1  0
  7 71  1  0
  8 72  1  0
  8 73  1  0
  9 74  1  0
  9 75  1  0
 10 76  1  0
 10 77  1  0
 11 78  1  0
 11 79  1  0
 12 80  1  0
 12 81  1  0
 13 82  1  0
 13 83  1  0
 14 84  1  0
 14 85  1  0
 15 86  1  0
 15 87  1  0
 16 88  1  0
 16 89  1  0
 17 90  1  0
 17 91  1  0
166 92  1  0
166 93  1  0
 18 94  1  0
 18 95  1  0
 19 96  1  6
 20 97  1  0
 21 98  1  1
 22 99  1  0
 23100  1  6
165101  1  0
165102  1  0
 25103  1  0
 26104  1  0
 28105  1  0
 28106  1  0
 29107  1  0
 31108  1  0
 31109  1  0
 32110  1  0
 33111  1  0
 33112  1  0
 34113  1  0
 37114  1  0
 37115  1  0
 38116  1  0
 38117  1  0
 39118  1  0
 39119  1  0
 40120  1  0
 40121  1  0
 41122  1  0
 41123  1  0
 42124  1  0
 42125  1  0
 43126  1  0
 43127  1  0
 44128  1  0
 44129  1  0
 45130  1  0
 45131  1  0
 46132  1  0
 46133  1  0
 47134  1  0
 47135  1  0
 48136  1  0
 48137  1  0
 49138  1  0
 49139  1  0
 50140  1  0
 50141  1  0
 51142  1  0
 51143  1  0
 52144  1  0
 52145  1  0
 53146  1  0
 53147  1  0
 54148  1  0
 54149  1  0
 55150  1  0
 55151  1  0
 56152  1  0
 56153  1  0
 57154  1  0
 57155  1  0
 58156  1  0
 58157  1  0
 59158  1  0
 59159  1  0
 60160  1  0
 60161  1  0
 61162  1  0
 61163  1  0
 61164  1  0
M  END
