
     RDKit          3D

 12 12  0  0  0  0  0  0  0  0999 V2000
   -2.1528   -0.0167   -0.0022 Cl  0  0  0  0  0  0  0  0  0  0  0  0
   -0.4172   -0.0069    0.0206 C   0  0  0  0  0  0  0  0  0  0  0  0
    0.2673   -1.2126    0.0196 C   0  0  0  0  0  0  0  0  0  0  0  0
    1.6557   -1.1965    0.0371 C   0  0  0  0  0  0  0  0  0  0  0  0
    2.3451    0.0084    0.0557 C   0  0  0  0  0  0  0  0  0  0  0  0
    1.6419    1.2057    0.0568 C   0  0  0  0  0  0  0  0  0  0  0  0
    0.2538    1.2066    0.0388 C   0  0  0  0  0  0  0  0  0  0  0  0
   -0.2711   -2.1506    0.0048 H   0  0  0  0  0  0  0  0  0  0  0  0
    2.1964   -2.1337    0.0361 H   0  0  0  0  0  0  0  0  0  0  0  0
    3.4267    0.0148    0.0687 H   0  0  0  0  0  0  0  0  0  0  0  0
    2.1727    2.1485    0.0719 H   0  0  0  0  0  0  0  0  0  0  0  0
   -0.2956    2.1384    0.0388 H   0  0  0  0  0  0  0  0  0  0  0  0
  1  2  1  0
  3  2  2  0
  2  7  1  0
  3  4  1  0
  3  8  1  0
  4  5  2  0
  4  9  1  0
  5  6  1  0
  5 10  1  0
  7  6  2  0
  6 11  1  0
  7 12  1  0
M  END
