
     RDKit          3D

 30 30  0  0  0  0  0  0  0  0999 V2000
    2.6660    1.1349    0.1321 C   0  0  0  0  0  0  0  0  0  0  0  0
    3.8899    0.2477    0.3201 C   0  0  0  0  0  0  0  0  0  0  0  0
    3.3290   -1.1458    0.6698 C   0  0  0  0  0  0  0  0  0  0  0  0
    1.8134   -0.9857    0.6675 C   0  0  0  0  0  0  0  0  0  0  0  0
    1.6739   -0.2008   -1.6564 C   0  0  0  0  0  0  0  0  0  0  0  0
    0.2242    0.8343    0.0334 C   0  0  0  0  0  0  0  0  0  0  0  0
   -0.9687   -0.0857   -0.1472 C   0  0  0  0  0  0  0  0  0  0  0  0
   -2.2411    0.7083    0.1074 C   0  0  0  0  0  0  0  0  0  0  0  0
   -3.4847   -0.1283   -0.0181 C   0  0  0  0  0  0  0  0  0  0  0  0
    1.5510    0.1915   -0.2259 N   0  0  2  0  0  0  0  0  0  0  0  0
   -3.5053   -1.3009   -0.2962 O   0  0  0  0  0  0  0  0  0  0  0  0
   -4.5796    0.5851    0.2168 O   0  0  0  0  0  0  0  0  0  0  0  0
    1.2709   -1.8546    0.3021 H   0  0  0  0  0  0  0  0  0  0  0  0
    1.4362   -0.7234    1.6558 H   0  0  0  0  0  0  0  0  0  0  0  0
    3.6456   -1.8910   -0.0581 H   0  0  0  0  0  0  0  0  0  0  0  0
    3.6608   -1.4893    1.6470 H   0  0  0  0  0  0  0  0  0  0  0  0
    4.4967    0.2131   -0.5832 H   0  0  0  0  0  0  0  0  0  0  0  0
    4.5164    0.6506    1.1130 H   0  0  0  0  0  0  0  0  0  0  0  0
    2.3817    1.6220    1.0636 H   0  0  0  0  0  0  0  0  0  0  0  0
    2.7591    1.8925   -0.6434 H   0  0  0  0  0  0  0  0  0  0  0  0
    2.6778   -0.5636   -1.8561 H   0  0  0  0  0  0  0  0  0  0  0  0
    0.9607   -0.9853   -1.8856 H   0  0  0  0  0  0  0  0  0  0  0  0
    1.4789    0.6705   -2.2759 H   0  0  0  0  0  0  0  0  0  0  0  0
    0.1647    1.6934   -0.6364 H   0  0  0  0  0  0  0  0  0  0  0  0
    0.2586    1.2075    1.0574 H   0  0  0  0  0  0  0  0  0  0  0  0
   -0.9973   -0.5021   -1.1545 H   0  0  0  0  0  0  0  0  0  0  0  0
   -0.9132   -0.9207    0.5528 H   0  0  0  0  0  0  0  0  0  0  0  0
   -2.2292    1.1558    1.1059 H   0  0  0  0  0  0  0  0  0  0  0  0
   -2.3206    1.5456   -0.5923 H   0  0  0  0  0  0  0  0  0  0  0  0
   -5.3654    0.0247    0.1321 H   0  0  0  0  0  0  0  0  0  0  0  0
  4  3  1  0
  4 10  1  0
  3  2  1  0
  2  1  1  0
  1 10  1  0
 10  5  1  6
  6  7  1  0
  6 10  1  0
  7  8  1  0
  8  9  1  0
  9 12  1  0
  9 11  2  0
  4 13  1  0
  4 14  1  0
  3 15  1  0
  3 16  1  0
  2 17  1  0
  2 18  1  0
  1 19  1  0
  1 20  1  0
  5 21  1  0
  5 22  1  0
  5 23  1  0
  6 24  1  0
  6 25  1  0
  7 26  1  0
  7 27  1  0
  8 28  1  0
  8 29  1  0
 12 30  1  0
M  CHG  1  10   1
M  END
