
     RDKit          3D

 55 57  0  0  0  0  0  0  0  0999 V2000
    4.3746    0.6758    0.7712 C   0  0  0  0  0  0  0  0  0  0  0  0
    5.8063   -2.6283    0.2927 C   0  0  0  0  0  0  0  0  0  0  0  0
    2.0417   -0.8054    0.6513 C   0  0  0  0  0  0  0  0  0  0  0  0
    1.7630    3.0386   -3.2778 C   0  0  0  0  0  0  0  0  0  0  0  0
   -2.8111    1.7288    2.4795 C   0  0  0  0  0  0  0  0  0  0  0  0
   -4.0965    2.1445    2.1706 C   0  0  0  0  0  0  0  0  0  0  0  0
   -3.8831    1.1590   -0.0117 C   0  0  0  0  0  0  0  0  0  0  0  0
   -2.0883   -2.4488   -0.2387 C   0  0  0  0  0  0  0  0  0  0  0  0
   -2.0915   -4.2156   -1.8757 C   0  0  0  0  0  0  0  0  0  0  0  0
    0.0218   -0.3705   -1.8372 O   0  0  0  0  0  0  0  0  0  0  0  0
   -0.6178    0.2965   -1.0487 C   0  0  0  0  0  0  0  0  0  0  0  0
   -1.8760   -0.0312   -0.6583 N   0  0  0  0  0  0  0  0  0  0  0  0
   -2.6020    0.7141    0.2989 C   0  0  0  0  0  0  0  0  0  0  0  0
   -2.0628    1.0030    1.5570 C   0  0  0  0  0  0  0  0  0  0  0  0
   -0.4760    0.3842    2.0229 S   0  0  0  0  0  0  0  0  0  0  0  0
    0.6485    1.3117    0.9123 C   0  0  1  0  0  0  0  0  0  0  0  0
    1.9558    0.5704    0.8211 C   0  0  0  0  0  0  0  0  0  0  0  0
    3.1456    1.2956    0.8833 C   0  0  0  0  0  0  0  0  0  0  0  0
    4.4476   -0.7071    0.5909 C   0  0  0  0  0  0  0  0  0  0  0  0
    5.6812   -1.2332    0.4878 O   0  0  0  0  0  0  0  0  0  0  0  0
    3.2689   -1.4467    0.5379 C   0  0  0  0  0  0  0  0  0  0  0  0
   -0.0282    1.5696   -0.4456 C   0  0  1  0  0  0  0  0  0  0  0  0
    0.9778    2.0807   -1.2926 O   0  0  0  0  0  0  0  0  0  0  0  0
    0.5941    2.5433   -2.4862 C   0  0  0  0  0  0  0  0  0  0  0  0
   -0.5562    2.5543   -2.8412 O   0  0  0  0  0  0  0  0  0  0  0  0
   -4.6304    1.8595    0.9211 C   0  0  0  0  0  0  0  0  0  0  0  0
   -2.7081   -3.6820   -0.6787 N   0  0  0  0  0  0  0  0  0  0  0  0
   -2.7180   -4.6747    0.3748 C   0  0  0  0  0  0  0  0  0  0  0  0
    5.2858    1.2585    0.8241 H   0  0  0  0  0  0  0  0  0  0  0  0
    5.4006   -3.1965    1.1339 H   0  0  0  0  0  0  0  0  0  0  0  0
    5.3129   -2.9571   -0.6254 H   0  0  0  0  0  0  0  0  0  0  0  0
    6.8705   -2.8349    0.2123 H   0  0  0  0  0  0  0  0  0  0  0  0
    1.1467   -1.4135    0.6221 H   0  0  0  0  0  0  0  0  0  0  0  0
    1.4427    3.3689   -4.2614 H   0  0  0  0  0  0  0  0  0  0  0  0
    2.2415    3.8710   -2.7605 H   0  0  0  0  0  0  0  0  0  0  0  0
    2.5107    2.2529   -3.3871 H   0  0  0  0  0  0  0  0  0  0  0  0
   -2.3808    1.9608    3.4448 H   0  0  0  0  0  0  0  0  0  0  0  0
   -4.6727    2.6997    2.8985 H   0  0  0  0  0  0  0  0  0  0  0  0
   -4.2942    0.9614   -0.9933 H   0  0  0  0  0  0  0  0  0  0  0  0
   -0.9910   -2.5356   -0.1720 H   0  0  0  0  0  0  0  0  0  0  0  0
   -2.4458   -2.2253    0.7699 H   0  0  0  0  0  0  0  0  0  0  0  0
   -2.6228   -5.1129   -2.1951 H   0  0  0  0  0  0  0  0  0  0  0  0
   -2.1417   -3.5010   -2.6971 H   0  0  0  0  0  0  0  0  0  0  0  0
   -1.0336   -4.4854   -1.7305 H   0  0  0  0  0  0  0  0  0  0  0  0
    0.8340    2.2913    1.3588 H   0  0  0  0  0  0  0  0  0  0  0  0
    3.1108    2.3693    1.0217 H   0  0  0  0  0  0  0  0  0  0  0  0
    3.2810   -2.5206    0.4112 H   0  0  0  0  0  0  0  0  0  0  0  0
   -0.8071    2.3239   -0.3049 H   0  0  0  0  0  0  0  0  0  0  0  0
   -5.6257    2.1959    0.6641 H   0  0  0  0  0  0  0  0  0  0  0  0
   -2.1289   -1.4371   -2.1690 H   0  0  0  0  0  0  0  0  0  0  0  0
   -3.5420   -1.1717   -1.1676 H   0  0  0  0  0  0  0  0  0  0  0  0
   -1.7103   -4.9820    0.6948 H   0  0  0  0  0  0  0  0  0  0  0  0
   -3.2436   -4.2916    1.2504 H   0  0  0  0  0  0  0  0  0  0  0  0
   -3.2433   -5.5692    0.0370 H   0  0  0  0  0  0  0  0  0  0  0  0
   -2.4585   -1.2785   -1.1445 C   0  0  0  0  0  0  0  0  0  0  0  0
  4 24  1  0
 24 25  2  0
 24 23  1  0
 23 22  1  0
 10 11  2  0
 22 11  1  0
 22 16  1  0
  1 18  2  0
  1 19  1  0
 20 19  1  0
 20  2  1  0
 18 17  1  0
 19 21  2  0
  9 27  1  0
 11 12  1  0
 27 28  1  0
 27  8  1  0
 17 16  1  0
 17  3  2  0
 21  3  1  0
 16 15  1  0
 12 55  1  0
 12 13  1  0
  8 55  1  0
 15 14  1  0
 13 14  1  0
 13  7  2  0
 14  5  2  0
  7 26  1  0
  5  6  1  0
 26  6  2  0
  1 29  1  0
  2 30  1  0
  2 31  1  0
  2 32  1  0
  3 33  1  0
  4 34  1  0
  4 35  1  0
  4 36  1  0
  5 37  1  0
  6 38  1  0
  7 39  1  0
  8 40  1  0
  8 41  1  0
  9 42  1  0
  9 43  1  0
  9 44  1  0
 16 45  1  1
 18 46  1  0
 21 47  1  0
 22 48  1  1
 26 49  1  0
 55 50  1  0
 55 51  1  0
 28 52  1  0
 28 53  1  0
 28 54  1  0
M  END
