
     RDKit          3D

 38 37  0  0  0  0  0  0  0  0999 V2000
   -5.7155   -0.1188   -0.0497 C   0  0  0  0  0  0  0  0  0  0  0  0
   -5.8364   -1.2621   -0.4141 O   0  0  0  0  0  0  0  0  0  0  0  0
   -4.4089    0.5985    0.1435 C   0  0  0  0  0  0  0  0  0  0  0  0
   -3.1863   -0.2811   -0.0582 C   0  0  0  0  0  0  0  0  0  0  0  0
   -1.8902    0.4945    0.1399 C   0  0  0  0  0  0  0  0  0  0  0  0
   -0.6492   -0.3689   -0.0446 C   0  0  0  0  0  0  0  0  0  0  0  0
    0.6514    0.3989    0.1533 C   0  0  0  0  0  0  0  0  0  0  0  0
    1.8928   -0.4651   -0.0286 C   0  0  0  0  0  0  0  0  0  0  0  0
    3.1954    0.2987    0.1769 C   0  0  0  0  0  0  0  0  0  0  0  0
    4.4284   -0.5739   -0.0258 C   0  0  0  0  0  0  0  0  0  0  0  0
    5.7643    0.1040    0.2848 C   0  0  1  0  0  0  0  0  0  0  0  0
    6.9047   -0.9041    0.1748 C   0  0  0  0  0  0  0  0  0  0  0  0
    6.0274    1.3083   -0.6140 C   0  0  0  0  0  0  0  0  0  0  0  0
   -6.7560    0.6643    0.2247 O   0  0  0  0  0  0  0  0  0  0  0  0
   -4.3900    1.4470   -0.5491 H   0  0  0  0  0  0  0  0  0  0  0  0
   -4.4045    1.0422    1.1441 H   0  0  0  0  0  0  0  0  0  0  0  0
   -7.5812    0.1762    0.0865 H   0  0  0  0  0  0  0  0  0  0  0  0
   -3.2161   -1.1212    0.6412 H   0  0  0  0  0  0  0  0  0  0  0  0
   -3.2010   -0.7139   -1.0620 H   0  0  0  0  0  0  0  0  0  0  0  0
   -1.8576    1.3344   -0.5628 H   0  0  0  0  0  0  0  0  0  0  0  0
   -1.8786    0.9373    1.1419 H   0  0  0  0  0  0  0  0  0  0  0  0
   -0.6838   -1.2086    0.6584 H   0  0  0  0  0  0  0  0  0  0  0  0
   -0.6602   -0.8123   -1.0465 H   0  0  0  0  0  0  0  0  0  0  0  0
    0.6863    1.2387   -0.5498 H   0  0  0  0  0  0  0  0  0  0  0  0
    0.6615    0.8430    1.1551 H   0  0  0  0  0  0  0  0  0  0  0  0
    1.8536   -1.3080    0.6706 H   0  0  0  0  0  0  0  0  0  0  0  0
    1.8848   -0.9050   -1.0323 H   0  0  0  0  0  0  0  0  0  0  0  0
    3.2174    1.1516   -0.5085 H   0  0  0  0  0  0  0  0  0  0  0  0
    3.2116    0.7218    1.1880 H   0  0  0  0  0  0  0  0  0  0  0  0
    4.3373   -1.4618    0.6101 H   0  0  0  0  0  0  0  0  0  0  0  0
    4.4479   -0.9440   -1.0583 H   0  0  0  0  0  0  0  0  0  0  0  0
    5.7261    0.4577    1.3226 H   0  0  0  0  0  0  0  0  0  0  0  0
    6.9906   -1.2866   -0.8455 H   0  0  0  0  0  0  0  0  0  0  0  0
    7.8635   -0.4548    0.4392 H   0  0  0  0  0  0  0  0  0  0  0  0
    6.7454   -1.7587    0.8349 H   0  0  0  0  0  0  0  0  0  0  0  0
    6.0409    1.0115   -1.6660 H   0  0  0  0  0  0  0  0  0  0  0  0
    5.2690    2.0830   -0.4977 H   0  0  0  0  0  0  0  0  0  0  0  0
    6.9937    1.7624   -0.3868 H   0  0  0  0  0  0  0  0  0  0  0  0
  1  2  2  0
  1  3  1  0
  1 14  1  0
  3  4  1  0
  4  5  1  0
  5  6  1  0
  6  7  1  0
  7  8  1  0
  8  9  1  0
  9 10  1  0
 10 11  1  0
 11 12  1  0
 11 13  1  0
  3 15  1  0
  3 16  1  0
 14 17  1  0
  4 18  1  0
  4 19  1  0
  5 20  1  0
  5 21  1  0
  6 22  1  0
  6 23  1  0
  7 24  1  0
  7 25  1  0
  8 26  1  0
  8 27  1  0
  9 28  1  0
  9 29  1  0
 10 30  1  0
 10 31  1  0
 11 32  1  1
 12 33  1  0
 12 34  1  0
 12 35  1  0
 13 36  1  0
 13 37  1  0
 13 38  1  0
M  END
