
     RDKit          3D

 27 27  0  0  0  0  0  0  0  0999 V2000
    3.7801    1.7079    0.0420 C   0  0  0  0  0  0  0  0  0  0  0  0
   -4.4025   -1.7490   -0.2055 N   0  0  0  0  0  0  0  0  0  0  0  0
    1.6684   -0.0664    1.2896 C   0  0  0  0  0  0  0  0  0  0  0  0
    2.3919   -1.2205    1.1498 N   0  0  0  0  0  0  0  0  0  0  0  0
    2.7769   -1.8203   -0.0238 C   0  0  0  0  0  0  0  0  0  0  0  0
    3.4087   -2.8467   -0.0493 O   0  0  0  0  0  0  0  0  0  0  0  0
    2.3791   -1.1775   -1.1736 N   0  0  0  0  0  0  0  0  0  0  0  0
    1.6610   -0.0172   -1.2663 C   0  0  0  0  0  0  0  0  0  0  0  0
    1.3098    0.4114   -2.3400 O   0  0  0  0  0  0  0  0  0  0  0  0
    1.3719    0.7226    0.0266 C   0  0  2  0  0  0  0  0  0  0  0  0
    2.2835    1.9817    0.0512 C   0  0  0  0  0  0  0  0  0  0  0  0
   -0.0930    1.1919    0.0424 C   0  0  0  0  0  0  0  0  0  0  0  0
   -1.0862    0.0406    0.0096 C   0  0  0  0  0  0  0  0  0  0  0  0
   -2.9072    0.8056    0.1005 Se  0  0  0  0  0  0  0  0  0  0  0  0
   -3.8013   -0.7702   -0.0888 C   0  0  0  0  0  0  0  0  0  0  0  0
    4.1084    1.1368    0.9113 H   0  0  0  0  0  0  0  0  0  0  0  0
    4.1044    1.1795   -0.8554 H   0  0  0  0  0  0  0  0  0  0  0  0
    4.3189    2.6543    0.0638 H   0  0  0  0  0  0  0  0  0  0  0  0
    2.6396   -1.7173    1.9983 H   0  0  0  0  0  0  0  0  0  0  0  0
    2.6145   -1.6453   -2.0410 H   0  0  0  0  0  0  0  0  0  0  0  0
    2.0154    2.5551    0.9399 H   0  0  0  0  0  0  0  0  0  0  0  0
    2.0129    2.5951   -0.8096 H   0  0  0  0  0  0  0  0  0  0  0  0
   -0.2316    1.7981    0.9391 H   0  0  0  0  0  0  0  0  0  0  0  0
   -0.2417    1.8509   -0.8140 H   0  0  0  0  0  0  0  0  0  0  0  0
   -1.0212   -0.5341   -0.9139 H   0  0  0  0  0  0  0  0  0  0  0  0
   -0.9724   -0.6317    0.8593 H   0  0  0  0  0  0  0  0  0  0  0  0
    1.3197    0.3210    2.3781 O   0  0  0  0  0  0  0  0  0  0  0  0
  2 15  3  0
 15 14  1  0
  1 11  1  0
 14 13  1  0
 10 11  1  1
 13 12  1  0
 27  3  2  0
 12 10  1  0
 10  3  1  0
 10  8  1  0
  3  4  1  0
  9  8  2  0
  8  7  1  0
  4  5  1  0
  7  5  1  0
  5  6  2  0
  1 16  1  0
  1 17  1  0
  1 18  1  0
  4 19  1  0
  7 20  1  0
 11 21  1  0
 11 22  1  0
 12 23  1  0
 12 24  1  0
 13 25  1  0
 13 26  1  0
M  END
