
     RDKit          3D

 53 55  0  0  0  0  0  0  0  0999 V2000
   -5.4429    0.3508   -1.3917 O   0  0  0  0  0  0  0  0  0  0  0  0
   -4.4704   -0.2798   -0.7185 C   0  0  0  0  0  0  0  0  0  0  0  0
   -4.5002   -1.6459   -0.4923 C   0  0  0  0  0  0  0  0  0  0  0  0
   -3.4606   -2.2583    0.1938 C   0  0  0  0  0  0  0  0  0  0  0  0
   -3.5463   -3.5752    0.3945 O   0  0  0  0  0  0  0  0  0  0  0  0
   -2.3885   -1.4794    0.6358 C   0  0  0  0  0  0  0  0  0  0  0  0
   -2.3304   -0.1078    0.4068 C   0  0  0  0  0  0  0  0  0  0  0  0
   -1.1542    0.6985    0.8834 C   0  0  0  0  0  0  0  0  0  0  0  0
    0.0066    0.6951   -0.1274 C   0  0  0  0  0  0  0  0  0  0  0  0
    1.1536    1.4972    0.3829 C   0  0  0  0  0  0  0  0  0  0  0  0
    1.2148    2.8062    0.3406 N   0  0  0  0  0  0  0  0  0  0  0  0
    2.3608    3.1504    1.0000 C   0  0  0  0  0  0  0  0  0  0  0  0
    2.9981    2.0319    1.4448 C   0  0  0  0  0  0  0  0  0  0  0  0
    2.2203    0.9795    1.0455 N   0  0  0  0  0  0  0  0  0  0  0  0
    2.5145   -0.4262    1.2795 C   0  0  0  0  0  0  0  0  0  0  0  0
    3.0138   -1.1587    0.0601 C   0  0  0  0  0  0  0  0  0  0  0  0
    2.2715   -2.1927   -0.4919 C   0  0  0  0  0  0  0  0  0  0  0  0
    2.7053   -2.8858   -1.6159 C   0  0  0  0  0  0  0  0  0  0  0  0
    3.9112   -2.5342   -2.1965 C   0  0  0  0  0  0  0  0  0  0  0  0
    4.6853   -1.5135   -1.6573 C   0  0  0  0  0  0  0  0  0  0  0  0
    4.2477   -0.8308   -0.5247 C   0  0  0  0  0  0  0  0  0  0  0  0
   -3.3911    0.4912   -0.2747 C   0  0  0  0  0  0  0  0  0  0  0  0
   -3.3840    1.9515   -0.5762 C   0  0  0  0  0  0  0  0  0  0  0  0
   -4.3686    2.5813    0.0398 O   0  0  0  0  0  0  0  0  0  0  0  0
   -4.5182    3.9798   -0.2162 C   0  0  0  0  0  0  0  0  0  0  0  0
   -2.5795    2.4955   -1.2903 O   0  0  0  0  0  0  0  0  0  0  0  0
   -1.1269   -2.2923    1.5163 Cl  0  0  0  0  0  0  0  0  0  0  0  0
   -6.1249   -0.2723   -1.6684 H   0  0  0  0  0  0  0  0  0  0  0  0
   -5.3269   -2.2496   -0.8486 H   0  0  0  0  0  0  0  0  0  0  0  0
   -2.7621   -3.9182    0.8427 H   0  0  0  0  0  0  0  0  0  0  0  0
   -1.4493    1.7303    1.0734 H   0  0  0  0  0  0  0  0  0  0  0  0
   -0.8056    0.3093    1.8416 H   0  0  0  0  0  0  0  0  0  0  0  0
    0.3109   -0.3272   -0.3537 H   0  0  0  0  0  0  0  0  0  0  0  0
   -0.3339    1.1332   -1.0647 H   0  0  0  0  0  0  0  0  0  0  0  0
    2.6669    4.1787    1.1175 H   0  0  0  0  0  0  0  0  0  0  0  0
    3.9148    1.8899    1.9901 H   0  0  0  0  0  0  0  0  0  0  0  0
    3.2433   -0.4700    2.0889 H   0  0  0  0  0  0  0  0  0  0  0  0
    1.6138   -0.9135    1.6541 H   0  0  0  0  0  0  0  0  0  0  0  0
    1.3311   -2.4698   -0.0305 H   0  0  0  0  0  0  0  0  0  0  0  0
    2.1048   -3.6855   -2.0280 H   0  0  0  0  0  0  0  0  0  0  0  0
    4.2670   -3.0559   -3.0757 H   0  0  0  0  0  0  0  0  0  0  0  0
    5.6296   -1.2694   -2.1240 H   0  0  0  0  0  0  0  0  0  0  0  0
   -4.7163    4.1697   -1.2707 H   0  0  0  0  0  0  0  0  0  0  0  0
   -5.3700    4.3005    0.3756 H   0  0  0  0  0  0  0  0  0  0  0  0
   -3.6334    4.5372    0.0899 H   0  0  0  0  0  0  0  0  0  0  0  0
    4.9451    0.1454    0.0774 O   0  0  0  0  0  0  0  0  0  0  0  0
    6.1723    0.5806   -0.4922 C   0  0  0  0  0  0  0  0  0  0  0  0
    6.7240    1.6918    0.3677 C   0  0  0  0  0  0  0  0  0  0  0  0
    6.8819   -0.2518   -0.5435 H   0  0  0  0  0  0  0  0  0  0  0  0
    6.0060    0.9354   -1.5148 H   0  0  0  0  0  0  0  0  0  0  0  0
    6.0396    2.5388    0.4107 H   0  0  0  0  0  0  0  0  0  0  0  0
    6.9203    1.3502    1.3840 H   0  0  0  0  0  0  0  0  0  0  0  0
    7.6653    2.0394   -0.0568 H   0  0  0  0  0  0  0  0  0  0  0  0
 19 18  1  0
 19 20  2  0
 18 17  2  0
 20 21  1  0
 17 16  1  0
 21 16  2  0
 16 15  1  0
 13 14  1  0
 13 12  2  0
 15 14  1  0
 14 10  1  0
 12 11  1  0
 10 11  2  0
 10  9  1  0
 27  6  1  0
  9  8  1  0
  8  7  1  0
  6  7  2  0
  6  4  1  0
  7 22  1  0
  5  4  1  0
 25 24  1  0
  4  3  2  0
 24 23  1  0
 22 23  1  0
 22  2  2  0
 23 26  2  0
  3  2  1  0
  2  1  1  0
  1 28  1  0
  3 29  1  0
  5 30  1  0
  8 31  1  0
  8 32  1  0
  9 33  1  0
  9 34  1  0
 12 35  1  0
 13 36  1  0
 15 37  1  0
 15 38  1  0
 17 39  1  0
 18 40  1  0
 19 41  1  0
 20 42  1  0
 25 43  1  0
 25 44  1  0
 25 45  1  0
 21 46  1  0
 46 47  1  0
 47 48  1  0
 47 49  1  0
 47 50  1  0
 48 51  1  0
 48 52  1  0
 48 53  1  0
M  END
