
     RDKit          3D

 29 28  0  0  0  0  0  0  0  0999 V2000
    0.3699   -2.5338    1.9493 C   0  0  0  0  0  0  0  0  0  0  0  0
    1.2625   -1.7301    2.8841 C   0  0  0  0  0  0  0  0  0  0  0  0
    1.5808   -0.2969    2.4298 C   0  0  2  0  0  0  0  0  0  0  0  0
    2.4847    0.3716    3.4643 C   0  0  0  0  0  0  0  0  0  0  0  0
    0.3095    0.5133    2.1130 C   0  0  2  0  0  0  0  0  0  0  0  0
    0.6558    1.8218    1.3870 C   0  0  1  0  0  0  0  0  0  0  0  0
    1.1078    1.4706    0.0954 O   0  0  0  0  0  0  0  0  0  0  0  0
   -0.4794    2.8484    1.2919 C   0  0  0  0  0  0  0  0  0  0  0  0
   -1.6231    2.3994    0.4274 C   0  0  0  0  0  0  0  0  0  0  0  0
   -1.9072    3.2647   -0.5408 O   0  0  0  0  0  0  0  0  0  0  0  0
   -2.2509    1.3810    0.5942 O   0  0  0  0  0  0  0  0  0  0  0  0
   -0.4358    0.8028    3.3334 N   0  0  0  0  0  0  0  0  0  0  0  0
   -0.6444   -2.1372    1.8990 H   0  0  0  0  0  0  0  0  0  0  0  0
    0.7694   -2.5491    0.9332 H   0  0  0  0  0  0  0  0  0  0  0  0
    0.2929   -3.5680    2.2869 H   0  0  0  0  0  0  0  0  0  0  0  0
    2.2147   -2.2557    2.9991 H   0  0  0  0  0  0  0  0  0  0  0  0
    0.8227   -1.7192    3.8876 H   0  0  0  0  0  0  0  0  0  0  0  0
    2.1396   -0.3778    1.4923 H   0  0  0  0  0  0  0  0  0  0  0  0
    2.8594    1.3413    3.1337 H   0  0  0  0  0  0  0  0  0  0  0  0
    3.3582   -0.2506    3.6669 H   0  0  0  0  0  0  0  0  0  0  0  0
    1.9680    0.5272    4.4126 H   0  0  0  0  0  0  0  0  0  0  0  0
   -0.2801   -0.0859    1.4078 H   0  0  0  0  0  0  0  0  0  0  0  0
    1.4512    2.3243    1.9510 H   0  0  0  0  0  0  0  0  0  0  0  0
    1.6126    2.2064   -0.2638 H   0  0  0  0  0  0  0  0  0  0  0  0
   -0.0753    3.7924    0.9231 H   0  0  0  0  0  0  0  0  0  0  0  0
   -0.8700    3.0468    2.2934 H   0  0  0  0  0  0  0  0  0  0  0  0
   -2.6621    2.9414   -1.0566 H   0  0  0  0  0  0  0  0  0  0  0  0
   -1.4191    0.8996    3.1157 H   0  0  0  0  0  0  0  0  0  0  0  0
   -0.3807    0.0164    3.9676 H   0  0  0  0  0  0  0  0  0  0  0  0
  1  2  1  0
  1 13  1  0
  1 14  1  0
  1 15  1  0
  2  3  1  0
  2 16  1  0
  2 17  1  0
  3  4  1  0
  3  5  1  0
  3 18  1  6
  4 19  1  0
  4 20  1  0
  4 21  1  0
  5  6  1  0
  5 12  1  0
  5 22  1  6
  6  7  1  0
  6  8  1  0
  6 23  1  1
  7 24  1  0
  8  9  1  0
  8 25  1  0
  8 26  1  0
  9 10  1  0
  9 11  2  0
 10 27  1  0
 12 28  1  0
 12 29  1  0
M  END
