
     RDKit          3D

 35 36  0  0  0  0  0  0  0  0999 V2000
   -5.4889   -1.7961    0.1405 O   0  0  0  0  0  0  0  0  0  0  0  0
   -5.4790   -0.5913    0.1557 C   0  0  0  0  0  0  0  0  0  0  0  0
   -4.2274    0.2170    0.0815 C   0  0  0  0  0  0  0  0  0  0  0  0
   -4.2301    1.6061    0.0843 C   0  0  0  0  0  0  0  0  0  0  0  0
   -3.0074    2.2580    0.0121 C   0  0  0  0  0  0  0  0  0  0  0  0
   -1.8478    1.6258   -0.0569 N   0  0  0  0  0  0  0  0  0  0  0  0
   -1.8411    0.2959   -0.0588 C   0  0  0  0  0  0  0  0  0  0  0  0
   -0.5187   -0.3704   -0.1346 C   0  0  0  0  0  0  0  0  0  0  0  0
    0.6526    0.3742   -0.2288 C   0  0  0  0  0  0  0  0  0  0  0  0
    1.8695   -0.2905   -0.2724 C   0  0  0  0  0  0  0  0  0  0  0  0
    3.1254    0.5227   -0.3902 C   0  0  0  0  0  0  0  0  0  0  0  0
    4.2210   -0.0269    0.1489 N   0  0  0  0  0  0  0  0  0  0  0  0
    5.5227    0.6057    0.1355 C   0  0  0  0  0  0  0  0  0  0  0  0
    6.6253   -0.4424    0.1315 C   0  0  0  0  0  0  0  0  0  0  0  0
    7.9196    0.2154    0.1669 N   0  0  0  0  0  0  0  0  0  0  0  0
    3.1097    1.6086   -0.9505 O   0  0  0  0  0  0  0  0  0  0  0  0
    1.8663   -1.6792   -0.2479 C   0  0  0  0  0  0  0  0  0  0  0  0
    0.6444   -2.3325   -0.1716 C   0  0  0  0  0  0  0  0  0  0  0  0
   -0.5153   -1.7006   -0.1103 N   0  0  0  0  0  0  0  0  0  0  0  0
   -3.0138   -0.4502    0.0082 C   0  0  0  0  0  0  0  0  0  0  0  0
   -6.5634    0.1580    0.2409 O   0  0  0  0  0  0  0  0  0  0  0  0
   -5.1406    2.1846    0.1404 H   0  0  0  0  0  0  0  0  0  0  0  0
   -2.9707    3.3409    0.0116 H   0  0  0  0  0  0  0  0  0  0  0  0
    0.6080    1.4531   -0.2572 H   0  0  0  0  0  0  0  0  0  0  0  0
    4.1155   -0.8426    0.7322 H   0  0  0  0  0  0  0  0  0  0  0  0
    5.6059    1.2289   -0.7535 H   0  0  0  0  0  0  0  0  0  0  0  0
    5.6338    1.2633    1.0047 H   0  0  0  0  0  0  0  0  0  0  0  0
    6.4624   -1.1447    0.9622 H   0  0  0  0  0  0  0  0  0  0  0  0
    6.5535   -1.0260   -0.7887 H   0  0  0  0  0  0  0  0  0  0  0  0
    8.0788    0.6003    1.0897 H   0  0  0  0  0  0  0  0  0  0  0  0
    8.6494   -0.4706    0.0268 H   0  0  0  0  0  0  0  0  0  0  0  0
    2.7752   -2.2622   -0.3105 H   0  0  0  0  0  0  0  0  0  0  0  0
    0.6091   -3.4156   -0.1625 H   0  0  0  0  0  0  0  0  0  0  0  0
   -2.9691   -1.5294    0.0039 H   0  0  0  0  0  0  0  0  0  0  0  0
   -7.3552   -0.3994    0.2868 H   0  0  0  0  0  0  0  0  0  0  0  0
  1  2  2  0
  2  3  1  0
  2 21  1  0
  3  4  2  0
  3 20  1  0
  4  5  1  0
  5  6  2  0
  6  7  1  0
  7  8  1  0
  7 20  2  0
  8  9  2  0
  8 19  1  0
  9 10  1  0
 10 11  1  0
 10 17  2  0
 11 12  1  0
 11 16  2  0
 12 13  1  0
 13 14  1  0
 14 15  1  0
 17 18  1  0
 18 19  2  0
  4 22  1  0
  5 23  1  0
  9 24  1  0
 12 25  1  0
 13 26  1  0
 13 27  1  0
 14 28  1  0
 14 29  1  0
 15 30  1  0
 15 31  1  0
 17 32  1  0
 18 33  1  0
 20 34  1  0
 21 35  1  0
M  END
