
     RDKit          3D

 36 39  0  0  0  0  0  0  0  0999 V2000
    7.0829    1.5663   -0.0664 C   0  0  0  0  0  0  0  0  0  0  0  0
    5.7765    0.8595   -0.0283 C   0  0  0  0  0  0  0  0  0  0  0  0
    4.6290    1.4392   -0.0327 N   0  0  0  0  0  0  0  0  0  0  0  0
    3.6006    0.5247    0.0071 C   0  0  0  0  0  0  0  0  0  0  0  0
    2.2489    0.8472    0.0103 C   0  0  0  0  0  0  0  0  0  0  0  0
    1.3132   -0.1783    0.0503 C   0  0  0  0  0  0  0  0  0  0  0  0
    1.7245   -1.5181    0.0884 C   0  0  0  0  0  0  0  0  0  0  0  0
    3.0719   -1.8419    0.0852 C   0  0  0  0  0  0  0  0  0  0  0  0
    4.0054   -0.8197    0.0440 C   0  0  0  0  0  0  0  0  0  0  0  0
    5.7365   -0.8902    0.0263 S   0  0  0  0  0  0  0  0  0  0  0  0
    0.0187    0.2055    0.0499 O   0  0  0  0  0  0  0  0  0  0  0  0
   -0.9886   -0.7758    0.0615 C   0  0  0  0  0  0  0  0  0  0  0  0
   -2.3397   -0.1119    0.0296 C   0  0  0  0  0  0  0  0  0  0  0  0
   -2.4997    1.2920    0.0624 C   0  0  0  0  0  0  0  0  0  0  0  0
   -3.7657    1.8049    0.0403 C   0  0  0  0  0  0  0  0  0  0  0  0
   -4.8748    0.9356   -0.0149 C   0  0  0  0  0  0  0  0  0  0  0  0
   -6.2129    1.3896   -0.0406 C   0  0  0  0  0  0  0  0  0  0  0  0
   -7.2438    0.4920   -0.0948 C   0  0  0  0  0  0  0  0  0  0  0  0
   -6.9771   -0.8942   -0.1257 C   0  0  0  0  0  0  0  0  0  0  0  0
   -5.6909   -1.3604   -0.1018 C   0  0  0  0  0  0  0  0  0  0  0  0
   -4.6062   -0.4550   -0.0454 C   0  0  0  0  0  0  0  0  0  0  0  0
   -3.3468   -0.9440   -0.0222 N   0  0  0  0  0  0  0  0  0  0  0  0
    7.6779    1.3362    0.8178 H   0  0  0  0  0  0  0  0  0  0  0  0
    7.6641    1.2642   -0.9379 H   0  0  0  0  0  0  0  0  0  0  0  0
    6.9198    2.6405   -0.1084 H   0  0  0  0  0  0  0  0  0  0  0  0
    1.9326    1.8824   -0.0194 H   0  0  0  0  0  0  0  0  0  0  0  0
    1.0066   -2.3250    0.1198 H   0  0  0  0  0  0  0  0  0  0  0  0
    3.3740   -2.8802    0.1136 H   0  0  0  0  0  0  0  0  0  0  0  0
   -0.9032   -1.4437   -0.8035 H   0  0  0  0  0  0  0  0  0  0  0  0
   -0.9251   -1.3989    0.9617 H   0  0  0  0  0  0  0  0  0  0  0  0
   -1.6438    1.9487    0.1051 H   0  0  0  0  0  0  0  0  0  0  0  0
   -3.9251    2.8761    0.0650 H   0  0  0  0  0  0  0  0  0  0  0  0
   -6.4063    2.4551   -0.0167 H   0  0  0  0  0  0  0  0  0  0  0  0
   -8.2683    0.8392   -0.1143 H   0  0  0  0  0  0  0  0  0  0  0  0
   -7.8020   -1.5931   -0.1687 H   0  0  0  0  0  0  0  0  0  0  0  0
   -5.4809   -2.4222   -0.1250 H   0  0  0  0  0  0  0  0  0  0  0  0
 18 17  1  0
 18 19  2  0
 17 16  2  0
 19 20  1  0
 16 15  1  0
 16 21  1  0
 15 14  2  0
 20 21  2  0
 21 22  1  0
 14 13  1  0
 22 13  2  0
 13 12  1  0
 12 11  1  0
 11  6  1  0
  7  6  2  0
  7  8  1  0
  6  5  1  0
  8  9  2  0
  5  4  2  0
  9  4  1  0
  9 10  1  0
  4  3  1  0
 10  2  1  0
  3  2  2  0
  2  1  1  0
  1 23  1  0
  1 24  1  0
  1 25  1  0
  5 26  1  0
  7 27  1  0
  8 28  1  0
 12 29  1  0
 12 30  1  0
 14 31  1  0
 15 32  1  0
 17 33  1  0
 18 34  1  0
 19 35  1  0
 20 36  1  0
M  END
