
     RDKit          3D

 70 74  0  0  0  0  0  0  0  0999 V2000
   -3.7631    1.3167   -2.1509 C   0  0  0  0  0  0  0  0  0  0  0  0
   -3.7472   -0.0858   -2.3344 O   0  0  0  0  0  0  0  0  0  0  0  0
   -3.6219   -0.8633   -1.2488 C   0  0  0  0  0  0  0  0  0  0  0  0
   -3.6244   -0.4057    0.0533 C   0  0  0  0  0  0  0  0  0  0  0  0
   -3.4807   -2.2481   -1.5019 C   0  0  0  0  0  0  0  0  0  0  0  0
   -3.5028   -2.5985   -2.7912 O   0  0  0  0  0  0  0  0  0  0  0  0
   -3.3802   -3.9702   -3.1214 C   0  0  0  0  0  0  0  0  0  0  0  0
   -3.3220   -3.1278   -0.4416 C   0  0  0  0  0  0  0  0  0  0  0  0
   -3.2846   -2.6609    0.8676 C   0  0  0  0  0  0  0  0  0  0  0  0
   -3.4418   -1.3115    1.1015 C   0  0  0  0  0  0  0  0  0  0  0  0
   -3.2980   -0.6776    2.7370 S   0  0  1  0  0  0  0  0  0  0  0  0
   -4.1859    0.4657    2.8562 O   0  0  0  0  0  0  0  0  0  0  0  0
   -3.3812   -1.7677    3.6939 O   0  0  0  0  0  0  0  0  0  0  0  0
   -1.7384   -0.0848    2.8742 N   0  0  0  0  0  0  0  0  0  0  0  0
   -1.3254    0.8723    1.9142 C   0  0  0  0  0  0  0  0  0  0  0  0
   -1.7385    2.1969    2.0559 C   0  0  0  0  0  0  0  0  0  0  0  0
   -1.3775    3.0920    1.0747 C   0  0  0  0  0  0  0  0  0  0  0  0
   -1.6378    4.4362    0.9115 N   0  0  0  0  0  0  0  0  0  0  0  0
   -2.4113    5.2507    1.8123 C   0  0  0  0  0  0  0  0  0  0  0  0
   -1.0452    4.8883   -0.2416 C   0  0  0  0  0  0  0  0  0  0  0  0
   -1.0738    6.0212   -0.6869 O   0  0  0  0  0  0  0  0  0  0  0  0
   -0.4090    3.7990   -0.8017 N   0  0  0  0  0  0  0  0  0  0  0  0
    0.3286    3.8228   -2.0384 C   0  0  0  0  0  0  0  0  0  0  0  0
   -0.5996    2.6917   -0.0135 C   0  0  0  0  0  0  0  0  0  0  0  0
   -0.1616    1.3905   -0.1618 C   0  0  0  0  0  0  0  0  0  0  0  0
   -0.5491    0.4780    0.8158 C   0  0  0  0  0  0  0  0  0  0  0  0
   -0.2269   -0.8412    0.7675 O   0  0  0  0  0  0  0  0  0  0  0  0
    0.7302   -1.2687   -0.1188 C   0  0  0  0  0  0  0  0  0  0  0  0
    2.0645   -1.0445    0.1630 C   0  0  0  0  0  0  0  0  0  0  0  0
    0.3302   -1.9490   -1.2595 C   0  0  0  0  0  0  0  0  0  0  0  0
    1.3096   -2.4158   -2.1207 C   0  0  0  0  0  0  0  0  0  0  0  0
    2.6592   -2.2044   -1.8681 C   0  0  0  0  0  0  0  0  0  0  0  0
    3.0399   -1.5132   -0.7188 C   0  0  0  0  0  0  0  0  0  0  0  0
    4.3133   -1.2512   -0.3733 O   0  0  0  0  0  0  0  0  0  0  0  0
    5.3585   -1.6866   -1.2362 C   0  0  0  0  0  0  0  0  0  0  0  0
    6.6494   -1.2120   -0.6424 C   0  0  0  0  0  0  0  0  0  0  0  0
    7.1627    0.0361   -0.9818 C   0  0  0  0  0  0  0  0  0  0  0  0
    8.3397    0.4948   -0.4062 C   0  0  0  0  0  0  0  0  0  0  0  0
    9.0134   -0.2929    0.5184 C   0  0  0  0  0  0  0  0  0  0  0  0
    8.5072   -1.5396    0.8631 C   0  0  0  0  0  0  0  0  0  0  0  0
    7.3299   -1.9950    0.2854 C   0  0  0  0  0  0  0  0  0  0  0  0
   -3.7839    1.7579   -3.1439 H   0  0  0  0  0  0  0  0  0  0  0  0
   -4.6474    1.6478   -1.6003 H   0  0  0  0  0  0  0  0  0  0  0  0
   -2.8678    1.6635   -1.6253 H   0  0  0  0  0  0  0  0  0  0  0  0
   -3.7711    0.6448    0.2624 H   0  0  0  0  0  0  0  0  0  0  0  0
   -4.1966   -4.5624   -2.7016 H   0  0  0  0  0  0  0  0  0  0  0  0
   -3.4228   -4.0291   -4.2055 H   0  0  0  0  0  0  0  0  0  0  0  0
   -2.4285   -4.3870   -2.7820 H   0  0  0  0  0  0  0  0  0  0  0  0
   -3.2138   -4.1897   -0.6126 H   0  0  0  0  0  0  0  0  0  0  0  0
   -3.1403   -3.3623    1.6770 H   0  0  0  0  0  0  0  0  0  0  0  0
   -1.0771   -0.8401    3.0288 H   0  0  0  0  0  0  0  0  0  0  0  0
   -2.3191    2.4903    2.9190 H   0  0  0  0  0  0  0  0  0  0  0  0
   -1.8890    5.3974    2.7576 H   0  0  0  0  0  0  0  0  0  0  0  0
   -2.5856    6.2198    1.3549 H   0  0  0  0  0  0  0  0  0  0  0  0
   -3.3755    4.7841    2.0104 H   0  0  0  0  0  0  0  0  0  0  0  0
    0.3359    4.8363   -2.4279 H   0  0  0  0  0  0  0  0  0  0  0  0
    1.3580    3.5038   -1.8781 H   0  0  0  0  0  0  0  0  0  0  0  0
   -0.1337    3.1682   -2.7774 H   0  0  0  0  0  0  0  0  0  0  0  0
    0.4394    1.0932   -1.0109 H   0  0  0  0  0  0  0  0  0  0  0  0
    2.3593   -0.5169    1.0622 H   0  0  0  0  0  0  0  0  0  0  0  0
   -0.7194   -2.1130   -1.4599 H   0  0  0  0  0  0  0  0  0  0  0  0
    1.0222   -2.9529   -3.0149 H   0  0  0  0  0  0  0  0  0  0  0  0
    3.3894   -2.5839   -2.5689 H   0  0  0  0  0  0  0  0  0  0  0  0
    5.3487   -2.7781   -1.3222 H   0  0  0  0  0  0  0  0  0  0  0  0
    5.2208   -1.2694   -2.2385 H   0  0  0  0  0  0  0  0  0  0  0  0
    6.6423    0.6532   -1.7049 H   0  0  0  0  0  0  0  0  0  0  0  0
    8.7304    1.4663   -0.6798 H   0  0  0  0  0  0  0  0  0  0  0  0
    9.9329    0.0613    0.9659 H   0  0  0  0  0  0  0  0  0  0  0  0
    9.0298   -2.1584    1.5808 H   0  0  0  0  0  0  0  0  0  0  0  0
    6.9409   -2.9704    0.5534 H   0  0  0  0  0  0  0  0  0  0  0  0
 12 11  2  0
 13 11  2  0
 11 10  1  0
 11 14  1  6
 10  9  2  0
 10  4  1  0
  9  8  1  0
  4  3  2  0
  8  5  2  0
 14 15  1  0
  3  5  1  0
  3  2  1  0
  5  6  1  0
 19 18  1  0
 16 15  2  0
 16 17  1  0
 15 26  1  0
  1  2  1  0
  6  7  1  0
 18 17  1  0
 18 20  1  0
 17 24  2  0
 26 27  1  0
 26 25  2  0
 27 28  1  0
 20 21  2  0
 20 22  1  0
 24 25  1  0
 24 22  1  0
 28 29  2  0
 28 30  1  0
 29 33  1  0
 30 31  2  0
 22 23  1  0
 33 34  1  0
 33 32  2  0
 34 35  1  0
 32 31  1  0
 37 38  2  0
 37 36  1  0
 38 39  1  0
 36 35  1  0
 36 41  2  0
 39 40  2  0
 41 40  1  0
  1 42  1  0
  1 43  1  0
  1 44  1  0
  4 45  1  0
  7 46  1  0
  7 47  1  0
  7 48  1  0
  8 49  1  0
  9 50  1  0
 14 51  1  0
 16 52  1  0
 19 53  1  0
 19 54  1  0
 19 55  1  0
 23 56  1  0
 23 57  1  0
 23 58  1  0
 25 59  1  0
 29 60  1  0
 30 61  1  0
 31 62  1  0
 32 63  1  0
 35 64  1  0
 35 65  1  0
 37 66  1  0
 38 67  1  0
 39 68  1  0
 40 69  1  0
 41 70  1  0
M  END
