
     RDKit          3D

 34 35  0  0  0  0  0  0  0  0999 V2000
   -1.2175   -0.9171   -5.1958 O   0  0  0  0  0  0  0  0  0  0  0  0
    1.1988   -0.4228   -5.6031 O   0  0  0  0  0  0  0  0  0  0  0  0
   -1.5675   -0.0771    3.2299 C   0  0  0  0  0  0  0  0  0  0  0  0
   -0.6753   -0.0378    4.2454 C   0  0  0  0  0  0  0  0  0  0  0  0
   -0.9151   -0.0583    5.7214 C   0  0  1  0  0  0  0  0  0  0  0  0
   -0.3223   -1.3092    6.3701 C   0  0  0  0  0  0  0  0  0  0  0  0
   -0.4000    1.2126    6.3961 C   0  0  0  0  0  0  0  0  0  0  0  0
    0.9264    0.0386    3.5677 S   0  0  0  0  0  0  0  0  0  0  0  0
    0.2237    0.0106    1.9723 C   0  0  0  0  0  0  0  0  0  0  0  0
   -1.0658   -0.0492    1.9543 N   0  0  0  0  0  0  0  0  0  0  0  0
   -0.5329    1.4668   -5.2052 N   0  0  0  0  0  0  0  0  0  0  0  0
   -0.8008   -0.0915   -2.3070 C   0  0  0  0  0  0  0  0  0  0  0  0
    0.2656   -0.0495   -3.1950 C   0  0  0  0  0  0  0  0  0  0  0  0
    1.5697    0.0243   -2.7205 C   0  0  0  0  0  0  0  0  0  0  0  0
    1.7975    0.0586   -1.3612 C   0  0  0  0  0  0  0  0  0  0  0  0
    0.7311    0.0161   -0.4520 C   0  0  0  0  0  0  0  0  0  0  0  0
   -0.5784   -0.0605   -0.9434 C   0  0  0  0  0  0  0  0  0  0  0  0
   -0.0486   -0.0909   -4.9249 S   0  0  1  0  0  0  0  0  0  0  0  0
   -2.6384   -0.1270    3.3735 H   0  0  0  0  0  0  0  0  0  0  0  0
   -2.0021   -0.0934    5.8437 H   0  0  0  0  0  0  0  0  0  0  0  0
   -0.5551   -1.3341    7.4353 H   0  0  0  0  0  0  0  0  0  0  0  0
   -0.7178   -2.2170    5.9148 H   0  0  0  0  0  0  0  0  0  0  0  0
    0.7652   -1.3300    6.2713 H   0  0  0  0  0  0  0  0  0  0  0  0
    0.6850    1.2979    6.3054 H   0  0  0  0  0  0  0  0  0  0  0  0
   -0.8446    2.1047    5.9552 H   0  0  0  0  0  0  0  0  0  0  0  0
   -0.6394    1.2037    7.4601 H   0  0  0  0  0  0  0  0  0  0  0  0
   -0.9693    1.5573   -6.1186 H   0  0  0  0  0  0  0  0  0  0  0  0
    0.2304    2.1306   -5.1208 H   0  0  0  0  0  0  0  0  0  0  0  0
   -1.8195   -0.1525   -2.6674 H   0  0  0  0  0  0  0  0  0  0  0  0
    2.0401    0.1058    1.0888 H   0  0  0  0  0  0  0  0  0  0  0  0
    2.4101    0.0549   -3.3999 H   0  0  0  0  0  0  0  0  0  0  0  0
    2.8156    0.1167   -0.9958 H   0  0  0  0  0  0  0  0  0  0  0  0
   -1.4143   -0.0958   -0.2647 H   0  0  0  0  0  0  0  0  0  0  0  0
    1.0529    0.0514    0.8891 N   0  0  0  0  0  0  0  0  0  0  0  0
  1 18  2  0
  2 18  2  0
  3  4  2  0
  3 10  1  0
  3 19  1  0
  4  5  1  0
  4  8  1  0
  5  6  1  0
  5  7  1  0
  5 20  1  6
  6 21  1  0
  6 22  1  0
  6 23  1  0
  7 24  1  0
  7 25  1  0
  7 26  1  0
  8  9  1  0
  9 10  2  0
  9 34  1  0
 18 11  1  6
 11 27  1  0
 11 28  1  0
 12 13  2  0
 12 17  1  0
 12 29  1  0
 13 14  1  0
 13 18  1  0
 34 16  1  0
 34 30  1  0
 14 15  2  0
 14 31  1  0
 15 16  1  0
 15 32  1  0
 16 17  2  0
 17 33  1  0
M  END
