
     RDKit          3D

 76 78  0  0  0  0  0  0  0  0999 V2000
   -1.7383    2.6621   -2.5083 C   0  0  0  0  0  0  0  0  0  0  0  0
   -3.1964   -0.7691   -1.8389 C   0  0  0  0  0  0  0  0  0  0  0  0
   -2.8088   -1.4606   -3.0076 C   0  0  0  0  0  0  0  0  0  0  0  0
   -1.7132    0.5366   -3.8021 C   0  0  0  0  0  0  0  0  0  0  0  0
   -2.0689   -0.7999   -3.9735 C   0  0  0  0  0  0  0  0  0  0  0  0
    5.0272   -0.6893    2.0265 C   0  0  0  0  0  0  0  0  0  0  0  0
    2.9388   -1.8975    2.1231 C   0  0  0  0  0  0  0  0  0  0  0  0
    1.6976    1.7180   -2.2323 C   0  0  0  0  0  0  0  0  0  0  0  0
    2.7009    0.1558   -0.8855 C   0  0  0  0  0  0  0  0  0  0  0  0
    5.6776   -1.8596    1.6782 C   0  0  0  0  0  0  0  0  0  0  0  0
    3.6074   -3.0603    1.7728 C   0  0  0  0  0  0  0  0  0  0  0  0
    4.9813   -3.0617    1.5447 C   0  0  0  0  0  0  0  0  0  0  0  0
   -0.9913    3.0532   -1.4486 N   0  0  0  0  0  0  0  0  0  0  0  0
    2.6333    1.6128    1.1940 N   0  0  0  0  0  0  0  0  0  0  0  0
   -0.2561    2.1193   -0.6145 C   0  0  0  0  0  0  0  0  0  0  0  0
    1.2603    2.1219   -0.8119 C   0  0  1  0  0  0  0  0  0  0  0  0
   -2.0708    1.2091   -2.6503 C   0  0  0  0  0  0  0  0  0  0  0  0
    1.8844    1.0300    0.0900 C   0  0  1  0  0  0  0  0  0  0  0  0
    3.6549   -0.7158    2.2453 C   0  0  0  0  0  0  0  0  0  0  0  0
   -2.8240    0.5519   -1.6719 C   0  0  0  0  0  0  0  0  0  0  0  0
    3.6769    1.6217    3.4339 O   0  0  0  0  0  0  0  0  0  0  0  0
    1.4759    0.4493    3.0727 O   0  0  0  0  0  0  0  0  0  0  0  0
    2.0753    0.3110   -2.1846 N   0  0  0  0  0  0  0  0  0  0  0  0
   -2.1691    3.4526   -3.3390 O   0  0  0  0  0  0  0  0  0  0  0  0
   -3.2070   -2.7406   -3.0793 O   0  0  0  0  0  0  0  0  0  0  0  0
   -6.0037   -2.3324    3.2257 O   0  0  0  0  0  0  0  0  0  0  0  0
   -4.2490   -0.8837    0.2850 C   0  0  0  0  0  0  0  0  0  0  0  0
   -5.3690   -1.3350    2.4666 C   0  0  0  0  0  0  0  0  0  0  0  0
   -0.6182    4.8557    0.2175 C   0  0  0  0  0  0  0  0  0  0  0  0
    0.3055    5.0788   -2.1212 C   0  0  0  0  0  0  0  0  0  0  0  0
   -2.8716   -3.4811   -4.2360 C   0  0  0  0  0  0  0  0  0  0  0  0
   -6.4160   -1.8671    4.4852 C   0  0  0  0  0  0  0  0  0  0  0  0
   -1.1461    1.0350   -4.5776 H   0  0  0  0  0  0  0  0  0  0  0  0
   -1.7416    4.9634   -1.5716 H   0  0  0  0  0  0  0  0  0  0  0  0
   -1.7578   -1.3095   -4.8754 H   0  0  0  0  0  0  0  0  0  0  0  0
    5.5929    0.2281    2.1253 H   0  0  0  0  0  0  0  0  0  0  0  0
    1.8711   -1.9232    2.2931 H   0  0  0  0  0  0  0  0  0  0  0  0
    0.9280    1.8841   -2.9865 H   0  0  0  0  0  0  0  0  0  0  0  0
    2.5661    2.3094   -2.5342 H   0  0  0  0  0  0  0  0  0  0  0  0
    3.7320    0.5242   -0.9309 H   0  0  0  0  0  0  0  0  0  0  0  0
    2.7400   -0.8923   -0.5898 H   0  0  0  0  0  0  0  0  0  0  0  0
    6.7468   -1.8375    1.5074 H   0  0  0  0  0  0  0  0  0  0  0  0
    3.0447   -3.9804    1.6749 H   0  0  0  0  0  0  0  0  0  0  0  0
   -5.8645   -2.2611    0.5937 H   0  0  0  0  0  0  0  0  0  0  0  0
   -4.3213   -2.7822    1.2764 H   0  0  0  0  0  0  0  0  0  0  0  0
    3.4801    2.1017    0.9215 H   0  0  0  0  0  0  0  0  0  0  0  0
   -0.4830    2.3050    0.4379 H   0  0  0  0  0  0  0  0  0  0  0  0
   -0.6157    1.1138   -0.8206 H   0  0  0  0  0  0  0  0  0  0  0  0
    1.6737    3.0937   -0.5372 H   0  0  0  0  0  0  0  0  0  0  0  0
    1.0830    0.4281    0.5270 H   0  0  0  0  0  0  0  0  0  0  0  0
   -3.1170    1.0920   -0.7805 H   0  0  0  0  0  0  0  0  0  0  0  0
    1.2432   -0.2665   -2.2281 H   0  0  0  0  0  0  0  0  0  0  0  0
   -4.8865   -0.0054    0.1291 H   0  0  0  0  0  0  0  0  0  0  0  0
   -3.3401   -0.5452    0.7965 H   0  0  0  0  0  0  0  0  0  0  0  0
   -4.4795   -0.9566    2.9920 H   0  0  0  0  0  0  0  0  0  0  0  0
   -6.0380   -0.4739    2.3220 H   0  0  0  0  0  0  0  0  0  0  0  0
   -0.6277    5.9413    0.3156 H   0  0  0  0  0  0  0  0  0  0  0  0
   -1.4261    4.4632    0.8358 H   0  0  0  0  0  0  0  0  0  0  0  0
    0.3311    4.5049    0.6266 H   0  0  0  0  0  0  0  0  0  0  0  0
    0.1664    4.8155   -3.1687 H   0  0  0  0  0  0  0  0  0  0  0  0
    0.2972    6.1673   -2.0469 H   0  0  0  0  0  0  0  0  0  0  0  0
    1.2933    4.7373   -1.8122 H   0  0  0  0  0  0  0  0  0  0  0  0
    6.1079   -4.8003    2.0879 H   0  0  0  0  0  0  0  0  0  0  0  0
    5.0409   -5.0455    0.7119 H   0  0  0  0  0  0  0  0  0  0  0  0
    6.5408   -4.1325    0.5227 H   0  0  0  0  0  0  0  0  0  0  0  0
   -3.2866   -4.4760   -4.0958 H   0  0  0  0  0  0  0  0  0  0  0  0
   -3.3022   -3.0427   -5.1398 H   0  0  0  0  0  0  0  0  0  0  0  0
   -1.7897   -3.5662   -4.3664 H   0  0  0  0  0  0  0  0  0  0  0  0
   -5.5734   -1.5028    5.0854 H   0  0  0  0  0  0  0  0  0  0  0  0
   -7.1453   -1.0524    4.4031 H   0  0  0  0  0  0  0  0  0  0  0  0
   -6.8832   -2.6955    5.0161 H   0  0  0  0  0  0  0  0  0  0  0  0
   -3.9180   -1.4823   -0.9566 O   0  0  0  0  0  0  0  0  0  0  0  0
   -0.8080    4.5004   -1.2506 C   0  0  1  0  0  0  0  0  0  0  0  0
    2.8101    0.7952    2.6095 S   0  0  1  0  0  0  0  0  0  0  0  0
    5.7031   -4.3262    1.1915 C   0  0  0  0  0  0  0  0  0  0  0  0
   -4.9720   -1.9177    1.1231 C   0  0  0  0  0  0  0  0  0  0  0  0
 32 26  1  0
 10  6  2  0
 10 12  1  0
  6 19  1  0
 75 12  1  0
 12 11  2  0
 26 28  1  0
 21 74  2  0
 23  8  1  0
 23  9  1  0
 19 74  1  0
 19  7  2  0
 28 76  1  0
 74 14  1  6
 14 18  1  0
  8 16  1  0
 74 22  2  0
 11  7  1  0
  9 18  1  0
 18 16  1  0
 27 76  1  0
 27 72  1  0
 16 15  1  0
 72  2  1  0
 29 73  1  0
 15 13  1  0
 20  2  2  0
 20 17  1  0
 24  1  2  0
 13  1  1  0
 13 73  1  0
  2  3  1  0
  1 17  1  0
 73 30  1  0
 17  4  2  0
  3 25  1  0
  3  5  2  0
 25 31  1  0
  4  5  1  0
  4 33  1  0
 73 34  1  6
  5 35  1  0
  6 36  1  0
  7 37  1  0
  8 38  1  0
  8 39  1  0
  9 40  1  0
  9 41  1  0
 10 42  1  0
 11 43  1  0
 76 44  1  0
 76 45  1  0
 14 46  1  0
 15 47  1  0
 15 48  1  0
 16 49  1  1
 18 50  1  1
 20 51  1  0
 23 52  1  0
 27 53  1  0
 27 54  1  0
 28 55  1  0
 28 56  1  0
 29 57  1  0
 29 58  1  0
 29 59  1  0
 30 60  1  0
 30 61  1  0
 30 62  1  0
 75 63  1  0
 75 64  1  0
 75 65  1  0
 31 66  1  0
 31 67  1  0
 31 68  1  0
 32 69  1  0
 32 70  1  0
 32 71  1  0
M  END
