
     RDKit          3D

 32 32  0  0  0  0  0  0  0  0999 V2000
   -3.0407   -0.1683    0.2055 C   0  0  0  0  0  0  0  0  0  0  0  0
   -2.0070    0.2506    1.0237 C   0  0  0  0  0  0  0  0  0  0  0  0
   -0.7603   -0.3381    0.8801 C   0  0  0  0  0  0  0  0  0  0  0  0
   -0.5443   -1.3337   -0.0694 C   0  0  0  0  0  0  0  0  0  0  0  0
   -1.6028   -1.7316   -0.8822 C   0  0  0  0  0  0  0  0  0  0  0  0
   -2.8544   -1.1568   -0.7466 C   0  0  0  0  0  0  0  0  0  0  0  0
   -4.3080    0.3702    0.3730 O   0  0  0  0  0  0  0  0  0  0  0  0
   -4.6080    1.4912   -0.2976 C   0  0  1  0  0  0  0  0  0  0  0  0
   -4.4521    1.3598   -1.6149 F   0  0  0  0  0  0  0  0  0  0  0  0
   -5.8744    1.7796   -0.0497 F   0  0  0  0  0  0  0  0  0  0  0  0
   -3.8591    2.5295    0.0781 F   0  0  0  0  0  0  0  0  0  0  0  0
    0.7901   -1.9751   -0.2916 C   0  0  0  0  0  0  0  0  0  0  0  0
    1.6824   -1.8695    0.7081 N   0  0  0  0  0  0  0  0  0  0  0  0
    1.0377   -2.5589   -1.3364 O   0  0  0  0  0  0  0  0  0  0  0  0
    3.0330   -2.3693    0.6025 C   0  0  0  0  0  0  0  0  0  0  0  0
    3.9147   -1.5148   -0.2867 C   0  0  0  0  0  0  0  0  0  0  0  0
    3.9382   -0.1742    0.2211 O   0  0  0  0  0  0  0  0  0  0  0  0
    3.5938    1.0532   -0.7341 P   0  0  1  0  0  0  0  0  0  0  0  0
    3.8624    2.2047    0.3366 O   0  0  0  0  0  0  0  0  0  0  0  0
    4.3136    1.1071   -2.0191 O   0  0  0  0  0  0  0  0  0  0  0  0
    2.0163    1.0218   -1.0096 O   0  0  0  0  0  0  0  0  0  0  0  0
   -2.1634    1.0151    1.7722 H   0  0  0  0  0  0  0  0  0  0  0  0
    0.0349    0.0078    1.5284 H   0  0  0  0  0  0  0  0  0  0  0  0
   -1.4516   -2.4993   -1.6280 H   0  0  0  0  0  0  0  0  0  0  0  0
   -3.6777   -1.4843   -1.3672 H   0  0  0  0  0  0  0  0  0  0  0  0
    1.4006   -1.4853    1.5940 H   0  0  0  0  0  0  0  0  0  0  0  0
    3.0408   -3.3900    0.2153 H   0  0  0  0  0  0  0  0  0  0  0  0
    3.4467   -2.4069    1.6092 H   0  0  0  0  0  0  0  0  0  0  0  0
    3.5644   -1.5484   -1.3195 H   0  0  0  0  0  0  0  0  0  0  0  0
    4.9334   -1.9043   -0.2713 H   0  0  0  0  0  0  0  0  0  0  0  0
    3.8524    3.0958   -0.0376 H   0  0  0  0  0  0  0  0  0  0  0  0
    1.4501    1.1528   -0.2386 H   0  0  0  0  0  0  0  0  0  0  0  0
  1  2  2  0
  1  6  1  0
  1  7  1  0
  2  3  1  0
  2 22  1  0
  3  4  2  0
  3 23  1  0
  4  5  1  0
  4 12  1  0
  5  6  2  0
  5 24  1  0
  6 25  1  0
  7  8  1  0
  8  9  1  6
  8 10  1  0
  8 11  1  0
 12 13  1  0
 12 14  2  0
 13 15  1  0
 13 26  1  0
 15 16  1  0
 15 27  1  0
 15 28  1  0
 16 17  1  0
 16 29  1  0
 16 30  1  0
 18 17  1  1
 18 19  1  0
 18 20  2  0
 18 21  1  0
 19 31  1  0
 21 32  1  0
M  END
