
     RDKit          3D

 29 30  0  0  0  0  0  0  0  0999 V2000
    2.6674   -0.4629    1.4318 O   0  0  0  0  0  0  0  0  0  0  0  0
    2.3699    0.2761    0.2270 S   0  0  2  0  0  0  0  0  0  0  0  0
    3.4762    0.9064   -0.4586 O   0  0  0  0  0  0  0  0  0  0  0  0
    1.0699    1.2721    0.4712 N   0  0  0  0  0  0  0  0  0  0  0  0
    0.1458    1.1403   -0.6528 C   0  0  1  0  0  0  0  0  0  0  0  0
    0.2043   -0.3619   -0.9300 C   0  0  1  0  0  0  0  0  0  0  0  0
    1.6149   -0.6751   -0.8257 O   0  0  0  0  0  0  0  0  0  0  0  0
   -0.5977   -1.2152    0.0517 C   0  0  2  0  0  0  0  0  0  0  0  0
   -0.5660   -2.6773   -0.3769 C   0  0  0  0  0  0  0  0  0  0  0  0
   -1.2643   -3.4413    0.5775 O   0  0  0  0  0  0  0  0  0  0  0  0
   -2.0135   -0.6684    0.1992 C   0  0  2  0  0  0  0  0  0  0  0  0
   -2.6590   -0.7659   -1.0500 O   0  0  0  0  0  0  0  0  0  0  0  0
   -1.9600    0.7711    0.7020 C   0  0  2  0  0  0  0  0  0  0  0  0
   -3.2847    1.2025    0.9036 O   0  0  0  0  0  0  0  0  0  0  0  0
   -1.2457    1.6584   -0.3078 C   0  0  1  0  0  0  0  0  0  0  0  0
   -1.1777    2.9614    0.2237 O   0  0  0  0  0  0  0  0  0  0  0  0
    1.3392    2.2201    0.7142 H   0  0  0  0  0  0  0  0  0  0  0  0
    0.5107    1.6845   -1.5326 H   0  0  0  0  0  0  0  0  0  0  0  0
   -0.0717   -0.5746   -1.9624 H   0  0  0  0  0  0  0  0  0  0  0  0
   -0.1347   -1.1442    1.0421 H   0  0  0  0  0  0  0  0  0  0  0  0
   -1.0051   -2.7778   -1.3771 H   0  0  0  0  0  0  0  0  0  0  0  0
    0.4787   -3.0025   -0.4537 H   0  0  0  0  0  0  0  0  0  0  0  0
   -1.2799   -4.3540    0.2761 H   0  0  0  0  0  0  0  0  0  0  0  0
   -2.5358   -1.2676    0.9562 H   0  0  0  0  0  0  0  0  0  0  0  0
   -3.5426   -0.3920   -0.9650 H   0  0  0  0  0  0  0  0  0  0  0  0
   -1.3973    0.7731    1.6472 H   0  0  0  0  0  0  0  0  0  0  0  0
   -3.2705    2.1488    1.0837 H   0  0  0  0  0  0  0  0  0  0  0  0
   -1.8238    1.6490   -1.2392 H   0  0  0  0  0  0  0  0  0  0  0  0
   -1.1345    3.5944   -0.4997 H   0  0  0  0  0  0  0  0  0  0  0  0
  1  2  2  0
 10  9  1  0
  2  3  2  0
  2  7  1  6
  2  4  1  0
  9  8  1  0
  7  6  1  0
  8  6  1  0
  8 11  1  0
  4  5  1  0
  6  5  1  0
 11 13  1  0
 11 12  1  0
 13 14  1  0
 13 15  1  0
  5 15  1  0
 15 16  1  0
  4 17  1  0
  5 18  1  6
  6 19  1  6
  8 20  1  1
  9 21  1  0
  9 22  1  0
 10 23  1  0
 11 24  1  1
 12 25  1  0
 13 26  1  1
 14 27  1  0
 15 28  1  6
 16 29  1  0
M  END
