
     RDKit          3D

 22 23  0  0  0  0  0  0  0  0999 V2000
    4.0567   -0.1452   -0.0347 C   0  0  0  0  0  0  0  0  0  0  0  0
    2.7562    0.4390   -0.0423 O   0  0  0  0  0  0  0  0  0  0  0  0
    1.7150   -0.3826    0.0020 C   0  0  0  0  0  0  0  0  0  0  0  0
    1.8305   -1.5857    0.0441 O   0  0  0  0  0  0  0  0  0  0  0  0
    0.4189    0.3276   -0.0054 C   0  0  0  0  0  0  0  0  0  0  0  0
    0.3486    1.7152    0.0053 C   0  0  0  0  0  0  0  0  0  0  0  0
   -0.8777    2.3862    0.0064 C   0  0  0  0  0  0  0  0  0  0  0  0
   -2.0721    1.6910   -0.0062 C   0  0  0  0  0  0  0  0  0  0  0  0
   -2.0084    0.3030   -0.0197 C   0  0  0  0  0  0  0  0  0  0  0  0
   -0.7836   -0.4103   -0.0166 C   0  0  0  0  0  0  0  0  0  0  0  0
   -1.1253   -1.7963   -0.0332 C   0  0  0  0  0  0  0  0  0  0  0  0
   -2.4909   -1.8649   -0.0452 C   0  0  0  0  0  0  0  0  0  0  0  0
   -3.0195   -0.6118   -0.0374 N   0  0  0  0  0  0  0  0  0  0  0  0
    4.2403   -0.6971    0.8871 H   0  0  0  0  0  0  0  0  0  0  0  0
    4.2026   -0.8110   -0.8851 H   0  0  0  0  0  0  0  0  0  0  0  0
    4.7553    0.6833   -0.1033 H   0  0  0  0  0  0  0  0  0  0  0  0
    1.2535    2.3057    0.0153 H   0  0  0  0  0  0  0  0  0  0  0  0
   -0.8881    3.4676    0.0166 H   0  0  0  0  0  0  0  0  0  0  0  0
   -3.0225    2.2099   -0.0066 H   0  0  0  0  0  0  0  0  0  0  0  0
   -4.0029   -0.3977   -0.0402 H   0  0  0  0  0  0  0  0  0  0  0  0
   -0.4580   -2.6393   -0.0355 H   0  0  0  0  0  0  0  0  0  0  0  0
   -3.1342   -2.7299   -0.0592 H   0  0  0  0  0  0  0  0  0  0  0  0
  1  2  1  0
  2  3  1  0
  3  4  2  0
  3  5  1  0
  5  6  2  0
  5 10  1  0
  6  7  1  0
  7  8  2  0
  8  9  1  0
  9 10  2  0
  9 13  1  0
 10 11  1  0
 11 12  2  0
 12 13  1  0
  1 14  1  0
  1 15  1  0
  1 16  1  0
  6 17  1  0
  7 18  1  0
  8 19  1  0
 13 20  1  0
 11 21  1  0
 12 22  1  0
M  END
