
     RDKit          3D

 56 60  0  0  0  0  0  0  0  0999 V2000
   -8.5394   -0.0910   -0.2037 F   0  0  0  0  0  0  0  0  0  0  0  0
   -7.4373    0.5906   -0.5248 C   0  0  1  0  0  0  0  0  0  0  0  0
   -7.2257    0.3997   -1.8350 F   0  0  0  0  0  0  0  0  0  0  0  0
   -7.7232    1.8924   -0.3733 F   0  0  0  0  0  0  0  0  0  0  0  0
   -6.2495    0.1900    0.2940 C   0  0  0  0  0  0  0  0  0  0  0  0
   -5.0315    0.7898    0.0109 C   0  0  0  0  0  0  0  0  0  0  0  0
   -6.3580   -0.7399    1.3181 C   0  0  0  0  0  0  0  0  0  0  0  0
   -5.2229   -1.0548    2.0493 C   0  0  0  0  0  0  0  0  0  0  0  0
   -3.9972   -0.4670    1.7812 C   0  0  0  0  0  0  0  0  0  0  0  0
   -3.8930    0.4694    0.7492 C   0  0  0  0  0  0  0  0  0  0  0  0
   -2.7159    1.1276    0.3910 N   0  0  0  0  0  0  0  0  0  0  0  0
   -1.4821    1.0442    0.9534 C   0  0  0  0  0  0  0  0  0  0  0  0
   -1.2034    0.2857    1.8649 O   0  0  0  0  0  0  0  0  0  0  0  0
   -0.4537    1.9504    0.3587 C   0  0  0  0  0  0  0  0  0  0  0  0
    0.8794    1.5966    0.5336 C   0  0  0  0  0  0  0  0  0  0  0  0
   -0.7622    3.1326   -0.3086 C   0  0  0  0  0  0  0  0  0  0  0  0
    0.2572    3.9279   -0.8039 C   0  0  0  0  0  0  0  0  0  0  0  0
    1.5943    3.5687   -0.6768 C   0  0  0  0  0  0  0  0  0  0  0  0
    2.6758    4.4356   -1.2455 C   0  0  0  0  0  0  0  0  0  0  0  0
    1.8954    2.3795    0.0017 C   0  0  0  0  0  0  0  0  0  0  0  0
    3.2466    2.0316    0.1608 N   0  0  0  0  0  0  0  0  0  0  0  0
    3.7909    0.7992    0.0913 C   0  0  0  0  0  0  0  0  0  0  0  0
    3.0299   -0.2501   -0.1735 N   0  0  0  0  0  0  0  0  0  0  0  0
    5.1749    0.6041    0.2834 C   0  0  0  0  0  0  0  0  0  0  0  0
    6.3457    1.3454    0.5588 C   0  0  0  0  0  0  0  0  0  0  0  0
    7.3825    0.5475    0.6194 N   0  0  0  0  0  0  0  0  0  0  0  0
    6.9413   -0.7004    0.3967 N   0  0  0  0  0  0  0  0  0  0  0  0
    7.8570   -1.8134    0.3785 C   0  0  0  0  0  0  0  0  0  0  0  0
    5.6143   -0.7187    0.1838 C   0  0  0  0  0  0  0  0  0  0  0  0
    4.8489   -1.7810   -0.0716 N   0  0  0  0  0  0  0  0  0  0  0  0
    3.5803   -1.4677   -0.2378 C   0  0  0  0  0  0  0  0  0  0  0  0
    2.6465   -2.5721   -0.5245 C   0  0  0  0  0  0  0  0  0  0  0  0
    3.0698   -3.8932   -0.6287 C   0  0  0  0  0  0  0  0  0  0  0  0
    2.2320   -4.8877   -0.8828 N   0  0  0  0  0  0  0  0  0  0  0  0
    0.9556   -4.5654   -1.0350 C   0  0  0  0  0  0  0  0  0  0  0  0
    0.4386   -3.3486   -0.9568 N   0  0  0  0  0  0  0  0  0  0  0  0
    1.2834   -2.3594   -0.7026 C   0  0  0  0  0  0  0  0  0  0  0  0
   -4.9536    1.5197   -0.7872 H   0  0  0  0  0  0  0  0  0  0  0  0
   -7.2980   -1.2183    1.5526 H   0  0  0  0  0  0  0  0  0  0  0  0
   -5.2899   -1.7786    2.8501 H   0  0  0  0  0  0  0  0  0  0  0  0
   -3.1390   -0.7416    2.3708 H   0  0  0  0  0  0  0  0  0  0  0  0
   -2.8043    1.7271   -0.4145 H   0  0  0  0  0  0  0  0  0  0  0  0
    1.1226    0.7021    1.0854 H   0  0  0  0  0  0  0  0  0  0  0  0
   -1.7835    3.4703   -0.4296 H   0  0  0  0  0  0  0  0  0  0  0  0
    0.0076    4.8513   -1.3107 H   0  0  0  0  0  0  0  0  0  0  0  0
    3.2985    4.8760   -0.4625 H   0  0  0  0  0  0  0  0  0  0  0  0
    3.3375    3.8740   -1.9072 H   0  0  0  0  0  0  0  0  0  0  0  0
    2.2513    5.2588   -1.8165 H   0  0  0  0  0  0  0  0  0  0  0  0
    3.8928    2.7939    0.2947 H   0  0  0  0  0  0  0  0  0  0  0  0
    6.4654    2.4073    0.7115 H   0  0  0  0  0  0  0  0  0  0  0  0
    8.4367   -1.8336    1.2985 H   0  0  0  0  0  0  0  0  0  0  0  0
    7.2841   -2.7328    0.3007 H   0  0  0  0  0  0  0  0  0  0  0  0
    8.5309   -1.7417   -0.4731 H   0  0  0  0  0  0  0  0  0  0  0  0
    4.1157   -4.1468   -0.5019 H   0  0  0  0  0  0  0  0  0  0  0  0
    0.2678   -5.3768   -1.2445 H   0  0  0  0  0  0  0  0  0  0  0  0
    0.8726   -1.3586   -0.6394 H   0  0  0  0  0  0  0  0  0  0  0  0
 26 25  2  0
 26 27  1  0
 28 27  1  0
 25 24  1  0
 27 29  1  0
 24 29  2  0
 24 22  1  0
 29 30  1  0
 22 21  1  0
 22 23  2  0
 21 20  1  0
 30 31  2  0
 19 18  1  0
 23 31  1  0
 31 32  1  0
 20 18  1  0
 20 15  2  0
 18 17  2  0
 15 14  1  0
 32 37  1  0
 32 33  2  0
 37 36  2  0
 17 16  1  0
 14 16  2  0
 14 12  1  0
 33 34  1  0
 36 35  1  0
 13 12  2  0
 12 11  1  0
  2  4  1  6
 34 35  2  0
 11 10  1  0
  6 10  1  0
  6  5  2  0
  2  1  1  0
  2  5  1  0
  2  3  1  0
 10  9  2  0
  5  7  1  0
  9  8  1  0
  7  8  2  0
  6 38  1  0
  7 39  1  0
  8 40  1  0
  9 41  1  0
 11 42  1  0
 15 43  1  0
 16 44  1  0
 17 45  1  0
 19 46  1  0
 19 47  1  0
 19 48  1  0
 21 49  1  0
 25 50  1  0
 28 51  1  0
 28 52  1  0
 28 53  1  0
 33 54  1  0
 35 55  1  0
 37 56  1  0
M  END
