
     RDKit          3D

 45 47  0  0  0  0  0  0  0  0999 V2000
    2.8503    2.0044   -0.2880 N   0  0  0  0  0  0  0  0  0  0  0  0
    2.5118    0.7081   -0.1843 C   0  0  0  0  0  0  0  0  0  0  0  0
    1.2540    0.0941   -0.3080 C   0  0  0  0  0  0  0  0  0  0  0  0
    1.5313   -1.2843   -0.1128 C   0  0  0  0  0  0  0  0  0  0  0  0
    2.7952   -1.5104    0.0944 N   0  0  0  0  0  0  0  0  0  0  0  0
    3.3944   -0.2871    0.0306 N   0  0  0  0  0  0  0  0  0  0  0  0
    4.7883   -0.1783    0.2190 C   0  0  0  0  0  0  0  0  0  0  0  0
    5.5678    0.4957   -0.7129 C   0  0  0  0  0  0  0  0  0  0  0  0
    6.9368    0.6057   -0.5214 C   0  0  0  0  0  0  0  0  0  0  0  0
    7.5001    0.0153    0.5926 C   0  0  0  0  0  0  0  0  0  0  0  0
    8.8233    0.1140    0.7784 F   0  0  0  0  0  0  0  0  0  0  0  0
    6.7446   -0.6762    1.5215 C   0  0  0  0  0  0  0  0  0  0  0  0
    5.3753   -0.7651    1.3338 C   0  0  0  0  0  0  0  0  0  0  0  0
    0.0103    0.7909   -0.5029 C   0  0  0  0  0  0  0  0  0  0  0  0
   -0.0643    2.0139   -0.4341 O   0  0  0  0  0  0  0  0  0  0  0  0
   -1.2194   -0.0083   -0.7819 C   0  0  0  0  0  0  0  0  0  0  0  0
   -1.1991   -1.0887   -1.6645 C   0  0  0  0  0  0  0  0  0  0  0  0
   -2.3771   -1.7627   -1.9362 C   0  0  0  0  0  0  0  0  0  0  0  0
   -3.5718   -1.3943   -1.3306 C   0  0  0  0  0  0  0  0  0  0  0  0
   -3.5910   -0.3153   -0.4481 C   0  0  0  0  0  0  0  0  0  0  0  0
   -4.6902    0.1206    0.1942 O   0  0  0  0  0  0  0  0  0  0  0  0
   -5.9191   -0.5385   -0.0387 C   0  0  0  0  0  0  0  0  0  0  0  0
   -6.9829    0.1301    0.8172 C   0  0  1  0  0  0  0  0  0  0  0  0
   -7.0949    1.5058    0.5501 O   0  0  0  0  0  0  0  0  0  0  0  0
   -8.3005   -0.6101    0.6459 C   0  0  0  0  0  0  0  0  0  0  0  0
   -9.2467   -0.0652    1.5315 O   0  0  0  0  0  0  0  0  0  0  0  0
   -2.4128    0.3846   -0.1921 C   0  0  0  0  0  0  0  0  0  0  0  0
    3.7237    2.3181    0.1050 H   0  0  0  0  0  0  0  0  0  0  0  0
    2.0887    2.6597   -0.2205 H   0  0  0  0  0  0  0  0  0  0  0  0
    0.8294   -2.1041   -0.0999 H   0  0  0  0  0  0  0  0  0  0  0  0
    5.1183    0.9275   -1.5972 H   0  0  0  0  0  0  0  0  0  0  0  0
    7.5527    1.1305   -1.2392 H   0  0  0  0  0  0  0  0  0  0  0  0
    7.2139   -1.1292    2.3843 H   0  0  0  0  0  0  0  0  0  0  0  0
    4.7658   -1.2921    2.0553 H   0  0  0  0  0  0  0  0  0  0  0  0
   -0.2835   -1.3807   -2.1608 H   0  0  0  0  0  0  0  0  0  0  0  0
   -2.3744   -2.5912   -2.6319 H   0  0  0  0  0  0  0  0  0  0  0  0
   -4.4684   -1.9540   -1.5600 H   0  0  0  0  0  0  0  0  0  0  0  0
   -6.1927   -0.4788   -1.1005 H   0  0  0  0  0  0  0  0  0  0  0  0
   -5.8458   -1.5991    0.2263 H   0  0  0  0  0  0  0  0  0  0  0  0
   -6.6775    0.0540    1.8664 H   0  0  0  0  0  0  0  0  0  0  0  0
   -7.4110    1.6225   -0.3528 H   0  0  0  0  0  0  0  0  0  0  0  0
   -8.6278   -0.5250   -0.4011 H   0  0  0  0  0  0  0  0  0  0  0  0
   -8.1321   -1.6776    0.8385 H   0  0  0  0  0  0  0  0  0  0  0  0
  -10.0813   -0.5206    1.3906 H   0  0  0  0  0  0  0  0  0  0  0  0
   -2.4357    1.2291    0.4858 H   0  0  0  0  0  0  0  0  0  0  0  0
  1  2  1  0
  1 28  1  0
  1 29  1  0
  2  3  2  0
  2  6  1  0
  3  4  1  0
  3 14  1  0
  4  5  2  0
  4 30  1  0
  5  6  1  0
  6  7  1  0
  7  8  2  0
  7 13  1  0
  8  9  1  0
  8 31  1  0
  9 10  2  0
  9 32  1  0
 10 11  1  0
 10 12  1  0
 12 13  2  0
 12 33  1  0
 13 34  1  0
 14 15  2  0
 14 16  1  0
 16 17  2  0
 16 27  1  0
 17 18  1  0
 17 35  1  0
 18 19  2  0
 18 36  1  0
 19 20  1  0
 19 37  1  0
 20 21  1  0
 20 27  2  0
 21 22  1  0
 22 23  1  0
 22 38  1  0
 22 39  1  0
 23 24  1  0
 23 25  1  0
 23 40  1  1
 24 41  1  0
 25 26  1  0
 25 42  1  0
 25 43  1  0
 26 44  1  0
 27 45  1  0
M  END
