
     RDKit          3D

 29 30  0  0  0  0  0  0  0  0999 V2000
   -0.2809   -0.6332    1.0105 C   0  0  2  0  0  0  0  0  0  0  0  0
   -1.2915   -1.7248   -0.0853 S   0  0  0  0  0  0  0  0  0  0  0  0
   -0.8170    0.7911    0.7270 C   0  0  2  0  0  0  0  0  0  0  0  0
   -2.2447    0.6926    0.5239 N   0  0  0  0  0  0  0  0  0  0  0  0
   -0.1290    1.4113   -0.4855 C   0  0  1  0  0  0  0  0  0  0  0  0
   -0.5116    2.7593   -0.5473 O   0  0  0  0  0  0  0  0  0  0  0  0
    1.3812    1.2186   -0.4080 C   0  0  1  0  0  0  0  0  0  0  0  0
    1.8685    1.9290    0.7029 O   0  0  0  0  0  0  0  0  0  0  0  0
    1.6581   -0.2814   -0.3160 C   0  0  2  0  0  0  0  0  0  0  0  0
    1.0846   -0.8088    0.8635 O   0  0  0  0  0  0  0  0  0  0  0  0
    3.1373   -0.5959   -0.2966 C   0  0  0  0  0  0  0  0  0  0  0  0
    3.3124   -1.9897   -0.3766 O   0  0  0  0  0  0  0  0  0  0  0  0
   -2.5448   -0.3762   -0.3926 C   0  0  2  0  0  0  0  0  0  0  0  0
   -3.9566   -0.8916   -0.2314 C   0  0  0  0  0  0  0  0  0  0  0  0
   -0.5004   -0.9042    2.0440 H   0  0  0  0  0  0  0  0  0  0  0  0
   -0.6262    1.4211    1.5996 H   0  0  0  0  0  0  0  0  0  0  0  0
   -2.6973    0.5129    1.4130 H   0  0  0  0  0  0  0  0  0  0  0  0
   -0.4509    0.8730   -1.3885 H   0  0  0  0  0  0  0  0  0  0  0  0
   -0.1901    3.1283   -1.3761 H   0  0  0  0  0  0  0  0  0  0  0  0
    1.8250    1.5882   -1.3448 H   0  0  0  0  0  0  0  0  0  0  0  0
    2.8227    2.0176    0.6255 H   0  0  0  0  0  0  0  0  0  0  0  0
    1.2156   -0.7616   -1.2025 H   0  0  0  0  0  0  0  0  0  0  0  0
    3.5964   -0.0790   -1.1501 H   0  0  0  0  0  0  0  0  0  0  0  0
    3.5943   -0.1865    0.6138 H   0  0  0  0  0  0  0  0  0  0  0  0
    4.2556   -2.1725   -0.3453 H   0  0  0  0  0  0  0  0  0  0  0  0
   -2.3973   -0.0392   -1.4196 H   0  0  0  0  0  0  0  0  0  0  0  0
   -4.1236   -1.2702    0.7777 H   0  0  0  0  0  0  0  0  0  0  0  0
   -4.6691   -0.0880   -0.4254 H   0  0  0  0  0  0  0  0  0  0  0  0
   -4.1611   -1.6960   -0.9360 H   0  0  0  0  0  0  0  0  0  0  0  0
  1  2  1  0
  1  3  1  0
  1 10  1  0
  2 13  1  0
  3  4  1  0
  3  5  1  0
  4 13  1  0
  5  6  1  0
  5  7  1  0
  7  8  1  0
  7  9  1  0
  9 10  1  0
  9 11  1  0
 11 12  1  0
 13 14  1  0
  1 15  1  1
  3 16  1  1
  4 17  1  0
  5 18  1  6
  6 19  1  0
  7 20  1  6
  8 21  1  0
  9 22  1  6
 11 23  1  0
 11 24  1  0
 12 25  1  0
 13 26  1  6
 14 27  1  0
 14 28  1  0
 14 29  1  0
M  END
