
     RDKit          3D

 44 47  0  0  0  0  0  0  0  0999 V2000
   -3.1054    2.6933    0.3695 C   0  0  0  0  0  0  0  0  0  0  0  0
   -3.2253    0.2753    0.2550 C   0  0  0  0  0  0  0  0  0  0  0  0
   -4.5696    0.3893   -0.0950 C   0  0  0  0  0  0  0  0  0  0  0  0
   -5.1801    1.6274   -0.2160 C   0  0  0  0  0  0  0  0  0  0  0  0
   -1.2751   -1.4384    0.1006 C   0  0  0  0  0  0  0  0  0  0  0  0
   -1.2253   -2.7760    0.4759 C   0  0  0  0  0  0  0  0  0  0  0  0
   -0.1999   -0.6881   -0.5503 C   0  0  0  0  0  0  0  0  0  0  0  0
   -0.4421    0.0674   -1.7007 C   0  0  0  0  0  0  0  0  0  0  0  0
    0.5874    0.7660   -2.3092 C   0  0  0  0  0  0  0  0  0  0  0  0
    1.8759    0.7158   -1.7956 C   0  0  0  0  0  0  0  0  0  0  0  0
   -4.4496    2.7903    0.0155 C   0  0  0  0  0  0  0  0  0  0  0  0
   -2.5088    1.4504    0.4873 C   0  0  0  0  0  0  0  0  0  0  0  0
   -4.9882    4.0215   -0.0851 O   0  0  0  0  0  0  0  0  0  0  0  0
   -2.6029   -1.0441    0.4130 C   0  0  0  0  0  0  0  0  0  0  0  0
   -2.4438   -3.0797    0.9496 N   0  0  0  0  0  0  0  0  0  0  0  0
   -3.2943   -2.0423    0.9262 N   0  0  0  0  0  0  0  0  0  0  0  0
    2.1481   -0.0358   -0.6535 C   0  0  0  0  0  0  0  0  0  0  0  0
    1.0987   -0.7232   -0.0421 C   0  0  0  0  0  0  0  0  0  0  0  0
    3.5131   -0.1015   -0.0899 C   0  0  0  0  0  0  0  0  0  0  0  0
    4.3278    1.0276   -0.0970 C   0  0  0  0  0  0  0  0  0  0  0  0
    5.6253    0.9953    0.4243 C   0  0  0  0  0  0  0  0  0  0  0  0
    6.0982   -0.2085    0.9607 C   0  0  0  0  0  0  0  0  0  0  0  0
    5.2876   -1.3313    0.9690 C   0  0  0  0  0  0  0  0  0  0  0  0
    4.0008   -1.2924    0.4514 C   0  0  0  0  0  0  0  0  0  0  0  0
    6.3944    2.1385    0.4647 N   0  0  0  0  0  0  0  0  0  0  0  0
   -2.5339    3.5928    0.5614 H   0  0  0  0  0  0  0  0  0  0  0  0
   -5.1509   -0.5043   -0.2827 H   0  0  0  0  0  0  0  0  0  0  0  0
   -6.2268    1.6851   -0.4929 H   0  0  0  0  0  0  0  0  0  0  0  0
   -1.4388    0.1020   -2.1215 H   0  0  0  0  0  0  0  0  0  0  0  0
    0.3898    1.3425   -3.2038 H   0  0  0  0  0  0  0  0  0  0  0  0
    2.6735    1.2471   -2.2987 H   0  0  0  0  0  0  0  0  0  0  0  0
   -1.4682    1.3993    0.7800 H   0  0  0  0  0  0  0  0  0  0  0  0
   -5.9218    3.9612   -0.3161 H   0  0  0  0  0  0  0  0  0  0  0  0
   -2.7475   -3.9659    1.3198 H   0  0  0  0  0  0  0  0  0  0  0  0
    1.2911   -1.2665    0.8761 H   0  0  0  0  0  0  0  0  0  0  0  0
    3.9472    1.9627   -0.4928 H   0  0  0  0  0  0  0  0  0  0  0  0
    7.1002   -0.2578    1.3710 H   0  0  0  0  0  0  0  0  0  0  0  0
    5.6717   -2.2570    1.3787 H   0  0  0  0  0  0  0  0  0  0  0  0
    3.3932   -2.1884    0.4433 H   0  0  0  0  0  0  0  0  0  0  0  0
    0.5385   -3.4341   -0.2053 H   0  0  0  0  0  0  0  0  0  0  0  0
   -0.4671   -4.6405    0.3299 H   0  0  0  0  0  0  0  0  0  0  0  0
    6.1601    2.8476   -0.2116 H   0  0  0  0  0  0  0  0  0  0  0  0
    7.3896    1.9932    0.5211 H   0  0  0  0  0  0  0  0  0  0  0  0
   -0.1920   -3.6765    0.4473 N   0  0  0  0  0  0  0  0  0  0  0  0
 44  6  1  0
  8  9  2  0
  8  7  1  0
 15  6  1  0
 15 16  1  0
  6  5  2  0
  9 10  1  0
 16 14  2  0
  5  7  1  0
  5 14  1  0
  7 18  2  0
 14  2  1  0
 12  2  1  0
 12  1  2  0
 10 17  2  0
  2  3  2  0
  1 11  1  0
 18 17  1  0
 17 19  1  0
  3  4  1  0
 11  4  2  0
 11 13  1  0
 19 24  1  0
 19 20  2  0
 24 23  2  0
 20 21  1  0
 23 22  1  0
 21 22  2  0
 21 25  1  0
  1 26  1  0
  3 27  1  0
  4 28  1  0
  8 29  1  0
  9 30  1  0
 10 31  1  0
 12 32  1  0
 13 33  1  0
 15 34  1  0
 18 35  1  0
 20 36  1  0
 22 37  1  0
 23 38  1  0
 24 39  1  0
 44 40  1  0
 44 41  1  0
 25 42  1  0
 25 43  1  0
M  END
