
     RDKit          3D

 57 60  0  0  0  0  0  0  0  0999 V2000
    6.6444   -2.0687   -0.5000 C   0  0  0  0  0  0  0  0  0  0  0  0
    7.9604   -2.8136   -0.2946 C   0  0  0  0  0  0  0  0  0  0  0  0
    9.1486   -1.8586   -0.3023 C   0  0  0  0  0  0  0  0  0  0  0  0
    8.9696   -0.7555    0.7347 C   0  0  0  0  0  0  0  0  0  0  0  0
    7.6543   -0.0128    0.5268 C   0  0  0  0  0  0  0  0  0  0  0  0
    6.4482   -0.9544    0.5301 C   0  0  1  0  0  0  0  0  0  0  0  0
    5.1631   -0.1591    0.3093 C   0  0  0  0  0  0  0  0  0  0  0  0
    3.8907   -0.9817    0.4736 C   0  0  0  0  0  0  0  0  0  0  0  0
    2.6379   -0.1394    0.3779 C   0  0  0  0  0  0  0  0  0  0  0  0
    2.5736    0.9926    0.8213 O   0  0  0  0  0  0  0  0  0  0  0  0
    1.5916   -0.7700   -0.2243 N   0  0  0  0  0  0  0  0  0  0  0  0
    0.2926   -0.3164   -0.4434 C   0  0  0  0  0  0  0  0  0  0  0  0
   -0.5876   -1.2152   -1.0506 C   0  0  0  0  0  0  0  0  0  0  0  0
   -0.1613    0.9551   -0.0952 C   0  0  0  0  0  0  0  0  0  0  0  0
   -1.4795    1.3197   -0.3647 C   0  0  0  0  0  0  0  0  0  0  0  0
   -1.9797    2.6313    0.0501 C   0  0  0  0  0  0  0  0  0  0  0  0
   -3.2116    2.9053    0.5123 C   0  0  0  0  0  0  0  0  0  0  0  0
   -3.3743    4.5790    0.9418 S   0  0  0  0  0  0  0  0  0  0  0  0
   -1.6929    4.9131    0.4735 C   0  0  0  0  0  0  0  0  0  0  0  0
   -1.1527    5.9939    0.5285 O   0  0  0  0  0  0  0  0  0  0  0  0
   -1.1555    3.7411    0.0407 N   0  0  0  0  0  0  0  0  0  0  0  0
   -2.3478    0.4279   -0.9795 C   0  0  0  0  0  0  0  0  0  0  0  0
   -1.8941   -0.8415   -1.3063 C   0  0  0  0  0  0  0  0  0  0  0  0
   -2.7844   -1.7909   -1.8789 N   0  0  0  0  0  0  0  0  0  0  0  0
   -3.5205   -2.8366   -0.8046 S   0  0  1  0  0  0  0  0  0  0  0  0
   -4.5576   -3.5107   -1.5588 O   0  0  0  0  0  0  0  0  0  0  0  0
   -2.4635   -3.5747   -0.1418 O   0  0  0  0  0  0  0  0  0  0  0  0
   -4.2576   -1.8246    0.4092 C   0  0  0  0  0  0  0  0  0  0  0  0
   -3.3937   -1.4186    1.8338 S   0  0  0  0  0  0  0  0  0  0  0  0
   -4.6275   -0.3432    2.3086 C   0  0  0  0  0  0  0  0  0  0  0  0
   -5.6552   -0.2982    1.4094 C   0  0  0  0  0  0  0  0  0  0  0  0
   -5.4415   -1.1516    0.3019 C   0  0  0  0  0  0  0  0  0  0  0  0
    6.6292   -1.6296   -1.5054 H   0  0  0  0  0  0  0  0  0  0  0  0
    5.8146   -2.7787   -0.4603 H   0  0  0  0  0  0  0  0  0  0  0  0
    7.9293   -3.3492    0.6610 H   0  0  0  0  0  0  0  0  0  0  0  0
    8.0814   -3.5750   -1.0693 H   0  0  0  0  0  0  0  0  0  0  0  0
   10.0785   -2.4043   -0.1240 H   0  0  0  0  0  0  0  0  0  0  0  0
    9.2383   -1.4060   -1.2961 H   0  0  0  0  0  0  0  0  0  0  0  0
    8.9806   -1.1950    1.7383 H   0  0  0  0  0  0  0  0  0  0  0  0
    7.5259    0.7471    1.3031 H   0  0  0  0  0  0  0  0  0  0  0  0
    6.3969   -1.4226    1.5236 H   0  0  0  0  0  0  0  0  0  0  0  0
    5.1417    0.6734    1.0170 H   0  0  0  0  0  0  0  0  0  0  0  0
    5.1835    0.2865   -0.6913 H   0  0  0  0  0  0  0  0  0  0  0  0
    3.8557   -1.7965   -0.2519 H   0  0  0  0  0  0  0  0  0  0  0  0
    3.8846   -1.4565    1.4617 H   0  0  0  0  0  0  0  0  0  0  0  0
    1.7752   -1.7039   -0.5577 H   0  0  0  0  0  0  0  0  0  0  0  0
   -0.2491   -2.2029   -1.3362 H   0  0  0  0  0  0  0  0  0  0  0  0
    0.4979    1.6444    0.4070 H   0  0  0  0  0  0  0  0  0  0  0  0
   -4.0165    2.2040    0.6656 H   0  0  0  0  0  0  0  0  0  0  0  0
   -3.3671    0.7158   -1.2036 H   0  0  0  0  0  0  0  0  0  0  0  0
   -3.4710   -1.3824   -2.5074 H   0  0  0  0  0  0  0  0  0  0  0  0
   -4.5423    0.1958    3.2401 H   0  0  0  0  0  0  0  0  0  0  0  0
   -6.5335    0.3170    1.5375 H   0  0  0  0  0  0  0  0  0  0  0  0
   -6.1262   -1.2561   -0.5276 H   0  0  0  0  0  0  0  0  0  0  0  0
    9.8074   -0.0552    0.6940 H   0  0  0  0  0  0  0  0  0  0  0  0
    7.6858    0.5253   -0.4288 H   0  0  0  0  0  0  0  0  0  0  0  0
   -0.2189    3.7273   -0.3391 H   0  0  0  0  0  0  0  0  0  0  0  0
  6  7  1  0
  6  5  1  0
  6  1  1  0
  7  8  1  0
  5  4  1  0
 10  9  2  0
  3  4  1  0
  3  2  1  0
 18 17  1  0
 18 19  1  0
  2  1  1  0
 17 16  2  0
  8  9  1  0
  9 11  1  0
 19 20  2  0
 19 21  1  0
 16 21  1  0
 16 15  1  0
 14 15  2  0
 14 12  1  0
 11 12  1  0
 15 22  1  0
 12 13  2  0
 22 23  2  0
 13 23  1  0
 23 24  1  0
 25 24  1  6
 29 28  1  0
 29 30  1  0
 27 25  2  0
 25 28  1  0
 25 26  2  0
 28 32  2  0
 30 31  2  0
 32 31  1  0
  1 33  1  0
  1 34  1  0
  2 35  1  0
  2 36  1  0
  3 37  1  0
  3 38  1  0
  4 39  1  0
  5 40  1  0
  6 41  1  1
  7 42  1  0
  7 43  1  0
  8 44  1  0
  8 45  1  0
 11 46  1  0
 13 47  1  0
 14 48  1  0
 17 49  1  0
 22 50  1  0
 24 51  1  0
 30 52  1  0
 31 53  1  0
 32 54  1  0
  4 55  1  0
  5 56  1  0
 21 57  1  0
M  END
