
     RDKit          3D

 35 37  0  0  0  0  0  0  0  0999 V2000
    0.7993    1.6975   -0.8863 C   0  0  0  0  0  0  0  0  0  0  0  0
   -1.5028    2.2098   -0.3815 C   0  0  0  0  0  0  0  0  0  0  0  0
   -2.6293    1.8461    0.5692 C   0  0  0  0  0  0  0  0  0  0  0  0
   -3.0156    0.3985    0.4425 C   0  0  0  0  0  0  0  0  0  0  0  0
   -4.2362   -0.0619    0.9358 C   0  0  0  0  0  0  0  0  0  0  0  0
   -3.7277   -2.2932    0.2143 C   0  0  0  0  0  0  0  0  0  0  0  0
   -0.8313   -0.0479   -0.7433 C   0  0  0  0  0  0  0  0  0  0  0  0
    3.8439   -0.5800   -1.1346 C   0  0  0  0  0  0  0  0  0  0  0  0
   -0.4240    1.2490   -0.2478 N   0  0  0  0  0  0  0  0  0  0  0  0
    4.1959   -0.7247    0.2033 C   0  0  0  0  0  0  0  0  0  0  0  0
    5.2713   -1.4858    0.4973 O   0  0  0  0  0  0  0  0  0  0  0  0
    3.4356   -0.0878    1.1833 C   0  0  0  0  0  0  0  0  0  0  0  0
   -2.5132   -1.8437   -0.2771 C   0  0  0  0  0  0  0  0  0  0  0  0
   -2.1458   -0.5036   -0.1675 C   0  0  0  0  0  0  0  0  0  0  0  0
    2.7457    0.1954   -1.4789 C   0  0  0  0  0  0  0  0  0  0  0  0
    2.3430    0.6825    0.8199 C   0  0  0  0  0  0  0  0  0  0  0  0
    1.9812    0.8425   -0.5151 C   0  0  0  0  0  0  0  0  0  0  0  0
   -4.5955   -1.3953    0.8265 C   0  0  0  0  0  0  0  0  0  0  0  0
    0.7023    1.7287   -1.9849 H   0  0  0  0  0  0  0  0  0  0  0  0
    0.9813    2.7264   -0.5633 H   0  0  0  0  0  0  0  0  0  0  0  0
   -1.8814    2.2605   -1.4168 H   0  0  0  0  0  0  0  0  0  0  0  0
   -1.1248    3.2035   -0.1342 H   0  0  0  0  0  0  0  0  0  0  0  0
   -2.3099    2.0495    1.5958 H   0  0  0  0  0  0  0  0  0  0  0  0
   -3.4949    2.4853    0.3818 H   0  0  0  0  0  0  0  0  0  0  0  0
   -4.9144    0.6401    1.4084 H   0  0  0  0  0  0  0  0  0  0  0  0
   -3.9963   -3.3379    0.1234 H   0  0  0  0  0  0  0  0  0  0  0  0
   -0.9158   -0.0461   -1.8463 H   0  0  0  0  0  0  0  0  0  0  0  0
   -0.0590   -0.7831   -0.5036 H   0  0  0  0  0  0  0  0  0  0  0  0
    4.4263   -1.0758   -1.9013 H   0  0  0  0  0  0  0  0  0  0  0  0
    5.4313   -1.4867    1.4473 H   0  0  0  0  0  0  0  0  0  0  0  0
    3.6981   -0.1917    2.2303 H   0  0  0  0  0  0  0  0  0  0  0  0
   -1.8344   -2.5427   -0.7533 H   0  0  0  0  0  0  0  0  0  0  0  0
    2.4809    0.2944   -2.5254 H   0  0  0  0  0  0  0  0  0  0  0  0
    1.7597    1.1672    1.5936 H   0  0  0  0  0  0  0  0  0  0  0  0
   -5.5476   -1.7338    1.2144 H   0  0  0  0  0  0  0  0  0  0  0  0
 11 10  1  0
 10  8  2  0
 10 12  1  0
  8 15  1  0
 12 16  2  0
 15 17  2  0
 16 17  1  0
  3  2  1  0
  3  4  1  0
 17  1  1  0
  2  9  1  0
  5  4  1  0
  5 18  2  0
  4 14  2  0
  9  1  1  0
  9  7  1  0
 18  6  1  0
 14  7  1  0
 14 13  1  0
  6 13  2  0
  1 19  1  0
  1 20  1  0
  2 21  1  0
  2 22  1  0
  3 23  1  0
  3 24  1  0
  5 25  1  0
  6 26  1  0
  7 27  1  0
  7 28  1  0
  8 29  1  0
 11 30  1  0
 12 31  1  0
 13 32  1  0
 15 33  1  0
 16 34  1  0
 18 35  1  0
M  END
