
     RDKit          3D

 30 30  0  0  0  0  0  0  0  0999 V2000
    6.1076    0.2331    0.5781 C   0  0  0  0  0  0  0  0  0  0  0  0
    4.7084    0.6289    0.1270 C   0  0  0  0  0  0  0  0  0  0  0  0
    3.7402   -0.5389    0.2186 C   0  0  0  0  0  0  0  0  0  0  0  0
    2.3264   -0.2339   -0.1932 C   0  0  0  0  0  0  0  0  0  0  0  0
    1.9694    0.8497   -0.5884 O   0  0  0  0  0  0  0  0  0  0  0  0
    1.3539   -1.3902   -0.0567 C   0  0  0  0  0  0  0  0  0  0  0  0
    0.0302   -1.0942   -0.7204 C   0  0  0  0  0  0  0  0  0  0  0  0
   -0.0850   -1.0776   -1.9342 O   0  0  0  0  0  0  0  0  0  0  0  0
   -0.9914   -0.8641    0.1262 N   0  0  0  0  0  0  0  0  0  0  0  0
   -2.3172   -0.5430   -0.2989 C   0  0  1  0  0  0  0  0  0  0  0  0
   -3.4374   -1.2695    0.4327 C   0  0  0  0  0  0  0  0  0  0  0  0
   -4.5853   -0.2829    0.2824 C   0  0  0  0  0  0  0  0  0  0  0  0
   -2.6755    0.9197   -0.0681 C   0  0  0  0  0  0  0  0  0  0  0  0
   -1.9539    1.8731   -0.1441 O   0  0  0  0  0  0  0  0  0  0  0  0
   -3.9632    1.0165    0.2456 O   0  0  0  0  0  0  0  0  0  0  0  0
    6.1104   -0.1006    1.6171 H   0  0  0  0  0  0  0  0  0  0  0  0
    6.5041   -0.5818   -0.0300 H   0  0  0  0  0  0  0  0  0  0  0  0
    6.7993    1.0716    0.4977 H   0  0  0  0  0  0  0  0  0  0  0  0
    4.3465    1.4590    0.7376 H   0  0  0  0  0  0  0  0  0  0  0  0
    4.7455    0.9964   -0.9009 H   0  0  0  0  0  0  0  0  0  0  0  0
    4.0865   -1.3778   -0.3966 H   0  0  0  0  0  0  0  0  0  0  0  0
    3.7103   -0.9399    1.2384 H   0  0  0  0  0  0  0  0  0  0  0  0
    1.7893   -2.2822   -0.5138 H   0  0  0  0  0  0  0  0  0  0  0  0
    1.2530   -1.6170    1.0087 H   0  0  0  0  0  0  0  0  0  0  0  0
   -0.8137   -0.8752    1.1185 H   0  0  0  0  0  0  0  0  0  0  0  0
   -2.3878   -0.7248   -1.3758 H   0  0  0  0  0  0  0  0  0  0  0  0
   -3.6701   -2.2425    0.0063 H   0  0  0  0  0  0  0  0  0  0  0  0
   -3.1794   -1.4062    1.4853 H   0  0  0  0  0  0  0  0  0  0  0  0
   -5.1335   -0.4313   -0.6491 H   0  0  0  0  0  0  0  0  0  0  0  0
   -5.2871   -0.2967    1.1125 H   0  0  0  0  0  0  0  0  0  0  0  0
  5  4  2  0
  8  7  2  0
  6  7  1  0
  6  4  1  0
  7  9  1  0
  4  3  1  0
  9 10  1  0
 10 11  1  0
 10 13  1  0
 11 12  1  0
  1  2  1  0
  3  2  1  0
 13 14  2  0
 13 15  1  0
 12 15  1  0
  1 16  1  0
  1 17  1  0
  1 18  1  0
  2 19  1  0
  2 20  1  0
  3 21  1  0
  3 22  1  0
  6 23  1  0
  6 24  1  0
  9 25  1  0
 10 26  1  6
 11 27  1  0
 11 28  1  0
 12 29  1  0
 12 30  1  0
M  END
