
     RDKit          3D

 17 16  0  0  0  0  0  0  0  0999 V2000
    0.2060   -0.0742   -1.9657 P   0  0  2  0  0  0  0  0  0  0  0  0
    1.0458   -1.2460   -2.2712 O   0  0  0  0  0  0  0  0  0  0  0  0
   -1.2172    0.0376   -2.6688 O   0  0  0  0  0  0  0  0  0  0  0  0
    1.0168    1.2668   -2.2716 O   0  0  0  0  0  0  0  0  0  0  0  0
   -0.3275    0.0396   -0.4607 O   0  0  0  0  0  0  0  0  0  0  0  0
    0.5965   -0.0479    0.6049 C   0  0  0  0  0  0  0  0  0  0  0  0
   -0.1544    0.0631    1.9120 C   0  0  0  0  0  0  0  0  0  0  0  0
   -1.3341    0.2884    1.9634 O   0  0  0  0  0  0  0  0  0  0  0  0
    0.7080   -0.1341    3.1312 C   0  0  0  0  0  0  0  0  0  0  0  0
   -0.0537    0.0746    4.2797 O   0  0  0  0  0  0  0  0  0  0  0  0
   -1.2014   -0.1287   -3.6210 H   0  0  0  0  0  0  0  0  0  0  0  0
    0.5236    2.0920   -2.1689 H   0  0  0  0  0  0  0  0  0  0  0  0
    1.3386    0.7574    0.5626 H   0  0  0  0  0  0  0  0  0  0  0  0
    1.1478   -0.9940    0.5844 H   0  0  0  0  0  0  0  0  0  0  0  0
    1.5659    0.5494    3.0535 H   0  0  0  0  0  0  0  0  0  0  0  0
    1.1284   -1.1490    3.0725 H   0  0  0  0  0  0  0  0  0  0  0  0
    0.5179   -0.0604    5.0409 H   0  0  0  0  0  0  0  0  0  0  0  0
  1  2  2  0
  1  3  1  6
  1  4  1  0
  1  5  1  0
  3 11  1  0
  4 12  1  0
  5  6  1  0
  6  7  1  0
  6 13  1  0
  6 14  1  0
  7  8  2  0
  7  9  1  0
  9 10  1  0
  9 15  1  0
  9 16  1  0
 10 17  1  0
M  END
