
     RDKit          3D

 57 56  0  0  0  0  0  0  0  0999 V2000
    9.3786    1.0249   -0.4224 O   0  0  0  0  0  0  0  0  0  0  0  0
    8.1638    1.2670    0.0585 C   0  0  0  0  0  0  0  0  0  0  0  0
    7.8832    2.2692    0.6676 O   0  0  0  0  0  0  0  0  0  0  0  0
    7.2152    0.1405   -0.2491 C   0  0  0  0  0  0  0  0  0  0  0  0
    5.7768    0.4205    0.1547 C   0  0  0  0  0  0  0  0  0  0  0  0
    4.8601   -0.7498   -0.1787 C   0  0  0  0  0  0  0  0  0  0  0  0
    3.4087   -0.5017    0.2101 C   0  0  0  0  0  0  0  0  0  0  0  0
    2.4963   -1.6740   -0.1267 C   0  0  0  0  0  0  0  0  0  0  0  0
    1.0464   -1.4524    0.2840 C   0  0  0  0  0  0  0  0  0  0  0  0
    0.1413   -2.6212   -0.1067 C   0  0  0  0  0  0  0  0  0  0  0  0
   -1.2582   -2.4748    0.4008 C   0  0  0  0  0  0  0  0  0  0  0  0
   -2.3399   -2.3501   -0.3630 C   0  0  0  0  0  0  0  0  0  0  0  0
   -3.7421   -2.2102    0.1381 C   0  0  0  0  0  0  0  0  0  0  0  0
   -4.3902   -0.8804   -0.2493 C   0  0  0  0  0  0  0  0  0  0  0  0
   -5.8621   -0.8160    0.1383 C   0  0  0  0  0  0  0  0  0  0  0  0
   -6.5280    0.5096   -0.2080 C   0  0  0  0  0  0  0  0  0  0  0  0
   -8.0108    0.5381    0.1421 C   0  0  0  0  0  0  0  0  0  0  0  0
   -8.6887    1.8613   -0.1895 C   0  0  0  0  0  0  0  0  0  0  0  0
  -10.1764    1.8733    0.1413 C   0  0  0  0  0  0  0  0  0  0  0  0
  -10.8470    3.1992   -0.1905 C   0  0  0  0  0  0  0  0  0  0  0  0
   10.3882    2.0067   -0.1923 C   0  0  0  0  0  0  0  0  0  0  0  0
   10.5805    2.1412    0.8718 H   0  0  0  0  0  0  0  0  0  0  0  0
   11.2862    1.6308   -0.6739 H   0  0  0  0  0  0  0  0  0  0  0  0
   10.1203    2.9670   -0.6326 H   0  0  0  0  0  0  0  0  0  0  0  0
    7.2783   -0.0841   -1.3181 H   0  0  0  0  0  0  0  0  0  0  0  0
    7.5856   -0.7564    0.2592 H   0  0  0  0  0  0  0  0  0  0  0  0
    5.7240    0.6293    1.2264 H   0  0  0  0  0  0  0  0  0  0  0  0
    5.4174    1.3197   -0.3535 H   0  0  0  0  0  0  0  0  0  0  0  0
    4.9177   -0.9632   -1.2518 H   0  0  0  0  0  0  0  0  0  0  0  0
    5.2217   -1.6515    0.3281 H   0  0  0  0  0  0  0  0  0  0  0  0
    3.3507   -0.2904    1.2836 H   0  0  0  0  0  0  0  0  0  0  0  0
    3.0442    0.3991   -0.2958 H   0  0  0  0  0  0  0  0  0  0  0  0
    2.5433   -1.8696   -1.2039 H   0  0  0  0  0  0  0  0  0  0  0  0
    2.8743   -2.5797    0.3606 H   0  0  0  0  0  0  0  0  0  0  0  0
    0.9938   -1.2934    1.3665 H   0  0  0  0  0  0  0  0  0  0  0  0
    0.6661   -0.5354   -0.1774 H   0  0  0  0  0  0  0  0  0  0  0  0
    0.1336   -2.7277   -1.1957 H   0  0  0  0  0  0  0  0  0  0  0  0
    0.5732   -3.5462    0.2925 H   0  0  0  0  0  0  0  0  0  0  0  0
   -1.3770   -2.4686    1.4832 H   0  0  0  0  0  0  0  0  0  0  0  0
   -2.2173   -2.3484   -1.4451 H   0  0  0  0  0  0  0  0  0  0  0  0
   -4.3498   -3.0248   -0.2728 H   0  0  0  0  0  0  0  0  0  0  0  0
   -3.7648   -2.3260    1.2261 H   0  0  0  0  0  0  0  0  0  0  0  0
   -3.8441   -0.0599    0.2270 H   0  0  0  0  0  0  0  0  0  0  0  0
   -4.2917   -0.7266   -1.3293 H   0  0  0  0  0  0  0  0  0  0  0  0
   -6.3982   -1.6312   -0.3606 H   0  0  0  0  0  0  0  0  0  0  0  0
   -5.9637   -1.0019    1.2135 H   0  0  0  0  0  0  0  0  0  0  0  0
   -6.0143    1.3239    0.3149 H   0  0  0  0  0  0  0  0  0  0  0  0
   -6.4047    0.7115   -1.2779 H   0  0  0  0  0  0  0  0  0  0  0  0
   -8.5214   -0.2736   -0.3881 H   0  0  0  0  0  0  0  0  0  0  0  0
   -8.1348    0.3250    1.2099 H   0  0  0  0  0  0  0  0  0  0  0  0
   -8.1902    2.6725    0.3529 H   0  0  0  0  0  0  0  0  0  0  0  0
   -8.5544    2.0834   -1.2542 H   0  0  0  0  0  0  0  0  0  0  0  0
  -10.6726    1.0640   -0.4034 H   0  0  0  0  0  0  0  0  0  0  0  0
  -10.3115    1.6490    1.2039 H   0  0  0  0  0  0  0  0  0  0  0  0
  -10.3918    4.0211    0.3655 H   0  0  0  0  0  0  0  0  0  0  0  0
  -10.7551    3.4320   -1.2533 H   0  0  0  0  0  0  0  0  0  0  0  0
  -11.9100    3.1845    0.0525 H   0  0  0  0  0  0  0  0  0  0  0  0
  1  2  1  0
  1 21  1  0
  2  3  2  0
  2  4  1  0
  4  5  1  0
  5  6  1  0
  6  7  1  0
  7  8  1  0
  8  9  1  0
  9 10  1  0
 10 11  1  0
 11 12  2  0
 12 13  1  0
 13 14  1  0
 14 15  1  0
 15 16  1  0
 16 17  1  0
 17 18  1  0
 18 19  1  0
 19 20  1  0
 21 22  1  0
 21 23  1  0
 21 24  1  0
  4 25  1  0
  4 26  1  0
  5 27  1  0
  5 28  1  0
  6 29  1  0
  6 30  1  0
  7 31  1  0
  7 32  1  0
  8 33  1  0
  8 34  1  0
  9 35  1  0
  9 36  1  0
 10 37  1  0
 10 38  1  0
 11 39  1  0
 12 40  1  0
 13 41  1  0
 13 42  1  0
 14 43  1  0
 14 44  1  0
 15 45  1  0
 15 46  1  0
 16 47  1  0
 16 48  1  0
 17 49  1  0
 17 50  1  0
 18 51  1  0
 18 52  1  0
 19 53  1  0
 19 54  1  0
 20 55  1  0
 20 56  1  0
 20 57  1  0
M  END
