
     RDKit          3D

 27 28  0  0  0  0  0  0  0  0999 V2000
    0.3423   -2.3947   -1.3117 N   0  0  0  0  0  0  0  0  0  0  0  0
    2.7871   -0.6661    0.1595 C   0  0  0  0  0  0  0  0  0  0  0  0
    3.4250    0.5673    0.1487 C   0  0  0  0  0  0  0  0  0  0  0  0
    2.6675    1.7276    0.1123 C   0  0  0  0  0  0  0  0  0  0  0  0
    1.2819    1.6408    0.0956 C   0  0  0  0  0  0  0  0  0  0  0  0
    0.6361    0.4062    0.1132 C   0  0  0  0  0  0  0  0  0  0  0  0
   -1.5606    0.8278   -0.9958 C   0  0  0  0  0  0  0  0  0  0  0  0
   -2.9416   -0.0296    1.2493 C   0  0  0  0  0  0  0  0  0  0  0  0
    0.7690   -2.1345    0.0567 C   0  0  0  0  0  0  0  0  0  0  0  0
    1.3992   -0.7688    0.1427 C   0  0  0  0  0  0  0  0  0  0  0  0
   -0.8470    0.3795    0.1130 C   0  0  0  0  0  0  0  0  0  0  0  0
   -2.9487    0.8469   -0.9850 C   0  0  0  0  0  0  0  0  0  0  0  0
   -3.6442    0.4167    0.1374 C   0  0  0  0  0  0  0  0  0  0  0  0
   -1.5535   -0.0451    1.2368 C   0  0  0  0  0  0  0  0  0  0  0  0
    1.1586   -2.4353   -1.9097 H   0  0  0  0  0  0  0  0  0  0  0  0
   -0.0783   -3.3147   -1.3577 H   0  0  0  0  0  0  0  0  0  0  0  0
    4.5059    0.6190    0.1641 H   0  0  0  0  0  0  0  0  0  0  0  0
    3.1485    2.6975    0.1027 H   0  0  0  0  0  0  0  0  0  0  0  0
    0.6879    2.5467    0.0788 H   0  0  0  0  0  0  0  0  0  0  0  0
   -1.0261    1.1619   -1.8763 H   0  0  0  0  0  0  0  0  0  0  0  0
   -3.4732   -0.3632    2.1312 H   0  0  0  0  0  0  0  0  0  0  0  0
   -0.1094   -2.1928    0.7002 H   0  0  0  0  0  0  0  0  0  0  0  0
    1.4843   -2.8719    0.4444 H   0  0  0  0  0  0  0  0  0  0  0  0
   -3.4874    1.1975   -1.8561 H   0  0  0  0  0  0  0  0  0  0  0  0
   -4.7264    0.4329    0.1473 H   0  0  0  0  0  0  0  0  0  0  0  0
   -1.0140   -0.3821    2.1140 H   0  0  0  0  0  0  0  0  0  0  0  0
    3.3814   -1.5725    0.1774 H   0  0  0  0  0  0  0  0  0  0  0  0
  1  9  1  0
  2  3  2  0
  2 10  1  0
  3  4  1  0
  4  5  2  0
  5  6  1  0
  6 10  2  0
  6 11  1  0
  7 11  2  0
  7 12  1  0
  8 13  1  0
  8 14  2  0
  9 10  1  0
 11 14  1  0
 12 13  2  0
  1 15  1  0
  1 16  1  0
  2 27  1  0
  3 17  1  0
  4 18  1  0
  5 19  1  0
  7 20  1  0
  8 21  1  0
  9 22  1  0
  9 23  1  0
 12 24  1  0
 13 25  1  0
 14 26  1  0
M  END
