
     RDKit          3D

 45 46  0  0  0  0  0  0  0  0999 V2000
    1.6647   -3.0161    0.6997 O   0  0  0  0  0  0  0  0  0  0  0  0
    1.6878   -2.0042    0.0221 C   0  0  0  0  0  0  0  0  0  0  0  0
    2.9938   -1.4529   -0.5518 C   0  0  1  0  0  0  0  0  0  0  0  0
    3.2059    0.0067   -0.2525 C   0  0  0  0  0  0  0  0  0  0  0  0
    3.4846    0.8940   -1.2845 C   0  0  0  0  0  0  0  0  0  0  0  0
    3.6758    2.2420   -1.0106 C   0  0  0  0  0  0  0  0  0  0  0  0
    3.5946    2.7031    0.2948 C   0  0  0  0  0  0  0  0  0  0  0  0
    3.3168    1.8176    1.3294 C   0  0  0  0  0  0  0  0  0  0  0  0
    3.1188    0.4740    1.0573 C   0  0  0  0  0  0  0  0  0  0  0  0
    4.1127   -2.2707   -0.0166 N   0  0  0  0  0  0  0  0  0  0  0  0
    0.6058   -1.2997   -0.3125 N   0  0  0  0  0  0  0  0  0  0  0  0
   -0.6905   -1.6156    0.2280 C   0  0  2  0  0  0  0  0  0  0  0  0
   -1.0501   -3.0686   -0.0583 C   0  0  0  0  0  0  0  0  0  0  0  0
   -0.8554   -3.5995   -1.1185 O   0  0  0  0  0  0  0  0  0  0  0  0
   -1.6532   -3.6315    0.9717 O   0  0  0  0  0  0  0  0  0  0  0  0
   -1.7254   -0.7068   -0.4677 C   0  0  2  0  0  0  0  0  0  0  0  0
   -1.1985    0.6190   -0.4646 N   0  0  0  0  0  0  0  0  0  0  0  0
   -3.3466   -0.9323    0.3251 S   0  0  0  0  0  0  0  0  0  0  0  0
   -4.0848    0.5387   -0.4337 C   0  0  0  0  0  0  0  0  0  0  0  0
   -3.3444    1.8004   -0.0187 C   0  0  1  0  0  0  0  0  0  0  0  0
   -3.6163    2.1775    1.4394 C   0  0  0  0  0  0  0  0  0  0  0  0
   -1.8672    1.6704   -0.2733 C   0  0  0  0  0  0  0  0  0  0  0  0
   -1.0819    2.9623   -0.3421 C   0  0  0  0  0  0  0  0  0  0  0  0
    0.2192    2.7650   -0.3416 O   0  0  0  0  0  0  0  0  0  0  0  0
   -1.6156    4.0411   -0.3975 O   0  0  0  0  0  0  0  0  0  0  0  0
    2.9902   -1.6173   -1.6311 H   0  0  0  0  0  0  0  0  0  0  0  0
    3.5524    0.5334   -2.3036 H   0  0  0  0  0  0  0  0  0  0  0  0
    3.8897    2.9285   -1.8189 H   0  0  0  0  0  0  0  0  0  0  0  0
    3.7468    3.7530    0.5084 H   0  0  0  0  0  0  0  0  0  0  0  0
    3.2495    2.1747    2.3484 H   0  0  0  0  0  0  0  0  0  0  0  0
    2.8928   -0.2036    1.8737 H   0  0  0  0  0  0  0  0  0  0  0  0
    3.9961   -3.2638   -0.2265 H   0  0  0  0  0  0  0  0  0  0  0  0
    4.9998   -1.9797   -0.4286 H   0  0  0  0  0  0  0  0  0  0  0  0
    4.2129   -2.1930    0.9965 H   0  0  0  0  0  0  0  0  0  0  0  0
    0.6974   -0.3740   -0.7151 H   0  0  0  0  0  0  0  0  0  0  0  0
   -0.7182   -1.4255    1.3056 H   0  0  0  0  0  0  0  0  0  0  0  0
   -1.9423   -4.5293    0.7453 H   0  0  0  0  0  0  0  0  0  0  0  0
   -1.7976   -1.0087   -1.5192 H   0  0  0  0  0  0  0  0  0  0  0  0
   -4.0847    0.4174   -1.5182 H   0  0  0  0  0  0  0  0  0  0  0  0
   -5.1232    0.5771   -0.1063 H   0  0  0  0  0  0  0  0  0  0  0  0
   -3.7085    2.6141   -0.6531 H   0  0  0  0  0  0  0  0  0  0  0  0
   -3.3111    1.3770    2.1129 H   0  0  0  0  0  0  0  0  0  0  0  0
   -3.0900    3.0851    1.7300 H   0  0  0  0  0  0  0  0  0  0  0  0
   -4.6827    2.3544    1.5794 H   0  0  0  0  0  0  0  0  0  0  0  0
    0.6872    3.6112   -0.4002 H   0  0  0  0  0  0  0  0  0  0  0  0
 21 20  1  0
 20 19  1  0
 20 22  1  0
 25 23  2  0
  7  6  1  0
  7  8  2  0
 19 18  1  0
  6  5  2  0
  8  9  1  0
 18 16  1  0
 23 22  1  0
 23 24  1  0
 22 17  2  0
  5  4  1  0
  9  4  2  0
 17 16  1  0
  4  3  1  0
 14 13  2  0
 16 12  1  0
 13 15  1  0
 13 12  1  0
 11 12  1  0
 11  2  1  0
  3  2  1  0
  3 10  1  0
  2  1  2  0
  3 26  1  6
  5 27  1  0
  6 28  1  0
  7 29  1  0
  8 30  1  0
  9 31  1  0
 10 32  1  0
 10 33  1  0
 10 34  1  0
 11 35  1  0
 12 36  1  1
 15 37  1  0
 16 38  1  6
 19 39  1  0
 19 40  1  0
 20 41  1  6
 21 42  1  0
 21 43  1  0
 21 44  1  0
 24 45  1  0
M  CHG  1  10   1
M  END
