
     RDKit          3D

 26 27  0  0  0  0  0  0  0  0999 V2000
    2.5926    1.3170   -0.5253 C   0  0  0  0  0  0  0  0  0  0  0  0
    1.2359    1.5441   -0.4789 C   0  0  0  0  0  0  0  0  0  0  0  0
    0.3517    0.5450   -0.0553 C   0  0  0  0  0  0  0  0  0  0  0  0
    0.8778   -0.6776    0.3553 C   0  0  0  0  0  0  0  0  0  0  0  0
    2.2437   -0.9075    0.3408 C   0  0  0  0  0  0  0  0  0  0  0  0
   -1.7455   -1.3108   -0.7149 N   0  0  0  0  0  0  0  0  0  0  0  0
   -2.9101   -1.8784   -0.7575 C   0  0  0  0  0  0  0  0  0  0  0  0
   -3.3825   -0.0198    0.0838 C   0  0  0  0  0  0  0  0  0  0  0  0
    3.1132    0.0856   -0.1109 C   0  0  0  0  0  0  0  0  0  0  0  0
   -1.0744    0.9026    0.0363 C   0  0  0  0  0  0  0  0  0  0  0  0
    5.0300   -1.2690    0.2363 C   0  0  0  0  0  0  0  0  0  0  0  0
   -3.9475   -1.1465   -0.2844 N   0  0  0  0  0  0  0  0  0  0  0  0
   -2.0278   -0.0947   -0.1548 N   0  0  0  0  0  0  0  0  0  0  0  0
   -1.4451    2.0340    0.2710 O   0  0  0  0  0  0  0  0  0  0  0  0
    4.4415   -0.0477   -0.1765 O   0  0  0  0  0  0  0  0  0  0  0  0
    3.2642    2.0907   -0.8752 H   0  0  0  0  0  0  0  0  0  0  0  0
    0.8558    2.5069   -0.7936 H   0  0  0  0  0  0  0  0  0  0  0  0
    0.2316   -1.4654    0.7126 H   0  0  0  0  0  0  0  0  0  0  0  0
    2.6092   -1.8636    0.6877 H   0  0  0  0  0  0  0  0  0  0  0  0
   -3.0360   -2.8727   -1.1597 H   0  0  0  0  0  0  0  0  0  0  0  0
    4.8283   -1.4806    1.2889 H   0  0  0  0  0  0  0  0  0  0  0  0
    4.6862   -2.1106   -0.3694 H   0  0  0  0  0  0  0  0  0  0  0  0
    6.1019   -1.1539    0.0998 H   0  0  0  0  0  0  0  0  0  0  0  0
   -5.0110    0.9873    0.6631 H   0  0  0  0  0  0  0  0  0  0  0  0
   -3.5666    1.9170    0.6745 H   0  0  0  0  0  0  0  0  0  0  0  0
   -4.0052    1.0126    0.6570 N   0  0  0  0  0  0  0  0  0  0  0  0
 11 15  1  0
 15  9  1  0
  9  1  2  0
  9  5  1  0
  1  2  1  0
  5  4  2  0
  2  3  2  0
  4  3  1  0
  3 10  1  0
  6 13  1  0
  6  7  2  0
 10 13  1  0
 10 14  2  0
 13  8  1  0
  7 12  1  0
  8 12  2  0
  8 26  1  0
  1 16  1  0
  2 17  1  0
  4 18  1  0
  5 19  1  0
  7 20  1  0
 11 21  1  0
 11 22  1  0
 11 23  1  0
 26 24  1  0
 26 25  1  0
M  END
