
     RDKit          3D

 20 20  0  0  0  0  0  0  0  0999 V2000
    4.3852   -0.2975   -0.0439 C   0  0  0  0  0  0  0  0  0  0  0  0
    0.5610   -0.3894   -0.0120 C   0  0  0  0  0  0  0  0  0  0  0  0
    2.9907    0.1699    0.0101 C   0  0  0  0  0  0  0  0  0  0  0  0
   -0.3577   -1.4392    0.0112 C   0  0  0  0  0  0  0  0  0  0  0  0
    1.9821   -0.7032   -0.0626 C   0  0  0  0  0  0  0  0  0  0  0  0
   -1.7136   -1.1905    0.0734 C   0  0  0  0  0  0  0  0  0  0  0  0
   -2.2138    0.1114    0.1208 C   0  0  0  0  0  0  0  0  0  0  0  0
   -1.2795    1.1522    0.0931 C   0  0  0  0  0  0  0  0  0  0  0  0
    0.0764    0.9176    0.0237 C   0  0  0  0  0  0  0  0  0  0  0  0
    4.7296   -1.4438   -0.1391 O   0  0  0  0  0  0  0  0  0  0  0  0
   -3.5270    0.2894    0.1932 O   0  0  0  0  0  0  0  0  0  0  0  0
   -2.8343   -2.4990    0.0945 Cl  0  0  0  0  0  0  0  0  0  0  0  0
   -1.8763    2.7769    0.1441 Cl  0  0  0  0  0  0  0  0  0  0  0  0
    5.2432    0.7184    0.0359 O   0  0  0  0  0  0  0  0  0  0  0  0
    2.8253    1.2361    0.1054 H   0  0  0  0  0  0  0  0  0  0  0  0
   -0.0094   -2.4629   -0.0223 H   0  0  0  0  0  0  0  0  0  0  0  0
    2.2217   -1.7566   -0.1660 H   0  0  0  0  0  0  0  0  0  0  0  0
    0.7527    1.7615   -0.0051 H   0  0  0  0  0  0  0  0  0  0  0  0
   -3.7611    1.2205    0.0975 H   0  0  0  0  0  0  0  0  0  0  0  0
    6.1483    0.3826    0.0203 H   0  0  0  0  0  0  0  0  0  0  0  0
 10  1  2  0
 13  8  1  0
  9  8  1  0
  9  2  2  0
  1  3  1  0
  5  3  2  0
  5  2  1  0
  8  7  2  0
  2  4  1  0
  7 11  1  0
  7  6  1  0
  4  6  2  0
  6 12  1  0
  1 14  1  0
  3 15  1  0
  4 16  1  0
  5 17  1  0
  9 18  1  0
 11 19  1  0
 14 20  1  0
M  END
