
     RDKit          3D

 55 58  0  0  0  0  0  0  0  0999 V2000
    5.0650    2.5314   -1.4249 C   0  0  0  0  0  0  0  0  0  0  0  0
    4.0006    1.9630   -0.6857 O   0  0  0  0  0  0  0  0  0  0  0  0
    4.2342    0.8605    0.0404 C   0  0  0  0  0  0  0  0  0  0  0  0
    5.4778    0.2395    0.1358 C   0  0  0  0  0  0  0  0  0  0  0  0
    5.6224   -0.9187    0.8892 C   0  0  0  0  0  0  0  0  0  0  0  0
    4.5398   -1.4793    1.5470 C   0  0  0  0  0  0  0  0  0  0  0  0
    3.2999   -0.8648    1.4439 C   0  0  0  0  0  0  0  0  0  0  0  0
    3.1330    0.3012    0.7061 C   0  0  0  0  0  0  0  0  0  0  0  0
    1.7939    0.9670    0.6618 C   0  0  0  0  0  0  0  0  0  0  0  0
    1.6326    2.1379    0.9619 O   0  0  0  0  0  0  0  0  0  0  0  0
    0.8072    0.1256    0.2854 N   0  0  0  0  0  0  0  0  0  0  0  0
   -0.5713    0.3254    0.2132 C   0  0  0  0  0  0  0  0  0  0  0  0
   -1.1958    1.5657    0.3729 C   0  0  0  0  0  0  0  0  0  0  0  0
   -2.5695    1.5982    0.2393 C   0  0  0  0  0  0  0  0  0  0  0  0
   -3.4580    2.6453    0.3367 N   0  0  0  0  0  0  0  0  0  0  0  0
   -3.1034    4.0178    0.5895 C   0  0  0  0  0  0  0  0  0  0  0  0
   -4.7397    2.1953    0.1135 C   0  0  0  0  0  0  0  0  0  0  0  0
   -5.7593    2.8629    0.1209 O   0  0  0  0  0  0  0  0  0  0  0  0
   -4.6381    0.8442   -0.1174 N   0  0  0  0  0  0  0  0  0  0  0  0
   -5.7477   -0.0300   -0.3935 C   0  0  0  0  0  0  0  0  0  0  0  0
   -3.3175    0.4559   -0.0445 C   0  0  0  0  0  0  0  0  0  0  0  0
   -2.7075   -0.7720   -0.1932 C   0  0  0  0  0  0  0  0  0  0  0  0
   -1.3218   -0.8356   -0.0635 C   0  0  0  0  0  0  0  0  0  0  0  0
   -0.6021   -2.0514   -0.1930 N   0  0  0  0  0  0  0  0  0  0  0  0
   -0.8999   -2.8278   -1.3887 C   0  0  0  0  0  0  0  0  0  0  0  0
    0.1280   -3.9362   -1.5595 C   0  0  0  0  0  0  0  0  0  0  0  0
    0.1882   -4.8227   -0.3212 C   0  0  0  0  0  0  0  0  0  0  0  0
    0.4195   -3.9767    0.9247 C   0  0  0  0  0  0  0  0  0  0  0  0
   -0.6113   -2.8640    1.0220 C   0  0  0  0  0  0  0  0  0  0  0  0
    5.4701    1.8309   -2.1594 H   0  0  0  0  0  0  0  0  0  0  0  0
    4.6500    3.3885   -1.9490 H   0  0  0  0  0  0  0  0  0  0  0  0
    5.8758    2.8742   -0.7772 H   0  0  0  0  0  0  0  0  0  0  0  0
    6.3413    0.6427   -0.3751 H   0  0  0  0  0  0  0  0  0  0  0  0
    6.5979   -1.3826    0.9551 H   0  0  0  0  0  0  0  0  0  0  0  0
    4.6541   -2.3802    2.1339 H   0  0  0  0  0  0  0  0  0  0  0  0
    2.4502   -1.2886    1.9664 H   0  0  0  0  0  0  0  0  0  0  0  0
    1.0559   -0.8188    0.0065 H   0  0  0  0  0  0  0  0  0  0  0  0
   -0.6293    2.4597    0.5801 H   0  0  0  0  0  0  0  0  0  0  0  0
   -2.5820    4.4533   -0.2632 H   0  0  0  0  0  0  0  0  0  0  0  0
   -4.0065    4.5908    0.7767 H   0  0  0  0  0  0  0  0  0  0  0  0
   -2.4605    4.0850    1.4663 H   0  0  0  0  0  0  0  0  0  0  0  0
   -6.6632    0.5537   -0.4151 H   0  0  0  0  0  0  0  0  0  0  0  0
   -5.6229   -0.5169   -1.3606 H   0  0  0  0  0  0  0  0  0  0  0  0
   -5.8395   -0.7957    0.3767 H   0  0  0  0  0  0  0  0  0  0  0  0
   -3.2786   -1.6676   -0.4031 H   0  0  0  0  0  0  0  0  0  0  0  0
   -1.9076   -3.2712   -1.3472 H   0  0  0  0  0  0  0  0  0  0  0  0
   -0.8809   -2.1579   -2.2498 H   0  0  0  0  0  0  0  0  0  0  0  0
   -0.3945   -2.2178    1.8755 H   0  0  0  0  0  0  0  0  0  0  0  0
   -1.6097   -3.2960    1.1982 H   0  0  0  0  0  0  0  0  0  0  0  0
   -0.1210   -4.5240   -2.4455 H   0  0  0  0  0  0  0  0  0  0  0  0
    1.1091   -3.4856   -1.7387 H   0  0  0  0  0  0  0  0  0  0  0  0
   -0.7535   -5.3729   -0.2203 H   0  0  0  0  0  0  0  0  0  0  0  0
    0.9765   -5.5711   -0.4261 H   0  0  0  0  0  0  0  0  0  0  0  0
    0.3743   -4.5906    1.8266 H   0  0  0  0  0  0  0  0  0  0  0  0
    1.4211   -3.5347    0.8884 H   0  0  0  0  0  0  0  0  0  0  0  0
  1  2  1  0
  2  3  1  0
  3  4  2  0
  3  8  1  0
  4  5  1  0
  5  6  2  0
  6  7  1  0
  7  8  2  0
  8  9  1  0
  9 10  2  0
  9 11  1  0
 11 12  1  0
 12 13  2  0
 12 23  1  0
 13 14  1  0
 14 15  1  0
 14 21  2  0
 15 16  1  0
 15 17  1  0
 17 18  2  0
 17 19  1  0
 19 20  1  0
 19 21  1  0
 21 22  1  0
 22 23  2  0
 23 24  1  0
 24 25  1  0
 24 29  1  0
 25 26  1  0
 26 27  1  0
 27 28  1  0
 28 29  1  0
  1 30  1  0
  1 31  1  0
  1 32  1  0
  4 33  1  0
  5 34  1  0
  6 35  1  0
  7 36  1  0
 11 37  1  0
 13 38  1  0
 16 39  1  0
 16 40  1  0
 16 41  1  0
 20 42  1  0
 20 43  1  0
 20 44  1  0
 22 45  1  0
 25 46  1  0
 25 47  1  0
 29 48  1  0
 29 49  1  0
 26 50  1  0
 26 51  1  0
 27 52  1  0
 27 53  1  0
 28 54  1  0
 28 55  1  0
M  END
