
     RDKit          3D

 61 65  0  0  0  0  0  0  0  0999 V2000
   -1.1312    0.4235    0.1966 N   0  0  0  0  0  0  0  0  0  0  0  0
   -0.5200    1.6064    0.5357 C   0  0  0  0  0  0  0  0  0  0  0  0
   -1.1540    2.6560    0.0993 N   0  0  0  0  0  0  0  0  0  0  0  0
   -2.2443    0.7657   -0.5414 C   0  0  0  0  0  0  0  0  0  0  0  0
   -2.2424    2.1683   -0.5710 C   0  0  0  0  0  0  0  0  0  0  0  0
    0.0872   -1.3614   -0.8823 C   0  0  0  0  0  0  0  0  0  0  0  0
   -0.5748   -0.9033    0.4194 C   0  0  2  0  0  0  0  0  0  0  0  0
   -3.2349    0.0252   -1.1832 C   0  0  0  0  0  0  0  0  0  0  0  0
   -3.2540    2.8763   -1.2214 C   0  0  0  0  0  0  0  0  0  0  0  0
   -4.2207    0.7431   -1.8147 C   0  0  0  0  0  0  0  0  0  0  0  0
    0.7440    1.6877    1.2817 C   0  0  0  0  0  0  0  0  0  0  0  0
   -4.2357    2.1418   -1.8333 C   0  0  0  0  0  0  0  0  0  0  0  0
    2.3701   -1.8357   -1.7662 C   0  0  0  0  0  0  0  0  0  0  0  0
   -0.5653   -1.5321   -1.8927 O   0  0  0  0  0  0  0  0  0  0  0  0
    3.7175   -1.5756   -1.4637 C   0  0  0  0  0  0  0  0  0  0  0  0
   -1.5795   -1.9230    0.9645 C   0  0  1  0  0  0  0  0  0  0  0  0
    1.8203    2.3580    0.7052 C   0  0  0  0  0  0  0  0  0  0  0  0
    0.8830    1.1505    2.5595 C   0  0  0  0  0  0  0  0  0  0  0  0
   -5.2070    0.0970   -2.4491 F   0  0  0  0  0  0  0  0  0  0  0  0
   -5.2405    2.7516   -2.4753 F   0  0  0  0  0  0  0  0  0  0  0  0
    3.1465    1.9131    2.6430 C   0  0  0  0  0  0  0  0  0  0  0  0
    2.0833    1.2561    3.2434 C   0  0  0  0  0  0  0  0  0  0  0  0
    3.0249    2.4723    1.3801 C   0  0  0  0  0  0  0  0  0  0  0  0
    4.6516    2.0381    3.4846 Cl  0  0  0  0  0  0  0  0  0  0  0  0
    2.0214   -2.4021   -2.9904 C   0  0  0  0  0  0  0  0  0  0  0  0
    4.1223   -0.9710   -0.1495 C   0  0  0  0  0  0  0  0  0  0  0  0
    4.6804   -1.8951   -2.4127 C   0  0  0  0  0  0  0  0  0  0  0  0
   -0.8720   -3.2537    1.2338 C   0  0  0  0  0  0  0  0  0  0  0  0
   -2.2517   -1.4075    2.2379 C   0  0  0  0  0  0  0  0  0  0  0  0
    3.0079   -2.7057   -3.9184 C   0  0  0  0  0  0  0  0  0  0  0  0
    4.3405   -2.4543   -3.6367 C   0  0  0  0  0  0  0  0  0  0  0  0
   -3.2161   -2.4410    2.8109 C   0  0  0  0  0  0  0  0  0  0  0  0
   -1.8384   -4.2850    1.8089 C   0  0  0  0  0  0  0  0  0  0  0  0
   -2.5143   -3.7684    3.0737 C   0  0  0  0  0  0  0  0  0  0  0  0
    0.1894   -0.7872    1.1885 H   0  0  0  0  0  0  0  0  0  0  0  0
   -3.2514   -1.0522   -1.2287 H   0  0  0  0  0  0  0  0  0  0  0  0
    1.8167   -1.3304    0.1333 H   0  0  0  0  0  0  0  0  0  0  0  0
   -3.2650    3.9580   -1.2459 H   0  0  0  0  0  0  0  0  0  0  0  0
   -2.3529   -2.1115    0.2151 H   0  0  0  0  0  0  0  0  0  0  0  0
    1.7224    2.7866   -0.2834 H   0  0  0  0  0  0  0  0  0  0  0  0
    0.0484    0.6582    3.0425 H   0  0  0  0  0  0  0  0  0  0  0  0
    2.1818    0.8369    4.2350 H   0  0  0  0  0  0  0  0  0  0  0  0
    3.8583    2.9852    0.9205 H   0  0  0  0  0  0  0  0  0  0  0  0
    0.9914   -2.6112   -3.2286 H   0  0  0  0  0  0  0  0  0  0  0  0
    3.8639   -1.6125    0.6979 H   0  0  0  0  0  0  0  0  0  0  0  0
    5.1991   -0.8199   -0.1123 H   0  0  0  0  0  0  0  0  0  0  0  0
    3.6557    0.0026    0.0213 H   0  0  0  0  0  0  0  0  0  0  0  0
    5.7206   -1.6977   -2.1834 H   0  0  0  0  0  0  0  0  0  0  0  0
   -0.4228   -3.6476    0.3183 H   0  0  0  0  0  0  0  0  0  0  0  0
   -0.0519   -3.0898    1.9428 H   0  0  0  0  0  0  0  0  0  0  0  0
   -1.4822   -1.1862    2.9874 H   0  0  0  0  0  0  0  0  0  0  0  0
   -2.7827   -0.4733    2.0433 H   0  0  0  0  0  0  0  0  0  0  0  0
    2.7216   -3.1461   -4.8644 H   0  0  0  0  0  0  0  0  0  0  0  0
    5.1109   -2.6909   -4.3586 H   0  0  0  0  0  0  0  0  0  0  0  0
   -3.6622   -2.0554    3.7302 H   0  0  0  0  0  0  0  0  0  0  0  0
   -4.0399   -2.5955    2.1064 H   0  0  0  0  0  0  0  0  0  0  0  0
   -2.6012   -4.5215    1.0597 H   0  0  0  0  0  0  0  0  0  0  0  0
   -1.3028   -5.2145    2.0130 H   0  0  0  0  0  0  0  0  0  0  0  0
   -1.7599   -3.6282    3.8554 H   0  0  0  0  0  0  0  0  0  0  0  0
   -3.2258   -4.5050    3.4538 H   0  0  0  0  0  0  0  0  0  0  0  0
    1.4271   -1.5105   -0.7780 N   0  0  0  0  0  0  0  0  0  0  0  0
  1  2  1  0
  1  4  1  0
  1  7  1  0
  2  3  2  0
  2 11  1  0
  3  5  1  0
  4  5  2  0
  4  8  1  0
  5  9  1  0
  6  7  1  0
  6 61  1  0
  6 14  2  0
  7 16  1  0
  8 10  2  0
 61 13  1  0
  9 12  2  0
 10 12  1  0
 10 19  1  0
 11 17  2  0
 11 18  1  0
 12 20  1  0
 13 15  2  0
 13 25  1  0
 15 26  1  0
 15 27  1  0
 16 28  1  0
 16 29  1  0
 17 23  1  0
 18 22  2  0
 21 22  1  0
 21 23  2  0
 21 24  1  0
 25 30  2  0
 27 31  2  0
 28 33  1  0
 29 32  1  0
 30 31  1  0
 32 34  1  0
 33 34  1  0
  7 35  1  1
  8 36  1  0
 61 37  1  0
  9 38  1  0
 16 39  1  6
 17 40  1  0
 18 41  1  0
 22 42  1  0
 23 43  1  0
 25 44  1  0
 26 45  1  0
 26 46  1  0
 26 47  1  0
 27 48  1  0
 28 49  1  0
 28 50  1  0
 29 51  1  0
 29 52  1  0
 30 53  1  0
 31 54  1  0
 32 55  1  0
 32 56  1  0
 33 57  1  0
 33 58  1  0
 34 59  1  0
 34 60  1  0
M  END
