
     RDKit          3D

 56 59  0  0  0  0  0  0  0  0999 V2000
   -0.8294    0.7755    2.8251 C   0  0  0  0  0  0  0  0  0  0  0  0
   -0.9575   -0.4784    2.0072 C   0  0  0  0  0  0  0  0  0  0  0  0
   -1.1175   -1.6918    2.6723 C   0  0  0  0  0  0  0  0  0  0  0  0
   -1.2404   -2.9124    2.0184 C   0  0  0  0  0  0  0  0  0  0  0  0
   -1.4121   -4.1806    2.7997 C   0  0  0  0  0  0  0  0  0  0  0  0
   -1.2004   -2.9314    0.6211 C   0  0  0  0  0  0  0  0  0  0  0  0
   -1.3296   -4.2158   -0.1423 C   0  0  0  0  0  0  0  0  0  0  0  0
   -1.0361   -1.7265   -0.0475 C   0  0  0  0  0  0  0  0  0  0  0  0
   -0.9179   -0.5060    0.6089 C   0  0  0  0  0  0  0  0  0  0  0  0
   -0.7526    0.7269   -0.2514 C   0  0  1  0  0  0  0  0  0  0  0  0
   -1.8370    1.7660   -0.1011 C   0  0  0  0  0  0  0  0  0  0  0  0
   -3.2808    1.4933   -0.1159 C   0  0  0  0  0  0  0  0  0  0  0  0
   -4.0285    2.0985    0.6310 O   0  0  0  0  0  0  0  0  0  0  0  0
   -3.8144    0.4747   -1.0277 C   0  0  0  0  0  0  0  0  0  0  0  0
   -4.9835   -0.2199   -0.8542 C   0  0  0  0  0  0  0  0  0  0  0  0
   -5.2612   -1.1020   -1.9212 C   0  0  0  0  0  0  0  0  0  0  0  0
   -4.3115   -1.0484   -2.9012 C   0  0  0  0  0  0  0  0  0  0  0  0
   -3.0709    0.0562   -2.5263 S   0  0  0  0  0  0  0  0  0  0  0  0
   -1.2683    2.9512    0.1638 C   0  0  0  0  0  0  0  0  0  0  0  0
   -1.8344    4.1237    0.3537 O   0  0  0  0  0  0  0  0  0  0  0  0
    0.2092    2.8021    0.2212 C   0  0  0  0  0  0  0  0  0  0  0  0
    0.9914    3.7129    0.4094 O   0  0  0  0  0  0  0  0  0  0  0  0
    0.4604    1.4859    0.0337 N   0  0  0  0  0  0  0  0  0  0  0  0
    1.7334    0.8874    0.0322 C   0  0  0  0  0  0  0  0  0  0  0  0
    2.0273   -0.1162   -0.8857 C   0  0  0  0  0  0  0  0  0  0  0  0
    3.2658   -0.7358   -0.8652 C   0  0  0  0  0  0  0  0  0  0  0  0
    2.6964    1.2611    0.9658 C   0  0  0  0  0  0  0  0  0  0  0  0
    3.9365    0.6422    0.9635 C   0  0  0  0  0  0  0  0  0  0  0  0
    4.2401   -0.3644    0.0536 C   0  0  0  0  0  0  0  0  0  0  0  0
    5.5812   -1.0310    0.0589 C   0  0  0  0  0  0  0  0  0  0  0  0
    6.5753   -0.3452   -0.8462 C   0  0  0  0  0  0  0  0  0  0  0  0
    6.3457    0.6262   -1.5192 O   0  0  0  0  0  0  0  0  0  0  0  0
    7.7557   -0.9525   -0.8132 O   0  0  0  0  0  0  0  0  0  0  0  0
    0.1601    1.2273    2.7367 H   0  0  0  0  0  0  0  0  0  0  0  0
   -1.5628    1.5328    2.5486 H   0  0  0  0  0  0  0  0  0  0  0  0
   -0.9812    0.5532    3.8805 H   0  0  0  0  0  0  0  0  0  0  0  0
   -1.1501   -1.6812    3.7568 H   0  0  0  0  0  0  0  0  0  0  0  0
   -2.3384   -4.6935    2.5329 H   0  0  0  0  0  0  0  0  0  0  0  0
   -0.5965   -4.8816    2.6096 H   0  0  0  0  0  0  0  0  0  0  0  0
   -1.4366   -3.9869    3.8711 H   0  0  0  0  0  0  0  0  0  0  0  0
   -2.2579   -4.7361    0.1011 H   0  0  0  0  0  0  0  0  0  0  0  0
   -1.3230   -4.0375   -1.2169 H   0  0  0  0  0  0  0  0  0  0  0  0
   -0.5120   -4.9046    0.0814 H   0  0  0  0  0  0  0  0  0  0  0  0
   -1.0004   -1.7438   -1.1316 H   0  0  0  0  0  0  0  0  0  0  0  0
   -5.6123   -0.1117    0.0182 H   0  0  0  0  0  0  0  0  0  0  0  0
   -6.1280   -1.7446   -1.9671 H   0  0  0  0  0  0  0  0  0  0  0  0
   -4.2838   -1.5986   -3.8293 H   0  0  0  0  0  0  0  0  0  0  0  0
   -1.1528    4.8000    0.4886 H   0  0  0  0  0  0  0  0  0  0  0  0
    1.2994   -0.4230   -1.6242 H   0  0  0  0  0  0  0  0  0  0  0  0
    3.4691   -1.5215   -1.5826 H   0  0  0  0  0  0  0  0  0  0  0  0
    2.4876    2.0203    1.7060 H   0  0  0  0  0  0  0  0  0  0  0  0
    4.6729    0.9435    1.6986 H   0  0  0  0  0  0  0  0  0  0  0  0
    6.0004   -1.0617    1.0684 H   0  0  0  0  0  0  0  0  0  0  0  0
    5.4976   -2.0739   -0.2595 H   0  0  0  0  0  0  0  0  0  0  0  0
    8.3762   -0.5043   -1.4070 H   0  0  0  0  0  0  0  0  0  0  0  0
   -0.7059    0.4024   -1.2958 H   0  0  0  0  0  0  0  0  0  0  0  0
  7  6  1  0
 16 17  2  0
 16 15  1  0
  5  4  1  0
 17 18  1  0
  6  4  2  0
  6  8  1  0
 15 14  2  0
  4  3  1  0
 18 14  1  0
 14 12  1  0
  8  9  2  0
  3  2  2  0
 12 13  2  0
 12 11  1  0
  9  2  1  0
  9 10  1  0
  2  1  1  0
 11 10  1  0
 11 19  2  0
 10 23  1  0
 25 26  2  0
 25 24  1  0
 19 20  1  0
 19 21  1  0
 23 24  1  0
 23 21  1  0
 26 29  1  0
 24 27  2  0
 21 22  2  0
 29 28  2  0
 29 30  1  0
 27 28  1  0
 30 31  1  0
 31 32  2  0
 31 33  1  0
  1 34  1  0
  1 35  1  0
  1 36  1  0
  3 37  1  0
  5 38  1  0
  5 39  1  0
  5 40  1  0
  7 41  1  0
  7 42  1  0
  7 43  1  0
  8 44  1  0
 15 45  1  0
 16 46  1  0
 17 47  1  0
 20 48  1  0
 25 49  1  0
 26 50  1  0
 27 51  1  0
 28 52  1  0
 30 53  1  0
 30 54  1  0
 33 55  1  0
 10 56  1  6
M  END
