
     RDKit          3D

 35 36  0  0  0  0  0  0  0  0999 V2000
    1.5905    1.2805   -0.6544 C   0  0  0  0  0  0  0  0  0  0  0  0
    1.2926   -0.9269    0.2131 C   0  0  0  0  0  0  0  0  0  0  0  0
   -1.2082    1.7971    0.3571 C   0  0  0  0  0  0  0  0  0  0  0  0
    2.9509    1.0430   -0.7836 C   0  0  0  0  0  0  0  0  0  0  0  0
    2.6518   -1.1599    0.0793 C   0  0  0  0  0  0  0  0  0  0  0  0
   -2.5625    2.0220    0.4833 C   0  0  0  0  0  0  0  0  0  0  0  0
   -1.6375   -0.4594   -0.2657 C   0  0  0  0  0  0  0  0  0  0  0  0
    0.7349    0.2991   -0.1536 C   0  0  0  0  0  0  0  0  0  0  0  0
   -0.7137    0.5459   -0.0206 C   0  0  0  0  0  0  0  0  0  0  0  0
   -3.0162   -0.2618   -0.1497 C   0  0  0  0  0  0  0  0  0  0  0  0
    3.5073   -0.1811   -0.4219 C   0  0  0  0  0  0  0  0  0  0  0  0
   -3.4868    1.0056    0.2344 C   0  0  0  0  0  0  0  0  0  0  0  0
   -3.9507   -1.3709   -0.4491 C   0  0  0  0  0  0  0  0  0  0  0  0
    7.2107   -0.3840    0.6921 C   0  0  0  0  0  0  0  0  0  0  0  0
    4.9854   -0.4286   -0.5190 C   0  0  0  0  0  0  0  0  0  0  0  0
    5.7145   -0.1254    0.7918 C   0  0  0  0  0  0  0  0  0  0  0  0
   -3.3212   -2.5317   -0.6185 O   0  0  0  0  0  0  0  0  0  0  0  0
   -4.7982    1.2228    0.3699 O   0  0  0  0  0  0  0  0  0  0  0  0
   -5.1501   -1.2702   -0.5394 O   0  0  0  0  0  0  0  0  0  0  0  0
    1.1908    2.2361   -0.9719 H   0  0  0  0  0  0  0  0  0  0  0  0
    0.6630   -1.7067    0.6247 H   0  0  0  0  0  0  0  0  0  0  0  0
   -0.5240    2.6075    0.5753 H   0  0  0  0  0  0  0  0  0  0  0  0
    3.5863    1.8227   -1.1878 H   0  0  0  0  0  0  0  0  0  0  0  0
    3.0550   -2.1210    0.3773 H   0  0  0  0  0  0  0  0  0  0  0  0
   -2.9158    2.9991    0.7924 H   0  0  0  0  0  0  0  0  0  0  0  0
   -1.2761   -1.4271   -0.5842 H   0  0  0  0  0  0  0  0  0  0  0  0
    7.7175   -0.1586    1.6309 H   0  0  0  0  0  0  0  0  0  0  0  0
    7.4139   -1.4276    0.4459 H   0  0  0  0  0  0  0  0  0  0  0  0
    7.6647    0.2318   -0.0864 H   0  0  0  0  0  0  0  0  0  0  0  0
    5.1672   -1.4717   -0.7947 H   0  0  0  0  0  0  0  0  0  0  0  0
    5.4143    0.1833   -1.3175 H   0  0  0  0  0  0  0  0  0  0  0  0
    5.2844   -0.7339    1.5924 H   0  0  0  0  0  0  0  0  0  0  0  0
    5.5348    0.9167    1.0703 H   0  0  0  0  0  0  0  0  0  0  0  0
   -3.9687   -3.2196   -0.8315 H   0  0  0  0  0  0  0  0  0  0  0  0
   -4.9522    2.1298    0.6603 H   0  0  0  0  0  0  0  0  0  0  0  0
 18 12  1  0
 19 13  2  0
 12  6  1  0
 12 10  2  0
  6  3  2  0
 13 10  1  0
 13 17  1  0
 10  7  1  0
  3  9  1  0
  7  9  2  0
  9  8  1  0
  1  8  2  0
  1  4  1  0
  8  2  1  0
  4 11  2  0
 16 14  1  0
 16 15  1  0
  2  5  2  0
 11  5  1  0
 11 15  1  0
  1 20  1  0
  2 21  1  0
  3 22  1  0
  4 23  1  0
  5 24  1  0
  6 25  1  0
  7 26  1  0
 14 27  1  0
 14 28  1  0
 14 29  1  0
 15 30  1  0
 15 31  1  0
 16 32  1  0
 16 33  1  0
 17 34  1  0
 18 35  1  0
M  END
