
     RDKit          3D

 26 26  0  0  0  0  0  0  0  0999 V2000
    3.9582   -1.9568    0.2080 C   0  0  0  0  0  0  0  0  0  0  0  0
    2.7468   -1.2549    0.5559 N   0  0  0  0  0  0  0  0  0  0  0  0
    2.3679   -0.1367   -0.0939 C   0  0  0  0  0  0  0  0  0  0  0  0
    3.0251    0.3693   -0.9854 O   0  0  0  0  0  0  0  0  0  0  0  0
    1.1459    0.3557    0.3410 N   0  0  0  0  0  0  0  0  0  0  0  0
    0.5860    1.5725   -0.0114 C   0  0  0  0  0  0  0  0  0  0  0  0
    1.3050    2.5825   -0.2892 N   0  0  0  0  0  0  0  0  0  0  0  0
   -0.7921    1.5880    0.0569 N   0  0  0  0  0  0  0  0  0  0  0  0
   -1.6848    0.5166   -0.0309 C   0  0  0  0  0  0  0  0  0  0  0  0
   -2.8842    0.5915    0.6788 C   0  0  0  0  0  0  0  0  0  0  0  0
   -3.8190   -0.4274    0.5870 C   0  0  0  0  0  0  0  0  0  0  0  0
   -3.5671   -1.5463   -0.1964 C   0  0  0  0  0  0  0  0  0  0  0  0
   -2.3751   -1.6220   -0.9039 C   0  0  0  0  0  0  0  0  0  0  0  0
   -1.4428   -0.5964   -0.8389 C   0  0  0  0  0  0  0  0  0  0  0  0
    4.0665   -2.7993    0.8849 H   0  0  0  0  0  0  0  0  0  0  0  0
    3.9296   -2.3420   -0.8120 H   0  0  0  0  0  0  0  0  0  0  0  0
    4.8397   -1.3231    0.3103 H   0  0  0  0  0  0  0  0  0  0  0  0
    2.1884   -1.6203    1.3084 H   0  0  0  0  0  0  0  0  0  0  0  0
    0.5931   -0.2348    0.9441 H   0  0  0  0  0  0  0  0  0  0  0  0
    0.7262    3.3568   -0.5947 H   0  0  0  0  0  0  0  0  0  0  0  0
   -1.2006    2.4949    0.2205 H   0  0  0  0  0  0  0  0  0  0  0  0
   -3.0825    1.4530    1.3052 H   0  0  0  0  0  0  0  0  0  0  0  0
   -0.5407   -0.6579   -1.4323 H   0  0  0  0  0  0  0  0  0  0  0  0
   -4.7451   -0.3490    1.1418 H   0  0  0  0  0  0  0  0  0  0  0  0
   -4.2937   -2.3451   -0.2598 H   0  0  0  0  0  0  0  0  0  0  0  0
   -2.1714   -2.4791   -1.5327 H   0  0  0  0  0  0  0  0  0  0  0  0
  1  2  1  0
  2  3  1  0
  3  4  2  0
  3  5  1  0
  5  6  1  0
  6  7  2  0
  6  8  1  0
  8  9  1  0
  9 10  2  0
  9 14  1  0
 10 11  1  0
 11 12  2  0
 12 13  1  0
 13 14  2  0
  1 15  1  0
  1 16  1  0
  1 17  1  0
  2 18  1  0
  5 19  1  0
  7 20  1  0
  8 21  1  0
 10 22  1  0
 14 23  1  0
 11 24  1  0
 12 25  1  0
 13 26  1  0
M  END
