
     RDKit          3D

 47 49  0  0  0  0  0  0  0  0999 V2000
   -4.3855   -0.3164   -0.4397 N   0  0  0  0  0  0  0  0  0  0  0  0
   -5.5041   -1.0073    0.1923 C   0  0  0  0  0  0  0  0  0  0  0  0
    3.0341   -1.0632   -1.2608 C   0  0  0  0  0  0  0  0  0  0  0  0
    2.0241   -0.7980    0.9061 C   0  0  0  0  0  0  0  0  0  0  0  0
   -0.4278   -0.8574    1.0807 N   0  0  0  0  0  0  0  0  0  0  0  0
    4.2789   -0.7404   -0.7577 C   0  0  0  0  0  0  0  0  0  0  0  0
    0.8161   -0.8587    1.8135 C   0  0  0  0  0  0  0  0  0  0  0  0
   -1.5132   -1.4684    1.8201 C   0  0  0  0  0  0  0  0  0  0  0  0
    1.9170   -1.0977   -0.4417 C   0  0  0  0  0  0  0  0  0  0  0  0
   -4.8200    0.9924   -0.9158 C   0  0  0  0  0  0  0  0  0  0  0  0
    4.3869   -0.4526    0.5956 C   0  0  0  0  0  0  0  0  0  0  0  0
   -5.9807    0.8921   -1.8956 C   0  0  0  0  0  0  0  0  0  0  0  0
   -7.1710    0.1605   -1.3039 C   0  0  2  0  0  0  0  0  0  0  0  0
   -7.7268    0.9802   -0.2916 O   0  0  0  0  0  0  0  0  0  0  0  0
   -6.6822   -1.1719   -0.7563 C   0  0  0  0  0  0  0  0  0  0  0  0
    3.2790   -0.4780    1.4434 C   0  0  0  0  0  0  0  0  0  0  0  0
   -3.2278   -0.2104    0.4531 C   0  0  2  0  0  0  0  0  0  0  0  0
   -2.0339    0.4484   -0.2413 C   0  0  0  0  0  0  0  0  0  0  0  0
   -0.8023    0.4740    0.6477 C   0  0  0  0  0  0  0  0  0  0  0  0
    2.8699   -1.4323   -2.9475 Cl  0  0  0  0  0  0  0  0  0  0  0  0
    6.0882   -0.0230    1.2947 Br  0  0  0  0  0  0  0  0  0  0  0  0
   -2.7706   -1.5750    0.9725 C   0  0  0  0  0  0  0  0  0  0  0  0
   -5.1906   -2.0033    0.4999 H   0  0  0  0  0  0  0  0  0  0  0  0
   -5.8285   -0.4861    1.1089 H   0  0  0  0  0  0  0  0  0  0  0  0
   -5.0960    1.6507   -0.0745 H   0  0  0  0  0  0  0  0  0  0  0  0
   -3.9997    1.4844   -1.4355 H   0  0  0  0  0  0  0  0  0  0  0  0
   -3.4914    0.4112    1.3323 H   0  0  0  0  0  0  0  0  0  0  0  0
   -6.3824   -1.8052   -1.5961 H   0  0  0  0  0  0  0  0  0  0  0  0
   -7.4889   -1.7014   -0.2405 H   0  0  0  0  0  0  0  0  0  0  0  0
    5.1471   -0.7154   -1.4014 H   0  0  0  0  0  0  0  0  0  0  0  0
    0.9453   -1.3588   -0.8395 H   0  0  0  0  0  0  0  0  0  0  0  0
    0.8777   -1.7827    2.3973 H   0  0  0  0  0  0  0  0  0  0  0  0
    0.8591   -0.0397    2.5477 H   0  0  0  0  0  0  0  0  0  0  0  0
   -1.2073   -2.4693    2.1332 H   0  0  0  0  0  0  0  0  0  0  0  0
   -1.7459   -0.9073    2.7426 H   0  0  0  0  0  0  0  0  0  0  0  0
   -0.9888    1.1334    1.5146 H   0  0  0  0  0  0  0  0  0  0  0  0
    0.0258    0.9231    0.0951 H   0  0  0  0  0  0  0  0  0  0  0  0
    4.2090    0.0304    3.0550 H   0  0  0  0  0  0  0  0  0  0  0  0
   -2.5874   -2.2424    0.1242 H   0  0  0  0  0  0  0  0  0  0  0  0
   -3.5337   -2.0461    1.5929 H   0  0  0  0  0  0  0  0  0  0  0  0
   -6.2671    1.8954   -2.2211 H   0  0  0  0  0  0  0  0  0  0  0  0
   -5.6547    0.3510   -2.7877 H   0  0  0  0  0  0  0  0  0  0  0  0
   -7.9138   -0.0220   -2.0931 H   0  0  0  0  0  0  0  0  0  0  0  0
   -8.4209    0.4816    0.1505 H   0  0  0  0  0  0  0  0  0  0  0  0
   -1.8111   -0.0949   -1.1651 H   0  0  0  0  0  0  0  0  0  0  0  0
   -2.2516    1.4799   -0.5185 H   0  0  0  0  0  0  0  0  0  0  0  0
    3.3267   -0.2259    2.7590 O   0  0  0  0  0  0  0  0  0  0  0  0
  1  2  1  0
  1 10  1  0
  1 17  1  0
  2 15  1  0
  3  6  2  0
  3  9  1  0
  3 20  1  0
  4  7  1  0
  4  9  2  0
  4 16  1  0
  5  7  1  0
  5  8  1  0
  5 19  1  0
 47 16  1  0
  6 11  1  0
  8 22  1  0
 10 12  1  0
 11 16  2  0
 11 21  1  0
 12 13  1  0
 13 14  1  0
 13 15  1  0
 17 18  1  0
 17 22  1  0
 18 19  1  0
  2 23  1  0
  2 24  1  0
 10 25  1  0
 10 26  1  0
 17 27  1  1
 15 28  1  0
 15 29  1  0
  6 30  1  0
  9 31  1  0
  7 32  1  0
  7 33  1  0
  8 34  1  0
  8 35  1  0
 19 36  1  0
 19 37  1  0
 47 38  1  0
 22 39  1  0
 22 40  1  0
 12 41  1  0
 12 42  1  0
 13 43  1  6
 14 44  1  0
 18 45  1  0
 18 46  1  0
M  END
