
     RDKit          3D

 21 21  0  0  0  0  0  0  0  0999 V2000
   -3.0048    0.3957   -0.2959 C   0  0  0  0  0  0  0  0  0  0  0  0
   -1.9573   -0.5421    0.2806 C   0  0  0  0  0  0  0  0  0  0  0  0
   -0.6078   -0.2465   -0.1671 N   0  0  0  0  0  0  0  0  0  0  0  0
   -0.1158    1.0247    0.3311 C   0  0  0  0  0  0  0  0  0  0  0  0
    1.2903    1.2810   -0.1775 C   0  0  0  0  0  0  0  0  0  0  0  0
    0.3134   -1.3047    0.2048 C   0  0  0  0  0  0  0  0  0  0  0  0
    1.7077   -0.9962   -0.3061 C   0  0  0  0  0  0  0  0  0  0  0  0
    2.1748    0.2427    0.1803 O   0  0  0  0  0  0  0  0  0  0  0  0
   -2.8861    1.4225    0.0503 H   0  0  0  0  0  0  0  0  0  0  0  0
   -2.9647    0.3992   -1.3857 H   0  0  0  0  0  0  0  0  0  0  0  0
   -4.0002    0.0691    0.0048 H   0  0  0  0  0  0  0  0  0  0  0  0
   -2.0244   -0.5373    1.3822 H   0  0  0  0  0  0  0  0  0  0  0  0
   -2.1901   -1.5622   -0.0355 H   0  0  0  0  0  0  0  0  0  0  0  0
   -0.7542    1.8385   -0.0180 H   0  0  0  0  0  0  0  0  0  0  0  0
   -0.1230    1.0589    1.4354 H   0  0  0  0  0  0  0  0  0  0  0  0
    1.2633    1.4017   -1.2702 H   0  0  0  0  0  0  0  0  0  0  0  0
    1.6797    2.2052    0.2521 H   0  0  0  0  0  0  0  0  0  0  0  0
    0.3488   -1.4526    1.2986 H   0  0  0  0  0  0  0  0  0  0  0  0
   -0.0222   -2.2477   -0.2347 H   0  0  0  0  0  0  0  0  0  0  0  0
    2.4075   -1.7643    0.0271 H   0  0  0  0  0  0  0  0  0  0  0  0
    1.7023   -0.9988   -1.4057 H   0  0  0  0  0  0  0  0  0  0  0  0
  5  8  1  0
  5  4  1  0
  8  7  1  0
  4  3  1  0
  7  6  1  0
  3  6  1  0
  3  2  1  0
  1  2  1  0
  1  9  1  0
  1 10  1  0
  1 11  1  0
  2 12  1  0
  2 13  1  0
  4 14  1  0
  4 15  1  0
  5 16  1  0
  5 17  1  0
  6 18  1  0
  6 19  1  0
  7 20  1  0
  7 21  1  0
M  END
