
     RDKit          3D

 52 53  0  0  0  0  0  0  0  0999 V2000
   -6.7316   -0.9776    1.0755 O   0  0  0  0  0  0  0  0  0  0  0  0
   -6.1733   -1.2551   -0.1061 C   0  0  0  0  0  0  0  0  0  0  0  0
   -6.9018   -2.1123   -0.9509 C   0  0  0  0  0  0  0  0  0  0  0  0
   -8.0933   -2.6058   -0.5608 O   0  0  0  0  0  0  0  0  0  0  0  0
   -6.3924   -2.4514   -2.1876 C   0  0  0  0  0  0  0  0  0  0  0  0
   -5.1599   -1.9486   -2.6037 C   0  0  0  0  0  0  0  0  0  0  0  0
   -4.4394   -1.1089   -1.7839 C   0  0  0  0  0  0  0  0  0  0  0  0
   -4.9359   -0.7468   -0.5235 C   0  0  0  0  0  0  0  0  0  0  0  0
   -4.2193    0.1538    0.4080 C   0  0  0  0  0  0  0  0  0  0  0  0
   -4.6957    0.4221    1.5214 O   0  0  0  0  0  0  0  0  0  0  0  0
   -3.0388    0.6608    0.0387 N   0  0  0  0  0  0  0  0  0  0  0  0
   -2.3197    1.5866    0.8744 C   0  0  2  0  0  0  0  0  0  0  0  0
   -3.0249    2.9350    0.8992 C   0  0  0  0  0  0  0  0  0  0  0  0
   -3.8473    3.2914    0.0972 O   0  0  0  0  0  0  0  0  0  0  0  0
   -2.5952    3.6792    1.9070 O   0  0  0  0  0  0  0  0  0  0  0  0
   -0.8766    1.7353    0.3809 C   0  0  0  0  0  0  0  0  0  0  0  0
   -0.0694    0.4548    0.5555 C   0  0  0  0  0  0  0  0  0  0  0  0
    1.3692    0.6172    0.0834 C   0  0  0  0  0  0  0  0  0  0  0  0
    2.1816   -0.6476    0.3349 C   0  0  0  0  0  0  0  0  0  0  0  0
    3.5373   -0.5715   -0.1709 N   0  0  0  0  0  0  0  0  0  0  0  0
    4.5283    0.0364    0.4790 C   0  0  0  0  0  0  0  0  0  0  0  0
    4.3400    0.5613    1.5900 O   0  0  0  0  0  0  0  0  0  0  0  0
    5.8760    0.0720   -0.1440 C   0  0  0  0  0  0  0  0  0  0  0  0
    6.1765   -0.5281   -1.3748 C   0  0  0  0  0  0  0  0  0  0  0  0
    7.4482   -0.4539   -1.8988 C   0  0  0  0  0  0  0  0  0  0  0  0
    8.4547    0.2198   -1.2089 C   0  0  0  0  0  0  0  0  0  0  0  0
    8.1859    0.8167    0.0059 C   0  0  0  0  0  0  0  0  0  0  0  0
    9.1700    1.4633    0.6622 O   0  0  0  0  0  0  0  0  0  0  0  0
    6.8908    0.7441    0.5502 C   0  0  0  0  0  0  0  0  0  0  0  0
    6.7116    1.3410    1.7327 O   0  0  0  0  0  0  0  0  0  0  0  0
   -6.0973   -0.3779    1.5492 H   0  0  0  0  0  0  0  0  0  0  0  0
   -8.3124   -2.2886    0.3241 H   0  0  0  0  0  0  0  0  0  0  0  0
   -6.9588   -3.1143   -2.8298 H   0  0  0  0  0  0  0  0  0  0  0  0
   -4.7715   -2.2235   -3.5745 H   0  0  0  0  0  0  0  0  0  0  0  0
   -3.4848   -0.7423   -2.1357 H   0  0  0  0  0  0  0  0  0  0  0  0
   -2.7202    0.5506   -0.9099 H   0  0  0  0  0  0  0  0  0  0  0  0
   -2.2903    1.2010    1.8970 H   0  0  0  0  0  0  0  0  0  0  0  0
   -3.0219    4.5493    1.8896 H   0  0  0  0  0  0  0  0  0  0  0  0
   -0.8774    2.0480   -0.6680 H   0  0  0  0  0  0  0  0  0  0  0  0
   -0.3973    2.5384    0.9433 H   0  0  0  0  0  0  0  0  0  0  0  0
   -0.0812    0.1711    1.6127 H   0  0  0  0  0  0  0  0  0  0  0  0
   -0.5392   -0.3695    0.0111 H   0  0  0  0  0  0  0  0  0  0  0  0
    1.3852    0.8514   -0.9848 H   0  0  0  0  0  0  0  0  0  0  0  0
    1.8373    1.4589    0.6002 H   0  0  0  0  0  0  0  0  0  0  0  0
    2.2078   -0.8715    1.4022 H   0  0  0  0  0  0  0  0  0  0  0  0
    1.7084   -1.4979   -0.1567 H   0  0  0  0  0  0  0  0  0  0  0  0
    3.7009   -0.9486   -1.0884 H   0  0  0  0  0  0  0  0  0  0  0  0
    5.4237   -1.0666   -1.9344 H   0  0  0  0  0  0  0  0  0  0  0  0
    7.6714   -0.9206   -2.8480 H   0  0  0  0  0  0  0  0  0  0  0  0
    9.4561    0.2782   -1.6170 H   0  0  0  0  0  0  0  0  0  0  0  0
    8.8368    1.8237    1.4933 H   0  0  0  0  0  0  0  0  0  0  0  0
    5.7575    1.1881    1.9743 H   0  0  0  0  0  0  0  0  0  0  0  0
 14 13  2  0
 15 13  1  0
 13 12  1  0
  6  5  2  0
  6  7  1  0
  5  3  1  0
  7  8  2  0
  3  4  1  0
  3  2  2  0
 10  9  2  0
  8  2  1  0
  8  9  1  0
  2  1  1  0
  9 11  1  0
 11 12  1  0
 12 16  1  0
 17 16  1  0
 17 18  1  0
 30 29  1  0
 28 27  1  0
 19 20  1  0
 19 18  1  0
 20 21  1  0
 29 27  2  0
 29 23  1  0
 27 26  1  0
 21 23  1  0
 21 22  2  0
 23 24  2  0
 26 25  2  0
 24 25  1  0
  1 31  1  0
  4 32  1  0
  5 33  1  0
  6 34  1  0
  7 35  1  0
 11 36  1  0
 12 37  1  1
 15 38  1  0
 16 39  1  0
 16 40  1  0
 17 41  1  0
 17 42  1  0
 18 43  1  0
 18 44  1  0
 19 45  1  0
 19 46  1  0
 20 47  1  0
 24 48  1  0
 25 49  1  0
 26 50  1  0
 28 51  1  0
 30 52  1  0
M  END
