
     RDKit          3D

 50 52  0  0  0  0  0  0  0  0999 V2000
    7.8717   -1.5886   -1.9439 O   0  0  0  0  0  0  0  0  0  0  0  0
    9.7705   -0.4681   -1.4342 N   0  0  0  0  0  0  0  0  0  0  0  0
    4.6288    1.4346    0.8298 C   0  0  0  0  0  0  0  0  0  0  0  0
    5.9565    1.3237    0.4625 C   0  0  0  0  0  0  0  0  0  0  0  0
    3.7394    0.3766    0.6392 C   0  0  0  0  0  0  0  0  0  0  0  0
    1.3592    0.0852    0.0216 C   0  0  0  0  0  0  0  0  0  0  0  0
    2.3020    0.4841    0.9638 C   0  0  0  0  0  0  0  0  0  0  0  0
    7.8123    0.1119   -0.4135 N   0  0  0  0  0  0  0  0  0  0  0  0
   -4.9567   -0.3419   -0.1863 C   0  0  0  0  0  0  0  0  0  0  0  0
   -4.3420    0.7879   -0.7268 C   0  0  0  0  0  0  0  0  0  0  0  0
   -7.1366    1.4431   -0.9281 O   0  0  0  0  0  0  0  0  0  0  0  0
   -6.3284   -0.4659    0.0055 N   0  0  0  0  0  0  0  0  0  0  0  0
   -2.9646    0.8019   -0.8709 C   0  0  0  0  0  0  0  0  0  0  0  0
   -7.3293    0.3909   -0.3509 C   0  0  0  0  0  0  0  0  0  0  0  0
   -8.7047   -0.0856    0.0600 C   0  0  0  0  0  0  0  0  0  0  0  0
   -9.8304    0.6692   -0.6237 C   0  0  0  0  0  0  0  0  0  0  0  0
   -2.1678   -0.2755   -0.5114 C   0  0  0  0  0  0  0  0  0  0  0  0
    0.0005    0.1528    0.2868 C   0  0  0  0  0  0  0  0  0  0  0  0
    1.8490    0.9513    2.2065 C   0  0  0  0  0  0  0  0  0  0  0  0
    5.5788   -0.9250   -0.2812 C   0  0  0  0  0  0  0  0  0  0  0  0
   -0.4460    0.6275    1.5073 C   0  0  0  0  0  0  0  0  0  0  0  0
    8.4430   -0.7066   -1.3196 C   0  0  0  0  0  0  0  0  0  0  0  0
    0.4855    1.0208    2.4591 C   0  0  0  0  0  0  0  0  0  0  0  0
    6.4555    0.1458   -0.1016 C   0  0  0  0  0  0  0  0  0  0  0  0
   -2.7991   -1.3855    0.0388 C   0  0  0  0  0  0  0  0  0  0  0  0
   -4.1690   -1.4299    0.1974 C   0  0  0  0  0  0  0  0  0  0  0  0
   -2.2013    2.1982   -1.5317 Cl  0  0  0  0  0  0  0  0  0  0  0  0
    4.2468   -0.7947    0.0813 C   0  0  0  0  0  0  0  0  0  0  0  0
   10.2671   -0.9246   -2.1796 H   0  0  0  0  0  0  0  0  0  0  0  0
   10.2082    0.3477   -1.0413 H   0  0  0  0  0  0  0  0  0  0  0  0
    4.2827    2.3726    1.2421 H   0  0  0  0  0  0  0  0  0  0  0  0
    6.6181    2.1702    0.6058 H   0  0  0  0  0  0  0  0  0  0  0  0
    1.6931   -0.2713   -0.9452 H   0  0  0  0  0  0  0  0  0  0  0  0
    8.3529    0.8733   -0.0327 H   0  0  0  0  0  0  0  0  0  0  0  0
   -4.9139    1.6484   -1.0300 H   0  0  0  0  0  0  0  0  0  0  0  0
   -6.6195   -1.3210    0.4565 H   0  0  0  0  0  0  0  0  0  0  0  0
   -8.7909   -1.1578   -0.1328 H   0  0  0  0  0  0  0  0  0  0  0  0
   -8.7799    0.0270    1.1465 H   0  0  0  0  0  0  0  0  0  0  0  0
  -10.7912    0.2943   -0.2742 H   0  0  0  0  0  0  0  0  0  0  0  0
   -9.7915    1.7354   -0.4068 H   0  0  0  0  0  0  0  0  0  0  0  0
   -9.7982    0.5436   -1.7055 H   0  0  0  0  0  0  0  0  0  0  0  0
    2.3346    1.6056    3.9346 H   0  0  0  0  0  0  0  0  0  0  0  0
    5.9233   -1.8614   -0.6877 H   0  0  0  0  0  0  0  0  0  0  0  0
   -1.4995    0.7018    1.7433 H   0  0  0  0  0  0  0  0  0  0  0  0
    0.1323    1.3807    3.4187 H   0  0  0  0  0  0  0  0  0  0  0  0
   -4.6279   -2.3132    0.6218 H   0  0  0  0  0  0  0  0  0  0  0  0
    3.5903   -1.6444   -0.0620 H   0  0  0  0  0  0  0  0  0  0  0  0
    2.7693    1.3017    3.1301 O   0  0  0  0  0  0  0  0  0  0  0  0
   -0.8321   -0.2619   -0.7260 O   0  0  0  0  0  0  0  0  0  0  0  0
   -1.8358   -2.7312    0.5128 Cl  0  0  0  0  0  0  0  0  0  0  0  0
  2 22  1  0
  1 22  2  0
 22  8  1  0
  8 24  1  0
 20 24  2  0
 20 28  1  0
 24  4  1  0
 28  5  2  0
  4  3  2  0
  5  3  1  0
  5  7  1  0
  7  6  2  0
  7 19  1  0
  6 18  1  0
 48 19  1  0
 19 23  2  0
 18 49  1  0
 18 21  2  0
 27 13  1  0
 49 17  1  0
 23 21  1  0
 17 13  2  0
 17 25  1  0
 13 10  1  0
 25 50  1  0
 25 26  2  0
 10  9  2  0
 26  9  1  0
  9 12  1  0
 11 14  2  0
 12 14  1  0
 14 15  1  0
 15 16  1  0
  2 29  1  0
  2 30  1  0
  3 31  1  0
  4 32  1  0
  6 33  1  0
  8 34  1  0
 10 35  1  0
 12 36  1  0
 15 37  1  0
 15 38  1  0
 16 39  1  0
 16 40  1  0
 16 41  1  0
 48 42  1  0
 20 43  1  0
 21 44  1  0
 23 45  1  0
 26 46  1  0
 28 47  1  0
M  END
