
     RDKit          3D

 30 30  0  0  0  0  0  0  0  0999 V2000
   -1.2271    1.0266   -0.6865 C   0  0  1  0  0  0  0  0  0  0  0  0
    0.2625    1.0266   -0.6865 C   0  0  1  0  0  0  0  0  0  0  0  0
    0.8207    1.0266    0.6559 C   0  0  2  0  0  0  0  0  0  0  0  0
    0.2850   -0.0751    1.4927 C   0  0  1  0  0  0  0  0  0  0  0  0
   -1.2676   -0.0712    1.5599 C   0  0  2  0  0  0  0  0  0  0  0  0
   -1.7236   -1.2289    2.2369 C   0  0  0  0  0  0  0  0  0  0  0  0
    1.7325   -0.1014   -2.5133 C   0  0  0  0  0  0  0  0  0  0  0  0
    2.1726   -1.3455   -3.2993 C   0  0  0  0  0  0  0  0  0  0  0  0
    0.7555   -0.2285   -1.4255 N   0  0  0  0  0  0  0  0  0  0  0  0
    0.4956    2.3160    1.3047 O   0  0  0  0  0  0  0  0  0  0  0  0
    0.7171   -1.3196    0.9441 O   0  0  0  0  0  0  0  0  0  0  0  0
   -1.7914   -0.0686    0.1195 O   0  0  0  0  0  0  0  0  0  0  0  0
   -3.0958   -1.1041    2.5048 O   0  0  0  0  0  0  0  0  0  0  0  0
    2.1370    0.9671   -2.8227 O   0  0  0  0  0  0  0  0  0  0  0  0
   -1.6769    2.2443   -0.1685 O   0  0  0  0  0  0  0  0  0  0  0  0
   -1.5758    0.9238   -1.7070 H   0  0  0  0  0  0  0  0  0  0  0  0
    0.6118    1.9083   -1.2100 H   0  0  0  0  0  0  0  0  0  0  0  0
    1.8968    0.9228    0.5875 H   0  0  0  0  0  0  0  0  0  0  0  0
    0.6781    0.0267    2.4970 H   0  0  0  0  0  0  0  0  0  0  0  0
   -1.6086    0.8192    2.0741 H   0  0  0  0  0  0  0  0  0  0  0  0
   -1.1824   -1.3390    3.1688 H   0  0  0  0  0  0  0  0  0  0  0  0
   -1.5547   -2.1005    1.6161 H   0  0  0  0  0  0  0  0  0  0  0  0
    1.3138   -1.7822   -3.7946 H   0  0  0  0  0  0  0  0  0  0  0  0
    2.6033   -2.0693   -2.6180 H   0  0  0  0  0  0  0  0  0  0  0  0
    2.9112   -1.0625   -4.0396 H   0  0  0  0  0  0  0  0  0  0  0  0
    0.3657   -1.1237   -1.2057 H   0  0  0  0  0  0  0  0  0  0  0  0
    1.2911    2.7324    1.5925 H   0  0  0  0  0  0  0  0  0  0  0  0
    1.3729   -1.6996    1.5049 H   0  0  0  0  0  0  0  0  0  0  0  0
   -3.3758   -1.8196    3.0513 H   0  0  0  0  0  0  0  0  0  0  0  0
   -2.3435    2.5991   -0.7332 H   0  0  0  0  0  0  0  0  0  0  0  0
  1 12  1  0
  1 15  1  0
  1 16  1  6
  2  1  1  0
  2  3  1  0
  2 17  1  6
  3  4  1  0
  3 18  1  6
  4  5  1  0
  4 11  1  0
  4 19  1  1
  5  6  1  0
  5 20  1  1
  6 21  1  0
  6 22  1  0
  7  9  1  0
  7  8  1  0
  8 23  1  0
  8 24  1  0
  8 25  1  0
  9  2  1  0
  9 26  1  0
 10  3  1  0
 10 27  1  0
 11 28  1  0
 12  5  1  0
 13  6  1  0
 13 29  1  0
 14  7  2  0
 15 30  1  0
M  END
