
     RDKit          3D

 33 35  0  0  0  0  0  0  0  0999 V2000
    1.0357   -0.7968    0.0926 N   0  0  0  0  0  0  0  0  0  0  0  0
    2.3598   -0.3546    0.0485 C   0  0  0  0  0  0  0  0  0  0  0  0
    3.3333   -1.1710    0.6262 C   0  0  0  0  0  0  0  0  0  0  0  0
    4.6655   -0.8021    0.6339 C   0  0  0  0  0  0  0  0  0  0  0  0
    5.0608    0.3947    0.0387 C   0  0  0  0  0  0  0  0  0  0  0  0
    4.1017    1.2042   -0.5662 C   0  0  0  0  0  0  0  0  0  0  0  0
    2.7675    0.8324   -0.5615 C   0  0  0  0  0  0  0  0  0  0  0  0
    0.0448    0.0173    0.0716 C   0  0  0  0  0  0  0  0  0  0  0  0
   -1.3231   -0.4518    0.0748 C   0  0  0  0  0  0  0  0  0  0  0  0
   -1.5799   -1.8267    0.0896 C   0  0  0  0  0  0  0  0  0  0  0  0
   -2.9098   -2.3105    0.0857 C   0  0  0  0  0  0  0  0  0  0  0  0
   -3.9548   -1.4405    0.0715 C   0  0  0  0  0  0  0  0  0  0  0  0
   -3.7504   -0.0373    0.0610 C   0  0  0  0  0  0  0  0  0  0  0  0
   -2.4252    0.4689    0.0630 C   0  0  0  0  0  0  0  0  0  0  0  0
   -2.2660    1.8745    0.0530 C   0  0  0  0  0  0  0  0  0  0  0  0
   -3.3513    2.7135    0.0415 C   0  0  0  0  0  0  0  0  0  0  0  0
   -4.6603    2.2031    0.0389 C   0  0  0  0  0  0  0  0  0  0  0  0
   -4.8496    0.8474    0.0485 C   0  0  0  0  0  0  0  0  0  0  0  0
    6.3699    0.7097    0.0630 O   0  0  0  0  0  0  0  0  0  0  0  0
   -0.6124   -2.7304    0.1086 O   0  0  0  0  0  0  0  0  0  0  0  0
    3.0325   -2.1043    1.0854 H   0  0  0  0  0  0  0  0  0  0  0  0
    5.4050   -1.4435    1.0962 H   0  0  0  0  0  0  0  0  0  0  0  0
    4.3954    2.1260   -1.0551 H   0  0  0  0  0  0  0  0  0  0  0  0
    2.0517    1.4698   -1.0656 H   0  0  0  0  0  0  0  0  0  0  0  0
    0.2147    1.0928    0.0614 H   0  0  0  0  0  0  0  0  0  0  0  0
   -3.0738   -3.3804    0.0946 H   0  0  0  0  0  0  0  0  0  0  0  0
   -4.9694   -1.8201    0.0691 H   0  0  0  0  0  0  0  0  0  0  0  0
   -1.2811    2.3192    0.0554 H   0  0  0  0  0  0  0  0  0  0  0  0
   -3.1939    3.7842    0.0345 H   0  0  0  0  0  0  0  0  0  0  0  0
   -5.5055    2.8780    0.0292 H   0  0  0  0  0  0  0  0  0  0  0  0
   -5.8511    0.4336    0.0468 H   0  0  0  0  0  0  0  0  0  0  0  0
    6.5229    1.5508   -0.3817 H   0  0  0  0  0  0  0  0  0  0  0  0
    0.2609   -2.2368    0.1155 H   0  0  0  0  0  0  0  0  0  0  0  0
  1  8  2  0
  1  2  1  0
  2  3  2  0
  2  7  1  0
  3  4  1  0
  3 21  1  0
  4  5  2  0
  4 22  1  0
  6  5  1  0
  5 19  1  0
  7  6  2  0
  6 23  1  0
  7 24  1  0
  9  8  1  0
  8 25  1  0
 10  9  2  0
  9 14  1  0
 11 10  1  0
 20 10  1  0
 11 12  2  0
 11 26  1  0
 12 13  1  0
 12 27  1  0
 13 18  1  0
 13 14  2  0
 14 15  1  0
 15 16  2  0
 15 28  1  0
 17 16  1  0
 16 29  1  0
 18 17  2  0
 17 30  1  0
 18 31  1  0
 19 32  1  0
 20 33  1  0
M  END
