
     RDKit          3D

 46 49  0  0  0  0  0  0  0  0999 V2000
    3.8806   -0.5258    1.9532 N   0  0  0  0  0  0  0  0  0  0  0  0
    4.1329    0.4102    0.8898 C   0  0  1  0  0  0  0  0  0  0  0  0
   -7.4886   -0.1626    0.2908 C   0  0  0  0  0  0  0  0  0  0  0  0
   -6.9510    1.0880    0.6224 C   0  0  0  0  0  0  0  0  0  0  0  0
   -1.3087    1.8904    0.1120 C   0  0  0  0  0  0  0  0  0  0  0  0
   -6.6553   -1.1693   -0.1305 C   0  0  0  0  0  0  0  0  0  0  0  0
   -5.5977    1.3121    0.5262 C   0  0  0  0  0  0  0  0  0  0  0  0
   -2.6643    1.7279    0.2561 C   0  0  0  0  0  0  0  0  0  0  0  0
   -4.4088   -2.0181   -0.6720 C   0  0  0  0  0  0  0  0  0  0  0  0
   -3.0747   -1.8352   -0.7756 C   0  0  0  0  0  0  0  0  0  0  0  0
   -1.0905   -0.3989   -0.5701 C   0  0  0  0  0  0  0  0  0  0  0  0
    2.4848   -0.4807    2.3466 C   0  0  0  0  0  0  0  0  0  0  0  0
    1.5074   -0.6742    1.1918 C   0  0  0  0  0  0  0  0  0  0  0  0
   -0.5045    0.8129   -0.2882 C   0  0  0  0  0  0  0  0  0  0  0  0
   -5.2676   -0.9610   -0.2350 C   0  0  0  0  0  0  0  0  0  0  0  0
   -2.4801   -0.5743   -0.4565 C   0  0  0  0  0  0  0  0  0  0  0  0
   -4.7203    0.2997    0.0948 C   0  0  0  0  0  0  0  0  0  0  0  0
   -3.2909    0.4996   -0.0266 C   0  0  0  0  0  0  0  0  0  0  0  0
    5.6098    0.4689    0.5516 C   0  0  0  0  0  0  0  0  0  0  0  0
    6.4678   -0.1311    1.1413 O   0  0  0  0  0  0  0  0  0  0  0  0
    1.8323    0.2399    0.1040 N   0  0  0  0  0  0  0  0  0  0  0  0
    1.2928    1.8947   -1.3411 O   0  0  0  0  0  0  0  0  0  0  0  0
    3.2104    0.2181   -0.3324 C   0  0  2  0  0  0  0  0  0  0  0  0
    3.4414   -1.0609   -1.1314 C   0  0  0  0  0  0  0  0  0  0  0  0
    2.5658   -1.6534   -1.7035 O   0  0  0  0  0  0  0  0  0  0  0  0
    4.7158   -1.4094   -1.1536 O   0  0  0  0  0  0  0  0  0  0  0  0
    5.8427    1.3179   -0.4393 O   0  0  0  0  0  0  0  0  0  0  0  0
    4.1470   -1.4664    1.6844 H   0  0  0  0  0  0  0  0  0  0  0  0
    3.8854    1.4111    1.2690 H   0  0  0  0  0  0  0  0  0  0  0  0
   -7.6028    1.8848    0.9562 H   0  0  0  0  0  0  0  0  0  0  0  0
   -0.8599    2.8521    0.3239 H   0  0  0  0  0  0  0  0  0  0  0  0
   -7.0589   -2.1406   -0.3902 H   0  0  0  0  0  0  0  0  0  0  0  0
   -5.2188    2.2885    0.7947 H   0  0  0  0  0  0  0  0  0  0  0  0
   -3.2454    2.5784    0.5839 H   0  0  0  0  0  0  0  0  0  0  0  0
   -4.8511   -2.9750   -0.9204 H   0  0  0  0  0  0  0  0  0  0  0  0
   -2.4331   -2.6434   -1.1045 H   0  0  0  0  0  0  0  0  0  0  0  0
   -0.4871   -1.2374   -0.9010 H   0  0  0  0  0  0  0  0  0  0  0  0
    2.3005   -1.2466    3.0999 H   0  0  0  0  0  0  0  0  0  0  0  0
    2.2933    0.4898    2.8136 H   0  0  0  0  0  0  0  0  0  0  0  0
    1.5381   -1.7094    0.8373 H   0  0  0  0  0  0  0  0  0  0  0  0
    0.4981   -0.4817    1.5459 H   0  0  0  0  0  0  0  0  0  0  0  0
    3.3592    1.0467   -1.0298 H   0  0  0  0  0  0  0  0  0  0  0  0
    4.8485   -2.2007   -1.6993 H   0  0  0  0  0  0  0  0  0  0  0  0
    6.7915    1.3548   -0.6330 H   0  0  0  0  0  0  0  0  0  0  0  0
    0.9495    1.0329   -0.5454 C   0  0  0  0  0  0  0  0  0  0  0  0
   -8.5545   -0.3322    0.3675 H   0  0  0  0  0  0  0  0  0  0  0  0
 22 45  2  0
 20 19  2  0
 45 14  1  0
 45 21  1  0
  5  8  1  0
  5 14  2  0
 19  2  1  0
 19 27  1  0
 23 24  1  0
 23  2  1  0
 23 21  1  0
 25 24  2  0
  8 18  2  0
 14 11  1  0
 24 26  1  0
  2  1  1  0
 21 13  1  0
 11 16  2  0
 18 16  1  0
 18 17  1  0
  7 17  2  0
  7  4  1  0
 16 10  1  0
 17 15  1  0
  4  3  2  0
 13 12  1  0
  1 12  1  0
 10  9  2  0
 15  9  1  0
 15  6  2  0
  3  6  1  0
  1 28  1  0
  2 29  1  1
  3 46  1  0
  4 30  1  0
  5 31  1  0
  6 32  1  0
  7 33  1  0
  8 34  1  0
  9 35  1  0
 10 36  1  0
 11 37  1  0
 12 38  1  0
 12 39  1  0
 13 40  1  0
 13 41  1  0
 23 42  1  6
 26 43  1  0
 27 44  1  0
M  END
