
     RDKit          3D

 64 66  0  0  0  0  0  0  0  0999 V2000
    5.8720   -3.2220    0.6655 N   0  0  0  0  0  0  0  0  0  0  0  0
    7.0199   -2.5306    0.7692 C   0  0  0  0  0  0  0  0  0  0  0  0
    7.1872   -1.2522    0.5031 N   0  0  0  0  0  0  0  0  0  0  0  0
    6.1306   -0.6056   -0.0200 C   0  0  0  0  0  0  0  0  0  0  0  0
    4.8923   -1.2427   -0.2952 C   0  0  0  0  0  0  0  0  0  0  0  0
    4.8145   -2.6053    0.1837 C   0  0  0  0  0  0  0  0  0  0  0  0
  -12.0327   -1.4556    1.1666 C   0  0  0  0  0  0  0  0  0  0  0  0
    8.0909   -3.2375    1.1886 N   0  0  0  0  0  0  0  0  0  0  0  0
    3.6748   -3.3155    0.1803 N   0  0  0  0  0  0  0  0  0  0  0  0
   -8.8013   -1.2675   -1.4324 O   0  0  0  0  0  0  0  0  0  0  0  0
   -0.3231    2.4015    0.7766 C   0  0  0  0  0  0  0  0  0  0  0  0
    0.9433    2.8488    1.1535 C   0  0  0  0  0  0  0  0  0  0  0  0
    5.3328    1.3688   -0.8161 C   0  0  0  0  0  0  0  0  0  0  0  0
    0.6139    1.5744   -1.2673 C   0  0  0  0  0  0  0  0  0  0  0  0
  -11.0204   -1.5043    0.0479 C   0  0  0  0  0  0  0  0  0  0  0  0
   -5.2143    0.6421    0.1068 C   0  0  0  0  0  0  0  0  0  0  0  0
   -3.9736    0.6937   -0.7763 C   0  0  0  0  0  0  0  0  0  0  0  0
   -6.3803   -0.0599   -0.5772 C   0  0  0  0  0  0  0  0  0  0  0  0
   -2.8141    1.3635   -0.0687 C   0  0  0  0  0  0  0  0  0  0  0  0
   -7.5984   -0.1427    0.3278 C   0  0  0  0  0  0  0  0  0  0  0  0
    6.3237    0.6985   -0.2865 N   0  0  0  0  0  0  0  0  0  0  0  0
    3.2915    3.0777    0.6148 O   0  0  0  0  0  0  0  0  0  0  0  0
   -9.8122   -0.8885    0.5200 O   0  0  0  0  0  0  0  0  0  0  0  0
   -8.7781   -0.8267   -0.3097 C   0  0  0  0  0  0  0  0  0  0  0  0
   -0.4970    1.7632   -0.4410 C   0  0  0  0  0  0  0  0  0  0  0  0
    3.8767   -0.5171   -0.9665 C   0  0  0  0  0  0  0  0  0  0  0  0
    4.0923    0.8352   -1.1908 C   0  0  0  0  0  0  0  0  0  0  0  0
    1.8775    1.9986   -0.9017 C   0  0  0  0  0  0  0  0  0  0  0  0
    2.0401    2.6592    0.3278 C   0  0  0  0  0  0  0  0  0  0  0  0
  -12.2639   -0.4307    1.4566 H   0  0  0  0  0  0  0  0  0  0  0  0
  -12.9577   -1.9242    0.8315 H   0  0  0  0  0  0  0  0  0  0  0  0
  -11.6859   -1.9974    2.0466 H   0  0  0  0  0  0  0  0  0  0  0  0
    2.9640    4.6346    1.9608 H   0  0  0  0  0  0  0  0  0  0  0  0
    3.2774    3.0478    2.6971 H   0  0  0  0  0  0  0  0  0  0  0  0
    4.5889    3.9295    1.8936 H   0  0  0  0  0  0  0  0  0  0  0  0
    1.8362   -1.2121   -0.7438 H   0  0  0  0  0  0  0  0  0  0  0  0
    2.2293   -0.6082   -2.3346 H   0  0  0  0  0  0  0  0  0  0  0  0
    2.8212   -2.1762   -1.8543 H   0  0  0  0  0  0  0  0  0  0  0  0
    7.9334   -4.1290    1.6256 H   0  0  0  0  0  0  0  0  0  0  0  0
    8.9073   -2.7306    1.4840 H   0  0  0  0  0  0  0  0  0  0  0  0
    2.7780   -2.8703    0.1233 H   0  0  0  0  0  0  0  0  0  0  0  0
    3.6927   -4.1975    0.6664 H   0  0  0  0  0  0  0  0  0  0  0  0
   -1.1480    2.5721    1.4549 H   0  0  0  0  0  0  0  0  0  0  0  0
    1.0402    3.3516    2.1068 H   0  0  0  0  0  0  0  0  0  0  0  0
    5.5171    2.4229   -1.0025 H   0  0  0  0  0  0  0  0  0  0  0  0
    0.4792    1.0695   -2.2173 H   0  0  0  0  0  0  0  0  0  0  0  0
  -10.8177   -2.5355   -0.2479 H   0  0  0  0  0  0  0  0  0  0  0  0
  -11.3857   -0.9700   -0.8313 H   0  0  0  0  0  0  0  0  0  0  0  0
   -4.9739    0.1241    1.0413 H   0  0  0  0  0  0  0  0  0  0  0  0
   -5.5125    1.6572    0.3882 H   0  0  0  0  0  0  0  0  0  0  0  0
   -3.6837   -0.3236   -1.0555 H   0  0  0  0  0  0  0  0  0  0  0  0
   -4.2016    1.2272   -1.7036 H   0  0  0  0  0  0  0  0  0  0  0  0
   -6.6358    0.4718   -1.4973 H   0  0  0  0  0  0  0  0  0  0  0  0
   -6.0714   -1.0651   -0.8756 H   0  0  0  0  0  0  0  0  0  0  0  0
   -3.0579    2.4077    0.1620 H   0  0  0  0  0  0  0  0  0  0  0  0
   -2.6141    0.8575    0.8838 H   0  0  0  0  0  0  0  0  0  0  0  0
   -7.3518   -0.6723    1.2535 H   0  0  0  0  0  0  0  0  0  0  0  0
   -7.9146    0.8579    0.6397 H   0  0  0  0  0  0  0  0  0  0  0  0
    3.5483    2.7072   -2.0389 H   0  0  0  0  0  0  0  0  0  0  0  0
    2.7081    1.3631   -2.7570 H   0  0  0  0  0  0  0  0  0  0  0  0
    2.6300   -1.1678   -1.4939 C   0  0  0  0  0  0  0  0  0  0  0  0
    3.0650    1.7562   -1.8021 C   0  0  0  0  0  0  0  0  0  0  0  0
   -1.6749    1.2922   -0.9082 O   0  0  0  0  0  0  0  0  0  0  0  0
    3.5261    3.7021    1.8567 C   0  0  0  0  0  0  0  0  0  0  0  0
  2  1  2  0
  1  6  1  0
  3  2  1  0
  8  2  1  0
  3  4  2  0
 21  4  1  0
  4  5  1  0
  5 26  1  0
  5  6  2  0
  6  9  1  0
  7 15  1  0
  7 30  1  0
  7 31  1  0
  7 32  1  0
 22 64  1  0
 64 33  1  0
 64 34  1  0
 64 35  1  0
 26 61  1  0
 61 36  1  0
 61 37  1  0
 61 38  1  0
  8 39  1  0
  8 40  1  0
  9 41  1  0
  9 42  1  0
 10 24  2  0
 12 11  2  0
 11 25  1  0
 11 43  1  0
 12 29  1  0
 12 44  1  0
 21 13  2  0
 13 27  1  0
 13 45  1  0
 25 14  2  0
 28 14  1  0
 14 46  1  0
 23 15  1  0
 15 47  1  0
 15 48  1  0
 17 16  1  0
 18 16  1  0
 16 49  1  0
 16 50  1  0
 17 19  1  0
 17 51  1  0
 17 52  1  0
 20 18  1  0
 18 53  1  0
 18 54  1  0
 19 63  1  0
 19 55  1  0
 19 56  1  0
 20 24  1  0
 20 57  1  0
 20 58  1  0
 28 62  1  0
 27 62  1  0
 62 59  1  0
 62 60  1  0
 22 29  1  0
 24 23  1  0
 25 63  1  0
 27 26  2  0
 29 28  2  0
M  END
