
     RDKit          3D

 48 50  0  0  0  0  0  0  0  0999 V2000
    0.3034    1.3840  -11.2938 C   0  0  0  0  0  0  0  0  0  0  0  0
   -0.0554    0.9074  -10.1082 C   0  0  0  0  0  0  0  0  0  0  0  0
    0.6042   -0.2461   -9.4191 C   0  0  0  0  0  0  0  0  0  0  0  0
    0.9602    0.0723   -8.0459 N   0  0  0  0  0  0  0  0  0  0  0  0
    1.3142   -1.1375   -7.3148 C   0  0  0  0  0  0  0  0  0  0  0  0
    1.4648   -0.9090   -5.8410 C   0  0  0  0  0  0  0  0  0  0  0  0
    0.5927   -1.3518   -4.9426 C   0  0  0  0  0  0  0  0  0  0  0  0
    0.7571   -1.1801   -3.4707 C   0  0  0  0  0  0  0  0  0  0  0  0
   -0.3920   -0.4911   -2.9945 O   0  0  0  0  0  0  0  0  0  0  0  0
   -0.5634   -0.3260   -1.6681 C   0  0  0  0  0  0  0  0  0  0  0  0
   -1.7620    0.2732   -1.2882 C   0  0  0  0  0  0  0  0  0  0  0  0
   -1.9583    0.4604    0.0640 C   0  0  0  0  0  0  0  0  0  0  0  0
   -3.0560    1.0062    0.6300 O   0  0  0  0  0  0  0  0  0  0  0  0
   -2.8580    0.9820    1.9726 C   0  0  0  0  0  0  0  0  0  0  0  0
   -1.6645    0.4405    2.3078 C   0  0  0  0  0  0  0  0  0  0  0  0
   -1.0425    0.0879    1.0500 C   0  0  0  0  0  0  0  0  0  0  0  0
    0.1440   -0.5177    0.6475 C   0  0  0  0  0  0  0  0  0  0  0  0
    0.3800   -0.7172   -0.7032 C   0  0  0  0  0  0  0  0  0  0  0  0
   -1.1456    0.2626    3.6625 C   0  0  0  0  0  0  0  0  0  0  0  0
   -2.0069   -0.0256    4.7228 C   0  0  0  0  0  0  0  0  0  0  0  0
   -1.5313   -0.1746    6.0153 C   0  0  0  0  0  0  0  0  0  0  0  0
   -0.1706   -0.0478    6.2551 C   0  0  0  0  0  0  0  0  0  0  0  0
    0.7104    0.2307    5.2212 C   0  0  0  0  0  0  0  0  0  0  0  0
    0.2172    0.3866    3.9348 C   0  0  0  0  0  0  0  0  0  0  0  0
    0.4897   -0.2634    8.0103 Br  0  0  0  0  0  0  0  0  0  0  0  0
    2.0081    1.0702   -7.9894 C   0  0  0  0  0  0  0  0  0  0  0  0
   -0.2317    2.1982  -11.7647 H   0  0  0  0  0  0  0  0  0  0  0  0
    1.1443    0.9743  -11.8418 H   0  0  0  0  0  0  0  0  0  0  0  0
   -0.8997    1.3463   -9.5836 H   0  0  0  0  0  0  0  0  0  0  0  0
    1.4693   -0.5934  -10.0096 H   0  0  0  0  0  0  0  0  0  0  0  0
   -0.1070   -1.0783   -9.3905 H   0  0  0  0  0  0  0  0  0  0  0  0
    0.5211   -1.8714   -7.4759 H   0  0  0  0  0  0  0  0  0  0  0  0
    2.2451   -1.5855   -7.7050 H   0  0  0  0  0  0  0  0  0  0  0  0
    2.3452   -0.3710   -5.4995 H   0  0  0  0  0  0  0  0  0  0  0  0
   -0.2885   -1.8999   -5.2666 H   0  0  0  0  0  0  0  0  0  0  0  0
    0.8350   -2.1612   -2.9865 H   0  0  0  0  0  0  0  0  0  0  0  0
    1.6711   -0.6211   -3.2421 H   0  0  0  0  0  0  0  0  0  0  0  0
   -2.4984    0.5684   -2.0246 H   0  0  0  0  0  0  0  0  0  0  0  0
   -3.6468    1.4056    2.5748 H   0  0  0  0  0  0  0  0  0  0  0  0
    0.8853   -0.8396    1.3671 H   0  0  0  0  0  0  0  0  0  0  0  0
    1.3113   -1.1796   -0.9985 H   0  0  0  0  0  0  0  0  0  0  0  0
   -3.0667   -0.1522    4.5417 H   0  0  0  0  0  0  0  0  0  0  0  0
   -2.2221   -0.3977    6.8173 H   0  0  0  0  0  0  0  0  0  0  0  0
    1.7718    0.3336    5.4022 H   0  0  0  0  0  0  0  0  0  0  0  0
    0.9130    0.6287    3.1420 H   0  0  0  0  0  0  0  0  0  0  0  0
    2.1979    1.3724   -6.9597 H   0  0  0  0  0  0  0  0  0  0  0  0
    2.9593    0.7210   -8.4219 H   0  0  0  0  0  0  0  0  0  0  0  0
    1.7044    1.9639   -8.5342 H   0  0  0  0  0  0  0  0  0  0  0  0
  1  2  2  0
  1 27  1  0
  1 28  1  0
  2  3  1  0
  2 29  1  0
  3  4  1  0
  3 30  1  0
  3 31  1  0
  4  5  1  0
  4 26  1  0
  5  6  1  0
  5 32  1  0
  5 33  1  0
  6  7  2  0
  6 34  1  0
  7  8  1  0
  7 35  1  0
  8  9  1  0
  8 36  1  0
  8 37  1  0
  9 10  1  0
 10 11  2  0
 10 18  1  0
 11 12  1  0
 11 38  1  0
 12 13  1  0
 12 16  2  0
 13 14  1  0
 14 15  2  0
 14 39  1  0
 15 16  1  0
 15 19  1  0
 16 17  1  0
 17 18  2  0
 17 40  1  0
 18 41  1  0
 19 20  2  0
 19 24  1  0
 20 21  1  0
 20 42  1  0
 21 22  2  0
 21 43  1  0
 22 23  1  0
 22 25  1  0
 23 24  2  0
 23 44  1  0
 24 45  1  0
 26 46  1  0
 26 47  1  0
 26 48  1  0
M  END
