
     RDKit          3D

 34 34  0  0  0  0  0  0  0  0999 V2000
    0.7186   -0.9953    0.1783 C   0  0  0  0  0  0  0  0  0  0  0  0
    3.5146   -0.7495    0.1286 C   0  0  0  0  0  0  0  0  0  0  0  0
    2.6992    0.3832    0.0925 C   0  0  0  0  0  0  0  0  0  0  0  0
    1.3156    0.2665    0.1104 C   0  0  0  0  0  0  0  0  0  0  0  0
   -6.7016    0.2421    0.0929 C   0  0  0  0  0  0  0  0  0  0  0  0
   -5.5174   -0.6839    0.0961 C   0  0  0  0  0  0  0  0  0  0  0  0
   -4.1817    0.0403    0.0630 C   0  0  0  0  0  0  0  0  0  0  0  0
   -3.0389   -0.9613    0.0677 C   0  0  0  0  0  0  0  0  0  0  0  0
   -1.6717   -0.3173    0.0241 C   0  0  0  0  0  0  0  0  0  0  0  0
    1.5382   -2.1236    0.2431 C   0  0  0  0  0  0  0  0  0  0  0  0
    2.9126   -1.9985    0.2214 C   0  0  0  0  0  0  0  0  0  0  0  0
    4.9953   -0.7061    0.0110 C   0  0  0  0  0  0  0  0  0  0  0  0
    3.2961    1.7443    0.2106 C   0  0  0  0  0  0  0  0  0  0  0  0
   -0.6533   -1.2076    0.2111 N   0  0  0  0  0  0  0  0  0  0  0  0
   -6.6451    1.4449    0.0296 O   0  0  0  0  0  0  0  0  0  0  0  0
   -7.8490   -0.4261    0.1675 O   0  0  0  0  0  0  0  0  0  0  0  0
   -1.4982    0.8693   -0.1704 O   0  0  0  0  0  0  0  0  0  0  0  0
    5.4019    0.1307   -0.9309 O   0  0  0  0  0  0  0  0  0  0  0  0
    5.7351   -1.4084    0.6542 O   0  0  0  0  0  0  0  0  0  0  0  0
    4.2416    1.9869    0.9170 O   0  0  0  0  0  0  0  0  0  0  0  0
    2.6483    2.6495   -0.5028 O   0  0  0  0  0  0  0  0  0  0  0  0
    0.7038    1.1530    0.1033 H   0  0  0  0  0  0  0  0  0  0  0  0
   -5.5897   -1.3284    0.9779 H   0  0  0  0  0  0  0  0  0  0  0  0
   -5.6137   -1.3565   -0.7629 H   0  0  0  0  0  0  0  0  0  0  0  0
   -4.1221    0.6693   -0.8262 H   0  0  0  0  0  0  0  0  0  0  0  0
   -4.0972    0.7040    0.9254 H   0  0  0  0  0  0  0  0  0  0  0  0
   -3.0998   -1.6065    0.9496 H   0  0  0  0  0  0  0  0  0  0  0  0
   -3.1211   -1.6329   -0.7939 H   0  0  0  0  0  0  0  0  0  0  0  0
    1.0961   -3.1105    0.3062 H   0  0  0  0  0  0  0  0  0  0  0  0
    3.5225   -2.8913    0.2517 H   0  0  0  0  0  0  0  0  0  0  0  0
   -0.9296   -2.1682    0.3528 H   0  0  0  0  0  0  0  0  0  0  0  0
   -8.5935    0.1934    0.1587 H   0  0  0  0  0  0  0  0  0  0  0  0
    6.3704    0.1478   -0.9674 H   0  0  0  0  0  0  0  0  0  0  0  0
    3.0198    3.5306   -0.3428 H   0  0  0  0  0  0  0  0  0  0  0  0
 15  5  2  0
 16  5  1  0
  5  6  1  0
  6  7  1  0
 20 13  2  0
  7  8  1  0
 19 12  2  0
 17  9  2  0
 13  3  1  0
 13 21  1  0
  3  4  1  0
  3  2  2  0
 12  2  1  0
 12 18  1  0
  9  8  1  0
  9 14  1  0
  4  1  2  0
  2 11  1  0
  1 14  1  0
  1 10  1  0
 11 10  2  0
  4 22  1  0
  6 23  1  0
  6 24  1  0
  7 25  1  0
  7 26  1  0
  8 27  1  0
  8 28  1  0
 10 29  1  0
 11 30  1  0
 14 31  1  0
 16 32  1  0
 18 33  1  0
 21 34  1  0
M  END
