
     RDKit          3D

 46 50  0  0  0  0  0  0  0  0999 V2000
   -0.0916    1.2090    2.3461 C   0  0  0  0  0  0  0  0  0  0  0  0
   -1.3941    1.1327    1.6560 C   0  0  0  0  0  0  0  0  0  0  0  0
   -2.4468    1.8831    2.1135 C   0  0  0  0  0  0  0  0  0  0  0  0
   -3.7262    1.6847    1.5770 C   0  0  0  0  0  0  0  0  0  0  0  0
   -3.9511    0.7314    0.6196 C   0  0  0  0  0  0  0  0  0  0  0  0
   -2.8859   -0.0516    0.1144 C   0  0  0  0  0  0  0  0  0  0  0  0
   -3.0049   -1.0899   -0.8481 C   0  0  0  0  0  0  0  0  0  0  0  0
   -1.9365   -1.8429   -1.2456 C   0  0  0  0  0  0  0  0  0  0  0  0
   -0.6521   -1.5481   -0.7642 C   0  0  0  0  0  0  0  0  0  0  0  0
   -0.4694   -0.5370    0.1371 C   0  0  0  0  0  0  0  0  0  0  0  0
   -1.5843    0.1769    0.6310 C   0  0  0  0  0  0  0  0  0  0  0  0
    0.9038   -0.0416    0.5322 C   0  0  2  0  0  0  0  0  0  0  0  0
    1.3068    1.1425   -0.3415 C   0  0  0  0  0  0  0  0  0  0  0  0
    2.3194    1.9950    0.0970 C   0  0  0  0  0  0  0  0  0  0  0  0
    2.7394    3.0664   -0.6709 C   0  0  0  0  0  0  0  0  0  0  0  0
    2.1569    3.3061   -1.9143 C   0  0  0  0  0  0  0  0  0  0  0  0
    1.1546    2.4555   -2.3689 C   0  0  0  0  0  0  0  0  0  0  0  0
    0.7392    1.3898   -1.5866 C   0  0  0  0  0  0  0  0  0  0  0  0
    1.9254   -1.1620    0.5078 C   0  0  0  0  0  0  0  0  0  0  0  0
    2.9071   -1.2457   -0.4688 C   0  0  0  0  0  0  0  0  0  0  0  0
    3.8003   -2.3079   -0.4996 C   0  0  0  0  0  0  0  0  0  0  0  0
    3.7240   -3.3104    0.4601 C   0  0  0  0  0  0  0  0  0  0  0  0
    2.7366   -3.2404    1.4441 C   0  0  0  0  0  0  0  0  0  0  0  0
    1.8503   -2.1810    1.4586 C   0  0  0  0  0  0  0  0  0  0  0  0
   -4.2791   -1.3865   -1.4847 N   0  0  0  0  0  0  0  0  0  0  0  0
    0.8841    0.4166    1.8993 O   0  0  0  0  0  0  0  0  0  0  0  0
    0.1055    1.8721    3.3309 O   0  0  0  0  0  0  0  0  0  0  0  0
    2.5226    4.3318   -2.7027 O   0  0  0  0  0  0  0  0  0  0  0  0
    4.5648   -4.3595    0.4880 O   0  0  0  0  0  0  0  0  0  0  0  0
   -4.5456   -2.5457   -1.6905 O   0  0  0  0  0  0  0  0  0  0  0  0
   -4.9858   -0.4580   -1.7996 O   0  0  0  0  0  0  0  0  0  0  0  0
   -2.3030    2.6043    2.9061 H   0  0  0  0  0  0  0  0  0  0  0  0
   -4.5542    2.2744    1.9450 H   0  0  0  0  0  0  0  0  0  0  0  0
   -4.9601    0.5880    0.2674 H   0  0  0  0  0  0  0  0  0  0  0  0
   -2.0569   -2.6352   -1.9707 H   0  0  0  0  0  0  0  0  0  0  0  0
    0.1882   -2.1100   -1.1472 H   0  0  0  0  0  0  0  0  0  0  0  0
    2.7995    1.8290    1.0526 H   0  0  0  0  0  0  0  0  0  0  0  0
    3.5252    3.7145   -0.2998 H   0  0  0  0  0  0  0  0  0  0  0  0
    0.6961    2.6298   -3.3339 H   0  0  0  0  0  0  0  0  0  0  0  0
   -0.0440    0.7539   -1.9772 H   0  0  0  0  0  0  0  0  0  0  0  0
    2.9903   -0.4838   -1.2319 H   0  0  0  0  0  0  0  0  0  0  0  0
    4.5574   -2.3474   -1.2740 H   0  0  0  0  0  0  0  0  0  0  0  0
    2.6666   -4.0192    2.1931 H   0  0  0  0  0  0  0  0  0  0  0  0
    1.0865   -2.1594    2.2258 H   0  0  0  0  0  0  0  0  0  0  0  0
    3.2092    4.8575   -2.2769 H   0  0  0  0  0  0  0  0  0  0  0  0
    5.1936   -4.3062   -0.2405 H   0  0  0  0  0  0  0  0  0  0  0  0
  1  2  1  0
  1 26  1  0
  1 27  2  0
  2  3  1  0
  2 11  2  0
  3  4  2  0
  3 32  1  0
  4  5  1  0
  4 33  1  0
  5  6  2  0
  5 34  1  0
  6  7  1  0
  6 11  1  0
  7  8  2  0
  7 25  1  0
  8  9  1  0
  8 35  1  0
  9 10  2  0
  9 36  1  0
 10 11  1  0
 10 12  1  0
 12 13  1  6
 12 19  1  0
 12 26  1  0
 13 14  2  0
 13 18  1  0
 14 15  1  0
 14 37  1  0
 15 16  2  0
 15 38  1  0
 16 17  1  0
 16 28  1  0
 17 18  2  0
 17 39  1  0
 18 40  1  0
 19 20  2  0
 19 24  1  0
 20 21  1  0
 20 41  1  0
 21 22  2  0
 21 42  1  0
 22 23  1  0
 22 29  1  0
 23 24  2  0
 23 43  1  0
 24 44  1  0
 25 30  1  0
 25 31  2  0
 28 45  1  0
 29 46  1  0
M  CHG  2  25   1  30  -1
M  END
