
     RDKit          3D

 75 78  0  0  0  0  0  0  0  0999 V2000
    3.8255   -1.8252   -0.9485 C   0  0  0  0  0  0  0  0  0  0  0  0
    5.2172   -2.4168   -0.7613 C   0  0  0  0  0  0  0  0  0  0  0  0
    6.2679   -1.3263   -0.8246 C   0  0  1  0  0  0  0  0  0  0  0  0
    5.9687   -0.2504    0.2178 C   0  0  0  0  0  0  0  0  0  0  0  0
    4.5655    0.2849    0.0993 C   0  0  0  0  0  0  0  0  0  0  0  0
    4.3429    1.5945   -0.0023 C   0  0  0  0  0  0  0  0  0  0  0  0
    2.9908    2.2271   -0.0570 C   0  0  0  0  0  0  0  0  0  0  0  0
    1.8825    1.2630    0.3488 C   0  0  2  0  0  0  0  0  0  0  0  0
    2.1101   -0.0924   -0.3384 C   0  0  1  0  0  0  0  0  0  0  0  0
    3.4492   -0.7467    0.0892 C   0  0  1  0  0  0  0  0  0  0  0  0
    0.9092   -1.0346   -0.1863 C   0  0  0  0  0  0  0  0  0  0  0  0
   -0.4327   -0.3915   -0.5402 C   0  0  0  0  0  0  0  0  0  0  0  0
   -0.6696    0.8837    0.2692 C   0  0  1  0  0  0  0  0  0  0  0  0
    0.5189    1.8134   -0.0371 C   0  0  1  0  0  0  0  0  0  0  0  0
    0.0933    3.1622    0.5255 C   0  0  0  0  0  0  0  0  0  0  0  0
   -1.4177    3.2157    0.2291 C   0  0  0  0  0  0  0  0  0  0  0  0
   -1.8370    1.7891   -0.2144 C   0  0  2  0  0  0  0  0  0  0  0  0
   -0.7547    0.5618    1.7664 C   0  0  0  0  0  0  0  0  0  0  0  0
    3.3397   -1.3868    1.4827 C   0  0  0  0  0  0  0  0  0  0  0  0
   -3.3178    1.4700    0.1230 C   0  0  1  0  0  0  0  0  0  0  0  0
   -4.1953    2.4343   -0.6746 C   0  0  0  0  0  0  0  0  0  0  0  0
   -3.6676    0.0152   -0.2240 C   0  0  0  0  0  0  0  0  0  0  0  0
   -5.1366   -0.3666   -0.0803 C   0  0  0  0  0  0  0  0  0  0  0  0
   -5.3497   -1.8699   -0.2330 C   0  0  0  0  0  0  0  0  0  0  0  0
   -6.7773   -2.3437    0.0439 C   0  0  1  0  0  0  0  0  0  0  0  0
   -7.7823   -1.7573   -0.9426 C   0  0  0  0  0  0  0  0  0  0  0  0
   -6.8438   -3.8677    0.0311 C   0  0  0  0  0  0  0  0  0  0  0  0
    7.5382   -1.9136   -0.6292 O   0  0  0  0  0  0  0  0  0  0  0  0
   -3.6295    1.7249    1.4875 O   0  0  0  0  0  0  0  0  0  0  0  0
    3.7691   -1.3797   -1.9482 H   0  0  0  0  0  0  0  0  0  0  0  0
    3.0871   -2.6298   -0.9299 H   0  0  0  0  0  0  0  0  0  0  0  0
    5.4020   -3.1594   -1.5423 H   0  0  0  0  0  0  0  0  0  0  0  0
    5.2896   -2.9444    0.1957 H   0  0  0  0  0  0  0  0  0  0  0  0
    6.2125   -0.8584   -1.8202 H   0  0  0  0  0  0  0  0  0  0  0  0
    6.6853    0.5710    0.1247 H   0  0  0  0  0  0  0  0  0  0  0  0
    6.1268   -0.6874    1.2114 H   0  0  0  0  0  0  0  0  0  0  0  0
    5.1953    2.2684   -0.0292 H   0  0  0  0  0  0  0  0  0  0  0  0
    2.7990    2.6090   -1.0691 H   0  0  0  0  0  0  0  0  0  0  0  0
    2.9820    3.1086    0.5912 H   0  0  0  0  0  0  0  0  0  0  0  0
    1.9377    1.1383    1.4369 H   0  0  0  0  0  0  0  0  0  0  0  0
    2.2053    0.1316   -1.4122 H   0  0  0  0  0  0  0  0  0  0  0  0
    1.0485   -1.9134   -0.8204 H   0  0  0  0  0  0  0  0  0  0  0  0
    0.8520   -1.4120    0.8371 H   0  0  0  0  0  0  0  0  0  0  0  0
   -0.4534   -0.1375   -1.6066 H   0  0  0  0  0  0  0  0  0  0  0  0
   -1.2217   -1.1292   -0.3853 H   0  0  0  0  0  0  0  0  0  0  0  0
    0.5352    1.9201   -1.1337 H   0  0  0  0  0  0  0  0  0  0  0  0
    0.6329    3.9933    0.0691 H   0  0  0  0  0  0  0  0  0  0  0  0
    0.2885    3.2159    1.6001 H   0  0  0  0  0  0  0  0  0  0  0  0
   -1.6342    3.9412   -0.5564 H   0  0  0  0  0  0  0  0  0  0  0  0
   -1.9799    3.5333    1.1076 H   0  0  0  0  0  0  0  0  0  0  0  0
   -1.7822    1.7513   -1.3106 H   0  0  0  0  0  0  0  0  0  0  0  0
    0.1871    0.1760    2.1542 H   0  0  0  0  0  0  0  0  0  0  0  0
   -1.0058    1.4342    2.3714 H   0  0  0  0  0  0  0  0  0  0  0  0
   -1.4971   -0.2159    1.9660 H   0  0  0  0  0  0  0  0  0  0  0  0
    4.3126   -1.6705    1.8818 H   0  0  0  0  0  0  0  0  0  0  0  0
    2.8860   -0.7023    2.2016 H   0  0  0  0  0  0  0  0  0  0  0  0
    2.7322   -2.2927    1.4593 H   0  0  0  0  0  0  0  0  0  0  0  0
   -5.2529    2.2936   -0.4518 H   0  0  0  0  0  0  0  0  0  0  0  0
   -3.9511    3.4735   -0.4520 H   0  0  0  0  0  0  0  0  0  0  0  0
   -4.0566    2.2829   -1.7458 H   0  0  0  0  0  0  0  0  0  0  0  0
   -3.0830   -0.6437    0.4256 H   0  0  0  0  0  0  0  0  0  0  0  0
   -3.3306   -0.1991   -1.2434 H   0  0  0  0  0  0  0  0  0  0  0  0
   -5.7377    0.1665   -0.8202 H   0  0  0  0  0  0  0  0  0  0  0  0
   -5.5073   -0.0547    0.9016 H   0  0  0  0  0  0  0  0  0  0  0  0
   -4.6720   -2.3905    0.4535 H   0  0  0  0  0  0  0  0  0  0  0  0
   -5.0559   -2.1844   -1.2425 H   0  0  0  0  0  0  0  0  0  0  0  0
   -7.0508   -2.0027    1.0502 H   0  0  0  0  0  0  0  0  0  0  0  0
   -7.5313   -2.0427   -1.9676 H   0  0  0  0  0  0  0  0  0  0  0  0
   -8.7914   -2.1190   -0.7366 H   0  0  0  0  0  0  0  0  0  0  0  0
   -7.8129   -0.6679   -0.9005 H   0  0  0  0  0  0  0  0  0  0  0  0
   -6.5798   -4.2631   -0.9533 H   0  0  0  0  0  0  0  0  0  0  0  0
   -6.1545   -4.3025    0.7575 H   0  0  0  0  0  0  0  0  0  0  0  0
   -7.8470   -4.2256    0.2702 H   0  0  0  0  0  0  0  0  0  0  0  0
    8.2052   -1.2251   -0.7151 H   0  0  0  0  0  0  0  0  0  0  0  0
   -3.1697    1.0794    2.0316 H   0  0  0  0  0  0  0  0  0  0  0  0
  1  2  1  0
  1 10  1  0
  1 30  1  0
  1 31  1  0
  2  3  1  0
  2 32  1  0
  2 33  1  0
  3  4  1  0
  3 28  1  0
  3 34  1  6
  4  5  1  0
  4 35  1  0
  4 36  1  0
  5  6  2  0
  5 10  1  0
  6  7  1  0
  6 37  1  0
  7  8  1  0
  7 38  1  0
  7 39  1  0
  8  9  1  0
  8 14  1  0
  8 40  1  1
  9 10  1  0
  9 11  1  0
  9 41  1  6
 10 19  1  1
 11 12  1  0
 11 42  1  0
 11 43  1  0
 12 13  1  0
 12 44  1  0
 12 45  1  0
 13 14  1  0
 13 17  1  0
 13 18  1  1
 14 15  1  0
 14 46  1  6
 15 16  1  0
 15 47  1  0
 15 48  1  0
 16 17  1  0
 16 49  1  0
 16 50  1  0
 17 20  1  0
 17 51  1  6
 18 52  1  0
 18 53  1  0
 18 54  1  0
 19 55  1  0
 19 56  1  0
 19 57  1  0
 20 21  1  0
 20 22  1  0
 20 29  1  1
 21 58  1  0
 21 59  1  0
 21 60  1  0
 22 23  1  0
 22 61  1  0
 22 62  1  0
 23 24  1  0
 23 63  1  0
 23 64  1  0
 24 25  1  0
 24 65  1  0
 24 66  1  0
 25 26  1  0
 25 27  1  0
 25 67  1  1
 26 68  1  0
 26 69  1  0
 26 70  1  0
 27 71  1  0
 27 72  1  0
 27 73  1  0
 28 74  1  0
 29 75  1  0
M  END
