
     RDKit          3D

 58 61  0  0  0  0  0  0  0  0999 V2000
    4.8429    1.2591   -1.6639 C   0  0  0  0  0  0  0  0  0  0  0  0
    4.4574    0.1352   -0.9351 C   0  0  0  0  0  0  0  0  0  0  0  0
    2.9915    4.2086    1.6296 C   0  0  0  0  0  0  0  0  0  0  0  0
    2.2694    2.0954    0.5449 C   0  0  0  0  0  0  0  0  0  0  0  0
    6.0961    1.8285   -1.4986 C   0  0  0  0  0  0  0  0  0  0  0  0
    6.6318    0.1616    0.1505 C   0  0  0  0  0  0  0  0  0  0  0  0
    5.3765   -0.3968   -0.0310 C   0  0  0  0  0  0  0  0  0  0  0  0
    3.1285   -0.4606   -1.1384 C   0  0  0  0  0  0  0  0  0  0  0  0
   -2.2849   -1.9886    0.7767 C   0  0  0  0  0  0  0  0  0  0  0  0
   -5.2012   -0.8261   -0.5076 C   0  0  0  0  0  0  0  0  0  0  0  0
   -6.4492   -0.8244    1.5598 C   0  0  0  0  0  0  0  0  0  0  0  0
   -5.2291   -0.7990    0.8826 C   0  0  0  0  0  0  0  0  0  0  0  0
   -8.8757   -0.9780   -2.7897 C   0  0  0  0  0  0  0  0  0  0  0  0
   -7.6244   -0.9039   -0.5520 C   0  0  0  0  0  0  0  0  0  0  0  0
   -7.6271   -0.8759    0.8465 C   0  0  0  0  0  0  0  0  0  0  0  0
   -1.0178   -2.0080    0.2164 C   0  0  0  0  0  0  0  0  0  0  0  0
   -0.3411   -0.8228   -0.0786 C   0  0  0  0  0  0  0  0  0  0  0  0
   -0.9705    0.3902    0.2087 C   0  0  0  0  0  0  0  0  0  0  0  0
   -2.2331    0.4207    0.7803 C   0  0  0  0  0  0  0  0  0  0  0  0
    0.9721   -0.8859   -0.7241 C   0  0  0  0  0  0  0  0  0  0  0  0
    1.3296   -1.5925   -1.8490 C   0  0  0  0  0  0  0  0  0  0  0  0
    2.6894   -1.3160   -2.1155 C   0  0  0  0  0  0  0  0  0  0  0  0
   -9.9674   -0.9888   -0.6817 O   0  0  0  0  0  0  0  0  0  0  0  0
   -6.3961   -0.8779   -1.2077 C   0  0  0  0  0  0  0  0  0  0  0  0
   -2.8814   -0.7706    1.0616 C   0  0  0  0  0  0  0  0  0  0  0  0
    2.0821   -0.2044   -0.2934 N   0  0  0  0  0  0  0  0  0  0  0  0
    2.2009    0.6082    0.8819 C   0  0  0  0  0  0  0  0  0  0  0  0
    1.8103    2.5366   -0.4816 O   0  0  0  0  0  0  0  0  0  0  0  0
    2.8493    2.8188    1.5403 N   0  0  0  0  0  0  0  0  0  0  0  0
    2.8054    4.9585    0.6225 N   0  0  0  0  0  0  0  0  0  0  0  0
    3.4114    4.5803    2.8814 N   0  0  0  0  0  0  0  0  0  0  0  0
    6.9889    1.2787   -0.5901 C   0  0  0  0  0  0  0  0  0  0  0  0
    4.9424   -1.7950    0.8977 Cl  0  0  0  0  0  0  0  0  0  0  0  0
    4.1405    1.6901   -2.3649 H   0  0  0  0  0  0  0  0  0  0  0  0
    6.3725    2.7011   -2.0748 H   0  0  0  0  0  0  0  0  0  0  0  0
    7.3241   -0.2729    0.8585 H   0  0  0  0  0  0  0  0  0  0  0  0
   -2.7961   -2.9156    1.0031 H   0  0  0  0  0  0  0  0  0  0  0  0
   -4.2695   -0.8050   -1.0560 H   0  0  0  0  0  0  0  0  0  0  0  0
   -6.4629   -0.8034    2.6419 H   0  0  0  0  0  0  0  0  0  0  0  0
   -8.3244   -1.8463   -3.1548 H   0  0  0  0  0  0  0  0  0  0  0  0
   -9.8857   -1.0113   -3.1916 H   0  0  0  0  0  0  0  0  0  0  0  0
   -8.3712   -0.0917   -3.1779 H   0  0  0  0  0  0  0  0  0  0  0  0
   -8.5654   -0.8955    1.3844 H   0  0  0  0  0  0  0  0  0  0  0  0
   -0.5438   -2.9590    0.0109 H   0  0  0  0  0  0  0  0  0  0  0  0
   -0.4908    1.3263   -0.0453 H   0  0  0  0  0  0  0  0  0  0  0  0
   -2.7110    1.3678    0.9955 H   0  0  0  0  0  0  0  0  0  0  0  0
    0.6675   -2.2173   -2.4279 H   0  0  0  0  0  0  0  0  0  0  0  0
    3.2889   -1.7033   -2.9238 H   0  0  0  0  0  0  0  0  0  0  0  0
   -6.3454   -0.8975   -2.2880 H   0  0  0  0  0  0  0  0  0  0  0  0
    3.0690    0.2955    1.4651 H   0  0  0  0  0  0  0  0  0  0  0  0
    1.3361    0.4454    1.5279 H   0  0  0  0  0  0  0  0  0  0  0  0
    3.2081    2.2919    2.3225 H   0  0  0  0  0  0  0  0  0  0  0  0
    2.9186    5.9310    0.8878 H   0  0  0  0  0  0  0  0  0  0  0  0
    3.0890    4.0358    3.6668 H   0  0  0  0  0  0  0  0  0  0  0  0
    3.3973    5.5700    3.0691 H   0  0  0  0  0  0  0  0  0  0  0  0
    7.9690    1.7155   -0.4525 H   0  0  0  0  0  0  0  0  0  0  0  0
   -4.1205   -0.7415    1.6572 O   0  0  0  0  0  0  0  0  0  0  0  0
   -8.9129   -0.9594   -1.2852 C   0  0  0  0  0  0  0  0  0  0  0  0
  1  2  2  0
  1  5  1  0
  2  7  1  0
  2  8  1  0
  3 29  1  0
  3 30  2  0
  3 31  1  0
  4 27  1  0
  4 28  2  0
  4 29  1  0
  5 32  2  0
  6  7  2  0
  6 32  1  0
  7 33  1  0
  8 22  2  0
  8 26  1  0
  9 16  2  0
  9 25  1  0
 10 12  2  0
 10 24  1  0
 11 12  1  0
 11 15  2  0
 12 57  1  0
 13 58  1  0
 58 14  1  0
 58 23  2  0
 14 15  1  0
 14 24  2  0
 16 17  1  0
 17 18  2  0
 17 20  1  0
 18 19  1  0
 19 25  2  0
 20 21  2  0
 20 26  1  0
 21 22  1  0
 57 25  1  0
 26 27  1  0
  1 34  1  0
  5 35  1  0
  6 36  1  0
  9 37  1  0
 10 38  1  0
 11 39  1  0
 13 40  1  0
 13 41  1  0
 13 42  1  0
 15 43  1  0
 16 44  1  0
 18 45  1  0
 19 46  1  0
 21 47  1  0
 22 48  1  0
 24 49  1  0
 27 50  1  0
 27 51  1  0
 29 52  1  0
 30 53  1  0
 31 54  1  0
 31 55  1  0
 32 56  1  0
M  END
