
     RDKit          3D

 42 45  0  0  0  0  0  0  0  0999 V2000
    5.0010    2.3529   -0.3509 O   0  0  0  0  0  0  0  0  0  0  0  0
    3.7672    1.6379   -0.6173 S   0  0  1  0  0  0  0  0  0  0  0  0
    3.2679    1.5086   -1.9726 O   0  0  0  0  0  0  0  0  0  0  0  0
    3.8764    0.0142    0.0845 C   0  0  0  0  0  0  0  0  0  0  0  0
    2.9971   -0.9630   -0.3618 C   0  0  0  0  0  0  0  0  0  0  0  0
    3.0290   -2.2001    0.2593 C   0  0  0  0  0  0  0  0  0  0  0  0
    1.9335   -3.4303   -0.2635 Cl  0  0  0  0  0  0  0  0  0  0  0  0
    3.9168   -2.4672    1.2908 C   0  0  0  0  0  0  0  0  0  0  0  0
    4.7874   -1.4731    1.7125 C   0  0  0  0  0  0  0  0  0  0  0  0
    4.7717   -0.2209    1.1180 C   0  0  0  0  0  0  0  0  0  0  0  0
    2.5907    2.4155    0.2682 N   0  0  0  0  0  0  0  0  0  0  0  0
    1.2930    1.8375    0.2936 C   0  0  0  0  0  0  0  0  0  0  0  0
    0.8750    1.0887    1.3881 C   0  0  0  0  0  0  0  0  0  0  0  0
   -0.3887    0.5246    1.4027 C   0  0  0  0  0  0  0  0  0  0  0  0
    0.4378    2.0102   -0.7874 C   0  0  0  0  0  0  0  0  0  0  0  0
   -0.8156    1.4216   -0.7750 C   0  0  0  0  0  0  0  0  0  0  0  0
   -1.2547    0.6707    0.3175 C   0  0  0  0  0  0  0  0  0  0  0  0
   -2.5964    0.0562    0.3287 C   0  0  0  0  0  0  0  0  0  0  0  0
   -3.6818    0.7135   -0.2244 C   0  0  0  0  0  0  0  0  0  0  0  0
   -4.9348    0.1011   -0.1885 C   0  0  0  0  0  0  0  0  0  0  0  0
   -6.2510    0.4520   -0.6275 C   0  0  0  0  0  0  0  0  0  0  0  0
   -6.6015    1.5873   -1.3228 N   0  0  0  0  0  0  0  0  0  0  0  0
   -7.1015   -0.4997   -0.3412 N   0  0  0  0  0  0  0  0  0  0  0  0
   -5.0941   -1.1676    0.3941 C   0  0  0  0  0  0  0  0  0  0  0  0
   -6.3961   -1.4815    0.2666 N   0  0  0  0  0  0  0  0  0  0  0  0
   -4.0066   -1.8491    0.9543 C   0  0  0  0  0  0  0  0  0  0  0  0
   -2.7842   -1.2224    0.9112 C   0  0  0  0  0  0  0  0  0  0  0  0
    2.3037   -0.7741   -1.1695 H   0  0  0  0  0  0  0  0  0  0  0  0
    3.9314   -3.4407    1.7616 H   0  0  0  0  0  0  0  0  0  0  0  0
    5.4837   -1.6776    2.5139 H   0  0  0  0  0  0  0  0  0  0  0  0
    5.4507    0.5491    1.4570 H   0  0  0  0  0  0  0  0  0  0  0  0
    2.9443    2.6895    1.1801 H   0  0  0  0  0  0  0  0  0  0  0  0
    1.5377    0.9506    2.2339 H   0  0  0  0  0  0  0  0  0  0  0  0
   -0.7023   -0.0311    2.2772 H   0  0  0  0  0  0  0  0  0  0  0  0
    0.7496    2.6007   -1.6380 H   0  0  0  0  0  0  0  0  0  0  0  0
   -1.4580    1.5415   -1.6382 H   0  0  0  0  0  0  0  0  0  0  0  0
   -3.5639    1.6990   -0.6589 H   0  0  0  0  0  0  0  0  0  0  0  0
   -6.1039    2.4155   -1.0335 H   0  0  0  0  0  0  0  0  0  0  0  0
   -7.5950    1.7627   -1.3384 H   0  0  0  0  0  0  0  0  0  0  0  0
   -6.8711   -2.3071    0.5880 H   0  0  0  0  0  0  0  0  0  0  0  0
   -4.1166   -2.8296    1.3979 H   0  0  0  0  0  0  0  0  0  0  0  0
   -1.9265   -1.7397    1.3227 H   0  0  0  0  0  0  0  0  0  0  0  0
  1  2  2  0
  2  3  2  0
  2  4  1  0
  2 11  1  1
  4  5  2  0
  4 10  1  0
  5  6  1  0
  6  7  1  0
  6  8  2  0
  8  9  1  0
  9 10  2  0
 11 12  1  0
 12 13  2  0
 12 15  1  0
 13 14  1  0
 14 17  2  0
 15 16  2  0
 16 17  1  0
 17 18  1  0
 18 19  2  0
 18 27  1  0
 19 20  1  0
 20 21  1  0
 20 24  2  0
 21 22  1  0
 21 23  2  0
 23 25  1  0
 24 25  1  0
 24 26  1  0
 26 27  2  0
  5 28  1  0
  8 29  1  0
  9 30  1  0
 10 31  1  0
 11 32  1  0
 13 33  1  0
 14 34  1  0
 15 35  1  0
 16 36  1  0
 19 37  1  0
 22 38  1  0
 22 39  1  0
 25 40  1  0
 26 41  1  0
 27 42  1  0
M  END
