
     RDKit          3D

 30 31  0  0  0  0  0  0  0  0999 V2000
   -0.1332    0.7630    1.6022 O   0  0  0  0  0  0  0  0  0  0  0  0
    0.8518    0.5171    0.9218 C   0  0  0  0  0  0  0  0  0  0  0  0
    2.0776    0.9978    1.2243 N   0  0  0  0  0  0  0  0  0  0  0  0
    3.1341    0.7285    0.4903 C   0  0  0  0  0  0  0  0  0  0  0  0
    4.3177    1.2264    0.8297 N   0  0  0  0  0  0  0  0  0  0  0  0
    3.0072   -0.0948   -0.6689 C   0  0  0  0  0  0  0  0  0  0  0  0
    4.0922   -0.3622   -1.4122 F   0  0  0  0  0  0  0  0  0  0  0  0
    1.7991   -0.5781   -0.9872 C   0  0  0  0  0  0  0  0  0  0  0  0
    0.7192   -0.2975   -0.2104 N   0  0  0  0  0  0  0  0  0  0  0  0
   -0.5860   -0.7919   -0.6266 C   0  0  2  0  0  0  0  0  0  0  0  0
   -1.3845    0.2836   -1.0295 O   0  0  0  0  0  0  0  0  0  0  0  0
   -2.6948    0.1785   -0.4987 C   0  0  2  0  0  0  0  0  0  0  0  0
   -3.2369    1.5496   -0.1810 C   0  0  0  0  0  0  0  0  0  0  0  0
   -3.4163    2.2720   -1.3759 O   0  0  0  0  0  0  0  0  0  0  0  0
   -2.5776   -0.7042    0.7430 C   0  0  1  0  0  0  0  0  0  0  0  0
   -3.7662   -1.4347    0.9212 O   0  0  0  0  0  0  0  0  0  0  0  0
   -1.3720   -1.6048    0.4164 C   0  0  1  0  0  0  0  0  0  0  0  0
   -1.8008   -2.7904   -0.2049 O   0  0  0  0  0  0  0  0  0  0  0  0
    4.3985    1.7994    1.6529 H   0  0  0  0  0  0  0  0  0  0  0  0
    5.1519    1.0431    0.2999 H   0  0  0  0  0  0  0  0  0  0  0  0
    1.6457   -1.2032   -1.8565 H   0  0  0  0  0  0  0  0  0  0  0  0
   -0.3800   -1.4518   -1.4751 H   0  0  0  0  0  0  0  0  0  0  0  0
   -3.3537   -0.3170   -1.2271 H   0  0  0  0  0  0  0  0  0  0  0  0
   -4.1845    1.4139    0.3572 H   0  0  0  0  0  0  0  0  0  0  0  0
   -2.5413    2.0519    0.5041 H   0  0  0  0  0  0  0  0  0  0  0  0
   -3.7817    3.1322   -1.1511 H   0  0  0  0  0  0  0  0  0  0  0  0
   -2.3526   -0.0963    1.6196 H   0  0  0  0  0  0  0  0  0  0  0  0
   -3.8776   -1.6224    1.8582 H   0  0  0  0  0  0  0  0  0  0  0  0
   -0.7688   -1.8276    1.3033 H   0  0  0  0  0  0  0  0  0  0  0  0
   -2.7065   -2.9495    0.0954 H   0  0  0  0  0  0  0  0  0  0  0  0
  1  2  2  0
  2  3  1  0
  2  9  1  0
  3  4  2  0
  4  5  1  0
  4  6  1  0
  6  7  1  0
  6  8  2  0
  8  9  1  0
  9 10  1  0
 10 11  1  0
 10 17  1  0
 11 12  1  0
 12 13  1  0
 12 15  1  0
 13 14  1  0
 15 16  1  0
 15 17  1  0
 17 18  1  0
  5 19  1  0
  5 20  1  0
  8 21  1  0
 10 22  1  6
 12 23  1  6
 13 24  1  0
 13 25  1  0
 14 26  1  0
 15 27  1  1
 16 28  1  0
 17 29  1  1
 18 30  1  0
M  END
