
     RDKit          3D

 40 42  0  0  0  0  0  0  0  0999 V2000
    2.5598   -0.0232    0.0467 C   0  0  0  0  0  0  0  0  0  0  0  0
    3.8859    0.2483   -0.2771 C   0  0  0  0  0  0  0  0  0  0  0  0
    4.2093    1.0238   -1.3802 C   0  0  0  0  0  0  0  0  0  0  0  0
    2.0206    1.3196   -1.8769 C   0  0  0  0  0  0  0  0  0  0  0  0
   -0.6177   -0.4059   -1.4155 C   0  0  0  0  0  0  0  0  0  0  0  0
   -2.5636    0.0686   -0.3157 C   0  0  0  0  0  0  0  0  0  0  0  0
   -2.6296    1.6040    1.7168 C   0  0  0  0  0  0  0  0  0  0  0  0
   -4.7052   -0.4306   -1.3299 C   0  0  0  0  0  0  0  0  0  0  0  0
   -0.5361    1.0465    0.4481 C   0  0  0  0  0  0  0  0  0  0  0  0
    2.2989   -0.1989    2.5481 C   0  0  0  0  0  0  0  0  0  0  0  0
    2.1446   -0.9116    1.2105 C   0  0  2  0  0  0  0  0  0  0  0  0
    2.7757   -2.1681    1.1687 O   0  0  0  0  0  0  0  0  0  0  0  0
    5.2101   -0.3506    0.6699 Cl  0  0  0  0  0  0  0  0  0  0  0  0
    3.2905    1.5464   -2.1738 N   0  0  0  0  0  0  0  0  0  0  0  0
    1.5988    0.5595   -0.7897 C   0  0  0  0  0  0  0  0  0  0  0  0
    0.1443    0.3941   -0.5733 C   0  0  0  0  0  0  0  0  0  0  0  0
   -1.9209   -0.5751   -1.2810 N   0  0  0  0  0  0  0  0  0  0  0  0
   -1.9047    0.9028    0.6021 C   0  0  0  0  0  0  0  0  0  0  0  0
   -4.1354    1.5534    1.5288 C   0  0  0  0  0  0  0  0  0  0  0  0
   -4.5547    0.1623    1.0869 C   0  0  0  0  0  0  0  0  0  0  0  0
   -3.9328   -0.1602   -0.1969 N   0  0  0  0  0  0  0  0  0  0  0  0
   -5.8540   -1.0964   -1.0722 N   0  0  0  0  0  0  0  0  0  0  0  0
   -4.3927   -0.0611   -2.4468 O   0  0  0  0  0  0  0  0  0  0  0  0
    5.2482    1.2203   -1.6201 H   0  0  0  0  0  0  0  0  0  0  0  0
    1.2809    1.7671   -2.5319 H   0  0  0  0  0  0  0  0  0  0  0  0
   -0.1421   -0.9503   -2.2253 H   0  0  0  0  0  0  0  0  0  0  0  0
   -2.3600    1.1269    2.6636 H   0  0  0  0  0  0  0  0  0  0  0  0
   -2.2844    2.6373    1.7885 H   0  0  0  0  0  0  0  0  0  0  0  0
    0.0026    1.6966    1.1297 H   0  0  0  0  0  0  0  0  0  0  0  0
    1.7087    0.7166    2.5637 H   0  0  0  0  0  0  0  0  0  0  0  0
    1.9387   -0.8400    3.3531 H   0  0  0  0  0  0  0  0  0  0  0  0
    3.3338    0.0697    2.7600 H   0  0  0  0  0  0  0  0  0  0  0  0
    1.0836   -1.1281    1.0764 H   0  0  0  0  0  0  0  0  0  0  0  0
    3.6457   -2.1065    1.5752 H   0  0  0  0  0  0  0  0  0  0  0  0
   -4.6433    1.8114    2.4586 H   0  0  0  0  0  0  0  0  0  0  0  0
   -4.4542    2.2762    0.7741 H   0  0  0  0  0  0  0  0  0  0  0  0
   -4.2731   -0.5809    1.8386 H   0  0  0  0  0  0  0  0  0  0  0  0
   -5.6345    0.1207    0.9769 H   0  0  0  0  0  0  0  0  0  0  0  0
   -5.9623   -1.6622   -0.2476 H   0  0  0  0  0  0  0  0  0  0  0  0
   -6.4260   -1.3517   -1.8597 H   0  0  0  0  0  0  0  0  0  0  0  0
 23  8  2  0
 22  8  1  0
  8 21  1  0
 21 20  1  0
 21  6  1  0
 20 19  1  0
 17  6  1  0
 17  5  2  0
  6 18  2  0
 19  7  1  0
  5 16  1  0
 18  7  1  0
 18  9  1  0
 16  9  2  0
 16 15  1  0
  4 15  1  0
  4 14  2  0
 15  1  2  0
 14  3  1  0
  1 11  1  0
  1  2  1  0
  3  2  2  0
 11 10  1  0
 11 12  1  0
  2 13  1  0
  3 24  1  0
  4 25  1  0
  5 26  1  0
  7 27  1  0
  7 28  1  0
  9 29  1  0
 10 30  1  0
 10 31  1  0
 10 32  1  0
 11 33  1  6
 12 34  1  0
 19 35  1  0
 19 36  1  0
 20 37  1  0
 20 38  1  0
 22 39  1  0
 22 40  1  0
M  END
