
     RDKit          3D

 28 28  0  0  0  0  0  0  0  0999 V2000
   -3.8516    1.1318   -0.7474 C   0  0  0  0  0  0  0  0  0  0  0  0
   -2.5665    1.2995   -0.2476 C   0  0  0  0  0  0  0  0  0  0  0  0
   -1.9460    0.2917    0.4874 C   0  0  0  0  0  0  0  0  0  0  0  0
   -2.6466   -0.8927    0.7100 C   0  0  0  0  0  0  0  0  0  0  0  0
   -3.9314   -1.0657    0.2130 C   0  0  0  0  0  0  0  0  0  0  0  0
   -4.5389   -0.0530   -0.5189 C   0  0  0  0  0  0  0  0  0  0  0  0
   -0.5379    0.4592    0.9845 C   0  0  0  0  0  0  0  0  0  0  0  0
    0.4835   -0.1453    0.0195 C   0  0  0  0  0  0  0  0  0  0  0  0
    1.9074    0.0803    0.5013 C   0  0  0  0  0  0  0  0  0  0  0  0
    2.8963   -0.3893   -0.4532 N   0  0  0  0  0  0  0  0  0  0  0  0
    2.8282   -1.7993   -0.4872 O   0  0  0  0  0  0  0  0  0  0  0  0
    4.2649   -0.0741   -0.0495 C   0  0  0  0  0  0  0  0  0  0  0  0
    4.5093    1.2963   -0.1321 O   0  0  0  0  0  0  0  0  0  0  0  0
   -4.3164    1.9286   -1.3140 H   0  0  0  0  0  0  0  0  0  0  0  0
   -2.0391    2.2294   -0.4285 H   0  0  0  0  0  0  0  0  0  0  0  0
   -2.1811   -1.6881    1.2814 H   0  0  0  0  0  0  0  0  0  0  0  0
   -4.4599   -1.9922    0.3996 H   0  0  0  0  0  0  0  0  0  0  0  0
   -5.5409   -0.1865   -0.9057 H   0  0  0  0  0  0  0  0  0  0  0  0
   -0.4319   -0.0103    1.9666 H   0  0  0  0  0  0  0  0  0  0  0  0
   -0.3212    1.5222    1.1225 H   0  0  0  0  0  0  0  0  0  0  0  0
    0.3631    0.3066   -0.9693 H   0  0  0  0  0  0  0  0  0  0  0  0
    0.2855   -1.2138   -0.0931 H   0  0  0  0  0  0  0  0  0  0  0  0
    2.0529   -0.3757    1.4941 H   0  0  0  0  0  0  0  0  0  0  0  0
    2.0622    1.1557    0.6225 H   0  0  0  0  0  0  0  0  0  0  0  0
    2.6157   -2.0038   -1.4036 H   0  0  0  0  0  0  0  0  0  0  0  0
    4.9263   -0.5763   -0.7571 H   0  0  0  0  0  0  0  0  0  0  0  0
    4.4841   -0.4605    0.9587 H   0  0  0  0  0  0  0  0  0  0  0  0
    4.2934    1.7091    0.7083 H   0  0  0  0  0  0  0  0  0  0  0  0
  1  2  2  0
  1  6  1  0
  1 14  1  0
  2  3  1  0
  2 15  1  0
  3  4  2  0
  3  7  1  0
  4  5  1  0
  4 16  1  0
  5  6  2  0
  5 17  1  0
  6 18  1  0
  7  8  1  0
  7 19  1  0
  7 20  1  0
  8  9  1  0
  8 21  1  0
  8 22  1  0
  9 10  1  0
  9 23  1  0
  9 24  1  0
 10 11  1  0
 10 12  1  0
 11 25  1  0
 12 13  1  0
 12 26  1  0
 12 27  1  0
 13 28  1  0
M  END
