
     RDKit          3D

 50 53  0  0  0  0  0  0  0  0999 V2000
    5.2237    3.4309   -0.9128 N   0  0  0  0  0  0  0  0  0  0  0  0
    4.0895    2.7623   -0.6089 C   0  0  0  0  0  0  0  0  0  0  0  0
    4.1034    1.7044    0.3219 C   0  0  0  0  0  0  0  0  0  0  0  0
    2.9398    1.0156    0.5714 C   0  0  0  0  0  0  0  0  0  0  0  0
    1.7596    1.3759   -0.1010 C   0  0  0  0  0  0  0  0  0  0  0  0
    1.8641    2.4471   -0.9780 C   0  0  0  0  0  0  0  0  0  0  0  0
    2.9725    3.1232   -1.2345 N   0  0  0  0  0  0  0  0  0  0  0  0
    0.4561    0.6912    0.0281 C   0  0  0  0  0  0  0  0  0  0  0  0
   -0.6866    1.4339    0.2465 C   0  0  0  0  0  0  0  0  0  0  0  0
   -1.8988    0.7131    0.3055 C   0  0  0  0  0  0  0  0  0  0  0  0
   -1.8916   -0.6128    0.2003 N   0  0  0  0  0  0  0  0  0  0  0  0
   -0.7295   -1.2291   -0.0021 C   0  0  0  0  0  0  0  0  0  0  0  0
    0.4577   -0.6314   -0.1114 N   0  0  0  0  0  0  0  0  0  0  0  0
   -0.7616   -2.5810   -0.1291 N   0  0  0  0  0  0  0  0  0  0  0  0
   -1.9600   -3.3538    0.1245 C   0  0  0  0  0  0  0  0  0  0  0  0
   -2.0507   -4.4949   -0.8719 C   0  0  0  0  0  0  0  0  0  0  0  0
   -0.8876   -5.2924   -0.8639 O   0  0  0  0  0  0  0  0  0  0  0  0
    0.2545   -4.5222   -1.1671 C   0  0  0  0  0  0  0  0  0  0  0  0
    0.4451   -3.3810   -0.1844 C   0  0  0  0  0  0  0  0  0  0  0  0
   -3.1037    1.3122    0.4639 N   0  0  0  0  0  0  0  0  0  0  0  0
   -4.3007    0.5402    0.7510 C   0  0  0  0  0  0  0  0  0  0  0  0
   -5.4994    1.1646    0.0637 C   0  0  0  0  0  0  0  0  0  0  0  0
   -5.6519    2.5229    0.4111 O   0  0  0  0  0  0  0  0  0  0  0  0
   -4.5052    3.2578    0.0549 C   0  0  0  0  0  0  0  0  0  0  0  0
   -3.2540    2.7284    0.7357 C   0  0  0  0  0  0  0  0  0  0  0  0
    2.9755   -0.0855    1.6003 C   0  0  1  0  0  0  0  0  0  0  0  0
    3.1333   -1.2891    1.0433 F   0  0  0  0  0  0  0  0  0  0  0  0
    3.9995    0.0724    2.4508 F   0  0  0  0  0  0  0  0  0  0  0  0
    1.8701   -0.1160    2.3467 F   0  0  0  0  0  0  0  0  0  0  0  0
    5.1377    4.3042   -1.4050 H   0  0  0  0  0  0  0  0  0  0  0  0
    6.0271    3.3410   -0.3152 H   0  0  0  0  0  0  0  0  0  0  0  0
    5.0258    1.4674    0.8337 H   0  0  0  0  0  0  0  0  0  0  0  0
    0.9816    2.7645   -1.5241 H   0  0  0  0  0  0  0  0  0  0  0  0
   -0.6203    2.5003    0.3905 H   0  0  0  0  0  0  0  0  0  0  0  0
   -1.9416   -3.7520    1.1474 H   0  0  0  0  0  0  0  0  0  0  0  0
   -2.8376   -2.7191    0.0340 H   0  0  0  0  0  0  0  0  0  0  0  0
   -2.8924   -5.1414   -0.6194 H   0  0  0  0  0  0  0  0  0  0  0  0
   -2.2286   -4.0852   -1.8764 H   0  0  0  0  0  0  0  0  0  0  0  0
    1.1176   -5.1883   -1.1303 H   0  0  0  0  0  0  0  0  0  0  0  0
    0.1837   -4.1146   -2.1857 H   0  0  0  0  0  0  0  0  0  0  0  0
    1.2837   -2.7651   -0.4949 H   0  0  0  0  0  0  0  0  0  0  0  0
    0.6769   -3.7808    0.8115 H   0  0  0  0  0  0  0  0  0  0  0  0
   -4.1713   -0.4808    0.4033 H   0  0  0  0  0  0  0  0  0  0  0  0
   -4.4683    0.5044    1.8350 H   0  0  0  0  0  0  0  0  0  0  0  0
   -5.3934    1.0555   -1.0248 H   0  0  0  0  0  0  0  0  0  0  0  0
   -6.4082    0.6436    0.3680 H   0  0  0  0  0  0  0  0  0  0  0  0
   -4.3572    3.2365   -1.0340 H   0  0  0  0  0  0  0  0  0  0  0  0
   -4.6701    4.2942    0.3522 H   0  0  0  0  0  0  0  0  0  0  0  0
   -3.3092    2.9037    1.8170 H   0  0  0  0  0  0  0  0  0  0  0  0
   -2.4062    3.2909    0.3530 H   0  0  0  0  0  0  0  0  0  0  0  0
  1  2  1  0
  1 30  1  0
  1 31  1  0
  3  2  2  0
  2  7  1  0
  3  4  1  0
  3 32  1  0
 26  4  1  0
  4  5  2  0
  5  8  1  0
  5  6  1  0
  7  6  2  0
  6 33  1  0
  9  8  2  0
  8 13  1  0
  9 10  1  0
  9 34  1  0
 20 10  1  0
 10 11  2  0
 11 12  1  0
 13 12  2  0
 12 14  1  0
 14 19  1  0
 14 15  1  0
 15 16  1  0
 15 35  1  0
 15 36  1  0
 16 17  1  0
 16 37  1  0
 16 38  1  0
 18 17  1  0
 19 18  1  0
 18 39  1  0
 18 40  1  0
 19 41  1  0
 19 42  1  0
 25 20  1  0
 20 21  1  0
 21 22  1  0
 21 43  1  0
 21 44  1  0
 23 22  1  0
 22 45  1  0
 22 46  1  0
 24 23  1  0
 25 24  1  0
 24 47  1  0
 24 48  1  0
 25 49  1  0
 25 50  1  0
 26 27  1  6
 29 26  1  0
 26 28  1  0
M  END
