
     RDKit          3D

 70 73  0  0  0  0  0  0  0  0999 V2000
    3.7579    1.0713   -0.8407 C   0  0  0  0  0  0  0  0  0  0  0  0
    4.7899    0.7178   -1.6977 C   0  0  0  0  0  0  0  0  0  0  0  0
    5.4653   -0.4912   -1.5538 C   0  0  0  0  0  0  0  0  0  0  0  0
    6.5934   -0.8662   -2.4691 C   0  0  0  0  0  0  0  0  0  0  0  0
    5.0707   -1.3445   -0.5240 C   0  0  0  0  0  0  0  0  0  0  0  0
    4.0276   -1.0077    0.3235 C   0  0  0  0  0  0  0  0  0  0  0  0
    3.3573    0.2021    0.1657 C   0  0  0  0  0  0  0  0  0  0  0  0
    2.2970    0.6496    1.1204 C   0  0  0  0  0  0  0  0  0  0  0  0
    2.5093    1.6308    1.8179 O   0  0  0  0  0  0  0  0  0  0  0  0
    1.1414   -0.0641    1.1741 N   0  0  0  0  0  0  0  0  0  0  0  0
    0.8145   -1.1049    0.2078 C   0  0  0  0  0  0  0  0  0  0  0  0
    0.8513   -2.5345    0.7306 C   0  0  0  0  0  0  0  0  0  0  0  0
    0.5519   -3.5175   -0.3919 C   0  0  0  0  0  0  0  0  0  0  0  0
    0.5981   -4.8872    0.0954 N   0  0  0  0  0  0  0  0  0  0  0  0
    0.1328    0.3471    2.1522 C   0  0  2  0  0  0  0  0  0  0  0  0
    0.0094   -0.5688    3.3871 C   0  0  1  0  0  0  0  0  0  0  0  0
    1.3829   -0.8802    3.9709 C   0  0  0  0  0  0  0  0  0  0  0  0
   -0.8568    0.1186    4.4413 C   0  0  0  0  0  0  0  0  0  0  0  0
   -1.1768    0.5987    1.4398 C   0  0  0  0  0  0  0  0  0  0  0  0
   -2.0239   -0.4376    1.5501 O   0  0  0  0  0  0  0  0  0  0  0  0
   -3.2235   -0.4309    0.9429 C   0  0  0  0  0  0  0  0  0  0  0  0
   -4.0180   -1.5600    1.1186 C   0  0  0  0  0  0  0  0  0  0  0  0
   -5.2488   -1.5795    0.5006 C   0  0  0  0  0  0  0  0  0  0  0  0
   -6.2612   -2.9627    0.6945 Cl  0  0  0  0  0  0  0  0  0  0  0  0
   -5.7015   -0.5117   -0.2791 C   0  0  0  0  0  0  0  0  0  0  0  0
   -4.8936    0.5909   -0.4328 C   0  0  0  0  0  0  0  0  0  0  0  0
   -3.6365    0.6515    0.1780 C   0  0  0  0  0  0  0  0  0  0  0  0
   -2.7503    1.8078    0.0302 C   0  0  0  0  0  0  0  0  0  0  0  0
   -3.0624    2.7854   -0.6335 O   0  0  0  0  0  0  0  0  0  0  0  0
   -1.4687    1.7077    0.7238 C   0  0  0  0  0  0  0  0  0  0  0  0
   -0.5225    2.8588    0.5735 C   0  0  0  0  0  0  0  0  0  0  0  0
    0.2617    2.8844   -0.7202 C   0  0  0  0  0  0  0  0  0  0  0  0
    0.1868    1.8820   -1.6800 C   0  0  0  0  0  0  0  0  0  0  0  0
    0.9248    1.9642   -2.8559 C   0  0  0  0  0  0  0  0  0  0  0  0
    1.7472    3.0546   -3.0931 C   0  0  0  0  0  0  0  0  0  0  0  0
    1.8332    4.0620   -2.1384 C   0  0  0  0  0  0  0  0  0  0  0  0
    1.1001    3.9725   -0.9652 C   0  0  0  0  0  0  0  0  0  0  0  0
    3.7490   -1.6917    1.1154 H   0  0  0  0  0  0  0  0  0  0  0  0
    5.5833   -2.2884   -0.3810 H   0  0  0  0  0  0  0  0  0  0  0  0
    7.5361   -0.9349   -1.9237 H   0  0  0  0  0  0  0  0  0  0  0  0
    6.4208   -1.8383   -2.9324 H   0  0  0  0  0  0  0  0  0  0  0  0
    6.7217   -0.1328   -3.2639 H   0  0  0  0  0  0  0  0  0  0  0  0
    5.0789    1.4005   -2.4881 H   0  0  0  0  0  0  0  0  0  0  0  0
    3.2537    2.0198   -0.9730 H   0  0  0  0  0  0  0  0  0  0  0  0
   -0.1729   -0.8978   -0.2112 H   0  0  0  0  0  0  0  0  0  0  0  0
    1.4984   -1.0163   -0.6345 H   0  0  0  0  0  0  0  0  0  0  0  0
    0.4679    1.3104    2.5371 H   0  0  0  0  0  0  0  0  0  0  0  0
    1.8314   -2.7627    1.1543 H   0  0  0  0  0  0  0  0  0  0  0  0
    0.1205   -2.6718    1.5312 H   0  0  0  0  0  0  0  0  0  0  0  0
   -0.4088   -3.2466   -0.8546 H   0  0  0  0  0  0  0  0  0  0  0  0
    1.3097   -3.4064   -1.1726 H   0  0  0  0  0  0  0  0  0  0  0  0
   -0.1573   -5.0336    0.7542 H   0  0  0  0  0  0  0  0  0  0  0  0
    0.4122   -5.5203   -0.6719 H   0  0  0  0  0  0  0  0  0  0  0  0
   -0.4653   -1.5128    3.1125 H   0  0  0  0  0  0  0  0  0  0  0  0
    1.9028    0.0308    4.2726 H   0  0  0  0  0  0  0  0  0  0  0  0
    1.2734   -1.5066    4.8570 H   0  0  0  0  0  0  0  0  0  0  0  0
    2.0225   -1.4181    3.2714 H   0  0  0  0  0  0  0  0  0  0  0  0
   -1.8659    0.3358    4.0906 H   0  0  0  0  0  0  0  0  0  0  0  0
   -0.9507   -0.5137    5.3244 H   0  0  0  0  0  0  0  0  0  0  0  0
   -0.4031    1.0615    4.7546 H   0  0  0  0  0  0  0  0  0  0  0  0
   -3.6703   -2.3880    1.7216 H   0  0  0  0  0  0  0  0  0  0  0  0
   -6.6713   -0.5548   -0.7541 H   0  0  0  0  0  0  0  0  0  0  0  0
   -5.2305    1.4246   -1.0337 H   0  0  0  0  0  0  0  0  0  0  0  0
   -1.0977    3.7856    0.6409 H   0  0  0  0  0  0  0  0  0  0  0  0
    0.1833    2.8971    1.4035 H   0  0  0  0  0  0  0  0  0  0  0  0
    1.1753    4.7620   -0.2260 H   0  0  0  0  0  0  0  0  0  0  0  0
   -0.4581    1.0258   -1.5277 H   0  0  0  0  0  0  0  0  0  0  0  0
    2.4752    4.9173   -2.3073 H   0  0  0  0  0  0  0  0  0  0  0  0
    2.3211    3.1182   -4.0087 H   0  0  0  0  0  0  0  0  0  0  0  0
    0.8527    1.1688   -3.5866 H   0  0  0  0  0  0  0  0  0  0  0  0
  6  5  1  0
  6  7  2  0
  5  3  2  0
  3  4  1  0
  3  2  1  0
  2  1  2  0
  1  7  1  0
  7  8  1  0
  8  9  2  0
  8 10  1  0
 10 11  1  0
 10 15  1  0
 11 12  1  0
 12 13  1  0
 13 14  1  0
 15 16  1  0
 15 19  1  0
 16 17  1  0
 16 18  1  0
 19 20  1  0
 19 30  2  0
 20 21  1  0
 21 22  2  0
 21 27  1  0
 22 23  1  0
 23 24  1  0
 23 25  2  0
 25 26  1  0
 26 27  2  0
 27 28  1  0
 28 29  2  0
 28 30  1  0
 30 31  1  0
 31 32  1  0
 32 37  1  0
 32 33  2  0
 37 36  2  0
 36 35  1  0
 35 34  2  0
 34 33  1  0
  6 38  1  0
  5 39  1  0
  4 40  1  0
  4 41  1  0
  4 42  1  0
  2 43  1  0
  1 44  1  0
 11 45  1  0
 11 46  1  0
 15 47  1  1
 12 48  1  0
 12 49  1  0
 13 50  1  0
 13 51  1  0
 14 52  1  0
 14 53  1  0
 16 54  1  6
 17 55  1  0
 17 56  1  0
 17 57  1  0
 18 58  1  0
 18 59  1  0
 18 60  1  0
 22 61  1  0
 25 62  1  0
 26 63  1  0
 31 64  1  0
 31 65  1  0
 37 66  1  0
 33 67  1  0
 36 68  1  0
 35 69  1  0
 34 70  1  0
M  END
