
     RDKit          3D

 10  9  0  0  0  0  0  0  0  0999 V2000
    0.5298   -0.0970    0.0207 N   0  0  0  0  0  0  0  0  0  0  0  0
   -0.2520    0.0876    1.2250 C   0  0  0  0  0  0  0  0  0  0  0  0
   -0.2635    0.0606   -1.1797 C   0  0  0  0  0  0  0  0  0  0  0  0
    1.2816    0.5792    0.0094 H   0  0  0  0  0  0  0  0  0  0  0  0
    0.3915    0.0255    2.1029 H   0  0  0  0  0  0  0  0  0  0  0  0
   -0.7904    1.0458    1.2699 H   0  0  0  0  0  0  0  0  0  0  0  0
   -0.9985   -0.7054    1.3083 H   0  0  0  0  0  0  0  0  0  0  0  0
    0.3728   -0.0183   -2.0615 H   0  0  0  0  0  0  0  0  0  0  0  0
   -1.0080   -0.7364   -1.2396 H   0  0  0  0  0  0  0  0  0  0  0  0
   -0.8046    1.0163   -1.2391 H   0  0  0  0  0  0  0  0  0  0  0  0
  1  2  1  0
  1  3  1  0
  1  4  1  0
  2  5  1  0
  2  6  1  0
  2  7  1  0
  3  8  1  0
  3  9  1  0
  3 10  1  0
M  END
