
     RDKit          3D

 32 34  0  0  0  0  0  0  0  0999 V2000
   -1.3230   -1.0908    0.0361 C   0  0  0  0  0  0  0  0  0  0  0  0
    3.2616   -1.4737    0.0974 C   0  0  0  0  0  0  0  0  0  0  0  0
    3.6989    1.2623    0.1262 C   0  0  0  0  0  0  0  0  0  0  0  0
   -2.7656    0.9293   -0.0439 C   0  0  0  0  0  0  0  0  0  0  0  0
   -5.1477    0.7053   -0.0967 C   0  0  0  0  0  0  0  0  0  0  0  0
   -0.8903   -2.3787    0.0779 C   0  0  0  0  0  0  0  0  0  0  0  0
   -4.0215    1.5123   -0.0878 C   0  0  0  0  0  0  0  0  0  0  0  0
    0.8289   -1.1490    0.0795 C   0  0  0  0  0  0  0  0  0  0  0  0
    2.1737   -0.6006    0.0918 C   0  0  0  0  0  0  0  0  0  0  0  0
   -0.2147   -0.3111    0.0377 O   0  0  0  0  0  0  0  0  0  0  0  0
    0.4771   -2.3933    0.1047 N   0  0  0  0  0  0  0  0  0  0  0  0
    2.4044    0.7756    0.1038 C   0  0  0  0  0  0  0  0  0  0  0  0
    4.5525   -0.9797    0.1039 C   0  0  0  0  0  0  0  0  0  0  0  0
   -2.6255   -0.4592   -0.0082 C   0  0  0  0  0  0  0  0  0  0  0  0
    4.7874    0.3945    0.1137 C   0  0  0  0  0  0  0  0  0  0  0  0
   -3.7768   -1.2510   -0.0182 C   0  0  0  0  0  0  0  0  0  0  0  0
    6.1631    0.9832    0.1527 C   0  0  0  0  0  0  0  0  0  0  0  0
   -5.0338   -0.6773   -0.0613 C   0  0  0  0  0  0  0  0  0  0  0  0
    7.1548    0.2058   -0.3036 N   0  0  0  0  0  0  0  0  0  0  0  0
    6.3474    2.1127    0.5849 O   0  0  0  0  0  0  0  0  0  0  0  0
    3.0973   -2.5427    0.0999 H   0  0  0  0  0  0  0  0  0  0  0  0
    3.8608    2.3314    0.1468 H   0  0  0  0  0  0  0  0  0  0  0  0
   -1.8985    1.5754   -0.0377 H   0  0  0  0  0  0  0  0  0  0  0  0
   -1.4727   -3.2863    0.0913 H   0  0  0  0  0  0  0  0  0  0  0  0
   -4.1157    2.5890   -0.1160 H   0  0  0  0  0  0  0  0  0  0  0  0
    1.5808    1.4764    0.0982 H   0  0  0  0  0  0  0  0  0  0  0  0
    5.3713   -1.6870    0.1235 H   0  0  0  0  0  0  0  0  0  0  0  0
   -3.6997   -2.3300    0.0074 H   0  0  0  0  0  0  0  0  0  0  0  0
   -5.9143   -1.3045   -0.0692 H   0  0  0  0  0  0  0  0  0  0  0  0
    6.9906   -0.6653   -0.7770 H   0  0  0  0  0  0  0  0  0  0  0  0
    8.1002    0.5528   -0.3035 H   0  0  0  0  0  0  0  0  0  0  0  0
   -6.7180    1.4297   -0.1529 Cl  0  0  0  0  0  0  0  0  0  0  0  0
 32  5  1  0
  5  7  1  0
  5 18  2  0
  7  4  2  0
 18 16  1  0
  4 14  1  0
 16 14  2  0
 14  1  1  0
  1  6  2  0
  1 10  1  0
  6 11  1  0
 10  8  1  0
 11  8  2  0
  8  9  1  0
  9  2  2  0
  9 12  1  0
  2 13  1  0
 12  3  2  0
 13 15  2  0
  3 15  1  0
 15 17  1  0
 20 17  2  0
 17 19  1  0
  2 21  1  0
  3 22  1  0
  4 23  1  0
  6 24  1  0
  7 25  1  0
 12 26  1  0
 13 27  1  0
 16 28  1  0
 18 29  1  0
 19 30  1  0
 19 31  1  0
M  END
