
     RDKit          3D

 29 30  0  0  0  0  0  0  0  0999 V2000
    0.2680    0.7469    0.1486 C   0  0  0  0  0  0  0  0  0  0  0  0
   -2.5571    2.3649   -0.0215 C   0  0  0  0  0  0  0  0  0  0  0  0
   -2.3187    0.8930   -0.0100 C   0  0  0  0  0  0  0  0  0  0  0  0
   -3.2427   -0.1165   -0.0687 C   0  0  0  0  0  0  0  0  0  0  0  0
   -4.7256   -0.0639   -0.1523 C   0  0  0  0  0  0  0  0  0  0  0  0
   -1.2513   -1.1345    0.0464 C   0  0  0  0  0  0  0  0  0  0  0  0
   -0.1974   -2.0426    0.1022 C   0  0  0  0  0  0  0  0  0  0  0  0
    1.0846   -1.5342    0.1669 C   0  0  0  0  0  0  0  0  0  0  0  0
   -1.0344    0.2610    0.0659 C   0  0  0  0  0  0  0  0  0  0  0  0
    1.3307   -0.1463    0.1846 C   0  0  0  0  0  0  0  0  0  0  0  0
    2.7090    0.4176    0.2661 C   0  0  0  0  0  0  0  0  0  0  0  0
    5.0869    0.0620   -0.1441 C   0  0  0  0  0  0  0  0  0  0  0  0
   -2.5933   -1.3299   -0.0305 N   0  0  0  0  0  0  0  0  0  0  0  0
    3.7100   -0.3706   -0.1599 N   0  0  0  0  0  0  0  0  0  0  0  0
    2.9164    1.5478    0.6961 O   0  0  0  0  0  0  0  0  0  0  0  0
    0.4532    1.8136    0.1747 H   0  0  0  0  0  0  0  0  0  0  0  0
   -2.2816    2.8276    0.9288 H   0  0  0  0  0  0  0  0  0  0  0  0
   -1.9654    2.8557   -0.7969 H   0  0  0  0  0  0  0  0  0  0  0  0
   -3.6022    2.6071   -0.2102 H   0  0  0  0  0  0  0  0  0  0  0  0
   -5.0984   -0.6673   -0.9819 H   0  0  0  0  0  0  0  0  0  0  0  0
   -5.1915   -0.4413    0.7602 H   0  0  0  0  0  0  0  0  0  0  0  0
   -5.0715    0.9565   -0.3023 H   0  0  0  0  0  0  0  0  0  0  0  0
   -0.3699   -3.1112    0.1032 H   0  0  0  0  0  0  0  0  0  0  0  0
    1.9053   -2.2368    0.2335 H   0  0  0  0  0  0  0  0  0  0  0  0
    5.7110   -0.7719   -0.4532 H   0  0  0  0  0  0  0  0  0  0  0  0
    5.2655    0.8960   -0.8256 H   0  0  0  0  0  0  0  0  0  0  0  0
    5.3944    0.3671    0.8555 H   0  0  0  0  0  0  0  0  0  0  0  0
   -3.0497   -2.2262   -0.0753 H   0  0  0  0  0  0  0  0  0  0  0  0
    3.4967   -1.2255   -0.6435 H   0  0  0  0  0  0  0  0  0  0  0  0
 12 14  1  0
 14 11  1  0
 11 10  1  0
 11 15  2  0
 10  1  2  0
 10  8  1  0
  1  9  1  0
  8  7  2  0
  9  6  2  0
  9  3  1  0
  2  3  1  0
  7  6  1  0
  6 13  1  0
  3  4  2  0
 13  4  1  0
  4  5  1  0
  1 16  1  0
  2 17  1  0
  2 18  1  0
  2 19  1  0
  5 20  1  0
  5 21  1  0
  5 22  1  0
  7 23  1  0
  8 24  1  0
 12 25  1  0
 12 26  1  0
 12 27  1  0
 13 28  1  0
 14 29  1  0
M  END
