
     RDKit          3D

 10  9  0  0  0  0  0  0  0  0999 V2000
   -2.2872    0.7382    0.0430 Cl  0  0  0  0  0  0  0  0  0  0  0  0
   -0.7635   -0.1966   -0.0092 C   0  0  0  0  0  0  0  0  0  0  0  0
   -0.8044   -1.3740   -0.0198 O   0  0  0  0  0  0  0  0  0  0  0  0
    0.4119    0.7257   -0.0451 C   0  0  0  0  0  0  0  0  0  0  0  0
    1.7704    0.0651   -0.0175 C   0  0  0  0  0  0  0  0  0  0  0  0
    1.9879   -1.1128    0.0572 O   0  0  0  0  0  0  0  0  0  0  0  0
    2.7120    0.9948   -0.0832 O   0  0  0  0  0  0  0  0  0  0  0  0
    0.3246    1.3481   -0.9414 H   0  0  0  0  0  0  0  0  0  0  0  0
    0.3305    1.4255    0.7915 H   0  0  0  0  0  0  0  0  0  0  0  0
    3.5901    0.5840   -0.0635 H   0  0  0  0  0  0  0  0  0  0  0  0
  2  1  1  0
  3  2  2  0
  2  4  1  0
  5  4  1  0
  4  8  1  0
  4  9  1  0
  6  5  2  0
  5  7  1  0
  7 10  1  0
M  END
