
     RDKit          3D

 45 48  0  0  0  0  0  0  0  0999 V2000
    1.6832    3.2709    0.2116 C   0  0  0  0  0  0  0  0  0  0  0  0
    1.5238    1.8911    0.1557 C   0  0  0  0  0  0  0  0  0  0  0  0
    0.1611    1.6764    0.1013 N   0  0  0  0  0  0  0  0  0  0  0  0
   -0.5484    2.8063    0.1192 N   0  0  0  0  0  0  0  0  0  0  0  0
    0.3738    3.7594    0.1832 C   0  0  0  0  0  0  0  0  0  0  0  0
    2.4061    0.8837    0.1493 N   0  0  0  0  0  0  0  0  0  0  0  0
    1.9030   -0.3271    0.0715 C   0  0  0  0  0  0  0  0  0  0  0  0
    0.5306   -0.6175    0.0007 C   0  0  0  0  0  0  0  0  0  0  0  0
   -0.3785    0.4284    0.0227 C   0  0  0  0  0  0  0  0  0  0  0  0
   -1.7050    0.3330   -0.0225 N   0  0  0  0  0  0  0  0  0  0  0  0
    2.8768   -1.4439    0.0322 C   0  0  0  0  0  0  0  0  0  0  0  0
   -2.3942   -0.9359   -0.1753 C   0  0  0  0  0  0  0  0  0  0  0  0
   -3.8720   -0.7367   -0.0856 C   0  0  0  0  0  0  0  0  0  0  0  0
   -4.6804   -0.6162   -1.2075 C   0  0  0  0  0  0  0  0  0  0  0  0
   -5.9834   -0.4149   -1.1472 N   0  0  0  0  0  0  0  0  0  0  0  0
   -6.5185   -0.3240    0.0766 C   0  0  0  0  0  0  0  0  0  0  0  0
   -5.8398   -0.4306    1.2274 N   0  0  0  0  0  0  0  0  0  0  0  0
   -4.5404   -0.6328    1.1288 C   0  0  0  0  0  0  0  0  0  0  0  0
    2.9142   -2.4292    1.0090 C   0  0  0  0  0  0  0  0  0  0  0  0
    3.8234   -3.4682    0.9997 C   0  0  0  0  0  0  0  0  0  0  0  0
    4.7392   -3.5318   -0.0400 C   0  0  0  0  0  0  0  0  0  0  0  0
    4.7443   -2.5745   -1.0443 C   0  0  0  0  0  0  0  0  0  0  0  0
    3.8178   -1.5528   -0.9838 C   0  0  0  0  0  0  0  0  0  0  0  0
    2.9741    4.0185    0.2454 C   0  0  0  0  0  0  0  0  0  0  0  0
   -7.8455   -0.1366    0.1585 N   0  0  0  0  0  0  0  0  0  0  0  0
    3.7272    3.9611   -1.0828 C   0  0  0  0  0  0  0  0  0  0  0  0
    2.0334   -2.3514    2.0139 F   0  0  0  0  0  0  0  0  0  0  0  0
    3.8061   -0.6375   -1.9574 F   0  0  0  0  0  0  0  0  0  0  0  0
    0.0657    4.7950    0.2108 H   0  0  0  0  0  0  0  0  0  0  0  0
    0.1869   -1.6359   -0.0938 H   0  0  0  0  0  0  0  0  0  0  0  0
   -2.2343    1.1884   -0.1080 H   0  0  0  0  0  0  0  0  0  0  0  0
   -2.1339   -1.3947   -1.1343 H   0  0  0  0  0  0  0  0  0  0  0  0
   -2.0602   -1.6218    0.6075 H   0  0  0  0  0  0  0  0  0  0  0  0
   -4.2493   -0.6914   -2.2020 H   0  0  0  0  0  0  0  0  0  0  0  0
   -3.9935   -0.7229    2.0635 H   0  0  0  0  0  0  0  0  0  0  0  0
    3.8158   -4.2061    1.7900 H   0  0  0  0  0  0  0  0  0  0  0  0
    5.4583   -4.3384   -0.0685 H   0  0  0  0  0  0  0  0  0  0  0  0
    5.4501   -2.6213   -1.8622 H   0  0  0  0  0  0  0  0  0  0  0  0
    2.7787    5.0593    0.5121 H   0  0  0  0  0  0  0  0  0  0  0  0
    3.6122    3.6157    1.0361 H   0  0  0  0  0  0  0  0  0  0  0  0
   -8.3633    0.0961   -0.6706 H   0  0  0  0  0  0  0  0  0  0  0  0
   -8.2606    0.0841    1.0466 H   0  0  0  0  0  0  0  0  0  0  0  0
    4.6709    4.5048   -1.0198 H   0  0  0  0  0  0  0  0  0  0  0  0
    3.9517    2.9305   -1.3595 H   0  0  0  0  0  0  0  0  0  0  0  0
    3.1387    4.4035   -1.8874 H   0  0  0  0  0  0  0  0  0  0  0  0
 25 16  1  0
 17 16  2  0
 17 18  1  0
 16 15  1  0
 18 13  2  0
 15 14  2  0
 13 14  1  0
 13 12  1  0
  4  5  2  0
  4  3  1  0
  5  1  1  0
 10 12  1  0
 10  9  1  0
  3  9  1  0
  3  2  1  0
  9  8  2  0
  1  2  2  0
  1 24  1  0
 26 24  1  0
  2  6  1  0
 28 23  1  0
  8  7  1  0
  6  7  2  0
  7 11  1  0
 23 11  1  0
 23 22  2  0
 11 19  2  0
 22 21  1  0
 19 27  1  0
 19 20  1  0
 21 20  2  0
  5 29  1  0
  8 30  1  0
 10 31  1  0
 12 32  1  0
 12 33  1  0
 14 34  1  0
 18 35  1  0
 20 36  1  0
 21 37  1  0
 22 38  1  0
 24 39  1  0
 24 40  1  0
 25 41  1  0
 25 42  1  0
 26 43  1  0
 26 44  1  0
 26 45  1  0
M  END
