
     RDKit          3D

 55 57  0  0  0  0  0  0  0  0999 V2000
   -6.5355    1.5681   -0.2228 Br  0  0  0  0  0  0  0  0  0  0  0  0
   -4.9860    0.5357    0.1059 C   0  0  0  0  0  0  0  0  0  0  0  0
   -4.7596   -0.6124   -0.6387 C   0  0  0  0  0  0  0  0  0  0  0  0
   -3.6210   -1.3642   -0.3858 C   0  0  0  0  0  0  0  0  0  0  0  0
   -2.7075   -0.9922    0.5975 C   0  0  0  0  0  0  0  0  0  0  0  0
   -2.9634    0.1662    1.3258 C   0  0  0  0  0  0  0  0  0  0  0  0
   -4.0955    0.9345    1.0908 C   0  0  0  0  0  0  0  0  0  0  0  0
   -1.4564   -1.7889    0.8256 C   0  0  0  0  0  0  0  0  0  0  0  0
   -0.3185   -1.3246   -0.0889 C   0  0  0  0  0  0  0  0  0  0  0  0
    0.8547   -2.1616    0.0640 N   0  0  0  0  0  0  0  0  0  0  0  0
    0.7901   -3.3794   -0.7232 C   0  0  0  0  0  0  0  0  0  0  0  0
    1.4736   -4.5805   -0.0692 C   0  0  1  0  0  0  0  0  0  0  0  0
    0.8268   -4.9292    1.2648 C   0  0  0  0  0  0  0  0  0  0  0  0
    1.4501   -5.7664   -1.0277 C   0  0  0  0  0  0  0  0  0  0  0  0
    2.1330   -1.4757   -0.0324 C   0  0  1  0  0  0  0  0  0  0  0  0
    2.3373   -0.6410   -1.2990 C   0  0  0  0  0  0  0  0  0  0  0  0
    3.7147    0.0020   -1.3167 C   0  0  0  0  0  0  0  0  0  0  0  0
    3.9201    0.8004   -0.1172 N   0  0  0  0  0  0  0  0  0  0  0  0
    3.7680    0.0451    1.1222 C   0  0  0  0  0  0  0  0  0  0  0  0
    2.3981   -0.6088    1.1927 C   0  0  0  0  0  0  0  0  0  0  0  0
    4.9501    1.7010   -0.1853 C   0  0  0  0  0  0  0  0  0  0  0  0
    5.2942    2.5275    0.8464 N   0  0  0  0  0  0  0  0  0  0  0  0
    6.2872    3.3153    0.3510 C   0  0  0  0  0  0  0  0  0  0  0  0
    6.9488    4.2373    1.1190 N   0  0  0  0  0  0  0  0  0  0  0  0
    6.5349    3.0003   -0.8829 N   0  0  0  0  0  0  0  0  0  0  0  0
    5.6961    1.9573   -1.2184 N   0  0  0  0  0  0  0  0  0  0  0  0
   -5.4548   -0.9295   -1.4046 H   0  0  0  0  0  0  0  0  0  0  0  0
   -3.4504   -2.2634   -0.9660 H   0  0  0  0  0  0  0  0  0  0  0  0
   -2.2711    0.4801    2.0982 H   0  0  0  0  0  0  0  0  0  0  0  0
   -4.2696    1.8281    1.6752 H   0  0  0  0  0  0  0  0  0  0  0  0
   -1.1277   -1.6949    1.8625 H   0  0  0  0  0  0  0  0  0  0  0  0
   -1.6567   -2.8494    0.6511 H   0  0  0  0  0  0  0  0  0  0  0  0
   -0.6768   -1.2921   -1.1298 H   0  0  0  0  0  0  0  0  0  0  0  0
   -0.0729   -0.2927    0.1715 H   0  0  0  0  0  0  0  0  0  0  0  0
   -0.2624   -3.6380   -0.8761 H   0  0  0  0  0  0  0  0  0  0  0  0
    1.2038   -3.2321   -1.7344 H   0  0  0  0  0  0  0  0  0  0  0  0
    2.5236   -4.3279    0.1183 H   0  0  0  0  0  0  0  0  0  0  0  0
   -0.2194   -5.2171    1.1285 H   0  0  0  0  0  0  0  0  0  0  0  0
    1.3390   -5.7648    1.7455 H   0  0  0  0  0  0  0  0  0  0  0  0
    0.8511   -4.0786    1.9448 H   0  0  0  0  0  0  0  0  0  0  0  0
    1.9405   -5.5245   -1.9728 H   0  0  0  0  0  0  0  0  0  0  0  0
    1.9605   -6.6317   -0.6024 H   0  0  0  0  0  0  0  0  0  0  0  0
    0.4248   -6.0683   -1.2554 H   0  0  0  0  0  0  0  0  0  0  0  0
    2.9036   -2.2570   -0.0332 H   0  0  0  0  0  0  0  0  0  0  0  0
    2.2368   -1.2639   -2.1916 H   0  0  0  0  0  0  0  0  0  0  0  0
    1.5766    0.1431   -1.3650 H   0  0  0  0  0  0  0  0  0  0  0  0
    4.4891   -0.7746   -1.4034 H   0  0  0  0  0  0  0  0  0  0  0  0
    3.8137    0.6488   -2.1873 H   0  0  0  0  0  0  0  0  0  0  0  0
    4.5521   -0.7218    1.2037 H   0  0  0  0  0  0  0  0  0  0  0  0
    3.8798    0.7097    1.9789 H   0  0  0  0  0  0  0  0  0  0  0  0
    1.6380    0.1726    1.2854 H   0  0  0  0  0  0  0  0  0  0  0  0
    2.3449   -1.2218    2.0946 H   0  0  0  0  0  0  0  0  0  0  0  0
    4.8937    2.5755    1.7694 H   0  0  0  0  0  0  0  0  0  0  0  0
    6.3560    4.7807    1.7291 H   0  0  0  0  0  0  0  0  0  0  0  0
    7.5389    4.8423    0.5680 H   0  0  0  0  0  0  0  0  0  0  0  0
 24 23  1  0
 23 22  1  0
 23 25  2  0
 22 21  1  0
 25 26  1  0
 21 26  2  0
 21 18  1  0
 17 18  1  0
 17 16  1  0
 18 19  1  0
  3  4  1  0
  3  2  2  0
  4  5  2  0
 16 15  1  0
  1  2  1  0
  2  7  1  0
 19 20  1  0
  5  8  1  0
  5  6  1  0
  8  9  1  0
 15 20  1  0
 15 10  1  0
  7  6  2  0
  9 10  1  0
 10 11  1  0
 11 12  1  0
 12 14  1  0
 12 13  1  0
  3 27  1  0
  4 28  1  0
  6 29  1  0
  7 30  1  0
  8 31  1  0
  8 32  1  0
  9 33  1  0
  9 34  1  0
 11 35  1  0
 11 36  1  0
 12 37  1  1
 13 38  1  0
 13 39  1  0
 13 40  1  0
 14 41  1  0
 14 42  1  0
 14 43  1  0
 15 44  1  6
 16 45  1  0
 16 46  1  0
 17 47  1  0
 17 48  1  0
 19 49  1  0
 19 50  1  0
 20 51  1  0
 20 52  1  0
 22 53  1  0
 24 54  1  0
 24 55  1  0
M  END
