
     RDKit          3D

 59 61  0  0  0  0  0  0  0  0999 V2000
    9.1849   -2.6868   -0.5245 C   0  0  0  0  0  0  0  0  0  0  0  0
    2.4726   -1.9692   -1.9939 N   0  0  0  0  0  0  0  0  0  0  0  0
   -2.3209    0.0735    1.1157 O   0  0  0  0  0  0  0  0  0  0  0  0
    7.9460    0.7597    1.4185 O   0  0  0  0  0  0  0  0  0  0  0  0
   -4.2408   -1.6244   -0.4048 O   0  0  0  0  0  0  0  0  0  0  0  0
   -5.2696   -0.0366   -2.0469 O   0  0  0  0  0  0  0  0  0  0  0  0
    3.0195   -1.1215   -1.4329 C   0  0  0  0  0  0  0  0  0  0  0  0
   -9.2101   -1.6233    0.9910 C   0  0  0  0  0  0  0  0  0  0  0  0
   -8.0974   -1.9966    1.7339 C   0  0  0  0  0  0  0  0  0  0  0  0
   -9.1249   -0.5564    0.1058 C   0  0  0  0  0  0  0  0  0  0  0  0
   -6.9023   -1.3071    1.5905 C   0  0  0  0  0  0  0  0  0  0  0  0
   -7.9298    0.1333   -0.0378 C   0  0  0  0  0  0  0  0  0  0  0  0
    5.0605   -0.4189   -0.4018 C   0  0  0  0  0  0  0  0  0  0  0  0
    8.9870   -1.4195    0.2704 C   0  0  0  0  0  0  0  0  0  0  0  0
   -0.1149    0.4824   -1.3110 C   0  0  0  0  0  0  0  0  0  0  0  0
   -0.0995    1.8084    0.8348 C   0  0  0  0  0  0  0  0  0  0  0  0
    1.1895    1.1833   -1.6574 C   0  0  0  0  0  0  0  0  0  0  0  0
    1.2182    2.4395    0.3959 C   0  0  0  0  0  0  0  0  0  0  0  0
   -5.5198    0.4999    0.5400 C   0  0  0  0  0  0  0  0  0  0  0  0
    3.8488    1.7248    0.7701 N   0  0  0  0  0  0  0  0  0  0  0  0
   -3.1863    0.6501   -0.8898 N   0  0  0  0  0  0  0  0  0  0  0  0
    7.6159   -1.0217    0.1212 O   0  0  0  0  0  0  0  0  0  0  0  0
   -2.1877    0.6446    0.0580 C   0  0  0  0  0  0  0  0  0  0  0  0
    7.2139    0.0838    0.7340 C   0  0  0  0  0  0  0  0  0  0  0  0
    5.0950    1.4389    1.0882 C   0  0  0  0  0  0  0  0  0  0  0  0
   -6.8136   -0.2342    0.7083 C   0  0  0  0  0  0  0  0  0  0  0  0
    3.7365   -0.1385   -0.7023 C   0  0  0  0  0  0  0  0  0  0  0  0
    5.7923    0.3782    0.4661 C   0  0  0  0  0  0  0  0  0  0  0  0
    3.1568    1.0364   -0.1432 C   0  0  0  0  0  0  0  0  0  0  0  0
   -0.9354    1.3768   -0.3664 C   0  0  2  0  0  0  0  0  0  0  0  0
    1.9411    1.5110   -0.4609 N   0  0  0  0  0  0  0  0  0  0  0  0
   -4.5875   -0.2710   -0.7871 S   0  0  1  0  0  0  0  0  0  0  0  0
    8.9738   -2.5347   -1.5829 H   0  0  0  0  0  0  0  0  0  0  0  0
   10.2225   -3.0064   -0.4332 H   0  0  0  0  0  0  0  0  0  0  0  0
    8.5533   -3.4949   -0.1555 H   0  0  0  0  0  0  0  0  0  0  0  0
    6.1092    1.7375    2.9644 H   0  0  0  0  0  0  0  0  0  0  0  0
    6.5016    2.9236    1.7389 H   0  0  0  0  0  0  0  0  0  0  0  0
    4.9218    2.9802    2.5319 H   0  0  0  0  0  0  0  0  0  0  0  0
  -10.1426   -2.1607    1.1043 H   0  0  0  0  0  0  0  0  0  0  0  0
   -8.1595   -2.8257    2.4262 H   0  0  0  0  0  0  0  0  0  0  0  0
   -9.9893   -0.2617   -0.4746 H   0  0  0  0  0  0  0  0  0  0  0  0
   -6.0395   -1.5971    2.1774 H   0  0  0  0  0  0  0  0  0  0  0  0
   -7.8675    0.9670   -0.7256 H   0  0  0  0  0  0  0  0  0  0  0  0
    5.5066   -1.2987   -0.8435 H   0  0  0  0  0  0  0  0  0  0  0  0
    9.2098   -1.5828    1.3267 H   0  0  0  0  0  0  0  0  0  0  0  0
    9.6410   -0.6238   -0.0917 H   0  0  0  0  0  0  0  0  0  0  0  0
   -0.6640    0.2814   -2.2322 H   0  0  0  0  0  0  0  0  0  0  0  0
    0.0941   -0.4801   -0.8369 H   0  0  0  0  0  0  0  0  0  0  0  0
    0.1138    0.9512    1.4768 H   0  0  0  0  0  0  0  0  0  0  0  0
   -0.6503    2.5337    1.4372 H   0  0  0  0  0  0  0  0  0  0  0  0
    1.7808    0.6027   -2.3575 H   0  0  0  0  0  0  0  0  0  0  0  0
    0.9647    2.1279   -2.1645 H   0  0  0  0  0  0  0  0  0  0  0  0
    1.0332    3.3625   -0.1627 H   0  0  0  0  0  0  0  0  0  0  0  0
    1.8240    2.6944    1.2592 H   0  0  0  0  0  0  0  0  0  0  0  0
   -5.6625    1.5414    0.2505 H   0  0  0  0  0  0  0  0  0  0  0  0
   -4.8970    0.4588    1.4329 H   0  0  0  0  0  0  0  0  0  0  0  0
   -3.0960    1.2094   -1.7302 H   0  0  0  0  0  0  0  0  0  0  0  0
   -1.2313    2.2711   -0.9278 H   0  0  0  0  0  0  0  0  0  0  0  0
    5.6912    2.3178    2.1432 C   0  0  0  0  0  0  0  0  0  0  0  0
  9  8  2  0
  9 11  1  0
  8 10  1  0
 11 26  2  0
 10 12  2  0
 26 12  1  0
 26 19  1  0
 19 32  1  0
  5 32  2  0
 32  6  2  0
 32 21  1  6
 21 23  1  0
 23  3  2  0
 23 30  1  0
 30 16  1  0
 30 15  1  0
 16 18  1  0
 18 31  1  0
 15 17  1  0
 17 31  1  0
 31 29  1  0
  2  7  3  0
  7 27  1  0
 29 27  1  0
 29 20  2  0
 27 13  2  0
 20 25  1  0
 13 28  1  0
 25 28  2  0
 25 59  1  0
 28 24  1  0
 24 22  1  0
 24  4  2  0
 14 22  1  0
 14  1  1  0
  1 33  1  0
  1 34  1  0
  1 35  1  0
 59 36  1  0
 59 37  1  0
 59 38  1  0
  8 39  1  0
  9 40  1  0
 10 41  1  0
 11 42  1  0
 12 43  1  0
 13 44  1  0
 14 45  1  0
 14 46  1  0
 15 47  1  0
 15 48  1  0
 16 49  1  0
 16 50  1  0
 17 51  1  0
 17 52  1  0
 18 53  1  0
 18 54  1  0
 19 55  1  0
 19 56  1  0
 21 57  1  0
 30 58  1  6
M  END
