
     RDKit          3D

 16 17  0  0  0  0  0  0  0  0999 V2000
   -2.4021    0.7041   -0.0324 C   0  0  0  0  0  0  0  0  0  0  0  0
   -2.3810   -0.7081   -0.0217 C   0  0  0  0  0  0  0  0  0  0  0  0
   -1.1990   -1.3996    0.0003 C   0  0  0  0  0  0  0  0  0  0  0  0
    0.0219   -0.6925    0.0125 C   0  0  0  0  0  0  0  0  0  0  0  0
    1.1988   -1.3639    0.0336 N   0  0  0  0  0  0  0  0  0  0  0  0
    2.2883   -0.6517    0.0440 C   0  0  0  0  0  0  0  0  0  0  0  0
    2.3807    0.6963    0.0360 N   0  0  0  0  0  0  0  0  0  0  0  0
    1.2551    1.3579    0.0155 C   0  0  0  0  0  0  0  0  0  0  0  0
   -0.0022    0.7193    0.0022 C   0  0  0  0  0  0  0  0  0  0  0  0
   -1.2310    1.4110   -0.0205 C   0  0  0  0  0  0  0  0  0  0  0  0
   -3.3515    1.2219   -0.0505 H   0  0  0  0  0  0  0  0  0  0  0  0
   -3.3179   -1.2496   -0.0318 H   0  0  0  0  0  0  0  0  0  0  0  0
   -1.1801   -2.4814    0.0078 H   0  0  0  0  0  0  0  0  0  0  0  0
    3.2310   -1.1879    0.0613 H   0  0  0  0  0  0  0  0  0  0  0  0
    1.3084    2.4430    0.0088 H   0  0  0  0  0  0  0  0  0  0  0  0
   -1.2340    2.4939   -0.0283 H   0  0  0  0  0  0  0  0  0  0  0  0
  1  2  2  0
  1 10  1  0
  2  3  1  0
  3  4  2  0
  4  5  1  0
  4  9  1  0
  5  6  2  0
  6  7  1  0
  7  8  2  0
  8  9  1  0
  9 10  2  0
  1 11  1  0
  2 12  1  0
  3 13  1  0
  6 14  1  0
  8 15  1  0
 10 16  1  0
M  END
