
     RDKit          3D

 67 71  0  0  0  0  0  0  0  0999 V2000
    6.8899    4.0139   -0.9394 C   0  0  0  0  0  0  0  0  0  0  0  0
    6.0369    1.7257    0.4500 C   0  0  0  0  0  0  0  0  0  0  0  0
    6.1297    2.5499    1.5709 C   0  0  0  0  0  0  0  0  0  0  0  0
    5.7574    2.0832    2.8224 C   0  0  0  0  0  0  0  0  0  0  0  0
    5.2960    0.7843    2.9694 C   0  0  0  0  0  0  0  0  0  0  0  0
    5.2014   -0.0344    1.8540 C   0  0  0  0  0  0  0  0  0  0  0  0
    5.5546    0.4159    0.5883 C   0  0  0  0  0  0  0  0  0  0  0  0
    6.3036   -2.6470   -1.3716 C   0  0  0  0  0  0  0  0  0  0  0  0
    4.9886   -2.8892   -0.6451 C   0  0  0  0  0  0  0  0  0  0  0  0
    4.4549   -1.5387   -0.4910 N   0  0  0  0  0  0  0  0  0  0  0  0
    2.1642   -2.3450   -0.4095 C   0  0  0  0  0  0  0  0  0  0  0  0
   -0.2473   -2.6202   -0.2358 C   0  0  0  0  0  0  0  0  0  0  0  0
   -2.6981   -2.6788   -0.2551 C   0  0  0  0  0  0  0  0  0  0  0  0
   -4.7109   -1.2282   -0.6971 C   0  0  0  0  0  0  0  0  0  0  0  0
   -5.7534   -0.4047   -0.2933 C   0  0  0  0  0  0  0  0  0  0  0  0
   -7.8258    1.3465    0.5651 C   0  0  1  0  0  0  0  0  0  0  0  0
   -5.0535   -0.7242    1.9952 C   0  0  0  0  0  0  0  0  0  0  0  0
   -4.0203   -1.5308    1.5620 C   0  0  0  0  0  0  0  0  0  0  0  0
   -7.2064    2.6861    0.1295 C   0  0  1  0  0  0  0  0  0  0  0  0
   -5.9566    2.4421   -0.7087 C   0  0  0  0  0  0  0  0  0  0  0  0
    6.5354    2.2621   -1.1597 S   0  0  0  0  0  0  0  0  0  0  0  0
    5.4896   -0.5133   -0.5994 C   0  0  2  0  0  0  0  0  0  0  0  0
    6.7798   -1.3328   -0.7685 C   0  0  0  0  0  0  0  0  0  0  0  0
    2.7882   -0.0312   -0.4703 O   0  0  0  0  0  0  0  0  0  0  0  0
    0.8422   -1.8153   -0.2587 N   0  0  0  0  0  0  0  0  0  0  0  0
   -0.1588   -3.8445   -0.2809 O   0  0  0  0  0  0  0  0  0  0  0  0
   -1.4384   -1.9723   -0.1287 N   0  0  0  0  0  0  0  0  0  0  0  0
   -3.8319   -1.8081    0.2069 C   0  0  0  0  0  0  0  0  0  0  0  0
   -6.6685    0.2541   -1.2911 C   0  0  1  0  0  0  0  0  0  0  0  0
   -8.0362    0.4681   -0.6609 C   0  0  0  0  0  0  0  0  0  0  0  0
   -6.9791    0.6380    1.4961 N   0  0  0  0  0  0  0  0  0  0  0  0
   -5.9403   -0.1453    1.0740 C   0  0  0  0  0  0  0  0  0  0  0  0
   -8.2106    3.3777   -0.5792 O   0  0  0  0  0  0  0  0  0  0  0  0
   -6.1487    1.5018   -1.7430 O   0  0  0  0  0  0  0  0  0  0  0  0
    7.7335    4.1797   -0.2726 H   0  0  0  0  0  0  0  0  0  0  0  0
    7.1527    4.3861   -1.9277 H   0  0  0  0  0  0  0  0  0  0  0  0
    6.0178    4.5587   -0.5829 H   0  0  0  0  0  0  0  0  0  0  0  0
    6.4935    3.5639    1.4818 H   0  0  0  0  0  0  0  0  0  0  0  0
    5.8359    2.7395    3.6792 H   0  0  0  0  0  0  0  0  0  0  0  0
    5.0110    0.4084    3.9429 H   0  0  0  0  0  0  0  0  0  0  0  0
    4.8375   -1.0480    1.9731 H   0  0  0  0  0  0  0  0  0  0  0  0
    7.0120   -3.4623   -1.2320 H   0  0  0  0  0  0  0  0  0  0  0  0
    6.1215   -2.5359   -2.4424 H   0  0  0  0  0  0  0  0  0  0  0  0
    4.3115   -3.5259   -1.2123 H   0  0  0  0  0  0  0  0  0  0  0  0
    5.1554   -3.3540    0.3311 H   0  0  0  0  0  0  0  0  0  0  0  0
    2.2561   -2.9358   -1.3286 H   0  0  0  0  0  0  0  0  0  0  0  0
    2.4250   -3.0187    0.4135 H   0  0  0  0  0  0  0  0  0  0  0  0
   -2.8786   -2.9965   -1.2879 H   0  0  0  0  0  0  0  0  0  0  0  0
   -2.6494   -3.5853    0.3498 H   0  0  0  0  0  0  0  0  0  0  0  0
   -8.7762    1.5476    1.0643 H   0  0  0  0  0  0  0  0  0  0  0  0
   -5.1827   -0.5319    3.0541 H   0  0  0  0  0  0  0  0  0  0  0  0
   -3.3481   -1.9623    2.2952 H   0  0  0  0  0  0  0  0  0  0  0  0
   -6.9005    3.2447    1.0262 H   0  0  0  0  0  0  0  0  0  0  0  0
   -5.6424    3.3738   -1.1873 H   0  0  0  0  0  0  0  0  0  0  0  0
   -5.1338    2.1428   -0.0462 H   0  0  0  0  0  0  0  0  0  0  0  0
    5.2990    0.0708   -1.5066 H   0  0  0  0  0  0  0  0  0  0  0  0
    7.2327   -1.5120    0.2090 H   0  0  0  0  0  0  0  0  0  0  0  0
    7.5102   -0.8081   -1.3826 H   0  0  0  0  0  0  0  0  0  0  0  0
    0.7512   -0.8113   -0.2571 H   0  0  0  0  0  0  0  0  0  0  0  0
   -1.4640   -0.9781   -0.2925 H   0  0  0  0  0  0  0  0  0  0  0  0
   -6.7448   -0.3669   -2.1865 H   0  0  0  0  0  0  0  0  0  0  0  0
   -8.4786   -0.4887   -0.3738 H   0  0  0  0  0  0  0  0  0  0  0  0
   -8.7161    0.9469   -1.3656 H   0  0  0  0  0  0  0  0  0  0  0  0
   -6.9461    0.9799    2.4423 H   0  0  0  0  0  0  0  0  0  0  0  0
   -7.8494    4.2139   -0.8894 H   0  0  0  0  0  0  0  0  0  0  0  0
    3.1587   -1.1976   -0.4618 C   0  0  0  0  0  0  0  0  0  0  0  0
   -4.5880   -1.4228   -1.7584 H   0  0  0  0  0  0  0  0  0  0  0  0
  1 21  1  0
 21  2  1  0
 26 12  2  0
  2  3  2  0
  2  7  1  0
 13 27  1  0
 13 28  1  0
 12 27  1  0
 12 25  1  0
  3  4  1  0
 23 22  1  0
 23  8  1  0
 22  7  1  0
 22 10  1  0
 11 25  1  0
 11 66  1  0
 14 28  2  0
 14 15  1  0
  7  6  2  0
 28 18  1  0
 10 66  1  0
 10  9  1  0
 29 15  1  0
 29 30  1  0
 29 34  1  0
  4  5  2  0
 66 24  2  0
 15 32  2  0
  8  9  1  0
 18 17  2  0
 30 16  1  0
  6  5  1  0
 34 20  1  0
 32 17  1  0
 32 31  1  0
 16 31  1  0
 16 19  1  0
 20 19  1  0
 19 33  1  0
  1 35  1  0
  1 36  1  0
  1 37  1  0
  3 38  1  0
  4 39  1  0
  5 40  1  0
  6 41  1  0
  8 42  1  0
  8 43  1  0
  9 44  1  0
  9 45  1  0
 11 46  1  0
 11 47  1  0
 13 48  1  0
 13 49  1  0
 14 67  1  0
 16 50  1  1
 17 51  1  0
 18 52  1  0
 19 53  1  1
 20 54  1  0
 20 55  1  0
 22 56  1  6
 23 57  1  0
 23 58  1  0
 25 59  1  0
 27 60  1  0
 29 61  1  6
 30 62  1  0
 30 63  1  0
 31 64  1  0
 33 65  1  0
M  END
