
     RDKit          3D

 76 80  0  0  0  0  0  0  0  0999 V2000
   -1.1689    4.8832    1.3483 C   0  0  0  0  0  0  0  0  0  0  0  0
   -0.7482    3.7791    2.2810 C   0  0  0  0  0  0  0  0  0  0  0  0
   -1.2356    2.4132    1.8123 C   0  0  0  0  0  0  0  0  0  0  0  0
   -0.8315    2.1406    0.3871 C   0  0  0  0  0  0  0  0  0  0  0  0
   -0.4176    0.9434   -0.0829 C   0  0  0  0  0  0  0  0  0  0  0  0
   -0.3781   -0.2861    0.8051 C   0  0  2  0  0  0  0  0  0  0  0  0
   -3.0092   -2.9889    1.4283 C   0  0  0  0  0  0  0  0  0  0  0  0
   -4.1262   -2.5622    0.6867 C   0  0  0  0  0  0  0  0  0  0  0  0
   -5.3033   -3.2728    0.6792 N   0  0  0  0  0  0  0  0  0  0  0  0
   -5.3253   -4.6049    1.2363 C   0  0  0  0  0  0  0  0  0  0  0  0
   -3.9781   -1.3655   -0.0321 C   0  0  0  0  0  0  0  0  0  0  0  0
   -2.7930   -0.6457    0.0026 C   0  0  0  0  0  0  0  0  0  0  0  0
    0.8971   -1.1327    0.5891 C   0  0  0  0  0  0  0  0  0  0  0  0
    1.2092   -1.3959   -0.8759 C   0  0  1  0  0  0  0  0  0  0  0  0
    1.2720   -0.0502   -1.5967 C   0  0  2  0  0  0  0  0  0  0  0  0
    2.7992   -1.5750   -2.6990 C   0  0  0  0  0  0  0  0  0  0  0  0
    2.6365   -1.9280   -1.1900 C   0  0  1  0  0  0  0  0  0  0  0  0
    5.4718    0.1545    0.9960 C   0  0  1  0  0  0  0  0  0  0  0  0
    5.2558    1.6470    0.7127 C   0  0  0  0  0  0  0  0  0  0  0  0
   -0.0271    0.7386   -1.5358 C   0  0  2  0  0  0  0  0  0  0  0  0
    0.1049    2.0469   -2.3029 C   0  0  0  0  0  0  0  0  0  0  0  0
   -1.0496    2.9769   -1.9804 C   0  0  0  0  0  0  0  0  0  0  0  0
   -1.0389    3.2732   -0.5172 C   0  0  0  0  0  0  0  0  0  0  0  0
   -1.2564    4.5260   -0.0609 C   0  0  0  0  0  0  0  0  0  0  0  0
   -1.3734    6.0214    1.7383 O   0  0  0  0  0  0  0  0  0  0  0  0
   -1.6837   -1.0718    0.7243 C   0  0  0  0  0  0  0  0  0  0  0  0
   -1.8355   -2.2565    1.4423 C   0  0  0  0  0  0  0  0  0  0  0  0
   -6.3234   -2.9268   -0.2823 C   0  0  0  0  0  0  0  0  0  0  0  0
    0.1842   -2.3581   -1.4913 C   0  0  0  0  0  0  0  0  0  0  0  0
    1.8519   -0.3858   -2.9708 C   0  0  0  0  0  0  0  0  0  0  0  0
    3.6536   -1.2082   -0.4076 C   0  0  0  0  0  0  0  0  0  0  0  0
    4.4941   -0.6115    0.2158 C   0  0  0  0  0  0  0  0  0  0  0  0
    6.8920   -0.2538    0.5878 C   0  0  0  0  0  0  0  0  0  0  0  0
    5.2549   -0.1290    2.4877 C   0  0  0  0  0  0  0  0  0  0  0  0
    2.7134   -3.3059   -0.9132 O   0  0  0  0  0  0  0  0  0  0  0  0
    0.3475    3.7847    2.3173 H   0  0  0  0  0  0  0  0  0  0  0  0
   -1.0993    3.9952    3.2908 H   0  0  0  0  0  0  0  0  0  0  0  0
   -0.8652    1.6551    2.4989 H   0  0  0  0  0  0  0  0  0  0  0  0
   -2.3289    2.3806    1.8783 H   0  0  0  0  0  0  0  0  0  0  0  0
   -0.3063    0.0497    1.8415 H   0  0  0  0  0  0  0  0  0  0  0  0
   -3.0461   -3.9015    2.0068 H   0  0  0  0  0  0  0  0  0  0  0  0
   -5.0565   -4.6005    2.2939 H   0  0  0  0  0  0  0  0  0  0  0  0
   -6.3338   -5.0048    1.1657 H   0  0  0  0  0  0  0  0  0  0  0  0
   -4.6506   -5.2998    0.7224 H   0  0  0  0  0  0  0  0  0  0  0  0
   -4.7890   -0.9735   -0.6298 H   0  0  0  0  0  0  0  0  0  0  0  0
   -2.7519    0.2745   -0.5678 H   0  0  0  0  0  0  0  0  0  0  0  0
    1.7270   -0.5758    1.0318 H   0  0  0  0  0  0  0  0  0  0  0  0
    0.8256   -2.0659    1.1527 H   0  0  0  0  0  0  0  0  0  0  0  0
    2.0200    0.5570   -1.0677 H   0  0  0  0  0  0  0  0  0  0  0  0
    3.8363   -1.3394   -2.9377 H   0  0  0  0  0  0  0  0  0  0  0  0
    2.5247   -2.4456   -3.2969 H   0  0  0  0  0  0  0  0  0  0  0  0
    4.2452    1.9567    0.9823 H   0  0  0  0  0  0  0  0  0  0  0  0
    5.9612    2.2452    1.2921 H   0  0  0  0  0  0  0  0  0  0  0  0
    5.4081    1.8725   -0.3433 H   0  0  0  0  0  0  0  0  0  0  0  0
   -0.8192    0.1474   -2.0174 H   0  0  0  0  0  0  0  0  0  0  0  0
    1.0492    2.5335   -2.0378 H   0  0  0  0  0  0  0  0  0  0  0  0
    0.1412    1.8460   -3.3750 H   0  0  0  0  0  0  0  0  0  0  0  0
   -0.9989    3.8979   -2.5624 H   0  0  0  0  0  0  0  0  0  0  0  0
   -1.9959    2.4870   -2.2385 H   0  0  0  0  0  0  0  0  0  0  0  0
   -1.4628    5.3266   -0.7633 H   0  0  0  0  0  0  0  0  0  0  0  0
   -1.0140   -2.6349    2.0389 H   0  0  0  0  0  0  0  0  0  0  0  0
   -5.9936   -3.0455   -1.3214 H   0  0  0  0  0  0  0  0  0  0  0  0
   -7.1896   -3.5658   -0.1306 H   0  0  0  0  0  0  0  0  0  0  0  0
   -6.6600   -1.8963   -0.1547 H   0  0  0  0  0  0  0  0  0  0  0  0
   -0.8128   -1.9237   -1.5184 H   0  0  0  0  0  0  0  0  0  0  0  0
    0.4373   -2.6528   -2.5099 H   0  0  0  0  0  0  0  0  0  0  0  0
    0.1087   -3.2670   -0.8949 H   0  0  0  0  0  0  0  0  0  0  0  0
    1.0581   -0.6672   -3.6675 H   0  0  0  0  0  0  0  0  0  0  0  0
    2.3729    0.4634   -3.4130 H   0  0  0  0  0  0  0  0  0  0  0  0
    7.0678   -0.0616   -0.4712 H   0  0  0  0  0  0  0  0  0  0  0  0
    7.6251    0.3162    1.1614 H   0  0  0  0  0  0  0  0  0  0  0  0
    7.0664   -1.3137    0.7756 H   0  0  0  0  0  0  0  0  0  0  0  0
    5.4026   -1.1858    2.7129 H   0  0  0  0  0  0  0  0  0  0  0  0
    5.9629    0.4462    3.0871 H   0  0  0  0  0  0  0  0  0  0  0  0
    4.2457    0.1457    2.7974 H   0  0  0  0  0  0  0  0  0  0  0  0
    3.5899   -3.6203   -1.1590 H   0  0  0  0  0  0  0  0  0  0  0  0
 25  1  2  0
 24  1  1  0
 24 23  2  0
  1  2  1  0
 22 23  1  0
 22 21  1  0
 23  4  1  0
 21 20  1  0
  2  3  1  0
  4  3  1  0
  4  5  2  0
 19 18  1  0
 20  5  1  0
 20 15  1  0
  5  6  1  0
 30 15  1  0
 30 16  1  0
 34 18  1  0
 15 14  1  0
 18 32  1  6
 18 33  1  0
 32 31  3  0
 16 17  1  0
  6 13  1  0
  6 26  1  0
 17 31  1  1
 14 13  1  0
 14 17  1  0
 14 29  1  6
 17 35  1  0
 12 26  2  0
 12 11  1  0
 26 27  1  0
 11  8  2  0
 27  7  2  0
  8  7  1  0
  8  9  1  0
  9 10  1  0
  9 28  1  0
  2 36  1  0
  2 37  1  0
  3 38  1  0
  3 39  1  0
  6 40  1  1
  7 41  1  0
 10 42  1  0
 10 43  1  0
 10 44  1  0
 11 45  1  0
 12 46  1  0
 13 47  1  0
 13 48  1  0
 15 49  1  1
 16 50  1  0
 16 51  1  0
 19 52  1  0
 19 53  1  0
 19 54  1  0
 20 55  1  6
 21 56  1  0
 21 57  1  0
 22 58  1  0
 22 59  1  0
 24 60  1  0
 27 61  1  0
 28 62  1  0
 28 63  1  0
 28 64  1  0
 29 65  1  0
 29 66  1  0
 29 67  1  0
 30 68  1  0
 30 69  1  0
 33 70  1  0
 33 71  1  0
 33 72  1  0
 34 73  1  0
 34 74  1  0
 34 75  1  0
 35 76  1  0
M  END
