
     RDKit          3D

 50 54  0  0  0  0  0  0  0  0999 V2000
   -2.7974    3.8233    0.6335 C   0  0  0  0  0  0  0  0  0  0  0  0
   -2.9863    0.2023    0.0527 C   0  0  0  0  0  0  0  0  0  0  0  0
   -2.2068    1.3370    0.1369 C   0  0  0  0  0  0  0  0  0  0  0  0
   -3.1101    2.3814    0.4309 C   0  0  0  0  0  0  0  0  0  0  0  0
   -4.3401    1.9061    0.5191 N   0  0  0  0  0  0  0  0  0  0  0  0
   -4.2526    0.6026    0.2965 N   0  0  0  0  0  0  0  0  0  0  0  0
   -5.4458   -0.2253    0.2996 C   0  0  1  0  0  0  0  0  0  0  0  0
   -5.8780   -0.6157   -1.1113 C   0  0  0  0  0  0  0  0  0  0  0  0
   -7.1216   -1.4924   -1.0462 C   0  0  0  0  0  0  0  0  0  0  0  0
   -6.8586   -2.6652   -0.2328 N   0  0  0  0  0  0  0  0  0  0  0  0
   -6.5374   -2.3051    1.1357 C   0  0  0  0  0  0  0  0  0  0  0  0
   -5.2659   -1.4677    1.1660 C   0  0  0  0  0  0  0  0  0  0  0  0
    0.1067    0.5824   -0.2218 C   0  0  0  0  0  0  0  0  0  0  0  0
   -0.2744   -0.6833   -0.4036 N   0  0  0  0  0  0  0  0  0  0  0  0
    0.6835   -1.5516   -0.6670 C   0  0  0  0  0  0  0  0  0  0  0  0
    2.0176   -1.1905   -0.7307 C   0  0  0  0  0  0  0  0  0  0  0  0
    2.3327    0.1465   -0.4638 C   0  0  0  0  0  0  0  0  0  0  0  0
    1.3684    1.0215   -0.2274 N   0  0  0  0  0  0  0  0  0  0  0  0
    3.6908    0.6723   -0.4856 C   0  0  0  0  0  0  0  0  0  0  0  0
    4.1879    1.7621   -1.1638 C   0  0  0  0  0  0  0  0  0  0  0  0
    5.5096    1.9153   -0.9695 N   0  0  0  0  0  0  0  0  0  0  0  0
    5.8614    0.9412   -0.1433 C   0  0  0  0  0  0  0  0  0  0  0  0
    4.7744    0.1492    0.1842 N   0  0  0  0  0  0  0  0  0  0  0  0
    4.8663   -0.8687    1.0886 C   0  0  0  0  0  0  0  0  0  0  0  0
    6.0716   -1.1582    1.6399 C   0  0  0  0  0  0  0  0  0  0  0  0
    7.2183   -0.4022    1.2946 C   0  0  0  0  0  0  0  0  0  0  0  0
    7.1154    0.6403    0.4210 C   0  0  0  0  0  0  0  0  0  0  0  0
    3.2037   -2.3409   -1.2175 Cl  0  0  0  0  0  0  0  0  0  0  0  0
   -2.3868    4.2795   -0.2695 H   0  0  0  0  0  0  0  0  0  0  0  0
   -3.6969    4.3740    0.9028 H   0  0  0  0  0  0  0  0  0  0  0  0
   -2.0671    3.9701    1.4318 H   0  0  0  0  0  0  0  0  0  0  0  0
   -2.7295   -0.8202   -0.1531 H   0  0  0  0  0  0  0  0  0  0  0  0
   -0.4856    2.4547    0.1436 H   0  0  0  0  0  0  0  0  0  0  0  0
   -6.2229    0.4003    0.7458 H   0  0  0  0  0  0  0  0  0  0  0  0
   -6.0823    0.2785   -1.7039 H   0  0  0  0  0  0  0  0  0  0  0  0
   -5.0720   -1.1667   -1.6045 H   0  0  0  0  0  0  0  0  0  0  0  0
   -4.4348   -2.0707    0.7906 H   0  0  0  0  0  0  0  0  0  0  0  0
   -5.0292   -1.1797    2.1921 H   0  0  0  0  0  0  0  0  0  0  0  0
   -7.9604   -0.8904   -0.6586 H   0  0  0  0  0  0  0  0  0  0  0  0
   -7.4000   -1.8109   -2.0522 H   0  0  0  0  0  0  0  0  0  0  0  0
   -7.6683   -3.2713   -0.2424 H   0  0  0  0  0  0  0  0  0  0  0  0
   -7.3455   -1.7360    1.6243 H   0  0  0  0  0  0  0  0  0  0  0  0
   -6.3914   -3.2152    1.7199 H   0  0  0  0  0  0  0  0  0  0  0  0
    0.3852   -2.5784   -0.8488 H   0  0  0  0  0  0  0  0  0  0  0  0
    3.6231    2.4188   -1.8089 H   0  0  0  0  0  0  0  0  0  0  0  0
    7.9645    1.2539    0.1544 H   0  0  0  0  0  0  0  0  0  0  0  0
    3.9581   -1.3898    1.3486 H   0  0  0  0  0  0  0  0  0  0  0  0
    6.1366   -1.9652    2.3544 H   0  0  0  0  0  0  0  0  0  0  0  0
    8.1723   -0.6448    1.7419 H   0  0  0  0  0  0  0  0  0  0  0  0
   -0.8368    1.5198    0.0035 N   0  0  0  0  0  0  0  0  0  0  0  0
  1  4  1  0
  2  3  2  0
  2  6  1  0
  3  4  1  0
  3 50  1  0
  4  5  2  0
  5  6  1  0
  6  7  1  0
  7  8  1  0
  7 12  1  0
  8  9  1  0
  9 10  1  0
 10 11  1  0
 11 12  1  0
 50 13  1  0
 13 14  2  0
 13 18  1  0
 14 15  1  0
 15 16  2  0
 16 17  1  0
 16 28  1  0
 17 18  2  0
 17 19  1  0
 19 20  2  0
 19 23  1  0
 20 21  1  0
 21 22  2  0
 22 23  1  0
 22 27  1  0
 23 24  1  0
 24 25  2  0
 25 26  1  0
 26 27  2  0
  1 29  1  0
  1 30  1  0
  1 31  1  0
  2 32  1  0
 50 33  1  0
  7 34  1  1
  8 35  1  0
  8 36  1  0
 12 37  1  0
 12 38  1  0
  9 39  1  0
  9 40  1  0
 10 41  1  0
 11 42  1  0
 11 43  1  0
 15 44  1  0
 20 45  1  0
 27 46  1  0
 24 47  1  0
 25 48  1  0
 26 49  1  0
M  END
