
     RDKit          3D

 43 46  0  0  0  0  0  0  0  0999 V2000
   -1.0559    2.6810   -0.6918 C   0  0  0  0  0  0  0  0  0  0  0  0
    1.1589    2.9297    0.1676 C   0  0  0  0  0  0  0  0  0  0  0  0
   -0.5865    2.1062    1.5828 C   0  0  0  0  0  0  0  0  0  0  0  0
    2.8774    0.5667   -0.4082 C   0  0  0  0  0  0  0  0  0  0  0  0
    2.7487   -1.0615    1.3685 C   0  0  0  0  0  0  0  0  0  0  0  0
    1.5890   -1.4170   -0.7036 C   0  0  0  0  0  0  0  0  0  0  0  0
   -5.7585   -3.5113   -0.7902 C   0  0  0  0  0  0  0  0  0  0  0  0
   -6.7322   -2.5353   -0.4833 C   0  0  0  0  0  0  0  0  0  0  0  0
   -6.3592   -1.2699   -0.1235 C   0  0  0  0  0  0  0  0  0  0  0  0
   -4.9893   -0.9252   -0.0547 C   0  0  0  0  0  0  0  0  0  0  0  0
   -4.0120   -1.9039   -0.3655 C   0  0  0  0  0  0  0  0  0  0  0  0
   -4.4272   -3.2045   -0.7334 C   0  0  0  0  0  0  0  0  0  0  0  0
   -4.5464    0.3619    0.3065 C   0  0  0  0  0  0  0  0  0  0  0  0
   -3.2040    0.6050    0.3451 C   0  0  0  0  0  0  0  0  0  0  0  0
   -2.3016   -0.4327    0.0181 C   0  0  0  0  0  0  0  0  0  0  0  0
   -2.6895   -1.6292   -0.3212 N   0  0  0  0  0  0  0  0  0  0  0  0
   -1.4960    2.1997    0.5357 C   0  0  0  0  0  0  0  0  0  0  0  0
    0.2604    3.0623   -0.8827 C   0  0  0  0  0  0  0  0  0  0  0  0
    0.7378    2.4623    1.4072 C   0  0  0  0  0  0  0  0  0  0  0  0
   -1.1243    1.4910    3.0935 Cl  0  0  0  0  0  0  0  0  0  0  0  0
   -2.1848    2.8088   -1.9802 Cl  0  0  0  0  0  0  0  0  0  0  0  0
    2.5258    3.2236   -0.0420 N   0  0  0  0  0  0  0  0  0  0  0  0
    3.3900    2.1635   -0.9971 S   0  0  1  0  0  0  0  0  0  0  0  0
    4.7865    2.3965   -0.7057 O   0  0  0  0  0  0  0  0  0  0  0  0
    2.8953    2.2764   -2.3529 O   0  0  0  0  0  0  0  0  0  0  0  0
    3.2128    0.1354    0.8655 C   0  0  0  0  0  0  0  0  0  0  0  0
    1.9243   -1.8442    0.5738 C   0  0  0  0  0  0  0  0  0  0  0  0
    2.0541   -0.2187   -1.2014 C   0  0  0  0  0  0  0  0  0  0  0  0
    3.9668    0.9104    1.6416 F   0  0  0  0  0  0  0  0  0  0  0  0
    1.2516   -3.4618    1.2130 Br  0  0  0  0  0  0  0  0  0  0  0  0
    0.7941   -2.1672   -1.4598 F   0  0  0  0  0  0  0  0  0  0  0  0
    3.0223   -1.3652    2.3701 H   0  0  0  0  0  0  0  0  0  0  0  0
   -7.7812   -2.7951   -0.5357 H   0  0  0  0  0  0  0  0  0  0  0  0
   -7.1052   -0.5203    0.1100 H   0  0  0  0  0  0  0  0  0  0  0  0
   -3.6696   -3.9416   -0.9673 H   0  0  0  0  0  0  0  0  0  0  0  0
   -5.2601    1.1404    0.5483 H   0  0  0  0  0  0  0  0  0  0  0  0
   -1.2301   -0.2598    0.0401 H   0  0  0  0  0  0  0  0  0  0  0  0
    0.5778    3.4557   -1.8371 H   0  0  0  0  0  0  0  0  0  0  0  0
    1.4373    2.3632    2.2267 H   0  0  0  0  0  0  0  0  0  0  0  0
    3.0399    3.4922    0.7914 H   0  0  0  0  0  0  0  0  0  0  0  0
    1.7689    0.0920   -2.1976 H   0  0  0  0  0  0  0  0  0  0  0  0
   -2.7917    1.8535    0.7225 O   0  0  0  0  0  0  0  0  0  0  0  0
   -6.0738   -4.5065   -1.0742 H   0  0  0  0  0  0  0  0  0  0  0  0
  7 12  2  0
  7  8  1  0
 12 11  1  0
  8  9  2  0
 11 16  2  0
 11 10  1  0
  9 10  1  0
 16 15  1  0
 10 13  2  0
 21  1  1  0
 15 14  2  0
 31  6  1  0
 13 14  1  0
 14 42  1  0
 42 17  1  0
  1 17  2  0
  1 18  1  0
  6 28  2  0
  6 27  1  0
 30 27  1  0
 28  4  1  0
 17  3  1  0
 18  2  2  0
 27  5  2  0
 25 23  2  0
  4 23  1  0
  4 26  2  0
  3 19  2  0
  3 20  1  0
  2 19  1  0
  2 22  1  0
  5 26  1  0
 23 22  1  1
 23 24  2  0
 26 29  1  0
  5 32  1  0
  7 43  1  0
  8 33  1  0
  9 34  1  0
 12 35  1  0
 13 36  1  0
 15 37  1  0
 18 38  1  0
 19 39  1  0
 22 40  1  0
 28 41  1  0
M  END
