
     RDKit          3D

 44 46  0  0  0  0  0  0  0  0999 V2000
    6.1909   -1.7946    1.7112 N   0  0  0  0  0  0  0  0  0  0  0  0
    5.2948   -1.1340    0.9372 C   0  0  0  0  0  0  0  0  0  0  0  0
    4.1111   -0.8731    1.4388 N   0  0  0  0  0  0  0  0  0  0  0  0
    3.2355   -0.1720    0.6814 C   0  0  0  0  0  0  0  0  0  0  0  0
    5.6887   -0.7156   -0.3705 C   0  0  0  0  0  0  0  0  0  0  0  0
    4.8246   -0.0156   -1.1544 C   0  0  0  0  0  0  0  0  0  0  0  0
    5.2151    0.4309   -2.5282 C   0  0  0  0  0  0  0  0  0  0  0  0
    3.5303    0.2836   -0.6250 C   0  0  0  0  0  0  0  0  0  0  0  0
    2.5509    1.0057   -1.3363 C   0  0  0  0  0  0  0  0  0  0  0  0
    1.3270    1.2726   -0.7808 C   0  0  0  0  0  0  0  0  0  0  0  0
    1.0253    0.8222    0.5211 C   0  0  0  0  0  0  0  0  0  0  0  0
    1.9633    0.1117    1.2267 C   0  0  0  0  0  0  0  0  0  0  0  0
   -0.3100    1.1330    1.1262 C   0  0  0  0  0  0  0  0  0  0  0  0
   -1.3031    0.5043    0.3325 O   0  0  0  0  0  0  0  0  0  0  0  0
   -2.6020    0.7187    0.6342 C   0  0  0  0  0  0  0  0  0  0  0  0
   -3.5326    0.1425   -0.2283 C   0  0  0  0  0  0  0  0  0  0  0  0
   -3.0408    1.4595    1.7307 C   0  0  0  0  0  0  0  0  0  0  0  0
   -4.4052    1.6146    1.9399 C   0  0  0  0  0  0  0  0  0  0  0  0
   -5.3309    1.0462    1.0786 C   0  0  0  0  0  0  0  0  0  0  0  0
   -4.8950    0.3062   -0.0181 C   0  0  0  0  0  0  0  0  0  0  0  0
   -5.8794   -0.3176   -0.9711 C   0  0  0  0  0  0  0  0  0  0  0  0
   -5.6902   -1.7524   -1.0623 N   0  0  0  0  0  0  0  0  0  0  0  0
   -6.6123   -2.3713   -1.9929 C   0  0  0  0  0  0  0  0  0  0  0  0
    5.8447   -2.2579    2.5346 H   0  0  0  0  0  0  0  0  0  0  0  0
    6.9873   -2.2262    1.2754 H   0  0  0  0  0  0  0  0  0  0  0  0
    6.6811   -0.9612   -0.7290 H   0  0  0  0  0  0  0  0  0  0  0  0
    4.5545    0.0040   -3.2847 H   0  0  0  0  0  0  0  0  0  0  0  0
    5.1510    1.5161   -2.6245 H   0  0  0  0  0  0  0  0  0  0  0  0
    6.2347    0.1319   -2.7623 H   0  0  0  0  0  0  0  0  0  0  0  0
    2.7686    1.3619   -2.3350 H   0  0  0  0  0  0  0  0  0  0  0  0
    0.5934    1.8399   -1.3398 H   0  0  0  0  0  0  0  0  0  0  0  0
    1.7456   -0.2502    2.2248 H   0  0  0  0  0  0  0  0  0  0  0  0
   -0.3531    0.7747    2.1602 H   0  0  0  0  0  0  0  0  0  0  0  0
   -0.4718    2.2173    1.1444 H   0  0  0  0  0  0  0  0  0  0  0  0
   -3.1817   -0.4349   -1.0758 H   0  0  0  0  0  0  0  0  0  0  0  0
   -2.3476    1.9146    2.4250 H   0  0  0  0  0  0  0  0  0  0  0  0
   -4.7434    2.1855    2.7952 H   0  0  0  0  0  0  0  0  0  0  0  0
   -6.3911    1.1737    1.2590 H   0  0  0  0  0  0  0  0  0  0  0  0
   -6.9012   -0.0367   -0.6724 H   0  0  0  0  0  0  0  0  0  0  0  0
   -5.7296    0.1031   -1.9711 H   0  0  0  0  0  0  0  0  0  0  0  0
   -5.8255   -2.1570   -0.1443 H   0  0  0  0  0  0  0  0  0  0  0  0
   -6.3959   -2.0333   -3.0082 H   0  0  0  0  0  0  0  0  0  0  0  0
   -6.4851   -3.4534   -1.9720 H   0  0  0  0  0  0  0  0  0  0  0  0
   -7.6704   -2.1516   -1.7937 H   0  0  0  0  0  0  0  0  0  0  0  0
  7  6  1  0
  6  5  1  0
  6  8  2  0
  5  2  2  0
  9  8  1  0
  9 10  2  0
  8  4  1  0
  2  1  1  0
  2  3  1  0
 10 11  1  0
  4  3  2  0
  4 12  1  0
 17 18  2  0
 17 15  1  0
 18 19  1  0
 11 12  2  0
 11 13  1  0
 14 15  1  0
 14 13  1  0
 15 16  2  0
 19 20  2  0
 16 20  1  0
 20 21  1  0
 23 22  1  0
 21 22  1  0
  1 24  1  0
  1 25  1  0
  5 26  1  0
  7 27  1  0
  7 28  1  0
  7 29  1  0
  9 30  1  0
 10 31  1  0
 12 32  1  0
 13 33  1  0
 13 34  1  0
 16 35  1  0
 17 36  1  0
 18 37  1  0
 19 38  1  0
 21 39  1  0
 21 40  1  0
 22 41  1  0
 23 42  1  0
 23 43  1  0
 23 44  1  0
M  END
