
     RDKit          3D

 46 49  0  0  0  0  0  0  0  0999 V2000
   -2.0027   -0.4371    0.1989 C   0  0  0  0  0  0  0  0  0  0  0  0
   -1.0192   -1.0102    0.9109 N   0  0  0  0  0  0  0  0  0  0  0  0
    0.2066   -0.6315    0.6228 C   0  0  0  0  0  0  0  0  0  0  0  0
    1.2363   -1.2136    1.3159 N   0  0  0  0  0  0  0  0  0  0  0  0
    2.5550   -1.1716    0.9160 C   0  0  0  0  0  0  0  0  0  0  0  0
    3.3907   -1.8879    1.4325 O   0  0  0  0  0  0  0  0  0  0  0  0
    2.8380   -0.3109   -0.1004 N   0  0  0  0  0  0  0  0  0  0  0  0
    4.1912   -0.1914   -0.4958 C   0  0  0  0  0  0  0  0  0  0  0  0
    4.6264   -0.8030   -1.6628 C   0  0  0  0  0  0  0  0  0  0  0  0
    5.9387   -0.6600   -2.0882 C   0  0  0  0  0  0  0  0  0  0  0  0
    6.8273    0.0991   -1.3402 C   0  0  0  0  0  0  0  0  0  0  0  0
    6.4083    0.7189   -0.1716 C   0  0  0  0  0  0  0  0  0  0  0  0
    5.0939    0.5710    0.2412 C   0  0  0  0  0  0  0  0  0  0  0  0
    4.5651    1.3416    1.6952 Cl  0  0  0  0  0  0  0  0  0  0  0  0
    1.9291    0.7410   -0.5521 C   0  0  0  0  0  0  0  0  0  0  0  0
    0.5132    0.3155   -0.3539 C   0  0  0  0  0  0  0  0  0  0  0  0
   -1.8291    0.4624   -0.7735 N   0  0  0  0  0  0  0  0  0  0  0  0
   -0.5762    0.8158   -1.0312 C   0  0  0  0  0  0  0  0  0  0  0  0
   -3.2519   -0.8349    0.4894 N   0  0  0  0  0  0  0  0  0  0  0  0
   -4.4542   -0.3106   -0.1211 C   0  0  2  0  0  0  0  0  0  0  0  0
   -4.9063    1.0027    0.5190 C   0  0  0  0  0  0  0  0  0  0  0  0
   -6.1981    1.5128   -0.1108 C   0  0  0  0  0  0  0  0  0  0  0  0
   -7.2990    0.4686   -0.0183 C   0  0  1  0  0  0  0  0  0  0  0  0
   -8.4584    0.9958   -0.6312 O   0  0  0  0  0  0  0  0  0  0  0  0
   -6.8505   -0.8375   -0.6665 C   0  0  0  0  0  0  0  0  0  0  0  0
   -5.5607   -1.3573   -0.0422 C   0  0  0  0  0  0  0  0  0  0  0  0
    1.0029   -1.9126    2.0070 H   0  0  0  0  0  0  0  0  0  0  0  0
    3.9238   -1.3961   -2.2336 H   0  0  0  0  0  0  0  0  0  0  0  0
    6.2658   -1.1429   -2.9988 H   0  0  0  0  0  0  0  0  0  0  0  0
    7.8534    0.2142   -1.6626 H   0  0  0  0  0  0  0  0  0  0  0  0
    7.0972    1.3134    0.4124 H   0  0  0  0  0  0  0  0  0  0  0  0
    2.1444    1.6716   -0.0145 H   0  0  0  0  0  0  0  0  0  0  0  0
    2.1260    0.9299   -1.6079 H   0  0  0  0  0  0  0  0  0  0  0  0
   -0.4365    1.5480   -1.8210 H   0  0  0  0  0  0  0  0  0  0  0  0
   -3.3485   -1.4689    1.2667 H   0  0  0  0  0  0  0  0  0  0  0  0
   -4.2355   -0.1218   -1.1759 H   0  0  0  0  0  0  0  0  0  0  0  0
   -5.0547    0.8409    1.5922 H   0  0  0  0  0  0  0  0  0  0  0  0
   -4.1175    1.7511    0.4182 H   0  0  0  0  0  0  0  0  0  0  0  0
   -6.5131    2.4355    0.3825 H   0  0  0  0  0  0  0  0  0  0  0  0
   -6.0235    1.7578   -1.1646 H   0  0  0  0  0  0  0  0  0  0  0  0
   -7.4894    0.2690    1.0483 H   0  0  0  0  0  0  0  0  0  0  0  0
   -9.1668    0.3515   -0.5358 H   0  0  0  0  0  0  0  0  0  0  0  0
   -7.6360   -1.5927   -0.5702 H   0  0  0  0  0  0  0  0  0  0  0  0
   -6.7008   -0.6704   -1.7387 H   0  0  0  0  0  0  0  0  0  0  0  0
   -5.2424   -2.2729   -0.5453 H   0  0  0  0  0  0  0  0  0  0  0  0
   -5.7395   -1.6185    1.0074 H   0  0  0  0  0  0  0  0  0  0  0  0
 17  1  1  0
  1 19  1  0
  1  2  2  0
  3  2  1  0
 16  3  2  0
  3  4  1  0
  5  4  1  0
  4 27  1  0
  7  5  1  0
  5  6  2  0
 15  7  1  0
  8  7  1  0
  9  8  2  0
  8 13  1  0
 10  9  1  0
  9 28  1  0
 10 11  2  0
 10 29  1  0
 11 12  1  0
 11 30  1  0
 12 13  2  0
 12 31  1  0
 13 14  1  0
 15 16  1  0
 15 32  1  0
 15 33  1  0
 18 16  1  0
 18 17  2  0
 18 34  1  0
 19 20  1  0
 19 35  1  0
 21 20  1  0
 20 26  1  0
 20 36  1  6
 21 22  1  0
 21 37  1  0
 21 38  1  0
 22 23  1  0
 22 39  1  0
 22 40  1  0
 23 24  1  0
 23 25  1  0
 23 41  1  1
 24 42  1  0
 26 25  1  0
 25 43  1  0
 25 44  1  0
 26 45  1  0
 26 46  1  0
M  END
