
     RDKit          3D

 25 26  0  0  0  0  0  0  0  0999 V2000
   -5.0455    0.4562   -0.5627 C   0  0  0  0  0  0  0  0  0  0  0  0
   -4.9210   -1.5306    0.7368 N   0  0  0  0  0  0  0  0  0  0  0  0
   -0.9068    1.3846   -1.0841 O   0  0  0  0  0  0  0  0  0  0  0  0
    1.3048    2.4339    0.8075 Cl  0  0  0  0  0  0  0  0  0  0  0  0
   -3.6634    0.5636   -0.5992 C   0  0  0  0  0  0  0  0  0  0  0  0
    5.1087   -1.2667    0.1751 Cl  0  0  0  0  0  0  0  0  0  0  0  0
   -2.9122   -0.4115    0.0526 C   0  0  0  0  0  0  0  0  0  0  0  0
   -3.6050   -1.4364    0.7049 C   0  0  0  0  0  0  0  0  0  0  0  0
   -5.6343   -0.5992    0.1121 C   0  0  0  0  0  0  0  0  0  0  0  0
   -0.6218    0.3909   -0.4475 C   0  0  0  0  0  0  0  0  0  0  0  0
    0.8004   -0.0248   -0.2326 C   0  0  0  0  0  0  0  0  0  0  0  0
    1.2123   -1.3002   -0.6074 C   0  0  0  0  0  0  0  0  0  0  0  0
    2.5343   -1.6957   -0.4932 C   0  0  0  0  0  0  0  0  0  0  0  0
    3.4555   -0.7970    0.0182 C   0  0  0  0  0  0  0  0  0  0  0  0
    3.0791    0.4774    0.4126 C   0  0  0  0  0  0  0  0  0  0  0  0
    1.7535    0.8545    0.2749 C   0  0  0  0  0  0  0  0  0  0  0  0
   -5.6591    1.1964   -1.0575 H   0  0  0  0  0  0  0  0  0  0  0  0
   -3.1983    1.3854   -1.1174 H   0  0  0  0  0  0  0  0  0  0  0  0
   -1.1401   -1.2087    0.6695 H   0  0  0  0  0  0  0  0  0  0  0  0
   -3.0485   -2.2138    1.2214 H   0  0  0  0  0  0  0  0  0  0  0  0
   -6.7125   -0.6992    0.1523 H   0  0  0  0  0  0  0  0  0  0  0  0
    0.4917   -1.9980   -1.0149 H   0  0  0  0  0  0  0  0  0  0  0  0
    2.8370   -2.6863   -0.8009 H   0  0  0  0  0  0  0  0  0  0  0  0
    3.8042    1.1669    0.8220 H   0  0  0  0  0  0  0  0  0  0  0  0
   -1.5194   -0.4554    0.1137 N   0  0  0  0  0  0  0  0  0  0  0  0
  9  1  2  0
  5  1  1  0
  1 17  1  0
  8  2  2  0
  2  9  1  0
 10  3  2  0
  4 16  1  0
  7  5  2  0
  5 18  1  0
 25 10  1  0
 25  7  1  0
 25 19  1  0
  6 14  1  0
  8  7  1  0
  8 20  1  0
  9 21  1  0
 11 10  1  0
 16 11  1  0
 11 12  2  0
 13 12  1  0
 12 22  1  0
 14 13  2  0
 13 23  1  0
 15 14  1  0
 15 16  2  0
 15 24  1  0
M  END
