
     RDKit          3D

 23 22  0  0  0  0  0  0  0  0999 V2000
   -0.2933    2.9089    1.1276 C   0  0  0  0  0  0  0  0  0  0  0  0
    0.0694    1.4695    1.4852 C   0  0  0  0  0  0  0  0  0  0  0  0
    0.0516    0.1963   -0.2547 Sn  0  0  1  0  0  0  0  0  0  0  0  0
   -1.7900    0.3360   -1.3607 C   0  0  0  0  0  0  0  0  0  0  0  0
   -3.0144    0.1943   -0.4635 C   0  0  0  0  0  0  0  0  0  0  0  0
    1.8988    0.1837   -1.3599 C   0  0  0  0  0  0  0  0  0  0  0  0
    3.1052   -0.0857   -0.4679 C   0  0  0  0  0  0  0  0  0  0  0  0
    1.0616    1.4190    1.9372 H   0  0  0  0  0  0  0  0  0  0  0  0
   -0.6322    1.0619    2.2150 H   0  0  0  0  0  0  0  0  0  0  0  0
   -1.7903    1.3014   -1.8727 H   0  0  0  0  0  0  0  0  0  0  0  0
   -1.7782   -0.4316   -2.1362 H   0  0  0  0  0  0  0  0  0  0  0  0
    1.8146   -0.5684   -2.1462 H   0  0  0  0  0  0  0  0  0  0  0  0
    1.9876    1.1524   -1.8569 H   0  0  0  0  0  0  0  0  0  0  0  0
   -0.0251   -2.0377    0.6621 Cl  0  0  0  0  0  0  0  0  0  0  0  0
    0.3952    3.3368    0.3972 H   0  0  0  0  0  0  0  0  0  0  0  0
   -1.2986    2.9838    0.7094 H   0  0  0  0  0  0  0  0  0  0  0  0
   -0.2643    3.5520    2.0095 H   0  0  0  0  0  0  0  0  0  0  0  0
    3.2139    0.6717    0.3099 H   0  0  0  0  0  0  0  0  0  0  0  0
    3.0336   -1.0543    0.0283 H   0  0  0  0  0  0  0  0  0  0  0  0
    4.0311   -0.0880   -1.0471 H   0  0  0  0  0  0  0  0  0  0  0  0
   -3.0252   -0.7643    0.0568 H   0  0  0  0  0  0  0  0  0  0  0  0
   -3.0566    0.9768    0.2960 H   0  0  0  0  0  0  0  0  0  0  0  0
   -3.9378    0.2581   -1.0431 H   0  0  0  0  0  0  0  0  0  0  0  0
  1  2  1  0
  2  3  1  0
  2  8  1  0
  2  9  1  0
  3  4  1  0
  3  6  1  0
  4  5  1  0
  4 10  1  0
  4 11  1  0
  6  7  1  0
  6 12  1  0
  6 13  1  0
  3 14  1  1
  1 15  1  0
  1 16  1  0
  1 17  1  0
  7 18  1  0
  7 19  1  0
  7 20  1  0
  5 21  1  0
  5 22  1  0
  5 23  1  0
M  END
