
     RDKit          3D

 62 65  0  0  0  0  0  0  0  0999 V2000
    5.3408   -0.1893    1.2024 C   0  0  0  0  0  0  0  0  0  0  0  0
    3.9939   -0.1037    0.8806 C   0  0  0  0  0  0  0  0  0  0  0  0
    3.5187    0.9867    0.1526 C   0  0  0  0  0  0  0  0  0  0  0  0
    5.7657    1.8772    0.0580 C   0  0  0  0  0  0  0  0  0  0  0  0
    6.2189    0.7983    0.7964 C   0  0  0  0  0  0  0  0  0  0  0  0
    7.5427    0.7399    1.1838 O   0  0  0  0  0  0  0  0  0  0  0  0
    8.4404    0.1669    0.3692 C   0  0  0  0  0  0  0  0  0  0  0  0
    9.7732    0.1688    0.7827 C   0  0  0  0  0  0  0  0  0  0  0  0
   10.6483   -0.4294   -0.0985 C   0  0  0  0  0  0  0  0  0  0  0  0
   10.2813   -0.9753   -1.2519 N   0  0  0  0  0  0  0  0  0  0  0  0
    8.9773   -0.9199   -1.5326 C   0  0  0  0  0  0  0  0  0  0  0  0
    8.5616   -1.4890   -2.6755 N   0  0  0  0  0  0  0  0  0  0  0  0
    1.0836    0.7000    0.4463 C   0  0  0  0  0  0  0  0  0  0  0  0
   -0.0857    1.0573   -0.1716 N   0  0  0  0  0  0  0  0  0  0  0  0
   -1.3906    0.8258    0.2525 C   0  0  0  0  0  0  0  0  0  0  0  0
   -1.7553    0.2020    1.4421 C   0  0  0  0  0  0  0  0  0  0  0  0
   -3.1008    0.0453    1.7393 C   0  0  0  0  0  0  0  0  0  0  0  0
   -4.1249    0.4770    0.9071 C   0  0  0  0  0  0  0  0  0  0  0  0
   -3.7428    1.1135   -0.2823 C   0  0  0  0  0  0  0  0  0  0  0  0
   -4.7643    1.6884   -1.2243 C   0  0  1  0  0  0  0  0  0  0  0  0
   -4.2064    2.2175   -2.3203 F   0  0  0  0  0  0  0  0  0  0  0  0
   -5.6519    0.7867   -1.6486 F   0  0  0  0  0  0  0  0  0  0  0  0
   -5.4629    2.6803   -0.6453 F   0  0  0  0  0  0  0  0  0  0  0  0
   -2.4044    1.2817   -0.5945 C   0  0  0  0  0  0  0  0  0  0  0  0
   -5.5534    0.2253    1.3233 C   0  0  0  0  0  0  0  0  0  0  0  0
   -6.1338   -0.9306    0.6670 N   0  0  0  0  0  0  0  0  0  0  0  0
   -7.5779   -0.9382    0.7894 C   0  0  0  0  0  0  0  0  0  0  0  0
    8.0362   -0.3608   -0.7581 N   0  0  0  0  0  0  0  0  0  0  0  0
   -8.1722   -2.1132    0.0386 C   0  0  0  0  0  0  0  0  0  0  0  0
   -7.6229   -3.3611    0.5271 N   0  0  0  0  0  0  0  0  0  0  0  0
    4.4208    1.9714   -0.2534 C   0  0  0  0  0  0  0  0  0  0  0  0
   -6.1805   -3.3540    0.3978 C   0  0  0  0  0  0  0  0  0  0  0  0
   -5.5792   -2.1798    1.1459 C   0  0  0  0  0  0  0  0  0  0  0  0
   -8.2177   -4.5026   -0.1269 C   0  0  0  0  0  0  0  0  0  0  0  0
    1.1405    0.0648    1.4828 O   0  0  0  0  0  0  0  0  0  0  0  0
    2.1851    1.1344   -0.2404 N   0  0  0  0  0  0  0  0  0  0  0  0
    5.7001   -1.0384    1.7697 H   0  0  0  0  0  0  0  0  0  0  0  0
    3.3329   -0.8962    1.1927 H   0  0  0  0  0  0  0  0  0  0  0  0
    4.0671    2.8266   -0.8165 H   0  0  0  0  0  0  0  0  0  0  0  0
    2.0379    1.7850   -0.9968 H   0  0  0  0  0  0  0  0  0  0  0  0
    6.4503    2.6521   -0.2618 H   0  0  0  0  0  0  0  0  0  0  0  0
   10.0956    0.6074    1.7147 H   0  0  0  0  0  0  0  0  0  0  0  0
   11.7063   -0.4712    0.1365 H   0  0  0  0  0  0  0  0  0  0  0  0
    9.2403   -1.7917   -3.3516 H   0  0  0  0  0  0  0  0  0  0  0  0
    7.6156   -1.3542   -2.9855 H   0  0  0  0  0  0  0  0  0  0  0  0
   -0.0119    1.5508   -1.0489 H   0  0  0  0  0  0  0  0  0  0  0  0
   -1.0160   -0.1580    2.1374 H   0  0  0  0  0  0  0  0  0  0  0  0
   -2.1171    1.7802   -1.5108 H   0  0  0  0  0  0  0  0  0  0  0  0
   -3.3637   -0.4395    2.6719 H   0  0  0  0  0  0  0  0  0  0  0  0
   -5.5765    0.1192    2.4208 H   0  0  0  0  0  0  0  0  0  0  0  0
   -6.1801    1.0902    1.1028 H   0  0  0  0  0  0  0  0  0  0  0  0
   -7.9007   -0.9840    1.8443 H   0  0  0  0  0  0  0  0  0  0  0  0
   -7.9758   -0.0108    0.3707 H   0  0  0  0  0  0  0  0  0  0  0  0
   -4.4980   -2.1843    0.9913 H   0  0  0  0  0  0  0  0  0  0  0  0
   -5.7501   -2.3094    2.2297 H   0  0  0  0  0  0  0  0  0  0  0  0
   -9.2558   -2.1181    0.1812 H   0  0  0  0  0  0  0  0  0  0  0  0
   -7.9883   -1.9822   -1.0422 H   0  0  0  0  0  0  0  0  0  0  0  0
   -5.7787   -4.2832    0.8094 H   0  0  0  0  0  0  0  0  0  0  0  0
   -5.8664   -3.3060   -0.6597 H   0  0  0  0  0  0  0  0  0  0  0  0
   -8.0410   -4.5239   -1.2141 H   0  0  0  0  0  0  0  0  0  0  0  0
   -7.8166   -5.4264    0.2930 H   0  0  0  0  0  0  0  0  0  0  0  0
   -9.2974   -4.5034    0.0320 H   0  0  0  0  0  0  0  0  0  0  0  0
  1  2  2  0
  1  5  1  0
  2  3  1  0
  3 31  2  0
  3 36  1  0
  4  5  2  0
  4 31  1  0
  5  6  1  0
  6  7  1  0
  7  8  2  0
  7 28  1  0
  8  9  1  0
  9 10  2  0
 10 11  1  0
 11 12  1  0
 11 28  2  0
 13 14  1  0
 13 35  2  0
 13 36  1  0
 14 15  1  0
 15 16  2  0
 15 24  1  0
 16 17  1  0
 17 18  2  0
 18 19  1  0
 18 25  1  0
 19 20  1  0
 19 24  2  0
 20 21  1  6
 20 22  1  0
 20 23  1  0
 25 26  1  0
 26 27  1  0
 26 33  1  0
 27 29  1  0
 29 30  1  0
 30 32  1  0
 30 34  1  0
 32 33  1  0
  1 37  1  0
  2 38  1  0
 31 39  1  0
 36 40  1  0
  4 41  1  0
  8 42  1  0
  9 43  1  0
 12 44  1  0
 12 45  1  0
 14 46  1  0
 16 47  1  0
 24 48  1  0
 17 49  1  0
 25 50  1  0
 25 51  1  0
 27 52  1  0
 27 53  1  0
 33 54  1  0
 33 55  1  0
 29 56  1  0
 29 57  1  0
 32 58  1  0
 32 59  1  0
 34 60  1  0
 34 61  1  0
 34 62  1  0
M  END
