
     RDKit          3D

 15 16  0  0  0  0  0  0  0  0999 V2000
    1.3660   -0.0126   -1.4892 N   0  0  0  0  0  0  0  0  0  0  0  0
    0.2779   -0.0287   -2.3391 C   0  0  0  0  0  0  0  0  0  0  0  0
   -1.0068   -0.0322   -1.6069 N   0  0  0  0  0  0  0  0  0  0  0  0
   -0.6344   -0.0176   -0.4031 C   0  0  0  0  0  0  0  0  0  0  0  0
   -1.4579   -0.0108    0.8257 C   0  0  0  0  0  0  0  0  0  0  0  0
   -2.6585   -0.0178    0.8607 O   0  0  0  0  0  0  0  0  0  0  0  0
   -0.6631    0.0052    1.9494 N   0  0  0  0  0  0  0  0  0  0  0  0
    0.7131    0.0146    1.9495 C   0  0  0  0  0  0  0  0  0  0  0  0
    1.2940    0.0301    3.1239 N   0  0  0  0  0  0  0  0  0  0  0  0
    1.4812    0.0099    0.8651 N   0  0  0  0  0  0  0  0  0  0  0  0
    0.8548   -0.0054   -0.2935 C   0  0  0  0  0  0  0  0  0  0  0  0
    0.2933   -0.0399   -3.5370 O   0  0  0  0  0  0  0  0  0  0  0  0
   -1.1430    0.0120    2.8428 H   0  0  0  0  0  0  0  0  0  0  0  0
    2.3010    0.0341    3.1727 H   0  0  0  0  0  0  0  0  0  0  0  0
    0.7813    0.0314    3.9914 H   0  0  0  0  0  0  0  0  0  0  0  0
  1  2  1  0
  1 11  2  0
  2  3  1  0
  2 12  2  0
  3  4  2  0
  4  5  1  0
  4 11  1  0
  5  6  2  0
  5  7  1  0
  7  8  1  0
  7 13  1  0
  8  9  1  0
  8 10  2  0
  9 14  1  0
  9 15  1  0
 10 11  1  0
M  END
