
     RDKit          3D

 46 48  0  0  0  0  0  0  0  0999 V2000
   -4.9519   -2.2182   -0.6717 O   0  0  0  0  0  0  0  0  0  0  0  0
   -4.4609   -0.9861   -0.6135 C   0  0  0  0  0  0  0  0  0  0  0  0
   -5.1024    0.0004   -0.8583 O   0  0  0  0  0  0  0  0  0  0  0  0
   -2.9994   -0.9956   -0.2063 C   0  0  1  0  0  0  0  0  0  0  0  0
   -2.0677   -1.4232   -1.3852 C   0  0  2  0  0  0  0  0  0  0  0  0
   -2.5070   -0.8419   -2.7267 C   0  0  0  0  0  0  0  0  0  0  0  0
   -1.9050   -2.9333   -1.4847 C   0  0  0  0  0  0  0  0  0  0  0  0
   -0.4522   -0.6971   -0.8877 S   0  0  0  0  0  0  0  0  0  0  0  0
   -2.5811    0.3029    0.2695 N   0  0  0  0  0  0  0  0  0  0  0  0
   -1.3233    0.7805   -0.2931 C   0  0  1  0  0  0  0  0  0  0  0  0
   -2.0813    0.4194    1.6289 C   0  0  2  0  0  0  0  0  0  0  0  0
   -3.0040    0.9996    2.4811 O   0  0  0  0  0  0  0  0  0  0  0  0
   -0.9139    1.2764    1.1035 C   0  0  1  0  0  0  0  0  0  0  0  0
    0.3833    0.9393    1.6008 N   0  0  0  0  0  0  0  0  0  0  0  0
    1.4930    1.4630    1.0625 C   0  0  0  0  0  0  0  0  0  0  0  0
    1.4666    2.2900    0.1687 O   0  0  0  0  0  0  0  0  0  0  0  0
    2.8059    0.9166    1.6102 C   0  0  2  0  0  0  0  0  0  0  0  0
    3.5537    2.0336    2.3109 C   0  0  0  0  0  0  0  0  0  0  0  0
    4.8340    1.7499    2.4724 O   0  0  0  0  0  0  0  0  0  0  0  0
    3.0257    3.0329    2.7251 O   0  0  0  0  0  0  0  0  0  0  0  0
    3.5675    0.2319    0.5019 C   0  0  0  0  0  0  0  0  0  0  0  0
    3.5583   -1.1560    0.4259 C   0  0  0  0  0  0  0  0  0  0  0  0
    4.2311    0.9604   -0.4826 C   0  0  0  0  0  0  0  0  0  0  0  0
    4.8847    0.3058   -1.5155 C   0  0  0  0  0  0  0  0  0  0  0  0
    4.8758   -1.0825   -1.5831 C   0  0  0  0  0  0  0  0  0  0  0  0
    4.2094   -1.8128   -0.6102 C   0  0  0  0  0  0  0  0  0  0  0  0
   -5.8774   -2.1946   -0.9589 H   0  0  0  0  0  0  0  0  0  0  0  0
   -2.8799   -1.7379    0.5923 H   0  0  0  0  0  0  0  0  0  0  0  0
   -2.6589    0.2369   -2.6875 H   0  0  0  0  0  0  0  0  0  0  0  0
   -1.7506   -1.0465   -3.4832 H   0  0  0  0  0  0  0  0  0  0  0  0
   -3.4384   -1.3011   -3.0654 H   0  0  0  0  0  0  0  0  0  0  0  0
   -2.8436   -3.4044   -1.7759 H   0  0  0  0  0  0  0  0  0  0  0  0
   -1.1649   -3.1871   -2.2441 H   0  0  0  0  0  0  0  0  0  0  0  0
   -1.5851   -3.3656   -0.5364 H   0  0  0  0  0  0  0  0  0  0  0  0
   -1.4111    1.5313   -1.0786 H   0  0  0  0  0  0  0  0  0  0  0  0
   -1.7216   -0.5392    2.0349 H   0  0  0  0  0  0  0  0  0  0  0  0
   -2.8093    0.7331    3.3849 H   0  0  0  0  0  0  0  0  0  0  0  0
   -1.1167    2.3441    1.2077 H   0  0  0  0  0  0  0  0  0  0  0  0
    0.4581    0.2217    2.3039 H   0  0  0  0  0  0  0  0  0  0  0  0
    2.6093    0.1740    2.3928 H   0  0  0  0  0  0  0  0  0  0  0  0
    5.2729    2.4596    2.9665 H   0  0  0  0  0  0  0  0  0  0  0  0
    3.0399   -1.7303    1.1846 H   0  0  0  0  0  0  0  0  0  0  0  0
    4.2449    2.0426   -0.4495 H   0  0  0  0  0  0  0  0  0  0  0  0
    5.4019    0.8813   -2.2722 H   0  0  0  0  0  0  0  0  0  0  0  0
    5.3865   -1.5905   -2.3908 H   0  0  0  0  0  0  0  0  0  0  0  0
    4.1960   -2.8941   -0.6540 H   0  0  0  0  0  0  0  0  0  0  0  0
 20 18  2  0
 19 18  1  0
 18 17  1  0
 17 15  1  0
 17 21  1  0
 16 15  2  0
 15 14  1  0
 23 21  1  0
 23 24  2  0
 14 13  1  0
 21 22  2  0
 12 11  1  0
 13 11  1  0
 13 10  1  0
 24 25  1  0
 11  9  1  0
 22 26  1  0
 10  9  1  0
 10  8  1  0
 25 26  2  0
  9  4  1  0
  8  5  1  0
  4  5  1  0
  4  2  1  0
  3  2  2  0
  5  7  1  6
  5  6  1  0
  2  1  1  0
  1 27  1  0
  4 28  1  1
  6 29  1  0
  6 30  1  0
  6 31  1  0
  7 32  1  0
  7 33  1  0
  7 34  1  0
 10 35  1  6
 11 36  1  1
 12 37  1  0
 13 38  1  6
 14 39  1  0
 17 40  1  1
 19 41  1  0
 22 42  1  0
 23 43  1  0
 24 44  1  0
 25 45  1  0
 26 46  1  0
M  END
