
     RDKit          3D

 45 47  0  0  0  0  0  0  0  0999 V2000
    1.0961    0.7925   -0.4318 N   0  0  0  0  0  0  0  0  0  0  0  0
    1.0319   -0.2663   -1.2084 N   0  0  0  0  0  0  0  0  0  0  0  0
    2.0709   -1.0165   -0.8764 C   0  0  0  0  0  0  0  0  0  0  0  0
    2.8323   -0.4048    0.1471 C   0  0  0  0  0  0  0  0  0  0  0  0
    2.1647    0.7717    0.4100 C   0  0  0  0  0  0  0  0  0  0  0  0
    3.9744   -0.9407    0.7066 N   0  0  0  0  0  0  0  0  0  0  0  0
    4.7044   -0.3481    1.6997 C   0  0  0  0  0  0  0  0  0  0  0  0
    5.7717   -1.0742    2.1123 N   0  0  0  0  0  0  0  0  0  0  0  0
    4.3930    0.7291    2.1885 O   0  0  0  0  0  0  0  0  0  0  0  0
    2.3305   -2.3132   -1.5274 C   0  0  0  0  0  0  0  0  0  0  0  0
    1.4484   -2.6814   -2.4607 N   0  0  0  0  0  0  0  0  0  0  0  0
    3.3066   -2.9883   -1.2058 O   0  0  0  0  0  0  0  0  0  0  0  0
    0.1489    1.8391   -0.5474 C   0  0  0  0  0  0  0  0  0  0  0  0
    0.5997    3.1006   -0.8230 C   0  0  0  0  0  0  0  0  0  0  0  0
   -0.3033    4.1757   -0.9303 C   0  0  0  0  0  0  0  0  0  0  0  0
   -1.6421    3.9564   -0.7702 C   0  0  0  0  0  0  0  0  0  0  0  0
   -1.2343    1.5691   -0.3502 C   0  0  0  0  0  0  0  0  0  0  0  0
   -2.1328    2.6633   -0.4779 C   0  0  0  0  0  0  0  0  0  0  0  0
   -3.5099    2.4257   -0.2852 C   0  0  0  0  0  0  0  0  0  0  0  0
   -3.9878    1.1842    0.0306 C   0  0  0  0  0  0  0  0  0  0  0  0
   -3.0882    0.1024    0.1746 C   0  0  0  0  0  0  0  0  0  0  0  0
   -1.7384    0.2980   -0.0164 C   0  0  0  0  0  0  0  0  0  0  0  0
   -3.4763   -1.1433    0.4942 O   0  0  0  0  0  0  0  0  0  0  0  0
   -4.8504   -1.4125    0.7387 C   0  0  0  0  0  0  0  0  0  0  0  0
   -4.9923   -2.8819    1.0742 C   0  0  0  0  0  0  0  0  0  0  0  0
   -6.4419   -3.2386    1.3732 C   0  0  0  0  0  0  0  0  0  0  0  0
    2.3417    1.5636    1.1139 H   0  0  0  0  0  0  0  0  0  0  0  0
    4.2402   -1.8457    0.3444 H   0  0  0  0  0  0  0  0  0  0  0  0
    6.1347   -1.8293    1.5544 H   0  0  0  0  0  0  0  0  0  0  0  0
    6.4376   -0.6166    2.7112 H   0  0  0  0  0  0  0  0  0  0  0  0
    0.6543   -2.1065   -2.6874 H   0  0  0  0  0  0  0  0  0  0  0  0
    1.5472   -3.5639   -2.9346 H   0  0  0  0  0  0  0  0  0  0  0  0
    1.6582    3.2707   -0.9725 H   0  0  0  0  0  0  0  0  0  0  0  0
    0.0717    5.1650   -1.1527 H   0  0  0  0  0  0  0  0  0  0  0  0
   -2.3472    4.7736   -0.8599 H   0  0  0  0  0  0  0  0  0  0  0  0
   -4.2024    3.2520   -0.3860 H   0  0  0  0  0  0  0  0  0  0  0  0
   -5.0515    1.0507    0.1703 H   0  0  0  0  0  0  0  0  0  0  0  0
   -1.0722   -0.5466    0.0912 H   0  0  0  0  0  0  0  0  0  0  0  0
   -5.2161   -0.7983    1.5699 H   0  0  0  0  0  0  0  0  0  0  0  0
   -5.4513   -1.1672   -0.1441 H   0  0  0  0  0  0  0  0  0  0  0  0
   -4.6256   -3.4842    0.2394 H   0  0  0  0  0  0  0  0  0  0  0  0
   -4.3677   -3.1201    1.9386 H   0  0  0  0  0  0  0  0  0  0  0  0
   -6.8290   -2.6563    2.2107 H   0  0  0  0  0  0  0  0  0  0  0  0
   -7.0863   -3.0509    0.5130 H   0  0  0  0  0  0  0  0  0  0  0  0
   -6.5365   -4.2926    1.6320 H   0  0  0  0  0  0  0  0  0  0  0  0
 15 16  1  0
 15 14  2  0
 16 18  2  0
 14 13  1  0
 18 19  1  0
 18 17  1  0
 19 20  2  0
 13 17  2  0
 13  1  1  0
 17 22  1  0
  1  2  1  0
  1  5  1  0
 20 21  1  0
  2  3  2  0
  5  4  2  0
 22 21  2  0
 21 23  1  0
  3  4  1  0
  3 10  1  0
  4  6  1  0
  9  7  2  0
 11 10  1  0
 10 12  2  0
 23 24  1  0
  6  7  1  0
  7  8  1  0
 24 25  1  0
 25 26  1  0
  5 27  1  0
  6 28  1  0
  8 29  1  0
  8 30  1  0
 11 31  1  0
 11 32  1  0
 14 33  1  0
 15 34  1  0
 16 35  1  0
 19 36  1  0
 20 37  1  0
 22 38  1  0
 24 39  1  0
 24 40  1  0
 25 41  1  0
 25 42  1  0
 26 43  1  0
 26 44  1  0
 26 45  1  0
M  END
