
     RDKit          3D

 41 43  0  0  0  0  0  0  0  0999 V2000
   -5.2604    1.7820    0.5812 C   0  0  0  0  0  0  0  0  0  0  0  0
   -4.3043    0.6133    0.4805 C   0  0  2  0  0  0  0  0  0  0  0  0
   -2.8509    1.0412    0.3783 C   0  0  0  0  0  0  0  0  0  0  0  0
   -1.9788   -0.1079    0.2410 N   0  0  0  0  0  0  0  0  0  0  0  0
   -0.5884    0.2571    0.3341 C   0  0  0  0  0  0  0  0  0  0  0  0
    0.2812   -0.9445    0.6671 C   0  0  0  0  0  0  0  0  0  0  0  0
    3.7395   -1.6737   -0.1633 C   0  0  0  0  0  0  0  0  0  0  0  0
    3.6898   -0.1771   -0.2296 C   0  0  0  0  0  0  0  0  0  0  0  0
    4.6781    0.7149   -0.5917 C   0  0  0  0  0  0  0  0  0  0  0  0
    4.4039    2.0804   -0.5774 C   0  0  0  0  0  0  0  0  0  0  0  0
    3.1498    2.5257   -0.1891 C   0  0  0  0  0  0  0  0  0  0  0  0
    2.1462    1.6341    0.1830 C   0  0  0  0  0  0  0  0  0  0  0  0
    2.4202    0.2733    0.1387 C   0  0  0  0  0  0  0  0  0  0  0  0
   -0.2008   -1.9888    1.0692 O   0  0  0  0  0  0  0  0  0  0  0  0
    1.6216   -0.8319    0.4801 N   0  0  0  0  0  0  0  0  0  0  0  0
    2.4754   -2.0209    0.6255 C   0  0  0  0  0  0  0  0  0  0  0  0
   -2.2849   -0.8370   -0.9739 C   0  0  0  0  0  0  0  0  0  0  0  0
   -3.7058   -1.3478   -0.9297 C   0  0  0  0  0  0  0  0  0  0  0  0
   -4.6413   -0.2075   -0.7269 N   0  0  0  0  0  0  0  0  0  0  0  0
   -6.2950    1.4437    0.6351 H   0  0  0  0  0  0  0  0  0  0  0  0
   -5.0494    2.3463    1.4879 H   0  0  0  0  0  0  0  0  0  0  0  0
   -5.1573    2.4563   -0.2693 H   0  0  0  0  0  0  0  0  0  0  0  0
   -4.4257   -0.0600    1.3300 H   0  0  0  0  0  0  0  0  0  0  0  0
   -2.7399    1.7601   -0.4517 H   0  0  0  0  0  0  0  0  0  0  0  0
   -2.6030    1.5730    1.2977 H   0  0  0  0  0  0  0  0  0  0  0  0
   -0.2197    0.7488   -0.5794 H   0  0  0  0  0  0  0  0  0  0  0  0
   -0.4761    0.9834    1.1448 H   0  0  0  0  0  0  0  0  0  0  0  0
    4.6384   -2.0475    0.3250 H   0  0  0  0  0  0  0  0  0  0  0  0
    5.6583    0.3549   -0.8792 H   0  0  0  0  0  0  0  0  0  0  0  0
    5.1706    2.7912   -0.8561 H   0  0  0  0  0  0  0  0  0  0  0  0
    2.9401    3.5868   -0.1555 H   0  0  0  0  0  0  0  0  0  0  0  0
    1.1996    2.0302    0.5147 H   0  0  0  0  0  0  0  0  0  0  0  0
    1.9661   -2.9009    0.2419 H   0  0  0  0  0  0  0  0  0  0  0  0
    2.6974   -2.1892    1.6815 H   0  0  0  0  0  0  0  0  0  0  0  0
   -2.1390   -0.2181   -1.8753 H   0  0  0  0  0  0  0  0  0  0  0  0
   -1.6318   -1.7032   -1.0688 H   0  0  0  0  0  0  0  0  0  0  0  0
   -3.9842   -1.8394   -1.8583 H   0  0  0  0  0  0  0  0  0  0  0  0
   -3.8547   -2.0342   -0.0988 H   0  0  0  0  0  0  0  0  0  0  0  0
   -5.5963   -0.5596   -0.6498 H   0  0  0  0  0  0  0  0  0  0  0  0
   -4.6384    0.3862   -1.5598 H   0  0  0  0  0  0  0  0  0  0  0  0
    3.7104   -2.1048   -1.1671 H   0  0  0  0  0  0  0  0  0  0  0  0
  9 10  1  0
  9  8  2  0
 10 11  2  0
  8  7  1  0
  8 13  1  0
  7 16  1  0
 11 12  1  0
 13 12  2  0
 13 15  1  0
 16 15  1  0
 15  6  1  0
  6 14  2  0
  6  5  1  0
  5  4  1  0
  4  3  1  0
  4 17  1  0
  3  2  1  0
 17 18  1  0
  2  1  1  0
  2 19  1  0
 18 19  1  0
  1 20  1  0
  1 21  1  0
  1 22  1  0
  2 23  1  1
  3 24  1  0
  3 25  1  0
  5 26  1  0
  5 27  1  0
  7 41  1  0
  7 28  1  0
  9 29  1  0
 10 30  1  0
 11 31  1  0
 12 32  1  0
 16 33  1  0
 16 34  1  0
 17 35  1  0
 17 36  1  0
 18 37  1  0
 18 38  1  0
 19 39  1  0
 19 40  1  0
M  CHG  1  19   1
M  END
