
     RDKit          3D

 16 16  0  0  0  0  0  0  0  0999 V2000
    1.7915    1.2225   -0.0386 C   0  0  0  0  0  0  0  0  0  0  0  0
   -2.2926    1.0401    0.6857 F   0  0  0  0  0  0  0  0  0  0  0  0
   -2.2715    0.0690   -1.2288 F   0  0  0  0  0  0  0  0  0  0  0  0
   -0.2809    0.0280    0.0266 C   0  0  0  0  0  0  0  0  0  0  0  0
    0.4217    1.2373   -0.0075 C   0  0  0  0  0  0  0  0  0  0  0  0
   -1.7661    0.0039    0.0169 C   0  0  1  0  0  0  0  0  0  0  0  0
   -2.2631   -1.1120    0.5662 F   0  0  0  0  0  0  0  0  0  0  0  0
    0.4608   -1.1415    0.0209 C   0  0  0  0  0  0  0  0  0  0  0  0
    1.7841   -1.1755   -0.0079 N   0  0  0  0  0  0  0  0  0  0  0  0
    2.4551   -0.0223   -0.0383 C   0  0  0  0  0  0  0  0  0  0  0  0
    3.8013   -0.0917   -0.1008 N   0  0  0  0  0  0  0  0  0  0  0  0
    2.3572    2.1444   -0.0602 H   0  0  0  0  0  0  0  0  0  0  0  0
   -0.0977    2.1871   -0.0044 H   0  0  0  0  0  0  0  0  0  0  0  0
   -0.0282   -2.1095    0.0457 H   0  0  0  0  0  0  0  0  0  0  0  0
    4.2403   -0.9744    0.1003 H   0  0  0  0  0  0  0  0  0  0  0  0
    4.3482    0.7278    0.0987 H   0  0  0  0  0  0  0  0  0  0  0  0
 11 10  1  0
  9 10  1  0
  9  8  2  0
 10  1  2  0
  8  4  1  0
  1  5  1  0
  4  5  2  0
  4  6  1  0
  6  3  1  6
  6  2  1  0
  6  7  1  0
  1 12  1  0
  5 13  1  0
  8 14  1  0
 11 15  1  0
 11 16  1  0
M  END
