
     RDKit          3D

 42 44  0  0  0  0  0  0  0  0999 V2000
   -0.3343    0.8494   -0.6754 S   0  0  0  0  0  0  0  0  0  0  0  0
   -1.1972    0.2043    0.7968 C   0  0  0  0  0  0  0  0  0  0  0  0
   -2.6711    0.3777    0.5686 C   0  0  0  0  0  0  0  0  0  0  0  0
   -3.4178   -0.6109   -0.0792 C   0  0  0  0  0  0  0  0  0  0  0  0
   -2.7779   -1.8597   -0.6105 C   0  0  0  0  0  0  0  0  0  0  0  0
   -4.7854   -0.3718   -0.2193 C   0  0  0  0  0  0  0  0  0  0  0  0
   -5.5870   -1.2785   -0.8330 O   0  0  0  0  0  0  0  0  0  0  0  0
   -5.9919   -2.3647   -0.0064 C   0  0  0  0  0  0  0  0  0  0  0  0
   -5.3524    0.8181    0.2354 C   0  0  0  0  0  0  0  0  0  0  0  0
   -6.8105    1.1125    0.0682 C   0  0  0  0  0  0  0  0  0  0  0  0
   -4.4906    1.7241    0.8373 C   0  0  0  0  0  0  0  0  0  0  0  0
   -3.1945    1.5146    1.0105 N   0  0  0  0  0  0  0  0  0  0  0  0
    1.3088    0.4448   -0.2637 C   0  0  0  0  0  0  0  0  0  0  0  0
    2.3279    0.7927   -1.0990 N   0  0  0  0  0  0  0  0  0  0  0  0
    3.4882    0.3491   -0.5183 C   0  0  0  0  0  0  0  0  0  0  0  0
    3.0758   -0.2616    0.6771 C   0  0  0  0  0  0  0  0  0  0  0  0
    1.7032   -0.1829    0.8035 N   0  0  0  0  0  0  0  0  0  0  0  0
    4.8126    0.4223   -0.9136 C   0  0  0  0  0  0  0  0  0  0  0  0
    5.7553   -0.1467   -0.0603 C   0  0  0  0  0  0  0  0  0  0  0  0
    7.0398   -0.0627   -0.4709 O   0  0  0  0  0  0  0  0  0  0  0  0
    8.0539   -0.5982    0.3535 C   0  0  0  0  0  0  0  0  0  0  0  0
    5.3650   -0.7625    1.1412 C   0  0  0  0  0  0  0  0  0  0  0  0
    4.0302   -0.8232    1.5139 C   0  0  0  0  0  0  0  0  0  0  0  0
   -0.9169   -0.8377    0.9376 H   0  0  0  0  0  0  0  0  0  0  0  0
   -0.8808    0.7768    1.6664 H   0  0  0  0  0  0  0  0  0  0  0  0
   -2.6126   -2.5939    0.1814 H   0  0  0  0  0  0  0  0  0  0  0  0
   -3.3954   -2.3297   -1.3725 H   0  0  0  0  0  0  0  0  0  0  0  0
   -1.8092   -1.6445   -1.0608 H   0  0  0  0  0  0  0  0  0  0  0  0
   -6.5546   -2.0157    0.8629 H   0  0  0  0  0  0  0  0  0  0  0  0
   -6.6325   -3.0040   -0.6091 H   0  0  0  0  0  0  0  0  0  0  0  0
   -5.1384   -2.9505    0.3434 H   0  0  0  0  0  0  0  0  0  0  0  0
   -7.4367    0.3742    0.5710 H   0  0  0  0  0  0  0  0  0  0  0  0
   -7.0545    2.0885    0.4850 H   0  0  0  0  0  0  0  0  0  0  0  0
   -7.0990    1.1165   -0.9835 H   0  0  0  0  0  0  0  0  0  0  0  0
   -4.8802    2.6680    1.2055 H   0  0  0  0  0  0  0  0  0  0  0  0
    2.2456    1.2899   -1.9720 H   0  0  0  0  0  0  0  0  0  0  0  0
    5.1154    0.8950   -1.8392 H   0  0  0  0  0  0  0  0  0  0  0  0
    8.9963   -0.4131   -0.1565 H   0  0  0  0  0  0  0  0  0  0  0  0
    8.0842   -0.1141    1.3335 H   0  0  0  0  0  0  0  0  0  0  0  0
    7.9398   -1.6761    0.4976 H   0  0  0  0  0  0  0  0  0  0  0  0
    6.1032   -1.2025    1.7975 H   0  0  0  0  0  0  0  0  0  0  0  0
    3.7449   -1.3006    2.4423 H   0  0  0  0  0  0  0  0  0  0  0  0
 21 20  1  0
 20 19  1  0
 19 18  1  0
 19 22  2  0
 18 15  2  0
 22 23  1  0
 15 14  1  0
 15 16  1  0
 14 13  1  0
 23 16  2  0
 16 17  1  0
 13 17  2  0
 13  1  1  0
  1  2  1  0
  2  3  1  0
 12  3  1  0
 12 11  2  0
  3  4  2  0
 11  9  1  0
  4  5  1  0
  4  6  1  0
  9 10  1  0
  9  6  2  0
  6  7  1  0
  7  8  1  0
  2 24  1  0
  2 25  1  0
  5 26  1  0
  5 27  1  0
  5 28  1  0
  8 29  1  0
  8 30  1  0
  8 31  1  0
 10 32  1  0
 10 33  1  0
 10 34  1  0
 11 35  1  0
 14 36  1  0
 18 37  1  0
 21 38  1  0
 21 39  1  0
 21 40  1  0
 22 41  1  0
 23 42  1  0
M  END
