
     RDKit          3D

 52 53  0  0  0  0  0  0  0  0999 V2000
   -5.8831    3.5322   -0.3051 O   0  0  0  0  0  0  0  0  0  0  0  0
   -5.4025    2.5353    0.1789 N   0  0  0  0  0  0  0  0  0  0  0  0
   -4.2546    2.4255    0.5333 O   0  0  0  0  0  0  0  0  0  0  0  0
   -6.2784    1.3920    0.3828 C   0  0  0  0  0  0  0  0  0  0  0  0
   -7.5711    1.6382    0.8077 C   0  0  0  0  0  0  0  0  0  0  0  0
   -8.4032    0.5635    1.0835 C   0  0  0  0  0  0  0  0  0  0  0  0
   -7.9383   -0.7312    0.9184 C   0  0  0  0  0  0  0  0  0  0  0  0
   -6.6407   -0.9578    0.4774 C   0  0  0  0  0  0  0  0  0  0  0  0
   -5.7857    0.1027    0.2071 C   0  0  0  0  0  0  0  0  0  0  0  0
   -4.4460   -0.1704   -0.4139 C   0  0  0  0  0  0  0  0  0  0  0  0
   -4.1550    0.3055   -1.4965 O   0  0  0  0  0  0  0  0  0  0  0  0
   -3.6822   -1.0317    0.2730 N   0  0  0  0  0  0  0  0  0  0  0  0
   -2.3912   -1.4591   -0.1775 C   0  0  0  0  0  0  0  0  0  0  0  0
   -1.2757   -0.5555    0.3301 C   0  0  0  0  0  0  0  0  0  0  0  0
   -1.4627    0.6033    0.6400 O   0  0  0  0  0  0  0  0  0  0  0  0
   -0.0727   -1.1651    0.3725 N   0  0  0  0  0  0  0  0  0  0  0  0
    1.0549   -0.4484    0.7045 N   0  0  0  0  0  0  0  0  0  0  0  0
    2.0119   -0.3253   -0.3924 C   0  0  0  0  0  0  0  0  0  0  0  0
    3.0628    0.6949   -0.0370 C   0  0  0  0  0  0  0  0  0  0  0  0
    2.6687    1.9216    0.4983 C   0  0  0  0  0  0  0  0  0  0  0  0
    1.3887    2.2223    0.7625 O   0  0  0  0  0  0  0  0  0  0  0  0
    3.6348    2.9062    0.7557 C   0  0  0  0  0  0  0  0  0  0  0  0
    3.2292    4.2395    1.3039 C   0  0  0  0  0  0  0  0  0  0  0  0
    4.4255    0.4815   -0.2652 C   0  0  0  0  0  0  0  0  0  0  0  0
    5.3048    1.5112    0.0282 C   0  0  0  0  0  0  0  0  0  0  0  0
    4.9157    2.6857    0.5151 N   0  0  0  0  0  0  0  0  0  0  0  0
    4.8953   -0.8321   -0.8270 C   0  0  0  0  0  0  0  0  0  0  0  0
    6.3137   -0.8175   -0.9441 O   0  0  0  0  0  0  0  0  0  0  0  0
    7.1010   -2.1972   -1.1192 P   0  0  1  0  0  0  0  0  0  0  0  0
    8.5311   -1.5578   -1.3994 O   0  0  0  0  0  0  0  0  0  0  0  0
    7.1415   -2.8943    0.3171 O   0  0  0  0  0  0  0  0  0  0  0  0
    6.5496   -3.1399   -2.1099 O   0  0  0  0  0  0  0  0  0  0  0  0
   -7.9224    2.6505    0.9500 H   0  0  0  0  0  0  0  0  0  0  0  0
   -9.4112    0.7450    1.4291 H   0  0  0  0  0  0  0  0  0  0  0  0
   -8.5862   -1.5719    1.1251 H   0  0  0  0  0  0  0  0  0  0  0  0
   -6.3002   -1.9728    0.3207 H   0  0  0  0  0  0  0  0  0  0  0  0
   -3.9639   -1.3004    1.2023 H   0  0  0  0  0  0  0  0  0  0  0  0
   -2.3601   -1.4394   -1.2680 H   0  0  0  0  0  0  0  0  0  0  0  0
   -2.2299   -2.4931    0.1284 H   0  0  0  0  0  0  0  0  0  0  0  0
    0.0222   -2.1388    0.1147 H   0  0  0  0  0  0  0  0  0  0  0  0
    1.4910   -0.8581    1.5226 H   0  0  0  0  0  0  0  0  0  0  0  0
    1.4627    0.0244   -1.2707 H   0  0  0  0  0  0  0  0  0  0  0  0
    2.4490   -1.2906   -0.6618 H   0  0  0  0  0  0  0  0  0  0  0  0
    0.8762    1.3852    0.8338 H   0  0  0  0  0  0  0  0  0  0  0  0
    2.5365    4.7562    0.6369 H   0  0  0  0  0  0  0  0  0  0  0  0
    2.7272    4.1419    2.2684 H   0  0  0  0  0  0  0  0  0  0  0  0
    4.1072    4.8681    1.4375 H   0  0  0  0  0  0  0  0  0  0  0  0
    6.3689    1.3954   -0.1311 H   0  0  0  0  0  0  0  0  0  0  0  0
    4.5707   -1.6462   -0.1698 H   0  0  0  0  0  0  0  0  0  0  0  0
    4.4542   -1.0116   -1.8112 H   0  0  0  0  0  0  0  0  0  0  0  0
    9.2231   -2.2056   -1.5916 H   0  0  0  0  0  0  0  0  0  0  0  0
    7.5523   -2.3802    1.0254 H   0  0  0  0  0  0  0  0  0  0  0  0
  1  2  1  0
  2  3  2  0
  2  4  1  0
  4  5  2  0
  4  9  1  0
  5  6  1  0
  5 33  1  0
  6  7  2  0
  6 34  1  0
  7  8  1  0
  7 35  1  0
  8  9  2  0
  8 36  1  0
  9 10  1  0
 10 11  2  0
 10 12  1  0
 12 13  1  0
 12 37  1  0
 13 14  1  0
 13 38  1  0
 13 39  1  0
 14 15  2  0
 14 16  1  0
 16 17  1  0
 16 40  1  0
 17 18  1  0
 17 41  1  0
 18 19  1  0
 18 42  1  0
 18 43  1  0
 19 20  2  0
 19 24  1  0
 20 21  1  0
 20 22  1  0
 21 44  1  0
 22 23  1  0
 22 26  2  0
 23 45  1  0
 23 46  1  0
 23 47  1  0
 24 25  2  0
 24 27  1  0
 25 26  1  0
 25 48  1  0
 27 28  1  0
 27 49  1  0
 27 50  1  0
 29 28  1  1
 29 30  1  0
 29 31  1  0
 29 32  2  0
 30 51  1  0
 31 52  1  0
M  CHG  2   1  -1   2   1
M  END
