
     RDKit          3D

 40 41  0  0  0  0  0  0  0  0999 V2000
   -0.4829   -0.2264   -4.1061 C   0  0  0  0  0  0  0  0  0  0  0  0
    0.8184   -0.1189   -4.3297 N   0  0  0  0  0  0  0  0  0  0  0  0
    1.2480   -0.1413   -5.5767 C   0  0  0  0  0  0  0  0  0  0  0  0
    0.4018   -0.2945   -6.6720 C   0  0  0  0  0  0  0  0  0  0  0  0
   -0.9684   -0.4329   -6.4330 C   0  0  0  0  0  0  0  0  0  0  0  0
   -1.4187   -0.3946   -5.1364 C   0  0  0  0  0  0  0  0  0  0  0  0
    0.9302   -0.3186   -7.9912 C   0  0  0  0  0  0  0  0  0  0  0  0
    1.3625   -0.3397   -9.0596 N   0  0  0  0  0  0  0  0  0  0  0  0
   -0.9451   -0.2357   -2.8073 N   0  0  0  0  0  0  0  0  0  0  0  0
   -0.4007    0.3521   -1.6906 C   0  0  0  0  0  0  0  0  0  0  0  0
    0.7168    1.5864   -1.7226 S   0  0  0  0  0  0  0  0  0  0  0  0
   -0.9134   -0.1215   -0.5553 N   0  0  0  0  0  0  0  0  0  0  0  0
   -0.5719    0.3787    0.7582 C   0  0  0  0  0  0  0  0  0  0  0  0
   -1.4475   -0.2944    1.8113 C   0  0  0  0  0  0  0  0  0  0  0  0
   -1.1168    0.2321    3.1769 C   0  0  0  0  0  0  0  0  0  0  0  0
   -1.7122    1.3637    3.5610 N   0  0  0  0  0  0  0  0  0  0  0  0
   -1.4134    1.8594    4.7497 C   0  0  0  0  0  0  0  0  0  0  0  0
   -0.5189    1.2792    5.6377 C   0  0  0  0  0  0  0  0  0  0  0  0
    0.1144    0.1009    5.2586 C   0  0  0  0  0  0  0  0  0  0  0  0
   -0.2083   -0.4029    3.9965 C   0  0  0  0  0  0  0  0  0  0  0  0
    0.9935   -0.5875    5.9776 O   0  0  0  0  0  0  0  0  0  0  0  0
    1.3628   -0.0875    7.2647 C   0  0  0  0  0  0  0  0  0  0  0  0
    2.3675   -1.0385    7.8655 C   0  0  0  0  0  0  0  0  0  0  0  0
    0.3935   -1.5309    3.5929 F   0  0  0  0  0  0  0  0  0  0  0  0
    2.3180   -0.0504   -5.7242 H   0  0  0  0  0  0  0  0  0  0  0  0
   -1.6632   -0.5566   -7.2521 H   0  0  0  0  0  0  0  0  0  0  0  0
   -2.4743   -0.4829   -4.9178 H   0  0  0  0  0  0  0  0  0  0  0  0
   -1.8543   -0.6597   -2.6863 H   0  0  0  0  0  0  0  0  0  0  0  0
   -1.5072   -0.9380   -0.5967 H   0  0  0  0  0  0  0  0  0  0  0  0
   -0.7168    1.4600    0.7858 H   0  0  0  0  0  0  0  0  0  0  0  0
    0.4858    0.1926    0.9619 H   0  0  0  0  0  0  0  0  0  0  0  0
   -1.3209   -1.3775    1.7659 H   0  0  0  0  0  0  0  0  0  0  0  0
   -2.4976   -0.0783    1.6069 H   0  0  0  0  0  0  0  0  0  0  0  0
   -1.9131    2.7791    5.0312 H   0  0  0  0  0  0  0  0  0  0  0  0
   -0.3348    1.7478    6.5939 H   0  0  0  0  0  0  0  0  0  0  0  0
    0.4757   -0.0116    7.9004 H   0  0  0  0  0  0  0  0  0  0  0  0
    1.7897    0.9143    7.1613 H   0  0  0  0  0  0  0  0  0  0  0  0
    2.6700   -0.6635    8.8425 H   0  0  0  0  0  0  0  0  0  0  0  0
    1.9433   -2.0326    8.0046 H   0  0  0  0  0  0  0  0  0  0  0  0
    3.2606   -1.1214    7.2466 H   0  0  0  0  0  0  0  0  0  0  0  0
  1  2  2  0
  1  6  1  0
  1  9  1  0
  2  3  1  0
  3  4  2  0
  3 25  1  0
  4  5  1  0
  4  7  1  0
  5  6  2  0
  5 26  1  0
  6 27  1  0
  7  8  3  0
  9 10  1  0
  9 28  1  0
 10 11  2  0
 10 12  1  0
 12 13  1  0
 12 29  1  0
 13 14  1  0
 13 30  1  0
 13 31  1  0
 14 15  1  0
 14 32  1  0
 14 33  1  0
 15 16  2  0
 15 20  1  0
 16 17  1  0
 17 18  2  0
 17 34  1  0
 18 19  1  0
 18 35  1  0
 19 20  2  0
 19 21  1  0
 20 24  1  0
 21 22  1  0
 22 23  1  0
 22 36  1  0
 22 37  1  0
 23 38  1  0
 23 39  1  0
 23 40  1  0
M  END
