
     RDKit          3D

 87 93  0  0  0  0  0  0  0  0999 V2000
    6.2683    1.5514   -1.2720 C   0  0  0  0  0  0  0  0  0  0  0  0
    3.0933    0.9381   -0.0560 C   0  0  0  0  0  0  0  0  0  0  0  0
    4.8773    1.5306    0.8410 C   0  0  0  0  0  0  0  0  0  0  0  0
    6.6837   -1.5503   -1.7641 C   0  0  2  0  0  0  0  0  0  0  0  0
    5.2651   -1.7863   -2.2355 C   0  0  0  0  0  0  0  0  0  0  0  0
    3.2267   -2.2915   -1.1158 C   0  0  0  0  0  0  0  0  0  0  0  0
    9.4998   -1.5792   -0.0523 Cl  0  0  0  0  0  0  0  0  0  0  0  0
    9.2622   -0.0232    0.6629 C   0  0  0  0  0  0  0  0  0  0  0  0
    8.2802    0.8664    0.2133 C   0  0  0  0  0  0  0  0  0  0  0  0
    8.2295    2.1071    0.8382 C   0  0  0  0  0  0  0  0  0  0  0  0
    9.0772    2.4591    1.8769 C   0  0  0  0  0  0  0  0  0  0  0  0
   10.0172    1.5423    2.3046 C   0  0  0  0  0  0  0  0  0  0  0  0
   11.0868    1.9430    3.5985 Cl  0  0  0  0  0  0  0  0  0  0  0  0
   10.1215    0.3005    1.7003 C   0  0  0  0  0  0  0  0  0  0  0  0
    7.3436    0.4884   -0.9251 C   0  0  1  0  0  0  0  0  0  0  0  0
    5.0677    1.4260   -0.4780 N   0  0  0  0  0  0  0  0  0  0  0  0
    3.9254    1.0428   -1.0613 N   0  0  0  0  0  0  0  0  0  0  0  0
    3.6338    1.2342    1.1443 N   0  0  0  0  0  0  0  0  0  0  0  0
    6.7166   -0.7194   -0.6146 O   0  0  0  0  0  0  0  0  0  0  0  0
    4.5697   -2.4391   -1.1945 O   0  0  0  0  0  0  0  0  0  0  0  0
    2.6331   -2.5936    0.1094 C   0  0  0  0  0  0  0  0  0  0  0  0
    1.2721   -2.4502    0.2864 C   0  0  0  0  0  0  0  0  0  0  0  0
    0.4452   -1.9775   -0.7422 C   0  0  0  0  0  0  0  0  0  0  0  0
    1.0494   -1.7001   -1.9667 C   0  0  0  0  0  0  0  0  0  0  0  0
    2.4179   -1.8697   -2.1594 C   0  0  0  0  0  0  0  0  0  0  0  0
   -0.9334   -1.8300   -0.5128 N   0  0  0  0  0  0  0  0  0  0  0  0
   -1.7627   -1.5537   -1.6683 C   0  0  0  0  0  0  0  0  0  0  0  0
   -3.2299   -1.6855   -1.3103 C   0  0  0  0  0  0  0  0  0  0  0  0
   -3.5541   -0.7902   -0.2071 N   0  0  0  0  0  0  0  0  0  0  0  0
   -4.9145   -0.5442    0.0023 C   0  0  0  0  0  0  0  0  0  0  0  0
   -5.6071    0.3680   -0.8039 C   0  0  0  0  0  0  0  0  0  0  0  0
   -4.6930    1.3216   -2.1488 Br  0  0  0  0  0  0  0  0  0  0  0  0
   -6.9535    0.6331   -0.6177 C   0  0  0  0  0  0  0  0  0  0  0  0
   -5.6380   -1.1542    1.0297 C   0  0  0  0  0  0  0  0  0  0  0  0
   -6.9728   -0.8710    1.2583 C   0  0  0  0  0  0  0  0  0  0  0  0
   -7.6330    0.0211    0.4266 C   0  0  0  0  0  0  0  0  0  0  0  0
   -8.9872    0.3405    0.6440 N   0  0  0  0  0  0  0  0  0  0  0  0
  -10.0182   -0.5735    0.8209 C   0  0  0  0  0  0  0  0  0  0  0  0
  -11.1073    0.2260    0.9585 N   0  0  0  0  0  0  0  0  0  0  0  0
  -12.4754   -0.2022    1.1934 C   0  0  1  0  0  0  0  0  0  0  0  0
  -12.9288    0.2046    2.5882 C   0  0  0  0  0  0  0  0  0  0  0  0
  -13.4033    0.3275    0.1038 C   0  0  0  0  0  0  0  0  0  0  0  0
  -12.9935   -0.0818   -1.3028 C   0  0  0  0  0  0  0  0  0  0  0  0
  -10.8037    1.5465    0.8777 N   0  0  0  0  0  0  0  0  0  0  0  0
   -9.5363    1.5914    0.6846 C   0  0  0  0  0  0  0  0  0  0  0  0
   -9.9401   -1.7894    0.8387 O   0  0  0  0  0  0  0  0  0  0  0  0
   -2.7568   -1.1216    0.9581 C   0  0  0  0  0  0  0  0  0  0  0  0
   -1.2875   -0.9766    0.6137 C   0  0  0  0  0  0  0  0  0  0  0  0
    7.5225   -0.7866   -2.7990 C   0  0  0  0  0  0  0  0  0  0  0  0
    8.1258    0.2607   -2.0600 O   0  0  0  0  0  0  0  0  0  0  0  0
    6.6595    2.5660   -1.2237 H   0  0  0  0  0  0  0  0  0  0  0  0
    5.9547    1.4013   -2.3041 H   0  0  0  0  0  0  0  0  0  0  0  0
    2.0671    0.6314   -0.1944 H   0  0  0  0  0  0  0  0  0  0  0  0
    5.6457    1.8201    1.5402 H   0  0  0  0  0  0  0  0  0  0  0  0
    7.1480   -2.5048   -1.5016 H   0  0  0  0  0  0  0  0  0  0  0  0
    4.7887   -0.8348   -2.4875 H   0  0  0  0  0  0  0  0  0  0  0  0
    5.2866   -2.4026   -3.1431 H   0  0  0  0  0  0  0  0  0  0  0  0
    7.5168    2.8542    0.5206 H   0  0  0  0  0  0  0  0  0  0  0  0
    8.9983    3.4351    2.3338 H   0  0  0  0  0  0  0  0  0  0  0  0
   10.8673   -0.4094    2.0298 H   0  0  0  0  0  0  0  0  0  0  0  0
    3.2468   -2.9433    0.9306 H   0  0  0  0  0  0  0  0  0  0  0  0
    0.8460   -2.7131    1.2464 H   0  0  0  0  0  0  0  0  0  0  0  0
    0.4688   -1.3381   -2.8041 H   0  0  0  0  0  0  0  0  0  0  0  0
    2.8280   -1.6414   -3.1344 H   0  0  0  0  0  0  0  0  0  0  0  0
   -1.5870   -0.5454   -2.0745 H   0  0  0  0  0  0  0  0  0  0  0  0
   -1.5366   -2.2738   -2.4567 H   0  0  0  0  0  0  0  0  0  0  0  0
   -3.8280   -1.4431   -2.1878 H   0  0  0  0  0  0  0  0  0  0  0  0
   -3.4513   -2.7286   -1.0388 H   0  0  0  0  0  0  0  0  0  0  0  0
   -7.4724    1.3263   -1.2673 H   0  0  0  0  0  0  0  0  0  0  0  0
   -5.1414   -1.8638    1.6783 H   0  0  0  0  0  0  0  0  0  0  0  0
   -7.4888   -1.3421    2.0830 H   0  0  0  0  0  0  0  0  0  0  0  0
  -12.4493   -1.2921    1.1295 H   0  0  0  0  0  0  0  0  0  0  0  0
  -13.9356   -0.1674    2.7757 H   0  0  0  0  0  0  0  0  0  0  0  0
  -12.2704   -0.2078    3.3528 H   0  0  0  0  0  0  0  0  0  0  0  0
  -12.9457    1.2897    2.6950 H   0  0  0  0  0  0  0  0  0  0  0  0
  -14.4051   -0.0501    0.3213 H   0  0  0  0  0  0  0  0  0  0  0  0
  -13.4643    1.4165    0.1786 H   0  0  0  0  0  0  0  0  0  0  0  0
  -12.0320    0.3477   -1.5859 H   0  0  0  0  0  0  0  0  0  0  0  0
  -12.9150   -1.1667   -1.3939 H   0  0  0  0  0  0  0  0  0  0  0  0
  -13.7281    0.2585   -2.0327 H   0  0  0  0  0  0  0  0  0  0  0  0
   -8.9584    2.4962    0.5822 H   0  0  0  0  0  0  0  0  0  0  0  0
   -2.9975   -0.4351    1.7710 H   0  0  0  0  0  0  0  0  0  0  0  0
   -2.9409   -2.1465    1.3146 H   0  0  0  0  0  0  0  0  0  0  0  0
   -0.7044   -1.2538    1.4901 H   0  0  0  0  0  0  0  0  0  0  0  0
   -1.0698    0.0795    0.3925 H   0  0  0  0  0  0  0  0  0  0  0  0
    8.3087   -1.4006   -3.2359 H   0  0  0  0  0  0  0  0  0  0  0  0
    6.9044   -0.3905   -3.6136 H   0  0  0  0  0  0  0  0  0  0  0  0
 43 42  1  0
 42 40  1  0
 40 41  1  0
 40 39  1  0
 39 44  1  0
 39 38  1  0
 44 45  2  0
 46 38  2  0
 38 37  1  0
 45 37  1  0
 37 36  1  0
 32 31  1  0
 33 36  1  0
 33 31  2  0
 36 35  2  0
 31 30  1  0
 47 48  1  0
 47 29  1  0
 35 34  1  0
 30 34  2  0
 30 29  1  0
 24 25  2  0
 24 23  1  0
 25  6  1  0
 48 26  1  0
 29 28  1  0
 26 23  1  0
 26 27  1  0
  5 20  1  0
  5  4  1  0
 23 22  2  0
  6 20  1  0
  6 21  2  0
 19  4  1  0
 19 15  1  0
 28 27  1  0
 15  1  1  6
  1 16  1  0
  4 49  1  0
 22 21  1  0
 15 50  1  0
 15  9  1  0
 49 50  1  0
 16 17  1  0
 16  3  1  0
 10  9  1  0
 10 11  2  0
 17  2  2  0
  3 18  2  0
  9  8  2  0
 11 12  1  0
  2 18  1  0
  8  7  1  0
  8 14  1  0
 12 14  2  0
 12 13  1  0
  1 51  1  0
  1 52  1  0
  2 53  1  0
  3 54  1  0
  4 55  1  1
  5 56  1  0
  5 57  1  0
 10 58  1  0
 11 59  1  0
 14 60  1  0
 21 61  1  0
 22 62  1  0
 24 63  1  0
 25 64  1  0
 27 65  1  0
 27 66  1  0
 28 67  1  0
 28 68  1  0
 33 69  1  0
 34 70  1  0
 35 71  1  0
 40 72  1  1
 41 73  1  0
 41 74  1  0
 41 75  1  0
 42 76  1  0
 42 77  1  0
 43 78  1  0
 43 79  1  0
 43 80  1  0
 45 81  1  0
 47 82  1  0
 47 83  1  0
 48 84  1  0
 48 85  1  0
 49 86  1  0
 49 87  1  0
M  END
