
     RDKit          3D

 22 23  0  0  0  0  0  0  0  0999 V2000
    3.9583    0.5815    0.7026 N   0  0  0  0  0  0  0  0  0  0  0  0
    2.7750    0.8388    0.3418 C   0  0  0  0  0  0  0  0  0  0  0  0
    2.1438    0.1760   -0.8467 C   0  0  0  0  0  0  0  0  0  0  0  0
    0.8552   -0.4872   -0.4757 C   0  0  0  0  0  0  0  0  0  0  0  0
   -0.4027    0.1540   -0.2330 C   0  0  0  0  0  0  0  0  0  0  0  0
   -0.8392    1.4830   -0.2868 C   0  0  0  0  0  0  0  0  0  0  0  0
   -2.1585    1.7659    0.0082 C   0  0  0  0  0  0  0  0  0  0  0  0
   -3.0573    0.7438    0.3581 C   0  0  0  0  0  0  0  0  0  0  0  0
   -2.6558   -0.5768    0.4185 C   0  0  0  0  0  0  0  0  0  0  0  0
   -1.3229   -0.8582    0.1206 C   0  0  0  0  0  0  0  0  0  0  0  0
   -0.6509   -2.0443    0.0939 N   0  0  0  0  0  0  0  0  0  0  0  0
    0.6496   -1.8208   -0.2601 C   0  0  0  0  0  0  0  0  0  0  0  0
    4.2036    1.1243    1.5261 H   0  0  0  0  0  0  0  0  0  0  0  0
    2.1319    1.5508    0.8682 H   0  0  0  0  0  0  0  0  0  0  0  0
    1.9639    0.9387   -1.6126 H   0  0  0  0  0  0  0  0  0  0  0  0
    2.8468   -0.5435   -1.2688 H   0  0  0  0  0  0  0  0  0  0  0  0
   -0.1551    2.2797   -0.5553 H   0  0  0  0  0  0  0  0  0  0  0  0
   -2.5090    2.7894   -0.0275 H   0  0  0  0  0  0  0  0  0  0  0  0
   -4.0850    0.9962    0.5853 H   0  0  0  0  0  0  0  0  0  0  0  0
   -3.3512   -1.3626    0.6862 H   0  0  0  0  0  0  0  0  0  0  0  0
   -1.0461   -2.9481    0.2906 H   0  0  0  0  0  0  0  0  0  0  0  0
    1.3455   -2.6412   -0.3402 H   0  0  0  0  0  0  0  0  0  0  0  0
  1  2  2  0
  1 13  1  0
  2  3  1  0
  2 14  1  0
  3  4  1  0
  3 15  1  0
  3 16  1  0
  4  5  1  0
  4 12  2  0
  5  6  2  0
  5 10  1  0
  6  7  1  0
  6 17  1  0
  7  8  2  0
  7 18  1  0
  8  9  1  0
  8 19  1  0
  9 10  2  0
  9 20  1  0
 10 11  1  0
 11 12  1  0
 11 21  1  0
 12 22  1  0
M  END
