
     RDKit          3D

 24 25  0  0  0  0  0  0  0  0999 V2000
    4.5486    0.2442   -0.0481 C   0  0  0  0  0  0  0  0  0  0  0  0
    3.0625    0.2345   -0.0341 C   0  0  0  0  0  0  0  0  0  0  0  0
   -0.5885   -0.9148   -0.0489 C   0  0  0  0  0  0  0  0  0  0  0  0
    0.7056   -0.4251   -0.0356 C   0  0  0  0  0  0  0  0  0  0  0  0
   -1.3762    1.3738    0.0924 C   0  0  0  0  0  0  0  0  0  0  0  0
   -0.0754    1.8449    0.1053 C   0  0  0  0  0  0  0  0  0  0  0  0
    0.9844    0.9497    0.0386 C   0  0  0  0  0  0  0  0  0  0  0  0
   -1.6388   -0.0027    0.0141 C   0  0  0  0  0  0  0  0  0  0  0  0
   -4.0059    0.3236    0.0014 C   0  0  0  0  0  0  0  0  0  0  0  0
   -5.2424   -0.5400   -0.0697 C   0  0  0  0  0  0  0  0  0  0  0  0
   -2.8750   -0.5333   -0.0061 O   0  0  0  0  0  0  0  0  0  0  0  0
    2.1998   -1.2951   -0.1083 S   0  0  0  0  0  0  0  0  0  0  0  0
    2.3201    1.2779    0.0357 N   0  0  0  0  0  0  0  0  0  0  0  0
    4.9380   -0.2782   -0.9217 H   0  0  0  0  0  0  0  0  0  0  0  0
    4.9086    1.2699   -0.0647 H   0  0  0  0  0  0  0  0  0  0  0  0
    4.9511   -0.2518    0.8355 H   0  0  0  0  0  0  0  0  0  0  0  0
   -0.7933   -1.9756   -0.1081 H   0  0  0  0  0  0  0  0  0  0  0  0
   -2.1817    2.0920    0.1420 H   0  0  0  0  0  0  0  0  0  0  0  0
    0.1156    2.9081    0.1633 H   0  0  0  0  0  0  0  0  0  0  0  0
   -3.9719    1.0076   -0.8534 H   0  0  0  0  0  0  0  0  0  0  0  0
   -4.0203    0.9317    0.9121 H   0  0  0  0  0  0  0  0  0  0  0  0
   -5.3109   -1.2089    0.7877 H   0  0  0  0  0  0  0  0  0  0  0  0
   -6.1284    0.0931   -0.0717 H   0  0  0  0  0  0  0  0  0  0  0  0
   -5.2564   -1.1378   -0.9807 H   0  0  0  0  0  0  0  0  0  0  0  0
 10  9  1  0
  9 11  1  0
 11  8  1  0
  5  8  2  0
  5  6  1  0
  8  3  1  0
  6  7  2  0
  3  4  2  0
  7  4  1  0
  7 13  1  0
  4 12  1  0
 13  2  2  0
  2 12  1  0
  2  1  1  0
  1 14  1  0
  1 15  1  0
  1 16  1  0
  3 17  1  0
  5 18  1  0
  6 19  1  0
  9 20  1  0
  9 21  1  0
 10 22  1  0
 10 23  1  0
 10 24  1  0
M  END
