
     RDKit          3D

148156  0  0  0  0  0  0  0  0999 V2000
   16.4392    2.2915    2.6901 O   0  0  0  0  0  0  0  0  0  0  0  0
   17.1220    2.9023    1.6223 C   0  0  2  0  0  0  0  0  0  0  0  0
   17.8931    4.0857    2.1907 C   0  0  1  0  0  0  0  0  0  0  0  0
   18.8856    3.6847    3.1032 O   0  0  0  0  0  0  0  0  0  0  0  0
   18.5724    4.8667    1.0690 C   0  0  1  0  0  0  0  0  0  0  0  0
   19.5915    4.1191    0.4533 O   0  0  0  0  0  0  0  0  0  0  0  0
   17.5275    5.2376    0.0219 C   0  0  1  0  0  0  0  0  0  0  0  0
   18.1311    5.9678   -1.1589 C   0  0  0  0  0  0  0  0  0  0  0  0
   17.0857    6.4636   -1.9612 O   0  0  0  0  0  0  0  0  0  0  0  0
   16.8598    4.0878   -0.4556 O   0  0  0  0  0  0  0  0  0  0  0  0
   16.1567    3.4062    0.5506 C   0  0  1  0  0  0  0  0  0  0  0  0
   15.5281    2.3166   -0.0077 O   0  0  0  0  0  0  0  0  0  0  0  0
   14.3747    2.6011   -0.7820 C   0  0  0  0  0  0  0  0  0  0  0  0
   13.5567    1.3330   -0.9140 C   0  0  0  0  0  0  0  0  0  0  0  0
   12.3165    1.5571   -1.7799 C   0  0  0  0  0  0  0  0  0  0  0  0
   11.4861    0.3267   -1.8957 C   0  0  0  0  0  0  0  0  0  0  0  0
   10.2696    0.0404   -1.3318 C   0  0  0  0  0  0  0  0  0  0  0  0
   11.8797   -0.7660   -2.5884 N   0  0  0  0  0  0  0  0  0  0  0  0
   10.9864   -1.6874   -2.4809 N   0  0  0  0  0  0  0  0  0  0  0  0
   10.0082   -1.2203   -1.7244 N   0  0  0  0  0  0  0  0  0  0  0  0
    8.8428   -2.0349   -1.4481 C   0  0  2  0  0  0  0  0  0  0  0  0
    7.5915   -1.4806   -2.1506 C   0  0  2  0  0  0  0  0  0  0  0  0
    6.4820   -2.2844   -1.8266 O   0  0  0  0  0  0  0  0  0  0  0  0
    7.7426   -1.4900   -3.6581 C   0  0  0  0  0  0  0  0  0  0  0  0
    6.6067   -0.8854   -4.2225 O   0  0  0  0  0  0  0  0  0  0  0  0
    8.6155   -2.1407    0.0561 C   0  0  2  0  0  0  0  0  0  0  0  0
    9.7509   -2.7335    0.6189 O   0  0  0  0  0  0  0  0  0  0  0  0
    7.3465   -2.9399    0.3183 C   0  0  1  0  0  0  0  0  0  0  0  0
    7.1176   -2.9289    1.7042 O   0  0  0  0  0  0  0  0  0  0  0  0
    6.1850   -2.2967   -0.4453 C   0  0  2  0  0  0  0  0  0  0  0  0
    4.9101   -3.0350   -0.2448 C   0  0  0  0  0  0  0  0  0  0  0  0
    3.6722   -2.5461    0.0776 C   0  0  0  0  0  0  0  0  0  0  0  0
    4.8094   -4.3785   -0.3511 N   0  0  0  0  0  0  0  0  0  0  0  0
    3.5971   -4.7327   -0.1179 N   0  0  0  0  0  0  0  0  0  0  0  0
    2.8949   -3.6392    0.1437 N   0  0  0  0  0  0  0  0  0  0  0  0
    1.4782   -3.7337    0.4296 C   0  0  2  0  0  0  0  0  0  0  0  0
    0.6372   -3.1720   -0.7287 C   0  0  2  0  0  0  0  0  0  0  0  0
   -0.7311   -3.2614   -0.3891 O   0  0  0  0  0  0  0  0  0  0  0  0
    0.8429   -3.9518   -2.0101 C   0  0  0  0  0  0  0  0  0  0  0  0
    0.1001   -3.3332   -3.0279 O   0  0  0  0  0  0  0  0  0  0  0  0
    1.1527   -3.0099    1.7320 C   0  0  2  0  0  0  0  0  0  0  0  0
    1.8876   -3.6155    2.7534 O   0  0  0  0  0  0  0  0  0  0  0  0
   -0.3504   -3.0789    1.9828 C   0  0  1  0  0  0  0  0  0  0  0  0
   -0.6390   -2.3059    3.1147 O   0  0  0  0  0  0  0  0  0  0  0  0
   -1.0652   -2.5242    0.7486 C   0  0  2  0  0  0  0  0  0  0  0  0
   -2.4959   -2.5827    0.8971 N   0  0  0  0  0  0  0  0  0  0  0  0
   -3.3900   -1.5910    0.7393 C   0  0  0  0  0  0  0  0  0  0  0  0
   -3.0990   -3.7168    1.2266 N   0  0  0  0  0  0  0  0  0  0  0  0
   -4.3599   -3.4899    1.2817 N   0  0  0  0  0  0  0  0  0  0  0  0
   -4.5937   -2.1872    0.9951 C   0  0  0  0  0  0  0  0  0  0  0  0
   -5.9593   -1.6011    0.9617 C   0  0  1  0  0  0  0  0  0  0  0  0
   -6.8052   -2.1848   -0.1775 C   0  0  2  0  0  0  0  0  0  0  0  0
   -6.2509   -1.8786   -1.4303 O   0  0  0  0  0  0  0  0  0  0  0  0
   -8.1995   -1.5726   -0.1296 C   0  0  1  0  0  0  0  0  0  0  0  0
   -9.0756   -2.1532   -1.0532 O   0  0  0  0  0  0  0  0  0  0  0  0
   -6.5816   -1.8645    2.1995 O   0  0  0  0  0  0  0  0  0  0  0  0
   -7.8346   -1.2396    2.3388 C   0  0  2  0  0  0  0  0  0  0  0  0
   -8.3414   -1.5276    3.7366 C   0  0  0  0  0  0  0  0  0  0  0  0
   -7.4481   -0.9561    4.6578 O   0  0  0  0  0  0  0  0  0  0  0  0
   -8.7888   -1.7808    1.2617 C   0  0  1  0  0  0  0  0  0  0  0  0
  -10.0959   -1.1675    1.3562 N   0  0  0  0  0  0  0  0  0  0  0  0
  -10.4389    0.1207    1.1703 C   0  0  0  0  0  0  0  0  0  0  0  0
  -11.1475   -1.8870    1.7076 N   0  0  0  0  0  0  0  0  0  0  0  0
  -12.1670   -1.1021    1.7538 N   0  0  0  0  0  0  0  0  0  0  0  0
  -11.7846    0.1546    1.4316 C   0  0  0  0  0  0  0  0  0  0  0  0
  -12.7340    1.2997    1.3816 C   0  0  0  0  0  0  0  0  0  0  0  0
  -13.6973    1.2194    0.1971 C   0  0  0  0  0  0  0  0  0  0  0  0
  -14.6761    2.3745    0.2256 C   0  0  0  0  0  0  0  0  0  0  0  0
  -15.5575    2.2596   -0.8789 O   0  0  0  0  0  0  0  0  0  0  0  0
  -16.3771    3.3471   -1.0846 C   0  0  2  0  0  0  0  0  0  0  0  0
  -17.3827    3.3440   -0.1054 O   0  0  0  0  0  0  0  0  0  0  0  0
  -18.2574    4.4476   -0.2137 C   0  0  2  0  0  0  0  0  0  0  0  0
  -19.2063    4.4290    0.9658 C   0  0  0  0  0  0  0  0  0  0  0  0
  -18.4672    4.6644    2.1408 O   0  0  0  0  0  0  0  0  0  0  0  0
  -18.9925    4.4284   -1.5493 C   0  0  2  0  0  0  0  0  0  0  0  0
  -19.8463    3.3120   -1.5846 O   0  0  0  0  0  0  0  0  0  0  0  0
  -17.9655    4.3919   -2.6776 C   0  0  2  0  0  0  0  0  0  0  0  0
  -18.6650    4.2959   -3.8938 O   0  0  0  0  0  0  0  0  0  0  0  0
  -16.9966    3.2329   -2.4764 C   0  0  1  0  0  0  0  0  0  0  0  0
  -16.0221    3.3143   -3.4878 O   0  0  0  0  0  0  0  0  0  0  0  0
   16.0881    1.4478    2.3886 H   0  0  0  0  0  0  0  0  0  0  0  0
   17.8278    2.2076    1.1457 H   0  0  0  0  0  0  0  0  0  0  0  0
   17.1711    4.7631    2.6739 H   0  0  0  0  0  0  0  0  0  0  0  0
   18.4825    3.1017    3.7551 H   0  0  0  0  0  0  0  0  0  0  0  0
   18.9670    5.8030    1.4916 H   0  0  0  0  0  0  0  0  0  0  0  0
   20.1926    3.8148    1.1415 H   0  0  0  0  0  0  0  0  0  0  0  0
   16.8099    5.9152    0.5133 H   0  0  0  0  0  0  0  0  0  0  0  0
   18.7615    6.7773   -0.7678 H   0  0  0  0  0  0  0  0  0  0  0  0
   18.7848    5.2899   -1.7186 H   0  0  0  0  0  0  0  0  0  0  0  0
   17.4760    6.8785   -2.7354 H   0  0  0  0  0  0  0  0  0  0  0  0
   15.4174    4.0893    1.0148 H   0  0  0  0  0  0  0  0  0  0  0  0
   13.7789    3.3844   -0.2959 H   0  0  0  0  0  0  0  0  0  0  0  0
   14.6575    2.9750   -1.7723 H   0  0  0  0  0  0  0  0  0  0  0  0
   14.1691    0.5435   -1.3568 H   0  0  0  0  0  0  0  0  0  0  0  0
   13.2534    0.9890    0.0781 H   0  0  0  0  0  0  0  0  0  0  0  0
   11.7067    2.3582   -1.3569 H   0  0  0  0  0  0  0  0  0  0  0  0
   12.6201    1.8880   -2.7767 H   0  0  0  0  0  0  0  0  0  0  0  0
    9.6116    0.6224   -0.7090 H   0  0  0  0  0  0  0  0  0  0  0  0
    9.0677   -3.0276   -1.8480 H   0  0  0  0  0  0  0  0  0  0  0  0
    7.4213   -0.4459   -1.8088 H   0  0  0  0  0  0  0  0  0  0  0  0
    8.6602   -0.9558   -3.9290 H   0  0  0  0  0  0  0  0  0  0  0  0
    7.8672   -2.5289   -3.9933 H   0  0  0  0  0  0  0  0  0  0  0  0
    6.7189   -0.8759   -5.1772 H   0  0  0  0  0  0  0  0  0  0  0  0
    8.4541   -1.1273    0.4597 H   0  0  0  0  0  0  0  0  0  0  0  0
    9.6314   -2.7660    1.5739 H   0  0  0  0  0  0  0  0  0  0  0  0
    7.4914   -3.9617   -0.0578 H   0  0  0  0  0  0  0  0  0  0  0  0
    6.5787   -3.6910    1.9366 H   0  0  0  0  0  0  0  0  0  0  0  0
    6.0489   -1.2684   -0.0772 H   0  0  0  0  0  0  0  0  0  0  0  0
    3.3219   -1.5443    0.2603 H   0  0  0  0  0  0  0  0  0  0  0  0
    1.2659   -4.8001    0.5472 H   0  0  0  0  0  0  0  0  0  0  0  0
    0.9141   -2.1190   -0.8960 H   0  0  0  0  0  0  0  0  0  0  0  0
    1.9135   -3.9675   -2.2422 H   0  0  0  0  0  0  0  0  0  0  0  0
    0.5359   -4.9931   -1.8437 H   0  0  0  0  0  0  0  0  0  0  0  0
    0.2505   -3.8200   -3.8432 H   0  0  0  0  0  0  0  0  0  0  0  0
    1.4231   -1.9468    1.6228 H   0  0  0  0  0  0  0  0  0  0  0  0
    1.7554   -3.1106    3.5628 H   0  0  0  0  0  0  0  0  0  0  0  0
   -0.6348   -4.1297    2.1183 H   0  0  0  0  0  0  0  0  0  0  0  0
   -1.3796   -2.6969    3.5875 H   0  0  0  0  0  0  0  0  0  0  0  0
   -0.8098   -1.4632    0.6264 H   0  0  0  0  0  0  0  0  0  0  0  0
   -3.1172   -0.5849    0.4702 H   0  0  0  0  0  0  0  0  0  0  0  0
   -5.8659   -0.5163    0.7991 H   0  0  0  0  0  0  0  0  0  0  0  0
   -6.8946   -3.2699   -0.0275 H   0  0  0  0  0  0  0  0  0  0  0  0
   -5.5668   -2.5220   -1.6378 H   0  0  0  0  0  0  0  0  0  0  0  0
   -8.0940   -0.4894   -0.3077 H   0  0  0  0  0  0  0  0  0  0  0  0
   -8.7463   -1.9709   -1.9395 H   0  0  0  0  0  0  0  0  0  0  0  0
   -7.7277   -0.1497    2.2089 H   0  0  0  0  0  0  0  0  0  0  0  0
   -9.3500   -1.1116    3.8415 H   0  0  0  0  0  0  0  0  0  0  0  0
   -8.4291   -2.6154    3.8638 H   0  0  0  0  0  0  0  0  0  0  0  0
   -7.7906   -1.1138    5.5421 H   0  0  0  0  0  0  0  0  0  0  0  0
   -8.9496   -2.8495    1.4308 H   0  0  0  0  0  0  0  0  0  0  0  0
   -9.7380    0.8867    0.8837 H   0  0  0  0  0  0  0  0  0  0  0  0
  -13.3066    1.3312    2.3130 H   0  0  0  0  0  0  0  0  0  0  0  0
  -12.1658    2.2312    1.3355 H   0  0  0  0  0  0  0  0  0  0  0  0
  -13.1326    1.2326   -0.7386 H   0  0  0  0  0  0  0  0  0  0  0  0
  -14.2433    0.2733    0.2329 H   0  0  0  0  0  0  0  0  0  0  0  0
  -15.2334    2.3671    1.1689 H   0  0  0  0  0  0  0  0  0  0  0  0
  -14.1347    3.3288    0.1766 H   0  0  0  0  0  0  0  0  0  0  0  0
  -15.7992    4.2910   -1.0198 H   0  0  0  0  0  0  0  0  0  0  0  0
  -17.6837    5.3888   -0.1798 H   0  0  0  0  0  0  0  0  0  0  0  0
  -19.9630    5.2067    0.8000 H   0  0  0  0  0  0  0  0  0  0  0  0
  -19.7319    3.4683    1.0021 H   0  0  0  0  0  0  0  0  0  0  0  0
  -19.0629    4.5744    2.8897 H   0  0  0  0  0  0  0  0  0  0  0  0
  -19.5622    5.3666   -1.6306 H   0  0  0  0  0  0  0  0  0  0  0  0
  -20.2153    3.2471   -2.4721 H   0  0  0  0  0  0  0  0  0  0  0  0
  -17.3890    5.3299   -2.6304 H   0  0  0  0  0  0  0  0  0  0  0  0
  -18.0313    4.1360   -4.6015 H   0  0  0  0  0  0  0  0  0  0  0  0
  -17.5532    2.2867   -2.5292 H   0  0  0  0  0  0  0  0  0  0  0  0
  -15.5251    2.4905   -3.5032 H   0  0  0  0  0  0  0  0  0  0  0  0
 25 24  1  0
 24 22  1  0
  9  8  1  0
 18 19  2  0
 18 16  1  0
 19 20  1  0
 40 39  1  0
 14 13  1  0
 14 15  1  0
 39 37  1  0
 13 12  1  0
 22 23  1  0
 22 21  1  0
  8  7  1  0
 23 30  1  0
 20 21  1  0
 20 17  1  0
 16 15  1  0
 16 17  2  0
 10  7  1  0
 10 11  1  0
 21 26  1  0
 58 59  1  0
 58 57  1  0
  7  5  1  0
 37 38  1  0
 37 36  1  0
 12 11  1  0
 38 45  1  0
 11  2  1  0
 78 77  1  0
 80 79  1  0
 30 31  1  0
 30 28  1  0
 31 32  2  0
 31 33  1  0
 32 35  1  0
 56 57  1  0
 56 51  1  0
 33 34  2  0
 35 36  1  0
 35 34  1  0
 36 41  1  0
 26 28  1  0
 26 27  1  0
 57 60  1  0
 48 49  2  0
 48 46  1  0
 45 46  1  0
 45 43  1  0
 28 29  1  0
 79 77  1  0
 79 70  1  0
 49 50  1  0
  5  6  1  0
  5  3  1  0
 46 47  1  0
 77 75  1  0
 66 65  1  0
 66 67  1  0
 50 47  2  0
 50 51  1  0
 62 65  2  0
 62 61  1  0
  2  3  1  0
  2  1  1  0
 60 61  1  0
 60 54  1  0
 76 75  1  0
 65 64  1  0
 51 52  1  0
  3  4  1  0
 61 63  1  0
 69 70  1  0
 69 68  1  0
 41 43  1  0
 41 42  1  0
 43 44  1  0
 70 71  1  0
 64 63  2  0
 75 72  1  0
 67 68  1  0
 52 54  1  0
 52 53  1  0
 54 55  1  0
 71 72  1  0
 72 73  1  0
 73 74  1  0
  1 81  1  0
  2 82  1  6
  3 83  1  1
  4 84  1  0
  5 85  1  1
  6 86  1  0
  7 87  1  1
  8 88  1  0
  8 89  1  0
  9 90  1  0
 11 91  1  1
 13 92  1  0
 13 93  1  0
 14 94  1  0
 14 95  1  0
 15 96  1  0
 15 97  1  0
 17 98  1  0
 21 99  1  6
 22100  1  1
 24101  1  0
 24102  1  0
 25103  1  0
 26104  1  1
 27105  1  0
 28106  1  6
 29107  1  0
 30108  1  1
 32109  1  0
 36110  1  1
 37111  1  6
 39112  1  0
 39113  1  0
 40114  1  0
 41115  1  6
 42116  1  0
 43117  1  1
 44118  1  0
 45119  1  6
 47120  1  0
 51121  1  6
 52122  1  1
 53123  1  0
 54124  1  6
 55125  1  0
 57126  1  1
 58127  1  0
 58128  1  0
 59129  1  0
 60130  1  1
 62131  1  0
 66132  1  0
 66133  1  0
 67134  1  0
 67135  1  0
 68136  1  0
 68137  1  0
 70138  1  6
 72139  1  6
 73140  1  0
 73141  1  0
 74142  1  0
 75143  1  6
 76144  1  0
 77145  1  6
 78146  1  0
 79147  1  1
 80148  1  0
M  END
