
     RDKit          3D

 30 30  0  0  0  0  0  0  0  0999 V2000
   -2.7305   -2.5753   -0.5628 Cl  0  0  0  0  0  0  0  0  0  0  0  0
   -1.3251   -1.5999   -0.3378 C   0  0  0  0  0  0  0  0  0  0  0  0
   -1.3128   -0.2122   -0.4746 C   0  0  0  0  0  0  0  0  0  0  0  0
   -2.7588    0.7784   -0.8449 S   0  0  1  0  0  0  0  0  0  0  0  0
   -2.2661    2.0534   -1.3375 O   0  0  0  0  0  0  0  0  0  0  0  0
   -3.6680    0.0114   -1.6706 O   0  0  0  0  0  0  0  0  0  0  0  0
   -3.4976    1.0789    0.5959 N   0  0  0  0  0  0  0  0  0  0  0  0
   -2.7581    1.9087    1.5413 C   0  0  0  0  0  0  0  0  0  0  0  0
   -4.2397   -0.0053    1.2279 C   0  0  0  0  0  0  0  0  0  0  0  0
   -0.1467   -2.2501   -0.0092 C   0  0  0  0  0  0  0  0  0  0  0  0
    1.0333   -1.5575    0.1951 C   0  0  0  0  0  0  0  0  0  0  0  0
    1.0519   -0.1695    0.0679 C   0  0  0  0  0  0  0  0  0  0  0  0
   -0.1302    0.4849   -0.2722 C   0  0  0  0  0  0  0  0  0  0  0  0
    2.1803    0.6274    0.2495 N   0  0  0  0  0  0  0  0  0  0  0  0
    3.4339    0.2518    0.6144 C   0  0  0  0  0  0  0  0  0  0  0  0
    3.7770   -0.8831    0.8527 O   0  0  0  0  0  0  0  0  0  0  0  0
    4.3771    1.4427    0.6814 C   0  0  0  0  0  0  0  0  0  0  0  0
   -2.3242    2.7740    1.0493 H   0  0  0  0  0  0  0  0  0  0  0  0
   -3.4640    2.2698    2.2869 H   0  0  0  0  0  0  0  0  0  0  0  0
   -1.9704    1.3511    2.0575 H   0  0  0  0  0  0  0  0  0  0  0  0
   -3.5895   -0.6954    1.7722 H   0  0  0  0  0  0  0  0  0  0  0  0
   -4.9322    0.4446    1.9374 H   0  0  0  0  0  0  0  0  0  0  0  0
   -4.8198   -0.5596    0.4974 H   0  0  0  0  0  0  0  0  0  0  0  0
   -0.1433   -3.3270    0.0876 H   0  0  0  0  0  0  0  0  0  0  0  0
    1.9213   -2.1118    0.4476 H   0  0  0  0  0  0  0  0  0  0  0  0
   -0.1209    1.5614   -0.3847 H   0  0  0  0  0  0  0  0  0  0  0  0
    2.0311    1.6149    0.0968 H   0  0  0  0  0  0  0  0  0  0  0  0
    4.4827    1.8890   -0.3078 H   0  0  0  0  0  0  0  0  0  0  0  0
    3.9822    2.2039    1.3538 H   0  0  0  0  0  0  0  0  0  0  0  0
    5.9801    0.9620    1.2550 Cl  0  0  0  0  0  0  0  0  0  0  0  0
  5  4  2  0
  1  2  1  0
  4  6  2  0
  4  3  1  0
  4  7  1  1
  2  3  2  0
  2 10  1  0
  3 13  1  0
  7  8  1  0
  7  9  1  0
 10 11  2  0
 13 12  2  0
 11 12  1  0
 12 14  1  0
 14 15  1  0
 15 16  2  0
 15 17  1  0
  8 18  1  0
  8 19  1  0
  8 20  1  0
  9 21  1  0
  9 22  1  0
  9 23  1  0
 10 24  1  0
 11 25  1  0
 13 26  1  0
 14 27  1  0
 17 28  1  0
 17 29  1  0
 17 30  1  0
M  END
