
     RDKit          3D

 90 97  0  0  0  0  0  0  0  0999 V2000
   -7.3088   -2.7212   -1.0918 C   0  0  0  0  0  0  0  0  0  0  0  0
   -7.9261   -3.9265   -0.7804 C   0  0  0  0  0  0  0  0  0  0  0  0
   -7.1847   -5.0950   -0.7302 C   0  0  0  0  0  0  0  0  0  0  0  0
   -5.8229   -5.0472   -0.9887 C   0  0  0  0  0  0  0  0  0  0  0  0
   -5.1977   -3.8529   -1.3112 C   0  0  0  0  0  0  0  0  0  0  0  0
   -5.9483   -2.6903   -1.3733 C   0  0  0  0  0  0  0  0  0  0  0  0
   -2.3047    3.9807    1.1492 C   0  0  0  0  0  0  0  0  0  0  0  0
   -2.6361    2.9226   -0.9719 C   0  0  0  0  0  0  0  0  0  0  0  0
   -3.9992    2.8655   -0.7336 C   0  0  0  0  0  0  0  0  0  0  0  0
   -0.3119    3.5324   -0.2862 C   0  0  0  0  0  0  0  0  0  0  0  0
    0.1888    3.8073   -1.5581 C   0  0  0  0  0  0  0  0  0  0  0  0
    4.7049    2.6661   -0.3323 N   0  0  0  0  0  0  0  0  0  0  0  0
    5.4071    3.0016    0.7476 C   0  0  0  0  0  0  0  0  0  0  0  0
    6.1559    2.1097    1.4650 C   0  0  0  0  0  0  0  0  0  0  0  0
    6.2520    0.7752    1.0552 C   0  0  0  0  0  0  0  0  0  0  0  0
    5.3856    0.3659   -0.0282 C   0  0  0  0  0  0  0  0  0  0  0  0
   -4.8917   -6.5028   -0.9122 Cl  0  0  0  0  0  0  0  0  0  0  0  0
   -8.0746   -1.5252   -1.1578 N   0  0  0  0  0  0  0  0  0  0  0  0
   -9.0932   -1.4837   -2.2037 C   0  0  0  0  0  0  0  0  0  0  0  0
   -7.6609   -0.3756   -0.5905 C   0  0  0  0  0  0  0  0  0  0  0  0
   -7.9986    0.8535   -1.1673 C   0  0  0  0  0  0  0  0  0  0  0  0
   -7.4528    2.0138   -0.6892 C   0  0  0  0  0  0  0  0  0  0  0  0
   -6.8972   -0.3271    0.6366 C   0  0  0  0  0  0  0  0  0  0  0  0
   -6.7258   -1.4454    1.4785 C   0  0  0  0  0  0  0  0  0  0  0  0
   -6.0011   -1.3643    2.6378 C   0  0  0  0  0  0  0  0  0  0  0  0
   -5.4103   -0.1520    3.0072 C   0  0  0  0  0  0  0  0  0  0  0  0
   -5.5943    0.9714    2.2426 C   0  0  0  0  0  0  0  0  0  0  0  0
   -6.3605    0.9089    1.0680 C   0  0  0  0  0  0  0  0  0  0  0  0
   -6.6276    2.0587    0.3540 N   0  0  0  0  0  0  0  0  0  0  0  0
   -6.0125    3.3390    0.7179 C   0  0  0  0  0  0  0  0  0  0  0  0
   -4.5302    3.3632    0.4518 C   0  0  0  0  0  0  0  0  0  0  0  0
   -3.6683    3.9206    1.3883 C   0  0  0  0  0  0  0  0  0  0  0  0
   -1.7649    3.4802   -0.0349 C   0  0  0  0  0  0  0  0  0  0  0  0
    0.5997    3.3036    0.7454 C   0  0  0  0  0  0  0  0  0  0  0  0
    1.9643    3.3460    0.5139 C   0  0  0  0  0  0  0  0  0  0  0  0
    1.5546    3.8473   -1.7896 C   0  0  0  0  0  0  0  0  0  0  0  0
    2.4571    3.6168   -0.7582 C   0  0  0  0  0  0  0  0  0  0  0  0
    4.6483    1.3478   -0.7320 C   0  0  0  0  0  0  0  0  0  0  0  0
    3.8379    0.9754   -1.8165 C   0  0  0  0  0  0  0  0  0  0  0  0
    3.7073   -0.3456   -2.1594 C   0  0  0  0  0  0  0  0  0  0  0  0
    4.3558   -1.3369   -1.4165 C   0  0  0  0  0  0  0  0  0  0  0  0
    5.1781   -0.9842   -0.3796 C   0  0  0  0  0  0  0  0  0  0  0  0
    7.0960   -0.0646    1.6855 N   0  0  0  0  0  0  0  0  0  0  0  0
    7.7051    0.3455    2.9481 C   0  0  0  0  0  0  0  0  0  0  0  0
    7.7503   -1.1326    1.0121 C   0  0  0  0  0  0  0  0  0  0  0  0
    7.7897   -2.3966    1.5881 C   0  0  0  0  0  0  0  0  0  0  0  0
    8.4407   -3.4349    0.9433 C   0  0  0  0  0  0  0  0  0  0  0  0
    9.0481   -3.1997   -0.2811 C   0  0  0  0  0  0  0  0  0  0  0  0
    9.8520   -4.4975   -1.0947 Cl  0  0  0  0  0  0  0  0  0  0  0  0
    9.0261   -1.9403   -0.8598 C   0  0  0  0  0  0  0  0  0  0  0  0
    8.3839   -0.9034   -0.2030 C   0  0  0  0  0  0  0  0  0  0  0  0
   -8.9843   -3.9571   -0.5561 H   0  0  0  0  0  0  0  0  0  0  0  0
   -7.6655   -6.0302   -0.4789 H   0  0  0  0  0  0  0  0  0  0  0  0
   -4.1381   -3.8239   -1.5241 H   0  0  0  0  0  0  0  0  0  0  0  0
   -5.4642   -1.7598   -1.6406 H   0  0  0  0  0  0  0  0  0  0  0  0
   -1.6602    4.4343    1.8915 H   0  0  0  0  0  0  0  0  0  0  0  0
   -2.2472    2.5066   -1.8925 H   0  0  0  0  0  0  0  0  0  0  0  0
   -4.6401    2.4176   -1.4838 H   0  0  0  0  0  0  0  0  0  0  0  0
   -0.4905    4.0045   -2.3778 H   0  0  0  0  0  0  0  0  0  0  0  0
    4.3291    4.6622   -0.6822 H   0  0  0  0  0  0  0  0  0  0  0  0
    4.1535    3.6518   -2.0922 H   0  0  0  0  0  0  0  0  0  0  0  0
    5.3903    4.0449    1.0269 H   0  0  0  0  0  0  0  0  0  0  0  0
    6.7196    2.5002    2.2965 H   0  0  0  0  0  0  0  0  0  0  0  0
   -9.4640   -2.4895   -2.3725 H   0  0  0  0  0  0  0  0  0  0  0  0
   -9.9319   -0.8645   -1.8930 H   0  0  0  0  0  0  0  0  0  0  0  0
   -8.6895   -1.1048   -3.1448 H   0  0  0  0  0  0  0  0  0  0  0  0
   -8.6162    0.9267   -2.0472 H   0  0  0  0  0  0  0  0  0  0  0  0
   -7.6515    2.9528   -1.1841 H   0  0  0  0  0  0  0  0  0  0  0  0
   -7.1935   -2.3850    1.2340 H   0  0  0  0  0  0  0  0  0  0  0  0
   -5.8954   -2.2362    3.2677 H   0  0  0  0  0  0  0  0  0  0  0  0
   -4.8245   -0.0863    3.9137 H   0  0  0  0  0  0  0  0  0  0  0  0
   -5.1572    1.8999    2.5740 H   0  0  0  0  0  0  0  0  0  0  0  0
   -6.5165    4.1066    0.1319 H   0  0  0  0  0  0  0  0  0  0  0  0
   -6.2319    3.5594    1.7625 H   0  0  0  0  0  0  0  0  0  0  0  0
   -4.0616    4.3140    2.3182 H   0  0  0  0  0  0  0  0  0  0  0  0
    0.2431    3.0681    1.7401 H   0  0  0  0  0  0  0  0  0  0  0  0
    2.6362    3.1578    1.3424 H   0  0  0  0  0  0  0  0  0  0  0  0
    1.9177    4.0662   -2.7868 H   0  0  0  0  0  0  0  0  0  0  0  0
    3.2950    1.7131   -2.3862 H   0  0  0  0  0  0  0  0  0  0  0  0
    3.0784   -0.6161   -2.9964 H   0  0  0  0  0  0  0  0  0  0  0  0
    4.2095   -2.3806   -1.6561 H   0  0  0  0  0  0  0  0  0  0  0  0
    5.6497   -1.7716    0.1848 H   0  0  0  0  0  0  0  0  0  0  0  0
    8.1584   -0.5216    3.4175 H   0  0  0  0  0  0  0  0  0  0  0  0
    8.4811    1.0978    2.7930 H   0  0  0  0  0  0  0  0  0  0  0  0
    6.9503    0.7376    3.6256 H   0  0  0  0  0  0  0  0  0  0  0  0
    7.2966   -2.5840    2.5332 H   0  0  0  0  0  0  0  0  0  0  0  0
    8.4611   -4.4195    1.3894 H   0  0  0  0  0  0  0  0  0  0  0  0
    9.5133   -1.7595   -1.8079 H   0  0  0  0  0  0  0  0  0  0  0  0
    8.3798    0.0841   -0.6466 H   0  0  0  0  0  0  0  0  0  0  0  0
    3.9381    3.7046   -1.0255 C   0  0  0  0  0  0  0  0  0  0  0  0
 49 48  1  0
 48 50  2  0
 48 47  1  0
 50 51  1  0
 47 46  2  0
 51 45  2  0
 46 45  1  0
 45 43  1  0
 43 15  1  0
 43 44  1  0
 15 14  1  0
 15 16  2  0
 14 13  2  0
 42 16  1  0
 42 41  2  0
 16 38  1  0
 13 12  1  0
 41 40  1  0
 38 12  2  0
 38 39  1  0
 12 90  1  0
 40 39  2  0
 90 37  1  0
 37 35  2  0
 37 36  1  0
 35 34  1  0
 36 11  2  0
 34 10  2  0
 11 10  1  0
 10 33  1  0
 33  7  2  0
 33  8  1  0
  7 32  1  0
  8  9  2  0
 32 31  2  0
  9 31  1  0
 31 30  1  0
 30 29  1  0
 26 27  2  0
 26 25  1  0
 27 28  1  0
 29 28  2  0
 29 22  1  0
 25 24  2  0
 28 23  1  0
 22 21  2  0
 24 23  1  0
 23 20  2  0
 21 20  1  0
 20 18  1  0
 19 18  1  0
 18  1  1  0
  6  1  1  0
  6  5  2  0
  1  2  2  0
  5  4  1  0
  2  3  1  0
  4  3  2  0
  4 17  1  0
  2 52  1  0
  3 53  1  0
  5 54  1  0
  6 55  1  0
  7 56  1  0
  8 57  1  0
  9 58  1  0
 11 59  1  0
 90 60  1  0
 90 61  1  0
 13 62  1  0
 14 63  1  0
 19 64  1  0
 19 65  1  0
 19 66  1  0
 21 67  1  0
 22 68  1  0
 24 69  1  0
 25 70  1  0
 26 71  1  0
 27 72  1  0
 30 73  1  0
 30 74  1  0
 32 75  1  0
 34 76  1  0
 35 77  1  0
 36 78  1  0
 39 79  1  0
 40 80  1  0
 41 81  1  0
 42 82  1  0
 44 83  1  0
 44 84  1  0
 44 85  1  0
 46 86  1  0
 47 87  1  0
 50 88  1  0
 51 89  1  0
M  CHG  2  12   1  29   1
M  END
