
     RDKit          3D

 30 32  0  0  0  0  0  0  0  0999 V2000
    3.7443    0.5368   -0.2027 C   0  0  0  0  0  0  0  0  0  0  0  0
    3.3437   -0.7689    0.0608 C   0  0  0  0  0  0  0  0  0  0  0  0
    1.9829   -1.0322    0.2072 C   0  0  0  0  0  0  0  0  0  0  0  0
    1.0387   -0.0035    0.0931 C   0  0  0  0  0  0  0  0  0  0  0  0
    1.4195    1.3027   -0.1876 C   0  0  0  0  0  0  0  0  0  0  0  0
   -0.1870   -0.6217    0.2678 N   0  0  0  0  0  0  0  0  0  0  0  0
    0.0806   -1.9401    0.4747 C   0  0  0  0  0  0  0  0  0  0  0  0
    1.3479   -2.2301    0.4490 N   0  0  0  0  0  0  0  0  0  0  0  0
    5.0889    0.8666   -0.2960 N   0  0  0  0  0  0  0  0  0  0  0  0
   -3.7640   -0.0814   -0.4990 C   0  0  0  0  0  0  0  0  0  0  0  0
   -2.4852   -0.6307   -0.4813 C   0  0  0  0  0  0  0  0  0  0  0  0
    2.7704    1.5540   -0.3278 C   0  0  0  0  0  0  0  0  0  0  0  0
   -1.7019    1.1423    0.9565 C   0  0  0  0  0  0  0  0  0  0  0  0
   -1.4663   -0.0293    0.2479 C   0  0  0  0  0  0  0  0  0  0  0  0
   -2.9673    1.7071    0.9181 C   0  0  0  0  0  0  0  0  0  0  0  0
   -3.9897    1.1014    0.2018 C   0  0  0  0  0  0  0  0  0  0  0  0
    4.0705   -1.5680    0.1460 H   0  0  0  0  0  0  0  0  0  0  0  0
    5.6915    0.1016   -0.5569 H   0  0  0  0  0  0  0  0  0  0  0  0
    5.2833    1.6776   -0.8619 H   0  0  0  0  0  0  0  0  0  0  0  0
    3.0958    2.5644   -0.5449 H   0  0  0  0  0  0  0  0  0  0  0  0
    0.7010    2.1039   -0.2994 H   0  0  0  0  0  0  0  0  0  0  0  0
   -5.3957   -1.4686   -0.6057 H   0  0  0  0  0  0  0  0  0  0  0  0
   -5.6107   -0.0388   -1.6044 H   0  0  0  0  0  0  0  0  0  0  0  0
   -4.4978   -1.3130   -2.1083 H   0  0  0  0  0  0  0  0  0  0  0  0
   -0.7158   -2.6464    0.6609 H   0  0  0  0  0  0  0  0  0  0  0  0
   -2.2791   -1.5302   -1.0501 H   0  0  0  0  0  0  0  0  0  0  0  0
   -4.9745    1.5524    0.1882 H   0  0  0  0  0  0  0  0  0  0  0  0
   -0.9163    1.5998    1.5431 H   0  0  0  0  0  0  0  0  0  0  0  0
   -3.1583    2.6229    1.4615 H   0  0  0  0  0  0  0  0  0  0  0  0
   -4.8733   -0.7580   -1.2492 C   0  0  0  0  0  0  0  0  0  0  0  0
  1  2  2  0
  1  9  1  0
  1 12  1  0
  2  3  1  0
  3  4  2  0
  3  8  1  0
  4  5  1  0
  4  6  1  0
  5 12  2  0
 30 10  1  0
  6  7  1  0
  6 14  1  0
  7  8  2  0
 10 11  2  0
 10 16  1  0
 11 14  1  0
 13 14  2  0
 13 15  1  0
 15 16  2  0
  2 17  1  0
  9 18  1  0
  9 19  1  0
 12 20  1  0
  5 21  1  0
 30 22  1  0
 30 23  1  0
 30 24  1  0
  7 25  1  0
 11 26  1  0
 16 27  1  0
 13 28  1  0
 15 29  1  0
M  END
