
     RDKit          3D

 34 35  0  0  0  0  0  0  0  0999 V2000
   -2.6415   -1.8386    1.0144 O   0  0  0  0  0  0  0  0  0  0  0  0
   -2.7675   -0.7387    0.4838 C   0  0  0  0  0  0  0  0  0  0  0  0
   -3.9893   -0.0960    0.5113 N   0  0  0  0  0  0  0  0  0  0  0  0
   -4.2579    1.1178   -0.0167 C   0  0  0  0  0  0  0  0  0  0  0  0
   -3.2816    1.8195   -0.6434 C   0  0  0  0  0  0  0  0  0  0  0  0
   -1.9988    1.2337   -0.7222 C   0  0  0  0  0  0  0  0  0  0  0  0
   -1.7201    0.0043   -0.1910 C   0  0  0  0  0  0  0  0  0  0  0  0
   -0.3634   -0.5691   -0.2714 C   0  0  0  0  0  0  0  0  0  0  0  0
   -0.1459   -1.8899   -0.6706 C   0  0  0  0  0  0  0  0  0  0  0  0
    1.1475   -2.3655   -0.7860 C   0  0  0  0  0  0  0  0  0  0  0  0
    2.2371   -1.5492   -0.4990 C   0  0  0  0  0  0  0  0  0  0  0  0
    0.7394    0.2313    0.0152 C   0  0  0  0  0  0  0  0  0  0  0  0
    2.0522   -0.2319   -0.0924 C   0  0  0  0  0  0  0  0  0  0  0  0
    3.2082    0.7136    0.2187 C   0  0  1  0  0  0  0  0  0  0  0  0
    3.1820    1.8720   -0.7878 C   0  0  0  0  0  0  0  0  0  0  0  0
    3.0576    1.2631    1.6434 C   0  0  0  0  0  0  0  0  0  0  0  0
    4.5688    0.0235    0.1137 C   0  0  0  0  0  0  0  0  0  0  0  0
   -5.2727    1.4696    0.0954 H   0  0  0  0  0  0  0  0  0  0  0  0
   -3.4881    2.7872   -1.0732 H   0  0  0  0  0  0  0  0  0  0  0  0
   -1.2125    1.7751   -1.2350 H   0  0  0  0  0  0  0  0  0  0  0  0
   -0.9789   -2.5362   -0.9094 H   0  0  0  0  0  0  0  0  0  0  0  0
    1.3175   -3.3858   -1.1059 H   0  0  0  0  0  0  0  0  0  0  0  0
    3.2316   -1.9609   -0.6022 H   0  0  0  0  0  0  0  0  0  0  0  0
    0.5609    1.2484    0.3447 H   0  0  0  0  0  0  0  0  0  0  0  0
    2.2563    2.4469   -0.7315 H   0  0  0  0  0  0  0  0  0  0  0  0
    4.0092    2.5594   -0.5994 H   0  0  0  0  0  0  0  0  0  0  0  0
    3.2822    1.5016   -1.8097 H   0  0  0  0  0  0  0  0  0  0  0  0
    3.0902    0.4579    2.3793 H   0  0  0  0  0  0  0  0  0  0  0  0
    3.8687    1.9584    1.8695 H   0  0  0  0  0  0  0  0  0  0  0  0
    2.1202    1.8032    1.7803 H   0  0  0  0  0  0  0  0  0  0  0  0
    4.7598   -0.3599   -0.8903 H   0  0  0  0  0  0  0  0  0  0  0  0
    5.3592    0.7411    0.3406 H   0  0  0  0  0  0  0  0  0  0  0  0
    4.6648   -0.8051    0.8179 H   0  0  0  0  0  0  0  0  0  0  0  0
   -4.7367   -0.5892    0.9809 H   0  0  0  0  0  0  0  0  0  0  0  0
 10 11  1  0
 10  9  2  0
 11 13  2  0
  9  8  1  0
  1  2  2  0
 14 16  1  1
 13 12  1  0
 13 14  1  0
  8 12  2  0
  8  7  1  0
  2  7  1  0
  2  3  1  0
 14 17  1  0
 14 15  1  0
  7  6  2  0
  3  4  1  0
  6  5  1  0
  4  5  2  0
  4 18  1  0
  5 19  1  0
  6 20  1  0
  9 21  1  0
 10 22  1  0
 11 23  1  0
 12 24  1  0
 15 25  1  0
 15 26  1  0
 15 27  1  0
 16 28  1  0
 16 29  1  0
 16 30  1  0
 17 31  1  0
 17 32  1  0
 17 33  1  0
  3 34  1  0
M  END
