
     RDKit          3D

 96100  0  0  0  0  0  0  0  0999 V2000
   -1.6109   -3.8657  -10.2205 C   0  0  0  0  0  0  0  0  0  0  0  0
   -0.3181   -3.6254  -10.3815 N   0  0  0  0  0  0  0  0  0  0  0  0
    0.3435   -4.3820  -11.2373 C   0  0  0  0  0  0  0  0  0  0  0  0
   -0.2848   -5.3741  -11.9820 C   0  0  0  0  0  0  0  0  0  0  0  0
   -1.6415   -5.5195  -11.7480 C   0  0  0  0  0  0  0  0  0  0  0  0
   -2.3193   -4.7897  -10.8784 N   0  0  0  0  0  0  0  0  0  0  0  0
   -2.3266   -3.1285   -9.3294 N   0  0  0  0  0  0  0  0  0  0  0  0
   -1.9446   -2.1115   -8.4588 C   0  0  0  0  0  0  0  0  0  0  0  0
    1.7041   -4.1066  -11.4083 N   0  0  0  0  0  0  0  0  0  0  0  0
    2.3038   -4.3648  -12.6713 C   0  0  0  0  0  0  0  0  0  0  0  0
    3.1598   -5.4671  -12.8165 C   0  0  0  0  0  0  0  0  0  0  0  0
    2.4733   -3.6831  -10.3441 C   0  0  0  0  0  0  0  0  0  0  0  0
    2.0309   -3.5631  -13.7593 C   0  0  0  0  0  0  0  0  0  0  0  0
    2.5848   -3.8208  -15.0066 C   0  0  0  0  0  0  0  0  0  0  0  0
    3.4433   -4.9074  -15.1465 C   0  0  0  0  0  0  0  0  0  0  0  0
    3.7318   -5.7282  -14.0510 C   0  0  0  0  0  0  0  0  0  0  0  0
   -2.9497   -1.5772   -7.6480 C   0  0  0  0  0  0  0  0  0  0  0  0
   -2.6615   -0.5803   -6.7312 C   0  0  0  0  0  0  0  0  0  0  0  0
   -1.3701   -0.0607   -6.6187 C   0  0  0  0  0  0  0  0  0  0  0  0
   -0.3749   -0.5860   -7.4454 C   0  0  0  0  0  0  0  0  0  0  0  0
   -0.6520   -1.6002   -8.3535 C   0  0  0  0  0  0  0  0  0  0  0  0
    3.6334   -3.1732  -10.7851 O   0  0  0  0  0  0  0  0  0  0  0  0
    4.4219   -2.5321   -9.8406 C   0  0  0  0  0  0  0  0  0  0  0  0
    5.4254   -3.2500   -9.2014 C   0  0  0  0  0  0  0  0  0  0  0  0
    6.2192   -2.5597   -8.2883 C   0  0  0  0  0  0  0  0  0  0  0  0
    6.0037   -1.2146   -8.0304 C   0  0  0  0  0  0  0  0  0  0  0  0
    4.9955   -0.5311   -8.6929 C   0  0  0  0  0  0  0  0  0  0  0  0
    4.1816   -1.1808   -9.6154 C   0  0  0  0  0  0  0  0  0  0  0  0
    3.0875   -0.4552  -10.3394 C   0  0  0  0  0  0  0  0  0  0  0  0
    5.6480   -4.7053   -9.4849 C   0  0  0  0  0  0  0  0  0  0  0  0
    0.9144   -0.1670   -7.3507 O   0  0  0  0  0  0  0  0  0  0  0  0
    1.1836    1.1618   -7.7705 C   0  0  0  0  0  0  0  0  0  0  0  0
    2.1715   -3.7529   -9.1859 O   0  0  0  0  0  0  0  0  0  0  0  0
    4.0461   -5.2505  -16.2952 O   0  0  0  0  0  0  0  0  0  0  0  0
    3.3626   -6.1983  -11.7142 O   0  0  0  0  0  0  0  0  0  0  0  0
    4.2634   -7.2890  -11.7757 C   0  0  0  0  0  0  0  0  0  0  0  0
    3.7982   -4.4731  -17.4515 C   0  0  0  0  0  0  0  0  0  0  0  0
   -1.1140    0.9290   -5.7267 O   0  0  0  0  0  0  0  0  0  0  0  0
   -0.3787    0.5241   -4.5696 C   0  0  0  0  0  0  0  0  0  0  0  0
    0.1763    1.7573   -3.8870 C   0  0  0  0  0  0  0  0  0  0  0  0
    1.1573    1.3871   -2.7789 C   0  0  0  0  0  0  0  0  0  0  0  0
   -3.6465   -0.1329   -5.9089 O   0  0  0  0  0  0  0  0  0  0  0  0
   -4.2303    1.1036   -6.2963 C   0  0  0  0  0  0  0  0  0  0  0  0
    4.1644    0.1981   -4.6847 C   0  0  0  0  0  0  0  0  0  0  0  0
    4.8867   -0.4432   -3.6054 N   0  0  0  0  0  0  0  0  0  0  0  0
    3.9641   -1.0871   -2.6927 C   0  0  0  0  0  0  0  0  0  0  0  0
    2.9587   -0.0876   -2.1525 C   0  0  0  0  0  0  0  0  0  0  0  0
    2.2326    0.5325   -3.2402 N   0  0  0  0  0  0  0  0  0  0  0  0
    3.1530    1.1908   -4.1438 C   0  0  0  0  0  0  0  0  0  0  0  0
    0.2334   -5.9991  -12.6927 H   0  0  0  0  0  0  0  0  0  0  0  0
   -2.2038   -6.2739  -12.2862 H   0  0  0  0  0  0  0  0  0  0  0  0
   -3.3006   -3.3881   -9.2918 H   0  0  0  0  0  0  0  0  0  0  0  0
    1.3674   -2.7162  -13.6375 H   0  0  0  0  0  0  0  0  0  0  0  0
    2.3439   -3.1688  -15.8339 H   0  0  0  0  0  0  0  0  0  0  0  0
    4.4022   -6.5647  -14.1979 H   0  0  0  0  0  0  0  0  0  0  0  0
   -3.9630   -1.9580   -7.7048 H   0  0  0  0  0  0  0  0  0  0  0  0
    0.1527   -1.9967   -8.9501 H   0  0  0  0  0  0  0  0  0  0  0  0
    7.0112   -3.0885   -7.7725 H   0  0  0  0  0  0  0  0  0  0  0  0
    6.6262   -0.6945   -7.3141 H   0  0  0  0  0  0  0  0  0  0  0  0
    4.8308    0.5204   -8.4914 H   0  0  0  0  0  0  0  0  0  0  0  0
    3.1384   -0.6062  -11.4178 H   0  0  0  0  0  0  0  0  0  0  0  0
    2.1011   -0.7843  -10.0081 H   0  0  0  0  0  0  0  0  0  0  0  0
    3.1470    0.6148  -10.1487 H   0  0  0  0  0  0  0  0  0  0  0  0
    4.7885   -5.3095   -9.1914 H   0  0  0  0  0  0  0  0  0  0  0  0
    5.8249   -4.8882  -10.5450 H   0  0  0  0  0  0  0  0  0  0  0  0
    6.5115   -5.0731   -8.9338 H   0  0  0  0  0  0  0  0  0  0  0  0
    0.7077    1.9071   -7.1322 H   0  0  0  0  0  0  0  0  0  0  0  0
    0.8642    1.3250   -8.8032 H   0  0  0  0  0  0  0  0  0  0  0  0
    2.2632    1.2917   -7.7182 H   0  0  0  0  0  0  0  0  0  0  0  0
    5.2650   -6.9704  -12.0732 H   0  0  0  0  0  0  0  0  0  0  0  0
    3.9159   -8.0613  -12.4658 H   0  0  0  0  0  0  0  0  0  0  0  0
    4.3085   -7.7061  -10.7734 H   0  0  0  0  0  0  0  0  0  0  0  0
    4.3902   -4.9126  -18.2501 H   0  0  0  0  0  0  0  0  0  0  0  0
    4.1055   -3.4332  -17.3168 H   0  0  0  0  0  0  0  0  0  0  0  0
    2.7444   -4.4972  -17.7400 H   0  0  0  0  0  0  0  0  0  0  0  0
    0.4426   -0.1377   -4.8487 H   0  0  0  0  0  0  0  0  0  0  0  0
   -1.0357   -0.0305   -3.8891 H   0  0  0  0  0  0  0  0  0  0  0  0
   -0.6293    2.3521   -3.4497 H   0  0  0  0  0  0  0  0  0  0  0  0
    0.6604    2.3974   -4.6290 H   0  0  0  0  0  0  0  0  0  0  0  0
    1.5318    2.3122   -2.3092 H   0  0  0  0  0  0  0  0  0  0  0  0
    0.6166    0.8441   -1.9981 H   0  0  0  0  0  0  0  0  0  0  0  0
   -4.6729    1.0387   -7.2939 H   0  0  0  0  0  0  0  0  0  0  0  0
   -3.5062    1.9204   -6.2837 H   0  0  0  0  0  0  0  0  0  0  0  0
   -5.0182    1.3238   -5.5783 H   0  0  0  0  0  0  0  0  0  0  0  0
    3.6388   -0.5348   -5.3218 H   0  0  0  0  0  0  0  0  0  0  0  0
    4.8754    0.7227   -5.3285 H   0  0  0  0  0  0  0  0  0  0  0  0
    4.5257   -1.5176   -1.8599 H   0  0  0  0  0  0  0  0  0  0  0  0
    3.4194   -1.9152   -3.1799 H   0  0  0  0  0  0  0  0  0  0  0  0
    2.2519   -0.6094   -1.5027 H   0  0  0  0  0  0  0  0  0  0  0  0
    3.4854    0.6554   -1.5281 H   0  0  0  0  0  0  0  0  0  0  0  0
    3.6823    2.0241   -3.6487 H   0  0  0  0  0  0  0  0  0  0  0  0
    2.6067    1.6147   -4.9878 H   0  0  0  0  0  0  0  0  0  0  0  0
    6.5966   -0.8359   -4.7362 H   0  0  0  0  0  0  0  0  0  0  0  0
    5.4573   -2.1867   -4.6969 H   0  0  0  0  0  0  0  0  0  0  0  0
    6.4352   -1.8031   -3.2689 H   0  0  0  0  0  0  0  0  0  0  0  0
    5.8826   -1.3634   -4.1009 C   0  0  0  0  0  0  0  0  0  0  0  0
  1  6  1  0
  1  7  1  0
  1  2  2  0
  2  3  1  0
  3  4  2  0
  3  9  1  0
  4  5  1  0
  4 50  1  0
  5  6  2  0
  5 51  1  0
  7  8  1  0
  7 52  1  0
  8 21  1  0
  8 17  2  0
  9 12  1  0
  9 10  1  0
 10 11  2  0
 10 13  1  0
 11 35  1  0
 11 16  1  0
 12 33  2  0
 12 22  1  0
 13 14  2  0
 13 53  1  0
 14 15  1  0
 14 54  1  0
 15 16  2  0
 15 34  1  0
 16 55  1  0
 17 18  1  0
 17 56  1  0
 18 19  2  0
 18 42  1  0
 19 20  1  0
 19 38  1  0
 20 21  2  0
 20 31  1  0
 21 57  1  0
 22 23  1  0
 23 28  1  0
 23 24  2  0
 24 30  1  0
 24 25  1  0
 25 26  2  0
 25 58  1  0
 26 27  1  0
 26 59  1  0
 27 28  2  0
 27 60  1  0
 28 29  1  0
 29 61  1  0
 29 62  1  0
 29 63  1  0
 30 64  1  0
 30 65  1  0
 30 66  1  0
 31 32  1  0
 32 67  1  0
 32 68  1  0
 32 69  1  0
 34 37  1  0
 35 36  1  0
 36 70  1  0
 36 71  1  0
 36 72  1  0
 37 73  1  0
 37 74  1  0
 37 75  1  0
 38 39  1  0
 39 40  1  0
 39 76  1  0
 39 77  1  0
 40 41  1  0
 40 78  1  0
 40 79  1  0
 41 48  1  0
 41 80  1  0
 41 81  1  0
 42 43  1  0
 43 82  1  0
 43 83  1  0
 43 84  1  0
 44 45  1  0
 44 49  1  0
 44 85  1  0
 44 86  1  0
 45 96  1  0
 45 46  1  0
 46 47  1  0
 46 87  1  0
 46 88  1  0
 47 48  1  0
 47 89  1  0
 47 90  1  0
 48 49  1  0
 49 91  1  0
 49 92  1  0
 96 93  1  0
 96 94  1  0
 96 95  1  0
M  END
