
     RDKit          3D

 37 40  0  0  0  0  0  0  0  0999 V2000
   -1.1935    0.3217    0.4594 N   0  0  0  0  0  0  0  0  0  0  0  0
    4.6146    1.9729    0.6114 N   0  0  0  0  0  0  0  0  0  0  0  0
   -5.2532    0.6578    0.2887 C   0  0  0  0  0  0  0  0  0  0  0  0
   -0.4634    1.3018   -0.0160 C   0  0  0  0  0  0  0  0  0  0  0  0
    0.9870    1.1518    0.0360 C   0  0  0  0  0  0  0  0  0  0  0  0
    3.3842    1.4937    0.3576 C   0  0  0  0  0  0  0  0  0  0  0  0
    1.7746    0.0333   -0.0270 C   0  0  0  0  0  0  0  0  0  0  0  0
    1.8871   -2.4022    0.3892 C   0  0  0  0  0  0  0  0  0  0  0  0
    0.0408   -2.9150   -1.5991 C   0  0  0  0  0  0  0  0  0  0  0  0
    0.4066   -1.6074   -1.3268 C   0  0  0  0  0  0  0  0  0  0  0  0
   -1.0393    2.4829   -0.5617 C   0  0  0  0  0  0  0  0  0  0  0  0
    2.0007    2.5433    0.3221 S   0  0  0  0  0  0  0  0  0  0  0  0
    3.1118    0.2372    0.1631 N   0  0  0  0  0  0  0  0  0  0  0  0
    1.3294   -1.3394   -0.3183 C   0  0  0  0  0  0  0  0  0  0  0  0
    0.5874   -3.9644   -0.8719 C   0  0  0  0  0  0  0  0  0  0  0  0
    1.5189   -3.7202    0.1339 C   0  0  0  0  0  0  0  0  0  0  0  0
    2.1005   -4.8462    0.9391 C   0  0  0  0  0  0  0  0  0  0  0  0
   -2.3953    2.6083   -0.6061 C   0  0  0  0  0  0  0  0  0  0  0  0
   -3.2009    1.5546   -0.1210 C   0  0  0  0  0  0  0  0  0  0  0  0
   -2.5350    0.4203    0.3996 C   0  0  0  0  0  0  0  0  0  0  0  0
   -3.3327   -0.6411    0.8822 C   0  0  0  0  0  0  0  0  0  0  0  0
   -4.6920   -0.5211    0.8251 C   0  0  0  0  0  0  0  0  0  0  0  0
   -4.5465    1.6586   -0.1680 N   0  0  0  0  0  0  0  0  0  0  0  0
    5.3915    1.3644    0.4089 H   0  0  0  0  0  0  0  0  0  0  0  0
    4.7993    2.9563    0.5100 H   0  0  0  0  0  0  0  0  0  0  0  0
   -6.3319    0.7606    0.2423 H   0  0  0  0  0  0  0  0  0  0  0  0
    2.6219   -2.1985    1.1597 H   0  0  0  0  0  0  0  0  0  0  0  0
   -0.6666   -3.1191   -2.3925 H   0  0  0  0  0  0  0  0  0  0  0  0
   -0.0091   -0.8002   -1.9153 H   0  0  0  0  0  0  0  0  0  0  0  0
   -0.4078    3.2689   -0.9556 H   0  0  0  0  0  0  0  0  0  0  0  0
    0.2952   -4.9835   -1.0968 H   0  0  0  0  0  0  0  0  0  0  0  0
    1.4841   -5.0604    1.8149 H   0  0  0  0  0  0  0  0  0  0  0  0
    2.1626   -5.7652    0.3569 H   0  0  0  0  0  0  0  0  0  0  0  0
    3.1002   -4.6057    1.2997 H   0  0  0  0  0  0  0  0  0  0  0  0
   -2.8658    3.4919   -1.0173 H   0  0  0  0  0  0  0  0  0  0  0  0
   -2.8519   -1.5237    1.2836 H   0  0  0  0  0  0  0  0  0  0  0  0
   -5.3419   -1.3086    1.1811 H   0  0  0  0  0  0  0  0  0  0  0  0
  2  6  1  0
 12  6  1  0
 12  5  1  0
  6 13  2  0
  5  4  1  0
  5  7  2  0
 13  7  1  0
  4  1  2  0
  4 11  1  0
  1 20  1  0
 21 20  2  0
 21 22  1  0
 20 19  1  0
 11 18  2  0
 22  3  2  0
 19 18  1  0
 19 23  2  0
  3 23  1  0
  7 14  1  0
  8 14  2  0
  8 16  1  0
 14 10  1  0
 17 16  1  0
 16 15  2  0
 10  9  2  0
 15  9  1  0
  2 24  1  0
  2 25  1  0
  3 26  1  0
  8 27  1  0
  9 28  1  0
 10 29  1  0
 11 30  1  0
 15 31  1  0
 17 32  1  0
 17 33  1  0
 17 34  1  0
 18 35  1  0
 21 36  1  0
 22 37  1  0
M  END
