
     RDKit          3D

 55 57  0  0  0  0  0  0  0  0999 V2000
    2.4604   -2.4297   -0.1496 C   0  0  0  0  0  0  0  0  0  0  0  0
    3.3125   -3.4858   -0.4087 C   0  0  0  0  0  0  0  0  0  0  0  0
    4.6695   -3.3428   -0.1485 C   0  0  0  0  0  0  0  0  0  0  0  0
    5.7390   -4.6611   -0.4741 Cl  0  0  0  0  0  0  0  0  0  0  0  0
    5.1781   -2.1620    0.3668 C   0  0  0  0  0  0  0  0  0  0  0  0
    4.3143   -1.1093    0.6231 C   0  0  0  0  0  0  0  0  0  0  0  0
    2.9479   -1.2271    0.3700 C   0  0  0  0  0  0  0  0  0  0  0  0
    2.0501   -0.1126    0.6408 C   0  0  0  0  0  0  0  0  0  0  0  0
    0.7795   -0.2206    0.5552 N   0  0  0  0  0  0  0  0  0  0  0  0
    2.4993    1.2991    0.9601 C   0  0  1  0  0  0  0  0  0  0  0  0
    3.1711    1.9057   -0.1755 N   0  0  0  0  0  0  0  0  0  0  0  0
    2.5646    1.8201   -1.5017 C   0  0  0  0  0  0  0  0  0  0  0  0
    1.5832    2.9355   -1.8357 C   0  0  0  0  0  0  0  0  0  0  0  0
    4.3247    2.5896    0.0582 C   0  0  0  0  0  0  0  0  0  0  0  0
    4.8007    2.7144    1.1719 O   0  0  0  0  0  0  0  0  0  0  0  0
    5.0284    3.1754   -1.1562 C   0  0  0  0  0  0  0  0  0  0  0  0
    6.1374    3.8936   -0.7069 O   0  0  0  0  0  0  0  0  0  0  0  0
    1.1651    1.9361    1.3707 C   0  0  0  0  0  0  0  0  0  0  0  0
    0.2095    0.9769    0.8316 N   0  0  0  0  0  0  0  0  0  0  0  0
   -1.1277    1.1351    0.7722 C   0  0  0  0  0  0  0  0  0  0  0  0
   -1.5709    2.3372    1.0341 N   0  0  0  0  0  0  0  0  0  0  0  0
   -2.8241    2.6237    1.2498 C   0  0  0  0  0  0  0  0  0  0  0  0
   -3.8951    3.0076    1.4879 N   0  0  0  0  0  0  0  0  0  0  0  0
   -1.8472    0.0431    0.4571 N   0  0  0  0  0  0  0  0  0  0  0  0
   -3.1403    0.0478   -0.1042 C   0  0  0  0  0  0  0  0  0  0  0  0
   -4.0655   -0.8708    0.3673 C   0  0  0  0  0  0  0  0  0  0  0  0
   -3.4725    0.9109   -1.1420 C   0  0  0  0  0  0  0  0  0  0  0  0
   -4.7452    0.8496   -1.6798 C   0  0  0  0  0  0  0  0  0  0  0  0
   -5.6856   -0.0680   -1.2302 C   0  0  0  0  0  0  0  0  0  0  0  0
   -5.3285   -0.9355   -0.2053 C   0  0  0  0  0  0  0  0  0  0  0  0
   -6.1309   -1.9133    0.3311 O   0  0  0  0  0  0  0  0  0  0  0  0
   -7.4680   -1.9702    0.1300 C   0  0  1  0  0  0  0  0  0  0  0  0
   -8.0641   -0.7947    0.4284 F   0  0  0  0  0  0  0  0  0  0  0  0
   -7.7649   -2.2268   -1.1667 F   0  0  0  0  0  0  0  0  0  0  0  0
    1.4051   -2.5427   -0.3584 H   0  0  0  0  0  0  0  0  0  0  0  0
    2.9244   -4.4104   -0.8129 H   0  0  0  0  0  0  0  0  0  0  0  0
    6.2349   -2.0573    0.5691 H   0  0  0  0  0  0  0  0  0  0  0  0
    4.7270   -0.1994    1.0376 H   0  0  0  0  0  0  0  0  0  0  0  0
    3.1888    1.3226    1.8006 H   0  0  0  0  0  0  0  0  0  0  0  0
    1.0725    1.9728    2.4573 H   0  0  0  0  0  0  0  0  0  0  0  0
    1.0146    2.9362    0.9760 H   0  0  0  0  0  0  0  0  0  0  0  0
    3.3528    1.7875   -2.2518 H   0  0  0  0  0  0  0  0  0  0  0  0
    2.0648    0.8557   -1.5909 H   0  0  0  0  0  0  0  0  0  0  0  0
    0.6993    2.9208   -1.1987 H   0  0  0  0  0  0  0  0  0  0  0  0
    2.0426    3.9201   -1.7491 H   0  0  0  0  0  0  0  0  0  0  0  0
    1.2424    2.8166   -2.8641 H   0  0  0  0  0  0  0  0  0  0  0  0
    5.3123    2.3475   -1.8214 H   0  0  0  0  0  0  0  0  0  0  0  0
    4.3292    3.8037   -1.7223 H   0  0  0  0  0  0  0  0  0  0  0  0
    6.5894    4.2392   -1.4822 H   0  0  0  0  0  0  0  0  0  0  0  0
   -1.3440   -0.8345    0.4467 H   0  0  0  0  0  0  0  0  0  0  0  0
   -3.8067   -1.5380    1.1799 H   0  0  0  0  0  0  0  0  0  0  0  0
   -2.7499    1.6121   -1.5378 H   0  0  0  0  0  0  0  0  0  0  0  0
   -5.0136    1.5193   -2.4856 H   0  0  0  0  0  0  0  0  0  0  0  0
   -6.6551   -0.0870   -1.7039 H   0  0  0  0  0  0  0  0  0  0  0  0
   -7.8733   -2.7618    0.7564 H   0  0  0  0  0  0  0  0  0  0  0  0
  1  2  2  0
  1  7  1  0
  2  3  1  0
  3  4  1  0
  3  5  2  0
  5  6  1  0
  6  7  2  0
  7  8  1  0
  8  9  2  0
  8 10  1  0
  9 19  1  0
 10 11  1  0
 10 18  1  0
 11 12  1  0
 11 14  1  0
 12 13  1  0
 14 15  2  0
 14 16  1  0
 16 17  1  0
 18 19  1  0
 19 20  1  0
 20 21  2  0
 20 24  1  0
 21 22  1  0
 22 23  3  0
 24 25  1  0
 25 26  2  0
 25 27  1  0
 26 30  1  0
 27 28  2  0
 28 29  1  0
 29 30  2  0
 30 31  1  0
 31 32  1  0
 32 33  1  0
 32 34  1  0
  1 35  1  0
  2 36  1  0
  5 37  1  0
  6 38  1  0
 10 39  1  1
 18 40  1  0
 18 41  1  0
 12 42  1  0
 12 43  1  0
 13 44  1  0
 13 45  1  0
 13 46  1  0
 16 47  1  0
 16 48  1  0
 17 49  1  0
 24 50  1  0
 26 51  1  0
 27 52  1  0
 28 53  1  0
 29 54  1  0
 32 55  1  1
M  END
