
     RDKit          3D

 35 36  0  0  0  0  0  0  0  0999 V2000
    2.4117   -0.0252   -0.0052 C   0  0  0  0  0  0  0  0  0  0  0  0
    3.3958    0.9703   -0.0228 C   0  0  0  0  0  0  0  0  0  0  0  0
    4.7422    0.6601   -0.0273 C   0  0  0  0  0  0  0  0  0  0  0  0
    5.1247   -0.6729   -0.0137 C   0  0  0  0  0  0  0  0  0  0  0  0
    4.1768   -1.6788    0.0042 C   0  0  0  0  0  0  0  0  0  0  0  0
    2.8273   -1.3539    0.0081 C   0  0  0  0  0  0  0  0  0  0  0  0
    0.1019   -0.5918    0.0055 C   0  0  0  0  0  0  0  0  0  0  0  0
   -1.2257    0.1349    0.0016 C   0  0  0  0  0  0  0  0  0  0  0  0
    2.9046    2.6253   -0.0417 Cl  0  0  0  0  0  0  0  0  0  0  0  0
    6.8109   -1.0696   -0.0199 Cl  0  0  0  0  0  0  0  0  0  0  0  0
    1.1397    0.3818   -0.0031 O   0  0  0  0  0  0  0  0  0  0  0  0
   -2.3896   -0.8488    0.0111 C   0  0  0  0  0  0  0  0  0  0  0  0
   -3.7406   -0.1462    0.0034 C   0  0  0  0  0  0  0  0  0  0  0  0
   -4.8879   -1.1466    0.0206 C   0  0  0  0  0  0  0  0  0  0  0  0
   -6.1871   -0.5037    0.0167 N   0  0  0  0  0  0  0  0  0  0  0  0
   -6.8417    0.0028   -1.0702 C   0  0  0  0  0  0  0  0  0  0  0  0
   -7.9804    0.5758   -0.5793 C   0  0  0  0  0  0  0  0  0  0  0  0
   -8.0312    0.4356    0.7786 N   0  0  0  0  0  0  0  0  0  0  0  0
   -6.9387   -0.2112    1.0982 C   0  0  0  0  0  0  0  0  0  0  0  0
    5.4796    1.4504   -0.0411 H   0  0  0  0  0  0  0  0  0  0  0  0
    4.4743   -2.7183    0.0140 H   0  0  0  0  0  0  0  0  0  0  0  0
    2.1079   -2.1601    0.0209 H   0  0  0  0  0  0  0  0  0  0  0  0
    0.1861   -1.2270    0.8946 H   0  0  0  0  0  0  0  0  0  0  0  0
    0.1841   -1.2389   -0.8752 H   0  0  0  0  0  0  0  0  0  0  0  0
   -1.2890    0.7885    0.8760 H   0  0  0  0  0  0  0  0  0  0  0  0
   -1.2907    0.7739   -0.8834 H   0  0  0  0  0  0  0  0  0  0  0  0
   -2.3175   -1.5105   -0.8583 H   0  0  0  0  0  0  0  0  0  0  0  0
   -2.3183   -1.4929    0.8936 H   0  0  0  0  0  0  0  0  0  0  0  0
   -3.8237    0.5125    0.8729 H   0  0  0  0  0  0  0  0  0  0  0  0
   -3.8237    0.4888   -0.8838 H   0  0  0  0  0  0  0  0  0  0  0  0
   -4.8310   -1.8079   -0.8448 H   0  0  0  0  0  0  0  0  0  0  0  0
   -4.8306   -1.7767    0.9089 H   0  0  0  0  0  0  0  0  0  0  0  0
   -6.4544   -0.0930   -2.0711 H   0  0  0  0  0  0  0  0  0  0  0  0
   -8.7623    1.0727   -1.1329 H   0  0  0  0  0  0  0  0  0  0  0  0
   -6.6411   -0.5010    2.0954 H   0  0  0  0  0  0  0  0  0  0  0  0
 19 18  2  0
 19 15  1  0
 18 17  1  0
 15 14  1  0
 15 16  1  0
 17 16  2  0
 14 13  1  0
 13 12  1  0
 10  4  1  0
  5  6  2  0
  5  4  1  0
  6  1  1  0
  4  3  2  0
 12  8  1  0
  8  7  1  0
  7 11  1  0
  1 11  1  0
  1  2  2  0
  3  2  1  0
  2  9  1  0
  3 20  1  0
  5 21  1  0
  6 22  1  0
  7 23  1  0
  7 24  1  0
  8 25  1  0
  8 26  1  0
 12 27  1  0
 12 28  1  0
 13 29  1  0
 13 30  1  0
 14 31  1  0
 14 32  1  0
 16 33  1  0
 17 34  1  0
 19 35  1  0
M  END
