
     RDKit          3D

 37 39  0  0  0  0  0  0  0  0999 V2000
   -1.1998    0.4404   -0.2264 C   0  0  0  0  0  0  0  0  0  0  0  0
   -2.1529    1.3309    0.2406 C   0  0  0  0  0  0  0  0  0  0  0  0
   -2.1139    2.9638   -0.2986 Cl  0  0  0  0  0  0  0  0  0  0  0  0
   -3.1224    0.9039    1.1426 C   0  0  0  0  0  0  0  0  0  0  0  0
   -4.3102    1.9977    1.7324 Cl  0  0  0  0  0  0  0  0  0  0  0  0
   -3.1352   -0.4150    1.5720 C   0  0  0  0  0  0  0  0  0  0  0  0
   -2.1880   -1.3075    1.1012 C   0  0  0  0  0  0  0  0  0  0  0  0
   -1.2215   -0.8823    0.1988 C   0  0  0  0  0  0  0  0  0  0  0  0
   -0.2318   -1.7889   -0.2464 N   0  0  0  0  0  0  0  0  0  0  0  0
   -0.2535   -2.3546   -1.4753 C   0  0  0  0  0  0  0  0  0  0  0  0
   -1.2495   -2.0349   -2.3095 N   0  0  0  0  0  0  0  0  0  0  0  0
    0.6567   -3.2025   -1.8807 N   0  0  0  0  0  0  0  0  0  0  0  0
    1.5916   -3.5607   -0.9485 C   0  0  0  0  0  0  0  0  0  0  0  0
    2.4321   -4.5411   -1.3797 N   0  0  0  0  0  0  0  0  0  0  0  0
    1.7590   -3.0706    0.2348 N   0  0  0  0  0  0  0  0  0  0  0  0
    0.9695   -1.9496    0.6000 C   0  0  1  0  0  0  0  0  0  0  0  0
    1.7648   -0.6529    0.5660 C   0  0  0  0  0  0  0  0  0  0  0  0
    2.4744   -0.2892   -0.5763 C   0  0  0  0  0  0  0  0  0  0  0  0
    3.1591    0.9092   -0.6300 C   0  0  0  0  0  0  0  0  0  0  0  0
    3.1348    1.7458    0.4798 C   0  0  0  0  0  0  0  0  0  0  0  0
    3.8516    3.0100    0.4281 N   0  0  0  0  0  0  0  0  0  0  0  0
    3.7748    3.7483    1.3820 O   0  0  0  0  0  0  0  0  0  0  0  0
    4.4819    3.2650   -0.5712 O   0  0  0  0  0  0  0  0  0  0  0  0
    2.4450    1.4046    1.6317 C   0  0  0  0  0  0  0  0  0  0  0  0
    1.7621    0.1991    1.6625 C   0  0  0  0  0  0  0  0  0  0  0  0
   -0.4415    0.7784   -0.9201 H   0  0  0  0  0  0  0  0  0  0  0  0
   -3.8916   -0.7439    2.2708 H   0  0  0  0  0  0  0  0  0  0  0  0
   -2.2028   -2.3369    1.4333 H   0  0  0  0  0  0  0  0  0  0  0  0
   -2.0448   -1.4895   -2.0271 H   0  0  0  0  0  0  0  0  0  0  0  0
   -1.3367   -2.5704   -3.1559 H   0  0  0  0  0  0  0  0  0  0  0  0
    2.0857   -5.1479   -2.1035 H   0  0  0  0  0  0  0  0  0  0  0  0
    2.9973   -4.9917   -0.6798 H   0  0  0  0  0  0  0  0  0  0  0  0
    0.6039   -2.0826    1.6250 H   0  0  0  0  0  0  0  0  0  0  0  0
    2.4934   -0.9385   -1.4423 H   0  0  0  0  0  0  0  0  0  0  0  0
    3.7012    1.1819   -1.5236 H   0  0  0  0  0  0  0  0  0  0  0  0
    2.4302    2.0557    2.4934 H   0  0  0  0  0  0  0  0  0  0  0  0
    1.2178   -0.0758    2.5574 H   0  0  0  0  0  0  0  0  0  0  0  0
 22 21  1  0
 19 18  2  0
 19 20  1  0
 21 20  1  0
 21 23  2  0
 18 17  1  0
 20 24  2  0
 17 16  1  0
 17 25  2  0
 15 16  1  0
 15 13  2  0
 24 25  1  0
  3  2  1  0
 16  9  1  0
 14 13  1  0
 13 12  1  0
  1  2  2  0
  1  8  1  0
  2  4  1  0
  9  8  1  0
  9 10  1  0
  8  7  2  0
 12 10  2  0
 10 11  1  0
  4  5  1  0
  4  6  2  0
  7  6  1  0
  1 26  1  0
  6 27  1  0
  7 28  1  0
 11 29  1  0
 11 30  1  0
 14 31  1  0
 14 32  1  0
 16 33  1  1
 18 34  1  0
 19 35  1  0
 24 36  1  0
 25 37  1  0
M  CHG  2  21   1  22  -1
M  END
