
     RDKit          3D

 22 21  0  0  0  0  0  0  0  0999 V2000
    2.8703   -1.0783    0.4856 O   0  0  0  0  0  0  0  0  0  0  0  0
    2.8193    0.0164   -0.0170 N   0  0  0  0  0  0  0  0  0  0  0  0
    3.7898    0.6649   -0.3286 O   0  0  0  0  0  0  0  0  0  0  0  0
    1.4856    0.6371   -0.2771 C   0  0  0  0  0  0  0  0  0  0  0  0
    0.3048   -0.2339    0.0860 C   0  0  0  0  0  0  0  0  0  0  0  0
   -0.9962    0.5101   -0.2039 C   0  0  0  0  0  0  0  0  0  0  0  0
   -2.2285   -0.3196    0.1333 C   0  0  0  0  0  0  0  0  0  0  0  0
   -3.5350    0.4149   -0.1419 C   0  0  0  0  0  0  0  0  0  0  0  0
   -4.7635   -0.4137    0.2081 C   0  0  0  0  0  0  0  0  0  0  0  0
    1.4941    1.5698    0.2888 H   0  0  0  0  0  0  0  0  0  0  0  0
    1.4929    0.8951   -1.3367 H   0  0  0  0  0  0  0  0  0  0  0  0
    0.3300   -1.1622   -0.4882 H   0  0  0  0  0  0  0  0  0  0  0  0
    0.3423   -0.5007    1.1439 H   0  0  0  0  0  0  0  0  0  0  0  0
   -1.0185    1.4424    0.3692 H   0  0  0  0  0  0  0  0  0  0  0  0
   -1.0292    0.7959   -1.2600 H   0  0  0  0  0  0  0  0  0  0  0  0
   -2.2085   -1.2504   -0.4430 H   0  0  0  0  0  0  0  0  0  0  0  0
   -2.1920   -0.6115    1.1881 H   0  0  0  0  0  0  0  0  0  0  0  0
   -3.5511    1.3498    0.4262 H   0  0  0  0  0  0  0  0  0  0  0  0
   -3.5742    0.6994   -1.1978 H   0  0  0  0  0  0  0  0  0  0  0  0
   -4.7929   -1.3401   -0.3685 H   0  0  0  0  0  0  0  0  0  0  0  0
   -4.7687   -0.6841    1.2656 H   0  0  0  0  0  0  0  0  0  0  0  0
   -5.6854    0.1316    0.0027 H   0  0  0  0  0  0  0  0  0  0  0  0
  1  2  2  0
  2  3  1  0
  2  4  1  0
  4  5  1  0
  5  6  1  0
  6  7  1  0
  7  8  1  0
  8  9  1  0
  4 10  1  0
  4 11  1  0
  5 12  1  0
  5 13  1  0
  6 14  1  0
  6 15  1  0
  7 16  1  0
  7 17  1  0
  8 18  1  0
  8 19  1  0
  9 20  1  0
  9 21  1  0
  9 22  1  0
M  CHG  2   2   1   3  -1
M  END
