
     RDKit          3D

 44 45  0  0  0  0  0  0  0  0999 V2000
    8.5685    0.6725   -0.7655 C   0  0  0  0  0  0  0  0  0  0  0  0
    7.2647    0.9791   -0.4198 C   0  0  0  0  0  0  0  0  0  0  0  0
    6.2389    1.0990   -1.3443 C   0  0  0  0  0  0  0  0  0  0  0  0
    6.5741    0.9032   -2.6818 C   0  0  0  0  0  0  0  0  0  0  0  0
    7.8644    0.5953   -3.0536 C   0  0  0  0  0  0  0  0  0  0  0  0
    8.8591    0.4802   -2.0989 C   0  0  0  0  0  0  0  0  0  0  0  0
    8.1697    0.4014   -4.3426 F   0  0  0  0  0  0  0  0  0  0  0  0
    6.9925    1.1650    0.8803 F   0  0  0  0  0  0  0  0  0  0  0  0
    4.8378    1.4419   -0.9355 C   0  0  0  0  0  0  0  0  0  0  0  0
    4.5995    2.9518   -0.8045 C   0  0  2  0  0  0  0  0  0  0  0  0
    3.1945    3.2164   -0.2419 C   0  0  0  0  0  0  0  0  0  0  0  0
    3.0476    2.7897    1.2061 C   0  0  0  0  0  0  0  0  0  0  0  0
    1.8464    2.3286    1.6444 N   0  0  0  0  0  0  0  0  0  0  0  0
    4.8208    3.5825   -2.0930 N   0  0  0  0  0  0  0  0  0  0  0  0
    3.9956    2.9055    1.9683 O   0  0  0  0  0  0  0  0  0  0  0  0
    0.8211    1.8292    0.7367 C   0  0  0  0  0  0  0  0  0  0  0  0
    1.1380    0.4169    0.2671 C   0  0  0  0  0  0  0  0  0  0  0  0
    1.3516   -0.5675    1.4118 C   0  0  0  0  0  0  0  0  0  0  0  0
    2.5409   -0.3506    2.2278 N   0  0  0  0  0  0  0  0  0  0  0  0
    2.7022    0.6105    3.1665 C   0  0  0  0  0  0  0  0  0  0  0  0
    1.7696    1.8115    3.0111 C   0  0  1  0  0  0  0  0  0  0  0  0
    1.9317    2.8565    4.1016 C   0  0  0  0  0  0  0  0  0  0  0  0
    3.5227    0.5214    4.0632 O   0  0  0  0  0  0  0  0  0  0  0  0
   10.1031    0.1758   -2.4771 F   0  0  0  0  0  0  0  0  0  0  0  0
    9.3401    0.5825   -0.0123 H   0  0  0  0  0  0  0  0  0  0  0  0
    5.8119    0.9841   -3.4459 H   0  0  0  0  0  0  0  0  0  0  0  0
    4.5863    0.9452    0.0032 H   0  0  0  0  0  0  0  0  0  0  0  0
    4.1471    1.0454   -1.6863 H   0  0  0  0  0  0  0  0  0  0  0  0
    5.3340    3.3625   -0.1090 H   0  0  0  0  0  0  0  0  0  0  0  0
    2.9967    4.2937   -0.2736 H   0  0  0  0  0  0  0  0  0  0  0  0
    2.4633    2.7553   -0.9064 H   0  0  0  0  0  0  0  0  0  0  0  0
    4.7181    4.5861   -2.0048 H   0  0  0  0  0  0  0  0  0  0  0  0
    4.1076    3.2872   -2.7506 H   0  0  0  0  0  0  0  0  0  0  0  0
    0.6914    2.5071   -0.1035 H   0  0  0  0  0  0  0  0  0  0  0  0
   -0.1283    1.8397    1.2748 H   0  0  0  0  0  0  0  0  0  0  0  0
    2.0195    0.4212   -0.3793 H   0  0  0  0  0  0  0  0  0  0  0  0
    0.3051    0.0498   -0.3368 H   0  0  0  0  0  0  0  0  0  0  0  0
    0.4550   -0.5954    2.0402 H   0  0  0  0  0  0  0  0  0  0  0  0
    1.4574   -1.5659    0.9920 H   0  0  0  0  0  0  0  0  0  0  0  0
    3.1389   -1.1551    2.3438 H   0  0  0  0  0  0  0  0  0  0  0  0
    0.7509    1.4251    3.1165 H   0  0  0  0  0  0  0  0  0  0  0  0
    2.9446    3.2369    4.1805 H   0  0  0  0  0  0  0  0  0  0  0  0
    1.2575    3.6894    3.9041 H   0  0  0  0  0  0  0  0  0  0  0  0
    1.6501    2.4286    5.0634 H   0  0  0  0  0  0  0  0  0  0  0  0
  1  2  2  0
  1  6  1  0
  1 25  1  0
  2  8  1  0
  2  3  1  0
  3  9  1  0
  3  4  2  0
  4  5  1  0
  4 26  1  0
  5  6  2  0
  5  7  1  0
  6 24  1  0
  9 10  1  0
  9 27  1  0
  9 28  1  0
 10 14  1  0
 10 11  1  0
 10 29  1  1
 11 12  1  0
 11 30  1  0
 11 31  1  0
 12 13  1  0
 12 15  2  0
 13 16  1  0
 13 21  1  0
 14 32  1  0
 14 33  1  0
 16 17  1  0
 16 34  1  0
 16 35  1  0
 17 18  1  0
 17 36  1  0
 17 37  1  0
 18 19  1  0
 18 38  1  0
 18 39  1  0
 19 20  1  0
 19 40  1  0
 20 23  2  0
 20 21  1  0
 21 22  1  0
 21 41  1  1
 22 42  1  0
 22 43  1  0
 22 44  1  0
M  END
