
     RDKit          3D

 66 70  0  0  0  0  0  0  0  0999 V2000
    6.6849    0.0546   -1.0713 C   0  0  0  0  0  0  0  0  0  0  0  0
    5.7993   -0.5679   -0.1408 C   0  0  0  0  0  0  0  0  0  0  0  0
    6.3111   -2.5321    1.4912 C   0  0  0  0  0  0  0  0  0  0  0  0
    1.7437    0.3704    0.5883 C   0  0  0  0  0  0  0  0  0  0  0  0
    2.1119   -0.9628    0.3600 C   0  0  0  0  0  0  0  0  0  0  0  0
   -0.7541    2.2738   -0.2208 C   0  0  0  0  0  0  0  0  0  0  0  0
    3.4430   -1.2855    0.1096 C   0  0  0  0  0  0  0  0  0  0  0  0
    0.0042   -0.9692    0.6888 C   0  0  0  0  0  0  0  0  0  0  0  0
   -3.0129    2.9864    0.2382 C   0  0  0  0  0  0  0  0  0  0  0  0
   -2.4427    5.5847   -0.6187 C   0  0  0  0  0  0  0  0  0  0  0  0
   -4.6168   -0.8794   -0.1471 C   0  0  0  0  0  0  0  0  0  0  0  0
   -5.9265   -1.2956    0.0079 C   0  0  0  0  0  0  0  0  0  0  0  0
   -6.2473   -2.6514   -0.0825 C   0  0  0  0  0  0  0  0  0  0  0  0
   -5.2327   -3.5734   -0.3273 C   0  0  0  0  0  0  0  0  0  0  0  0
   -3.9234   -3.1321   -0.4819 C   0  0  0  0  0  0  0  0  0  0  0  0
   -7.9218   -4.3307   -0.0088 C   0  0  0  0  0  0  0  0  0  0  0  0
   -7.5476   -2.9708    0.0737 O   0  0  0  0  0  0  0  0  0  0  0  0
   -3.5886   -1.7869   -0.3986 C   0  0  0  0  0  0  0  0  0  0  0  0
   -2.1642   -1.3301   -0.5327 C   0  0  0  0  0  0  0  0  0  0  0  0
   -1.4104   -1.4180    0.8057 C   0  0  0  0  0  0  0  0  0  0  0  0
    0.3888    0.3390    0.8001 N   0  0  0  0  0  0  0  0  0  0  0  0
   -1.6297    3.3919    0.0531 N   0  0  0  0  0  0  0  0  0  0  0  0
   -1.5536    4.4108   -0.9802 C   0  0  0  0  0  0  0  0  0  0  0  0
   -3.7820    5.1827   -0.4320 O   0  0  0  0  0  0  0  0  0  0  0  0
   -3.8732    4.1921    0.5662 C   0  0  0  0  0  0  0  0  0  0  0  0
    2.6692    1.4068    0.5840 C   0  0  0  0  0  0  0  0  0  0  0  0
    3.9872    1.0662    0.3439 C   0  0  0  0  0  0  0  0  0  0  0  0
    1.0041   -1.7696    0.4286 N   0  0  0  0  0  0  0  0  0  0  0  0
    4.3863   -0.2645    0.1057 C   0  0  0  0  0  0  0  0  0  0  0  0
    6.5727   -1.5249    0.4385 C   0  0  0  0  0  0  0  0  0  0  0  0
    7.7974   -1.4825   -0.0925 O   0  0  0  0  0  0  0  0  0  0  0  0
    7.8613   -0.4981   -1.0367 N   0  0  0  0  0  0  0  0  0  0  0  0
    6.3897    1.1747   -2.0032 C   0  0  0  0  0  0  0  0  0  0  0  0
    6.2232   -3.5341    1.0678 H   0  0  0  0  0  0  0  0  0  0  0  0
    7.1143   -2.5511    2.2278 H   0  0  0  0  0  0  0  0  0  0  0  0
    5.3790   -2.3038    2.0033 H   0  0  0  0  0  0  0  0  0  0  0  0
    0.0811    2.1495    1.7607 H   0  0  0  0  0  0  0  0  0  0  0  0
   -1.3455    1.1639    1.5551 H   0  0  0  0  0  0  0  0  0  0  0  0
    0.1798    2.6598   -0.6364 H   0  0  0  0  0  0  0  0  0  0  0  0
   -1.1758    1.5961   -0.9803 H   0  0  0  0  0  0  0  0  0  0  0  0
    3.7299   -2.3095   -0.0957 H   0  0  0  0  0  0  0  0  0  0  0  0
   -3.4085    2.4861   -0.6636 H   0  0  0  0  0  0  0  0  0  0  0  0
   -3.0962    2.2763    1.0648 H   0  0  0  0  0  0  0  0  0  0  0  0
   -2.0556    6.0669    0.2903 H   0  0  0  0  0  0  0  0  0  0  0  0
   -2.4306    6.3227   -1.4217 H   0  0  0  0  0  0  0  0  0  0  0  0
   -4.3947    0.1797   -0.0776 H   0  0  0  0  0  0  0  0  0  0  0  0
   -6.7112   -0.5727    0.1946 H   0  0  0  0  0  0  0  0  0  0  0  0
   -5.4360   -4.6329   -0.4056 H   0  0  0  0  0  0  0  0  0  0  0  0
   -3.1486   -3.8655   -0.6754 H   0  0  0  0  0  0  0  0  0  0  0  0
   -9.0002   -4.3643    0.1261 H   0  0  0  0  0  0  0  0  0  0  0  0
   -7.6760   -4.7651   -0.9815 H   0  0  0  0  0  0  0  0  0  0  0  0
   -7.4524   -4.9331    0.7737 H   0  0  0  0  0  0  0  0  0  0  0  0
   -1.6388   -1.9391   -1.2714 H   0  0  0  0  0  0  0  0  0  0  0  0
   -2.1414   -0.3037   -0.9064 H   0  0  0  0  0  0  0  0  0  0  0  0
   -1.4034   -2.4545    1.1444 H   0  0  0  0  0  0  0  0  0  0  0  0
   -1.9403   -0.8424    1.5677 H   0  0  0  0  0  0  0  0  0  0  0  0
   -1.8482    4.0175   -1.9680 H   0  0  0  0  0  0  0  0  0  0  0  0
   -0.5230    4.7625   -1.0660 H   0  0  0  0  0  0  0  0  0  0  0  0
   -4.9197    3.8925    0.6374 H   0  0  0  0  0  0  0  0  0  0  0  0
   -3.5699    4.5976    1.5416 H   0  0  0  0  0  0  0  0  0  0  0  0
    2.3872    2.4359    0.7652 H   0  0  0  0  0  0  0  0  0  0  0  0
    4.7364    1.8472    0.3531 H   0  0  0  0  0  0  0  0  0  0  0  0
    6.2995    2.1178   -1.4638 H   0  0  0  0  0  0  0  0  0  0  0  0
    7.1787    1.2839   -2.7446 H   0  0  0  0  0  0  0  0  0  0  0  0
    5.4452    1.0069   -2.5198 H   0  0  0  0  0  0  0  0  0  0  0  0
   -0.4381    1.4986    1.0557 C   0  0  0  0  0  0  0  0  0  0  0  0
 33  1  1  0
 32  1  2  0
 32 31  1  0
  1  2  1  0
 11 12  2  0
 11 18  1  0
 31 30  1  0
 12 13  1  0
  7  5  2  0
  7 29  1  0
 19 18  1  0
 19 20  1  0
  2 30  2  0
  2 29  1  0
 28  5  1  0
 28  8  2  0
 18 15  2  0
 30  3  1  0
  5  4  1  0
 29 27  2  0
 13 17  1  0
 13 14  2  0
 20  8  1  0
 17 16  1  0
  8 21  1  0
 15 14  1  0
  4 21  1  0
  4 26  2  0
 27 26  1  0
 21 66  1  0
 66  6  1  0
  6 22  1  0
 10 24  1  0
 10 23  1  0
 25 24  1  0
 25  9  1  0
 22 23  1  0
 22  9  1  0
  3 34  1  0
  3 35  1  0
  3 36  1  0
 66 37  1  0
 66 38  1  0
  6 39  1  0
  6 40  1  0
  7 41  1  0
  9 42  1  0
  9 43  1  0
 10 44  1  0
 10 45  1  0
 11 46  1  0
 12 47  1  0
 14 48  1  0
 15 49  1  0
 16 50  1  0
 16 51  1  0
 16 52  1  0
 19 53  1  0
 19 54  1  0
 20 55  1  0
 20 56  1  0
 23 57  1  0
 23 58  1  0
 25 59  1  0
 25 60  1  0
 26 61  1  0
 27 62  1  0
 33 63  1  0
 33 64  1  0
 33 65  1  0
M  END
