
     RDKit          3D

 44 45  0  0  0  0  0  0  0  0999 V2000
    2.2480   -1.4456    0.1323 O   0  0  0  0  0  0  0  0  0  0  0  0
    2.0115   -0.2682    0.0723 C   0  0  0  0  0  0  0  0  0  0  0  0
    2.9073    0.7491    0.0469 N   0  0  0  0  0  0  0  0  0  0  0  0
    4.3024    0.6581    0.0640 C   0  0  0  0  0  0  0  0  0  0  0  0
    5.0104    1.8038   -0.3064 C   0  0  0  0  0  0  0  0  0  0  0  0
    6.3947    1.8118   -0.2961 C   0  0  0  0  0  0  0  0  0  0  0  0
    7.1015    0.6770    0.0800 C   0  0  0  0  0  0  0  0  0  0  0  0
    6.3976   -0.4586    0.4517 C   0  0  0  0  0  0  0  0  0  0  0  0
    5.0088   -0.4804    0.4520 C   0  0  0  0  0  0  0  0  0  0  0  0
    0.7745    0.2744    0.0225 O   0  0  0  0  0  0  0  0  0  0  0  0
   -0.2277   -0.6765   -0.0199 N   0  0  0  0  0  0  0  0  0  0  0  0
   -1.3740   -0.1277   -0.0299 C   0  0  0  0  0  0  0  0  0  0  0  0
   -1.5361    1.1842    0.0620 O   0  0  0  0  0  0  0  0  0  0  0  0
   -2.6960    1.8053   -0.5145 C   0  0  2  0  0  0  0  0  0  0  0  0
   -2.7448    3.2237    0.0010 C   0  0  0  0  0  0  0  0  0  0  0  0
   -1.6202    3.9180   -0.4756 O   0  0  0  0  0  0  0  0  0  0  0  0
   -3.9589    1.0127   -0.2105 C   0  0  2  0  0  0  0  0  0  0  0  0
   -4.2326    0.9347    1.1638 O   0  0  0  0  0  0  0  0  0  0  0  0
   -3.7640   -0.4032   -0.7457 C   0  0  1  0  0  0  0  0  0  0  0  0
   -2.5800   -1.0496   -0.0282 C   0  0  1  0  0  0  0  0  0  0  0  0
   -2.2666   -2.3329   -0.5782 N   0  0  0  0  0  0  0  0  0  0  0  0
   -2.0326   -3.4285    0.1720 C   0  0  0  0  0  0  0  0  0  0  0  0
   -2.1489   -3.4404    1.3880 O   0  0  0  0  0  0  0  0  0  0  0  0
   -1.5979   -4.6446   -0.6039 C   0  0  0  0  0  0  0  0  0  0  0  0
   -4.8729   -1.2262   -0.5383 O   0  0  0  0  0  0  0  0  0  0  0  0
    2.5320    1.6773   -0.0853 H   0  0  0  0  0  0  0  0  0  0  0  0
    4.4710    2.6936   -0.6092 H   0  0  0  0  0  0  0  0  0  0  0  0
    4.4963   -1.3774    0.7592 H   0  0  0  0  0  0  0  0  0  0  0  0
    6.9200    2.7115   -0.5893 H   0  0  0  0  0  0  0  0  0  0  0  0
    8.1832    0.6798    0.0849 H   0  0  0  0  0  0  0  0  0  0  0  0
    6.9309   -1.3501    0.7558 H   0  0  0  0  0  0  0  0  0  0  0  0
   -2.8608   -1.1970    1.0190 H   0  0  0  0  0  0  0  0  0  0  0  0
   -2.5649    1.8317   -1.6033 H   0  0  0  0  0  0  0  0  0  0  0  0
   -3.6825    3.6684   -0.3582 H   0  0  0  0  0  0  0  0  0  0  0  0
   -2.7868    3.2192    1.0972 H   0  0  0  0  0  0  0  0  0  0  0  0
   -4.7815    1.4857   -0.7644 H   0  0  0  0  0  0  0  0  0  0  0  0
   -1.6472    4.8101   -0.1185 H   0  0  0  0  0  0  0  0  0  0  0  0
   -4.7010    1.7264    1.4432 H   0  0  0  0  0  0  0  0  0  0  0  0
   -3.5258   -0.3141   -1.8165 H   0  0  0  0  0  0  0  0  0  0  0  0
   -5.5767   -0.9510   -1.1343 H   0  0  0  0  0  0  0  0  0  0  0  0
   -2.0870   -2.3831   -1.5688 H   0  0  0  0  0  0  0  0  0  0  0  0
   -1.8023   -4.5721   -1.6704 H   0  0  0  0  0  0  0  0  0  0  0  0
   -0.5230   -4.7812   -0.4751 H   0  0  0  0  0  0  0  0  0  0  0  0
   -2.0910   -5.5311   -0.2100 H   0  0  0  0  0  0  0  0  0  0  0  0
  1  2  2  0
  2  3  1  0
  2 10  1  0
  3  4  1  0
  4  5  2  0
  4  9  1  0
  5  6  1  0
  6  7  2  0
  7  8  1  0
  8  9  2  0
 10 11  1  0
 11 12  2  0
 12 13  1  0
 12 20  1  0
 13 14  1  0
 14 15  1  0
 14 17  1  0
 15 16  1  0
 17 18  1  0
 17 19  1  0
 19 20  1  0
 19 25  1  0
 20 21  1  0
 21 22  1  0
 22 23  2  0
 22 24  1  0
  3 26  1  0
  5 27  1  0
  9 28  1  0
  6 29  1  0
  7 30  1  0
  8 31  1  0
 20 32  1  1
 14 33  1  6
 15 34  1  0
 15 35  1  0
 17 36  1  6
 16 37  1  0
 18 38  1  0
 19 39  1  6
 25 40  1  0
 21 41  1  0
 24 42  1  0
 24 43  1  0
 24 44  1  0
M  END
