
     RDKit          3D

 42 44  0  0  0  0  0  0  0  0999 V2000
   -0.8149    2.5879    0.3251 C   0  0  0  0  0  0  0  0  0  0  0  0
   -2.1148    2.3186   -0.4211 C   0  0  0  0  0  0  0  0  0  0  0  0
   -2.8188   -2.2483    2.2686 O   0  0  0  0  0  0  0  0  0  0  0  0
   -2.2053   -1.2173    1.6887 C   0  0  0  0  0  0  0  0  0  0  0  0
   -1.6021   -0.3822    2.3085 O   0  0  0  0  0  0  0  0  0  0  0  0
   -2.3699   -1.2813    0.1926 C   0  0  0  0  0  0  0  0  0  0  0  0
   -1.8518   -0.0671   -0.5753 C   0  0  2  0  0  0  0  0  0  0  0  0
   -2.0193   -0.3015   -2.0923 C   0  0  0  0  0  0  0  0  0  0  0  0
   -3.4538   -0.5105   -2.5564 C   0  0  0  0  0  0  0  0  0  0  0  0
   -0.4091    0.2121   -0.2769 C   0  0  0  0  0  0  0  0  0  0  0  0
    0.6093   -0.6951   -0.3891 N   0  0  0  0  0  0  0  0  0  0  0  0
    1.7891   -0.0858   -0.0489 C   0  0  0  0  0  0  0  0  0  0  0  0
    3.0819   -0.6130    0.0014 C   0  0  0  0  0  0  0  0  0  0  0  0
    3.3752   -2.0322   -0.3962 C   0  0  0  0  0  0  0  0  0  0  0  0
    3.4911   -2.1977   -1.9116 C   0  0  0  0  0  0  0  0  0  0  0  0
   -2.6300    1.0298   -0.1374 O   0  0  0  0  0  0  0  0  0  0  0  0
    0.0824    1.4191    0.1124 C   0  0  0  0  0  0  0  0  0  0  0  0
    1.4931    1.2582    0.2735 C   0  0  0  0  0  0  0  0  0  0  0  0
    2.5324    2.1117    0.6594 C   0  0  0  0  0  0  0  0  0  0  0  0
    3.8160    1.6047    0.7156 C   0  0  0  0  0  0  0  0  0  0  0  0
    4.0813    0.2648    0.3922 C   0  0  0  0  0  0  0  0  0  0  0  0
   -0.3728    3.5135   -0.0537 H   0  0  0  0  0  0  0  0  0  0  0  0
   -1.0108    2.7457    1.3905 H   0  0  0  0  0  0  0  0  0  0  0  0
   -2.8919    3.0235   -0.1235 H   0  0  0  0  0  0  0  0  0  0  0  0
   -1.9511    2.4491   -1.4979 H   0  0  0  0  0  0  0  0  0  0  0  0
   -2.6872   -2.2108    3.2278 H   0  0  0  0  0  0  0  0  0  0  0  0
   -1.8756   -2.1910   -0.1636 H   0  0  0  0  0  0  0  0  0  0  0  0
   -3.4303   -1.4302   -0.0265 H   0  0  0  0  0  0  0  0  0  0  0  0
   -1.5897    0.5532   -2.6208 H   0  0  0  0  0  0  0  0  0  0  0  0
   -1.4081   -1.1619   -2.3801 H   0  0  0  0  0  0  0  0  0  0  0  0
   -4.0988    0.3088   -2.2397 H   0  0  0  0  0  0  0  0  0  0  0  0
   -3.4902   -0.5554   -3.6450 H   0  0  0  0  0  0  0  0  0  0  0  0
   -3.8848   -1.4405   -2.1839 H   0  0  0  0  0  0  0  0  0  0  0  0
    0.5075   -1.6614   -0.6508 H   0  0  0  0  0  0  0  0  0  0  0  0
    4.3061   -2.3518    0.0764 H   0  0  0  0  0  0  0  0  0  0  0  0
    2.5985   -2.7018   -0.0147 H   0  0  0  0  0  0  0  0  0  0  0  0
    2.5711   -1.9033   -2.4183 H   0  0  0  0  0  0  0  0  0  0  0  0
    4.2984   -1.5807   -2.3075 H   0  0  0  0  0  0  0  0  0  0  0  0
    3.6993   -3.2348   -2.1756 H   0  0  0  0  0  0  0  0  0  0  0  0
    2.3342    3.1470    0.9095 H   0  0  0  0  0  0  0  0  0  0  0  0
    4.6360    2.2460    1.0138 H   0  0  0  0  0  0  0  0  0  0  0  0
    5.1014   -0.0982    0.4475 H   0  0  0  0  0  0  0  0  0  0  0  0
 21 20  2  0
 21 13  1  0
 15 14  1  0
 20 19  1  0
 14 13  1  0
 13 12  2  0
 19 18  2  0
 12 18  1  0
 12 11  1  0
 18 17  1  0
 11 10  1  0
 17 10  2  0
 17  1  1  0
 10  7  1  0
  1  2  1  0
  2 16  1  0
  7  6  1  1
  7  8  1  0
  7 16  1  0
  6  4  1  0
  9  8  1  0
  4  5  2  0
  4  3  1  0
  1 22  1  0
  1 23  1  0
  2 24  1  0
  2 25  1  0
  3 26  1  0
  6 27  1  0
  6 28  1  0
  8 29  1  0
  8 30  1  0
  9 31  1  0
  9 32  1  0
  9 33  1  0
 11 34  1  0
 14 35  1  0
 14 36  1  0
 15 37  1  0
 15 38  1  0
 15 39  1  0
 19 40  1  0
 20 41  1  0
 21 42  1  0
M  END
