
     RDKit          3D

 62 67  0  0  0  0  0  0  0  0999 V2000
    4.9236    2.2587   -0.1163 C   0  0  0  0  0  0  0  0  0  0  0  0
    4.8128    3.7340   -0.4723 C   0  0  0  0  0  0  0  0  0  0  0  0
    3.8259    3.9711   -1.4513 O   0  0  0  0  0  0  0  0  0  0  0  0
    2.5462    3.5612   -1.0208 C   0  0  0  0  0  0  0  0  0  0  0  0
    2.5053    2.0758   -0.6971 C   0  0  0  0  0  0  0  0  0  0  0  0
    3.5687    1.7333    0.3440 C   0  0  1  0  0  0  0  0  0  0  0  0
    3.6433    0.3091    0.6011 N   0  0  0  0  0  0  0  0  0  0  0  0
    2.9302   -0.3124    1.5498 C   0  0  0  0  0  0  0  0  0  0  0  0
    2.1677    0.2487    2.3195 O   0  0  0  0  0  0  0  0  0  0  0  0
    3.1841   -1.7883    1.6653 C   0  0  0  0  0  0  0  0  0  0  0  0
    4.4794   -2.2592    1.8278 C   0  0  0  0  0  0  0  0  0  0  0  0
    4.6863   -3.6000    2.1140 C   0  0  0  0  0  0  0  0  0  0  0  0
    3.6918   -4.4696    2.2322 N   0  0  0  0  0  0  0  0  0  0  0  0
    2.4571   -4.0352    2.0368 C   0  0  0  0  0  0  0  0  0  0  0  0
    2.1340   -2.7088    1.7507 C   0  0  0  0  0  0  0  0  0  0  0  0
    0.8065   -2.3426    1.5780 N   0  0  0  0  0  0  0  0  0  0  0  0
    0.3291   -1.5890    0.5302 C   0  0  0  0  0  0  0  0  0  0  0  0
   -0.9324   -0.9591    0.6901 C   0  0  0  0  0  0  0  0  0  0  0  0
    1.0219   -1.4265   -0.6480 C   0  0  0  0  0  0  0  0  0  0  0  0
    0.4757   -0.6362   -1.6723 C   0  0  0  0  0  0  0  0  0  0  0  0
    1.1638   -0.5073   -2.8315 N   0  0  0  0  0  0  0  0  0  0  0  0
    0.6237    0.2184   -3.7713 C   0  0  0  0  0  0  0  0  0  0  0  0
   -0.6305    0.8440   -3.6102 C   0  0  0  0  0  0  0  0  0  0  0  0
   -1.3174    0.7294   -2.5056 N   0  0  0  0  0  0  0  0  0  0  0  0
   -0.7831   -0.0018   -1.5104 C   0  0  0  0  0  0  0  0  0  0  0  0
   -1.4931   -0.1773   -0.2847 C   0  0  0  0  0  0  0  0  0  0  0  0
   -2.8020    0.4643   -0.0485 C   0  0  0  0  0  0  0  0  0  0  0  0
   -3.8574   -0.3043    0.4199 C   0  0  0  0  0  0  0  0  0  0  0  0
   -5.0658    0.3330    0.6890 C   0  0  0  0  0  0  0  0  0  0  0  0
   -6.2440   -0.1873    1.1436 N   0  0  0  0  0  0  0  0  0  0  0  0
   -6.4742   -1.5749    1.4596 C   0  0  0  0  0  0  0  0  0  0  0  0
   -7.1512    0.8285    1.2618 C   0  0  0  0  0  0  0  0  0  0  0  0
   -6.5878    2.0151    0.8864 C   0  0  0  0  0  0  0  0  0  0  0  0
   -5.2430    1.7227    0.5111 C   0  0  0  0  0  0  0  0  0  0  0  0
   -4.1627    2.4815    0.0441 C   0  0  0  0  0  0  0  0  0  0  0  0
   -2.9681    1.8536   -0.2349 C   0  0  0  0  0  0  0  0  0  0  0  0
    5.2651    1.6918   -0.9887 H   0  0  0  0  0  0  0  0  0  0  0  0
    5.6708    2.1313    0.6702 H   0  0  0  0  0  0  0  0  0  0  0  0
    4.5943    4.3120    0.4376 H   0  0  0  0  0  0  0  0  0  0  0  0
    5.7582    4.1019   -0.8731 H   0  0  0  0  0  0  0  0  0  0  0  0
    2.2367    4.1395   -0.1373 H   0  0  0  0  0  0  0  0  0  0  0  0
    1.8465    3.7976   -1.8242 H   0  0  0  0  0  0  0  0  0  0  0  0
    1.5118    1.8093   -0.3280 H   0  0  0  0  0  0  0  0  0  0  0  0
    2.6814    1.4904   -1.6039 H   0  0  0  0  0  0  0  0  0  0  0  0
    3.3066    2.2200    1.2866 H   0  0  0  0  0  0  0  0  0  0  0  0
    4.1568   -0.2548   -0.0599 H   0  0  0  0  0  0  0  0  0  0  0  0
    5.3247   -1.5856    1.7766 H   0  0  0  0  0  0  0  0  0  0  0  0
    5.6911   -3.9783    2.2590 H   0  0  0  0  0  0  0  0  0  0  0  0
    1.6591   -4.7671    2.1137 H   0  0  0  0  0  0  0  0  0  0  0  0
    0.1273   -2.7659    2.1903 H   0  0  0  0  0  0  0  0  0  0  0  0
   -1.4490   -1.0780    1.6355 H   0  0  0  0  0  0  0  0  0  0  0  0
    1.9739   -1.9077   -0.8300 H   0  0  0  0  0  0  0  0  0  0  0  0
    1.1688    0.3283   -4.7023 H   0  0  0  0  0  0  0  0  0  0  0  0
   -1.0544    1.4321   -4.4158 H   0  0  0  0  0  0  0  0  0  0  0  0
   -3.7407   -1.3726    0.5592 H   0  0  0  0  0  0  0  0  0  0  0  0
   -5.8354   -1.9028    2.2799 H   0  0  0  0  0  0  0  0  0  0  0  0
   -7.5108   -1.7062    1.7570 H   0  0  0  0  0  0  0  0  0  0  0  0
   -6.2826   -2.2086    0.5941 H   0  0  0  0  0  0  0  0  0  0  0  0
   -8.1509    0.6225    1.6120 H   0  0  0  0  0  0  0  0  0  0  0  0
   -7.0751    2.9770    0.8823 H   0  0  0  0  0  0  0  0  0  0  0  0
   -4.2597    3.5512   -0.0942 H   0  0  0  0  0  0  0  0  0  0  0  0
   -2.1308    2.4414   -0.5850 H   0  0  0  0  0  0  0  0  0  0  0  0
 13 12  1  0
 13 14  2  0
 12 11  2  0
 14 15  1  0
 11 10  1  0
 15 10  2  0
 15 16  1  0
 10  8  1  0
 16 17  1  0
  8  7  1  0
  8  9  2  0
 19 17  1  0
 19 20  2  0
  7  6  1  0
 17 18  2  0
 21 20  1  0
 21 22  2  0
 20 25  1  0
 22 23  1  0
 18 26  1  0
  1  6  1  0
  1  2  1  0
 25 26  2  0
 25 24  1  0
 23 24  2  0
 26 27  1  0
 36 27  1  0
 36 35  2  0
  6  5  1  0
 27 28  2  0
  5  4  1  0
 35 34  1  0
  2  3  1  0
  3  4  1  0
 28 29  1  0
 34 29  2  0
 34 33  1  0
 29 30  1  0
 33 32  2  0
 30 32  1  0
 30 31  1  0
  1 37  1  0
  1 38  1  0
  2 39  1  0
  2 40  1  0
  4 41  1  0
  4 42  1  0
  5 43  1  0
  5 44  1  0
  6 45  1  1
  7 46  1  0
 11 47  1  0
 12 48  1  0
 14 49  1  0
 16 50  1  0
 18 51  1  0
 19 52  1  0
 22 53  1  0
 23 54  1  0
 28 55  1  0
 31 56  1  0
 31 57  1  0
 31 58  1  0
 32 59  1  0
 33 60  1  0
 35 61  1  0
 36 62  1  0
M  END
