
     RDKit          3D

 23 23  0  0  0  0  0  0  0  0999 V2000
   -3.4887   -0.4388   -0.1905 C   0  0  0  0  0  0  0  0  0  0  0  0
   -2.0994    0.1089   -0.0316 C   0  0  0  0  0  0  0  0  0  0  0  0
   -1.0581   -0.7528   -0.0905 C   0  0  0  0  0  0  0  0  0  0  0  0
    0.3677   -0.5665    0.0178 C   0  0  0  0  0  0  0  0  0  0  0  0
    1.0137    0.6692    0.1908 C   0  0  0  0  0  0  0  0  0  0  0  0
    2.3861    0.7451    0.2835 C   0  0  0  0  0  0  0  0  0  0  0  0
    3.1556   -0.4323    0.2061 C   0  0  0  0  0  0  0  0  0  0  0  0
    2.5294   -1.6570    0.0331 C   0  0  0  0  0  0  0  0  0  0  0  0
    1.1511   -1.7227   -0.0618 C   0  0  0  0  0  0  0  0  0  0  0  0
   -1.9594    1.5038    0.1847 C   0  0  0  0  0  0  0  0  0  0  0  0
   -4.4823    0.4571   -0.1583 N   0  0  0  0  0  0  0  0  0  0  0  0
   -1.9096    2.6405    0.3818 N   0  0  0  0  0  0  0  0  0  0  0  0
   -3.6746   -1.6374   -0.3350 O   0  0  0  0  0  0  0  0  0  0  0  0
    2.9656    1.9485    0.4464 O   0  0  0  0  0  0  0  0  0  0  0  0
    4.4818   -0.2712    0.3056 O   0  0  0  0  0  0  0  0  0  0  0  0
   -1.3545   -1.7843   -0.2503 H   0  0  0  0  0  0  0  0  0  0  0  0
    0.4588    1.5942    0.2518 H   0  0  0  0  0  0  0  0  0  0  0  0
    3.1221   -2.5618   -0.0288 H   0  0  0  0  0  0  0  0  0  0  0  0
    0.6776   -2.6859   -0.2018 H   0  0  0  0  0  0  0  0  0  0  0  0
   -4.3403    1.4492   -0.0772 H   0  0  0  0  0  0  0  0  0  0  0  0
   -5.4339    0.1438   -0.2619 H   0  0  0  0  0  0  0  0  0  0  0  0
    3.9265    1.8679    0.4692 H   0  0  0  0  0  0  0  0  0  0  0  0
    4.9481   -1.1110    0.2170 H   0  0  0  0  0  0  0  0  0  0  0  0
 15  7  1  0
  8  7  2  0
  8  9  1  0
  7  6  1  0
  9  4  2  0
  6 14  1  0
  6  5  2  0
  4  5  1  0
  4  3  1  0
  3  2  2  0
  2 10  1  0
  2  1  1  0
 13  1  2  0
 10 12  3  0
  1 11  1  0
  3 16  1  0
  5 17  1  0
  8 18  1  0
  9 19  1  0
 11 20  1  0
 11 21  1  0
 14 22  1  0
 15 23  1  0
M  END
