
     RDKit          3D

 19 20  0  0  0  0  0  0  0  0999 V2000
    2.7685    1.3389    0.7681 N   0  0  0  0  0  0  0  0  0  0  0  0
    2.3495    0.2784   -0.3890 S   0  0  1  0  0  0  0  0  0  0  0  0
    2.8062   -1.0487   -0.0194 O   0  0  0  0  0  0  0  0  0  0  0  0
   -0.1273   -1.2201    0.4837 S   0  0  0  0  0  0  0  0  0  0  0  0
    0.5785    0.1827   -0.2416 C   0  0  0  0  0  0  0  0  0  0  0  0
    2.6376    0.8549   -1.6851 O   0  0  0  0  0  0  0  0  0  0  0  0
   -0.2048    1.1079   -0.6448 N   0  0  0  0  0  0  0  0  0  0  0  0
   -2.6288    1.5380   -0.7013 C   0  0  0  0  0  0  0  0  0  0  0  0
   -3.8778    1.0476   -0.3840 C   0  0  0  0  0  0  0  0  0  0  0  0
   -4.0285   -0.2019    0.2337 C   0  0  0  0  0  0  0  0  0  0  0  0
   -2.9345   -0.9845    0.5486 C   0  0  0  0  0  0  0  0  0  0  0  0
   -1.6739   -0.4885    0.2307 C   0  0  0  0  0  0  0  0  0  0  0  0
   -1.5097    0.7620   -0.3918 C   0  0  0  0  0  0  0  0  0  0  0  0
    3.2225    0.9491    1.5836 H   0  0  0  0  0  0  0  0  0  0  0  0
    3.1548    2.2163    0.4454 H   0  0  0  0  0  0  0  0  0  0  0  0
   -2.5041    2.5001   -1.1802 H   0  0  0  0  0  0  0  0  0  0  0  0
   -4.7574    1.6336   -0.6139 H   0  0  0  0  0  0  0  0  0  0  0  0
   -5.0210   -0.5624    0.4679 H   0  0  0  0  0  0  0  0  0  0  0  0
   -3.0569   -1.9473    1.0256 H   0  0  0  0  0  0  0  0  0  0  0  0
  2  1  1  1
  1 14  1  0
  1 15  1  0
  5  2  1  0
  3  2  2  0
  2  6  2  0
 12  4  1  0
  4  5  1  0
  7  5  2  0
 13  7  1  0
  9  8  1  0
  8 13  2  0
  8 16  1  0
 10  9  2  0
  9 17  1  0
 10 11  1  0
 10 18  1  0
 11 12  2  0
 11 19  1  0
 12 13  1  0
M  END
