
     RDKit          3D

 42 43  0  0  0  0  0  0  0  0999 V2000
   -4.7682   -0.5103   -1.6164 O   0  0  0  0  0  0  0  0  0  0  0  0
    7.8586    1.2781   -0.8814 Cl  0  0  0  0  0  0  0  0  0  0  0  0
   -9.5964   -0.4003    0.5575 C   0  0  0  0  0  0  0  0  0  0  0  0
   -8.8798   -0.8067   -0.5578 C   0  0  0  0  0  0  0  0  0  0  0  0
   -8.9052    0.1539    1.6276 C   0  0  0  0  0  0  0  0  0  0  0  0
   -7.4988   -0.6701   -0.6247 C   0  0  0  0  0  0  0  0  0  0  0  0
   -7.5303    0.3008    1.5751 C   0  0  0  0  0  0  0  0  0  0  0  0
    6.4811   -0.3406    0.7664 C   0  0  0  0  0  0  0  0  0  0  0  0
    4.1106   -0.7750    0.5035 C   0  0  0  0  0  0  0  0  0  0  0  0
    5.2335    0.6900   -1.0352 C   0  0  0  0  0  0  0  0  0  0  0  0
   -0.8050    0.2110   -0.3000 C   0  0  0  0  0  0  0  0  0  0  0  0
    0.3786    0.2345   -1.2537 C   0  0  0  0  0  0  0  0  0  0  0  0
   -2.1281    0.1947   -1.0490 C   0  0  0  0  0  0  0  0  0  0  0  0
    2.7896    0.2378   -1.3846 C   0  0  0  0  0  0  0  0  0  0  0  0
    1.6302    0.2120   -0.5214 N   0  0  0  0  0  0  0  0  0  0  0  0
   -3.2321    0.2025   -0.1141 N   0  0  0  0  0  0  0  0  0  0  0  0
   -5.4252    0.0776    0.4991 N   0  0  0  0  0  0  0  0  0  0  0  0
   -4.4956   -0.1006   -0.4968 C   0  0  0  0  0  0  0  0  0  0  0  0
    5.3086   -0.9587    1.1723 C   0  0  0  0  0  0  0  0  0  0  0  0
    6.4173    0.4817   -0.3463 C   0  0  0  0  0  0  0  0  0  0  0  0
    4.0711    0.0542   -0.6134 C   0  0  0  0  0  0  0  0  0  0  0  0
   -6.8046   -0.1059    0.4491 C   0  0  0  0  0  0  0  0  0  0  0  0
  -10.6716   -0.5140    0.5949 H   0  0  0  0  0  0  0  0  0  0  0  0
   -9.3971   -1.2447   -1.4021 H   0  0  0  0  0  0  0  0  0  0  0  0
   -9.4369    0.4798    2.5124 H   0  0  0  0  0  0  0  0  0  0  0  0
   -6.9764   -1.0063   -1.5044 H   0  0  0  0  0  0  0  0  0  0  0  0
   -7.0087    0.7385    2.4185 H   0  0  0  0  0  0  0  0  0  0  0  0
    7.4088   -0.4905    1.3007 H   0  0  0  0  0  0  0  0  0  0  0  0
    3.2085   -1.2640    0.8446 H   0  0  0  0  0  0  0  0  0  0  0  0
    5.2135    1.3480   -1.8945 H   0  0  0  0  0  0  0  0  0  0  0  0
   -0.7355   -0.6682    0.3456 H   0  0  0  0  0  0  0  0  0  0  0  0
   -0.7612    1.0912    0.3511 H   0  0  0  0  0  0  0  0  0  0  0  0
    0.3439   -0.6503   -1.8973 H   0  0  0  0  0  0  0  0  0  0  0  0
    0.2944    1.1058   -1.9223 H   0  0  0  0  0  0  0  0  0  0  0  0
   -2.1815    1.0521   -1.7298 H   0  0  0  0  0  0  0  0  0  0  0  0
   -2.1884   -0.7038   -1.6648 H   0  0  0  0  0  0  0  0  0  0  0  0
    2.6978   -0.5879   -2.0982 H   0  0  0  0  0  0  0  0  0  0  0  0
    2.8610    1.1519   -1.9924 H   0  0  0  0  0  0  0  0  0  0  0  0
    1.6660    1.0103    0.1025 H   0  0  0  0  0  0  0  0  0  0  0  0
   -3.0854    0.6919    0.7547 H   0  0  0  0  0  0  0  0  0  0  0  0
   -5.0834    0.4296    1.3806 H   0  0  0  0  0  0  0  0  0  0  0  0
    5.3517   -1.9919    2.5618 Cl  0  0  0  0  0  0  0  0  0  0  0  0
  1 18  2  0
 42 19  1  0
  2 20  1  0
  3  4  2  0
  3  5  1  0
  4  6  1  0
  5  7  2  0
  6 22  2  0
  7 22  1  0
  8 19  2  0
  8 20  1  0
  9 19  1  0
  9 21  2  0
 10 20  2  0
 10 21  1  0
 11 12  1  0
 11 13  1  0
 12 15  1  0
 13 16  1  0
 14 15  1  0
 14 21  1  0
 16 18  1  0
 17 18  1  0
 17 22  1  0
  3 23  1  0
  4 24  1  0
  5 25  1  0
  6 26  1  0
  7 27  1  0
  8 28  1  0
  9 29  1  0
 10 30  1  0
 11 31  1  0
 11 32  1  0
 12 33  1  0
 12 34  1  0
 13 35  1  0
 13 36  1  0
 14 37  1  0
 14 38  1  0
 15 39  1  0
 16 40  1  0
 17 41  1  0
M  END
