
     RDKit          3D

 50 53  0  0  0  0  0  0  0  0999 V2000
    3.9600   -0.5801   -1.1522 C   0  0  0  0  0  0  0  0  0  0  0  0
   -1.4570    0.2854    1.6232 C   0  0  0  0  0  0  0  0  0  0  0  0
   -0.5573    0.6798   -0.5562 C   0  0  0  0  0  0  0  0  0  0  0  0
   -1.7308    0.2724   -1.1550 C   0  0  0  0  0  0  0  0  0  0  0  0
   -2.8057   -0.1513   -0.3546 C   0  0  0  0  0  0  0  0  0  0  0  0
   -5.2075   -0.7817   -0.2609 C   0  0  2  0  0  0  0  0  0  0  0  0
   -6.1638   -1.5978   -1.1229 C   0  0  0  0  0  0  0  0  0  0  0  0
   -5.8735    0.5332    0.1544 C   0  0  0  0  0  0  0  0  0  0  0  0
   -2.6453   -0.1337    1.0424 C   0  0  0  0  0  0  0  0  0  0  0  0
   -7.2152    0.2620    0.8197 C   0  0  0  0  0  0  0  0  0  0  0  0
    5.4989   -3.4982    0.3626 O   0  0  0  0  0  0  0  0  0  0  0  0
    4.9654   -2.2849    0.1912 C   0  0  0  0  0  0  0  0  0  0  0  0
    4.9042   -1.4532    1.3007 C   0  0  0  0  0  0  0  0  0  0  0  0
    4.3680   -0.1740    1.2033 C   0  0  0  0  0  0  0  0  0  0  0  0
    4.3617    0.5626    2.3155 O   0  0  0  0  0  0  0  0  0  0  0  0
    3.8724    0.2619   -0.0414 C   0  0  0  0  0  0  0  0  0  0  0  0
    3.1022    1.8273   -0.2417 S   0  0  1  0  0  0  0  0  0  0  0  0
    1.4868    1.6304   -0.0860 N   0  0  0  0  0  0  0  0  0  0  0  0
    0.7029    1.1303   -1.2272 C   0  0  0  0  0  0  0  0  0  0  0  0
   -7.4980   -1.7811   -0.4138 C   0  0  0  0  0  0  0  0  0  0  0  0
   -8.0704   -0.4891   -0.0813 N   0  0  0  0  0  0  0  0  0  0  0  0
   -0.4075    0.6957    0.8209 C   0  0  0  0  0  0  0  0  0  0  0  0
    0.9570    1.1702    1.2090 C   0  0  0  0  0  0  0  0  0  0  0  0
    3.5189    2.6470    0.9016 O   0  0  0  0  0  0  0  0  0  0  0  0
    3.3367    2.3092   -1.5903 O   0  0  0  0  0  0  0  0  0  0  0  0
    4.4950   -1.8428   -1.0511 C   0  0  0  0  0  0  0  0  0  0  0  0
    3.6150   -0.2383   -2.1187 H   0  0  0  0  0  0  0  0  0  0  0  0
   -1.3672    0.2901    2.7026 H   0  0  0  0  0  0  0  0  0  0  0  0
   -1.8295    0.2703   -2.2349 H   0  0  0  0  0  0  0  0  0  0  0  0
   -5.0097   -1.3687    0.6439 H   0  0  0  0  0  0  0  0  0  0  0  0
   -6.3305   -1.0847   -2.0763 H   0  0  0  0  0  0  0  0  0  0  0  0
   -5.7248   -2.5718   -1.3498 H   0  0  0  0  0  0  0  0  0  0  0  0
   -5.2279    1.0920    0.8365 H   0  0  0  0  0  0  0  0  0  0  0  0
   -6.0216    1.1561   -0.7336 H   0  0  0  0  0  0  0  0  0  0  0  0
   -3.4534   -0.4488    1.6887 H   0  0  0  0  0  0  0  0  0  0  0  0
   -7.0368   -0.2660    1.7719 H   0  0  0  0  0  0  0  0  0  0  0  0
   -7.7050    1.2047    1.0710 H   0  0  0  0  0  0  0  0  0  0  0  0
    5.5162   -3.9880   -0.4681 H   0  0  0  0  0  0  0  0  0  0  0  0
    5.2900   -1.7913    2.2544 H   0  0  0  0  0  0  0  0  0  0  0  0
    4.1086    1.4818    2.1069 H   0  0  0  0  0  0  0  0  0  0  0  0
    1.1847    0.2902   -1.7408 H   0  0  0  0  0  0  0  0  0  0  0  0
    0.5419    1.9212   -1.9598 H   0  0  0  0  0  0  0  0  0  0  0  0
   -4.0477   -0.3462   -1.9285 H   0  0  0  0  0  0  0  0  0  0  0  0
   -8.1899   -2.3180   -1.0657 H   0  0  0  0  0  0  0  0  0  0  0  0
   -7.3429   -2.4164    0.4742 H   0  0  0  0  0  0  0  0  0  0  0  0
   -8.9770   -0.6233    0.3468 H   0  0  0  0  0  0  0  0  0  0  0  0
    1.5511    0.3518    1.6350 H   0  0  0  0  0  0  0  0  0  0  0  0
    0.9452    1.9875    1.9310 H   0  0  0  0  0  0  0  0  0  0  0  0
    4.5579   -2.4764   -1.9266 H   0  0  0  0  0  0  0  0  0  0  0  0
   -3.9517   -0.6061   -0.9582 N   0  0  0  0  0  0  0  0  0  0  0  0
 10 21  1  0
 10  8  1  0
 21 20  1  0
  8  6  1  0
 20  7  1  0
  6  7  1  0
  6 50  1  0
 50  5  1  0
 15 14  1  0
  5  4  2  0
  5  9  1  0
  4  3  1  0
  9  2  2  0
  3 19  1  0
  3 22  2  0
 19 18  1  0
  2 22  1  0
 14 13  2  0
 14 16  1  0
 22 23  1  0
 13 12  1  0
 18 23  1  0
 18 17  1  0
 25 17  2  0
 17 16  1  6
 17 24  2  0
 16  1  2  0
 12 11  1  0
 12 26  2  0
  1 26  1  0
  1 27  1  0
  2 28  1  0
  4 29  1  0
  6 30  1  1
  7 31  1  0
  7 32  1  0
  8 33  1  0
  8 34  1  0
  9 35  1  0
 10 36  1  0
 10 37  1  0
 11 38  1  0
 13 39  1  0
 15 40  1  0
 19 41  1  0
 19 42  1  0
 50 43  1  0
 20 44  1  0
 20 45  1  0
 21 46  1  0
 23 47  1  0
 23 48  1  0
 26 49  1  0
M  END
