
     RDKit          3D

 15 14  0  0  0  0  0  0  0  0999 V2000
    0.0092   -0.2540   -0.0314 O   0  0  0  0  0  0  0  0  0  0  0  0
   -2.3663   -0.4197   -0.0441 C   0  0  0  0  0  0  0  0  0  0  0  0
   -1.1734    0.5105   -0.0272 C   0  0  0  0  0  0  0  0  0  0  0  0
    1.1774    0.5322   -0.0155 C   0  0  0  0  0  0  0  0  0  0  0  0
    2.3872   -0.3760   -0.0187 C   0  0  0  0  0  0  0  0  0  0  0  0
   -2.3675   -1.0467   -0.9364 H   0  0  0  0  0  0  0  0  0  0  0  0
   -2.3770   -1.0671    0.8335 H   0  0  0  0  0  0  0  0  0  0  0  0
   -3.2893    0.1599   -0.0425 H   0  0  0  0  0  0  0  0  0  0  0  0
   -1.2119    1.1563    0.8617 H   0  0  0  0  0  0  0  0  0  0  0  0
   -1.2042    1.1777   -0.9004 H   0  0  0  0  0  0  0  0  0  0  0  0
    1.2052    1.1992   -0.8888 H   0  0  0  0  0  0  0  0  0  0  0  0
    1.1949    1.1789    0.8734 H   0  0  0  0  0  0  0  0  0  0  0  0
    2.3979   -1.0252    0.8576 H   0  0  0  0  0  0  0  0  0  0  0  0
    2.4118   -1.0014   -0.9119 H   0  0  0  0  0  0  0  0  0  0  0  0
    3.2996    0.2198   -0.0033 H   0  0  0  0  0  0  0  0  0  0  0  0
  5  4  1  0
  4  1  1  0
  1  3  1  0
  3  2  1  0
  2  6  1  0
  2  7  1  0
  2  8  1  0
  3  9  1  0
  3 10  1  0
  4 11  1  0
  4 12  1  0
  5 13  1  0
  5 14  1  0
  5 15  1  0
M  END
