
     RDKit          3D

 43 44  0  0  0  0  0  0  0  0999 V2000
    5.6561   -0.5346    1.0858 C   0  0  0  0  0  0  0  0  0  0  0  0
    6.8404   -0.3091    0.4036 C   0  0  0  0  0  0  0  0  0  0  0  0
    8.3090   -1.0000    1.0069 Cl  0  0  0  0  0  0  0  0  0  0  0  0
    6.8844    0.4482   -0.7554 C   0  0  0  0  0  0  0  0  0  0  0  0
    5.6912    0.9836   -1.2142 C   0  0  0  0  0  0  0  0  0  0  0  0
    5.7090    1.9328   -2.6632 Cl  0  0  0  0  0  0  0  0  0  0  0  0
    4.4917    0.7820   -0.5529 C   0  0  0  0  0  0  0  0  0  0  0  0
    4.4719    0.0183    0.6101 C   0  0  0  0  0  0  0  0  0  0  0  0
    3.1885   -0.1838    1.3740 C   0  0  0  0  0  0  0  0  0  0  0  0
    2.0359   -0.2065    0.5024 N   0  0  0  0  0  0  0  0  0  0  0  0
    0.7790   -0.2491    1.2245 C   0  0  0  0  0  0  0  0  0  0  0  0
   -0.3959   -0.2735    0.2603 C   0  0  0  0  0  0  0  0  0  0  0  0
   -1.7265   -0.2703    0.9965 C   0  0  0  0  0  0  0  0  0  0  0  0
   -2.8202   -0.3622    0.0540 N   0  0  0  0  0  0  0  0  0  0  0  0
   -4.0915   -0.0401    0.3940 C   0  0  0  0  0  0  0  0  0  0  0  0
   -4.3822    0.4770    1.4629 O   0  0  0  0  0  0  0  0  0  0  0  0
   -5.0079   -0.3318   -0.5884 N   0  0  0  0  0  0  0  0  0  0  0  0
   -6.3853   -0.1382   -0.5904 C   0  0  0  0  0  0  0  0  0  0  0  0
   -7.0943    0.4864    0.4338 C   0  0  0  0  0  0  0  0  0  0  0  0
   -7.0769   -0.6069   -1.7158 C   0  0  0  0  0  0  0  0  0  0  0  0
   -8.4470   -0.4494   -1.7999 C   0  0  0  0  0  0  0  0  0  0  0  0
   -9.1662    0.1686   -0.7864 C   0  0  0  0  0  0  0  0  0  0  0  0
   -8.4763    0.6337    0.3277 C   0  0  0  0  0  0  0  0  0  0  0  0
   -9.0975    1.2489    1.3552 O   0  0  0  0  0  0  0  0  0  0  0  0
    5.6530   -1.1416    1.9821 H   0  0  0  0  0  0  0  0  0  0  0  0
    7.8130    0.6109   -1.2840 H   0  0  0  0  0  0  0  0  0  0  0  0
    3.5734    1.2062   -0.9349 H   0  0  0  0  0  0  0  0  0  0  0  0
    3.2796   -1.0828    2.0015 H   0  0  0  0  0  0  0  0  0  0  0  0
    0.7114   -1.1109    1.9070 H   0  0  0  0  0  0  0  0  0  0  0  0
    0.7162    0.6450    1.8528 H   0  0  0  0  0  0  0  0  0  0  0  0
   -0.3399    0.5917   -0.4048 H   0  0  0  0  0  0  0  0  0  0  0  0
   -0.3259   -1.1671   -0.3699 H   0  0  0  0  0  0  0  0  0  0  0  0
   -1.7571   -1.0967    1.7161 H   0  0  0  0  0  0  0  0  0  0  0  0
   -1.8254    0.6528    1.5686 H   0  0  0  0  0  0  0  0  0  0  0  0
   -2.6610   -0.9341   -0.7606 H   0  0  0  0  0  0  0  0  0  0  0  0
   -4.6499   -0.7583   -1.4292 H   0  0  0  0  0  0  0  0  0  0  0  0
   -6.5941    0.8662    1.3097 H   0  0  0  0  0  0  0  0  0  0  0  0
   -6.5380   -1.0933   -2.5198 H   0  0  0  0  0  0  0  0  0  0  0  0
   -8.9686   -0.8177   -2.6738 H   0  0  0  0  0  0  0  0  0  0  0  0
  -10.2407    0.2857   -0.8652 H   0  0  0  0  0  0  0  0  0  0  0  0
  -10.0435    1.3107    1.1831 H   0  0  0  0  0  0  0  0  0  0  0  0
    3.0693    0.6534    2.0701 H   0  0  0  0  0  0  0  0  0  0  0  0
    2.0982   -1.0143   -0.1072 H   0  0  0  0  0  0  0  0  0  0  0  0
 24 23  1  0
 22 23  1  0
 22 21  2  0
 23 19  2  0
 21 20  1  0
 19 18  1  0
 20 18  2  0
 18 17  1  0
 17 15  1  0
 16 15  2  0
 15 14  1  0
 14 13  1  0
 13 12  1  0
 12 11  1  0
 11 10  1  0
 10  9  1  0
  6  5  1  0
  8  7  1  0
  8  1  2  0
  8  9  1  0
  5  4  1  0
  5  7  2  0
  4  2  2  0
  2  1  1  0
  2  3  1  0
  1 25  1  0
  4 26  1  0
  7 27  1  0
  9 28  1  0
 11 29  1  0
 11 30  1  0
 12 31  1  0
 12 32  1  0
 13 33  1  0
 13 34  1  0
 14 35  1  0
 17 36  1  0
 19 37  1  0
 20 38  1  0
 21 39  1  0
 22 40  1  0
 24 41  1  0
  9 42  1  0
 10 43  1  0
M  END
