
     RDKit          3D

 29 29  0  0  0  0  0  0  0  0999 V2000
    6.6139   -1.0951   -0.0258 O   0  0  0  0  0  0  0  0  0  0  0  0
    6.3106    0.0715   -0.0332 C   0  0  0  0  0  0  0  0  0  0  0  0
    4.9020    0.5945   -0.0695 C   0  0  0  0  0  0  0  0  0  0  0  0
    3.8706   -0.5189   -0.1100 C   0  0  0  0  0  0  0  0  0  0  0  0
    2.5425    0.0550   -0.1471 N   0  0  0  0  0  0  0  0  0  0  0  0
    1.4466   -0.6432    0.1982 C   0  0  0  0  0  0  0  0  0  0  0  0
    1.4950   -1.8043    0.5828 O   0  0  0  0  0  0  0  0  0  0  0  0
    0.1460    0.0814    0.0968 C   0  0  0  0  0  0  0  0  0  0  0  0
   -1.0179   -0.6774   -0.0167 C   0  0  0  0  0  0  0  0  0  0  0  0
   -2.2477   -0.0590   -0.0968 C   0  0  0  0  0  0  0  0  0  0  0  0
   -3.8077   -1.0976   -0.2737 Br  0  0  0  0  0  0  0  0  0  0  0  0
   -2.3655    1.3374   -0.0443 C   0  0  0  0  0  0  0  0  0  0  0  0
   -3.5928    1.8493   -0.1182 O   0  0  0  0  0  0  0  0  0  0  0  0
   -3.7560    3.2574   -0.0590 C   0  0  0  0  0  0  0  0  0  0  0  0
   -1.1995    2.0894    0.0866 C   0  0  0  0  0  0  0  0  0  0  0  0
    0.0357    1.4656    0.1542 C   0  0  0  0  0  0  0  0  0  0  0  0
    4.7451    1.2303    0.8067 H   0  0  0  0  0  0  0  0  0  0  0  0
    4.8025    1.2502   -0.9402 H   0  0  0  0  0  0  0  0  0  0  0  0
    4.0365   -1.1632   -0.9779 H   0  0  0  0  0  0  0  0  0  0  0  0
    3.9565   -1.1456    0.7765 H   0  0  0  0  0  0  0  0  0  0  0  0
    2.4272    0.9191   -0.6523 H   0  0  0  0  0  0  0  0  0  0  0  0
   -0.9509   -1.7567   -0.0493 H   0  0  0  0  0  0  0  0  0  0  0  0
   -4.8237    3.4409   -0.1384 H   0  0  0  0  0  0  0  0  0  0  0  0
   -3.3947    3.6664    0.8870 H   0  0  0  0  0  0  0  0  0  0  0  0
   -3.2475    3.7584   -0.8854 H   0  0  0  0  0  0  0  0  0  0  0  0
   -1.2420    3.1678    0.1464 H   0  0  0  0  0  0  0  0  0  0  0  0
    0.9104    2.0904    0.2797 H   0  0  0  0  0  0  0  0  0  0  0  0
    7.1994    1.0573   -0.0070 O   0  0  0  0  0  0  0  0  0  0  0  0
    8.0979    0.6950    0.0162 H   0  0  0  0  0  0  0  0  0  0  0  0
  4  5  1  0
  4  3  1  0
  5  6  1  0
  7  6  2  0
  3  2  1  0
  6  8  1  0
 16  8  2  0
 16 15  1  0
  8  9  1  0
  2  1  2  0
 15 12  2  0
  9 10  2  0
 10 12  1  0
 10 11  1  0
 12 13  1  0
 13 14  1  0
  3 17  1  0
  3 18  1  0
  4 19  1  0
  4 20  1  0
  5 21  1  0
  9 22  1  0
 14 23  1  0
 14 24  1  0
 14 25  1  0
 15 26  1  0
 16 27  1  0
  2 28  1  0
 28 29  1  0
M  END
