
     RDKit          3D

 34 35  0  0  0  0  0  0  0  0999 V2000
    4.7218   -1.4068    0.4262 N   0  0  0  0  0  0  0  0  0  0  0  0
    4.0866    1.0824   -0.3428 O   0  0  0  0  0  0  0  0  0  0  0  0
   -1.7413   -0.6627   -0.1084 C   0  0  0  0  0  0  0  0  0  0  0  0
    1.7157    0.6759   -0.0572 C   0  0  0  0  0  0  0  0  0  0  0  0
    3.0425    0.2843   -0.0210 C   0  0  0  0  0  0  0  0  0  0  0  0
    3.3917   -1.0306    0.3503 C   0  0  0  0  0  0  0  0  0  0  0  0
    0.6819   -0.2061    0.2877 C   0  0  0  0  0  0  0  0  0  0  0  0
    1.0310   -1.4982    0.6625 C   0  0  0  0  0  0  0  0  0  0  0  0
    2.3603   -1.8999    0.6866 C   0  0  0  0  0  0  0  0  0  0  0  0
   -3.0687   -0.2743   -0.1469 C   0  0  0  0  0  0  0  0  0  0  0  0
   -0.7252    0.2347    0.2489 C   0  0  0  0  0  0  0  0  0  0  0  0
   -3.4384    1.0472    0.1790 C   0  0  0  0  0  0  0  0  0  0  0  0
   -2.4247    1.9311    0.5314 C   0  0  0  0  0  0  0  0  0  0  0  0
   -1.0930    1.5372    0.5653 C   0  0  0  0  0  0  0  0  0  0  0  0
   -3.8158   -2.4315   -0.8084 C   0  0  0  0  0  0  0  0  0  0  0  0
    3.8219    2.4086   -0.7465 C   0  0  0  0  0  0  0  0  0  0  0  0
   -4.7601    1.4450    0.0824 N   0  0  0  0  0  0  0  0  0  0  0  0
    5.3411   -0.9314   -0.2113 H   0  0  0  0  0  0  0  0  0  0  0  0
    4.8677   -2.4036    0.3874 H   0  0  0  0  0  0  0  0  0  0  0  0
   -1.4684   -1.6718   -0.3877 H   0  0  0  0  0  0  0  0  0  0  0  0
    1.4588    1.6757   -0.3814 H   0  0  0  0  0  0  0  0  0  0  0  0
    0.2675   -2.2075    0.9566 H   0  0  0  0  0  0  0  0  0  0  0  0
    2.6062   -2.9127    0.9840 H   0  0  0  0  0  0  0  0  0  0  0  0
   -2.6866    2.9491    0.7959 H   0  0  0  0  0  0  0  0  0  0  0  0
   -0.3444    2.2586    0.8686 H   0  0  0  0  0  0  0  0  0  0  0  0
   -3.3548   -2.9614    0.0298 H   0  0  0  0  0  0  0  0  0  0  0  0
   -4.7692   -2.9018   -1.0373 H   0  0  0  0  0  0  0  0  0  0  0  0
   -3.1633   -2.5201   -1.6812 H   0  0  0  0  0  0  0  0  0  0  0  0
    3.2167    2.4465   -1.6563 H   0  0  0  0  0  0  0  0  0  0  0  0
    3.3158    2.9804    0.0362 H   0  0  0  0  0  0  0  0  0  0  0  0
    4.7853    2.8705   -0.9489 H   0  0  0  0  0  0  0  0  0  0  0  0
   -5.4413    0.7250    0.2644 H   0  0  0  0  0  0  0  0  0  0  0  0
   -4.9774    2.2824    0.5995 H   0  0  0  0  0  0  0  0  0  0  0  0
   -4.0954   -1.0845   -0.4931 O   0  0  0  0  0  0  0  0  0  0  0  0
  1  6  1  0
 34 10  1  0
 34 15  1  0
  2  5  1  0
  2 16  1  0
  3 10  2  0
  3 11  1  0
  4  5  2  0
  4  7  1  0
  5  6  1  0
  6  9  2  0
  7  8  2  0
  7 11  1  0
  8  9  1  0
 10 12  1  0
 11 14  2  0
 12 13  2  0
 12 17  1  0
 13 14  1  0
  1 18  1  0
  1 19  1  0
  3 20  1  0
  4 21  1  0
  8 22  1  0
  9 23  1  0
 13 24  1  0
 14 25  1  0
 15 26  1  0
 15 27  1  0
 15 28  1  0
 16 29  1  0
 16 30  1  0
 16 31  1  0
 17 32  1  0
 17 33  1  0
M  END
