
     RDKit          3D

 53 56  0  0  0  0  0  0  0  0999 V2000
   -3.3975   -0.9884    0.1452 C   0  0  0  0  0  0  0  0  0  0  0  0
    3.6918    2.1313    2.0639 C   0  0  0  0  0  0  0  0  0  0  0  0
    3.1962    0.9904    1.4554 C   0  0  0  0  0  0  0  0  0  0  0  0
    3.6450    0.6117    0.1875 C   0  0  0  0  0  0  0  0  0  0  0  0
    4.5899    1.4099   -0.4448 C   0  0  0  0  0  0  0  0  0  0  0  0
    5.1062    2.5573    0.1583 C   0  0  0  0  0  0  0  0  0  0  0  0
    4.6445    2.9130    1.4188 C   0  0  0  0  0  0  0  0  0  0  0  0
    6.1508    3.3827   -0.5473 C   0  0  0  0  0  0  0  0  0  0  0  0
    5.7198    3.7484   -1.8876 N   0  0  0  0  0  0  0  0  0  0  0  0
    3.1213   -0.6330   -0.4834 C   0  0  1  0  0  0  0  0  0  0  0  0
    3.3812   -1.8888    0.3542 C   0  0  0  0  0  0  0  0  0  0  0  0
    2.8023   -3.1380   -0.2982 C   0  0  0  0  0  0  0  0  0  0  0  0
    1.3842   -2.9451   -0.5583 N   0  0  0  0  0  0  0  0  0  0  0  0
    1.1278   -1.8176   -1.4424 C   0  0  0  0  0  0  0  0  0  0  0  0
    1.6316   -0.5231   -0.8244 C   0  0  0  0  0  0  0  0  0  0  0  0
    0.4804   -3.8193   -0.0811 C   0  0  0  0  0  0  0  0  0  0  0  0
    0.7783   -4.9031    0.4090 O   0  0  0  0  0  0  0  0  0  0  0  0
   -0.9587   -3.4736   -0.1240 C   0  0  0  0  0  0  0  0  0  0  0  0
   -1.3793   -2.2006    0.0124 O   0  0  0  0  0  0  0  0  0  0  0  0
   -2.7304   -2.2160    0.0148 C   0  0  0  0  0  0  0  0  0  0  0  0
   -3.1813   -3.4980   -0.1172 C   0  0  0  0  0  0  0  0  0  0  0  0
   -2.0278   -4.3133   -0.1943 C   0  0  0  0  0  0  0  0  0  0  0  0
   -3.9711    0.0672    0.2632 C   0  0  0  0  0  0  0  0  0  0  0  0
   -4.6623    1.2966    0.3975 C   0  0  0  0  0  0  0  0  0  0  0  0
   -6.0548    1.3476    0.5267 C   0  0  0  0  0  0  0  0  0  0  0  0
   -6.7029    2.5635    0.6547 C   0  0  0  0  0  0  0  0  0  0  0  0
   -5.9730    3.7465    0.6578 C   0  0  0  0  0  0  0  0  0  0  0  0
   -4.5904    3.7206    0.5308 C   0  0  0  0  0  0  0  0  0  0  0  0
   -3.9618    2.5009    0.4029 C   0  0  0  0  0  0  0  0  0  0  0  0
   -2.6316    2.4545    0.2774 F   0  0  0  0  0  0  0  0  0  0  0  0
    3.3353    2.4155    3.0459 H   0  0  0  0  0  0  0  0  0  0  0  0
    2.4582    0.3905    1.9752 H   0  0  0  0  0  0  0  0  0  0  0  0
    5.0281    3.8038    1.9028 H   0  0  0  0  0  0  0  0  0  0  0  0
    4.9391    1.1361   -1.4344 H   0  0  0  0  0  0  0  0  0  0  0  0
    3.6617   -0.7532   -1.4304 H   0  0  0  0  0  0  0  0  0  0  0  0
    6.4135    4.2403    0.0867 H   0  0  0  0  0  0  0  0  0  0  0  0
    7.0648    2.7895   -0.6429 H   0  0  0  0  0  0  0  0  0  0  0  0
    4.9617    4.4163   -1.8267 H   0  0  0  0  0  0  0  0  0  0  0  0
    6.4750    4.2244   -2.3642 H   0  0  0  0  0  0  0  0  0  0  0  0
    4.4557   -2.0280    0.4924 H   0  0  0  0  0  0  0  0  0  0  0  0
    2.9433   -1.7755    1.3499 H   0  0  0  0  0  0  0  0  0  0  0  0
    3.3121   -3.3440   -1.2459 H   0  0  0  0  0  0  0  0  0  0  0  0
    2.9426   -4.0040    0.3426 H   0  0  0  0  0  0  0  0  0  0  0  0
    1.6660   -2.0105   -2.3774 H   0  0  0  0  0  0  0  0  0  0  0  0
    0.0782   -1.7483   -1.7061 H   0  0  0  0  0  0  0  0  0  0  0  0
    1.0490   -0.2976    0.0729 H   0  0  0  0  0  0  0  0  0  0  0  0
    1.4706    0.2957   -1.5291 H   0  0  0  0  0  0  0  0  0  0  0  0
   -1.9921   -5.3851   -0.2975 H   0  0  0  0  0  0  0  0  0  0  0  0
   -4.2127   -3.8079   -0.1515 H   0  0  0  0  0  0  0  0  0  0  0  0
   -6.6178    0.4242    0.5251 H   0  0  0  0  0  0  0  0  0  0  0  0
   -7.7793    2.5892    0.7522 H   0  0  0  0  0  0  0  0  0  0  0  0
   -6.4786    4.6970    0.7604 H   0  0  0  0  0  0  0  0  0  0  0  0
   -4.0087    4.6329    0.5301 H   0  0  0  0  0  0  0  0  0  0  0  0
  1 20  1  0
  1 23  3  0
  2  3  2  0
  2  7  1  0
  3  4  1  0
  4  5  2  0
  4 10  1  0
  5  6  1  0
  6  7  2  0
  6  8  1  0
  8  9  1  0
 10 11  1  0
 10 15  1  0
 11 12  1  0
 12 13  1  0
 13 14  1  0
 13 16  1  0
 14 15  1  0
 16 17  2  0
 16 18  1  0
 18 19  1  0
 18 22  2  0
 19 20  1  0
 20 21  2  0
 21 22  1  0
 23 24  1  0
 24 25  2  0
 24 29  1  0
 25 26  1  0
 26 27  2  0
 27 28  1  0
 28 29  2  0
 29 30  1  0
  2 31  1  0
  3 32  1  0
  7 33  1  0
  5 34  1  0
 10 35  1  6
  8 36  1  0
  8 37  1  0
  9 38  1  0
  9 39  1  0
 11 40  1  0
 11 41  1  0
 12 42  1  0
 12 43  1  0
 14 44  1  0
 14 45  1  0
 15 46  1  0
 15 47  1  0
 22 48  1  0
 21 49  1  0
 25 50  1  0
 26 51  1  0
 27 52  1  0
 28 53  1  0
M  END
