
     RDKit          3D

 43 43  0  0  0  0  0  0  0  0999 V2000
    2.9328    0.6515    2.7965 N   0  0  0  0  0  0  0  0  0  0  0  0
    3.2826    0.7355    1.5258 C   0  0  0  0  0  0  0  0  0  0  0  0
    4.6921    1.1213    1.1972 C   0  0  0  0  0  0  0  0  0  0  0  0
    2.3682    0.4634    0.4933 C   0  0  0  0  0  0  0  0  0  0  0  0
    2.8229    0.5509   -0.7635 O   0  0  0  0  0  0  0  0  0  0  0  0
    1.0575    0.1073    0.8154 C   0  0  0  0  0  0  0  0  0  0  0  0
    0.0388   -0.2392   -0.2445 C   0  0  0  0  0  0  0  0  0  0  0  0
    0.7181    0.0196    2.1712 C   0  0  0  0  0  0  0  0  0  0  0  0
   -0.6747   -0.3928    2.5600 C   0  0  0  0  0  0  0  0  0  0  0  0
    1.6896    0.3025    3.1151 C   0  0  0  0  0  0  0  0  0  0  0  0
   -2.1862   -0.5729    4.6822 P   0  0  2  0  0  0  0  0  0  0  0  0
   -3.1806   -1.4980    4.1096 O   0  0  0  0  0  0  0  0  0  0  0  0
   -1.6530   -0.8619    6.1542 O   0  0  0  0  0  0  0  0  0  0  0  0
   -2.7525    0.9198    4.6435 O   0  0  0  0  0  0  0  0  0  0  0  0
   -0.7539   -0.5362    3.9729 O   0  0  0  0  0  0  0  0  0  0  0  0
    0.2957    0.4689   -1.4963 N   0  0  0  0  0  0  0  0  0  0  0  0
   -0.3618   -0.0529   -2.6648 C   0  0  1  0  0  0  0  0  0  0  0  0
   -1.7406   -0.2059   -2.5487 O   0  0  0  0  0  0  0  0  0  0  0  0
   -0.0352    0.9135   -3.8536 C   0  0  1  0  0  0  0  0  0  0  0  0
    1.3167    1.1789   -4.0174 O   0  0  0  0  0  0  0  0  0  0  0  0
    0.1593   -1.4665   -2.9805 C   0  0  0  0  0  0  0  0  0  0  0  0
   -0.5532   -2.3831   -3.2795 O   0  0  0  0  0  0  0  0  0  0  0  0
    1.4775   -1.5268   -2.9167 O   0  0  0  0  0  0  0  0  0  0  0  0
   -0.6364    0.3512   -5.1363 C   0  0  0  0  0  0  0  0  0  0  0  0
   -0.0172   -0.4006   -5.8462 O   0  0  0  0  0  0  0  0  0  0  0  0
   -1.8625    0.7690   -5.3670 O   0  0  0  0  0  0  0  0  0  0  0  0
    5.2173    0.3209    0.6721 H   0  0  0  0  0  0  0  0  0  0  0  0
    4.7288    2.0000    0.5510 H   0  0  0  0  0  0  0  0  0  0  0  0
    5.2381    1.3435    2.1117 H   0  0  0  0  0  0  0  0  0  0  0  0
    2.0430    0.5050   -1.3685 H   0  0  0  0  0  0  0  0  0  0  0  0
    0.0852   -1.3187   -0.4210 H   0  0  0  0  0  0  0  0  0  0  0  0
   -0.9719   -0.0382    0.1186 H   0  0  0  0  0  0  0  0  0  0  0  0
   -1.3919    0.3564    2.2056 H   0  0  0  0  0  0  0  0  0  0  0  0
   -0.9373   -1.3426    2.0854 H   0  0  0  0  0  0  0  0  0  0  0  0
    1.4698    0.2493    4.1734 H   0  0  0  0  0  0  0  0  0  0  0  0
   -2.3479   -1.0846    6.7883 H   0  0  0  0  0  0  0  0  0  0  0  0
   -2.1967    1.5931    5.0585 H   0  0  0  0  0  0  0  0  0  0  0  0
    0.0712    1.4532   -1.3812 H   0  0  0  0  0  0  0  0  0  0  0  0
   -2.1467    0.6531   -2.3805 H   0  0  0  0  0  0  0  0  0  0  0  0
   -0.5162    1.8683   -3.6133 H   0  0  0  0  0  0  0  0  0  0  0  0
    1.7604    0.4147   -4.4043 H   0  0  0  0  0  0  0  0  0  0  0  0
    1.7851   -2.4142   -3.1608 H   0  0  0  0  0  0  0  0  0  0  0  0
   -2.2163    0.3609   -6.1731 H   0  0  0  0  0  0  0  0  0  0  0  0
  1  2  2  0
  1 10  1  0
  2  3  1  0
  2  4  1  0
  3 27  1  0
  3 28  1  0
  3 29  1  0
  4  5  1  0
  4  6  2  0
  5 30  1  0
  6  7  1  0
  6  8  1  0
  7 16  1  0
  7 31  1  0
  7 32  1  0
  8  9  1  0
  8 10  2  0
  9 15  1  0
  9 33  1  0
  9 34  1  0
 10 35  1  0
 11 12  2  0
 11 13  1  1
 11 14  1  0
 11 15  1  0
 13 36  1  0
 14 37  1  0
 16 17  1  0
 16 38  1  0
 17 18  1  1
 17 19  1  0
 17 21  1  0
 18 39  1  0
 19 20  1  0
 19 24  1  0
 19 40  1  1
 20 41  1  0
 21 22  2  0
 21 23  1  0
 23 42  1  0
 24 25  2  0
 24 26  1  0
 26 43  1  0
M  END
