
     RDKit          3D

 25 26  0  0  0  0  0  0  0  0999 V2000
   -0.5449   -0.7010    0.0138 C   0  0  0  0  0  0  0  0  0  0  0  0
    0.7904   -0.2489    0.0345 C   0  0  0  0  0  0  0  0  0  0  0  0
    1.8971   -1.1531    0.1492 C   0  0  0  0  0  0  0  0  0  0  0  0
    1.6780   -2.5078    0.2624 N   0  0  0  0  0  0  0  0  0  0  0  0
    3.1753   -0.6330    0.2015 C   0  0  0  0  0  0  0  0  0  0  0  0
    3.4038    0.7509    0.1335 C   0  0  0  0  0  0  0  0  0  0  0  0
    2.3676    1.6352    0.0008 C   0  0  0  0  0  0  0  0  0  0  0  0
    1.0432    1.1472   -0.0510 C   0  0  0  0  0  0  0  0  0  0  0  0
   -0.0600    2.0222   -0.1810 C   0  0  0  0  0  0  0  0  0  0  0  0
   -1.3433    1.5533   -0.2064 C   0  0  0  0  0  0  0  0  0  0  0  0
   -1.6033    0.1676   -0.1007 C   0  0  0  0  0  0  0  0  0  0  0  0
   -2.9908   -0.3719   -0.1187 C   0  0  0  0  0  0  0  0  0  0  0  0
   -3.9663    0.5168    0.2328 N   0  0  0  0  0  0  0  0  0  0  0  0
   -3.1773   -1.5787   -0.4970 N   0  0  0  0  0  0  0  0  0  0  0  0
   -0.7675   -1.7556    0.1060 H   0  0  0  0  0  0  0  0  0  0  0  0
    0.8958   -2.8842   -0.2482 H   0  0  0  0  0  0  0  0  0  0  0  0
    2.4981   -3.0784    0.1313 H   0  0  0  0  0  0  0  0  0  0  0  0
    4.0196   -1.3065    0.2891 H   0  0  0  0  0  0  0  0  0  0  0  0
    4.4237    1.1120    0.1761 H   0  0  0  0  0  0  0  0  0  0  0  0
    2.5444    2.7014   -0.0622 H   0  0  0  0  0  0  0  0  0  0  0  0
    0.1256    3.0862   -0.2645 H   0  0  0  0  0  0  0  0  0  0  0  0
   -2.1570    2.2567   -0.3260 H   0  0  0  0  0  0  0  0  0  0  0  0
   -3.7330    1.2664    0.8629 H   0  0  0  0  0  0  0  0  0  0  0  0
   -4.8956    0.1518    0.3694 H   0  0  0  0  0  0  0  0  0  0  0  0
   -4.1581   -1.8376   -0.4306 H   0  0  0  0  0  0  0  0  0  0  0  0
  9 10  2  0
  9  8  1  0
  7  8  1  0
  7  6  2  0
 10 11  1  0
  8  2  2  0
  6  5  1  0
 11 12  1  0
 11  1  2  0
 14 12  2  0
  2  1  1  0
  2  3  1  0
 12 13  1  0
  5  3  2  0
  3  4  1  0
  1 15  1  0
  4 16  1  0
  4 17  1  0
  5 18  1  0
  6 19  1  0
  7 20  1  0
  9 21  1  0
 10 22  1  0
 13 23  1  0
 13 24  1  0
 14 25  1  0
M  END
