
     RDKit          3D

 32 34  0  0  0  0  0  0  0  0999 V2000
    1.2214   -3.4125   -0.1736 O   0  0  0  0  0  0  0  0  0  0  0  0
    0.9042   -2.2417   -0.0362 C   0  0  0  0  0  0  0  0  0  0  0  0
    1.9418   -1.1769   -0.1036 C   0  0  0  0  0  0  0  0  0  0  0  0
    3.0969   -1.4817   -0.8249 C   0  0  0  0  0  0  0  0  0  0  0  0
    4.2008   -0.6530   -0.8270 C   0  0  0  0  0  0  0  0  0  0  0  0
    4.1531    0.4980   -0.0533 C   0  0  0  0  0  0  0  0  0  0  0  0
    5.5279    1.5441   -0.0023 Cl  0  0  0  0  0  0  0  0  0  0  0  0
    3.0243    0.8412    0.6629 C   0  0  0  0  0  0  0  0  0  0  0  0
    1.8995    0.0139    0.6321 C   0  0  0  0  0  0  0  0  0  0  0  0
    0.7769    0.3858    1.3642 N   0  0  0  0  0  0  0  0  0  0  0  0
   -0.3920   -1.9137    0.1903 N   0  0  0  0  0  0  0  0  0  0  0  0
   -1.0240   -0.6644    0.1257 C   0  0  0  0  0  0  0  0  0  0  0  0
   -0.4708    0.4630    0.7253 C   0  0  0  0  0  0  0  0  0  0  0  0
   -1.1838    1.6566    0.7057 C   0  0  0  0  0  0  0  0  0  0  0  0
   -2.4395    1.7244    0.1260 C   0  0  0  0  0  0  0  0  0  0  0  0
   -2.2747   -0.5794   -0.4765 C   0  0  0  0  0  0  0  0  0  0  0  0
   -2.9991    0.6036   -0.4764 C   0  0  0  0  0  0  0  0  0  0  0  0
   -4.3586    0.6638   -1.1035 C   0  0  0  0  0  0  0  0  0  0  0  0
   -5.4630    0.3561   -0.1216 C   0  0  0  0  0  0  0  0  0  0  0  0
   -5.3008    0.0565    1.0328 O   0  0  0  0  0  0  0  0  0  0  0  0
   -6.6578    0.4546   -0.6932 O   0  0  0  0  0  0  0  0  0  0  0  0
    3.1339   -2.4018   -1.3916 H   0  0  0  0  0  0  0  0  0  0  0  0
    5.0824   -0.9068   -1.3982 H   0  0  0  0  0  0  0  0  0  0  0  0
    3.0038    1.7542    1.2442 H   0  0  0  0  0  0  0  0  0  0  0  0
    0.9495    1.1840    1.9583 H   0  0  0  0  0  0  0  0  0  0  0  0
   -1.0143   -2.7108    0.1832 H   0  0  0  0  0  0  0  0  0  0  0  0
   -0.7515    2.5383    1.1630 H   0  0  0  0  0  0  0  0  0  0  0  0
   -2.9779    2.6640    0.1319 H   0  0  0  0  0  0  0  0  0  0  0  0
   -2.6921   -1.4663   -0.9401 H   0  0  0  0  0  0  0  0  0  0  0  0
   -4.5475    1.6515   -1.5329 H   0  0  0  0  0  0  0  0  0  0  0  0
   -4.4380   -0.0423   -1.9350 H   0  0  0  0  0  0  0  0  0  0  0  0
   -7.3517    0.2517   -0.0480 H   0  0  0  0  0  0  0  0  0  0  0  0
 20 19  2  0
 19 21  1  0
 19 18  1  0
 18 17  1  0
 17 16  1  0
 17 15  2  0
 16 12  2  0
 15 14  1  0
 11 12  1  0
 11  2  1  0
 12 13  1  0
  1  2  2  0
  2  3  1  0
  4  3  1  0
  4  5  2  0
 14 13  2  0
  3  9  2  0
 13 10  1  0
  5  6  1  0
  9 10  1  0
  9  8  1  0
  6  8  2  0
  6  7  1  0
  4 22  1  0
  5 23  1  0
  8 24  1  0
 10 25  1  0
 11 26  1  0
 14 27  1  0
 15 28  1  0
 16 29  1  0
 18 30  1  0
 18 31  1  0
 21 32  1  0
M  END
