
     RDKit          3D

 21 22  0  0  0  0  0  0  0  0999 V2000
    1.3436    1.1087    0.0512 C   0  0  0  0  0  0  0  0  0  0  0  0
   -0.0478    0.9492    0.0372 C   0  0  0  0  0  0  0  0  0  0  0  0
   -0.6017   -0.3478    0.0047 C   0  0  0  0  0  0  0  0  0  0  0  0
   -1.1489    1.8586    0.0445 C   0  0  0  0  0  0  0  0  0  0  0  0
   -2.2849    1.0973    0.0175 C   0  0  0  0  0  0  0  0  0  0  0  0
   -1.9683   -0.2288   -0.0068 N   0  0  0  0  0  0  0  0  0  0  0  0
    2.1607   -0.0133    0.0385 C   0  0  0  0  0  0  0  0  0  0  0  0
    0.2078   -1.4806   -0.0133 C   0  0  0  0  0  0  0  0  0  0  0  0
    1.5763   -1.3005    0.0054 C   0  0  0  0  0  0  0  0  0  0  0  0
    1.7805    2.1012    0.0729 H   0  0  0  0  0  0  0  0  0  0  0  0
   -1.1084    2.9360    0.0670 H   0  0  0  0  0  0  0  0  0  0  0  0
   -3.3185    1.4085    0.0143 H   0  0  0  0  0  0  0  0  0  0  0  0
   -2.7633   -1.9328   -0.9349 H   0  0  0  0  0  0  0  0  0  0  0  0
   -2.7768   -1.9704    0.8347 H   0  0  0  0  0  0  0  0  0  0  0  0
   -3.9130   -0.9385   -0.0374 H   0  0  0  0  0  0  0  0  0  0  0  0
    3.9046    0.9865   -0.2188 H   0  0  0  0  0  0  0  0  0  0  0  0
    4.0522   -0.6566   -0.3101 H   0  0  0  0  0  0  0  0  0  0  0  0
   -0.2075   -2.4806   -0.0427 H   0  0  0  0  0  0  0  0  0  0  0  0
    2.2244   -2.1691   -0.0042 H   0  0  0  0  0  0  0  0  0  0  0  0
   -2.8986   -1.3279   -0.0378 C   0  0  0  0  0  0  0  0  0  0  0  0
    3.5467    0.1051    0.1157 N   0  0  0  0  0  0  0  0  0  0  0  0
 20  6  1  0
  6  5  1  0
  6  3  1  0
  5  4  2  0
  3  8  2  0
  3  2  1  0
  8  9  1  0
  4  2  1  0
  2  1  2  0
  9  7  2  0
  1  7  1  0
  7 21  1  0
  1 10  1  0
  4 11  1  0
  5 12  1  0
 20 13  1  0
 20 14  1  0
 20 15  1  0
 21 16  1  0
 21 17  1  0
  8 18  1  0
  9 19  1  0
M  END
