
     RDKit          3D

 47 48  0  0  0  0  0  0  0  0999 V2000
   -1.4960    2.7625    0.9515 C   0  0  0  0  0  0  0  0  0  0  0  0
   -5.0023   -0.8243   -0.9011 C   0  0  0  0  0  0  0  0  0  0  0  0
   -4.0320   -0.7539    0.2746 C   0  0  2  0  0  0  0  0  0  0  0  0
   -4.8031   -0.4491    1.5619 C   0  0  0  0  0  0  0  0  0  0  0  0
   -1.8472    0.3098    0.5828 C   0  0  0  0  0  0  0  0  0  0  0  0
   -1.0108    1.5358    0.1934 C   0  0  2  0  0  0  0  0  0  0  0  0
   -3.0424    0.2520   -0.0216 N   0  0  0  0  0  0  0  0  0  0  0  0
   -5.1555    0.1211   -1.6608 O   0  0  0  0  0  0  0  0  0  0  0  0
   -1.4534   -0.5157    1.3904 O   0  0  0  0  0  0  0  0  0  0  0  0
    3.3746    0.6230    0.5802 C   0  0  1  0  0  0  0  0  0  0  0  0
    2.1170   -0.2529    0.4867 C   0  0  2  0  0  0  0  0  0  0  0  0
    2.4619   -1.5212   -0.1125 N   0  0  0  0  0  0  0  0  0  0  0  0
    1.0246    0.4508   -0.3364 C   0  0  1  0  0  0  0  0  0  0  0  0
    0.3331    1.3277    0.5210 O   0  0  0  0  0  0  0  0  0  0  0  0
    1.6155    1.2144   -1.5374 C   0  0  2  0  0  0  0  0  0  0  0  0
    1.7818    0.2594   -2.5608 O   0  0  0  0  0  0  0  0  0  0  0  0
    2.9502    1.8672   -1.1752 C   0  0  2  0  0  0  0  0  0  0  0  0
    3.8498    0.8714   -0.7115 O   0  0  0  0  0  0  0  0  0  0  0  0
    2.8727    2.7813    0.0456 C   0  0  0  0  0  0  0  0  0  0  0  0
    3.0824    1.8828    1.1302 O   0  0  0  0  0  0  0  0  0  0  0  0
    2.7427   -2.6285    0.6002 C   0  0  0  0  0  0  0  0  0  0  0  0
    2.6951   -2.6646    1.8221 O   0  0  0  0  0  0  0  0  0  0  0  0
    3.1385   -3.8313   -0.2186 C   0  0  0  0  0  0  0  0  0  0  0  0
   -0.9186    3.6384    0.6564 H   0  0  0  0  0  0  0  0  0  0  0  0
   -2.5440    2.9627    0.7334 H   0  0  0  0  0  0  0  0  0  0  0  0
   -1.3919    2.6243    2.0282 H   0  0  0  0  0  0  0  0  0  0  0  0
   -1.1344    1.7178   -0.8846 H   0  0  0  0  0  0  0  0  0  0  0  0
   -3.5301   -1.7188    0.3807 H   0  0  0  0  0  0  0  0  0  0  0  0
   -5.5089   -2.7436   -0.3737 H   0  0  0  0  0  0  0  0  0  0  0  0
   -6.3904   -2.0917   -1.6988 H   0  0  0  0  0  0  0  0  0  0  0  0
   -5.5375   -1.2260    1.7740 H   0  0  0  0  0  0  0  0  0  0  0  0
   -4.1174   -0.3986    2.4060 H   0  0  0  0  0  0  0  0  0  0  0  0
   -5.3248    0.5052    1.4839 H   0  0  0  0  0  0  0  0  0  0  0  0
   -3.3064    0.9700   -0.6812 H   0  0  0  0  0  0  0  0  0  0  0  0
    4.1550    0.1285    1.1650 H   0  0  0  0  0  0  0  0  0  0  0  0
    1.7198   -0.4456    1.4838 H   0  0  0  0  0  0  0  0  0  0  0  0
    2.5779   -1.5476   -1.1138 H   0  0  0  0  0  0  0  0  0  0  0  0
    0.3526   -0.3215   -0.7316 H   0  0  0  0  0  0  0  0  0  0  0  0
    0.9166    2.0070   -1.8434 H   0  0  0  0  0  0  0  0  0  0  0  0
    2.2373    0.6661   -3.3055 H   0  0  0  0  0  0  0  0  0  0  0  0
    3.3880    2.3638   -2.0438 H   0  0  0  0  0  0  0  0  0  0  0  0
    3.6690    3.5296    0.0236 H   0  0  0  0  0  0  0  0  0  0  0  0
    1.9168    3.2955    0.1467 H   0  0  0  0  0  0  0  0  0  0  0  0
    4.2054   -4.0179   -0.0880 H   0  0  0  0  0  0  0  0  0  0  0  0
    2.6071   -4.7105    0.1419 H   0  0  0  0  0  0  0  0  0  0  0  0
    2.9418   -3.7145   -1.2826 H   0  0  0  0  0  0  0  0  0  0  0  0
   -5.6829   -1.9698   -0.9921 N   0  0  0  0  0  0  0  0  0  0  0  0
  1  6  1  0
  2  3  1  0
  2 47  1  0
  2  8  2  0
  3  4  1  0
  3  7  1  0
  5  6  1  0
  5  7  1  0
  5  9  2  0
  6 14  1  0
 10 11  1  0
 10 18  1  0
 10 20  1  0
 11 12  1  0
 11 13  1  0
 12 21  1  0
 13 14  1  0
 13 15  1  0
 15 16  1  0
 15 17  1  0
 17 18  1  0
 17 19  1  0
 19 20  1  0
 21 22  2  0
 21 23  1  0
  1 24  1  0
  1 25  1  0
  1 26  1  0
  6 27  1  6
  3 28  1  1
 47 29  1  0
 47 30  1  0
  4 31  1  0
  4 32  1  0
  4 33  1  0
  7 34  1  0
 10 35  1  1
 11 36  1  1
 12 37  1  0
 13 38  1  6
 15 39  1  6
 16 40  1  0
 17 41  1  6
 19 42  1  0
 19 43  1  0
 23 44  1  0
 23 45  1  0
 23 46  1  0
M  END
