
     RDKit          3D

 24 26  0  0  0  0  0  0  0  0999 V2000
    2.9973   -1.5264   -0.0757 C   0  0  0  0  0  0  0  0  0  0  0  0
    1.9495   -2.4399   -0.0859 C   0  0  0  0  0  0  0  0  0  0  0  0
    2.7222   -0.1737   -0.0390 C   0  0  0  0  0  0  0  0  0  0  0  0
    0.6358   -2.0075   -0.0600 C   0  0  0  0  0  0  0  0  0  0  0  0
    1.4072    0.3027   -0.0122 C   0  0  0  0  0  0  0  0  0  0  0  0
    0.3619   -0.6419   -0.0238 C   0  0  0  0  0  0  0  0  0  0  0  0
   -0.1632    2.1509    0.0514 C   0  0  0  0  0  0  0  0  0  0  0  0
    1.1178    1.7309    0.0264 C   0  0  0  0  0  0  0  0  0  0  0  0
   -1.2239    1.2004    0.0388 C   0  0  0  0  0  0  0  0  0  0  0  0
   -2.1565   -0.8315   -0.0019 C   0  0  0  0  0  0  0  0  0  0  0  0
    2.2440    2.7139    0.0376 C   0  0  0  0  0  0  0  0  0  0  0  0
   -2.4995    1.4203    0.0572 N   0  0  0  0  0  0  0  0  0  0  0  0
   -3.0497    0.1827    0.0317 N   0  0  0  0  0  0  0  0  0  0  0  0
   -0.9398   -0.1477    0.0024 N   0  0  0  0  0  0  0  0  0  0  0  0
   -2.3567   -2.0327   -0.0293 O   0  0  0  0  0  0  0  0  0  0  0  0
    4.0229   -1.8691   -0.0965 H   0  0  0  0  0  0  0  0  0  0  0  0
    2.1527   -3.5020   -0.1144 H   0  0  0  0  0  0  0  0  0  0  0  0
    3.5432    0.5294   -0.0303 H   0  0  0  0  0  0  0  0  0  0  0  0
   -0.1654   -2.7282   -0.0683 H   0  0  0  0  0  0  0  0  0  0  0  0
   -0.4231    3.2005    0.0810 H   0  0  0  0  0  0  0  0  0  0  0  0
    2.8668    2.6171   -0.8533 H   0  0  0  0  0  0  0  0  0  0  0  0
    1.8666    3.7334    0.0748 H   0  0  0  0  0  0  0  0  0  0  0  0
    2.8950    2.5638    0.9006 H   0  0  0  0  0  0  0  0  0  0  0  0
   -4.0514    0.0720    0.0418 H   0  0  0  0  0  0  0  0  0  0  0  0
  1  2  2  0
  1  3  1  0
  2  4  1  0
  3  5  2  0
  4  6  2  0
  5  6  1  0
  5  8  1  0
  6 14  1  0
  7  8  2  0
  7  9  1  0
  8 11  1  0
  9 12  2  0
  9 14  1  0
 10 13  1  0
 10 14  1  0
 10 15  2  0
 12 13  1  0
  1 16  1  0
  2 17  1  0
  3 18  1  0
  4 19  1  0
  7 20  1  0
 11 21  1  0
 11 22  1  0
 11 23  1  0
 13 24  1  0
M  END
