
     RDKit          3D

 57 60  0  0  0  0  0  0  0  0999 V2000
    3.5896    3.9376   -0.6687 C   0  0  0  0  0  0  0  0  0  0  0  0
    4.2801    3.1803    0.2733 C   0  0  0  0  0  0  0  0  0  0  0  0
    4.0085    1.8601    0.5213 C   0  0  0  0  0  0  0  0  0  0  0  0
    2.9859    1.2446   -0.2133 C   0  0  0  0  0  0  0  0  0  0  0  0
    2.2701    1.9715   -1.1757 C   0  0  0  0  0  0  0  0  0  0  0  0
    2.5924    3.3197   -1.3821 C   0  0  0  0  0  0  0  0  0  0  0  0
    1.2096    1.3469   -1.9654 C   0  0  0  0  0  0  0  0  0  0  0  0
    0.5950    1.9706   -2.8282 O   0  0  0  0  0  0  0  0  0  0  0  0
    2.6782   -0.0827   -0.0084 N   0  0  0  0  0  0  0  0  0  0  0  0
    3.4208   -0.8569    0.9426 C   0  0  0  0  0  0  0  0  0  0  0  0
    4.5343   -1.5663    0.5181 C   0  0  0  0  0  0  0  0  0  0  0  0
    5.2462   -2.3216    1.4391 C   0  0  0  0  0  0  0  0  0  0  0  0
    4.8452   -2.3570    2.7678 C   0  0  0  0  0  0  0  0  0  0  0  0
    3.7322   -1.6364    3.1821 C   0  0  0  0  0  0  0  0  0  0  0  0
    3.0124   -0.8820    2.2678 C   0  0  0  0  0  0  0  0  0  0  0  0
    0.9453   -0.0488   -1.6738 C   0  0  0  0  0  0  0  0  0  0  0  0
   -0.1473   -0.7514   -2.4410 C   0  0  0  0  0  0  0  0  0  0  0  0
   -1.5092   -0.5878   -1.8085 C   0  0  0  0  0  0  0  0  0  0  0  0
   -2.0746   -1.6265   -1.0738 C   0  0  0  0  0  0  0  0  0  0  0  0
   -3.3153   -1.4863   -0.4717 C   0  0  0  0  0  0  0  0  0  0  0  0
   -4.0013   -0.2910   -0.6191 C   0  0  0  0  0  0  0  0  0  0  0  0
   -3.4707    0.7543   -1.3644 C   0  0  0  0  0  0  0  0  0  0  0  0
   -2.2265    0.6007   -1.9506 C   0  0  0  0  0  0  0  0  0  0  0  0
   -5.5862   -0.0917    0.1417 S   0  0  1  0  0  0  0  0  0  0  0  0
    5.2582    3.7692    0.9671 F   0  0  0  0  0  0  0  0  0  0  0  0
    1.6916   -0.6802   -0.7313 C   0  0  0  0  0  0  0  0  0  0  0  0
    1.4483   -2.1264   -0.3890 C   0  0  0  0  0  0  0  0  0  0  0  0
   -5.2247    0.8210    1.6383 C   0  0  0  0  0  0  0  0  0  0  0  0
   -6.4992    1.0910    2.4255 C   0  0  0  0  0  0  0  0  0  0  0  0
   -6.1178    1.8281    3.5613 O   0  0  0  0  0  0  0  0  0  0  0  0
    0.7301   -2.4751    0.5072 O   0  0  0  0  0  0  0  0  0  0  0  0
    2.1098   -2.9174   -1.2027 O   0  0  0  0  0  0  0  0  0  0  0  0
    2.0043   -4.3313   -0.9813 C   0  0  0  0  0  0  0  0  0  0  0  0
   -6.4134    0.7532   -0.7182 O   0  0  0  0  0  0  0  0  0  0  0  0
   -6.0912   -1.4115    0.5184 O   0  0  0  0  0  0  0  0  0  0  0  0
    3.8395    4.9773   -0.8291 H   0  0  0  0  0  0  0  0  0  0  0  0
    4.5797    1.3242    1.2663 H   0  0  0  0  0  0  0  0  0  0  0  0
    2.0400    3.8795   -2.1238 H   0  0  0  0  0  0  0  0  0  0  0  0
    4.8419   -1.5258   -0.5188 H   0  0  0  0  0  0  0  0  0  0  0  0
    6.1142   -2.8807    1.1168 H   0  0  0  0  0  0  0  0  0  0  0  0
    5.4011   -2.9489    3.4827 H   0  0  0  0  0  0  0  0  0  0  0  0
    3.4199   -1.6651    4.2173 H   0  0  0  0  0  0  0  0  0  0  0  0
    2.1406   -0.3211    2.5790 H   0  0  0  0  0  0  0  0  0  0  0  0
   -0.1699   -0.3496   -3.4549 H   0  0  0  0  0  0  0  0  0  0  0  0
    0.0752   -1.8137   -2.5490 H   0  0  0  0  0  0  0  0  0  0  0  0
   -1.5525   -2.5689   -0.9761 H   0  0  0  0  0  0  0  0  0  0  0  0
   -3.7362   -2.3053    0.0952 H   0  0  0  0  0  0  0  0  0  0  0  0
   -4.0159    1.6799   -1.4959 H   0  0  0  0  0  0  0  0  0  0  0  0
   -1.8127    1.4100   -2.5354 H   0  0  0  0  0  0  0  0  0  0  0  0
   -4.5188    0.2226    2.2167 H   0  0  0  0  0  0  0  0  0  0  0  0
   -4.7389    1.7512    1.3371 H   0  0  0  0  0  0  0  0  0  0  0  0
   -7.2071    1.6447    1.7994 H   0  0  0  0  0  0  0  0  0  0  0  0
   -6.9707    0.1405    2.6972 H   0  0  0  0  0  0  0  0  0  0  0  0
   -6.9082    2.0011    4.0812 H   0  0  0  0  0  0  0  0  0  0  0  0
    2.3766   -4.5965    0.0071 H   0  0  0  0  0  0  0  0  0  0  0  0
    0.9741   -4.6676   -1.0881 H   0  0  0  0  0  0  0  0  0  0  0  0
    2.6222   -4.7948   -1.7428 H   0  0  0  0  0  0  0  0  0  0  0  0
 13 12  1  0
 13 14  2  0
 12 11  2  0
 14 15  1  0
 11 10  1  0
 25  2  1  0
 15 10  2  0
 10  9  1  0
  3  2  1  0
  3  4  2  0
  2  1  2  0
  9  4  1  0
  9 26  1  0
  4  5  1  0
  1  6  1  0
 31 27  2  0
 33 32  1  0
 27 26  1  0
 27 32  1  0
 26 16  2  0
  5  6  2  0
  5  7  1  0
 16  7  1  0
 16 17  1  0
  7  8  2  0
 17 18  1  0
 18 23  1  0
 18 19  2  0
 23 22  2  0
 19 20  1  0
 22 21  1  0
 20 21  2  0
 21 24  1  0
 34 24  2  0
 24 35  2  0
 24 28  1  1
 28 29  1  0
 29 30  1  0
  1 36  1  0
  3 37  1  0
  6 38  1  0
 11 39  1  0
 12 40  1  0
 13 41  1  0
 14 42  1  0
 15 43  1  0
 17 44  1  0
 17 45  1  0
 19 46  1  0
 20 47  1  0
 22 48  1  0
 23 49  1  0
 28 50  1  0
 28 51  1  0
 29 52  1  0
 29 53  1  0
 30 54  1  0
 33 55  1  0
 33 56  1  0
 33 57  1  0
M  END
