
     RDKit          3D

 20 19  0  0  0  0  0  0  0  0999 V2000
    3.7168   -0.3705    0.0105 N   0  0  0  0  0  0  0  0  0  0  0  0
    2.5241    0.4626   -0.0578 C   0  0  0  0  0  0  0  0  0  0  0  0
    1.2626   -0.3841    0.0130 C   0  0  0  0  0  0  0  0  0  0  0  0
   -0.0076    0.4537   -0.0509 C   0  0  0  0  0  0  0  0  0  0  0  0
   -1.2669   -0.3963   -0.0015 C   0  0  0  0  0  0  0  0  0  0  0  0
   -2.4513    0.4425   -0.0719 N   0  0  0  0  0  0  0  0  0  0  0  0
   -3.6248   -0.3939    0.0593 N   0  0  0  0  0  0  0  0  0  0  0  0
    4.5401    0.2129   -0.0683 H   0  0  0  0  0  0  0  0  0  0  0  0
    3.7727   -0.7925    0.9297 H   0  0  0  0  0  0  0  0  0  0  0  0
    2.4805    1.2302    0.7289 H   0  0  0  0  0  0  0  0  0  0  0  0
    2.5374    1.0019   -1.0093 H   0  0  0  0  0  0  0  0  0  0  0  0
    1.2727   -1.1098   -0.8062 H   0  0  0  0  0  0  0  0  0  0  0  0
    1.2696   -0.9655    0.9421 H   0  0  0  0  0  0  0  0  0  0  0  0
   -0.0162    1.1649    0.7827 H   0  0  0  0  0  0  0  0  0  0  0  0
   -0.0117    1.0512   -0.9679 H   0  0  0  0  0  0  0  0  0  0  0  0
   -1.2760   -1.0745   -0.8616 H   0  0  0  0  0  0  0  0  0  0  0  0
   -1.2591   -1.0319    0.8968 H   0  0  0  0  0  0  0  0  0  0  0  0
   -2.4518    1.0157    0.7650 H   0  0  0  0  0  0  0  0  0  0  0  0
   -4.4034    0.2523    0.1328 H   0  0  0  0  0  0  0  0  0  0  0  0
   -3.7537   -0.8081   -0.8590 H   0  0  0  0  0  0  0  0  0  0  0  0
  1  2  1  0
  1  8  1  0
  1  9  1  0
  2  3  1  0
  2 10  1  0
  2 11  1  0
  3  4  1  0
  3 12  1  0
  3 13  1  0
  4  5  1  0
  4 14  1  0
  4 15  1  0
  5  6  1  0
  5 16  1  0
  5 17  1  0
  6  7  1  0
  6 18  1  0
  7 19  1  0
  7 20  1  0
M  END
