
     RDKit          3D

 19 19  0  0  0  0  0  0  0  0999 V2000
    3.6287    0.1028    0.0237 C   0  0  0  0  0  0  0  0  0  0  0  0
    2.2577   -0.5309    0.0237 C   0  0  0  0  0  0  0  0  0  0  0  0
    1.2917    0.5107   -0.0021 O   0  0  0  0  0  0  0  0  0  0  0  0
   -0.0169    0.1926   -0.0091 C   0  0  0  0  0  0  0  0  0  0  0  0
   -0.5108   -1.1105    0.0065 C   0  0  0  0  0  0  0  0  0  0  0  0
   -0.9121    1.2655   -0.0345 C   0  0  0  0  0  0  0  0  0  0  0  0
   -2.2762    1.0334   -0.0444 C   0  0  0  0  0  0  0  0  0  0  0  0
   -2.7758   -0.2653   -0.0289 C   0  0  0  0  0  0  0  0  0  0  0  0
   -1.8854   -1.3265   -0.0034 C   0  0  0  0  0  0  0  0  0  0  0  0
    3.7906    0.7023   -0.8724 H   0  0  0  0  0  0  0  0  0  0  0  0
    3.7740    0.7377    0.8979 H   0  0  0  0  0  0  0  0  0  0  0  0
    4.3882   -0.6779    0.0471 H   0  0  0  0  0  0  0  0  0  0  0  0
    2.1384   -1.1821   -0.8490 H   0  0  0  0  0  0  0  0  0  0  0  0
    2.1249   -1.1513    0.9167 H   0  0  0  0  0  0  0  0  0  0  0  0
    0.1518   -1.9646    0.0255 H   0  0  0  0  0  0  0  0  0  0  0  0
   -0.5272    2.2780   -0.0472 H   0  0  0  0  0  0  0  0  0  0  0  0
   -2.9562    1.8754   -0.0645 H   0  0  0  0  0  0  0  0  0  0  0  0
   -3.8429   -0.4425   -0.0362 H   0  0  0  0  0  0  0  0  0  0  0  0
   -2.2543   -2.3444    0.0089 H   0  0  0  0  0  0  0  0  0  0  0  0
  9  5  1  0
  9  8  2  0
  5  4  2  0
  8  7  1  0
  4  3  1  0
  4  6  1  0
  3  2  1  0
  7  6  2  0
  2  1  1  0
  1 10  1  0
  1 11  1  0
  1 12  1  0
  2 13  1  0
  2 14  1  0
  5 15  1  0
  6 16  1  0
  7 17  1  0
  8 18  1  0
  9 19  1  0
M  END
