
     RDKit          3D

 17 17  0  0  0  0  0  0  0  0999 V2000
   -1.0298    1.0783   -0.0186 C   0  0  0  0  0  0  0  0  0  0  0  0
    0.1983    0.3843    0.0168 C   0  0  0  0  0  0  0  0  0  0  0  0
    0.0585   -0.9800    0.0191 C   0  0  0  0  0  0  0  0  0  0  0  0
   -1.5971   -1.4293   -0.0200 S   0  0  0  0  0  0  0  0  0  0  0  0
   -2.0798    0.2089   -0.0380 C   0  0  0  0  0  0  0  0  0  0  0  0
   -3.7271    0.6198   -0.0788 Cl  0  0  0  0  0  0  0  0  0  0  0  0
    1.0976   -2.0139    0.0961 C   0  0  0  0  0  0  0  0  0  0  0  0
    0.5864   -3.2164   -0.0952 O   0  0  0  0  0  0  0  0  0  0  0  0
    2.2592   -1.7833    0.3200 O   0  0  0  0  0  0  0  0  0  0  0  0
    1.7245    1.2948   -0.0638 S   0  0  1  0  0  0  0  0  0  0  0  0
    2.4805    0.7690   -1.1844 O   0  0  0  0  0  0  0  0  0  0  0  0
    1.3648    2.7032   -0.0595 O   0  0  0  0  0  0  0  0  0  0  0  0
    2.4103    0.9934    1.3944 N   0  0  0  0  0  0  0  0  0  0  0  0
   -1.1357    2.1519   -0.0316 H   0  0  0  0  0  0  0  0  0  0  0  0
    1.2657   -3.9026   -0.0040 H   0  0  0  0  0  0  0  0  0  0  0  0
    2.9519    0.1371    1.4215 H   0  0  0  0  0  0  0  0  0  0  0  0
    2.9371    1.7897    1.7378 H   0  0  0  0  0  0  0  0  0  0  0  0
 10 13  1  1
 11 10  2  0
 12 10  2  0
 10  2  1  0
  9  7  2  0
  2  3  2  0
  2  1  1  0
  7  3  1  0
  7  8  1  0
  3  4  1  0
  1  5  2  0
  5  4  1  0
  5  6  1  0
  1 14  1  0
  8 15  1  0
 13 16  1  0
 13 17  1  0
M  END
