
     RDKit          3D

 45 47  0  0  0  0  0  0  0  0999 V2000
   -0.9721   -3.8625   -0.0455 C   0  0  0  0  0  0  0  0  0  0  0  0
    0.3670   -4.0739   -0.1209 C   0  0  0  0  0  0  0  0  0  0  0  0
    1.2673   -2.9874   -0.1763 C   0  0  0  0  0  0  0  0  0  0  0  0
    0.8418   -1.6872   -0.1491 C   0  0  0  0  0  0  0  0  0  0  0  0
   -2.7429    1.4897   -0.1338 C   0  0  0  0  0  0  0  0  0  0  0  0
   -4.0718    1.7869   -0.0451 C   0  0  0  0  0  0  0  0  0  0  0  0
   -5.0370    0.7640    0.0845 C   0  0  0  0  0  0  0  0  0  0  0  0
   -4.6705   -0.5442    0.1128 C   0  0  0  0  0  0  0  0  0  0  0  0
   -2.8328   -2.2084    0.0031 C   0  0  0  0  0  0  0  0  0  0  0  0
   -3.8090   -3.2755    0.0612 N   0  0  0  0  0  0  0  0  0  0  0  0
   -1.0329   -0.2025   -0.1618 N   0  0  0  0  0  0  0  0  0  0  0  0
   -1.4824   -2.5371   -0.0485 C   0  0  0  0  0  0  0  0  0  0  0  0
   -0.5631   -1.4545   -0.1184 C   0  0  0  0  0  0  0  0  0  0  0  0
   -3.2998   -0.8962    0.0139 C   0  0  0  0  0  0  0  0  0  0  0  0
   -2.3245    0.1362   -0.0960 C   0  0  0  0  0  0  0  0  0  0  0  0
   -1.4837    2.8652   -0.2940 Br  0  0  0  0  0  0  0  0  0  0  0  0
    1.7789   -0.5202   -0.1743 C   0  0  0  0  0  0  0  0  0  0  0  0
    1.3526    0.6091   -0.4435 O   0  0  0  0  0  0  0  0  0  0  0  0
    3.0548   -0.7456    0.1057 N   0  0  0  0  0  0  0  0  0  0  0  0
    4.0500    0.3116    0.1039 C   0  0  0  0  0  0  0  0  0  0  0  0
    5.4424   -0.3030    0.1572 C   0  0  0  0  0  0  0  0  0  0  0  0
    6.4709    0.7124    0.2314 N   0  0  0  0  0  0  0  0  0  0  0  0
    7.7289    0.1539    0.6812 C   0  0  0  0  0  0  0  0  0  0  0  0
    6.6451    1.4220   -1.0199 C   0  0  0  0  0  0  0  0  0  0  0  0
   -1.6265   -4.7199    0.0188 H   0  0  0  0  0  0  0  0  0  0  0  0
    0.7565   -5.0812   -0.1344 H   0  0  0  0  0  0  0  0  0  0  0  0
    2.3202   -3.2216   -0.2503 H   0  0  0  0  0  0  0  0  0  0  0  0
   -4.4029    2.8162   -0.0685 H   0  0  0  0  0  0  0  0  0  0  0  0
   -6.0794    1.0364    0.1622 H   0  0  0  0  0  0  0  0  0  0  0  0
   -5.4377   -1.2967    0.2234 H   0  0  0  0  0  0  0  0  0  0  0  0
   -4.0893   -3.4926    1.0251 H   0  0  0  0  0  0  0  0  0  0  0  0
   -4.6639   -3.0579   -0.4580 H   0  0  0  0  0  0  0  0  0  0  0  0
   -3.4736   -4.1510   -0.3460 H   0  0  0  0  0  0  0  0  0  0  0  0
   -0.2598    0.4963   -0.2890 H   0  0  0  0  0  0  0  0  0  0  0  0
    3.3374   -1.6446    0.4622 H   0  0  0  0  0  0  0  0  0  0  0  0
    3.9093    0.9702    0.9646 H   0  0  0  0  0  0  0  0  0  0  0  0
    3.9177    0.9130   -0.7956 H   0  0  0  0  0  0  0  0  0  0  0  0
    5.5799   -0.9795   -0.7035 H   0  0  0  0  0  0  0  0  0  0  0  0
    5.5111   -0.9213    1.0571 H   0  0  0  0  0  0  0  0  0  0  0  0
    8.4687    0.9481    0.7903 H   0  0  0  0  0  0  0  0  0  0  0  0
    7.6049   -0.3193    1.6563 H   0  0  0  0  0  0  0  0  0  0  0  0
    8.1448   -0.5969   -0.0077 H   0  0  0  0  0  0  0  0  0  0  0  0
    5.7241    1.9204   -1.3221 H   0  0  0  0  0  0  0  0  0  0  0  0
    7.4049    2.1946   -0.8994 H   0  0  0  0  0  0  0  0  0  0  0  0
    6.9604    0.7658   -1.8462 H   0  0  0  0  0  0  0  0  0  0  0  0
  1  2  2  0
  1 12  1  0
  1 25  1  0
  2  3  1  0
  2 26  1  0
  3  4  2  0
  3 27  1  0
  4 13  1  0
  4 17  1  0
  5  6  1  0
  5 15  2  0
  5 16  1  0
  6  7  2  0
  6 28  1  0
  7  8  1  0
  7 29  1  0
  8 14  2  0
  8 30  1  0
  9 10  1  0
  9 12  2  0
  9 14  1  0
 10 31  1  0
 10 32  1  0
 10 33  1  0
 11 13  2  0
 11 15  1  0
 11 34  1  0
 12 13  1  0
 14 15  1  0
 17 18  2  0
 17 19  1  0
 19 20  1  0
 19 35  1  0
 20 21  1  0
 20 36  1  0
 20 37  1  0
 21 22  1  0
 21 38  1  0
 21 39  1  0
 22 23  1  0
 22 24  1  0
 23 40  1  0
 23 41  1  0
 23 42  1  0
 24 43  1  0
 24 44  1  0
 24 45  1  0
M  CHG  2  10   1  11   1
M  END
