
     RDKit          3D

 44 46  0  0  0  0  0  0  0  0999 V2000
    6.6683   -0.1630   -2.6961 C   0  0  0  0  0  0  0  0  0  0  0  0
    5.6535   -0.0903   -1.6738 N   0  0  0  0  0  0  0  0  0  0  0  0
    5.8229    0.6014   -0.5471 C   0  0  0  0  0  0  0  0  0  0  0  0
    6.8527    1.2248   -0.2921 O   0  0  0  0  0  0  0  0  0  0  0  0
    4.6656    0.5738    0.3965 C   0  0  0  0  0  0  0  0  0  0  0  0
    3.6046   -0.1093    0.0257 N   0  0  0  0  0  0  0  0  0  0  0  0
    4.6812    1.2548    1.6466 C   0  0  0  0  0  0  0  0  0  0  0  0
    5.7101    1.9801    2.0848 N   0  0  0  0  0  0  0  0  0  0  0  0
    3.6087    1.1675    2.4460 N   0  0  0  0  0  0  0  0  0  0  0  0
    2.5706    0.4735    2.0397 C   0  0  0  0  0  0  0  0  0  0  0  0
    2.5345   -0.1780    0.8039 C   0  0  0  0  0  0  0  0  0  0  0  0
    1.3805   -0.9580    0.3326 C   0  0  0  0  0  0  0  0  0  0  0  0
    0.1093   -0.7649    0.8676 C   0  0  0  0  0  0  0  0  0  0  0  0
    1.5315   -1.9073   -0.6773 C   0  0  0  0  0  0  0  0  0  0  0  0
    0.4558   -2.6487   -1.1307 C   0  0  0  0  0  0  0  0  0  0  0  0
   -0.8026   -2.4604   -0.5822 C   0  0  0  0  0  0  0  0  0  0  0  0
   -2.1096   -3.4013   -1.1857 Cl  0  0  0  0  0  0  0  0  0  0  0  0
   -0.9727   -1.5075    0.4195 C   0  0  0  0  0  0  0  0  0  0  0  0
   -2.5545   -1.2041    1.1687 S   0  0  1  0  0  0  0  0  0  0  0  0
   -3.1500   -2.4546    1.5938 O   0  0  0  0  0  0  0  0  0  0  0  0
   -2.3668   -0.1358    2.1344 O   0  0  0  0  0  0  0  0  0  0  0  0
   -3.4502   -0.6700   -0.1213 N   0  0  0  0  0  0  0  0  0  0  0  0
   -3.2883    0.6719   -0.5315 C   0  0  0  0  0  0  0  0  0  0  0  0
   -2.3334    1.0044   -1.4849 C   0  0  0  0  0  0  0  0  0  0  0  0
   -2.1665    2.3242   -1.8736 C   0  0  0  0  0  0  0  0  0  0  0  0
   -2.9604    3.3245   -1.3297 C   0  0  0  0  0  0  0  0  0  0  0  0
   -3.9133    2.9885   -0.3903 C   0  0  0  0  0  0  0  0  0  0  0  0
   -4.6951    3.9274    0.1487 F   0  0  0  0  0  0  0  0  0  0  0  0
   -4.0705    1.6771    0.0200 C   0  0  0  0  0  0  0  0  0  0  0  0
   -4.9901    1.3794    0.9355 F   0  0  0  0  0  0  0  0  0  0  0  0
    6.9413    0.8273   -3.0612 H   0  0  0  0  0  0  0  0  0  0  0  0
    7.5721   -0.6561   -2.3359 H   0  0  0  0  0  0  0  0  0  0  0  0
    6.2748   -0.7383   -3.5289 H   0  0  0  0  0  0  0  0  0  0  0  0
    4.7789   -0.5734   -1.8039 H   0  0  0  0  0  0  0  0  0  0  0  0
    6.5397    2.0759    1.5227 H   0  0  0  0  0  0  0  0  0  0  0  0
    5.6452    2.4391    2.9772 H   0  0  0  0  0  0  0  0  0  0  0  0
    1.7369    0.4157    2.7301 H   0  0  0  0  0  0  0  0  0  0  0  0
   -0.0521   -0.0155    1.6294 H   0  0  0  0  0  0  0  0  0  0  0  0
    2.5055   -2.0773   -1.1150 H   0  0  0  0  0  0  0  0  0  0  0  0
    0.5951   -3.3821   -1.9128 H   0  0  0  0  0  0  0  0  0  0  0  0
   -4.3893   -1.0548   -0.1313 H   0  0  0  0  0  0  0  0  0  0  0  0
   -1.7330    0.2203   -1.9254 H   0  0  0  0  0  0  0  0  0  0  0  0
   -1.4213    2.5773   -2.6143 H   0  0  0  0  0  0  0  0  0  0  0  0
   -2.8484    4.3565   -1.6345 H   0  0  0  0  0  0  0  0  0  0  0  0
  1  2  1  0
  2  3  1  0
  3  4  2  0
  3  5  1  0
  5  6  2  0
  5  7  1  0
  6 11  1  0
  7  8  1  0
  7  9  2  0
  9 10  1  0
 10 11  2  0
 11 12  1  0
 12 13  2  0
 12 14  1  0
 13 18  1  0
 14 15  2  0
 15 16  1  0
 16 17  1  0
 16 18  2  0
 18 19  1  0
 19 20  2  0
 19 21  2  0
 19 22  1  6
 22 23  1  0
 23 24  2  0
 23 29  1  0
 24 25  1  0
 25 26  2  0
 26 27  1  0
 27 28  1  0
 27 29  2  0
 29 30  1  0
  1 31  1  0
  1 32  1  0
  1 33  1  0
  2 34  1  0
  8 35  1  0
  8 36  1  0
 10 37  1  0
 13 38  1  0
 14 39  1  0
 15 40  1  0
 22 41  1  0
 24 42  1  0
 25 43  1  0
 26 44  1  0
M  END
