
     RDKit          3D

113118  0  0  0  0  0  0  0  0999 V2000
    7.0442    3.3025   -1.5881 O   0  0  0  0  0  0  0  0  0  0  0  0
    6.0818    2.5765   -1.3741 C   0  0  0  0  0  0  0  0  0  0  0  0
    6.1493    1.2301   -1.3855 N   0  0  0  0  0  0  0  0  0  0  0  0
    5.1733    0.3547   -0.7551 C   0  0  0  0  0  0  0  0  0  0  0  0
    5.7336   -0.2271    0.5376 C   0  0  0  0  0  0  0  0  0  0  0  0
    7.0599   -0.9525    0.2893 C   0  0  2  0  0  0  0  0  0  0  0  0
    7.6312   -1.5371    1.5554 C   0  0  0  0  0  0  0  0  0  0  0  0
    7.6975   -2.9186    1.7210 C   0  0  0  0  0  0  0  0  0  0  0  0
    8.2121   -3.4998    2.8755 C   0  0  0  0  0  0  0  0  0  0  0  0
    8.2375   -4.9992    3.0305 C   0  0  0  0  0  0  0  0  0  0  0  0
    9.5115   -5.4636    3.5539 N   0  0  0  0  0  0  0  0  0  0  0  0
    8.6856   -2.6672    3.8862 C   0  0  0  0  0  0  0  0  0  0  0  0
    8.6235   -1.2888    3.7405 C   0  0  0  0  0  0  0  0  0  0  0  0
    8.0985   -0.7246    2.5852 C   0  0  0  0  0  0  0  0  0  0  0  0
    8.0368   -0.0166   -0.4265 C   0  0  0  0  0  0  0  0  0  0  0  0
    7.4055    0.5615   -1.6863 C   0  0  0  0  0  0  0  0  0  0  0  0
    4.7388    3.2001   -1.1395 C   0  0  0  0  0  0  0  0  0  0  0  0
    4.6097    4.1421   -0.1239 C   0  0  0  0  0  0  0  0  0  0  0  0
    3.6707    2.9314   -1.9847 C   0  0  0  0  0  0  0  0  0  0  0  0
    2.4522    3.5955   -1.8272 C   0  0  0  0  0  0  0  0  0  0  0  0
    2.3328    4.5231   -0.7976 C   0  0  0  0  0  0  0  0  0  0  0  0
    3.3981    4.7971    0.0638 C   0  0  0  0  0  0  0  0  0  0  0  0
    3.1112    5.9859    1.3290 S   0  0  0  0  0  0  0  0  0  0  0  0
    4.6045    5.9085    2.3331 C   0  0  0  0  0  0  0  0  0  0  0  0
    0.9670    3.1366   -2.8917 Si  0  0  1  0  0  0  0  0  0  0  0  0
   -0.2409    4.5647   -2.9664 C   0  0  0  0  0  0  0  0  0  0  0  0
    1.5255    2.6272   -4.6002 C   0  0  0  0  0  0  0  0  0  0  0  0
    0.2374    1.8143   -2.1831 O   0  0  0  0  0  0  0  0  0  0  0  0
   -0.1149    1.3032   -0.6367 Si  0  0  1  0  0  0  0  0  0  0  0  0
    1.4420    0.7826    0.2629 C   0  0  0  0  0  0  0  0  0  0  0  0
   -1.0081    2.6603    0.2974 C   0  0  0  0  0  0  0  0  0  0  0  0
   -1.2630   -0.1716   -0.8485 C   0  0  0  0  0  0  0  0  0  0  0  0
   -2.5406    0.0029   -1.3875 C   0  0  0  0  0  0  0  0  0  0  0  0
   -3.3851   -1.0831   -1.5683 C   0  0  0  0  0  0  0  0  0  0  0  0
   -2.9678   -2.3642   -1.2184 C   0  0  0  0  0  0  0  0  0  0  0  0
   -1.7144   -2.5528   -0.6506 C   0  0  0  0  0  0  0  0  0  0  0  0
   -1.0906   -4.1160   -0.1375 S   0  0  0  0  0  0  0  0  0  0  0  0
   -2.4935   -5.2268   -0.3410 C   0  0  0  0  0  0  0  0  0  0  0  0
   -0.8702   -1.4522   -0.4775 C   0  0  0  0  0  0  0  0  0  0  0  0
   -4.7166   -0.9336   -2.2395 C   0  0  0  0  0  0  0  0  0  0  0  0
   -4.9223   -1.5314   -3.2880 O   0  0  0  0  0  0  0  0  0  0  0  0
   -5.6191   -0.1156   -1.6609 N   0  0  0  0  0  0  0  0  0  0  0  0
   -5.5886    0.2691   -0.2571 C   0  0  0  0  0  0  0  0  0  0  0  0
   -6.5618   -0.5862    0.5458 C   0  0  0  0  0  0  0  0  0  0  0  0
   -7.9795   -0.5028   -0.0291 C   0  0  1  0  0  0  0  0  0  0  0  0
   -7.9612   -0.8199   -1.5286 C   0  0  0  0  0  0  0  0  0  0  0  0
   -6.9374    0.0420   -2.2566 C   0  0  0  0  0  0  0  0  0  0  0  0
   -8.9528   -1.3794    0.7178 C   0  0  0  0  0  0  0  0  0  0  0  0
  -10.0867   -0.8309    1.3080 C   0  0  0  0  0  0  0  0  0  0  0  0
  -11.0139   -1.6109    1.9963 C   0  0  0  0  0  0  0  0  0  0  0  0
  -12.2018   -0.9545    2.6561 C   0  0  0  0  0  0  0  0  0  0  0  0
  -13.3428   -1.8457    2.7567 N   0  0  0  0  0  0  0  0  0  0  0  0
  -10.7969   -2.9821    2.0818 C   0  0  0  0  0  0  0  0  0  0  0  0
   -9.6720   -3.5475    1.4944 C   0  0  0  0  0  0  0  0  0  0  0  0
   -8.7554   -2.7562    0.8189 C   0  0  0  0  0  0  0  0  0  0  0  0
    4.2546    0.8966   -0.5514 H   0  0  0  0  0  0  0  0  0  0  0  0
    4.9251   -0.4522   -1.4514 H   0  0  0  0  0  0  0  0  0  0  0  0
    5.8735    0.5790    1.2651 H   0  0  0  0  0  0  0  0  0  0  0  0
    5.0018   -0.9174    0.9638 H   0  0  0  0  0  0  0  0  0  0  0  0
    6.8500   -1.7856   -0.3925 H   0  0  0  0  0  0  0  0  0  0  0  0
    7.3402   -3.5598    0.9210 H   0  0  0  0  0  0  0  0  0  0  0  0
    7.4597   -5.2909    3.7426 H   0  0  0  0  0  0  0  0  0  0  0  0
    7.9537   -5.4561    2.0728 H   0  0  0  0  0  0  0  0  0  0  0  0
    9.4591   -6.4592    3.7273 H   0  0  0  0  0  0  0  0  0  0  0  0
   10.2296   -5.3395    2.8513 H   0  0  0  0  0  0  0  0  0  0  0  0
    9.1061   -3.1003    4.7846 H   0  0  0  0  0  0  0  0  0  0  0  0
    8.9886   -0.6477    4.5333 H   0  0  0  0  0  0  0  0  0  0  0  0
    8.0596    0.3543    2.4894 H   0  0  0  0  0  0  0  0  0  0  0  0
    8.3376    0.8044    0.2305 H   0  0  0  0  0  0  0  0  0  0  0  0
    8.9460   -0.5581   -0.6975 H   0  0  0  0  0  0  0  0  0  0  0  0
    7.1925   -0.2424   -2.3981 H   0  0  0  0  0  0  0  0  0  0  0  0
    8.0800    1.2570   -2.1783 H   0  0  0  0  0  0  0  0  0  0  0  0
    5.4575    4.3486    0.5155 H   0  0  0  0  0  0  0  0  0  0  0  0
    3.7939    2.1959   -2.7717 H   0  0  0  0  0  0  0  0  0  0  0  0
    1.3940    5.0479   -0.6505 H   0  0  0  0  0  0  0  0  0  0  0  0
    4.7672    4.9071    2.7281 H   0  0  0  0  0  0  0  0  0  0  0  0
    5.4837    6.2423    1.7854 H   0  0  0  0  0  0  0  0  0  0  0  0
    4.4377    6.5881    3.1665 H   0  0  0  0  0  0  0  0  0  0  0  0
   -0.5745    4.8895   -1.9792 H   0  0  0  0  0  0  0  0  0  0  0  0
    0.2075    5.4279   -3.4618 H   0  0  0  0  0  0  0  0  0  0  0  0
   -1.1293    4.2825   -3.5341 H   0  0  0  0  0  0  0  0  0  0  0  0
    0.6730    2.3343   -5.2158 H   0  0  0  0  0  0  0  0  0  0  0  0
    2.0275    3.4548   -5.1045 H   0  0  0  0  0  0  0  0  0  0  0  0
    2.2177    1.7841   -4.5771 H   0  0  0  0  0  0  0  0  0  0  0  0
    2.1361    1.6217    0.3447 H   0  0  0  0  0  0  0  0  0  0  0  0
    1.2154    0.4429    1.2753 H   0  0  0  0  0  0  0  0  0  0  0  0
    1.9619   -0.0273   -0.2523 H   0  0  0  0  0  0  0  0  0  0  0  0
   -1.9229    2.9683   -0.2117 H   0  0  0  0  0  0  0  0  0  0  0  0
   -1.2857    2.3155    1.2952 H   0  0  0  0  0  0  0  0  0  0  0  0
   -0.3829    3.5471    0.4206 H   0  0  0  0  0  0  0  0  0  0  0  0
   -2.8839    0.9910   -1.6755 H   0  0  0  0  0  0  0  0  0  0  0  0
   -3.6351   -3.1994   -1.3848 H   0  0  0  0  0  0  0  0  0  0  0  0
   -3.3488   -4.9024    0.2493 H   0  0  0  0  0  0  0  0  0  0  0  0
   -2.7808   -5.3380   -1.3847 H   0  0  0  0  0  0  0  0  0  0  0  0
   -2.1630   -6.1943    0.0316 H   0  0  0  0  0  0  0  0  0  0  0  0
    0.1111   -1.6106   -0.0433 H   0  0  0  0  0  0  0  0  0  0  0  0
   -4.5831    0.1764    0.1434 H   0  0  0  0  0  0  0  0  0  0  0  0
   -5.8669    1.3245   -0.1862 H   0  0  0  0  0  0  0  0  0  0  0  0
   -6.2098   -1.6226    0.5396 H   0  0  0  0  0  0  0  0  0  0  0  0
   -6.5590   -0.2540    1.5861 H   0  0  0  0  0  0  0  0  0  0  0  0
   -8.3143    0.5360    0.0821 H   0  0  0  0  0  0  0  0  0  0  0  0
   -7.7203   -1.8747   -1.6894 H   0  0  0  0  0  0  0  0  0  0  0  0
   -8.9506   -0.6475   -1.9580 H   0  0  0  0  0  0  0  0  0  0  0  0
   -7.2132    1.0981   -2.1801 H   0  0  0  0  0  0  0  0  0  0  0  0
   -6.8947   -0.2076   -3.3133 H   0  0  0  0  0  0  0  0  0  0  0  0
  -10.2556    0.2385    1.2255 H   0  0  0  0  0  0  0  0  0  0  0  0
  -11.9136   -0.6645    3.6712 H   0  0  0  0  0  0  0  0  0  0  0  0
  -12.4174   -0.0140    2.1307 H   0  0  0  0  0  0  0  0  0  0  0  0
  -14.0660   -1.4043    3.3090 H   0  0  0  0  0  0  0  0  0  0  0  0
  -13.7413   -1.9927    1.8378 H   0  0  0  0  0  0  0  0  0  0  0  0
  -11.5108   -3.6051    2.6044 H   0  0  0  0  0  0  0  0  0  0  0  0
   -9.5088   -4.6158    1.5644 H   0  0  0  0  0  0  0  0  0  0  0  0
   -7.8859   -3.2190    0.3672 H   0  0  0  0  0  0  0  0  0  0  0  0
 54 53  2  0
 54 55  1  0
 53 50  1  0
 55 48  2  0
 52 51  1  0
 50 51  1  0
 50 49  2  0
 48 49  1  0
 48 45  1  0
 45 46  1  0
 45 44  1  0
 46 47  1  0
 47 42  1  0
 44 43  1  0
 43 42  1  0
 42 40  1  0
 40 41  2  0
 40 34  1  0
 34 33  2  0
 34 35  1  0
 26 25  1  0
 33 32  1  0
 35 36  2  0
 31 29  1  0
 27 25  1  0
 25 28  1  1
 25 20  1  0
 32 29  1  0
 32 39  2  0
 36 39  1  0
 36 37  1  0
 29 28  1  6
 29 30  1  0
 20 19  2  0
 20 21  1  0
 19 17  1  0
 21 22  2  0
 37 38  1  0
  1  2  2  0
 17  2  1  0
 17 18  2  0
 22 18  1  0
 22 23  1  0
  2  3  1  0
 24 23  1  0
 16  3  1  0
 16 15  1  0
  3  4  1  0
  4  5  1  0
 15  6  1  0
  5  6  1  0
  6  7  1  0
  7  8  2  0
  7 14  1  0
  8  9  1  0
 14 13  2  0
 11 10  1  0
  9 10  1  0
  9 12  2  0
 13 12  1  0
  4 56  1  0
  4 57  1  0
  5 58  1  0
  5 59  1  0
  6 60  1  6
  8 61  1  0
 10 62  1  0
 10 63  1  0
 11 64  1  0
 11 65  1  0
 12 66  1  0
 13 67  1  0
 14 68  1  0
 15 69  1  0
 15 70  1  0
 16 71  1  0
 16 72  1  0
 18 73  1  0
 19 74  1  0
 21 75  1  0
 24 76  1  0
 24 77  1  0
 24 78  1  0
 26 79  1  0
 26 80  1  0
 26 81  1  0
 27 82  1  0
 27 83  1  0
 27 84  1  0
 30 85  1  0
 30 86  1  0
 30 87  1  0
 31 88  1  0
 31 89  1  0
 31 90  1  0
 33 91  1  0
 35 92  1  0
 38 93  1  0
 38 94  1  0
 38 95  1  0
 39 96  1  0
 43 97  1  0
 43 98  1  0
 44 99  1  0
 44100  1  0
 45101  1  6
 46102  1  0
 46103  1  0
 47104  1  0
 47105  1  0
 49106  1  0
 51107  1  0
 51108  1  0
 52109  1  0
 52110  1  0
 53111  1  0
 54112  1  0
 55113  1  0
M  END
