
     RDKit          3D

 14 14  0  0  0  0  0  0  0  0999 V2000
   -0.9196   -0.9874   -0.5057 O   0  0  0  0  0  0  0  0  0  0  0  0
    0.0405   -0.2961   -0.2807 C   0  0  0  0  0  0  0  0  0  0  0  0
    1.2539   -0.5034   -0.7594 O   0  0  0  0  0  0  0  0  0  0  0  0
    1.4436   -1.6394   -1.6057 C   0  0  0  0  0  0  0  0  0  0  0  0
    0.0151    0.9004    0.5718 C   0  0  0  0  0  0  0  0  0  0  0  0
   -1.1045    1.3015    1.1620 N   0  0  0  0  0  0  0  0  0  0  0  0
   -0.7432    2.3606    1.8142 N   0  0  0  0  0  0  0  0  0  0  0  0
    0.5166    2.7087    1.7174 N   0  0  0  0  0  0  0  0  0  0  0  0
    1.0365    1.7904    0.9240 C   0  0  0  0  0  0  0  0  0  0  0  0
    1.2140   -2.5662   -1.0808 H   0  0  0  0  0  0  0  0  0  0  0  0
    2.4929   -1.6309   -1.8835 H   0  0  0  0  0  0  0  0  0  0  0  0
    0.8294   -1.5701   -2.5030 H   0  0  0  0  0  0  0  0  0  0  0  0
    2.0776    1.8011    0.6481 H   0  0  0  0  0  0  0  0  0  0  0  0
   -1.3985    2.8908    2.3714 H   0  0  0  0  0  0  0  0  0  0  0  0
  1  2  2  0
  2  3  1  0
  2  5  1  0
  3  4  1  0
  4 10  1  0
  4 11  1  0
  4 12  1  0
  5  6  2  0
  5  9  1  0
  6  7  1  0
  7  8  1  0
  7 14  1  0
  8  9  2  0
  9 13  1  0
M  END
