
     RDKit          3D

 60 64  0  0  0  0  0  0  0  0999 V2000
   10.4196   -1.9380    0.2904 C   0  0  0  0  0  0  0  0  0  0  0  0
    9.4369   -2.6397   -0.3901 C   0  0  0  0  0  0  0  0  0  0  0  0
    8.1663   -2.0965   -0.4701 C   0  0  0  0  0  0  0  0  0  0  0  0
    7.9070   -0.8709    0.1424 C   0  0  0  0  0  0  0  0  0  0  0  0
    8.9703   -0.2637    0.8194 C   0  0  0  0  0  0  0  0  0  0  0  0
   10.1898   -0.7714    0.8844 N   0  0  0  0  0  0  0  0  0  0  0  0
    6.6018   -0.2311    0.0942 C   0  0  0  0  0  0  0  0  0  0  0  0
    5.1357   -1.1314   -0.1584 S   0  0  0  0  0  0  0  0  0  0  0  0
    4.2336    0.3620   -0.0529 C   0  0  0  0  0  0  0  0  0  0  0  0
    4.9608    1.4145    0.1459 N   0  0  0  0  0  0  0  0  0  0  0  0
    6.2795    1.0838    0.2247 C   0  0  0  0  0  0  0  0  0  0  0  0
    2.8825    0.2900   -0.1756 N   0  0  0  0  0  0  0  0  0  0  0  0
    1.9400    1.3117   -0.1805 C   0  0  0  0  0  0  0  0  0  0  0  0
    2.3507    2.5671   -0.1936 N   0  0  0  0  0  0  0  0  0  0  0  0
    1.3869    3.4868   -0.2123 C   0  0  0  0  0  0  0  0  0  0  0  0
    0.0368    3.2291   -0.2138 C   0  0  0  0  0  0  0  0  0  0  0  0
   -0.4094    1.8874   -0.1847 C   0  0  0  0  0  0  0  0  0  0  0  0
    0.6018    0.9181   -0.1872 C   0  0  0  0  0  0  0  0  0  0  0  0
   -1.7354    1.5596   -0.1340 N   0  0  0  0  0  0  0  0  0  0  0  0
   -2.7471    2.5491   -0.4663 C   0  0  0  0  0  0  0  0  0  0  0  0
   -4.0909    2.1940    0.1380 C   0  0  0  0  0  0  0  0  0  0  0  0
   -4.5093    0.8686   -0.2688 N   0  0  0  0  0  0  0  0  0  0  0  0
   -3.5290   -0.0881    0.2024 C   0  0  0  0  0  0  0  0  0  0  0  0
   -2.1607    0.1930   -0.3868 C   0  0  0  0  0  0  0  0  0  0  0  0
   -5.8387    0.5733    0.2014 C   0  0  0  0  0  0  0  0  0  0  0  0
   -6.4944   -0.5623   -0.5762 C   0  0  0  0  0  0  0  0  0  0  0  0
   -7.7319   -0.9310   -0.1706 N   0  0  0  0  0  0  0  0  0  0  0  0
   -8.4878   -1.9199   -0.9224 C   0  0  0  0  0  0  0  0  0  0  0  0
   -9.2666   -2.8096    0.0288 C   0  0  0  0  0  0  0  0  0  0  0  0
  -10.0882   -2.0559    0.8924 O   0  0  0  0  0  0  0  0  0  0  0  0
   -9.3169   -1.1658    1.6638 C   0  0  0  0  0  0  0  0  0  0  0  0
   -8.5374   -0.1966    0.7917 C   0  0  0  0  0  0  0  0  0  0  0  0
   -5.9278   -1.1029   -1.5128 O   0  0  0  0  0  0  0  0  0  0  0  0
   11.4266   -2.3321    0.3638 H   0  0  0  0  0  0  0  0  0  0  0  0
    9.6648   -3.5888   -0.8548 H   0  0  0  0  0  0  0  0  0  0  0  0
    7.3911   -2.6202   -1.0168 H   0  0  0  0  0  0  0  0  0  0  0  0
    8.8130    0.6754    1.3401 H   0  0  0  0  0  0  0  0  0  0  0  0
    7.0060    1.8717    0.3708 H   0  0  0  0  0  0  0  0  0  0  0  0
    2.4975   -0.6387   -0.2496 H   0  0  0  0  0  0  0  0  0  0  0  0
    1.7207    4.5189   -0.2333 H   0  0  0  0  0  0  0  0  0  0  0  0
   -0.6389    4.0689   -0.2364 H   0  0  0  0  0  0  0  0  0  0  0  0
    0.3792   -0.1388   -0.1846 H   0  0  0  0  0  0  0  0  0  0  0  0
   -2.4691    3.5223   -0.0717 H   0  0  0  0  0  0  0  0  0  0  0  0
   -2.8459    2.6478   -1.5548 H   0  0  0  0  0  0  0  0  0  0  0  0
   -4.0282    2.2864    1.2357 H   0  0  0  0  0  0  0  0  0  0  0  0
   -4.8197    2.9298   -0.2077 H   0  0  0  0  0  0  0  0  0  0  0  0
   -3.4582   -0.0739    1.3041 H   0  0  0  0  0  0  0  0  0  0  0  0
   -3.8158   -1.0965   -0.0922 H   0  0  0  0  0  0  0  0  0  0  0  0
   -2.1709   -0.0117   -1.4651 H   0  0  0  0  0  0  0  0  0  0  0  0
   -1.4689   -0.5075    0.0746 H   0  0  0  0  0  0  0  0  0  0  0  0
   -5.8545    0.3483    1.2807 H   0  0  0  0  0  0  0  0  0  0  0  0
   -6.4580    1.4670    0.0732 H   0  0  0  0  0  0  0  0  0  0  0  0
   -9.1749   -1.4144   -1.6111 H   0  0  0  0  0  0  0  0  0  0  0  0
   -7.8110   -2.5297   -1.5156 H   0  0  0  0  0  0  0  0  0  0  0  0
   -9.9129   -3.4782   -0.5408 H   0  0  0  0  0  0  0  0  0  0  0  0
   -8.5648   -3.4268    0.6069 H   0  0  0  0  0  0  0  0  0  0  0  0
   -9.9982   -0.6086    2.3079 H   0  0  0  0  0  0  0  0  0  0  0  0
   -8.6158   -1.7173    2.3058 H   0  0  0  0  0  0  0  0  0  0  0  0
   -7.9167    0.4168    1.4392 H   0  0  0  0  0  0  0  0  0  0  0  0
   -9.2278    0.4724    0.2649 H   0  0  0  0  0  0  0  0  0  0  0  0
 33 26  2  0
 26 27  1  0
 26 25  1  0
 24 23  1  0
 24 19  1  0
 23 22  1  0
 27 28  1  0
 27 32  1  0
 28 29  1  0
 22 25  1  0
 22 21  1  0
 32 31  1  0
 20 19  1  0
 20 21  1  0
 19 17  1  0
 18 17  2  0
 18 13  1  0
 17 16  1  0
 12 13  1  0
 12  9  1  0
 29 30  1  0
 10  9  2  0
 10 11  1  0
 30 31  1  0
 13 14  2  0
  9  8  1  0
 16 15  2  0
 11  7  2  0
 14 15  1  0
  8  7  1  0
  7  4  1  0
  4  5  2  0
  4  3  1  0
  5  6  1  0
  3  2  2  0
  6  1  2  0
  2  1  1  0
  1 34  1  0
  2 35  1  0
  3 36  1  0
  5 37  1  0
 11 38  1  0
 12 39  1  0
 15 40  1  0
 16 41  1  0
 18 42  1  0
 20 43  1  0
 20 44  1  0
 21 45  1  0
 21 46  1  0
 23 47  1  0
 23 48  1  0
 24 49  1  0
 24 50  1  0
 25 51  1  0
 25 52  1  0
 28 53  1  0
 28 54  1  0
 29 55  1  0
 29 56  1  0
 31 57  1  0
 31 58  1  0
 32 59  1  0
 32 60  1  0
M  END
