
     RDKit          3D

 57 61  0  0  0  0  0  0  0  0999 V2000
    7.6838    0.6819   -0.3984 C   0  0  0  0  0  0  0  0  0  0  0  0
    8.3972    1.6504    0.2808 C   0  0  0  0  0  0  0  0  0  0  0  0
    7.6790    2.6989    0.8179 C   0  0  0  0  0  0  0  0  0  0  0  0
    6.3058    2.8050    0.6998 C   0  0  0  0  0  0  0  0  0  0  0  0
    5.6603    1.8039    0.0065 C   0  0  0  0  0  0  0  0  0  0  0  0
    6.3063    0.7146   -0.5641 C   0  0  0  0  0  0  0  0  0  0  0  0
    5.5521   -0.3507   -1.3083 C   0  0  0  0  0  0  0  0  0  0  0  0
    4.7011   -2.6391    1.3879 N   0  0  0  0  0  0  0  0  0  0  0  0
    5.2732   -1.9039    0.4980 C   0  0  0  0  0  0  0  0  0  0  0  0
    4.6761   -1.1257   -0.4216 N   0  0  0  0  0  0  0  0  0  0  0  0
    3.2910   -1.1000   -0.4780 C   0  0  0  0  0  0  0  0  0  0  0  0
    2.5940   -1.8745    0.4583 C   0  0  0  0  0  0  0  0  0  0  0  0
    1.1989   -1.9007    0.4427 C   0  0  0  0  0  0  0  0  0  0  0  0
    0.5152   -1.1748   -0.5007 C   0  0  0  0  0  0  0  0  0  0  0  0
    1.1996   -0.4037   -1.4374 C   0  0  0  0  0  0  0  0  0  0  0  0
    2.5756   -0.3633   -1.4288 C   0  0  0  0  0  0  0  0  0  0  0  0
    3.3283   -2.6686    1.4550 C   0  0  0  0  0  0  0  0  0  0  0  0
    2.7586   -3.3336    2.3032 O   0  0  0  0  0  0  0  0  0  0  0  0
   -4.8534   -1.6686   -0.9243 F   0  0  0  0  0  0  0  0  0  0  0  0
   -0.8535   -1.2559   -0.5633 O   0  0  0  0  0  0  0  0  0  0  0  0
   -1.6166   -0.3662    0.1111 C   0  0  0  0  0  0  0  0  0  0  0  0
   -1.0869    0.6817    0.8508 C   0  0  0  0  0  0  0  0  0  0  0  0
   -1.9409    1.5495    1.5093 C   0  0  0  0  0  0  0  0  0  0  0  0
   -3.3122    1.3709    1.4511 C   0  0  0  0  0  0  0  0  0  0  0  0
   -3.8436    0.3158    0.7189 C   0  0  0  0  0  0  0  0  0  0  0  0
   -3.0026   -0.5536    0.0271 C   0  0  0  0  0  0  0  0  0  0  0  0
   -3.5196   -1.6756   -0.8274 C   0  0  1  0  0  0  0  0  0  0  0  0
    8.3360    3.6517    1.4794 F   0  0  0  0  0  0  0  0  0  0  0  0
   -3.1735   -2.8754   -0.3474 F   0  0  0  0  0  0  0  0  0  0  0  0
   -3.0577   -1.6036   -2.0809 F   0  0  0  0  0  0  0  0  0  0  0  0
    8.3633   -0.3435   -0.9188 F   0  0  0  0  0  0  0  0  0  0  0  0
    4.3338    1.8766   -0.1242 F   0  0  0  0  0  0  0  0  0  0  0  0
   -5.3338    0.1275    0.8298 C   0  0  0  0  0  0  0  0  0  0  0  0
   -5.8054   -0.6652    1.6188 O   0  0  0  0  0  0  0  0  0  0  0  0
   -6.0417    0.9706    0.0458 N   0  0  0  0  0  0  0  0  0  0  0  0
   -7.4262    1.1212   -0.0417 C   0  0  0  0  0  0  0  0  0  0  0  0
   -7.9004    2.1599   -0.8488 C   0  0  0  0  0  0  0  0  0  0  0  0
   -9.1811    2.4212   -1.0335 N   0  0  0  0  0  0  0  0  0  0  0  0
  -10.0754    1.6551   -0.4174 C   0  0  0  0  0  0  0  0  0  0  0  0
   -9.7094    0.5997    0.4002 C   0  0  0  0  0  0  0  0  0  0  0  0
   -8.3662    0.3178    0.5984 C   0  0  0  0  0  0  0  0  0  0  0  0
    9.4717    1.5844    0.3853 H   0  0  0  0  0  0  0  0  0  0  0  0
    5.7608    3.6351    1.1283 H   0  0  0  0  0  0  0  0  0  0  0  0
    4.9650    0.0849   -2.1099 H   0  0  0  0  0  0  0  0  0  0  0  0
    6.2363   -1.0425   -1.7943 H   0  0  0  0  0  0  0  0  0  0  0  0
    6.3577   -1.8983    0.4630 H   0  0  0  0  0  0  0  0  0  0  0  0
    0.6671   -2.5019    1.1688 H   0  0  0  0  0  0  0  0  0  0  0  0
    0.6524    0.1571   -2.1839 H   0  0  0  0  0  0  0  0  0  0  0  0
    3.0700    0.2344   -2.1786 H   0  0  0  0  0  0  0  0  0  0  0  0
   -0.0180    0.8312    0.9171 H   0  0  0  0  0  0  0  0  0  0  0  0
   -1.5264    2.3703    2.0782 H   0  0  0  0  0  0  0  0  0  0  0  0
   -3.9699    2.0455    1.9827 H   0  0  0  0  0  0  0  0  0  0  0  0
   -5.5032    1.5872   -0.5458 H   0  0  0  0  0  0  0  0  0  0  0  0
   -7.1920    2.8016   -1.3662 H   0  0  0  0  0  0  0  0  0  0  0  0
  -11.1198    1.8913   -0.5830 H   0  0  0  0  0  0  0  0  0  0  0  0
  -10.4659   -0.0052    0.8805 H   0  0  0  0  0  0  0  0  0  0  0  0
   -8.0759   -0.5058    1.2297 H   0  0  0  0  0  0  0  0  0  0  0  0
 28  3  1  0
 27 30  1  6
 29 27  1  0
 39 40  2  0
 39 38  1  0
 19 27  1  0
 40 41  1  0
 38 37  2  0
 27 26  1  0
  3  2  1  0
  3  4  2  0
 41 36  2  0
 37 36  1  0
  2  1  2  0
 36 35  1  0
 34 33  2  0
  4  5  1  0
 33 35  1  0
 33 25  1  0
 26 25  2  0
 26 21  1  0
  1 31  1  0
  1  6  1  0
 20 14  1  0
 20 21  1  0
 25 24  1  0
  5  6  2  0
  5 32  1  0
 14 15  2  0
 14 13  1  0
 15 16  1  0
 21 22  2  0
  6  7  1  0
 13 12  2  0
 16 11  2  0
 12 11  1  0
 12 17  1  0
 11 10  1  0
 24 23  2  0
 18 17  2  0
 17  8  1  0
 10  7  1  0
 10  9  1  0
 22 23  1  0
  8  9  2  0
  2 42  1  0
  4 43  1  0
  7 44  1  0
  7 45  1  0
  9 46  1  0
 13 47  1  0
 15 48  1  0
 16 49  1  0
 22 50  1  0
 23 51  1  0
 24 52  1  0
 35 53  1  0
 37 54  1  0
 39 55  1  0
 40 56  1  0
 41 57  1  0
M  END
