
     RDKit          3D

 43 44  0  0  0  0  0  0  0  0999 V2000
   -2.0124   -0.3890   -6.0404 C   0  0  0  0  0  0  0  0  0  0  0  0
   -1.2582   -0.5542   -4.8915 C   0  0  0  0  0  0  0  0  0  0  0  0
    0.0815   -0.1807   -4.8413 C   0  0  0  0  0  0  0  0  0  0  0  0
    0.6544    0.3824   -5.9790 C   0  0  0  0  0  0  0  0  0  0  0  0
    2.2958    0.9159   -5.9750 Cl  0  0  0  0  0  0  0  0  0  0  0  0
   -0.0850    0.5754   -7.1340 C   0  0  0  0  0  0  0  0  0  0  0  0
   -1.4127    0.1776   -7.1528 C   0  0  0  0  0  0  0  0  0  0  0  0
    0.2871    0.0233   -2.4692 N   0  0  0  0  0  0  0  0  0  0  0  0
    0.8790   -0.4639   -3.6070 C   0  0  0  0  0  0  0  0  0  0  0  0
    1.9208   -1.0703   -3.6421 O   0  0  0  0  0  0  0  0  0  0  0  0
    0.0858    0.5834   -0.2631 N   0  0  0  0  0  0  0  0  0  0  0  0
    0.2814    0.4585    1.1227 C   0  0  0  0  0  0  0  0  0  0  0  0
    1.5451    0.5972    1.6943 C   0  0  0  0  0  0  0  0  0  0  0  0
    1.7314    0.4905    3.0557 C   0  0  0  0  0  0  0  0  0  0  0  0
    0.6410    0.2622    3.8994 C   0  0  0  0  0  0  0  0  0  0  0  0
    0.9059    0.1884    5.2120 O   0  0  0  0  0  0  0  0  0  0  0  0
   -0.1670    0.0365    6.1298 C   0  0  0  0  0  0  0  0  0  0  0  0
    0.4171    0.0551    7.5269 C   0  0  0  0  0  0  0  0  0  0  0  0
   -0.6889   -0.0470    8.5638 C   0  0  0  0  0  0  0  0  0  0  0  0
   -0.6315    0.1329    3.3519 C   0  0  0  0  0  0  0  0  0  0  0  0
   -0.7883    0.2193    1.9749 C   0  0  0  0  0  0  0  0  0  0  0  0
    0.7087   -0.2224   -1.1612 C   0  0  0  0  0  0  0  0  0  0  0  0
    1.5282   -1.0617   -0.8681 O   0  0  0  0  0  0  0  0  0  0  0  0
   -2.3312    0.4030   -8.5960 Cl  0  0  0  0  0  0  0  0  0  0  0  0
   -2.3751    0.0310    1.3132 Cl  0  0  0  0  0  0  0  0  0  0  0  0
   -0.1760   -0.0448    9.9772 C   0  0  0  0  0  0  0  0  0  0  0  0
   -1.1671   -0.1138   10.8602 O   0  0  0  0  0  0  0  0  0  0  0  0
    0.9857    0.0110   10.2940 O   0  0  0  0  0  0  0  0  0  0  0  0
   -3.0475   -0.6987   -6.0639 H   0  0  0  0  0  0  0  0  0  0  0  0
   -1.7218   -1.0051   -4.0236 H   0  0  0  0  0  0  0  0  0  0  0  0
    0.3682    1.0299   -8.0037 H   0  0  0  0  0  0  0  0  0  0  0  0
   -0.5001    0.6423   -2.6022 H   0  0  0  0  0  0  0  0  0  0  0  0
   -0.6063    1.2457   -0.5800 H   0  0  0  0  0  0  0  0  0  0  0  0
    2.3944    0.8044    1.0578 H   0  0  0  0  0  0  0  0  0  0  0  0
    2.7213    0.6013    3.4788 H   0  0  0  0  0  0  0  0  0  0  0  0
   -0.6941   -0.9072    5.9479 H   0  0  0  0  0  0  0  0  0  0  0  0
   -0.8906    0.8502    6.0033 H   0  0  0  0  0  0  0  0  0  0  0  0
    0.9803    0.9797    7.6702 H   0  0  0  0  0  0  0  0  0  0  0  0
    1.1178   -0.7744    7.6400 H   0  0  0  0  0  0  0  0  0  0  0  0
   -1.2780   -0.9583    8.4196 H   0  0  0  0  0  0  0  0  0  0  0  0
   -1.3980    0.7795    8.4568 H   0  0  0  0  0  0  0  0  0  0  0  0
   -1.5029   -0.0417    3.9666 H   0  0  0  0  0  0  0  0  0  0  0  0
   -0.8089   -0.1136   11.7604 H   0  0  0  0  0  0  0  0  0  0  0  0
  1  2  2  0
  1  7  1  0
  1 29  1  0
  2  3  1  0
  2 30  1  0
  3  4  2  0
  3  9  1  0
  4  5  1  0
  4  6  1  0
  6  7  2  0
  6 31  1  0
  7 24  1  0
  8  9  1  0
  8 22  1  0
  8 32  1  0
  9 10  2  0
 11 12  1  0
 11 22  1  0
 11 33  1  0
 12 13  2  0
 12 21  1  0
 13 14  1  0
 13 34  1  0
 14 15  2  0
 14 35  1  0
 15 16  1  0
 15 20  1  0
 16 17  1  0
 17 18  1  0
 17 36  1  0
 17 37  1  0
 18 19  1  0
 18 38  1  0
 18 39  1  0
 19 26  1  0
 19 40  1  0
 19 41  1  0
 20 21  2  0
 20 42  1  0
 21 25  1  0
 22 23  2  0
 26 27  1  0
 26 28  2  0
 27 43  1  0
M  END
