
     RDKit          3D

 50 49  0  0  0  0  0  0  0  0999 V2000
   -4.7437    0.6165    0.0106 C   0  0  0  0  0  0  0  0  0  0  0  0
   -3.5210   -0.2796    0.0018 C   0  0  0  0  0  0  0  0  0  0  0  0
   -2.2549    0.5741    0.0016 C   0  0  0  0  0  0  0  0  0  0  0  0
   -0.9904   -0.2756   -0.0038 C   0  0  0  0  0  0  0  0  0  0  0  0
    0.2871    0.5543   -0.0027 C   0  0  0  0  0  0  0  0  0  0  0  0
    1.5495   -0.2991   -0.0064 C   0  0  0  0  0  0  0  0  0  0  0  0
    2.8334    0.5208   -0.0051 C   0  0  0  0  0  0  0  0  0  0  0  0
    4.0920   -0.3382   -0.0089 C   0  0  0  0  0  0  0  0  0  0  0  0
    5.3800    0.4758   -0.0036 C   0  0  0  0  0  0  0  0  0  0  0  0
    6.6349   -0.3886   -0.0069 C   0  0  0  0  0  0  0  0  0  0  0  0
    7.9275    0.4182    0.0001 C   0  0  0  0  0  0  0  0  0  0  0  0
    9.1698   -0.4623   -0.0036 C   0  0  0  0  0  0  0  0  0  0  0  0
   -6.2242   -0.9367    1.2320 C   0  0  0  0  0  0  0  0  0  0  0  0
   -7.1444    0.9421    0.0190 C   0  0  0  0  0  0  0  0  0  0  0  0
   -6.2321   -0.9365   -1.2009 C   0  0  0  0  0  0  0  0  0  0  0  0
   -6.0739   -0.0936    0.0150 N   0  0  1  0  0  0  0  0  0  0  0  0
   -4.7405    1.2561    0.8944 H   0  0  0  0  0  0  0  0  0  0  0  0
   -4.7492    1.2616   -0.8692 H   0  0  0  0  0  0  0  0  0  0  0  0
   -3.5139   -0.9223   -0.8813 H   0  0  0  0  0  0  0  0  0  0  0  0
   -3.5074   -0.9303    0.8788 H   0  0  0  0  0  0  0  0  0  0  0  0
   -2.2525    1.2265    0.8808 H   0  0  0  0  0  0  0  0  0  0  0  0
   -2.2564    1.2326   -0.8729 H   0  0  0  0  0  0  0  0  0  0  0  0
   -0.9977   -0.9304   -0.8820 H   0  0  0  0  0  0  0  0  0  0  0  0
   -0.9947   -0.9371    0.8694 H   0  0  0  0  0  0  0  0  0  0  0  0
    0.2939    1.2099    0.8752 H   0  0  0  0  0  0  0  0  0  0  0  0
    0.2923    1.2159   -0.8760 H   0  0  0  0  0  0  0  0  0  0  0  0
    1.5396   -0.9561   -0.8835 H   0  0  0  0  0  0  0  0  0  0  0  0
    1.5412   -0.9607    0.8672 H   0  0  0  0  0  0  0  0  0  0  0  0
    2.8448    1.1770    0.8727 H   0  0  0  0  0  0  0  0  0  0  0  0
    2.8433    1.1832   -0.8781 H   0  0  0  0  0  0  0  0  0  0  0  0
    4.0809   -0.9934   -0.8873 H   0  0  0  0  0  0  0  0  0  0  0  0
    4.0797   -1.0020    0.8633 H   0  0  0  0  0  0  0  0  0  0  0  0
    5.3925    1.1304    0.8755 H   0  0  0  0  0  0  0  0  0  0  0  0
    5.3942    1.1399   -0.8752 H   0  0  0  0  0  0  0  0  0  0  0  0
    6.6219   -1.0433   -0.8860 H   0  0  0  0  0  0  0  0  0  0  0  0
    6.6190   -1.0536    0.8643 H   0  0  0  0  0  0  0  0  0  0  0  0
    7.9421    1.0708    0.8788 H   0  0  0  0  0  0  0  0  0  0  0  0
    7.9447    1.0818   -0.8702 H   0  0  0  0  0  0  0  0  0  0  0  0
    9.1915   -1.1141    0.8721 H   0  0  0  0  0  0  0  0  0  0  0  0
    9.1956   -1.1007   -0.8889 H   0  0  0  0  0  0  0  0  0  0  0  0
   10.0857    0.1299    0.0028 H   0  0  0  0  0  0  0  0  0  0  0  0
   -6.0764   -0.3183    2.1137 H   0  0  0  0  0  0  0  0  0  0  0  0
   -7.2265   -1.3563    1.2457 H   0  0  0  0  0  0  0  0  0  0  0  0
   -5.4991   -1.7441    1.2189 H   0  0  0  0  0  0  0  0  0  0  0  0
   -7.0485    1.5586   -0.8705 H   0  0  0  0  0  0  0  0  0  0  0  0
   -8.1140    0.4516    0.0235 H   0  0  0  0  0  0  0  0  0  0  0  0
   -7.0407    1.5599    0.9068 H   0  0  0  0  0  0  0  0  0  0  0  0
   -5.5114   -1.7479   -1.1889 H   0  0  0  0  0  0  0  0  0  0  0  0
   -7.2367   -1.3508   -1.2118 H   0  0  0  0  0  0  0  0  0  0  0  0
   -6.0825   -0.3199   -2.0833 H   0  0  0  0  0  0  0  0  0  0  0  0
  1  2  1  0
 16  1  1  6
  1 17  1  0
  1 18  1  0
  2  3  1  0
  2 19  1  0
  2 20  1  0
  3  4  1  0
  3 21  1  0
  3 22  1  0
  4  5  1  0
  4 23  1  0
  4 24  1  0
  5  6  1  0
  5 25  1  0
  5 26  1  0
  6  7  1  0
  6 27  1  0
  6 28  1  0
  7  8  1  0
  7 29  1  0
  7 30  1  0
  8  9  1  0
  8 31  1  0
  8 32  1  0
  9 10  1  0
  9 33  1  0
  9 34  1  0
 10 11  1  0
 10 35  1  0
 10 36  1  0
 11 12  1  0
 11 37  1  0
 11 38  1  0
 12 39  1  0
 12 40  1  0
 12 41  1  0
 13 16  1  0
 13 42  1  0
 13 43  1  0
 13 44  1  0
 14 16  1  0
 14 45  1  0
 14 46  1  0
 14 47  1  0
 15 16  1  0
 15 48  1  0
 15 49  1  0
 15 50  1  0
M  CHG  1  16   1
M  END
