
     RDKit          3D

 12 12  0  0  0  0  0  0  0  0999 V2000
    1.2836   -1.6049    0.0264 C   0  0  0  0  0  0  0  0  0  0  0  0
    1.6774   -0.3042    0.0177 C   0  0  0  0  0  0  0  0  0  0  0  0
    0.5930    0.5104    0.0006 O   0  0  0  0  0  0  0  0  0  0  0  0
   -0.4778   -0.2823   -0.0010 C   0  0  0  0  0  0  0  0  0  0  0  0
   -0.1341   -1.5959    0.0141 C   0  0  0  0  0  0  0  0  0  0  0  0
   -2.1281    0.5341   -0.0249 Br  0  0  0  0  0  0  0  0  0  0  0  0
    3.0155    0.2755    0.0264 C   0  0  0  0  0  0  0  0  0  0  0  0
    4.0124   -0.4052    0.0361 O   0  0  0  0  0  0  0  0  0  0  0  0
    2.9993    1.5981    0.0238 O   0  0  0  0  0  0  0  0  0  0  0  0
    1.9287   -2.4682    0.0400 H   0  0  0  0  0  0  0  0  0  0  0  0
   -0.8035   -2.4394    0.0160 H   0  0  0  0  0  0  0  0  0  0  0  0
    3.9062    1.9403    0.0308 H   0  0  0  0  0  0  0  0  0  0  0  0
  8  7  2  0
  1  5  1  0
  1  2  2  0
  7  2  1  0
  7  9  1  0
  5  4  2  0
  2  3  1  0
  4  3  1  0
  4  6  1  0
  1 10  1  0
  5 11  1  0
  9 12  1  0
M  END
