
     RDKit          3D

 30 30  0  0  0  0  0  0  0  0999 V2000
   39.4542   12.7583  -20.3183 O   0  0  0  0  0  0  0  0  0  0  0  0
   39.0964   13.1380  -21.6703 S   0  0  1  0  0  0  0  0  0  0  0  0
   39.6941   14.3239  -22.2633 O   0  0  0  0  0  0  0  0  0  0  0  0
   39.5748   11.9234  -22.7164 N   0  0  0  0  0  0  0  0  0  0  0  0
   39.1541   10.6070  -22.5812 C   0  0  0  0  0  0  0  0  0  0  0  0
   38.4739   10.2534  -21.6364 O   0  0  0  0  0  0  0  0  0  0  0  0
   39.5569    9.8079  -23.5863 N   0  0  0  0  0  0  0  0  0  0  0  0
   39.3002    8.3882  -23.6092 C   0  0  0  0  0  0  0  0  0  0  0  0
   40.4721    7.5479  -23.1251 C   0  0  0  0  0  0  0  0  0  0  0  0
   40.8328    7.9092  -21.3741 S   0  0  0  0  0  0  0  0  0  0  0  0
   37.3590   13.2357  -21.8044 C   0  0  0  0  0  0  0  0  0  0  0  0
   36.7976   13.8725  -22.9104 C   0  0  0  0  0  0  0  0  0  0  0  0
   35.4296   13.9566  -23.0357 C   0  0  0  0  0  0  0  0  0  0  0  0
   34.5816   13.4091  -22.0544 C   0  0  0  0  0  0  0  0  0  0  0  0
   33.2361   13.4582  -22.1968 N   0  0  0  0  0  0  0  0  0  0  0  0
   35.1687   12.7790  -20.9424 C   0  0  0  0  0  0  0  0  0  0  0  0
   36.5382   12.6895  -20.8223 C   0  0  0  0  0  0  0  0  0  0  0  0
   40.0172   12.2442  -23.5690 H   0  0  0  0  0  0  0  0  0  0  0  0
   40.1625   10.1781  -24.3015 H   0  0  0  0  0  0  0  0  0  0  0  0
   38.4078    8.1768  -23.0220 H   0  0  0  0  0  0  0  0  0  0  0  0
   39.0800    8.0982  -24.6373 H   0  0  0  0  0  0  0  0  0  0  0  0
   40.2201    6.4939  -23.2398 H   0  0  0  0  0  0  0  0  0  0  0  0
   41.3562    7.7551  -23.7281 H   0  0  0  0  0  0  0  0  0  0  0  0
   41.8857    7.0927  -21.2565 H   0  0  0  0  0  0  0  0  0  0  0  0
   37.4217   14.3082  -23.6800 H   0  0  0  0  0  0  0  0  0  0  0  0
   36.9617   12.2005  -19.9570 H   0  0  0  0  0  0  0  0  0  0  0  0
   35.0011   14.4514  -23.8980 H   0  0  0  0  0  0  0  0  0  0  0  0
   32.6522   13.2548  -21.4039 H   0  0  0  0  0  0  0  0  0  0  0  0
   32.8391   14.0932  -22.8678 H   0  0  0  0  0  0  0  0  0  0  0  0
   34.5377   12.3565  -20.1705 H   0  0  0  0  0  0  0  0  0  0  0  0
  1  2  2  0
  2  3  2  0
  2  4  1  6
  2 11  1  0
  4  5  1  0
  5  6  2  0
  5  7  1  0
  7  8  1  0
  8  9  1  0
  9 10  1  0
 11 12  2  0
 11 17  1  0
 12 13  1  0
 13 14  2  0
 14 15  1  0
 14 16  1  0
 16 17  2  0
  4 18  1  0
  7 19  1  0
  8 20  1  0
  8 21  1  0
  9 22  1  0
  9 23  1  0
 10 24  1  0
 12 25  1  0
 17 26  1  0
 13 27  1  0
 15 28  1  0
 15 29  1  0
 16 30  1  0
M  END
