
     RDKit          3D

 28 30  0  0  0  0  0  0  0  0999 V2000
   -0.1183    0.5330    0.0736 C   0  0  0  0  0  0  0  0  0  0  0  0
   -1.1849   -0.4044    0.0161 C   0  0  0  0  0  0  0  0  0  0  0  0
   -2.4637    0.1685   -0.1157 C   0  0  0  0  0  0  0  0  0  0  0  0
    3.9223   -0.5140    0.1360 N   0  0  0  0  0  0  0  0  0  0  0  0
   -1.3827   -1.8254    0.0028 C   0  0  0  0  0  0  0  0  0  0  0  0
   -2.7236   -2.0359   -0.1142 C   0  0  0  0  0  0  0  0  0  0  0  0
   -0.4124    1.8326   -0.0372 N   0  0  0  0  0  0  0  0  0  0  0  0
   -1.6751    2.2218   -0.1696 C   0  0  0  0  0  0  0  0  0  0  0  0
    1.1901    0.2082    0.2026 N   0  0  0  0  0  0  0  0  0  0  0  0
    1.6559   -1.0195    0.8227 C   0  0  0  0  0  0  0  0  0  0  0  0
    2.2221    1.2324    0.1486 C   0  0  0  0  0  0  0  0  0  0  0  0
    3.4586    0.6819   -0.5411 C   0  0  0  0  0  0  0  0  0  0  0  0
    2.8966   -1.5382    0.1187 C   0  0  0  0  0  0  0  0  0  0  0  0
   -2.7526    1.4689   -0.2019 N   0  0  0  0  0  0  0  0  0  0  0  0
   -3.3706   -0.8325   -0.1794 N   0  0  0  0  0  0  0  0  0  0  0  0
   -0.6520   -2.6141    0.0498 H   0  0  0  0  0  0  0  0  0  0  0  0
   -3.2736   -2.9611   -0.1621 H   0  0  0  0  0  0  0  0  0  0  0  0
   -1.8293    3.2932   -0.2513 H   0  0  0  0  0  0  0  0  0  0  0  0
    1.8933   -0.8241    1.8759 H   0  0  0  0  0  0  0  0  0  0  0  0
    0.8871   -1.7803    0.8063 H   0  0  0  0  0  0  0  0  0  0  0  0
    1.8524    2.0943   -0.3979 H   0  0  0  0  0  0  0  0  0  0  0  0
    2.4775    1.5648    1.1624 H   0  0  0  0  0  0  0  0  0  0  0  0
    4.2411    1.4420   -0.5098 H   0  0  0  0  0  0  0  0  0  0  0  0
    3.2162    0.5053   -1.6010 H   0  0  0  0  0  0  0  0  0  0  0  0
    2.6188   -1.8534   -0.8993 H   0  0  0  0  0  0  0  0  0  0  0  0
    3.2534   -2.4228    0.6488 H   0  0  0  0  0  0  0  0  0  0  0  0
   -4.3656   -0.7057   -0.2713 H   0  0  0  0  0  0  0  0  0  0  0  0
    4.7582   -0.8589   -0.3167 H   0  0  0  0  0  0  0  0  0  0  0  0
 12  4  1  0
 12 11  1  0
 10  9  1  0
 10 13  1  0
  4 13  1  0
  7  8  2  0
  7  1  1  0
  9 11  1  0
  9  1  1  0
  8 14  1  0
  1  2  2  0
 14  3  2  0
  2  3  1  0
  2  5  1  0
  3 15  1  0
  5  6  2  0
 15  6  1  0
  4 28  1  0
  5 16  1  0
  6 17  1  0
  8 18  1  0
 10 19  1  0
 10 20  1  0
 11 21  1  0
 11 22  1  0
 12 23  1  0
 12 24  1  0
 13 25  1  0
 13 26  1  0
 15 27  1  0
M  END
