
     RDKit          3D

 15 14  0  0  0  0  0  0  0  0999 V2000
   -2.2533   -0.0223    0.0215 C   0  0  0  0  0  0  0  0  0  0  0  0
   -1.0907   -0.0089    0.0165 N   0  0  0  0  0  0  0  0  0  0  0  0
    0.3459    0.0084    0.0094 C   0  0  1  0  0  0  0  0  0  0  0  0
    0.8259    0.0115    1.4598 C   0  0  0  0  0  0  0  0  0  0  0  0
    0.8324   -1.2418   -0.7206 C   0  0  0  0  0  0  0  0  0  0  0  0
    0.8007    1.2735   -0.7155 C   0  0  0  0  0  0  0  0  0  0  0  0
    0.4827   -0.8773    1.9893 H   0  0  0  0  0  0  0  0  0  0  0  0
    1.9154    0.0214    1.4815 H   0  0  0  0  0  0  0  0  0  0  0  0
    0.4670    0.8934    1.9904 H   0  0  0  0  0  0  0  0  0  0  0  0
    0.4950   -1.2486   -1.7570 H   0  0  0  0  0  0  0  0  0  0  0  0
    1.9218   -1.2615   -0.7180 H   0  0  0  0  0  0  0  0  0  0  0  0
    0.4738   -2.1470   -0.2311 H   0  0  0  0  0  0  0  0  0  0  0  0
    0.4212    2.1676   -0.2211 H   0  0  0  0  0  0  0  0  0  0  0  0
    1.8896    1.3196   -0.7159 H   0  0  0  0  0  0  0  0  0  0  0  0
    0.4600    1.2770   -1.7509 H   0  0  0  0  0  0  0  0  0  0  0  0
  1  2  3  0
  3  2  1  1
  3  4  1  0
  3  5  1  0
  3  6  1  0
  4  7  1  0
  4  8  1  0
  4  9  1  0
  5 10  1  0
  5 11  1  0
  5 12  1  0
  6 13  1  0
  6 14  1  0
  6 15  1  0
M  CHG  1   2   1
M  END
