
     RDKit          3D

 28 29  0  0  0  0  0  0  0  0999 V2000
   -0.6064   -1.0835    0.1063 C   0  0  0  0  0  0  0  0  0  0  0  0
   -2.2324    0.2183   -0.1297 C   0  0  0  0  0  0  0  0  0  0  0  0
   -3.4440    0.8884   -0.3807 C   0  0  0  0  0  0  0  0  0  0  0  0
   -2.4224    2.8047    0.3831 C   0  0  0  0  0  0  0  0  0  0  0  0
    2.0750    0.9271   -0.1707 C   0  0  0  0  0  0  0  0  0  0  0  0
   -1.1988    0.9844    0.3832 C   0  0  0  0  0  0  0  0  0  0  0  0
    3.4634    1.3253    0.3118 C   0  0  0  0  0  0  0  0  0  0  0  0
    4.3418    1.7766   -0.8384 C   0  0  0  0  0  0  0  0  0  0  0  0
   -0.1471    0.1266    0.5428 N   0  0  0  0  0  0  0  0  0  0  0  0
   -1.2386    2.2847    0.6583 N   0  0  0  0  0  0  0  0  0  0  0  0
   -1.8363   -1.0837   -0.2958 N   0  0  0  0  0  0  0  0  0  0  0  0
   -3.4988    2.1967   -0.1086 N   0  0  0  0  0  0  0  0  0  0  0  0
   -4.5259    0.2733   -0.8601 N   0  0  0  0  0  0  0  0  0  0  0  0
    5.6155    2.1208   -0.3375 O   0  0  0  0  0  0  0  0  0  0  0  0
    0.4705   -2.5929    0.1066 Br  0  0  0  0  0  0  0  0  0  0  0  0
   -2.5365    3.8652    0.5800 H   0  0  0  0  0  0  0  0  0  0  0  0
    1.6173   -0.3337    1.5354 H   0  0  0  0  0  0  0  0  0  0  0  0
    1.0615    1.3183    1.6980 H   0  0  0  0  0  0  0  0  0  0  0  0
    2.1523    0.1115   -0.8956 H   0  0  0  0  0  0  0  0  0  0  0  0
    1.6053    1.7663   -0.6912 H   0  0  0  0  0  0  0  0  0  0  0  0
    3.3811    2.1314    1.0473 H   0  0  0  0  0  0  0  0  0  0  0  0
    3.9348    0.4776    0.8187 H   0  0  0  0  0  0  0  0  0  0  0  0
    4.4085    0.9696   -1.5807 H   0  0  0  0  0  0  0  0  0  0  0  0
    3.8670    2.6285   -1.3433 H   0  0  0  0  0  0  0  0  0  0  0  0
   -5.3413    0.8087   -1.1042 H   0  0  0  0  0  0  0  0  0  0  0  0
   -4.4866   -0.6863   -1.1565 H   0  0  0  0  0  0  0  0  0  0  0  0
    6.1614    2.4020   -1.0770 H   0  0  0  0  0  0  0  0  0  0  0  0
    1.1835    0.5020    0.9862 C   0  0  0  0  0  0  0  0  0  0  0  0
 14  8  1  0
 13  3  1  0
  7  8  1  0
  7  5  1  0
  3 12  1  0
  3  2  2  0
 12  4  2  0
 11  2  1  0
 11  1  2  0
  2  6  1  0
  4 10  1  0
  1 15  1  0
  1  9  1  0
  6 10  2  0
  6  9  1  0
  5 28  1  0
  9 28  1  0
  4 16  1  0
 28 17  1  0
 28 18  1  0
  5 19  1  0
  5 20  1  0
  7 21  1  0
  7 22  1  0
  8 23  1  0
  8 24  1  0
 13 25  1  0
 13 26  1  0
 14 27  1  0
M  END
