
     RDKit          3D

 36 38  0  0  0  0  0  0  0  0999 V2000
    3.5944    2.0350   -1.1644 C   0  0  0  0  0  0  0  0  0  0  0  0
    2.4267    1.5258   -1.7331 C   0  0  0  0  0  0  0  0  0  0  0  0
    1.8510    0.3826   -1.2287 C   0  0  0  0  0  0  0  0  0  0  0  0
    2.4383   -0.2870   -0.1426 C   0  0  0  0  0  0  0  0  0  0  0  0
    1.8764   -1.5190    0.4151 C   0  0  0  0  0  0  0  0  0  0  0  0
    0.4987   -1.9752    0.0483 C   0  0  0  0  0  0  0  0  0  0  0  0
    0.2653   -3.3283   -0.1649 C   0  0  0  0  0  0  0  0  0  0  0  0
   -1.0318   -3.7233   -0.4486 C   0  0  0  0  0  0  0  0  0  0  0  0
   -2.0345   -2.7695   -0.4751 C   0  0  0  0  0  0  0  0  0  0  0  0
   -1.7050   -1.4386   -0.2218 C   0  0  0  0  0  0  0  0  0  0  0  0
    3.6346    0.2095    0.4044 C   0  0  0  0  0  0  0  0  0  0  0  0
   -2.6103    0.8110   -0.8365 C   0  0  0  0  0  0  0  0  0  0  0  0
   -3.5848    1.8041   -0.8058 C   0  0  0  0  0  0  0  0  0  0  0  0
   -3.4431    2.9779   -1.4448 O   0  0  0  0  0  0  0  0  0  0  0  0
   -4.7499    1.5610   -0.0880 C   0  0  0  0  0  0  0  0  0  0  0  0
   -4.9244    0.3507    0.5656 C   0  0  0  0  0  0  0  0  0  0  0  0
   -3.9434   -0.6266    0.5170 C   0  0  0  0  0  0  0  0  0  0  0  0
   -2.7596   -0.4029   -0.1864 C   0  0  0  0  0  0  0  0  0  0  0  0
   -0.4562   -1.0557    0.0187 N   0  0  0  0  0  0  0  0  0  0  0  0
    2.5115   -2.2139    1.2025 O   0  0  0  0  0  0  0  0  0  0  0  0
    4.2937   -0.3700    1.4120 O   0  0  0  0  0  0  0  0  0  0  0  0
    4.2003    1.3905   -0.1041 C   0  0  0  0  0  0  0  0  0  0  0  0
    5.3341    1.8972    0.4191 O   0  0  0  0  0  0  0  0  0  0  0  0
    4.0452    2.9390   -1.5554 H   0  0  0  0  0  0  0  0  0  0  0  0
    1.9764    2.0373   -2.5725 H   0  0  0  0  0  0  0  0  0  0  0  0
    0.9511   -0.0039   -1.6793 H   0  0  0  0  0  0  0  0  0  0  0  0
    1.0720   -4.0465   -0.1253 H   0  0  0  0  0  0  0  0  0  0  0  0
   -1.2593   -4.7619   -0.6463 H   0  0  0  0  0  0  0  0  0  0  0  0
   -3.0551   -3.0475   -0.6999 H   0  0  0  0  0  0  0  0  0  0  0  0
   -2.6058    3.0195   -1.9215 H   0  0  0  0  0  0  0  0  0  0  0  0
   -5.5154    2.3257   -0.0519 H   0  0  0  0  0  0  0  0  0  0  0  0
   -5.8338    0.1731    1.1235 H   0  0  0  0  0  0  0  0  0  0  0  0
   -4.0806   -1.5622    1.0432 H   0  0  0  0  0  0  0  0  0  0  0  0
    3.8571   -1.2266    1.6090 H   0  0  0  0  0  0  0  0  0  0  0  0
    5.6550    1.3379    1.1369 H   0  0  0  0  0  0  0  0  0  0  0  0
   -1.5081    1.0588   -1.5667 F   0  0  0  0  0  0  0  0  0  0  0  0
 36 12  1  0
 14 13  1  0
 20  5  2  0
 12 13  2  0
 12 18  1  0
 21 11  1  0
 13 15  1  0
  5  6  1  0
  5  4  1  0
  7  8  2  0
  7  6  1  0
  8  9  1  0
  6 19  2  0
 19 10  1  0
  9 10  2  0
 10 18  1  0
 18 17  2  0
 11  4  2  0
 11 22  1  0
 15 16  2  0
  4  3  1  0
 23 22  1  0
 17 16  1  0
 22  1  2  0
  3  2  2  0
  1  2  1  0
  1 24  1  0
  2 25  1  0
  3 26  1  0
  7 27  1  0
  8 28  1  0
  9 29  1  0
 14 30  1  0
 15 31  1  0
 16 32  1  0
 17 33  1  0
 21 34  1  0
 23 35  1  0
M  END
