
     RDKit          3D

 33 35  0  0  0  0  0  0  0  0999 V2000
   -1.1349   -3.4262    0.0296 O   0  0  0  0  0  0  0  0  0  0  0  0
   -1.2668   -2.2180    0.0298 C   0  0  0  0  0  0  0  0  0  0  0  0
   -2.4899   -1.4188    0.0617 C   0  0  0  0  0  0  0  0  0  0  0  0
   -2.0968   -0.0874    0.0541 C   0  0  0  0  0  0  0  0  0  0  0  0
   -3.8330   -1.7681    0.0941 C   0  0  0  0  0  0  0  0  0  0  0  0
   -4.7669   -0.7471    0.1097 C   0  0  0  0  0  0  0  0  0  0  0  0
   -4.3552    0.5859    0.0876 C   0  0  0  0  0  0  0  0  0  0  0  0
   -3.0119    0.9587    0.0563 C   0  0  0  0  0  0  0  0  0  0  0  0
   -2.5609    2.3828    0.0870 C   0  0  0  0  0  0  0  0  0  0  0  0
   -1.5254    2.7048    0.6494 O   0  0  0  0  0  0  0  0  0  0  0  0
   -3.3736    3.2575   -0.5220 N   0  0  0  0  0  0  0  0  0  0  0  0
   -0.1960   -1.2009   -0.0057 C   0  0  0  0  0  0  0  0  0  0  0  0
   -0.7549    0.0513    0.0095 O   0  0  0  0  0  0  0  0  0  0  0  0
    1.1233   -1.4365   -0.0565 C   0  0  0  0  0  0  0  0  0  0  0  0
    2.2329   -0.5130   -0.0680 C   0  0  0  0  0  0  0  0  0  0  0  0
    3.5340   -0.9747   -0.3753 C   0  0  0  0  0  0  0  0  0  0  0  0
    3.8049   -2.2407   -0.7313 O   0  0  0  0  0  0  0  0  0  0  0  0
    4.6269   -0.1209   -0.3195 C   0  0  0  0  0  0  0  0  0  0  0  0
    4.4574    1.2117    0.0285 C   0  0  0  0  0  0  0  0  0  0  0  0
    5.5468    1.9881    0.0626 O   0  0  0  0  0  0  0  0  0  0  0  0
    3.1789    1.6998    0.3182 C   0  0  0  0  0  0  0  0  0  0  0  0
    2.1011    0.8471    0.2656 C   0  0  0  0  0  0  0  0  0  0  0  0
   -4.1354   -2.8071    0.1086 H   0  0  0  0  0  0  0  0  0  0  0  0
   -5.8234   -0.9726    0.1431 H   0  0  0  0  0  0  0  0  0  0  0  0
   -5.1167    1.3547    0.1167 H   0  0  0  0  0  0  0  0  0  0  0  0
   -4.1500    2.9695   -1.0915 H   0  0  0  0  0  0  0  0  0  0  0  0
   -3.1315    4.2352   -0.5380 H   0  0  0  0  0  0  0  0  0  0  0  0
    1.3364   -2.5012   -0.0697 H   0  0  0  0  0  0  0  0  0  0  0  0
    3.0138   -2.7311   -0.9755 H   0  0  0  0  0  0  0  0  0  0  0  0
    5.6119   -0.4989   -0.5638 H   0  0  0  0  0  0  0  0  0  0  0  0
    5.3131    2.8921    0.3037 H   0  0  0  0  0  0  0  0  0  0  0  0
    3.0343    2.7393    0.5872 H   0  0  0  0  0  0  0  0  0  0  0  0
    1.1294    1.2483    0.5121 H   0  0  0  0  0  0  0  0  0  0  0  0
  7  6  2  0
  7  8  1  0
  6  5  1  0
 10  9  2  0
  9  8  1  0
  9 11  1  0
  8  4  2  0
  5  3  2  0
  4  3  1  0
  4 13  1  0
  3  2  1  0
 13 12  1  0
  2  1  2  0
  2 12  1  0
 12 14  2  0
 17 16  1  0
 14 15  1  0
 16 15  2  0
 16 18  1  0
 15 22  1  0
 18 19  2  0
 22 21  2  0
 19 21  1  0
 19 20  1  0
  5 23  1  0
  6 24  1  0
  7 25  1  0
 11 26  1  0
 11 27  1  0
 14 28  1  0
 17 29  1  0
 18 30  1  0
 20 31  1  0
 21 32  1  0
 22 33  1  0
M  END
