
     RDKit          3D

 67 71  0  0  0  0  0  0  0  0999 V2000
   -7.8542   -3.2707   -1.1073 F   0  0  0  0  0  0  0  0  0  0  0  0
   -6.7254   -3.1599   -0.3977 C   0  0  0  0  0  0  0  0  0  0  0  0
   -6.4019   -4.1061    0.5490 C   0  0  0  0  0  0  0  0  0  0  0  0
   -5.2178   -3.9528    1.2586 C   0  0  0  0  0  0  0  0  0  0  0  0
   -4.3878   -2.8710    1.0146 C   0  0  0  0  0  0  0  0  0  0  0  0
   -4.7122   -1.9041    0.0612 C   0  0  0  0  0  0  0  0  0  0  0  0
   -3.7999   -0.7332   -0.2139 C   0  0  2  0  0  0  0  0  0  0  0  0
   -2.5782   -1.2228   -0.9974 C   0  0  0  0  0  0  0  0  0  0  0  0
   -1.5521   -0.1517   -1.3390 C   0  0  0  0  0  0  0  0  0  0  0  0
   -0.9119    0.4901   -0.1001 C   0  0  1  0  0  0  0  0  0  0  0  0
    0.4206    0.9372   -0.4000 N   0  0  0  0  0  0  0  0  0  0  0  0
    1.2358    1.3090    0.6300 C   0  0  0  0  0  0  0  0  0  0  0  0
    0.9118    1.1022    1.7942 O   0  0  0  0  0  0  0  0  0  0  0  0
    2.4230    1.9056    0.2976 N   0  0  0  0  0  0  0  0  0  0  0  0
    3.0453    1.7683   -1.0104 C   0  0  0  0  0  0  0  0  0  0  0  0
    3.9316    0.5276   -1.0629 C   0  0  0  0  0  0  0  0  0  0  0  0
    4.9696    0.5875    0.0562 C   0  0  1  0  0  0  0  0  0  0  0  0
    4.3305    0.8397    1.4206 C   0  0  0  0  0  0  0  0  0  0  0  0
    3.4178    2.0600    1.3472 C   0  0  0  0  0  0  0  0  0  0  0  0
    5.8452   -0.5754    0.0601 N   0  0  0  0  0  0  0  0  0  0  0  0
    5.4365   -1.8781    0.2672 C   0  0  0  0  0  0  0  0  0  0  0  0
    4.3062   -2.2697    0.4839 O   0  0  0  0  0  0  0  0  0  0  0  0
    6.5713   -2.6505    0.1797 N   0  0  0  0  0  0  0  0  0  0  0  0
    7.6688   -1.8709   -0.0730 C   0  0  0  0  0  0  0  0  0  0  0  0
    8.9085   -2.2621   -0.2165 N   0  0  0  0  0  0  0  0  0  0  0  0
    9.7910   -1.2836   -0.4556 C   0  0  0  0  0  0  0  0  0  0  0  0
    9.4488    0.0552   -0.5498 C   0  0  0  0  0  0  0  0  0  0  0  0
    8.1184    0.4544   -0.3931 C   0  0  0  0  0  0  0  0  0  0  0  0
    7.2083   -0.5474   -0.1484 C   0  0  0  0  0  0  0  0  0  0  0  0
   -1.7647    1.6549    0.4057 C   0  0  0  0  0  0  0  0  0  0  0  0
   -1.3861    2.8058    0.2928 O   0  0  0  0  0  0  0  0  0  0  0  0
   -2.9658    1.3338    0.9528 N   0  0  0  0  0  0  0  0  0  0  0  0
   -3.7914    2.3995    1.4664 C   0  0  0  0  0  0  0  0  0  0  0  0
   -4.8547    2.8456    0.4858 C   0  0  1  0  0  0  0  0  0  0  0  0
   -4.3482    3.1736   -0.7071 F   0  0  0  0  0  0  0  0  0  0  0  0
   -5.7748    1.8927    0.2626 F   0  0  0  0  0  0  0  0  0  0  0  0
   -5.5098    3.9154    0.9540 F   0  0  0  0  0  0  0  0  0  0  0  0
   -3.4302   -0.0386    1.1075 C   0  0  0  0  0  0  0  0  0  0  0  0
   -5.8946   -2.0771   -0.6383 C   0  0  0  0  0  0  0  0  0  0  0  0
   -6.2676   -1.1946   -1.5745 F   0  0  0  0  0  0  0  0  0  0  0  0
   -7.0634   -4.9442    0.7246 H   0  0  0  0  0  0  0  0  0  0  0  0
   -4.9443   -4.6868    2.0038 H   0  0  0  0  0  0  0  0  0  0  0  0
   -3.4688   -2.7779    1.5795 H   0  0  0  0  0  0  0  0  0  0  0  0
   -4.3324   -0.0054   -0.8287 H   0  0  0  0  0  0  0  0  0  0  0  0
   -2.0798   -2.0142   -0.4276 H   0  0  0  0  0  0  0  0  0  0  0  0
   -2.9219   -1.6818   -1.9267 H   0  0  0  0  0  0  0  0  0  0  0  0
   -0.7569   -0.6275   -1.9159 H   0  0  0  0  0  0  0  0  0  0  0  0
   -1.9929    0.6133   -1.9849 H   0  0  0  0  0  0  0  0  0  0  0  0
   -0.8352   -0.2707    0.6815 H   0  0  0  0  0  0  0  0  0  0  0  0
    0.5432    1.3664   -1.3025 H   0  0  0  0  0  0  0  0  0  0  0  0
    2.3112    1.7407   -1.8119 H   0  0  0  0  0  0  0  0  0  0  0  0
    3.6421    2.6668   -1.1891 H   0  0  0  0  0  0  0  0  0  0  0  0
    3.3076   -0.3619   -0.9624 H   0  0  0  0  0  0  0  0  0  0  0  0
    4.4331    0.4738   -2.0315 H   0  0  0  0  0  0  0  0  0  0  0  0
    5.6237    1.4388   -0.1531 H   0  0  0  0  0  0  0  0  0  0  0  0
    3.7524   -0.0281    1.7418 H   0  0  0  0  0  0  0  0  0  0  0  0
    5.1106    1.0078    2.1665 H   0  0  0  0  0  0  0  0  0  0  0  0
    4.0067    2.9529    1.1187 H   0  0  0  0  0  0  0  0  0  0  0  0
    2.9307    2.2344    2.3021 H   0  0  0  0  0  0  0  0  0  0  0  0
    6.5702   -3.6535    0.2845 H   0  0  0  0  0  0  0  0  0  0  0  0
   10.8224   -1.5903   -0.5771 H   0  0  0  0  0  0  0  0  0  0  0  0
   10.2161    0.7912   -0.7437 H   0  0  0  0  0  0  0  0  0  0  0  0
    7.8387    1.4969   -0.4615 H   0  0  0  0  0  0  0  0  0  0  0  0
   -4.2836    2.0769    2.3854 H   0  0  0  0  0  0  0  0  0  0  0  0
   -3.1719    3.2605    1.7143 H   0  0  0  0  0  0  0  0  0  0  0  0
   -4.3084   -0.0059    1.7501 H   0  0  0  0  0  0  0  0  0  0  0  0
   -2.6860   -0.6228    1.6555 H   0  0  0  0  0  0  0  0  0  0  0  0
  2  1  1  0
  3  2  2  0
  2 39  1  0
  4  3  1  0
  3 41  1  0
  4  5  2  0
  4 42  1  0
  5  6  1  0
  5 43  1  0
  6  7  1  0
  6 39  2  0
 38  7  1  0
  8  7  1  0
  7 44  1  6
  9  8  1  0
  8 45  1  0
  8 46  1  0
 10  9  1  0
  9 47  1  0
  9 48  1  0
 11 10  1  0
 10 30  1  0
 10 49  1  1
 12 11  1  0
 11 50  1  0
 13 12  2  0
 14 12  1  0
 15 14  1  0
 14 19  1  0
 15 16  1  0
 15 51  1  0
 15 52  1  0
 16 17  1  0
 16 53  1  0
 16 54  1  0
 20 17  1  0
 17 18  1  0
 17 55  1  6
 19 18  1  0
 18 56  1  0
 18 57  1  0
 19 58  1  0
 19 59  1  0
 21 20  1  0
 20 29  1  0
 22 21  2  0
 21 23  1  0
 23 24  1  0
 23 60  1  0
 24 29  2  0
 24 25  1  0
 25 26  2  0
 26 27  1  0
 26 61  1  0
 28 27  2  0
 27 62  1  0
 29 28  1  0
 28 63  1  0
 30 31  2  0
 30 32  1  0
 38 32  1  0
 32 33  1  0
 33 34  1  0
 33 64  1  0
 33 65  1  0
 34 35  1  6
 34 36  1  0
 34 37  1  0
 38 66  1  0
 38 67  1  0
 39 40  1  0
M  END
