
     RDKit          3D

 47 48  0  0  0  0  0  0  0  0999 V2000
    2.0272   -0.0711    0.0517 N   0  0  0  0  0  0  0  0  0  0  0  0
    2.2193   -4.2461    0.4613 N   0  0  0  0  0  0  0  0  0  0  0  0
    5.4438    2.6527    1.0872 N   0  0  0  0  0  0  0  0  0  0  0  0
   -2.7168   -0.2116   -0.1008 N   0  0  0  0  0  0  0  0  0  0  0  0
   -2.5968   -3.1463   -0.3141 N   0  0  0  0  0  0  0  0  0  0  0  0
   -0.2173   -2.9246   -0.1156 C   0  0  0  0  0  0  0  0  0  0  0  0
    0.9643   -2.2370    0.0005 C   0  0  0  0  0  0  0  0  0  0  0  0
    0.9036   -0.7992    0.0091 C   0  0  0  0  0  0  0  0  0  0  0  0
   -0.3467   -0.1794   -0.0052 C   0  0  0  0  0  0  0  0  0  0  0  0
   -1.5571   -0.8791   -0.0914 C   0  0  0  0  0  0  0  0  0  0  0  0
   -1.4674   -2.3075   -0.1744 C   0  0  0  0  0  0  0  0  0  0  0  0
    2.0636    1.3738    0.0560 C   0  0  0  0  0  0  0  0  0  0  0  0
    3.4860    1.8420   -0.0352 C   0  0  0  0  0  0  0  0  0  0  0  0
    4.1795    2.2496    1.0982 C   0  0  0  0  0  0  0  0  0  0  0  0
    6.0806    2.6625   -0.0774 C   0  0  0  0  0  0  0  0  0  0  0  0
    5.4879    2.2747   -1.2708 C   0  0  0  0  0  0  0  0  0  0  0  0
    4.1679    1.8563   -1.2464 C   0  0  0  0  0  0  0  0  0  0  0  0
   -2.8326    1.2256   -0.0165 C   0  0  0  0  0  0  0  0  0  0  0  0
   -4.2975    1.6292   -0.0217 C   0  0  0  0  0  0  0  0  0  0  0  0
   -4.4441    3.1366    0.0602 C   0  0  0  0  0  0  0  0  0  0  0  0
   -6.0350    4.8484    0.1169 C   0  0  0  0  0  0  0  0  0  0  0  0
    3.3297   -2.4044   -0.1710 O   0  0  0  0  0  0  0  0  0  0  0  0
   -2.4402   -4.3496   -0.4123 O   0  0  0  0  0  0  0  0  0  0  0  0
   -3.7162   -2.6472   -0.3338 O   0  0  0  0  0  0  0  0  0  0  0  0
   -5.8100    3.4638    0.0526 O   0  0  0  0  0  0  0  0  0  0  0  0
    2.8942   -0.5891   -0.0109 H   0  0  0  0  0  0  0  0  0  0  0  0
    1.4073   -4.6727    0.8705 H   0  0  0  0  0  0  0  0  0  0  0  0
    3.0871   -4.7471    0.5609 H   0  0  0  0  0  0  0  0  0  0  0  0
   -3.5587   -0.7574   -0.1859 H   0  0  0  0  0  0  0  0  0  0  0  0
   -0.1989   -4.0026   -0.1832 H   0  0  0  0  0  0  0  0  0  0  0  0
   -0.3874    0.8974    0.0414 H   0  0  0  0  0  0  0  0  0  0  0  0
    1.4934    1.7711   -0.7905 H   0  0  0  0  0  0  0  0  0  0  0  0
    1.5979    1.7682    0.9653 H   0  0  0  0  0  0  0  0  0  0  0  0
    3.6785    2.2515    2.0619 H   0  0  0  0  0  0  0  0  0  0  0  0
    7.1118    2.9974   -0.0643 H   0  0  0  0  0  0  0  0  0  0  0  0
    6.0496    2.3069   -2.1941 H   0  0  0  0  0  0  0  0  0  0  0  0
    3.6718    1.5514   -2.1600 H   0  0  0  0  0  0  0  0  0  0  0  0
   -2.3514    1.5887    0.8982 H   0  0  0  0  0  0  0  0  0  0  0  0
   -2.3148    1.6986   -0.8587 H   0  0  0  0  0  0  0  0  0  0  0  0
   -4.7750    1.2636   -0.9351 H   0  0  0  0  0  0  0  0  0  0  0  0
   -4.8080    1.1645    0.8267 H   0  0  0  0  0  0  0  0  0  0  0  0
   -3.9594    3.5106    0.9744 H   0  0  0  0  0  0  0  0  0  0  0  0
   -3.9263    3.6103   -0.7872 H   0  0  0  0  0  0  0  0  0  0  0  0
   -5.5969    5.3780   -0.7380 H   0  0  0  0  0  0  0  0  0  0  0  0
   -7.1116    5.0156    0.1084 H   0  0  0  0  0  0  0  0  0  0  0  0
   -5.6242    5.2914    1.0323 H   0  0  0  0  0  0  0  0  0  0  0  0
    2.2589   -2.9569    0.0887 C   0  0  0  0  0  0  0  0  0  0  0  0
  1  8  1  0
  1 12  1  0
  1 26  1  0
  2 47  1  0
  2 27  1  0
  2 28  1  0
  3 15  2  0
  4 18  1  0
  4 29  1  0
  5 23  2  0
  6 11  2  0
  6 30  1  0
  7  6  1  0
  7  8  2  0
  8  9  1  0
  9 10  2  0
  9 31  1  0
 10  4  1  0
 11  5  1  0
 11 10  1  0
 47  7  1  0
 12 13  1  0
 12 32  1  0
 12 33  1  0
 13 17  1  0
 14 13  2  0
 14  3  1  0
 14 34  1  0
 15 16  1  0
 15 35  1  0
 16 36  1  0
 17 16  2  0
 17 37  1  0
 18 19  1  0
 18 38  1  0
 18 39  1  0
 19 20  1  0
 19 40  1  0
 19 41  1  0
 20 42  1  0
 20 43  1  0
 21 44  1  0
 21 45  1  0
 21 46  1  0
 22 47  2  0
 24  5  1  0
 25 21  1  0
 25 20  1  0
M  CHG  2   5   1  24  -1
M  END
