
     RDKit          3D

 25 25  0  0  0  0  0  0  0  0999 V2000
   -3.9825    0.0211    0.2187 C   0  0  0  0  0  0  0  0  0  0  0  0
   -3.4981    0.1424   -1.0765 C   0  0  0  0  0  0  0  0  0  0  0  0
   -2.1303    0.1657   -1.3081 C   0  0  0  0  0  0  0  0  0  0  0  0
   -1.2299    0.0702   -0.2504 C   0  0  0  0  0  0  0  0  0  0  0  0
   -1.7220   -0.0493    1.0485 C   0  0  0  0  0  0  0  0  0  0  0  0
   -3.0905   -0.0755    1.2782 C   0  0  0  0  0  0  0  0  0  0  0  0
    0.2523    0.0907   -0.5422 C   0  0  2  0  0  0  0  0  0  0  0  0
    1.0852   -1.4200    0.0681 P   0  0  1  0  0  0  0  0  0  0  0  0
    1.0097    1.6084    0.1188 P   0  0  1  0  0  0  0  0  0  0  0  0
    2.5392    1.3397   -0.2960 O   0  0  0  0  0  0  0  0  0  0  0  0
    0.4622    2.8004   -0.7994 O   0  0  0  0  0  0  0  0  0  0  0  0
    0.7558    1.9185    1.5402 O   0  0  0  0  0  0  0  0  0  0  0  0
    2.3782   -1.6154   -0.8511 O   0  0  0  0  0  0  0  0  0  0  0  0
    1.2894   -1.4162    1.5345 O   0  0  0  0  0  0  0  0  0  0  0  0
    0.2294   -2.6263   -0.5392 O   0  0  0  0  0  0  0  0  0  0  0  0
   -5.0491    0.0015    0.4006 H   0  0  0  0  0  0  0  0  0  0  0  0
   -4.1846    0.2178   -1.9094 H   0  0  0  0  0  0  0  0  0  0  0  0
   -1.7604    0.2584   -2.3221 H   0  0  0  0  0  0  0  0  0  0  0  0
   -1.0409   -0.1227    1.8848 H   0  0  0  0  0  0  0  0  0  0  0  0
   -3.4595   -0.1709    2.2911 H   0  0  0  0  0  0  0  0  0  0  0  0
    0.3930    0.1007   -1.6286 H   0  0  0  0  0  0  0  0  0  0  0  0
    3.1822    1.9524    0.0894 H   0  0  0  0  0  0  0  0  0  0  0  0
    0.6501    2.7365   -1.7450 H   0  0  0  0  0  0  0  0  0  0  0  0
    3.0653   -0.9499   -0.7080 H   0  0  0  0  0  0  0  0  0  0  0  0
   -0.4829   -2.9324    0.0371 H   0  0  0  0  0  0  0  0  0  0  0  0
  1  2  2  0
  1  6  1  0
  1 16  1  0
  2  3  1  0
  2 17  1  0
  3  4  2  0
  3 18  1  0
  4  5  1  0
  4  7  1  0
  5  6  2  0
  5 19  1  0
  6 20  1  0
  7  8  1  0
  7  9  1  0
  7 21  1  6
  8 13  1  6
  8 14  2  0
  8 15  1  0
  9 10  1  1
  9 11  1  0
  9 12  2  0
 10 22  1  0
 11 23  1  0
 13 24  1  0
 15 25  1  0
M  END
