
     RDKit          3D

 42 44  0  0  0  0  0  0  0  0999 V2000
   -2.6196   -1.1127   -0.7020 C   0  0  0  0  0  0  0  0  0  0  0  0
   -3.9330   -0.5552   -0.5592 C   0  0  0  0  0  0  0  0  0  0  0  0
   -5.1350   -0.9722   -1.1434 C   0  0  0  0  0  0  0  0  0  0  0  0
   -6.3102   -0.2896   -0.8881 C   0  0  0  0  0  0  0  0  0  0  0  0
   -6.2762    0.8323   -0.0395 C   0  0  0  0  0  0  0  0  0  0  0  0
   -5.1059    1.2693    0.5475 C   0  0  0  0  0  0  0  0  0  0  0  0
   -3.9336    0.5650    0.2855 C   0  0  0  0  0  0  0  0  0  0  0  0
   -2.3422    0.9054    0.8858 S   0  0  0  0  0  0  0  0  0  0  0  0
   -1.6835   -0.4449    0.0083 C   0  0  0  0  0  0  0  0  0  0  0  0
   -0.2397   -0.7735    0.1312 C   0  0  0  0  0  0  0  0  0  0  0  0
    0.4954    0.4169   -0.0922 O   0  0  0  0  0  0  0  0  0  0  0  0
    1.8341    0.3664   -0.0265 C   0  0  0  0  0  0  0  0  0  0  0  0
    2.5592   -0.7369    0.1784 C   0  0  0  0  0  0  0  0  0  0  0  0
    4.0661   -0.7112    0.2240 C   0  0  2  0  0  0  0  0  0  0  0  0
    4.5321   -1.9008   -0.6274 C   0  0  0  0  0  0  0  0  0  0  0  0
    4.7716   -1.8473   -1.8068 O   0  0  0  0  0  0  0  0  0  0  0  0
    4.5891   -3.0178    0.0807 O   0  0  0  0  0  0  0  0  0  0  0  0
    4.5558   -0.8293    1.5423 O   0  0  0  0  0  0  0  0  0  0  0  0
    4.6192    0.5876   -0.3526 C   0  0  0  0  0  0  0  0  0  0  0  0
    3.8763    1.7780    0.2198 C   0  0  1  0  0  0  0  0  0  0  0  0
    4.5225    2.9513   -0.2097 O   0  0  0  0  0  0  0  0  0  0  0  0
    2.4305    1.7387   -0.2535 C   0  0  2  0  0  0  0  0  0  0  0  0
    1.7241    2.7347    0.4449 O   0  0  0  0  0  0  0  0  0  0  0  0
   -7.6136   -0.7342   -1.4859 C   0  0  0  0  0  0  0  0  0  0  0  0
   -2.3985   -1.9786   -1.3116 H   0  0  0  0  0  0  0  0  0  0  0  0
   -5.1357   -1.8347   -1.7999 H   0  0  0  0  0  0  0  0  0  0  0  0
   -7.1954    1.3712    0.1574 H   0  0  0  0  0  0  0  0  0  0  0  0
   -8.2624   -1.1745   -0.7264 H   0  0  0  0  0  0  0  0  0  0  0  0
   -8.1573    0.1031   -1.9247 H   0  0  0  0  0  0  0  0  0  0  0  0
   -7.4633   -1.4816   -2.2634 H   0  0  0  0  0  0  0  0  0  0  0  0
   -5.1048    2.1368    1.1945 H   0  0  0  0  0  0  0  0  0  0  0  0
   -0.0098   -1.1691    1.1272 H   0  0  0  0  0  0  0  0  0  0  0  0
    0.0192   -1.5441   -0.6020 H   0  0  0  0  0  0  0  0  0  0  0  0
    2.0828   -1.6982    0.3403 H   0  0  0  0  0  0  0  0  0  0  0  0
    2.4185    1.9360   -1.3365 H   0  0  0  0  0  0  0  0  0  0  0  0
    3.9901   -1.4249    2.0450 H   0  0  0  0  0  0  0  0  0  0  0  0
    5.6855    0.6595   -0.1247 H   0  0  0  0  0  0  0  0  0  0  0  0
    4.5186    0.5868   -1.4394 H   0  0  0  0  0  0  0  0  0  0  0  0
    4.8237   -3.7630   -0.4930 H   0  0  0  0  0  0  0  0  0  0  0  0
    3.8771    1.7127    1.3171 H   0  0  0  0  0  0  0  0  0  0  0  0
    4.0850    3.7034    0.2022 H   0  0  0  0  0  0  0  0  0  0  0  0
    0.8979    2.9164   -0.0129 H   0  0  0  0  0  0  0  0  0  0  0  0
  1  2  1  0
  1  9  2  0
  2  3  2  0
  2  7  1  0
  3  4  1  0
  4  5  2  0
  4 24  1  0
  5  6  1  0
  6  7  2  0
  7  8  1  0
  8  9  1  0
  9 10  1  0
 10 11  1  0
 11 12  1  0
 12 13  2  0
 12 22  1  0
 13 14  1  0
 14 15  1  0
 14 18  1  1
 14 19  1  0
 15 16  2  0
 15 17  1  0
 19 20  1  0
 20 21  1  0
 20 22  1  0
 22 23  1  0
  1 25  1  0
  3 26  1  0
  5 27  1  0
 24 28  1  0
 24 29  1  0
 24 30  1  0
  6 31  1  0
 10 32  1  0
 10 33  1  0
 13 34  1  0
 22 35  1  6
 18 36  1  0
 19 37  1  0
 19 38  1  0
 17 39  1  0
 20 40  1  1
 21 41  1  0
 23 42  1  0
M  END
