
     RDKit          3D

 60 64  0  0  0  0  0  0  0  0999 V2000
  -10.5018   55.5787   47.7672 C   0  0  0  0  0  0  0  0  0  0  0  0
  -11.3937   54.5460   48.0343 C   0  0  0  0  0  0  0  0  0  0  0  0
  -12.5139   54.7422   48.8298 C   0  0  0  0  0  0  0  0  0  0  0  0
  -12.7514   55.9953   49.3698 C   0  0  0  0  0  0  0  0  0  0  0  0
  -11.8808   57.0476   49.1143 C   0  0  0  0  0  0  0  0  0  0  0  0
  -10.7681   56.8307   48.3175 C   0  0  0  0  0  0  0  0  0  0  0  0
   -7.9793   55.7507   47.6207 C   0  0  1  0  0  0  0  0  0  0  0  0
   -9.2870   55.3323   46.9139 C   0  0  0  0  0  0  0  0  0  0  0  0
   -7.9401   55.2854   48.9749 N   0  0  0  0  0  0  0  0  0  0  0  0
   -7.8622   56.1139   50.0392 C   0  0  0  0  0  0  0  0  0  0  0  0
   -6.7716   55.2559   46.8450 C   0  0  0  0  0  0  0  0  0  0  0  0
   -7.6425   57.3090   49.9114 O   0  0  0  0  0  0  0  0  0  0  0  0
   -6.7513   55.7568   45.6176 O   0  0  0  0  0  0  0  0  0  0  0  0
   -5.9419   54.4994   47.2759 O   0  0  0  0  0  0  0  0  0  0  0  0
  -13.8908   56.1544   50.1162 O   0  0  0  0  0  0  0  0  0  0  0  0
  -13.8663   57.0069   51.1749 C   0  0  0  0  0  0  0  0  0  0  0  0
  -14.7906   58.0439   51.2331 C   0  0  0  0  0  0  0  0  0  0  0  0
  -14.8307   58.8925   52.3317 C   0  0  0  0  0  0  0  0  0  0  0  0
  -13.9285   58.7147   53.3690 C   0  0  0  0  0  0  0  0  0  0  0  0
  -12.9971   57.6859   53.3119 C   0  0  0  0  0  0  0  0  0  0  0  0
  -12.9674   56.8336   52.2209 C   0  0  0  0  0  0  0  0  0  0  0  0
  -15.9938   58.2880   49.8083 Br  0  0  0  0  0  0  0  0  0  0  0  0
   -9.6099   55.3048   53.9248 C   0  0  0  0  0  0  0  0  0  0  0  0
   -8.1879   55.8636   53.8786 C   0  0  2  0  0  0  0  0  0  0  0  0
   -9.7741   54.2524   52.8279 C   0  0  1  0  0  0  0  0  0  0  0  0
   -7.9374   56.5048   52.5123 C   0  0  0  0  0  0  0  0  0  0  0  0
   -9.5204   54.8882   51.4595 C   0  0  0  0  0  0  0  0  0  0  0  0
   -8.0896   55.4604   51.3983 C   0  0  1  0  0  0  0  0  0  0  0  0
   -8.7706   53.1189   53.0540 C   0  0  0  0  0  0  0  0  0  0  0  0
   -7.3471   53.6798   53.0120 C   0  0  2  0  0  0  0  0  0  0  0  0
   -7.1837   54.7334   54.1082 C   0  0  0  0  0  0  0  0  0  0  0  0
   -7.0866   54.3166   51.6445 C   0  0  0  0  0  0  0  0  0  0  0  0
  -11.2081   53.5595   47.6266 H   0  0  0  0  0  0  0  0  0  0  0  0
  -13.1946   53.9250   49.0320 H   0  0  0  0  0  0  0  0  0  0  0  0
  -12.0620   58.0335   49.5235 H   0  0  0  0  0  0  0  0  0  0  0  0
  -10.0982   57.6620   48.1328 H   0  0  0  0  0  0  0  0  0  0  0  0
   -7.9263   56.8416   47.6450 H   0  0  0  0  0  0  0  0  0  0  0  0
   -9.2426   54.2711   46.6565 H   0  0  0  0  0  0  0  0  0  0  0  0
   -9.3655   55.8794   45.9727 H   0  0  0  0  0  0  0  0  0  0  0  0
   -8.1471   54.3121   49.1309 H   0  0  0  0  0  0  0  0  0  0  0  0
   -5.9911   55.4095   45.1269 H   0  0  0  0  0  0  0  0  0  0  0  0
  -15.5540   59.6954   52.3747 H   0  0  0  0  0  0  0  0  0  0  0  0
  -13.9585   59.3792   54.2214 H   0  0  0  0  0  0  0  0  0  0  0  0
  -12.2952   57.5417   54.1226 H   0  0  0  0  0  0  0  0  0  0  0  0
  -12.2529   56.0204   52.1771 H   0  0  0  0  0  0  0  0  0  0  0  0
  -10.3341   56.1156   53.7857 H   0  0  0  0  0  0  0  0  0  0  0  0
   -8.0675   56.6257   54.6541 H   0  0  0  0  0  0  0  0  0  0  0  0
  -10.7925   53.8511   52.8475 H   0  0  0  0  0  0  0  0  0  0  0  0
   -8.6475   57.3215   52.3557 H   0  0  0  0  0  0  0  0  0  0  0  0
   -6.9352   56.9421   52.4853 H   0  0  0  0  0  0  0  0  0  0  0  0
   -9.6809   54.1396   50.6779 H   0  0  0  0  0  0  0  0  0  0  0  0
  -10.2423   55.6892   51.2661 H   0  0  0  0  0  0  0  0  0  0  0  0
   -8.9557   52.6416   54.0213 H   0  0  0  0  0  0  0  0  0  0  0  0
   -8.8973   52.3450   52.2899 H   0  0  0  0  0  0  0  0  0  0  0  0
   -6.6268   52.8711   53.1653 H   0  0  0  0  0  0  0  0  0  0  0  0
   -6.1642   55.1319   54.0996 H   0  0  0  0  0  0  0  0  0  0  0  0
   -7.3410   54.2809   55.0924 H   0  0  0  0  0  0  0  0  0  0  0  0
   -7.1698   53.5485   50.8701 H   0  0  0  0  0  0  0  0  0  0  0  0
   -6.0633   54.7019   51.5961 H   0  0  0  0  0  0  0  0  0  0  0  0
   -9.8171   54.8673   54.9063 H   0  0  0  0  0  0  0  0  0  0  0  0
  1  2  2  0
  1  6  1  0
  1  8  1  0
  2  3  1  0
  2 33  1  0
  3  4  2  0
  3 34  1  0
  4  5  1  0
  4 15  1  0
  5  6  2  0
  5 35  1  0
  6 36  1  0
  7  8  1  0
  7  9  1  0
  7 11  1  0
  7 37  1  1
  8 38  1  0
  8 39  1  0
  9 10  1  0
  9 40  1  0
 10 12  2  0
 28 10  1  6
 11 13  1  0
 11 14  2  0
 13 41  1  0
 15 16  1  0
 16 17  2  0
 16 21  1  0
 17 18  1  0
 17 22  1  0
 18 19  2  0
 18 42  1  0
 19 20  1  0
 19 43  1  0
 20 21  2  0
 20 44  1  0
 21 45  1  0
 23 24  1  0
 23 25  1  0
 23 60  1  0
 23 46  1  0
 24 27  1  0
 24 31  1  0
 24 47  1  6
 25 26  1  0
 25 29  1  0
 25 48  1  6
 26 28  1  0
 26 49  1  0
 26 50  1  0
 27 28  1  0
 27 51  1  0
 27 52  1  0
 28 32  1  0
 29 30  1  0
 29 53  1  0
 29 54  1  0
 30 31  1  0
 30 32  1  0
 30 55  1  1
 31 56  1  0
 31 57  1  0
 32 58  1  0
 32 59  1  0
M  END
