
     RDKit          3D

 48 50  0  0  0  0  0  0  0  0999 V2000
   -4.0646   -1.1272   -1.8940 N   0  0  0  0  0  0  0  0  0  0  0  0
   -5.2482   -0.9690   -1.3035 C   0  0  0  0  0  0  0  0  0  0  0  0
   -5.4666   -0.4389   -0.0956 N   0  0  0  0  0  0  0  0  0  0  0  0
   -4.3992   -0.0307    0.5807 C   0  0  0  0  0  0  0  0  0  0  0  0
   -3.1080   -0.1415    0.0707 C   0  0  0  0  0  0  0  0  0  0  0  0
   -2.9949   -0.7180   -1.2230 C   0  0  0  0  0  0  0  0  0  0  0  0
   -4.5965   -0.5894    3.0072 C   0  0  0  0  0  0  0  0  0  0  0  0
    0.4529    4.1632   -0.7582 C   0  0  0  0  0  0  0  0  0  0  0  0
   -6.3327   -1.3551   -2.0024 N   0  0  0  0  0  0  0  0  0  0  0  0
   -1.8000   -0.8473   -1.8148 N   0  0  0  0  0  0  0  0  0  0  0  0
   -0.9232    0.6111    1.3125 C   0  0  0  0  0  0  0  0  0  0  0  0
   -1.9478    0.2751    0.7697 C   0  0  0  0  0  0  0  0  0  0  0  0
    6.1530   -2.1550   -1.2491 C   0  0  0  0  0  0  0  0  0  0  0  0
    5.9160   -2.4780    0.9788 C   0  0  0  0  0  0  0  0  0  0  0  0
    5.1714   -1.1783   -1.2673 C   0  0  0  0  0  0  0  0  0  0  0  0
    4.9276   -1.5120    1.0695 C   0  0  0  0  0  0  0  0  0  0  0  0
    3.4965    1.2773   -0.9307 C   0  0  0  0  0  0  0  0  0  0  0  0
    2.5154    2.2571   -0.8964 C   0  0  0  0  0  0  0  0  0  0  0  0
    2.4425    0.1505    0.8902 C   0  0  0  0  0  0  0  0  0  0  0  0
   -4.6400    0.5180    1.9543 C   0  0  0  0  0  0  0  0  0  0  0  0
    0.3296    1.0006    1.9500 C   0  0  0  0  0  0  0  0  0  0  0  0
    6.5297   -2.8047   -0.1532 N   0  0  0  0  0  0  0  0  0  0  0  0
    0.4966    3.0776    0.1475 O   0  0  0  0  0  0  0  0  0  0  0  0
    4.5275   -0.8291   -0.0796 C   0  0  0  0  0  0  0  0  0  0  0  0
    3.4825    0.2075   -0.0425 C   0  0  0  0  0  0  0  0  0  0  0  0
    1.4514    1.1114    0.9458 C   0  0  0  0  0  0  0  0  0  0  0  0
    1.4869    2.1811    0.0383 C   0  0  0  0  0  0  0  0  0  0  0  0
   -4.7859   -0.1807    3.9996 H   0  0  0  0  0  0  0  0  0  0  0  0
   -5.3521   -1.3494    2.8074 H   0  0  0  0  0  0  0  0  0  0  0  0
   -3.6219   -1.0781    3.0281 H   0  0  0  0  0  0  0  0  0  0  0  0
    1.3403    4.7957   -0.6805 H   0  0  0  0  0  0  0  0  0  0  0  0
    0.3482    3.8245   -1.7918 H   0  0  0  0  0  0  0  0  0  0  0  0
   -0.4215    4.7510   -0.4913 H   0  0  0  0  0  0  0  0  0  0  0  0
   -6.2083   -1.9136   -2.8285 H   0  0  0  0  0  0  0  0  0  0  0  0
   -7.2177   -1.4179   -1.5305 H   0  0  0  0  0  0  0  0  0  0  0  0
   -0.9531   -0.6825   -1.2989 H   0  0  0  0  0  0  0  0  0  0  0  0
   -1.7293   -1.3639   -2.6743 H   0  0  0  0  0  0  0  0  0  0  0  0
    6.6551   -2.4268   -2.1712 H   0  0  0  0  0  0  0  0  0  0  0  0
    6.2293   -3.0091    1.8709 H   0  0  0  0  0  0  0  0  0  0  0  0
    4.9073   -0.7135   -2.2080 H   0  0  0  0  0  0  0  0  0  0  0  0
    4.4953   -1.2899    2.0362 H   0  0  0  0  0  0  0  0  0  0  0  0
    4.2934    1.3764   -1.6566 H   0  0  0  0  0  0  0  0  0  0  0  0
    2.5739    3.0739   -1.6024 H   0  0  0  0  0  0  0  0  0  0  0  0
    2.3878   -0.6798    1.5842 H   0  0  0  0  0  0  0  0  0  0  0  0
   -3.8940    1.2778    2.1911 H   0  0  0  0  0  0  0  0  0  0  0  0
   -5.6182    1.0009    1.9699 H   0  0  0  0  0  0  0  0  0  0  0  0
    0.1919    1.9454    2.4829 H   0  0  0  0  0  0  0  0  0  0  0  0
    0.5987    0.2606    2.7079 H   0  0  0  0  0  0  0  0  0  0  0  0
  2  1  2  0
  6  1  1  0
  3  2  1  0
  2  9  1  0
  4  3  2  0
 20  4  1  0
  4  5  1  0
 12  5  1  0
  5  6  2  0
  6 10  1  0
  7 20  1  0
  7 28  1  0
  7 29  1  0
  7 30  1  0
 23  8  1  0
  8 31  1  0
  8 32  1  0
  8 33  1  0
  9 34  1  0
  9 35  1  0
 10 36  1  0
 10 37  1  0
 21 11  1  0
 11 12  3  0
 15 13  2  0
 13 22  1  0
 13 38  1  0
 22 14  2  0
 16 14  1  0
 14 39  1  0
 15 24  1  0
 15 40  1  0
 24 16  2  0
 16 41  1  0
 18 17  2  0
 17 25  1  0
 17 42  1  0
 18 27  1  0
 18 43  1  0
 25 19  2  0
 26 19  1  0
 19 44  1  0
 20 45  1  0
 20 46  1  0
 26 21  1  0
 21 47  1  0
 21 48  1  0
 23 27  1  0
 25 24  1  0
 27 26  2  0
M  END
