
     RDKit          3D

 34 38  0  0  0  0  0  0  0  0999 V2000
    0.5883   -1.5288   -0.8855 C   0  0  0  0  0  0  0  0  0  0  0  0
    1.9852   -1.7437   -0.8221 O   0  0  0  0  0  0  0  0  0  0  0  0
    2.7134   -0.6952   -0.3846 C   0  0  0  0  0  0  0  0  0  0  0  0
    2.1592    0.3223    0.3947 C   0  0  0  0  0  0  0  0  0  0  0  0
    0.7392    0.2588    0.8458 C   0  0  2  0  0  0  0  0  0  0  0  0
    0.0287   -1.0469    0.4497 C   0  0  2  0  0  0  0  0  0  0  0  0
    4.0605   -0.6823   -0.7295 C   0  0  0  0  0  0  0  0  0  0  0  0
    4.8712    0.3606   -0.3026 C   0  0  0  0  0  0  0  0  0  0  0  0
    4.3343    1.3942    0.4687 C   0  0  0  0  0  0  0  0  0  0  0  0
    2.9970    1.3530    0.8112 C   0  0  0  0  0  0  0  0  0  0  0  0
   -0.0471    1.3158    0.2618 O   0  0  0  0  0  0  0  0  0  0  0  0
    0.2232   -1.9763    1.4752 O   0  0  0  0  0  0  0  0  0  0  0  0
    6.1658    0.3295   -0.6642 O   0  0  0  0  0  0  0  0  0  0  0  0
   -1.3078    0.8337    0.1290 C   0  0  0  0  0  0  0  0  0  0  0  0
   -1.3752   -0.5418    0.2555 C   0  0  0  0  0  0  0  0  0  0  0  0
   -2.4245    1.6338   -0.1018 C   0  0  0  0  0  0  0  0  0  0  0  0
   -3.6072    0.9345   -0.2074 C   0  0  0  0  0  0  0  0  0  0  0  0
   -3.6883   -0.4469   -0.0841 C   0  0  0  0  0  0  0  0  0  0  0  0
   -2.5818   -1.2297    0.1472 C   0  0  0  0  0  0  0  0  0  0  0  0
   -4.8417    1.4342   -0.4453 O   0  0  0  0  0  0  0  0  0  0  0  0
   -5.7456    0.3601   -0.2114 C   0  0  0  0  0  0  0  0  0  0  0  0
   -4.9826   -0.8334   -0.2545 O   0  0  0  0  0  0  0  0  0  0  0  0
    0.1371   -2.4787   -1.1780 H   0  0  0  0  0  0  0  0  0  0  0  0
    0.3604   -0.7947   -1.6666 H   0  0  0  0  0  0  0  0  0  0  0  0
    0.6806    0.3664    1.9365 H   0  0  0  0  0  0  0  0  0  0  0  0
    4.4720   -1.4843   -1.3301 H   0  0  0  0  0  0  0  0  0  0  0  0
    4.9592    2.2109    0.8097 H   0  0  0  0  0  0  0  0  0  0  0  0
    2.5910    2.1445    1.4300 H   0  0  0  0  0  0  0  0  0  0  0  0
   -0.0827   -2.8432    1.1873 H   0  0  0  0  0  0  0  0  0  0  0  0
    6.6323    1.0948   -0.3103 H   0  0  0  0  0  0  0  0  0  0  0  0
   -2.3688    2.7101   -0.1905 H   0  0  0  0  0  0  0  0  0  0  0  0
   -2.6493   -2.3064    0.2374 H   0  0  0  0  0  0  0  0  0  0  0  0
   -6.2068    0.4777    0.7762 H   0  0  0  0  0  0  0  0  0  0  0  0
   -6.5062    0.3432   -0.9902 H   0  0  0  0  0  0  0  0  0  0  0  0
  1  2  1  0
  1  6  1  0
  1 23  1  0
  1 24  1  0
  2  3  1  0
  3  4  2  0
  3  7  1  0
  4  5  1  0
  4 10  1  0
  5  6  1  0
  5 11  1  0
  5 25  1  1
  6 12  1  1
  6 15  1  0
  7  8  2  0
  7 26  1  0
  8  9  1  0
  8 13  1  0
  9 10  2  0
  9 27  1  0
 10 28  1  0
 11 14  1  0
 12 29  1  0
 13 30  1  0
 14 15  2  0
 14 16  1  0
 15 19  1  0
 16 17  2  0
 16 31  1  0
 17 18  1  0
 17 20  1  0
 18 19  2  0
 18 22  1  0
 19 32  1  0
 20 21  1  0
 21 22  1  0
 21 33  1  0
 21 34  1  0
M  END
