
     RDKit          3D

 42 44  0  0  0  0  0  0  0  0999 V2000
    0.0363   -0.7414   -0.2618 O   0  0  0  0  0  0  0  0  0  0  0  0
    0.4166    0.3991   -0.0656 C   0  0  0  0  0  0  0  0  0  0  0  0
    1.8643    0.7147    0.1161 C   0  0  0  0  0  0  0  0  0  0  0  0
    2.3113    1.7994    0.8643 C   0  0  0  0  0  0  0  0  0  0  0  0
    3.6739    2.0043    1.0385 C   0  0  0  0  0  0  0  0  0  0  0  0
    4.5892    1.1362    0.4672 C   0  0  0  0  0  0  0  0  0  0  0  0
    4.1574    0.0483   -0.2901 C   0  0  0  0  0  0  0  0  0  0  0  0
    5.1635   -0.8884   -0.9037 C   0  0  0  0  0  0  0  0  0  0  0  0
    5.9687   -1.5506    0.1046 N   0  0  0  0  0  0  0  0  0  0  0  0
    5.1917   -2.4839    0.8907 C   0  0  0  0  0  0  0  0  0  0  0  0
    7.1229   -2.1953   -0.4832 C   0  0  0  0  0  0  0  0  0  0  0  0
    2.7959   -0.1588   -0.4458 C   0  0  0  0  0  0  0  0  0  0  0  0
   -0.4184    1.4703   -0.0046 N   0  0  0  0  0  0  0  0  0  0  0  0
   -1.8095    1.4925   -0.1195 C   0  0  0  0  0  0  0  0  0  0  0  0
   -2.6195    0.3711    0.0301 C   0  0  0  0  0  0  0  0  0  0  0  0
   -4.0035    0.4972   -0.0802 C   0  0  0  0  0  0  0  0  0  0  0  0
   -4.5891    1.7330   -0.3346 C   0  0  0  0  0  0  0  0  0  0  0  0
   -3.7762    2.8466   -0.4760 C   0  0  0  0  0  0  0  0  0  0  0  0
   -2.4025    2.7327   -0.3728 C   0  0  0  0  0  0  0  0  0  0  0  0
   -4.8146   -0.7031    0.0845 C   0  0  0  0  0  0  0  0  0  0  0  0
   -6.1467   -0.7833    0.0138 N   0  0  0  0  0  0  0  0  0  0  0  0
   -6.5183   -2.0343    0.2177 N   0  0  0  0  0  0  0  0  0  0  0  0
   -5.4487   -2.7000    0.4084 N   0  0  0  0  0  0  0  0  0  0  0  0
   -4.3762   -1.9176    0.3340 N   0  0  0  0  0  0  0  0  0  0  0  0
    1.6164    2.4760    1.3460 H   0  0  0  0  0  0  0  0  0  0  0  0
    4.0173    2.8440    1.6281 H   0  0  0  0  0  0  0  0  0  0  0  0
    5.6502    1.3010    0.6099 H   0  0  0  0  0  0  0  0  0  0  0  0
    4.6437   -1.6053   -1.5620 H   0  0  0  0  0  0  0  0  0  0  0  0
    5.8385   -0.3140   -1.5450 H   0  0  0  0  0  0  0  0  0  0  0  0
    5.8171   -2.9234    1.6688 H   0  0  0  0  0  0  0  0  0  0  0  0
    4.3623   -1.9756    1.3836 H   0  0  0  0  0  0  0  0  0  0  0  0
    4.7736   -3.3084    0.2922 H   0  0  0  0  0  0  0  0  0  0  0  0
    7.7334   -1.4615   -1.0112 H   0  0  0  0  0  0  0  0  0  0  0  0
    7.7385   -2.6397    0.3002 H   0  0  0  0  0  0  0  0  0  0  0  0
    6.8654   -2.9938   -1.1968 H   0  0  0  0  0  0  0  0  0  0  0  0
    2.4529   -1.0152   -1.0137 H   0  0  0  0  0  0  0  0  0  0  0  0
    0.0135    2.3815    0.0124 H   0  0  0  0  0  0  0  0  0  0  0  0
   -2.1955   -0.5969    0.2393 H   0  0  0  0  0  0  0  0  0  0  0  0
   -5.6614    1.8468   -0.4225 H   0  0  0  0  0  0  0  0  0  0  0  0
   -4.2172    3.8137   -0.6746 H   0  0  0  0  0  0  0  0  0  0  0  0
   -1.7803    3.6117   -0.4907 H   0  0  0  0  0  0  0  0  0  0  0  0
   -6.8410   -0.0711   -0.1627 H   0  0  0  0  0  0  0  0  0  0  0  0
  5  6  1  0
  5  4  2  0
  6  7  2  0
  4  3  1  0
  7  8  1  0
  7 12  1  0
  9 11  1  0
  9  8  1  0
  9 10  1  0
  3 12  2  0
  3  2  1  0
 21 22  1  0
 21 20  1  0
 22 23  2  0
 13  2  1  0
 13 14  1  0
 15 14  2  0
 15 16  1  0
  2  1  2  0
 14 19  1  0
 20 16  1  0
 20 24  2  0
 23 24  1  0
 16 17  2  0
 19 18  2  0
 17 18  1  0
  4 25  1  0
  5 26  1  0
  6 27  1  0
  8 28  1  0
  8 29  1  0
 10 30  1  0
 10 31  1  0
 10 32  1  0
 11 33  1  0
 11 34  1  0
 11 35  1  0
 12 36  1  0
 13 37  1  0
 15 38  1  0
 17 39  1  0
 18 40  1  0
 19 41  1  0
 21 42  1  0
M  END
