
     RDKit          3D

 40 41  0  0  0  0  0  0  0  0999 V2000
    0.2027   -0.3355   -2.0090 C   0  0  0  0  0  0  0  0  0  0  0  0
    2.3828   -0.8393   -2.8508 C   0  0  0  0  0  0  0  0  0  0  0  0
    1.9909   -0.6802   -0.4623 C   0  0  0  0  0  0  0  0  0  0  0  0
   -2.2235    1.5364   -0.2557 C   0  0  0  0  0  0  0  0  0  0  0  0
   -0.9656    1.3004    0.1762 C   0  0  0  0  0  0  0  0  0  0  0  0
   -0.4314   -0.1075    0.3703 C   0  0  1  0  0  0  0  0  0  0  0  0
   -1.5420   -1.1238    0.2719 C   0  0  0  0  0  0  0  0  0  0  0  0
   -2.7913   -0.8271   -0.1869 C   0  0  0  0  0  0  0  0  0  0  0  0
   -3.0626    0.4670   -0.4798 N   0  0  0  0  0  0  0  0  0  0  0  0
   -3.9398   -1.7560   -0.4202 C   0  0  0  0  0  0  0  0  0  0  0  0
   -1.1971   -2.4364    0.6631 N   0  0  0  0  0  0  0  0  0  0  0  0
   -2.0209   -3.3353    0.6377 O   0  0  0  0  0  0  0  0  0  0  0  0
   -0.0476   -2.6236    1.0259 O   0  0  0  0  0  0  0  0  0  0  0  0
    0.6420   -0.3917   -0.6846 C   0  0  0  0  0  0  0  0  0  0  0  0
    1.0456   -0.5548   -3.0824 C   0  0  0  0  0  0  0  0  0  0  0  0
    2.8430   -0.8978   -1.5498 C   0  0  0  0  0  0  0  0  0  0  0  0
    2.6916   -0.7877    0.8668 C   0  0  1  0  0  0  0  0  0  0  0  0
    3.6766    0.1233    0.9543 F   0  0  0  0  0  0  0  0  0  0  0  0
    1.9483   -0.6400    1.9590 F   0  0  0  0  0  0  0  0  0  0  0  0
    3.2871   -1.9896    0.9828 F   0  0  0  0  0  0  0  0  0  0  0  0
    1.1086    2.0775    0.9651 O   0  0  0  0  0  0  0  0  0  0  0  0
   -0.3427    3.5760    0.1890 O   0  0  0  0  0  0  0  0  0  0  0  0
    0.5808    4.6245    0.4740 C   0  0  0  0  0  0  0  0  0  0  0  0
   -0.8373   -0.1074   -2.2069 H   0  0  0  0  0  0  0  0  0  0  0  0
    3.0638   -1.0117   -3.6731 H   0  0  0  0  0  0  0  0  0  0  0  0
   -2.4062    3.3694   -1.3645 H   0  0  0  0  0  0  0  0  0  0  0  0
   -3.9296    2.7161   -0.7800 H   0  0  0  0  0  0  0  0  0  0  0  0
   -2.8304    3.5141    0.3347 H   0  0  0  0  0  0  0  0  0  0  0  0
   -0.0100   -0.1583    1.3681 H   0  0  0  0  0  0  0  0  0  0  0  0
   -3.9885    0.6765   -0.8174 H   0  0  0  0  0  0  0  0  0  0  0  0
   -4.2851   -2.1975    0.5122 H   0  0  0  0  0  0  0  0  0  0  0  0
   -4.7723   -1.2170   -0.8690 H   0  0  0  0  0  0  0  0  0  0  0  0
   -3.6640   -2.5691   -1.0872 H   0  0  0  0  0  0  0  0  0  0  0  0
    0.6610   -0.4998   -4.0923 H   0  0  0  0  0  0  0  0  0  0  0  0
    3.8906   -1.1169   -1.3865 H   0  0  0  0  0  0  0  0  0  0  0  0
    0.0934    5.5413    0.1557 H   0  0  0  0  0  0  0  0  0  0  0  0
    0.8020    4.6850    1.5394 H   0  0  0  0  0  0  0  0  0  0  0  0
    1.5114    4.4990   -0.0790 H   0  0  0  0  0  0  0  0  0  0  0  0
    0.0264    2.3379    0.4862 C   0  0  0  0  0  0  0  0  0  0  0  0
   -2.8795    2.8568   -0.5292 C   0  0  0  0  0  0  0  0  0  0  0  0
 17 19  1  1
 12 11  2  0
 18 17  1  0
 16  2  2  0
 16  3  1  0
 17  3  1  0
 17 20  1  0
  2 15  1  0
  3 14  2  0
 11 13  1  0
 11  7  1  0
 15  1  2  0
 14  1  1  0
 14  6  1  0
  7  6  1  0
  7  8  2  0
 10  8  1  0
  6  5  1  0
  8  9  1  0
  5 39  1  0
  5  4  2  0
  9  4  1  0
 22 23  1  0
 22 39  1  0
 39 21  2  0
  4 40  1  0
  1 24  1  0
  2 25  1  0
 40 26  1  0
 40 27  1  0
 40 28  1  0
  6 29  1  1
  9 30  1  0
 10 31  1  0
 10 32  1  0
 10 33  1  0
 15 34  1  0
 16 35  1  0
 23 36  1  0
 23 37  1  0
 23 38  1  0
M  CHG  2  11   1  13  -1
M  END
