
     RDKit          3D

 28 29  0  0  0  0  0  0  0  0999 V2000
   -3.4700   -0.5242   -1.1848 C   0  0  0  0  0  0  0  0  0  0  0  0
   -3.5235   -0.5553    1.2088 C   0  0  0  0  0  0  0  0  0  0  0  0
   -4.6413    0.2174   -1.2113 C   0  0  0  0  0  0  0  0  0  0  0  0
   -4.6954    0.1869    1.2025 C   0  0  0  0  0  0  0  0  0  0  0  0
   -2.8999   -0.9220    0.0207 C   0  0  0  0  0  0  0  0  0  0  0  0
   -5.2437    0.5664   -0.0123 C   0  0  0  0  0  0  0  0  0  0  0  0
    3.2133   -0.3635   -0.0501 C   0  0  0  0  0  0  0  0  0  0  0  0
    1.8186   -0.1993   -0.0174 C   0  0  0  0  0  0  0  0  0  0  0  0
    3.6952    0.9283   -0.0004 C   0  0  0  0  0  0  0  0  0  0  0  0
    0.7727   -1.2524   -0.0401 C   0  0  0  0  0  0  0  0  0  0  0  0
   -1.6196   -1.7074    0.0389 C   0  0  0  0  0  0  0  0  0  0  0  0
    1.5076    1.0882    0.0452 N   0  0  0  0  0  0  0  0  0  0  0  0
    2.6297    1.7480    0.0540 N   0  0  0  0  0  0  0  0  0  0  0  0
   -0.4847   -0.8018    0.0305 N   0  0  0  0  0  0  0  0  0  0  0  0
    5.0200    1.4374   -0.0013 N   0  0  0  0  0  0  0  0  0  0  0  0
    5.1425    2.6404    0.0390 O   0  0  0  0  0  0  0  0  0  0  0  0
    1.0725   -2.4327   -0.1193 O   0  0  0  0  0  0  0  0  0  0  0  0
    5.9222    0.6394   -0.0411 O   0  0  0  0  0  0  0  0  0  0  0  0
   -6.7113    1.4875   -0.0340 Cl  0  0  0  0  0  0  0  0  0  0  0  0
   -3.0006   -0.7980   -2.1216 H   0  0  0  0  0  0  0  0  0  0  0  0
   -3.0965   -0.8551    2.1578 H   0  0  0  0  0  0  0  0  0  0  0  0
   -5.0798    0.5119   -2.1550 H   0  0  0  0  0  0  0  0  0  0  0  0
   -5.1745    0.4585    2.1332 H   0  0  0  0  0  0  0  0  0  0  0  0
   -1.5832   -2.3462    0.9247 H   0  0  0  0  0  0  0  0  0  0  0  0
   -1.5692   -2.3639   -0.8321 H   0  0  0  0  0  0  0  0  0  0  0  0
   -0.6510    0.1884    0.1261 H   0  0  0  0  0  0  0  0  0  0  0  0
    2.6319    2.7594    0.0976 H   0  0  0  0  0  0  0  0  0  0  0  0
    4.1014   -1.7973   -0.1303 Cl  0  0  0  0  0  0  0  0  0  0  0  0
  1  3  2  0
  1  5  1  0
  3  6  1  0
 11  5  1  0
 11 14  1  0
  5  2  2  0
 17 10  2  0
 14 10  1  0
  6 19  1  0
  6  4  2  0
 10  8  1  0
  2  4  1  0
  8 12  2  0
  8  7  1  0
 12 13  1  0
  7 28  1  0
  7  9  2  0
 13  9  1  0
  9 15  1  0
 15 16  1  0
 15 18  2  0
  1 20  1  0
  2 21  1  0
  3 22  1  0
  4 23  1  0
 11 24  1  0
 11 25  1  0
 14 26  1  0
 13 27  1  0
M  CHG  2  15   1  16  -1
M  END
