
     RDKit          3D

 41 43  0  0  0  0  0  0  0  0999 V2000
    4.5071   -0.5138   -1.4686 C   0  0  0  0  0  0  0  0  0  0  0  0
    5.8513    0.0526   -1.0476 C   0  0  0  0  0  0  0  0  0  0  0  0
    6.3710   -0.6490    0.0629 O   0  0  0  0  0  0  0  0  0  0  0  0
    5.4837   -0.6129    1.1573 C   0  0  0  0  0  0  0  0  0  0  0  0
    4.1177   -1.1868    0.8095 C   0  0  0  0  0  0  0  0  0  0  0  0
    3.5699   -0.5061   -0.3575 N   0  0  0  0  0  0  0  0  0  0  0  0
    2.6785    0.5317   -0.2570 C   0  0  0  0  0  0  0  0  0  0  0  0
    2.7370    1.5163   -0.9825 O   0  0  0  0  0  0  0  0  0  0  0  0
    1.7184    0.3951    0.7170 N   0  0  0  0  0  0  0  0  0  0  0  0
    1.0239   -0.8585    0.9572 C   0  0  0  0  0  0  0  0  0  0  0  0
   -0.3013   -0.9159    0.2083 C   0  0  0  0  0  0  0  0  0  0  0  0
    0.8767    1.5330    1.0275 C   0  0  0  0  0  0  0  0  0  0  0  0
   -0.4352    1.4942    0.2651 C   0  0  0  0  0  0  0  0  0  0  0  0
   -1.1273    0.2346    0.5121 N   0  0  0  0  0  0  0  0  0  0  0  0
   -2.4785    0.1699    0.1816 C   0  0  0  0  0  0  0  0  0  0  0  0
   -3.3553    1.1872    0.5900 C   0  0  0  0  0  0  0  0  0  0  0  0
   -4.7071    1.1337    0.3073 C   0  0  0  0  0  0  0  0  0  0  0  0
   -5.2240    0.0511   -0.3896 C   0  0  0  0  0  0  0  0  0  0  0  0
   -6.9232   -0.0201   -0.7407 Cl  0  0  0  0  0  0  0  0  0  0  0  0
   -4.3879   -0.9691   -0.8023 C   0  0  0  0  0  0  0  0  0  0  0  0
   -3.0288   -0.9049   -0.5272 C   0  0  0  0  0  0  0  0  0  0  0  0
    4.1054    0.0495   -2.3076 H   0  0  0  0  0  0  0  0  0  0  0  0
    4.6319   -1.5498   -1.7987 H   0  0  0  0  0  0  0  0  0  0  0  0
    6.5737   -0.0426   -1.8596 H   0  0  0  0  0  0  0  0  0  0  0  0
    5.7422    1.1207   -0.8137 H   0  0  0  0  0  0  0  0  0  0  0  0
    5.9333   -1.1964    1.9626 H   0  0  0  0  0  0  0  0  0  0  0  0
    5.3577    0.4182    1.5190 H   0  0  0  0  0  0  0  0  0  0  0  0
    4.2004   -2.2561    0.5942 H   0  0  0  0  0  0  0  0  0  0  0  0
    3.4681   -1.0750    1.6740 H   0  0  0  0  0  0  0  0  0  0  0  0
    1.6227   -1.7078    0.6387 H   0  0  0  0  0  0  0  0  0  0  0  0
    0.8439   -0.9655    2.0306 H   0  0  0  0  0  0  0  0  0  0  0  0
   -0.1054   -1.0086   -0.8712 H   0  0  0  0  0  0  0  0  0  0  0  0
   -0.8128   -1.8261    0.5245 H   0  0  0  0  0  0  0  0  0  0  0  0
    0.6674    1.5132    2.1011 H   0  0  0  0  0  0  0  0  0  0  0  0
    1.4011    2.4601    0.8109 H   0  0  0  0  0  0  0  0  0  0  0  0
   -1.0457    2.3323    0.5942 H   0  0  0  0  0  0  0  0  0  0  0  0
   -0.2433    1.6293   -0.8087 H   0  0  0  0  0  0  0  0  0  0  0  0
   -2.9902    2.0315    1.1591 H   0  0  0  0  0  0  0  0  0  0  0  0
   -5.3549    1.9316    0.6453 H   0  0  0  0  0  0  0  0  0  0  0  0
   -4.7796   -1.8151   -1.3513 H   0  0  0  0  0  0  0  0  0  0  0  0
   -2.4073   -1.7112   -0.8900 H   0  0  0  0  0  0  0  0  0  0  0  0
  3  2  1  0
  3  4  1  0
  2  1  1  0
  4  5  1  0
  1  6  1  0
  5  6  1  0
  6  7  1  0
  7  8  2  0
  7  9  1  0
 21 20  2  0
 21 15  1  0
 20 18  1  0
 11 10  1  0
 11 14  1  0
 10  9  1  0
  9 12  1  0
 14 15  1  0
 14 13  1  0
 15 16  2  0
 19 18  1  0
 18 17  2  0
 12 13  1  0
 16 17  1  0
  1 22  1  0
  1 23  1  0
  2 24  1  0
  2 25  1  0
  4 26  1  0
  4 27  1  0
  5 28  1  0
  5 29  1  0
 10 30  1  0
 10 31  1  0
 11 32  1  0
 11 33  1  0
 12 34  1  0
 12 35  1  0
 13 36  1  0
 13 37  1  0
 16 38  1  0
 17 39  1  0
 20 40  1  0
 21 41  1  0
M  END
