
     RDKit          3D

 54 57  0  0  0  0  0  0  0  0999 V2000
   -0.0115    2.7515    0.8115 C   0  0  0  0  0  0  0  0  0  0  0  0
   -1.3387    3.1305    0.9394 C   0  0  0  0  0  0  0  0  0  0  0  0
   -2.3352    2.4044    0.3242 C   0  0  0  0  0  0  0  0  0  0  0  0
   -2.0753    1.2772   -0.4476 C   0  0  0  0  0  0  0  0  0  0  0  0
   -0.7405    0.9193   -0.5663 C   0  0  0  0  0  0  0  0  0  0  0  0
   -3.1722    0.4660   -1.1505 C   0  0  1  0  0  0  0  0  0  0  0  0
   -4.2199   -0.0032   -0.1046 C   0  0  1  0  0  0  0  0  0  0  0  0
    7.0614   -1.4986   -1.0484 O   0  0  0  0  0  0  0  0  0  0  0  0
   -5.2225   -0.9795   -0.7160 C   0  0  0  0  0  0  0  0  0  0  0  0
    3.7260   -0.3523   -0.7651 N   0  0  0  0  0  0  0  0  0  0  0  0
   -2.9744   -1.7643   -2.0546 C   0  0  0  0  0  0  0  0  0  0  0  0
    2.7611    1.6252    0.2813 C   0  0  0  0  0  0  0  0  0  0  0  0
    3.9356    0.7810   -0.0932 C   0  0  0  0  0  0  0  0  0  0  0  0
    4.7568   -1.0957   -1.0789 C   0  0  0  0  0  0  0  0  0  0  0  0
    6.0502   -0.6948   -0.7036 C   0  0  0  0  0  0  0  0  0  0  0  0
    5.2163    1.1644    0.2611 C   0  0  0  0  0  0  0  0  0  0  0  0
   -3.8498    1.3697   -2.1977 C   0  0  0  0  0  0  0  0  0  0  0  0
    8.5861   -1.3067    0.6079 F   0  0  0  0  0  0  0  0  0  0  0  0
    8.3641   -1.1163   -0.7323 C   0  0  0  0  0  0  0  0  0  0  0  0
    6.2706    0.4152   -0.0451 N   0  0  0  0  0  0  0  0  0  0  0  0
    2.9118    2.6585    0.9124 O   0  0  0  0  0  0  0  0  0  0  0  0
    0.2921    1.6259    0.0508 C   0  0  0  0  0  0  0  0  0  0  0  0
   -3.6022    2.8323    0.5018 F   0  0  0  0  0  0  0  0  0  0  0  0
   -2.5238   -0.5944   -1.8825 N   0  0  0  0  0  0  0  0  0  0  0  0
   -4.4505   -2.4733   -1.3745 S   0  0  0  0  0  0  0  0  0  0  0  0
   -3.6657   -0.5230    1.2005 C   0  0  0  0  0  0  0  0  0  0  0  0
   -2.5810   -1.3939    1.2909 C   0  0  0  0  0  0  0  0  0  0  0  0
   -2.1440   -1.8586    2.5241 C   0  0  0  0  0  0  0  0  0  0  0  0
   -2.7846   -1.4691    3.6923 C   0  0  0  0  0  0  0  0  0  0  0  0
   -3.8666   -0.6030    3.6169 C   0  0  0  0  0  0  0  0  0  0  0  0
   -4.2954   -0.1356    2.3824 C   0  0  0  0  0  0  0  0  0  0  0  0
    0.7521    3.3302    1.3033 H   0  0  0  0  0  0  0  0  0  0  0  0
   -1.5982    4.0018    1.5269 H   0  0  0  0  0  0  0  0  0  0  0  0
   -0.5047    0.0482   -1.1634 H   0  0  0  0  0  0  0  0  0  0  0  0
   -4.8258    0.8701    0.1412 H   0  0  0  0  0  0  0  0  0  0  0  0
   -1.3418   -2.4419   -3.0220 H   0  0  0  0  0  0  0  0  0  0  0  0
   -2.5050   -3.6377   -2.7379 H   0  0  0  0  0  0  0  0  0  0  0  0
    1.6496    0.2602   -0.6628 H   0  0  0  0  0  0  0  0  0  0  0  0
   -5.9274   -1.3177    0.0427 H   0  0  0  0  0  0  0  0  0  0  0  0
   -5.8018   -0.5031   -1.5062 H   0  0  0  0  0  0  0  0  0  0  0  0
    4.5889   -2.0150   -1.6267 H   0  0  0  0  0  0  0  0  0  0  0  0
    5.4044    2.0821    0.8021 H   0  0  0  0  0  0  0  0  0  0  0  0
   -3.1025    1.7672   -2.8842 H   0  0  0  0  0  0  0  0  0  0  0  0
   -4.5690    0.8033   -2.7903 H   0  0  0  0  0  0  0  0  0  0  0  0
   -4.3766    2.2065   -1.7421 H   0  0  0  0  0  0  0  0  0  0  0  0
    9.0147   -1.7807   -1.2943 H   0  0  0  0  0  0  0  0  0  0  0  0
    8.5511   -0.0702   -0.9709 H   0  0  0  0  0  0  0  0  0  0  0  0
   -2.0506   -1.7066    0.4034 H   0  0  0  0  0  0  0  0  0  0  0  0
   -1.2958   -2.5299    2.5693 H   0  0  0  0  0  0  0  0  0  0  0  0
   -2.4413   -1.8328    4.6522 H   0  0  0  0  0  0  0  0  0  0  0  0
   -4.3753   -0.2865    4.5186 H   0  0  0  0  0  0  0  0  0  0  0  0
   -5.1372    0.5462    2.3379 H   0  0  0  0  0  0  0  0  0  0  0  0
   -2.3116   -2.6552   -2.8465 N   0  0  0  0  0  0  0  0  0  0  0  0
    1.5839    1.1250   -0.1403 N   0  0  0  0  0  0  0  0  0  0  0  0
 28 29  1  0
 28 27  2  0
 29 30  2  0
 27 26  1  0
 30 31  1  0
 26 31  2  0
 26  7  1  0
  7  9  1  0
  7  6  1  0
 23  3  1  0
  9 25  1  0
  6 17  1  6
  6  4  1  0
  6 24  1  0
  3  4  2  0
  3  2  1  0
 25 11  1  0
  4  5  1  0
  2  1  2  0
 24 11  2  0
 11 53  1  0
  5 22  2  0
  1 22  1  0
 22 54  1  0
 54 12  1  0
 21 12  2  0
 12 13  1  0
 13 16  1  0
 13 10  2  0
 16 20  2  0
 10 14  1  0
 20 15  1  0
 14 15  2  0
 15  8  1  0
  8 19  1  0
 19 18  1  0
  1 32  1  0
  2 33  1  0
  5 34  1  0
  7 35  1  1
 53 36  1  0
 53 37  1  0
 54 38  1  0
  9 39  1  0
  9 40  1  0
 14 41  1  0
 16 42  1  0
 17 43  1  0
 17 44  1  0
 17 45  1  0
 19 46  1  0
 19 47  1  0
 27 48  1  0
 28 49  1  0
 29 50  1  0
 30 51  1  0
 31 52  1  0
M  END
