
     RDKit          3D

 36 39  0  0  0  0  0  0  0  0999 V2000
    5.2865   -1.7864   -0.1296 F   0  0  0  0  0  0  0  0  0  0  0  0
    5.0915   -0.4823   -0.3702 C   0  0  0  0  0  0  0  0  0  0  0  0
    6.0477    0.2408   -1.0493 C   0  0  0  0  0  0  0  0  0  0  0  0
    5.8266    1.5902   -1.2978 C   0  0  0  0  0  0  0  0  0  0  0  0
    4.6573    2.1910   -0.8569 C   0  0  0  0  0  0  0  0  0  0  0  0
    3.7036    1.4544   -0.1655 C   0  0  0  0  0  0  0  0  0  0  0  0
    3.9148    0.1050    0.0821 C   0  0  0  0  0  0  0  0  0  0  0  0
    3.0573   -0.6847    0.7807 O   0  0  0  0  0  0  0  0  0  0  0  0
    1.7151   -0.4009    0.7240 C   0  0  0  0  0  0  0  0  0  0  0  0
    1.0492   -0.1867    1.8931 C   0  0  0  0  0  0  0  0  0  0  0  0
    1.0685   -0.3954   -0.5455 C   0  0  0  0  0  0  0  0  0  0  0  0
   -0.2755   -0.1814   -0.6421 C   0  0  0  0  0  0  0  0  0  0  0  0
   -1.0058    0.0308    0.5464 C   0  0  0  0  0  0  0  0  0  0  0  0
   -0.3456    0.0320    1.8053 C   0  0  0  0  0  0  0  0  0  0  0  0
   -1.1998    0.2768    2.8007 N   0  0  0  0  0  0  0  0  0  0  0  0
   -2.3639    0.4294    2.1906 N   0  0  0  0  0  0  0  0  0  0  0  0
   -2.3418    0.2924    0.8573 C   0  0  0  0  0  0  0  0  0  0  0  0
   -3.5347    0.4895    0.0342 C   0  0  0  0  0  0  0  0  0  0  0  0
   -3.9858   -0.4664   -0.8777 C   0  0  0  0  0  0  0  0  0  0  0  0
   -3.1588   -1.9787   -1.0368 Cl  0  0  0  0  0  0  0  0  0  0  0  0
   -4.2676    1.6718    0.1562 C   0  0  0  0  0  0  0  0  0  0  0  0
   -5.4026    1.8952   -0.6054 C   0  0  0  0  0  0  0  0  0  0  0  0
   -5.8232    0.9344   -1.5136 C   0  0  0  0  0  0  0  0  0  0  0  0
   -5.1156   -0.2501   -1.6509 C   0  0  0  0  0  0  0  0  0  0  0  0
    6.9502   -0.2503   -1.3888 H   0  0  0  0  0  0  0  0  0  0  0  0
    6.5700    2.1632   -1.8346 H   0  0  0  0  0  0  0  0  0  0  0  0
    4.4798    3.2410   -1.0448 H   0  0  0  0  0  0  0  0  0  0  0  0
    2.7992    1.9352    0.1854 H   0  0  0  0  0  0  0  0  0  0  0  0
    1.5620   -0.1882    2.8462 H   0  0  0  0  0  0  0  0  0  0  0  0
    1.6555   -0.5739   -1.4375 H   0  0  0  0  0  0  0  0  0  0  0  0
   -0.7597   -0.1785   -1.6091 H   0  0  0  0  0  0  0  0  0  0  0  0
   -3.1866    0.6132    2.7480 H   0  0  0  0  0  0  0  0  0  0  0  0
   -3.9271    2.4330    0.8466 H   0  0  0  0  0  0  0  0  0  0  0  0
   -5.9498    2.8217   -0.4973 H   0  0  0  0  0  0  0  0  0  0  0  0
   -6.7055    1.0988   -2.1172 H   0  0  0  0  0  0  0  0  0  0  0  0
   -5.4467   -1.0075   -2.3480 H   0  0  0  0  0  0  0  0  0  0  0  0
  1  2  1  0
  2  3  2  0
  2  7  1  0
  3  4  1  0
  4  5  2  0
  5  6  1  0
  6  7  2  0
  7  8  1  0
  8  9  1  0
  9 10  2  0
  9 11  1  0
 10 14  1  0
 11 12  2  0
 12 13  1  0
 13 14  1  0
 13 17  2  0
 14 15  2  0
 15 16  1  0
 16 17  1  0
 17 18  1  0
 18 19  2  0
 18 21  1  0
 19 20  1  0
 19 24  1  0
 21 22  2  0
 22 23  1  0
 23 24  2  0
  3 25  1  0
  4 26  1  0
  5 27  1  0
  6 28  1  0
 10 29  1  0
 11 30  1  0
 12 31  1  0
 16 32  1  0
 21 33  1  0
 22 34  1  0
 23 35  1  0
 24 36  1  0
M  END
