
     RDKit          3D

 24 26  0  0  0  0  0  0  0  0999 V2000
   -0.2964   -0.7583    0.9761 C   0  0  1  0  0  0  0  0  0  0  0  0
    0.9578   -1.0877    0.1373 C   0  0  2  0  0  0  0  0  0  0  0  0
   -0.3208    0.8005    0.9639 C   0  0  1  0  0  0  0  0  0  0  0  0
    1.9106    0.0531    0.5743 C   0  0  1  0  0  0  0  0  0  0  0  0
    0.9217    1.1551    0.1178 C   0  0  1  0  0  0  0  0  0  0  0  0
   -1.6555   -1.1888    0.4301 C   0  0  2  0  0  0  0  0  0  0  0  0
   -1.6932    1.1814    0.4150 C   0  0  1  0  0  0  0  0  0  0  0  0
   -2.5468   -0.0151    0.8103 C   0  0  1  0  0  0  0  0  0  0  0  0
    0.7000   -0.6478   -1.2891 C   0  0  0  0  0  0  0  0  0  0  0  0
    0.6781    0.6818   -1.3006 C   0  0  0  0  0  0  0  0  0  0  0  0
    1.5699   -2.7089    0.3253 Cl  0  0  0  0  0  0  0  0  0  0  0  0
    1.4818    2.7982    0.2760 Cl  0  0  0  0  0  0  0  0  0  0  0  0
    2.2575    0.0731    2.2982 Cl  0  0  0  0  0  0  0  0  0  0  0  0
    3.4391    0.0703   -0.2943 Cl  0  0  0  0  0  0  0  0  0  0  0  0
   -2.2245   -2.7261    1.1155 Cl  0  0  0  0  0  0  0  0  0  0  0  0
   -2.3092    2.7079    1.0833 Cl  0  0  0  0  0  0  0  0  0  0  0  0
   -4.1171   -0.0449   -0.0092 Cl  0  0  0  0  0  0  0  0  0  0  0  0
    0.4139   -1.7084   -2.5687 Cl  0  0  0  0  0  0  0  0  0  0  0  0
    0.3591    1.7101   -2.5985 Cl  0  0  0  0  0  0  0  0  0  0  0  0
   -0.1718   -1.1295    1.9929 H   0  0  0  0  0  0  0  0  0  0  0  0
   -0.2051    1.1912    1.9745 H   0  0  0  0  0  0  0  0  0  0  0  0
   -1.6593   -1.3136   -0.6531 H   0  0  0  0  0  0  0  0  0  0  0  0
   -1.7024    1.2932   -0.6696 H   0  0  0  0  0  0  0  0  0  0  0  0
   -2.7316   -0.0117    1.8859 H   0  0  0  0  0  0  0  0  0  0  0  0
  5 12  1  6
 19 10  1  0
  5 10  1  0
  5  4  1  0
  5  3  1  0
  4 14  1  6
 16  7  1  0
 13  4  1  0
 10  9  2  0
  4  2  1  0
  3  7  1  0
  3  1  1  0
  7  8  1  0
  9  2  1  0
  9 18  1  0
  2  1  1  0
  2 11  1  6
  1  6  1  0
  8 17  1  0
  8  6  1  0
  6 15  1  0
  1 20  1  1
  3 21  1  1
  6 22  1  6
  7 23  1  6
  8 24  1  1
M  END
