
     RDKit          3D

 22 24  0  0  0  0  0  0  0  0999 V2000
    1.2610   -0.4412   -0.1587 C   0  0  0  0  0  0  0  0  0  0  0  0
   -2.6035   -0.7000   -0.1560 C   0  0  0  0  0  0  0  0  0  0  0  0
   -0.7261    0.8430   -0.0421 C   0  0  0  0  0  0  0  0  0  0  0  0
    2.9751    1.6767    0.1229 C   0  0  0  0  0  0  0  0  0  0  0  0
    0.0089   -1.6939   -0.4020 S   0  0  0  0  0  0  0  0  0  0  0  0
    0.7367    0.8443   -0.0367 C   0  0  0  0  0  0  0  0  0  0  0  0
   -1.2473   -0.4435   -0.1675 C   0  0  0  0  0  0  0  0  0  0  0  0
   -1.5989    1.9147    0.0820 C   0  0  0  0  0  0  0  0  0  0  0  0
    1.6067    1.9175    0.0951 C   0  0  0  0  0  0  0  0  0  0  0  0
    2.6175   -0.6954   -0.1369 C   0  0  0  0  0  0  0  0  0  0  0  0
   -2.9671    1.6717    0.0994 C   0  0  0  0  0  0  0  0  0  0  0  0
   -3.4687    0.3789   -0.0107 C   0  0  0  0  0  0  0  0  0  0  0  0
    3.4797    0.3848    0.0156 C   0  0  0  0  0  0  0  0  0  0  0  0
   -2.9862   -1.7076   -0.2568 H   0  0  0  0  0  0  0  0  0  0  0  0
    3.6586    2.5080    0.2313 H   0  0  0  0  0  0  0  0  0  0  0  0
   -1.2277    2.9277    0.1717 H   0  0  0  0  0  0  0  0  0  0  0  0
    1.2332    2.9297    0.1827 H   0  0  0  0  0  0  0  0  0  0  0  0
    3.0027   -1.7022   -0.2361 H   0  0  0  0  0  0  0  0  0  0  0  0
   -3.6528    2.5020    0.2018 H   0  0  0  0  0  0  0  0  0  0  0  0
   -4.5370    0.2117    0.0117 H   0  0  0  0  0  0  0  0  0  0  0  0
    4.5481    0.2193    0.0455 H   0  0  0  0  0  0  0  0  0  0  0  0
    0.0064   -2.6689    0.7448 O   0  0  0  0  0  0  0  0  0  0  0  0
  5  1  1  1
  1  6  2  0
  1 10  1  0
  2  7  2  0
  2 12  1  0
  3  6  1  0
  3  7  1  0
  3  8  2  0
 22  5  2  0
  4  9  2  0
  4 13  1  0
  5  7  1  0
  6  9  1  0
  8 11  1  0
 10 13  2  0
 11 12  2  0
  2 14  1  0
  4 15  1  0
  8 16  1  0
  9 17  1  0
 10 18  1  0
 11 19  1  0
 12 20  1  0
 13 21  1  0
M  END
