
     RDKit          3D

 24 24  0  0  0  0  0  0  0  0999 V2000
   -3.5399   -0.9690    0.5967 O   0  0  0  0  0  0  0  0  0  0  0  0
   -3.4429    0.7841   -0.7723 O   0  0  0  0  0  0  0  0  0  0  0  0
    3.4616    0.8489    0.7223 O   0  0  0  0  0  0  0  0  0  0  0  0
   -0.7348    1.2876   -0.2049 C   0  0  0  0  0  0  0  0  0  0  0  0
    0.7429    1.2982    0.1687 C   0  0  0  0  0  0  0  0  0  0  0  0
   -0.7280   -1.2292   -0.1579 C   0  0  0  0  0  0  0  0  0  0  0  0
    0.7540   -1.2185    0.1968 C   0  0  0  0  0  0  0  0  0  0  0  0
   -2.8950    0.0185   -0.0178 C   0  0  0  0  0  0  0  0  0  0  0  0
    2.9131    0.0422    0.0125 C   0  0  0  0  0  0  0  0  0  0  0  0
   -1.4291    0.0445    0.3375 C   0  0  2  0  0  0  0  0  0  0  0  0
    1.4455    0.0444   -0.3370 C   0  0  2  0  0  0  0  0  0  0  0  0
   -4.4723   -0.9696    0.3336 H   0  0  0  0  0  0  0  0  0  0  0  0
    4.4936   -0.9540   -0.2984 H   0  0  0  0  0  0  0  0  0  0  0  0
   -1.2134    2.1880    0.1847 H   0  0  0  0  0  0  0  0  0  0  0  0
   -0.8385    1.3247   -1.2934 H   0  0  0  0  0  0  0  0  0  0  0  0
    1.2149    2.1900   -0.2475 H   0  0  0  0  0  0  0  0  0  0  0  0
    0.8464    1.3678    1.2557 H   0  0  0  0  0  0  0  0  0  0  0  0
   -0.8424   -1.3090   -1.2439 H   0  0  0  0  0  0  0  0  0  0  0  0
   -1.1915   -2.1161    0.2758 H   0  0  0  0  0  0  0  0  0  0  0  0
    0.8687   -1.2646    1.2848 H   0  0  0  0  0  0  0  0  0  0  0  0
    1.2235   -2.1152   -0.2096 H   0  0  0  0  0  0  0  0  0  0  0  0
   -1.3616    0.0525    1.4329 H   0  0  0  0  0  0  0  0  0  0  0  0
    1.3760    0.0201   -1.4322 H   0  0  0  0  0  0  0  0  0  0  0  0
    3.5593   -0.9725   -0.5543 O   0  0  0  0  0  0  0  0  0  0  0  0
  8  1  1  0
  1 12  1  0
  9 24  1  0
 24 13  1  0
  2  8  2  0
  3  9  2  0
  5  4  1  0
  4 10  1  0
  4 14  1  0
  4 15  1  0
  5 11  1  0
  5 16  1  0
  5 17  1  0
  7  6  1  0
 10  6  1  0
  6 18  1  0
  6 19  1  0
 11  7  1  0
  7 20  1  0
  7 21  1  0
 10  8  1  0
  9 11  1  0
 10 22  1  1
 11 23  1  6
M  END
