
     RDKit          3D

  7  6  0  0  0  0  0  0  0  0999 V2000
    0.0038    0.0122    0.0303 B   0  0  0  0  0  0  0  0  0  0  0  0
   -1.0389   -0.0119    0.9118 O   0  0  0  0  0  0  0  0  0  0  0  0
   -0.3554    0.0211   -1.2858 O   0  0  0  0  0  0  0  0  0  0  0  0
    1.3289    0.0273    0.3652 O   0  0  0  0  0  0  0  0  0  0  0  0
   -0.7971   -0.0193    1.8410 H   0  0  0  0  0  0  0  0  0  0  0  0
    0.3913    0.0399   -1.8903 H   0  0  0  0  0  0  0  0  0  0  0  0
    1.5195    0.0201    1.3068 H   0  0  0  0  0  0  0  0  0  0  0  0
  1  2  1  0
  1  3  1  0
  1  4  1  0
  2  5  1  0
  3  6  1  0
  4  7  1  0
M  END
