
     RDKit          3D

 40 42  0  0  0  0  0  0  0  0999 V2000
   -6.0433   -0.1363   -0.0879 O   0  0  0  0  0  0  0  0  0  0  0  0
   -4.7047   -0.2136   -0.0279 C   0  0  0  0  0  0  0  0  0  0  0  0
   -4.0382   -1.2966    0.5485 C   0  0  0  0  0  0  0  0  0  0  0  0
   -2.6579   -1.3202    0.5814 C   0  0  0  0  0  0  0  0  0  0  0  0
   -3.9653    0.8384   -0.5644 C   0  0  0  0  0  0  0  0  0  0  0  0
   -2.5829    0.8051   -0.5163 C   0  0  0  0  0  0  0  0  0  0  0  0
   -1.9007   -0.2710    0.0548 C   0  0  0  0  0  0  0  0  0  0  0  0
   -0.4258   -0.3288    0.0806 C   0  0  0  0  0  0  0  0  0  0  0  0
    0.3270    0.9403   -0.0867 C   0  0  0  0  0  0  0  0  0  0  0  0
    1.2998    1.0597   -1.0777 C   0  0  0  0  0  0  0  0  0  0  0  0
    2.0205    2.2284   -1.2344 C   0  0  0  0  0  0  0  0  0  0  0  0
    1.7925    3.3061   -0.3794 C   0  0  0  0  0  0  0  0  0  0  0  0
    2.5258    4.4177   -0.5653 O   0  0  0  0  0  0  0  0  0  0  0  0
    0.8258    3.1989    0.6179 C   0  0  0  0  0  0  0  0  0  0  0  0
    0.0966    2.0282    0.7496 C   0  0  0  0  0  0  0  0  0  0  0  0
    0.1278   -1.4695    0.2249 N   0  0  0  0  0  0  0  0  0  0  0  0
    1.5032   -1.6270    0.3956 C   0  0  0  0  0  0  0  0  0  0  0  0
    2.2001   -2.4476   -0.5033 C   0  0  0  0  0  0  0  0  0  0  0  0
    1.4890   -3.0503   -1.6778 C   0  0  0  0  0  0  0  0  0  0  0  0
    3.5568   -2.6649   -0.2884 C   0  0  0  0  0  0  0  0  0  0  0  0
    4.2209   -2.1040    0.7951 C   0  0  0  0  0  0  0  0  0  0  0  0
    3.5185   -1.3063    1.6872 C   0  0  0  0  0  0  0  0  0  0  0  0
    2.1678   -1.0672    1.4867 C   0  0  0  0  0  0  0  0  0  0  0  0
   -6.4477   -0.9194    0.3029 H   0  0  0  0  0  0  0  0  0  0  0  0
   -4.6006   -2.1192    0.9753 H   0  0  0  0  0  0  0  0  0  0  0  0
   -2.1533   -2.1647    1.0312 H   0  0  0  0  0  0  0  0  0  0  0  0
   -4.4747    1.6784   -1.0191 H   0  0  0  0  0  0  0  0  0  0  0  0
   -2.0323    1.6303   -0.9478 H   0  0  0  0  0  0  0  0  0  0  0  0
    1.4907    0.2345   -1.7526 H   0  0  0  0  0  0  0  0  0  0  0  0
    2.7635    2.3111   -2.0175 H   0  0  0  0  0  0  0  0  0  0  0  0
    2.2767    5.0991    0.0692 H   0  0  0  0  0  0  0  0  0  0  0  0
    0.6376    4.0274    1.2914 H   0  0  0  0  0  0  0  0  0  0  0  0
   -0.6531    1.9640    1.5284 H   0  0  0  0  0  0  0  0  0  0  0  0
    1.1195   -2.2828   -2.3621 H   0  0  0  0  0  0  0  0  0  0  0  0
    2.1495   -3.7065   -2.2428 H   0  0  0  0  0  0  0  0  0  0  0  0
    0.6193   -3.6289   -1.3621 H   0  0  0  0  0  0  0  0  0  0  0  0
    4.1040   -3.2902   -0.9843 H   0  0  0  0  0  0  0  0  0  0  0  0
    5.2755   -2.2961    0.9438 H   0  0  0  0  0  0  0  0  0  0  0  0
    4.0192   -0.8676    2.5409 H   0  0  0  0  0  0  0  0  0  0  0  0
    1.6163   -0.4522    2.1870 H   0  0  0  0  0  0  0  0  0  0  0  0
 21 22  2  0
 21 20  1  0
 22 23  1  0
 20 18  2  0
 23 17  2  0
 18 17  1  0
 18 19  1  0
 17 16  1  0
 16  8  2  0
 13 12  1  0
 12 14  2  0
 12 11  1  0
 14 15  1  0
 11 10  2  0
 15  9  2  0
 10  9  1  0
  9  8  1  0
  8  7  1  0
  7  4  2  0
  7  6  1  0
  4  3  1  0
  6  5  2  0
  3  2  2  0
  5  2  1  0
  2  1  1  0
  1 24  1  0
  3 25  1  0
  4 26  1  0
  5 27  1  0
  6 28  1  0
 10 29  1  0
 11 30  1  0
 13 31  1  0
 14 32  1  0
 15 33  1  0
 19 34  1  0
 19 35  1  0
 19 36  1  0
 20 37  1  0
 21 38  1  0
 22 39  1  0
 23 40  1  0
M  END
