
     RDKit          3D

 47 50  0  0  0  0  0  0  0  0999 V2000
    3.7858    2.4917    0.1794 C   0  0  0  0  0  0  0  0  0  0  0  0
    4.4187    1.3592   -0.4838 N   0  0  0  0  0  0  0  0  0  0  0  0
    3.7835    0.9697   -1.7399 C   0  0  0  0  0  0  0  0  0  0  0  0
    5.0994    0.2028    0.4619 S   0  0  1  0  0  0  0  0  0  0  0  0
    5.7098   -0.7611   -0.4286 O   0  0  0  0  0  0  0  0  0  0  0  0
    5.8836    0.8703    1.4798 O   0  0  0  0  0  0  0  0  0  0  0  0
    3.9343   -0.6301    1.3313 N   0  0  0  0  0  0  0  0  0  0  0  0
    2.9250   -1.3285    0.6342 C   0  0  0  0  0  0  0  0  0  0  0  0
    1.6238   -0.8475    0.5979 C   0  0  0  0  0  0  0  0  0  0  0  0
    1.3315    0.2652    1.2716 F   0  0  0  0  0  0  0  0  0  0  0  0
    3.2015   -2.5282   -0.0122 C   0  0  0  0  0  0  0  0  0  0  0  0
    2.2115   -3.1993   -0.7097 C   0  0  0  0  0  0  0  0  0  0  0  0
    0.9437   -2.6577   -0.7595 C   0  0  0  0  0  0  0  0  0  0  0  0
   -0.0174   -3.2846   -1.4459 F   0  0  0  0  0  0  0  0  0  0  0  0
    0.6093   -1.4751   -0.1117 C   0  0  0  0  0  0  0  0  0  0  0  0
   -0.6774   -0.9476   -0.1711 N   0  0  0  0  0  0  0  0  0  0  0  0
   -0.9431    0.2710   -0.7288 C   0  0  0  0  0  0  0  0  0  0  0  0
    0.0892    0.9522   -1.2091 N   0  0  0  0  0  0  0  0  0  0  0  0
   -0.1121    2.1314   -1.7754 C   0  0  0  0  0  0  0  0  0  0  0  0
   -1.3632    2.7022   -1.9244 C   0  0  0  0  0  0  0  0  0  0  0  0
   -2.4437    2.0018   -1.4148 C   0  0  0  0  0  0  0  0  0  0  0  0
   -2.2687    0.7796   -0.7764 C   0  0  0  0  0  0  0  0  0  0  0  0
   -3.4177    0.0679   -0.2075 C   0  0  0  0  0  0  0  0  0  0  0  0
   -3.3890   -1.2636   -0.1413 N   0  0  0  0  0  0  0  0  0  0  0  0
   -4.4323   -1.9375    0.3409 C   0  0  0  0  0  0  0  0  0  0  0  0
   -5.5640   -1.4370    0.7925 N   0  0  0  0  0  0  0  0  0  0  0  0
   -5.6129   -0.1095    0.7702 C   0  0  0  0  0  0  0  0  0  0  0  0
   -4.5620    0.6905    0.2866 C   0  0  0  0  0  0  0  0  0  0  0  0
   -4.9941    1.9733    0.4793 N   0  0  0  0  0  0  0  0  0  0  0  0
   -6.2220    1.8916    1.0346 C   0  0  0  0  0  0  0  0  0  0  0  0
   -6.6368    0.6667    1.2205 N   0  0  0  0  0  0  0  0  0  0  0  0
    2.7554    2.2802    0.4715 H   0  0  0  0  0  0  0  0  0  0  0  0
    4.3503    2.7987    1.0551 H   0  0  0  0  0  0  0  0  0  0  0  0
    3.7772    3.3259   -0.5204 H   0  0  0  0  0  0  0  0  0  0  0  0
    3.8207    1.8300   -2.4076 H   0  0  0  0  0  0  0  0  0  0  0  0
    4.3237    0.1569   -2.2143 H   0  0  0  0  0  0  0  0  0  0  0  0
    2.7378    0.6814   -1.6064 H   0  0  0  0  0  0  0  0  0  0  0  0
    3.6341   -0.1201    2.1551 H   0  0  0  0  0  0  0  0  0  0  0  0
    4.1985   -2.9403    0.0349 H   0  0  0  0  0  0  0  0  0  0  0  0
    2.4257   -4.1311   -1.2147 H   0  0  0  0  0  0  0  0  0  0  0  0
   -1.4752   -1.5699   -0.0836 H   0  0  0  0  0  0  0  0  0  0  0  0
    0.7723    2.6384   -2.1452 H   0  0  0  0  0  0  0  0  0  0  0  0
   -1.4912    3.6501   -2.4257 H   0  0  0  0  0  0  0  0  0  0  0  0
   -3.4384    2.4050   -1.5531 H   0  0  0  0  0  0  0  0  0  0  0  0
   -4.3288   -3.0159    0.3574 H   0  0  0  0  0  0  0  0  0  0  0  0
   -4.4963    2.8332    0.3100 H   0  0  0  0  0  0  0  0  0  0  0  0
   -6.7765    2.7821    1.2887 H   0  0  0  0  0  0  0  0  0  0  0  0
  6  4  2  0
  4  7  1  1
  4  5  2  0
  4  2  1  0
  7  8  1  0
  3  2  1  0
 10  9  1  0
  2  1  1  0
 19 20  1  0
 19 18  2  0
  8  9  2  0
  8 11  1  0
 20 21  2  0
  9 15  1  0
 18 17  1  0
 21 22  1  0
 17 22  2  0
 17 16  1  0
 11 12  2  0
 15 16  1  0
 15 13  2  0
 22 23  1  0
 29 28  1  0
 29 30  1  0
 23 28  1  0
 23 24  2  0
 12 13  1  0
 28 27  2  0
 13 14  1  0
 30 31  2  0
 24 25  1  0
 27 31  1  0
 27 26  1  0
 25 26  2  0
  1 32  1  0
  1 33  1  0
  1 34  1  0
  3 35  1  0
  3 36  1  0
  3 37  1  0
  7 38  1  0
 11 39  1  0
 12 40  1  0
 16 41  1  0
 19 42  1  0
 20 43  1  0
 21 44  1  0
 25 45  1  0
 29 46  1  0
 30 47  1  0
M  END
