
     RDKit          3D

 42 44  0  0  0  0  0  0  0  0999 V2000
    2.7668   -1.5303    0.4675 C   0  0  0  0  0  0  0  0  0  0  0  0
    1.3893   -1.4535    0.4659 C   0  0  0  0  0  0  0  0  0  0  0  0
   -3.5799   -0.1042    0.0526 C   0  0  0  0  0  0  0  0  0  0  0  0
    4.8393    1.9990   -0.8994 O   0  0  0  0  0  0  0  0  0  0  0  0
   -7.1825   -0.6701   -0.9186 C   0  0  0  0  0  0  0  0  0  0  0  0
   -1.5286   -1.3474   -0.2754 C   0  0  0  0  0  0  0  0  0  0  0  0
   -5.7968   -0.7313   -0.9119 C   0  0  0  0  0  0  0  0  0  0  0  0
   -5.0544   -0.0380    0.0466 C   0  0  0  0  0  0  0  0  0  0  0  0
   -1.4249    0.9459    0.3917 C   0  0  0  0  0  0  0  0  0  0  0  0
   -2.8080    1.0090    0.3886 C   0  0  0  0  0  0  0  0  0  0  0  0
   -5.7414    0.7181    0.9988 C   0  0  0  0  0  0  0  0  0  0  0  0
    3.5485   -0.4464    0.0530 C   0  0  0  0  0  0  0  0  0  0  0  0
    0.7146   -0.3030    0.0579 C   0  0  0  0  0  0  0  0  0  0  0  0
    2.8821    0.7312   -0.3644 C   0  0  0  0  0  0  0  0  0  0  0  0
    2.8470    2.9356   -1.1620 O   0  0  0  0  0  0  0  0  0  0  0  0
   -2.9115   -1.2839   -0.2782 C   0  0  0  0  0  0  0  0  0  0  0  0
    3.6276    1.9245   -0.8262 C   0  0  0  0  0  0  0  0  0  0  0  0
    1.4870    0.7730   -0.3517 C   0  0  0  0  0  0  0  0  0  0  0  0
   -7.8539    0.0861    0.0334 C   0  0  0  0  0  0  0  0  0  0  0  0
   -0.7575   -0.2333    0.0584 C   0  0  0  0  0  0  0  0  0  0  0  0
   -7.1271    0.7798    0.9923 C   0  0  0  0  0  0  0  0  0  0  0  0
    4.9334   -0.4878    0.0366 N   0  0  0  0  0  0  0  0  0  0  0  0
    7.2374   -1.1134    0.2982 C   0  0  0  0  0  0  0  0  0  0  0  0
    5.7820   -1.4868    0.4167 C   0  0  0  0  0  0  0  0  0  0  0  0
    5.4259   -2.5703    0.8407 O   0  0  0  0  0  0  0  0  0  0  0  0
    3.2373   -2.4382    0.8019 H   0  0  0  0  0  0  0  0  0  0  0  0
    0.8305   -2.3138    0.8125 H   0  0  0  0  0  0  0  0  0  0  0  0
   -3.2891    1.9453    0.6416 H   0  0  0  0  0  0  0  0  0  0  0  0
   -3.4753   -2.1727   -0.5318 H   0  0  0  0  0  0  0  0  0  0  0  0
   -5.2876   -1.3078   -1.6746 H   0  0  0  0  0  0  0  0  0  0  0  0
   -8.9351    0.1345    0.0282 H   0  0  0  0  0  0  0  0  0  0  0  0
   -1.0469   -2.2769   -0.5523 H   0  0  0  0  0  0  0  0  0  0  0  0
   -5.1907    1.2456    1.7679 H   0  0  0  0  0  0  0  0  0  0  0  0
   -0.8614    1.8270    0.6730 H   0  0  0  0  0  0  0  0  0  0  0  0
   -7.6406    1.3643    1.7446 H   0  0  0  0  0  0  0  0  0  0  0  0
    5.3596    0.3688   -0.3009 H   0  0  0  0  0  0  0  0  0  0  0  0
    0.9874    1.6682   -0.6940 H   0  0  0  0  0  0  0  0  0  0  0  0
    3.3869    3.6844   -1.4568 H   0  0  0  0  0  0  0  0  0  0  0  0
    7.5894   -0.7437    1.2631 H   0  0  0  0  0  0  0  0  0  0  0  0
    7.8244   -1.9938    0.0465 H   0  0  0  0  0  0  0  0  0  0  0  0
    7.4262   -0.3398   -0.4440 H   0  0  0  0  0  0  0  0  0  0  0  0
   -7.7385   -1.2078   -1.6756 H   0  0  0  0  0  0  0  0  0  0  0  0
  1  2  2  0
  1 12  1  0
  2 13  1  0
  3  8  1  0
  3 10  2  0
  3 16  1  0
  4 17  2  0
  5  7  2  0
  5 19  1  0
  6 16  2  0
  6 20  1  0
  7  8  1  0
  8 11  2  0
  9 10  1  0
  9 20  2  0
 11 21  1  0
 12 14  2  0
 12 22  1  0
 13 18  2  0
 13 20  1  0
 14 17  1  0
 14 18  1  0
 15 17  1  0
 19 21  2  0
 22 24  1  0
 23 24  1  0
 24 25  2  0
  1 26  1  0
  2 27  1  0
 10 28  1  0
 16 29  1  0
  5 42  1  0
  7 30  1  0
 19 31  1  0
  6 32  1  0
 11 33  1  0
  9 34  1  0
 21 35  1  0
 22 36  1  0
 18 37  1  0
 15 38  1  0
 23 39  1  0
 23 40  1  0
 23 41  1  0
M  END
