
     RDKit          3D

 49 52  0  0  0  0  0  0  0  0999 V2000
   -3.0358   -2.9588    1.7785 C   0  0  0  0  0  0  0  0  0  0  0  0
   -4.2743   -3.5678    1.5928 C   0  0  0  0  0  0  0  0  0  0  0  0
   -2.7345   -1.7600    1.1476 C   0  0  0  0  0  0  0  0  0  0  0  0
   -0.6913   -0.6202   -1.1595 C   0  0  0  0  0  0  0  0  0  0  0  0
   -5.2344   -2.9780    0.7786 C   0  0  0  0  0  0  0  0  0  0  0  0
    0.6610   -0.8993   -1.0764 C   0  0  0  0  0  0  0  0  0  0  0  0
   -3.6886   -1.1733    0.3213 C   0  0  0  0  0  0  0  0  0  0  0  0
   -1.2180    0.5572   -0.6331 C   0  0  0  0  0  0  0  0  0  0  0  0
   -0.3406    1.4627   -0.0280 C   0  0  0  0  0  0  0  0  0  0  0  0
   -4.9366   -1.7816    0.1476 C   0  0  0  0  0  0  0  0  0  0  0  0
    1.5264   -0.0077   -0.4605 C   0  0  0  0  0  0  0  0  0  0  0  0
    1.0203    1.1795    0.0733 C   0  0  0  0  0  0  0  0  0  0  0  0
   -3.6695    0.0976   -0.4115 C   0  0  0  0  0  0  0  0  0  0  0  0
   -2.6484    0.8693   -0.7890 C   0  0  0  0  0  0  0  0  0  0  0  0
   -0.8720    2.7215    0.5666 C   0  0  0  0  0  0  0  0  0  0  0  0
    7.0945   -1.0260   -0.5204 C   0  0  0  0  0  0  0  0  0  0  0  0
   -5.7993   -0.9586   -0.7624 C   0  0  0  0  0  0  0  0  0  0  0  0
    3.0812    1.5338    1.1061 C   0  0  0  0  0  0  0  0  0  0  0  0
   -5.1211    0.4237   -0.7025 C   0  0  2  0  0  0  0  0  0  0  0  0
    3.7035    0.7657   -0.0410 C   0  0  1  0  0  0  0  0  0  0  0  0
    5.0555    0.1913    0.3256 C   0  0  0  0  0  0  0  0  0  0  0  0
   -0.3007    3.7994    0.0508 O   0  0  0  0  0  0  0  0  0  0  0  0
    7.6493   -0.9019    0.5429 O   0  0  0  0  0  0  0  0  0  0  0  0
   -1.7399    2.7550    1.4008 O   0  0  0  0  0  0  0  0  0  0  0  0
    7.6489   -1.6388   -1.5613 O   0  0  0  0  0  0  0  0  0  0  0  0
    1.8157    2.0531    0.7247 O   0  0  0  0  0  0  0  0  0  0  0  0
    2.8411   -0.3116   -0.3978 O   0  0  0  0  0  0  0  0  0  0  0  0
   -5.2553    1.2115   -1.8506 O   0  0  0  0  0  0  0  0  0  0  0  0
   -2.3044   -3.4198    2.4294 H   0  0  0  0  0  0  0  0  0  0  0  0
   -4.4937   -4.5020    2.0936 H   0  0  0  0  0  0  0  0  0  0  0  0
   -1.7746   -1.2907    1.3146 H   0  0  0  0  0  0  0  0  0  0  0  0
   -6.2028   -3.4450    0.6465 H   0  0  0  0  0  0  0  0  0  0  0  0
   -1.3475   -1.3207   -1.6581 H   0  0  0  0  0  0  0  0  0  0  0  0
    1.0587   -1.8148   -1.4959 H   0  0  0  0  0  0  0  0  0  0  0  0
   -2.8844    1.8082   -1.2816 H   0  0  0  0  0  0  0  0  0  0  0  0
   -5.7555   -1.3440   -1.7862 H   0  0  0  0  0  0  0  0  0  0  0  0
   -6.8478   -0.9337   -0.4626 H   0  0  0  0  0  0  0  0  0  0  0  0
   -5.5203    0.9483    0.1785 H   0  0  0  0  0  0  0  0  0  0  0  0
   -0.6535    4.5982    0.4730 H   0  0  0  0  0  0  0  0  0  0  0  0
    5.7900    0.1443   -1.7081 H   0  0  0  0  0  0  0  0  0  0  0  0
    5.1161   -1.3738   -1.1773 H   0  0  0  0  0  0  0  0  0  0  0  0
    8.5336   -1.9561   -1.3264 H   0  0  0  0  0  0  0  0  0  0  0  0
    2.9750    0.8877    1.9850 H   0  0  0  0  0  0  0  0  0  0  0  0
    3.6993    2.3880    1.3776 H   0  0  0  0  0  0  0  0  0  0  0  0
   -6.1349    1.6005   -1.8502 H   0  0  0  0  0  0  0  0  0  0  0  0
    5.6855    1.0198    0.6566 H   0  0  0  0  0  0  0  0  0  0  0  0
    4.9474   -0.4844    1.1772 H   0  0  0  0  0  0  0  0  0  0  0  0
    3.8066    1.4400   -0.9021 H   0  0  0  0  0  0  0  0  0  0  0  0
    5.7151   -0.5225   -0.8433 C   0  0  0  0  0  0  0  0  0  0  0  0
  1  2  2  0
  1  3  1  0
  2  5  1  0
  3  7  2  0
  4  6  2  0
  4  8  1  0
  5 10  2  0
  6 11  1  0
  7 10  1  0
  7 13  1  0
  8  9  2  0
  8 14  1  0
  9 12  1  0
  9 15  1  0
 10 17  1  0
 11 12  2  0
 11 27  1  0
 12 26  1  0
 13 14  2  0
 13 19  1  0
 15 22  1  0
 15 24  2  0
 16 49  1  0
 16 23  2  0
 16 25  1  0
 17 19  1  0
 18 20  1  0
 18 26  1  0
 19 28  1  0
 20 21  1  0
 20 27  1  0
 49 21  1  0
  1 29  1  0
  2 30  1  0
  3 31  1  0
  5 32  1  0
  4 33  1  0
  6 34  1  0
 14 35  1  0
 17 36  1  0
 17 37  1  0
 19 38  1  1
 22 39  1  0
 49 40  1  0
 49 41  1  0
 25 42  1  0
 18 43  1  0
 18 44  1  0
 28 45  1  0
 21 46  1  0
 21 47  1  0
 20 48  1  6
M  END
