
     RDKit          3D

 39 43  0  0  0  0  0  0  0  0999 V2000
    3.2518    3.0948   -0.1766 N   0  0  0  0  0  0  0  0  0  0  0  0
    0.8330   -0.0896    0.3633 N   0  0  0  0  0  0  0  0  0  0  0  0
    2.9559    0.7510   -0.3488 C   0  0  0  0  0  0  0  0  0  0  0  0
    3.3671   -0.4986   -0.6610 C   0  0  0  0  0  0  0  0  0  0  0  0
    1.2191   -1.3790    0.0560 C   0  0  0  0  0  0  0  0  0  0  0  0
    2.5057   -1.6096   -0.4662 C   0  0  0  0  0  0  0  0  0  0  0  0
    2.9100   -2.9143   -0.7825 C   0  0  0  0  0  0  0  0  0  0  0  0
    0.7861   -3.7322   -0.0728 C   0  0  0  0  0  0  0  0  0  0  0  0
   -0.4796    0.1390    0.8901 C   0  0  0  0  0  0  0  0  0  0  0  0
   -1.9519    0.3296    2.7598 C   0  0  0  0  0  0  0  0  0  0  0  0
   -2.8108    0.5267    0.5178 C   0  0  0  0  0  0  0  0  0  0  0  0
    3.8296    1.9181   -0.5458 C   0  0  0  0  0  0  0  0  0  0  0  0
    1.9668    3.2616    0.3418 C   0  0  0  0  0  0  0  0  0  0  0  0
    1.1815    2.1623    0.5096 N   0  0  0  0  0  0  0  0  0  0  0  0
    1.6460    0.9934    0.1857 C   0  0  0  0  0  0  0  0  0  0  0  0
    0.3548   -2.4582    0.2529 C   0  0  0  0  0  0  0  0  0  0  0  0
    2.0652   -3.9772   -0.5919 C   0  0  0  0  0  0  0  0  0  0  0  0
   -0.1069   -4.8298    0.1268 C   0  0  0  0  0  0  0  0  0  0  0  0
   -0.8226   -5.7178    0.2829 N   0  0  0  0  0  0  0  0  0  0  0  0
    1.5902    4.3802    0.6275 O   0  0  0  0  0  0  0  0  0  0  0  0
    4.9554    1.8471   -0.9937 O   0  0  0  0  0  0  0  0  0  0  0  0
   -0.6731    0.1345    2.2619 C   0  0  0  0  0  0  0  0  0  0  0  0
   -3.0171    0.5251    1.8952 C   0  0  0  0  0  0  0  0  0  0  0  0
   -1.5272    0.3328    0.0123 C   0  0  0  0  0  0  0  0  0  0  0  0
   -3.9073    0.7243   -0.4206 C   0  0  0  0  0  0  0  0  0  0  0  0
   -5.1903    0.9432   -0.1206 N   0  0  0  0  0  0  0  0  0  0  0  0
   -3.8188    0.7202   -1.7319 N   0  0  0  0  0  0  0  0  0  0  0  0
   -5.0462    0.9364   -2.1940 N   0  0  0  0  0  0  0  0  0  0  0  0
   -5.8797    1.0725   -1.2395 N   0  0  0  0  0  0  0  0  0  0  0  0
    3.8017    3.9374   -0.2930 H   0  0  0  0  0  0  0  0  0  0  0  0
    4.3594   -0.6624   -1.0633 H   0  0  0  0  0  0  0  0  0  0  0  0
    3.9029   -3.0730   -1.1815 H   0  0  0  0  0  0  0  0  0  0  0  0
   -2.1197    0.3281    3.8276 H   0  0  0  0  0  0  0  0  0  0  0  0
   -0.6396   -2.3184    0.6502 H   0  0  0  0  0  0  0  0  0  0  0  0
    2.3742   -4.9834   -0.8346 H   0  0  0  0  0  0  0  0  0  0  0  0
    0.1632   -0.0187    2.9309 H   0  0  0  0  0  0  0  0  0  0  0  0
   -4.0049    0.6723    2.3117 H   0  0  0  0  0  0  0  0  0  0  0  0
   -1.3521    0.3294   -1.0556 H   0  0  0  0  0  0  0  0  0  0  0  0
   -5.6550    1.0211    0.7733 H   0  0  0  0  0  0  0  0  0  0  0  0
 21 12  2  0
 12  1  1  0
 12  3  1  0
  1 13  1  0
  3  4  2  0
  3 15  1  0
  4  6  1  0
 20 13  2  0
 13 14  1  0
 15 14  2  0
 15  2  1  0
  6  7  2  0
  6  5  1  0
  7 17  1  0
  2  5  1  0
  2  9  1  0
  5 16  2  0
 17  8  2  0
 22  9  1  0
 22 10  2  0
 16  8  1  0
  9 24  2  0
  8 18  1  0
 10 23  1  0
 18 19  3  0
 24 11  1  0
 23 11  2  0
 11 25  1  0
 25 27  2  0
 25 26  1  0
 27 28  1  0
 26 29  1  0
 28 29  2  0
  1 30  1  0
  4 31  1  0
  7 32  1  0
 10 33  1  0
 16 34  1  0
 17 35  1  0
 22 36  1  0
 23 37  1  0
 24 38  1  0
 26 39  1  0
M  END
