
     RDKit          3D

 31 33  0  0  0  0  0  0  0  0999 V2000
   -5.8534   -1.5956    0.0069 Cl  0  0  0  0  0  0  0  0  0  0  0  0
   -4.4174   -0.6355   -0.0363 C   0  0  0  0  0  0  0  0  0  0  0  0
   -4.3866    0.5730    0.6452 C   0  0  0  0  0  0  0  0  0  0  0  0
   -3.2359    1.3390    0.6006 C   0  0  0  0  0  0  0  0  0  0  0  0
   -3.3196   -1.0854   -0.7532 C   0  0  0  0  0  0  0  0  0  0  0  0
   -2.1632   -0.3223   -0.7688 C   0  0  0  0  0  0  0  0  0  0  0  0
   -2.1089    0.8950   -0.0915 C   0  0  0  0  0  0  0  0  0  0  0  0
   -0.9226    1.7879   -0.1311 C   0  0  0  0  0  0  0  0  0  0  0  0
   -1.0518    2.9969   -0.1455 O   0  0  0  0  0  0  0  0  0  0  0  0
    0.4296    1.2209   -0.1219 C   0  0  0  0  0  0  0  0  0  0  0  0
    0.6051   -0.0997    0.1508 O   0  0  0  0  0  0  0  0  0  0  0  0
    1.9362   -0.3238    0.1276 C   0  0  0  0  0  0  0  0  0  0  0  0
    2.5796   -1.5251    0.3551 C   0  0  0  0  0  0  0  0  0  0  0  0
    1.6146    1.8545   -0.3159 C   0  0  0  0  0  0  0  0  0  0  0  0
    2.6251    0.8572   -0.1618 C   0  0  0  0  0  0  0  0  0  0  0  0
    4.0170    0.8545   -0.2308 C   0  0  0  0  0  0  0  0  0  0  0  0
    4.6814   -0.3422   -0.0039 C   0  0  0  0  0  0  0  0  0  0  0  0
    3.9626   -1.5198    0.2847 C   0  0  0  0  0  0  0  0  0  0  0  0
    6.0276   -0.2970   -0.0754 O   0  0  0  0  0  0  0  0  0  0  0  0
    6.7672   -1.4772    0.1648 C   0  0  0  0  0  0  0  0  0  0  0  0
   -5.2487    0.9142    1.2015 H   0  0  0  0  0  0  0  0  0  0  0  0
   -3.2125    2.2842    1.1265 H   0  0  0  0  0  0  0  0  0  0  0  0
   -3.3607   -2.0196   -1.2957 H   0  0  0  0  0  0  0  0  0  0  0  0
   -1.3215   -0.6806   -1.3443 H   0  0  0  0  0  0  0  0  0  0  0  0
    2.0397   -2.4347    0.5804 H   0  0  0  0  0  0  0  0  0  0  0  0
    1.7506    2.8996   -0.5426 H   0  0  0  0  0  0  0  0  0  0  0  0
    4.5714    1.7574   -0.4527 H   0  0  0  0  0  0  0  0  0  0  0  0
    4.4831   -2.4511    0.4598 H   0  0  0  0  0  0  0  0  0  0  0  0
    7.8160   -1.2056    0.0758 H   0  0  0  0  0  0  0  0  0  0  0  0
    6.5926   -1.8748    1.1681 H   0  0  0  0  0  0  0  0  0  0  0  0
    6.5447   -2.2577   -0.5675 H   0  0  0  0  0  0  0  0  0  0  0  0
  1  2  1  0
  2  3  2  0
  2  5  1  0
  3  4  1  0
  4  7  2  0
  5  6  2  0
  6  7  1  0
  7  8  1  0
  8  9  2  0
  8 10  1  0
 10 11  1  0
 10 14  2  0
 11 12  1  0
 12 13  2  0
 12 15  1  0
 13 18  1  0
 14 15  1  0
 15 16  2  0
 16 17  1  0
 17 18  2  0
 17 19  1  0
 19 20  1  0
  3 21  1  0
  4 22  1  0
  5 23  1  0
  6 24  1  0
 13 25  1  0
 14 26  1  0
 16 27  1  0
 18 28  1  0
 20 29  1  0
 20 30  1  0
 20 31  1  0
M  END
