
     RDKit          3D

 21 21  0  0  0  0  0  0  0  0999 V2000
   -0.5088   -0.4074    0.1820 C   0  0  0  0  0  0  0  0  0  0  0  0
    0.9374   -0.1249    0.0747 C   0  0  0  0  0  0  0  0  0  0  0  0
    1.7912   -1.0704   -0.4981 C   0  0  0  0  0  0  0  0  0  0  0  0
    3.1439   -0.8039   -0.6382 C   0  0  0  0  0  0  0  0  0  0  0  0
    3.6695    0.3995   -0.1851 C   0  0  0  0  0  0  0  0  0  0  0  0
    2.8324    1.3378    0.4035 C   0  0  0  0  0  0  0  0  0  0  0  0
    1.4756    1.0813    0.5282 C   0  0  0  0  0  0  0  0  0  0  0  0
   -1.3322    0.6178   -0.0943 C   0  0  0  0  0  0  0  0  0  0  0  0
   -3.3347   -0.4669    0.1873 O   0  0  0  0  0  0  0  0  0  0  0  0
   -2.7570    0.5772   -0.0293 N   0  0  0  0  0  0  0  0  0  0  0  0
   -3.3328    1.6322   -0.2102 O   0  0  0  0  0  0  0  0  0  0  0  0
   -0.9166   -1.7938    0.5758 C   0  0  0  0  0  0  0  0  0  0  0  0
    1.3971   -2.0117   -0.8594 H   0  0  0  0  0  0  0  0  0  0  0  0
    3.7890   -1.5397   -1.0999 H   0  0  0  0  0  0  0  0  0  0  0  0
    4.7280    0.6014   -0.2841 H   0  0  0  0  0  0  0  0  0  0  0  0
    3.2357    2.2702    0.7755 H   0  0  0  0  0  0  0  0  0  0  0  0
    0.8384    1.8128    1.0089 H   0  0  0  0  0  0  0  0  0  0  0  0
   -0.9670    1.5860   -0.4008 H   0  0  0  0  0  0  0  0  0  0  0  0
   -1.5786   -1.7766    1.4400 H   0  0  0  0  0  0  0  0  0  0  0  0
   -1.4533   -2.2977   -0.2277 H   0  0  0  0  0  0  0  0  0  0  0  0
   -0.0475   -2.3912    0.8371 H   0  0  0  0  0  0  0  0  0  0  0  0
  9 10  2  0
 10 11  1  0
 10  8  1  0
  8  1  2  0
  3  4  1  0
  3  2  2  0
  1 12  1  0
  1  2  1  0
  4  5  2  0
  2  7  1  0
  5  6  1  0
  7  6  2  0
  3 13  1  0
  4 14  1  0
  5 15  1  0
  6 16  1  0
  7 17  1  0
  8 18  1  0
 12 19  1  0
 12 20  1  0
 12 21  1  0
M  CHG  2  10   1  11  -1
M  END
