
     RDKit          3D

 18 18  0  0  0  0  0  0  0  0999 V2000
    2.9385   -1.6961    1.9327 C   0  0  0  0  0  0  0  0  0  0  0  0
    2.9323   -1.5570    0.5458 C   0  0  0  0  0  0  0  0  0  0  0  0
    1.9035   -0.9234   -0.1348 C   0  0  0  0  0  0  0  0  0  0  0  0
    0.8320   -0.4159    0.5794 C   0  0  0  0  0  0  0  0  0  0  0  0
    0.7850   -0.5479    1.9577 C   0  0  0  0  0  0  0  0  0  0  0  0
    1.8288   -1.1854    2.6062 C   0  0  0  0  0  0  0  0  0  0  0  0
    4.0545   -2.3545    2.6790 C   0  0  0  0  0  0  0  0  0  0  0  0
    3.7092   -3.7661    3.0886 C   0  0  0  0  0  0  0  0  0  0  0  0
    4.2385   -2.2033   -0.3938 Cl  0  0  0  0  0  0  0  0  0  0  0  0
    1.7338   -1.3649    4.3275 Cl  0  0  0  0  0  0  0  0  0  0  0  0
    2.7423   -4.3743    2.7111 O   0  0  0  0  0  0  0  0  0  0  0  0
    4.6237   -4.2646    3.9085 O   0  0  0  0  0  0  0  0  0  0  0  0
    1.9386   -0.8317   -1.2113 H   0  0  0  0  0  0  0  0  0  0  0  0
    0.0245    0.0800    0.0589 H   0  0  0  0  0  0  0  0  0  0  0  0
   -0.0539   -0.1618    2.5194 H   0  0  0  0  0  0  0  0  0  0  0  0
    4.3254   -1.7782    3.5660 H   0  0  0  0  0  0  0  0  0  0  0  0
    4.9631   -2.3962    2.0749 H   0  0  0  0  0  0  0  0  0  0  0  0
    4.3995   -5.1777    4.1434 H   0  0  0  0  0  0  0  0  0  0  0  0
  1  2  2  0
  1  6  1  0
  1  7  1  0
  2  3  1  0
  2  9  1  0
  3  4  2  0
  3 13  1  0
  4  5  1  0
  4 14  1  0
  5  6  2  0
  5 15  1  0
  6 10  1  0
  7  8  1  0
  7 16  1  0
  7 17  1  0
  8 11  2  0
  8 12  1  0
 12 18  1  0
M  END
