
     RDKit          3D

 95 96  0  0  0  0  0  0  0  0999 V2000
   12.7826    0.9618    0.7060 C   0  0  2  0  0  0  0  0  0  0  0  0
   13.7571    0.1812    1.5946 C   0  0  0  0  0  0  0  0  0  0  0  0
   14.3917   -0.9885    0.8685 C   0  0  0  0  0  0  0  0  0  0  0  0
   13.3144   -1.9653    0.4305 C   0  0  0  0  0  0  0  0  0  0  0  0
   12.0954   -1.3111   -0.1660 C   0  0  0  0  0  0  0  0  0  0  0  0
   11.8391    0.0034   -0.0258 C   0  0  0  0  0  0  0  0  0  0  0  0
   10.6421    0.6489   -0.5803 C   0  0  0  0  0  0  0  0  0  0  0  0
    9.3803    0.2259   -0.4020 C   0  0  0  0  0  0  0  0  0  0  0  0
    8.1820    0.8845   -0.8930 C   0  0  0  0  0  0  0  0  0  0  0  0
    6.9844    0.3271   -0.5848 C   0  0  0  0  0  0  0  0  0  0  0  0
    5.6767    0.8118   -0.9289 C   0  0  0  0  0  0  0  0  0  0  0  0
    4.5474    0.1705   -0.5513 C   0  0  0  0  0  0  0  0  0  0  0  0
    3.1961    0.6011   -0.8234 C   0  0  0  0  0  0  0  0  0  0  0  0
    2.1775   -0.1841   -0.3802 C   0  0  0  0  0  0  0  0  0  0  0  0
    0.7731    0.0553   -0.5160 C   0  0  0  0  0  0  0  0  0  0  0  0
   -0.1688   -0.8005   -0.0487 C   0  0  0  0  0  0  0  0  0  0  0  0
   -1.5718   -0.5402   -0.1583 C   0  0  0  0  0  0  0  0  0  0  0  0
   -2.5953   -1.3146    0.2925 C   0  0  0  0  0  0  0  0  0  0  0  0
   -3.9393   -0.8231    0.1065 C   0  0  0  0  0  0  0  0  0  0  0  0
   -5.0757   -1.4346    0.5130 C   0  0  0  0  0  0  0  0  0  0  0  0
   -6.3657   -0.8399    0.3070 C   0  0  0  0  0  0  0  0  0  0  0  0
   -7.5763   -1.3329    0.6709 C   0  0  0  0  0  0  0  0  0  0  0  0
   -8.7376   -0.5141    0.3853 C   0  0  0  0  0  0  0  0  0  0  0  0
  -10.0155   -0.8314    0.6583 C   0  0  0  0  0  0  0  0  0  0  0  0
  -11.1489    0.0287    0.3150 C   0  0  0  0  0  0  0  0  0  0  0  0
  -11.1442    1.3582    0.5953 C   0  0  0  0  0  0  0  0  0  0  0  0
  -12.1744    2.2532    0.0342 C   0  0  0  0  0  0  0  0  0  0  0  0
  -12.1429    3.4535    0.2487 O   0  0  0  0  0  0  0  0  0  0  0  0
  -13.2207    1.6487   -0.8580 C   0  0  0  0  0  0  0  0  0  0  0  0
  -13.5388    0.2332   -0.4243 C   0  0  0  0  0  0  0  0  0  0  0  0
  -12.2988   -0.6611   -0.4124 C   0  0  1  0  0  0  0  0  0  0  0  0
   13.5592    1.8014   -0.3179 C   0  0  0  0  0  0  0  0  0  0  0  0
   11.9833    1.9058    1.6125 C   0  0  0  0  0  0  0  0  0  0  0  0
   11.2133   -2.2737   -0.9095 C   0  0  0  0  0  0  0  0  0  0  0  0
    8.3373    2.1385   -1.6982 C   0  0  0  0  0  0  0  0  0  0  0  0
    2.9943    1.8812   -1.5767 C   0  0  0  0  0  0  0  0  0  0  0  0
   -2.4050   -2.6291    0.9870 C   0  0  0  0  0  0  0  0  0  0  0  0
   -7.7785   -2.6494    1.3557 C   0  0  0  0  0  0  0  0  0  0  0  0
  -10.1128    2.0464    1.4443 C   0  0  0  0  0  0  0  0  0  0  0  0
  -11.8462   -0.9735   -1.8464 C   0  0  0  0  0  0  0  0  0  0  0  0
  -12.6865   -1.9749    0.2783 C   0  0  0  0  0  0  0  0  0  0  0  0
   14.5210    0.8653    1.9760 H   0  0  0  0  0  0  0  0  0  0  0  0
   13.2140   -0.1937    2.4697 H   0  0  0  0  0  0  0  0  0  0  0  0
   14.9459   -0.6337   -0.0048 H   0  0  0  0  0  0  0  0  0  0  0  0
   15.1166   -1.4941    1.5099 H   0  0  0  0  0  0  0  0  0  0  0  0
   13.7249   -2.6802   -0.2889 H   0  0  0  0  0  0  0  0  0  0  0  0
   12.9937   -2.5730    1.2865 H   0  0  0  0  0  0  0  0  0  0  0  0
   10.8111    1.5817   -1.1125 H   0  0  0  0  0  0  0  0  0  0  0  0
    9.2143   -0.6729    0.1850 H   0  0  0  0  0  0  0  0  0  0  0  0
    7.0021   -0.5884    0.0017 H   0  0  0  0  0  0  0  0  0  0  0  0
    5.5995    1.7271   -1.5046 H   0  0  0  0  0  0  0  0  0  0  0  0
    4.6484   -0.7495    0.0193 H   0  0  0  0  0  0  0  0  0  0  0  0
    2.4493   -1.0979    0.1426 H   0  0  0  0  0  0  0  0  0  0  0  0
    0.4396    0.9659   -1.0036 H   0  0  0  0  0  0  0  0  0  0  0  0
    0.1619   -1.7135    0.4359 H   0  0  0  0  0  0  0  0  0  0  0  0
   -1.8379    0.3940   -0.6469 H   0  0  0  0  0  0  0  0  0  0  0  0
   -4.0301    0.1349   -0.3997 H   0  0  0  0  0  0  0  0  0  0  0  0
   -5.0177   -2.3911    1.0196 H   0  0  0  0  0  0  0  0  0  0  0  0
   -6.3574    0.1269   -0.1907 H   0  0  0  0  0  0  0  0  0  0  0  0
   -8.5319    0.4331   -0.1052 H   0  0  0  0  0  0  0  0  0  0  0  0
  -10.2394   -1.8006    1.0889 H   0  0  0  0  0  0  0  0  0  0  0  0
  -14.1079    2.2838   -0.8525 H   0  0  0  0  0  0  0  0  0  0  0  0
  -12.8361    1.6611   -1.8842 H   0  0  0  0  0  0  0  0  0  0  0  0
  -13.9723    0.2562    0.5808 H   0  0  0  0  0  0  0  0  0  0  0  0
  -14.2949   -0.2065   -1.0789 H   0  0  0  0  0  0  0  0  0  0  0  0
   14.2197    2.5088    0.1903 H   0  0  0  0  0  0  0  0  0  0  0  0
   14.1709    1.1779   -0.9705 H   0  0  0  0  0  0  0  0  0  0  0  0
   12.8889    2.3821   -0.9537 H   0  0  0  0  0  0  0  0  0  0  0  0
   11.3530    1.3474    2.3076 H   0  0  0  0  0  0  0  0  0  0  0  0
   12.6664    2.5219    2.2012 H   0  0  0  0  0  0  0  0  0  0  0  0
   11.3362    2.5808    1.0503 H   0  0  0  0  0  0  0  0  0  0  0  0
   11.8218   -2.9522   -1.5115 H   0  0  0  0  0  0  0  0  0  0  0  0
   10.6457   -2.9017   -0.2169 H   0  0  0  0  0  0  0  0  0  0  0  0
   10.4974   -1.7866   -1.5674 H   0  0  0  0  0  0  0  0  0  0  0  0
    8.9013    1.9450   -2.6133 H   0  0  0  0  0  0  0  0  0  0  0  0
    7.3861    2.5782   -1.9872 H   0  0  0  0  0  0  0  0  0  0  0  0
    8.8924    2.8959   -1.1409 H   0  0  0  0  0  0  0  0  0  0  0  0
    3.3935    1.8000   -2.5900 H   0  0  0  0  0  0  0  0  0  0  0  0
    1.9490    2.1658   -1.6591 H   0  0  0  0  0  0  0  0  0  0  0  0
    3.5221    2.7063   -1.0951 H   0  0  0  0  0  0  0  0  0  0  0  0
   -2.7687   -2.5814    2.0156 H   0  0  0  0  0  0  0  0  0  0  0  0
   -2.9700   -3.4194    0.4895 H   0  0  0  0  0  0  0  0  0  0  0  0
   -1.3653   -2.9433    1.0214 H   0  0  0  0  0  0  0  0  0  0  0  0
   -8.2500   -2.5144    2.3316 H   0  0  0  0  0  0  0  0  0  0  0  0
   -8.4403   -3.2936    0.7727 H   0  0  0  0  0  0  0  0  0  0  0  0
   -6.8485   -3.1903    1.5111 H   0  0  0  0  0  0  0  0  0  0  0  0
   -9.4127    2.6343    0.8473 H   0  0  0  0  0  0  0  0  0  0  0  0
  -10.5951    2.7405    2.1330 H   0  0  0  0  0  0  0  0  0  0  0  0
   -9.5315    1.3410    2.0314 H   0  0  0  0  0  0  0  0  0  0  0  0
  -10.9805   -1.6370   -1.8492 H   0  0  0  0  0  0  0  0  0  0  0  0
  -12.6496   -1.4679   -2.3960 H   0  0  0  0  0  0  0  0  0  0  0  0
  -11.5693   -0.0716   -2.3940 H   0  0  0  0  0  0  0  0  0  0  0  0
  -12.8991   -1.8258    1.3385 H   0  0  0  0  0  0  0  0  0  0  0  0
  -13.5906   -2.3693   -0.1893 H   0  0  0  0  0  0  0  0  0  0  0  0
  -11.9193   -2.7432    0.1879 H   0  0  0  0  0  0  0  0  0  0  0  0
  2  1  1  0
  1 33  1  1
  1  6  1  0
  1 32  1  0
  3  2  1  0
  2 42  1  0
  2 43  1  0
  3  4  1  0
  3 44  1  0
  3 45  1  0
  4  5  1  0
  4 46  1  0
  4 47  1  0
  5 34  1  0
  5  6  2  0
  6  7  1  0
  7  8  2  0
  7 48  1  0
  8  9  1  0
  8 49  1  0
  9 10  2  0
  9 35  1  0
 10 11  1  0
 10 50  1  0
 11 12  2  0
 11 51  1  0
 12 13  1  0
 12 52  1  0
 13 14  2  0
 13 36  1  0
 14 15  1  0
 14 53  1  0
 15 16  2  0
 15 54  1  0
 16 17  1  0
 16 55  1  0
 17 18  2  0
 17 56  1  0
 37 18  1  0
 18 19  1  0
 19 20  2  0
 19 57  1  0
 20 21  1  0
 20 58  1  0
 21 22  2  0
 21 59  1  0
 38 22  1  0
 22 23  1  0
 23 24  2  0
 23 60  1  0
 24 25  1  0
 24 61  1  0
 31 25  1  0
 25 26  2  0
 26 39  1  0
 26 27  1  0
 29 27  1  0
 27 28  2  0
 30 29  1  0
 29 62  1  0
 29 63  1  0
 31 30  1  0
 30 64  1  0
 30 65  1  0
 31 40  1  6
 41 31  1  0
 32 66  1  0
 32 67  1  0
 32 68  1  0
 33 69  1  0
 33 70  1  0
 33 71  1  0
 34 72  1  0
 34 73  1  0
 34 74  1  0
 35 75  1  0
 35 76  1  0
 35 77  1  0
 36 78  1  0
 36 79  1  0
 36 80  1  0
 37 81  1  0
 37 82  1  0
 37 83  1  0
 38 84  1  0
 38 85  1  0
 38 86  1  0
 39 87  1  0
 39 88  1  0
 39 89  1  0
 40 90  1  0
 40 91  1  0
 40 92  1  0
 41 93  1  0
 41 94  1  0
 41 95  1  0
M  END
