
     RDKit          3D

 32 34  0  0  0  0  0  0  0  0999 V2000
   -1.5841    0.9949   -0.1866 C   0  0  0  0  0  0  0  0  0  0  0  0
   -0.6969   -0.0766   -0.3432 C   0  0  0  0  0  0  0  0  0  0  0  0
    0.6451    0.1343   -0.6487 C   0  0  0  0  0  0  0  0  0  0  0  0
    1.0917    1.4445   -0.7949 C   0  0  0  0  0  0  0  0  0  0  0  0
    0.2095    2.5005   -0.6225 C   0  0  0  0  0  0  0  0  0  0  0  0
   -1.1352    2.3067   -0.3035 C   0  0  0  0  0  0  0  0  0  0  0  0
   -2.9733    0.4817    0.1362 C   0  0  0  0  0  0  0  0  0  0  0  0
   -2.7379   -0.9873    0.1587 C   0  0  0  0  0  0  0  0  0  0  0  0
   -1.4427   -1.3074   -0.1236 C   0  0  0  0  0  0  0  0  0  0  0  0
   -3.6330   -2.4105    0.4142 S   0  0  0  0  0  0  0  0  0  0  0  0
   -2.1881   -3.3249    0.1228 C   0  0  0  0  0  0  0  0  0  0  0  0
   -1.1290   -2.6300   -0.1435 N   0  0  0  0  0  0  0  0  0  0  0  0
    1.3932   -0.9748   -0.7958 O   0  0  0  0  0  0  0  0  0  0  0  0
    2.7586   -0.8827   -1.1368 C   0  0  0  0  0  0  0  0  0  0  0  0
    3.5210    0.5500    1.1646 O   0  0  0  0  0  0  0  0  0  0  0  0
   -2.0726    3.4522   -0.1237 C   0  0  0  0  0  0  0  0  0  0  0  0
   -1.5206    4.6028    0.2946 N   0  0  0  0  0  0  0  0  0  0  0  0
   -3.2708    3.3412   -0.3501 O   0  0  0  0  0  0  0  0  0  0  0  0
    3.7723   -0.6708    0.3674 P   0  0  1  0  0  0  0  0  0  0  0  0
    3.4957   -1.9646    1.2737 O   0  0  0  0  0  0  0  0  0  0  0  0
    5.2263   -0.8310   -0.2867 O   0  0  0  0  0  0  0  0  0  0  0  0
    2.1199    1.6729   -1.0331 H   0  0  0  0  0  0  0  0  0  0  0  0
    0.5968    3.5014   -0.7625 H   0  0  0  0  0  0  0  0  0  0  0  0
   -3.3424    0.8702    1.0881 H   0  0  0  0  0  0  0  0  0  0  0  0
   -3.6975    0.7743   -0.6253 H   0  0  0  0  0  0  0  0  0  0  0  0
   -2.2098   -4.4047    0.1705 H   0  0  0  0  0  0  0  0  0  0  0  0
    3.0203   -1.8260   -1.6197 H   0  0  0  0  0  0  0  0  0  0  0  0
    2.9698   -0.0874   -1.8562 H   0  0  0  0  0  0  0  0  0  0  0  0
   -0.5743    4.6564    0.6285 H   0  0  0  0  0  0  0  0  0  0  0  0
   -2.1051    5.4084    0.4489 H   0  0  0  0  0  0  0  0  0  0  0  0
    3.6817   -2.8190    0.8626 H   0  0  0  0  0  0  0  0  0  0  0  0
    5.9629   -0.6324    0.3086 H   0  0  0  0  0  0  0  0  0  0  0  0
  1  2  1  0
  1  6  2  0
  1  7  1  0
  2  3  2  0
  2  9  1  0
  3  4  1  0
  3 13  1  0
  4  5  2  0
  5  6  1  0
  6 16  1  0
  7  8  1  0
  8  9  2  0
  8 10  1  0
  9 12  1  0
 10 11  1  0
 11 12  2  0
 13 14  1  0
 14 19  1  0
 15 19  2  0
 16 17  1  0
 16 18  2  0
 19 20  1  1
 19 21  1  0
  4 22  1  0
  5 23  1  0
  7 24  1  0
  7 25  1  0
 11 26  1  0
 14 27  1  0
 14 28  1  0
 17 29  1  0
 17 30  1  0
 20 31  1  0
 21 32  1  0
M  END
