
     RDKit          3D

 22 23  0  0  0  0  0  0  0  0999 V2000
    1.3901   -0.9207    0.6985 C   0  0  0  0  0  0  0  0  0  0  0  0
    2.6363   -1.5223    0.7409 C   0  0  0  0  0  0  0  0  0  0  0  0
    3.6995   -0.8848    0.1204 C   0  0  0  0  0  0  0  0  0  0  0  0
    3.5874    0.2818   -0.5085 N   0  0  0  0  0  0  0  0  0  0  0  0
    2.3981    0.8607   -0.5315 C   0  0  0  0  0  0  0  0  0  0  0  0
    1.2582    0.3023    0.0473 C   0  0  0  0  0  0  0  0  0  0  0  0
   -0.0201    1.0554    0.0009 C   0  0  0  0  0  0  0  0  0  0  0  0
   -0.0224    2.2689    0.0002 O   0  0  0  0  0  0  0  0  0  0  0  0
   -1.2948    0.2966   -0.0459 C   0  0  0  0  0  0  0  0  0  0  0  0
   -1.4175   -0.9343   -0.6837 C   0  0  0  0  0  0  0  0  0  0  0  0
   -2.6608   -1.5419   -0.7274 C   0  0  0  0  0  0  0  0  0  0  0  0
   -3.7309   -0.9017   -0.1217 C   0  0  0  0  0  0  0  0  0  0  0  0
   -3.6279    0.2725    0.4945 N   0  0  0  0  0  0  0  0  0  0  0  0
   -2.4413    0.8566    0.5189 C   0  0  0  0  0  0  0  0  0  0  0  0
    0.5441   -1.3881    1.1860 H   0  0  0  0  0  0  0  0  0  0  0  0
    2.7849   -2.4653    1.2471 H   0  0  0  0  0  0  0  0  0  0  0  0
    4.6862   -1.3335    0.1341 H   0  0  0  0  0  0  0  0  0  0  0  0
    2.3316    1.8097   -1.0522 H   0  0  0  0  0  0  0  0  0  0  0  0
   -0.5664   -1.4039   -1.1601 H   0  0  0  0  0  0  0  0  0  0  0  0
   -2.8021   -2.4914   -1.2239 H   0  0  0  0  0  0  0  0  0  0  0  0
   -4.7155   -1.3549   -0.1368 H   0  0  0  0  0  0  0  0  0  0  0  0
   -2.3823    1.8119    1.0289 H   0  0  0  0  0  0  0  0  0  0  0  0
 12 11  1  0
 12 13  2  0
 11 10  2  0
 13 14  1  0
 10  9  1  0
  2  1  2  0
  2  3  1  0
  1  6  1  0
 14  9  2  0
  9  7  1  0
  3  4  2  0
  6  7  1  0
  6  5  2  0
  7  8  2  0
  4  5  1  0
  1 15  1  0
  2 16  1  0
  3 17  1  0
  5 18  1  0
 10 19  1  0
 11 20  1  0
 12 21  1  0
 14 22  1  0
M  END
