
     RDKit          3D

 67 71  0  0  0  0  0  0  0  0999 V2000
    1.9962   -0.3046    0.5023 N   0  0  0  0  0  0  0  0  0  0  0  0
    0.5712   -0.3315    0.6151 C   0  0  2  0  0  0  0  0  0  0  0  0
   -0.0513   -0.8736   -0.6797 C   0  0  0  0  0  0  0  0  0  0  0  0
    0.6340   -1.3399   -1.5641 O   0  0  0  0  0  0  0  0  0  0  0  0
   -0.0117    1.0450    1.0166 C   0  0  1  0  0  0  0  0  0  0  0  0
    0.4929    2.1654    0.1336 C   0  0  0  0  0  0  0  0  0  0  0  0
   -0.1319    2.4993   -1.0650 C   0  0  0  0  0  0  0  0  0  0  0  0
    1.6462    2.8601    0.4952 C   0  0  0  0  0  0  0  0  0  0  0  0
    0.3838    3.4862   -1.8925 C   0  0  0  0  0  0  0  0  0  0  0  0
    2.1785    3.8512   -0.3169 C   0  0  0  0  0  0  0  0  0  0  0  0
    1.5360    4.1417   -1.5041 C   0  0  0  0  0  0  0  0  0  0  0  0
   -2.1797   -2.6510   -2.2887 C   0  0  0  0  0  0  0  0  0  0  0  0
    2.7795   -1.3318    0.8991 C   0  0  0  0  0  0  0  0  0  0  0  0
    4.2407   -1.1611    0.6431 C   0  0  0  0  0  0  0  0  0  0  0  0
    5.0248   -2.3077    0.5436 C   0  0  0  0  0  0  0  0  0  0  0  0
    6.3921   -2.2315    0.3035 C   0  0  0  0  0  0  0  0  0  0  0  0
    6.9727   -0.9695    0.1874 C   0  0  0  0  0  0  0  0  0  0  0  0
    6.2062    0.1804    0.3040 C   0  0  0  0  0  0  0  0  0  0  0  0
    4.8410    0.0909    0.5293 C   0  0  0  0  0  0  0  0  0  0  0  0
    7.2173   -3.4752    0.1502 C   0  0  0  0  0  0  0  0  0  0  0  0
   -1.4868    0.8511    1.0115 C   0  0  0  0  0  0  0  0  0  0  0  0
   -2.0900   -0.0699    0.1882 C   0  0  0  0  0  0  0  0  0  0  0  0
   -2.5315    1.3617    1.7981 C   0  0  0  0  0  0  0  0  0  0  0  0
   -2.4465    2.4098    2.8512 C   0  0  0  0  0  0  0  0  0  0  0  0
   -4.4724   -0.9729    0.0533 C   0  0  2  0  0  0  0  0  0  0  0  0
   -5.5091   -0.2034   -0.7588 C   0  0  0  0  0  0  0  0  0  0  0  0
   -6.7170   -1.0470   -1.0350 C   0  0  0  0  0  0  0  0  0  0  0  0
   -6.9789   -2.1857   -0.3991 C   0  0  0  0  0  0  0  0  0  0  0  0
   -6.1139   -2.7366    0.6934 C   0  0  0  0  0  0  0  0  0  0  0  0
   -5.1294   -1.6990    1.2222 C   0  0  0  0  0  0  0  0  0  0  0  0
    2.0405    5.0965   -2.3013 F   0  0  0  0  0  0  0  0  0  0  0  0
   -1.4162   -0.8060   -0.7837 N   0  0  0  0  0  0  0  0  0  0  0  0
   -3.4006   -0.0989    0.5051 N   0  0  0  0  0  0  0  0  0  0  0  0
   -3.6735    0.7877    1.4753 N   0  0  0  0  0  0  0  0  0  0  0  0
    2.3369   -2.3311    1.4434 O   0  0  0  0  0  0  0  0  0  0  0  0
    2.3896    0.3724   -0.1327 H   0  0  0  0  0  0  0  0  0  0  0  0
    0.3073   -1.0314    1.4135 H   0  0  0  0  0  0  0  0  0  0  0  0
    0.3289    1.2356    2.0379 H   0  0  0  0  0  0  0  0  0  0  0  0
   -1.0472    2.0024   -1.3612 H   0  0  0  0  0  0  0  0  0  0  0  0
    2.1378    2.6298    1.4330 H   0  0  0  0  0  0  0  0  0  0  0  0
   -0.1067    3.7434   -2.8223 H   0  0  0  0  0  0  0  0  0  0  0  0
    3.0728    4.3865   -0.0264 H   0  0  0  0  0  0  0  0  0  0  0  0
   -1.2163   -3.1567   -2.3090 H   0  0  0  0  0  0  0  0  0  0  0  0
   -2.7853   -3.1157   -1.5104 H   0  0  0  0  0  0  0  0  0  0  0  0
   -2.6698   -2.8287   -3.2458 H   0  0  0  0  0  0  0  0  0  0  0  0
   -1.4016   -0.7318   -2.8668 H   0  0  0  0  0  0  0  0  0  0  0  0
   -2.9796   -0.6491   -2.1439 H   0  0  0  0  0  0  0  0  0  0  0  0
    4.5583   -3.2794    0.6509 H   0  0  0  0  0  0  0  0  0  0  0  0
    8.0388   -0.8849    0.0132 H   0  0  0  0  0  0  0  0  0  0  0  0
    6.6753    1.1524    0.2278 H   0  0  0  0  0  0  0  0  0  0  0  0
    4.2687    1.0028    0.6484 H   0  0  0  0  0  0  0  0  0  0  0  0
    7.2954   -3.7611   -0.9006 H   0  0  0  0  0  0  0  0  0  0  0  0
    8.2312   -3.3300    0.5218 H   0  0  0  0  0  0  0  0  0  0  0  0
    6.7776   -4.3170    0.6838 H   0  0  0  0  0  0  0  0  0  0  0  0
   -2.2047    3.3841    2.4234 H   0  0  0  0  0  0  0  0  0  0  0  0
   -3.3909    2.5015    3.3851 H   0  0  0  0  0  0  0  0  0  0  0  0
   -1.6670    2.1755    3.5776 H   0  0  0  0  0  0  0  0  0  0  0  0
   -4.0137   -1.7303   -0.5814 H   0  0  0  0  0  0  0  0  0  0  0  0
   -5.7956    0.7048   -0.2184 H   0  0  0  0  0  0  0  0  0  0  0  0
   -5.0707    0.1341   -1.7027 H   0  0  0  0  0  0  0  0  0  0  0  0
   -7.3930   -0.6939   -1.8059 H   0  0  0  0  0  0  0  0  0  0  0  0
   -7.8601   -2.7559   -0.6729 H   0  0  0  0  0  0  0  0  0  0  0  0
   -6.7396   -3.0992    1.5127 H   0  0  0  0  0  0  0  0  0  0  0  0
   -5.5775   -3.6187    0.3255 H   0  0  0  0  0  0  0  0  0  0  0  0
   -4.3691   -2.1793    1.8409 H   0  0  0  0  0  0  0  0  0  0  0  0
   -5.6536   -0.9760    1.8504 H   0  0  0  0  0  0  0  0  0  0  0  0
   -2.0195   -1.1569   -2.0752 C   0  0  0  0  0  0  0  0  0  0  0  0
 28 29  1  0
 28 27  2  0
 29 30  1  0
 27 26  1  0
 30 25  1  0
 25 26  1  0
 25 33  1  0
 34 23  2  0
 34 33  1  0
 24 23  1  0
 23 21  1  0
 33 22  1  0
 22 21  2  0
 22 32  1  0
 21  5  1  0
 12 67  1  0
 67 32  1  0
 32  3  1  0
  6  5  1  0
  6  8  1  0
  6  7  2  0
  5  2  1  0
  8 10  2  0
 10 11  1  0
  7  9  1  0
 11  9  2  0
 11 31  1  0
  3  2  1  0
  3  4  2  0
  2  1  1  0
 35 13  2  0
  1 13  1  0
 13 14  1  0
 14 15  2  0
 14 19  1  0
 15 16  1  0
 19 18  2  0
 16 20  1  0
 16 17  2  0
 18 17  1  0
  1 36  1  0
  2 37  1  1
  5 38  1  1
  7 39  1  0
  8 40  1  0
  9 41  1  0
 10 42  1  0
 12 43  1  0
 12 44  1  0
 12 45  1  0
 67 46  1  0
 67 47  1  0
 15 48  1  0
 17 49  1  0
 18 50  1  0
 19 51  1  0
 20 52  1  0
 20 53  1  0
 20 54  1  0
 24 55  1  0
 24 56  1  0
 24 57  1  0
 25 58  1  6
 26 59  1  0
 26 60  1  0
 27 61  1  0
 28 62  1  0
 29 63  1  0
 29 64  1  0
 30 65  1  0
 30 66  1  0
M  END
