
     RDKit          3D

 28 27  0  0  0  0  0  0  0  0999 V2000
   -6.0231    0.4344   -0.0162 N   0  0  0  0  0  0  0  0  0  0  0  0
    4.1613    1.3112   -0.0453 O   0  0  0  0  0  0  0  0  0  0  0  0
    5.0878   -0.7143    0.0268 O   0  0  0  0  0  0  0  0  0  0  0  0
   -4.8527   -0.4328    0.0001 C   0  0  0  0  0  0  0  0  0  0  0  0
   -3.5684    0.3821   -0.0105 C   0  0  0  0  0  0  0  0  0  0  0  0
   -2.3175   -0.4870    0.0122 C   0  0  0  0  0  0  0  0  0  0  0  0
   -1.0261    0.3208   -0.0123 C   0  0  0  0  0  0  0  0  0  0  0  0
    0.2230   -0.5506    0.0217 C   0  0  0  0  0  0  0  0  0  0  0  0
    1.5128    0.2600   -0.0069 C   0  0  0  0  0  0  0  0  0  0  0  0
    2.7405   -0.6354    0.0277 C   0  0  0  0  0  0  0  0  0  0  0  0
    4.0445    0.1116   -0.0014 C   0  0  0  0  0  0  0  0  0  0  0  0
   -6.8621   -0.1311   -0.0406 H   0  0  0  0  0  0  0  0  0  0  0  0
   -6.0675    0.9441    0.8581 H   0  0  0  0  0  0  0  0  0  0  0  0
    5.9121   -0.2058    0.0067 H   0  0  0  0  0  0  0  0  0  0  0  0
   -4.8293   -1.1199    0.8589 H   0  0  0  0  0  0  0  0  0  0  0  0
   -4.8811   -1.0632   -0.8934 H   0  0  0  0  0  0  0  0  0  0  0  0
   -3.5587    1.0238   -0.8975 H   0  0  0  0  0  0  0  0  0  0  0  0
   -3.5585    1.0530    0.8564 H   0  0  0  0  0  0  0  0  0  0  0  0
   -2.3302   -1.1218    0.9053 H   0  0  0  0  0  0  0  0  0  0  0  0
   -2.3335   -1.1699   -0.8447 H   0  0  0  0  0  0  0  0  0  0  0  0
   -1.0069    0.9485   -0.9102 H   0  0  0  0  0  0  0  0  0  0  0  0
   -1.0115    1.0095    0.8397 H   0  0  0  0  0  0  0  0  0  0  0  0
    0.2043   -1.1764    0.9210 H   0  0  0  0  0  0  0  0  0  0  0  0
    0.2066   -1.2415   -0.8285 H   0  0  0  0  0  0  0  0  0  0  0  0
    1.5313    0.8818   -0.9063 H   0  0  0  0  0  0  0  0  0  0  0  0
    1.5295    0.9460    0.8444 H   0  0  0  0  0  0  0  0  0  0  0  0
    2.7305   -1.2654    0.9234 H   0  0  0  0  0  0  0  0  0  0  0  0
    2.7302   -1.3326   -0.8165 H   0  0  0  0  0  0  0  0  0  0  0  0
  4  1  1  0
  1 12  1  0
  1 13  1  0
  2 11  2  0
 11  3  1  0
  3 14  1  0
  5  4  1  0
  4 15  1  0
  4 16  1  0
  5  6  1  0
  5 17  1  0
  5 18  1  0
  6  7  1  0
  6 19  1  0
  6 20  1  0
  8  7  1  0
  7 21  1  0
  7 22  1  0
  8  9  1  0
  8 23  1  0
  8 24  1  0
 10  9  1  0
  9 25  1  0
  9 26  1  0
 11 10  1  0
 10 27  1  0
 10 28  1  0
M  END
