
     RDKit          3D

 37 39  0  0  0  0  0  0  0  0999 V2000
    5.9691    1.2052    0.4259 C   0  0  0  0  0  0  0  0  0  0  0  0
    4.6699    0.4849    0.3540 C   0  0  0  0  0  0  0  0  0  0  0  0
    2.3788   -0.2291   -0.0529 C   0  0  0  0  0  0  0  0  0  0  0  0
    3.1598   -1.1086    0.6463 C   0  0  0  0  0  0  0  0  0  0  0  0
    2.7332   -2.4338    1.1846 C   0  0  0  0  0  0  0  0  0  0  0  0
    0.3870   -1.4870   -0.7837 N   0  0  0  0  0  0  0  0  0  0  0  0
   -1.1213   -0.0353   -1.0385 C   0  0  0  0  0  0  0  0  0  0  0  0
   -2.4877    0.5115   -1.3316 C   0  0  1  0  0  0  0  0  0  0  0  0
   -3.4455    0.2521   -0.1871 C   0  0  0  0  0  0  0  0  0  0  0  0
   -3.1200    0.6065    1.1211 C   0  0  0  0  0  0  0  0  0  0  0  0
   -4.0187    0.3980    2.1571 C   0  0  0  0  0  0  0  0  0  0  0  0
   -5.2613   -0.1709    1.9031 C   0  0  0  0  0  0  0  0  0  0  0  0
   -5.5952   -0.5276    0.6047 C   0  0  0  0  0  0  0  0  0  0  0  0
   -4.6919   -0.3157   -0.4300 C   0  0  0  0  0  0  0  0  0  0  0  0
    3.3048    1.1741   -0.4475 S   0  0  0  0  0  0  0  0  0  0  0  0
    4.4426   -0.6847    0.8584 N   0  0  0  0  0  0  0  0  0  0  0  0
    0.9940   -0.3270   -0.4593 C   0  0  0  0  0  0  0  0  0  0  0  0
   -0.8823   -1.3325   -1.1367 N   0  0  0  0  0  0  0  0  0  0  0  0
    0.0304    0.6516   -0.6174 C   0  0  0  0  0  0  0  0  0  0  0  0
   -2.4444    2.0005   -1.6742 C   0  0  0  0  0  0  0  0  0  0  0  0
    5.8467    2.2060    0.8399 H   0  0  0  0  0  0  0  0  0  0  0  0
    6.6600    0.6500    1.0562 H   0  0  0  0  0  0  0  0  0  0  0  0
    6.4145    1.3123   -0.5640 H   0  0  0  0  0  0  0  0  0  0  0  0
    2.8942   -3.2327    0.4574 H   0  0  0  0  0  0  0  0  0  0  0  0
    3.3155   -2.6841    2.0696 H   0  0  0  0  0  0  0  0  0  0  0  0
    1.6798   -2.4417    1.4624 H   0  0  0  0  0  0  0  0  0  0  0  0
    0.8081   -2.4005   -0.8435 H   0  0  0  0  0  0  0  0  0  0  0  0
   -2.8702   -0.0251   -2.2052 H   0  0  0  0  0  0  0  0  0  0  0  0
   -2.1513    1.0409    1.3409 H   0  0  0  0  0  0  0  0  0  0  0  0
   -3.7461    0.6762    3.1671 H   0  0  0  0  0  0  0  0  0  0  0  0
   -5.9603   -0.3367    2.7126 H   0  0  0  0  0  0  0  0  0  0  0  0
   -6.5576   -0.9760    0.3933 H   0  0  0  0  0  0  0  0  0  0  0  0
   -4.9614   -0.5970   -1.4415 H   0  0  0  0  0  0  0  0  0  0  0  0
    0.1499    1.7078   -0.4390 H   0  0  0  0  0  0  0  0  0  0  0  0
   -1.7738    2.1909   -2.5127 H   0  0  0  0  0  0  0  0  0  0  0  0
   -3.4373    2.3558   -1.9474 H   0  0  0  0  0  0  0  0  0  0  0  0
   -2.1026    2.5973   -0.8276 H   0  0  0  0  0  0  0  0  0  0  0  0
 20  8  1  0
  8  9  1  0
  8  7  1  0
 10  9  2  0
 10 11  1  0
 18  7  2  0
 18  6  1  0
  9 14  1  0
 11 12  2  0
  7 19  1  0
  6 17  1  0
 14 13  2  0
 12 13  1  0
 19 17  2  0
 17  3  1  0
  5  4  1  0
  3  4  2  0
  3 15  1  0
  4 16  1  0
 16  2  2  0
 15  2  1  0
  2  1  1  0
  1 21  1  0
  1 22  1  0
  1 23  1  0
  5 24  1  0
  5 25  1  0
  5 26  1  0
  6 27  1  0
  8 28  1  6
 10 29  1  0
 11 30  1  0
 12 31  1  0
 13 32  1  0
 14 33  1  0
 19 34  1  0
 20 35  1  0
 20 36  1  0
 20 37  1  0
M  END
