
     RDKit          3D

 37 40  0  0  0  0  0  0  0  0999 V2000
    3.2207    0.9493   -0.0551 C   0  0  0  0  0  0  0  0  0  0  0  0
   -5.4410    2.6014   -0.0720 N   0  0  0  0  0  0  0  0  0  0  0  0
    5.9561    1.9275   -0.3795 O   0  0  0  0  0  0  0  0  0  0  0  0
    5.9201    0.5012   -0.0828 S   0  0  1  0  0  0  0  0  0  0  0  0
    4.2311   -0.0002   -0.0481 C   0  0  0  0  0  0  0  0  0  0  0  0
    6.6825   -0.3987   -0.9367 O   0  0  0  0  0  0  0  0  0  0  0  0
    3.9236   -1.3566   -0.0258 C   0  0  0  0  0  0  0  0  0  0  0  0
    2.6046   -1.7549   -0.0088 C   0  0  0  0  0  0  0  0  0  0  0  0
    1.5752   -0.8067   -0.0127 C   0  0  0  0  0  0  0  0  0  0  0  0
   -0.8514   -0.5440   -0.0087 C   0  0  0  0  0  0  0  0  0  0  0  0
   -2.1056   -1.0688    0.0244 C   0  0  0  0  0  0  0  0  0  0  0  0
   -3.3798   -0.3891    0.0156 C   0  0  0  0  0  0  0  0  0  0  0  0
   -4.3728   -1.3742    0.0741 C   0  0  0  0  0  0  0  0  0  0  0  0
   -5.7331   -1.0837    0.0871 C   0  0  0  0  0  0  0  0  0  0  0  0
   -6.1302    0.2410    0.0396 C   0  0  0  0  0  0  0  0  0  0  0  0
   -5.1686    1.2522   -0.0205 C   0  0  0  0  0  0  0  0  0  0  0  0
   -3.7970    0.9332   -0.0320 C   0  0  0  0  0  0  0  0  0  0  0  0
   -4.3628    3.2907   -0.1211 C   0  0  0  0  0  0  0  0  0  0  0  0
   -2.3974   -2.5066    0.0879 C   0  0  0  0  0  0  0  0  0  0  0  0
    6.3917    0.1530    1.4623 N   0  0  0  0  0  0  0  0  0  0  0  0
    1.8963    0.5507   -0.0348 C   0  0  0  0  0  0  0  0  0  0  0  0
    0.2726   -1.2760    0.0072 N   0  0  0  0  0  0  0  0  0  0  0  0
   -1.6004   -3.4378    0.1137 O   0  0  0  0  0  0  0  0  0  0  0  0
   -3.7595   -2.6154    0.1143 N   0  0  0  0  0  0  0  0  0  0  0  0
   -2.8713    2.3893   -0.1112 S   0  0  0  0  0  0  0  0  0  0  0  0
    3.4486    2.0058   -0.0758 H   0  0  0  0  0  0  0  0  0  0  0  0
    4.7030   -2.1064   -0.0213 H   0  0  0  0  0  0  0  0  0  0  0  0
    2.3676   -2.8112    0.0061 H   0  0  0  0  0  0  0  0  0  0  0  0
   -0.7237    0.5296   -0.0491 H   0  0  0  0  0  0  0  0  0  0  0  0
   -6.4673   -1.8767    0.1326 H   0  0  0  0  0  0  0  0  0  0  0  0
   -7.1805    0.5001    0.0477 H   0  0  0  0  0  0  0  0  0  0  0  0
   -4.3331    4.3708   -0.1667 H   0  0  0  0  0  0  0  0  0  0  0  0
    6.0177    0.8071    2.1427 H   0  0  0  0  0  0  0  0  0  0  0  0
    7.4040    0.1108    1.5395 H   0  0  0  0  0  0  0  0  0  0  0  0
    1.1351    1.3171   -0.0375 H   0  0  0  0  0  0  0  0  0  0  0  0
    0.1474   -2.2827    0.0403 H   0  0  0  0  0  0  0  0  0  0  0  0
   -4.2477   -3.4963    0.1665 H   0  0  0  0  0  0  0  0  0  0  0  0
  3  4  2  0
  4  6  2  0
  4 20  1  1
  4  5  1  0
  7  5  1  0
  7  8  2  0
  5  1  2  0
  8  9  1  0
 18 25  1  0
 18  2  2  0
 25 17  1  0
  1 21  1  0
  9 21  2  0
  9 22  1  0
  2 16  1  0
 10 22  1  0
 10 11  2  0
 17 16  2  0
 17 12  1  0
 16 15  1  0
 11 12  1  0
 11 19  1  0
 12 13  2  0
 15 14  2  0
 13 14  1  0
 13 24  1  0
 19 23  2  0
 19 24  1  0
  1 26  1  0
  7 27  1  0
  8 28  1  0
 10 29  1  0
 14 30  1  0
 15 31  1  0
 18 32  1  0
 20 33  1  0
 20 34  1  0
 21 35  1  0
 22 36  1  0
 24 37  1  0
M  END
