
     RDKit          3D

 79 79  0  0  0  0  0  0  0  0999 V2000
   -0.8362   -5.9796    0.7044 C   0  0  0  0  0  0  0  0  0  0  0  0
   -2.3034   -5.8577    0.4507 C   0  0  0  0  0  0  0  0  0  0  0  0
   -2.8647   -4.9892   -0.3856 C   0  0  0  0  0  0  0  0  0  0  0  0
   -4.3418   -4.8524   -0.6237 C   0  0  0  0  0  0  0  0  0  0  0  0
   -4.8322   -3.5416   -0.0797 C   0  0  0  0  0  0  0  0  0  0  0  0
   -5.1352   -2.4313   -0.7544 C   0  0  0  0  0  0  0  0  0  0  0  0
   -5.1112   -2.3029   -2.2478 C   0  0  0  0  0  0  0  0  0  0  0  0
   -5.4689   -1.1717    0.0211 C   0  0  1  0  0  0  0  0  0  0  0  0
   -4.2467   -0.2563    0.0974 C   0  0  0  0  0  0  0  0  0  0  0  0
   -4.4749    1.0072    0.9358 C   0  0  0  0  0  0  0  0  0  0  0  0
   -3.1862    1.7484    1.1227 C   0  0  0  0  0  0  0  0  0  0  0  0
   -2.9848    2.9382    0.5214 C   0  0  0  0  0  0  0  0  0  0  0  0
   -1.7267    3.6335    0.5282 C   0  0  0  0  0  0  0  0  0  0  0  0
   -1.4807    4.8275   -0.0510 C   0  0  0  0  0  0  0  0  0  0  0  0
   -2.5215    5.6789   -0.7275 C   0  0  0  0  0  0  0  0  0  0  0  0
   -0.1337    5.3663    0.0923 C   0  0  0  0  0  0  0  0  0  0  0  0
    1.0245    4.6284   -0.1259 C   0  0  0  0  0  0  0  0  0  0  0  0
    2.2924    4.9704    0.5302 C   0  0  0  0  0  0  0  0  0  0  0  0
    3.3324    3.9607    0.4018 C   0  0  0  0  0  0  0  0  0  0  0  0
    3.1618    2.8667   -0.3490 C   0  0  0  0  0  0  0  0  0  0  0  0
    0.9677    3.5128   -1.0559 C   0  0  0  0  0  0  0  0  0  0  0  0
    4.1511    1.7566   -0.5064 C   0  0  2  0  0  0  0  0  0  0  0  0
    4.5744    1.6013   -1.9692 C   0  0  0  0  0  0  0  0  0  0  0  0
    3.5806    0.4559    0.0813 C   0  0  0  0  0  0  0  0  0  0  0  0
    4.5992   -0.6843    0.1282 C   0  0  0  0  0  0  0  0  0  0  0  0
    4.0402   -1.8958    0.8047 C   0  0  0  0  0  0  0  0  0  0  0  0
    3.8469   -3.0538    0.1774 C   0  0  0  0  0  0  0  0  0  0  0  0
    3.1881   -5.3759    0.1334 C   0  0  0  0  0  0  0  0  0  0  0  0
    2.5079   -7.6060    0.4171 C   0  0  0  0  0  0  0  0  0  0  0  0
   -2.1454    1.0460    1.9468 C   0  0  0  0  0  0  0  0  0  0  0  0
    3.3111   -4.1880    0.7762 N   0  0  0  0  0  0  0  0  0  0  0  0
    2.4748    5.9839    1.1922 O   0  0  0  0  0  0  0  0  0  0  0  0
    2.0382    2.6613   -1.0666 O   0  0  0  0  0  0  0  0  0  0  0  0
    0.1100    3.2671   -1.8640 O   0  0  0  0  0  0  0  0  0  0  0  0
    3.5008   -5.5783   -1.0195 O   0  0  0  0  0  0  0  0  0  0  0  0
    2.6731   -6.2943    0.9482 O   0  0  0  0  0  0  0  0  0  0  0  0
   -0.0238    6.6130    0.4835 O   0  0  0  0  0  0  0  0  0  0  0  0
   -6.6064   -0.5034   -0.4881 O   0  0  0  0  0  0  0  0  0  0  0  0
   -0.4803   -6.9818    0.4561 H   0  0  0  0  0  0  0  0  0  0  0  0
   -0.2617   -5.2621    0.1182 H   0  0  0  0  0  0  0  0  0  0  0  0
   -0.5996   -5.8192    1.7584 H   0  0  0  0  0  0  0  0  0  0  0  0
   -2.9458   -6.5441    0.9978 H   0  0  0  0  0  0  0  0  0  0  0  0
   -2.2317   -4.2927   -0.9314 H   0  0  0  0  0  0  0  0  0  0  0  0
   -4.5527   -4.9436   -1.6916 H   0  0  0  0  0  0  0  0  0  0  0  0
   -4.8689   -5.6726   -0.1288 H   0  0  0  0  0  0  0  0  0  0  0  0
   -4.8815   -3.4995    1.0064 H   0  0  0  0  0  0  0  0  0  0  0  0
   -6.1000   -2.0557   -2.6403 H   0  0  0  0  0  0  0  0  0  0  0  0
   -4.4370   -1.5049   -2.5688 H   0  0  0  0  0  0  0  0  0  0  0  0
   -4.7876   -3.2155   -2.7427 H   0  0  0  0  0  0  0  0  0  0  0  0
   -5.7358   -1.4588    1.0434 H   0  0  0  0  0  0  0  0  0  0  0  0
   -3.4270   -0.8401    0.5217 H   0  0  0  0  0  0  0  0  0  0  0  0
   -3.9264    0.0361   -0.9087 H   0  0  0  0  0  0  0  0  0  0  0  0
   -5.2183    1.6470    0.4582 H   0  0  0  0  0  0  0  0  0  0  0  0
   -4.8707    0.7183    1.9160 H   0  0  0  0  0  0  0  0  0  0  0  0
   -3.8032    3.3736   -0.0415 H   0  0  0  0  0  0  0  0  0  0  0  0
   -0.9006    3.1467    1.0339 H   0  0  0  0  0  0  0  0  0  0  0  0
   -3.1436    6.2227   -0.0132 H   0  0  0  0  0  0  0  0  0  0  0  0
   -2.0724    6.4077   -1.4010 H   0  0  0  0  0  0  0  0  0  0  0  0
   -3.1905    5.0638   -1.3272 H   0  0  0  0  0  0  0  0  0  0  0  0
    4.2596    4.0988    0.9413 H   0  0  0  0  0  0  0  0  0  0  0  0
    5.0283    2.0426    0.0814 H   0  0  0  0  0  0  0  0  0  0  0  0
    4.9087    2.5502   -2.3891 H   0  0  0  0  0  0  0  0  0  0  0  0
    5.4031    0.8999   -2.0529 H   0  0  0  0  0  0  0  0  0  0  0  0
    3.7575    1.2229   -2.5845 H   0  0  0  0  0  0  0  0  0  0  0  0
    3.2255    0.6517    1.0975 H   0  0  0  0  0  0  0  0  0  0  0  0
    2.7119    0.1343   -0.4993 H   0  0  0  0  0  0  0  0  0  0  0  0
    4.9240   -0.9477   -0.8811 H   0  0  0  0  0  0  0  0  0  0  0  0
    5.4916   -0.3399    0.6626 H   0  0  0  0  0  0  0  0  0  0  0  0
    3.7694   -1.7962    1.8529 H   0  0  0  0  0  0  0  0  0  0  0  0
    4.1070   -3.1771   -0.8660 H   0  0  0  0  0  0  0  0  0  0  0  0
    2.0710   -8.1957    1.2175 H   0  0  0  0  0  0  0  0  0  0  0  0
    1.8353   -7.6128   -0.4403 H   0  0  0  0  0  0  0  0  0  0  0  0
    3.4630   -8.0450    0.1285 H   0  0  0  0  0  0  0  0  0  0  0  0
   -1.4762    0.4546    1.3174 H   0  0  0  0  0  0  0  0  0  0  0  0
   -1.5273    1.7309    2.5238 H   0  0  0  0  0  0  0  0  0  0  0  0
   -2.6158    0.3556    2.6467 H   0  0  0  0  0  0  0  0  0  0  0  0
   -6.3628   -0.0481   -1.3010 H   0  0  0  0  0  0  0  0  0  0  0  0
    3.0341   -4.1354    1.7455 H   0  0  0  0  0  0  0  0  0  0  0  0
   -0.8795    6.9766    0.7519 H   0  0  0  0  0  0  0  0  0  0  0  0
 35 28  2  0
 36 29  1  0
 36 28  1  0
 28 31  1  0
 27 31  1  0
 27 26  2  0
 25 26  1  0
 25 24  1  0
 23 22  1  0
 22 24  1  0
 22 20  1  0
 20 33  1  0
 20 19  2  0
 33 21  1  0
 19 18  1  0
 21 34  2  0
 21 17  1  0
 18 17  1  0
 18 32  2  0
 17 16  2  0
 30 11  1  0
 16 37  1  0
 16 14  1  0
 11 10  1  0
 11 12  2  0
 13 14  2  0
 13 12  1  0
 14 15  1  0
 10  9  1  0
  9  8  1  0
  8 38  1  0
  8  6  1  0
  5  6  2  0
  5  4  1  0
  6  7  1  0
  2  1  1  0
  2  3  2  0
  4  3  1  0
  1 39  1  0
  1 40  1  0
  1 41  1  0
  2 42  1  0
  3 43  1  0
  4 44  1  0
  4 45  1  0
  5 46  1  0
  7 47  1  0
  7 48  1  0
  7 49  1  0
  8 50  1  1
  9 51  1  0
  9 52  1  0
 10 53  1  0
 10 54  1  0
 12 55  1  0
 13 56  1  0
 15 57  1  0
 15 58  1  0
 15 59  1  0
 19 60  1  0
 22 61  1  1
 23 62  1  0
 23 63  1  0
 23 64  1  0
 24 65  1  0
 24 66  1  0
 25 67  1  0
 25 68  1  0
 26 69  1  0
 27 70  1  0
 29 71  1  0
 29 72  1  0
 29 73  1  0
 30 74  1  0
 30 75  1  0
 30 76  1  0
 38 77  1  0
 31 78  1  0
 37 79  1  0
M  END
