
     RDKit          3D

 43 46  0  0  0  0  0  0  0  0999 V2000
   -0.4737   -0.9486   -1.3779 C   0  0  0  0  0  0  0  0  0  0  0  0
   -1.7433   -0.4948   -0.8981 C   0  0  0  0  0  0  0  0  0  0  0  0
   -2.8591   -0.2772   -1.7341 C   0  0  0  0  0  0  0  0  0  0  0  0
   -4.0511    0.1714   -1.2327 C   0  0  0  0  0  0  0  0  0  0  0  0
   -4.1586    0.4177    0.1469 C   0  0  0  0  0  0  0  0  0  0  0  0
   -3.1088    0.2123    0.9952 C   0  0  0  0  0  0  0  0  0  0  0  0
   -1.8724   -0.2561    0.4904 C   0  0  0  0  0  0  0  0  0  0  0  0
    0.2779   -0.9004    0.9106 C   0  0  0  0  0  0  0  0  0  0  0  0
    0.5322   -1.1752   -0.4450 C   0  0  0  0  0  0  0  0  0  0  0  0
    1.9228   -1.6084   -0.8552 C   0  0  2  0  0  0  0  0  0  0  0  0
    2.5788   -2.4372    0.2432 C   0  0  0  0  0  0  0  0  0  0  0  0
    2.7206   -1.5631    1.4796 C   0  0  2  0  0  0  0  0  0  0  0  0
    1.3278   -1.1529    1.9665 C   0  0  0  0  0  0  0  0  0  0  0  0
    3.6539   -0.3870    1.1791 C   0  0  0  0  0  0  0  0  0  0  0  0
    3.4902    0.2081   -0.1917 C   0  0  0  0  0  0  0  0  0  0  0  0
    4.2470    1.4766   -0.4725 C   0  0  0  0  0  0  0  0  0  0  0  0
    3.5836    2.6630    0.2086 C   0  0  0  0  0  0  0  0  0  0  0  0
    2.7298   -0.3636   -1.1225 C   0  0  0  0  0  0  0  0  0  0  0  0
   -0.2885   -1.1817   -2.7009 N   0  0  0  0  0  0  0  0  0  0  0  0
   -0.8716   -0.4536    1.3702 N   0  0  0  0  0  0  0  0  0  0  0  0
    4.3705    3.9059   -0.0052 N   0  0  0  0  0  0  0  0  0  0  0  0
   -5.6701    0.9923    0.7701 Cl  0  0  0  0  0  0  0  0  0  0  0  0
   -2.8032   -0.4694   -2.7975 H   0  0  0  0  0  0  0  0  0  0  0  0
   -4.8969    0.3310   -1.8865 H   0  0  0  0  0  0  0  0  0  0  0  0
   -3.1965    0.3944    2.0580 H   0  0  0  0  0  0  0  0  0  0  0  0
    1.8782   -2.2189   -1.7616 H   0  0  0  0  0  0  0  0  0  0  0  0
    1.9761   -3.3230    0.4606 H   0  0  0  0  0  0  0  0  0  0  0  0
    3.5561   -2.7883   -0.0972 H   0  0  0  0  0  0  0  0  0  0  0  0
    3.1830   -2.1407    2.2835 H   0  0  0  0  0  0  0  0  0  0  0  0
    1.3850   -0.2751    2.6155 H   0  0  0  0  0  0  0  0  0  0  0  0
    0.9336   -1.9538    2.6001 H   0  0  0  0  0  0  0  0  0  0  0  0
    3.5323    0.3841    1.9473 H   0  0  0  0  0  0  0  0  0  0  0  0
    4.6948   -0.7185    1.2766 H   0  0  0  0  0  0  0  0  0  0  0  0
    5.2767    1.3804   -0.1119 H   0  0  0  0  0  0  0  0  0  0  0  0
    4.2946    1.6559   -1.5490 H   0  0  0  0  0  0  0  0  0  0  0  0
    2.5890    2.8456   -0.1914 H   0  0  0  0  0  0  0  0  0  0  0  0
    3.5078    2.5276    1.2850 H   0  0  0  0  0  0  0  0  0  0  0  0
    2.6400    0.0976   -2.1018 H   0  0  0  0  0  0  0  0  0  0  0  0
   -0.9121   -0.7692   -3.3718 H   0  0  0  0  0  0  0  0  0  0  0  0
    0.6451   -1.3059   -3.0500 H   0  0  0  0  0  0  0  0  0  0  0  0
    3.9379    4.7066    0.4536 H   0  0  0  0  0  0  0  0  0  0  0  0
    5.3165    3.8264    0.3665 H   0  0  0  0  0  0  0  0  0  0  0  0
    4.4531    4.1397   -0.9942 H   0  0  0  0  0  0  0  0  0  0  0  0
 11 12  1  0
 11 10  1  0
 12 13  1  0
 12 14  1  0
 10 18  1  0
 10  9  1  0
 13  8  1  0
 14 15  1  0
 18 15  2  0
  9  8  1  0
  9  1  2  0
 17 21  1  0
 17 16  1  0
  8 20  2  0
 15 16  1  0
 19  1  1  0
  1  2  1  0
 20  7  1  0
  2  7  2  0
  2  3  1  0
  7  6  1  0
  3  4  2  0
  6  5  2  0
  4  5  1  0
  5 22  1  0
  3 23  1  0
  4 24  1  0
  6 25  1  0
 10 26  1  6
 11 27  1  0
 11 28  1  0
 12 29  1  1
 13 30  1  0
 13 31  1  0
 14 32  1  0
 14 33  1  0
 16 34  1  0
 16 35  1  0
 17 36  1  0
 17 37  1  0
 18 38  1  0
 19 39  1  0
 19 40  1  0
 21 41  1  0
 21 42  1  0
 21 43  1  0
M  CHG  1  21   1
M  END
