
     RDKit          3D

 29 30  0  0  0  0  0  0  0  0999 V2000
    4.7830   -0.2412    0.1939 C   0  0  0  0  0  0  0  0  0  0  0  0
    4.3485    1.0776    0.1217 C   0  0  0  0  0  0  0  0  0  0  0  0
    2.9901    1.3686    0.0584 C   0  0  0  0  0  0  0  0  0  0  0  0
    2.0494    0.3359    0.0704 C   0  0  0  0  0  0  0  0  0  0  0  0
    2.4819   -0.9881    0.1421 C   0  0  0  0  0  0  0  0  0  0  0  0
    3.8422   -1.2673    0.2023 C   0  0  0  0  0  0  0  0  0  0  0  0
    4.2068   -2.5623    0.2677 O   0  0  0  0  0  0  0  0  0  0  0  0
    0.6359    0.7083    0.0039 C   0  0  0  0  0  0  0  0  0  0  0  0
   -0.4034   -0.1363    0.0511 C   0  0  0  0  0  0  0  0  0  0  0  0
   -1.8138    0.2344   -0.0067 C   0  0  0  0  0  0  0  0  0  0  0  0
   -2.2382    1.5691    0.0100 C   0  0  0  0  0  0  0  0  0  0  0  0
   -3.5670    1.9327   -0.0458 C   0  0  0  0  0  0  0  0  0  0  0  0
   -4.5525    0.9487   -0.1193 C   0  0  0  0  0  0  0  0  0  0  0  0
   -4.1764   -0.3897   -0.1326 C   0  0  0  0  0  0  0  0  0  0  0  0
   -2.8343   -0.7229   -0.0762 C   0  0  0  0  0  0  0  0  0  0  0  0
   -2.4543   -2.4177   -0.1046 Cl  0  0  0  0  0  0  0  0  0  0  0  0
   -5.8632    1.2294   -0.1765 O   0  0  0  0  0  0  0  0  0  0  0  0
    5.2918    2.0384    0.1162 O   0  0  0  0  0  0  0  0  0  0  0  0
    5.8448   -0.4565    0.2423 H   0  0  0  0  0  0  0  0  0  0  0  0
    2.6568    2.3992   -0.0004 H   0  0  0  0  0  0  0  0  0  0  0  0
    1.7787   -1.8107    0.1472 H   0  0  0  0  0  0  0  0  0  0  0  0
    5.1666   -2.6431    0.3009 H   0  0  0  0  0  0  0  0  0  0  0  0
    0.4616    1.7749   -0.0932 H   0  0  0  0  0  0  0  0  0  0  0  0
   -0.2039   -1.1967    0.1403 H   0  0  0  0  0  0  0  0  0  0  0  0
   -1.5012    2.3582    0.0734 H   0  0  0  0  0  0  0  0  0  0  0  0
   -3.8371    2.9818   -0.0281 H   0  0  0  0  0  0  0  0  0  0  0  0
   -4.9316   -1.1625   -0.1875 H   0  0  0  0  0  0  0  0  0  0  0  0
   -6.0060    2.1829   -0.1739 H   0  0  0  0  0  0  0  0  0  0  0  0
    4.8820    2.9095    0.0724 H   0  0  0  0  0  0  0  0  0  0  0  0
 12 11  2  0
 12 13  1  0
 18  2  1  0
 11 10  1  0
  2  3  1  0
  2  1  2  0
  3  4  2  0
 17 13  1  0
 13 14  2  0
  9 10  1  0
  9  8  2  0
 10 15  2  0
  1  6  1  0
  4  8  1  0
  4  5  1  0
 14 15  1  0
  5  6  2  0
  6  7  1  0
 15 16  1  0
  1 19  1  0
  3 20  1  0
  5 21  1  0
  7 22  1  0
  8 23  1  0
  9 24  1  0
 11 25  1  0
 12 26  1  0
 14 27  1  0
 17 28  1  0
 18 29  1  0
M  END
