
     RDKit          3D

 79 78  0  0  0  0  0  0  0  0999 V2000
   -9.0537    1.5970    1.8470 P   0  0  1  0  0  0  0  0  0  0  0  0
   -8.0414    2.8130    1.6150 O   0  0  0  0  0  0  0  0  0  0  0  0
  -10.2505    1.7871    1.0061 O   0  0  0  0  0  0  0  0  0  0  0  0
   -8.2270    0.2528    1.6341 O   0  0  0  0  0  0  0  0  0  0  0  0
   -7.7791   -0.1179    0.3235 C   0  0  0  0  0  0  0  0  0  0  0  0
   -7.2443   -1.5484    0.3794 C   0  0  1  0  0  0  0  0  0  0  0  0
   -6.0608   -1.6343    1.3455 C   0  0  0  0  0  0  0  0  0  0  0  0
   -8.3398   -2.5118    0.8451 C   0  0  0  0  0  0  0  0  0  0  0  0
   -6.8050   -1.9944   -1.0445 C   0  0  1  0  0  0  0  0  0  0  0  0
   -7.8655   -1.9883   -1.9613 O   0  0  0  0  0  0  0  0  0  0  0  0
   -5.6642   -1.1505   -1.6163 C   0  0  0  0  0  0  0  0  0  0  0  0
   -5.9187   -0.1278   -2.2431 O   0  0  0  0  0  0  0  0  0  0  0  0
   -4.4276   -1.6012   -1.3908 N   0  0  0  0  0  0  0  0  0  0  0  0
   -3.2223   -0.9217   -1.8138 C   0  0  0  0  0  0  0  0  0  0  0  0
   -2.1551   -1.0050   -0.7300 C   0  0  0  0  0  0  0  0  0  0  0  0
   -0.9066   -0.2478   -1.1340 C   0  0  0  0  0  0  0  0  0  0  0  0
   -0.9681    0.8921   -1.5763 O   0  0  0  0  0  0  0  0  0  0  0  0
    0.2447   -0.9158   -0.9699 N   0  0  0  0  0  0  0  0  0  0  0  0
    1.5529   -0.3497   -1.2096 C   0  0  0  0  0  0  0  0  0  0  0  0
    2.1910    0.2187    0.0556 C   0  0  0  0  0  0  0  0  0  0  0  0
    3.5926    0.7421   -0.2191 C   0  0  0  0  0  0  0  0  0  0  0  0
    4.3110    1.6237    1.3054 S   0  0  2  0  0  0  0  0  0  0  0  0
    5.1281    2.2088    2.9331 O   0  0  0  0  0  0  0  0  0  0  0  0
    4.4338    0.1918    2.1211 O   0  0  0  0  0  0  0  0  0  0  0  0
    5.8692    2.0190    0.4474 C   0  0  0  0  0  0  0  0  0  0  0  0
    6.9438    0.9635    0.6417 C   0  0  0  0  0  0  0  0  0  0  0  0
    8.2669    1.4177    0.0319 C   0  0  0  0  0  0  0  0  0  0  0  0
    9.3536    0.3545    0.1294 C   0  0  0  0  0  0  0  0  0  0  0  0
   10.6973    0.8246   -0.4135 C   0  0  0  0  0  0  0  0  0  0  0  0
   11.7796   -0.2459   -0.3508 C   0  0  0  0  0  0  0  0  0  0  0  0
   13.1291    0.2311   -0.8728 C   0  0  0  0  0  0  0  0  0  0  0  0
   14.2110   -0.8408   -0.8208 C   0  0  0  0  0  0  0  0  0  0  0  0
   15.5563   -0.3516   -1.3396 C   0  0  0  0  0  0  0  0  0  0  0  0
   -7.2468    2.8074    2.1654 H   0  0  0  0  0  0  0  0  0  0  0  0
   -8.6124   -0.0453   -0.3807 H   0  0  0  0  0  0  0  0  0  0  0  0
   -6.9983    0.5775    0.0058 H   0  0  0  0  0  0  0  0  0  0  0  0
   -6.3928   -1.4815    2.3717 H   0  0  0  0  0  0  0  0  0  0  0  0
   -5.5953   -2.6217    1.3052 H   0  0  0  0  0  0  0  0  0  0  0  0
   -5.2913   -0.8901    1.1355 H   0  0  0  0  0  0  0  0  0  0  0  0
   -9.2021   -2.5029    0.1785 H   0  0  0  0  0  0  0  0  0  0  0  0
   -7.9541   -3.5329    0.8795 H   0  0  0  0  0  0  0  0  0  0  0  0
   -8.6865   -2.2610    1.8472 H   0  0  0  0  0  0  0  0  0  0  0  0
   -6.4683   -3.0332   -0.9493 H   0  0  0  0  0  0  0  0  0  0  0  0
   -7.8825   -1.1233   -2.3902 H   0  0  0  0  0  0  0  0  0  0  0  0
   -4.3230   -2.5062   -0.9597 H   0  0  0  0  0  0  0  0  0  0  0  0
   -2.8501   -1.3635   -2.7423 H   0  0  0  0  0  0  0  0  0  0  0  0
   -3.4681    0.1167   -2.0214 H   0  0  0  0  0  0  0  0  0  0  0  0
   -2.5363   -0.5535    0.1905 H   0  0  0  0  0  0  0  0  0  0  0  0
   -1.9280   -2.0491   -0.5034 H   0  0  0  0  0  0  0  0  0  0  0  0
    0.2083   -1.8398   -0.5716 H   0  0  0  0  0  0  0  0  0  0  0  0
    2.1886   -1.1353   -1.6216 H   0  0  0  0  0  0  0  0  0  0  0  0
    1.4655    0.4238   -1.9721 H   0  0  0  0  0  0  0  0  0  0  0  0
    1.5634    1.0252    0.4463 H   0  0  0  0  0  0  0  0  0  0  0  0
    2.2023   -0.5670    0.8156 H   0  0  0  0  0  0  0  0  0  0  0  0
    4.2438   -0.0470   -0.6151 H   0  0  0  0  0  0  0  0  0  0  0  0
    3.5443    1.5282   -0.9784 H   0  0  0  0  0  0  0  0  0  0  0  0
    4.9714    3.1599    2.9011 H   0  0  0  0  0  0  0  0  0  0  0  0
    4.3086   -0.5384    1.4996 H   0  0  0  0  0  0  0  0  0  0  0  0
    5.6288    2.1329   -0.6098 H   0  0  0  0  0  0  0  0  0  0  0  0
    6.1939    2.9828    0.8351 H   0  0  0  0  0  0  0  0  0  0  0  0
    7.0816    0.7743    1.7070 H   0  0  0  0  0  0  0  0  0  0  0  0
    6.6367    0.0207    0.1802 H   0  0  0  0  0  0  0  0  0  0  0  0
    8.1171    1.6866   -1.0188 H   0  0  0  0  0  0  0  0  0  0  0  0
    8.6005    2.3301    0.5373 H   0  0  0  0  0  0  0  0  0  0  0  0
    9.4719    0.0502    1.1748 H   0  0  0  0  0  0  0  0  0  0  0  0
    9.0331   -0.5413   -0.4137 H   0  0  0  0  0  0  0  0  0  0  0  0
   10.5746    1.1542   -1.4510 H   0  0  0  0  0  0  0  0  0  0  0  0
   11.0250    1.7069    0.1475 H   0  0  0  0  0  0  0  0  0  0  0  0
   11.8920   -0.5871    0.6843 H   0  0  0  0  0  0  0  0  0  0  0  0
   11.4565   -1.1219   -0.9242 H   0  0  0  0  0  0  0  0  0  0  0  0
   13.0166    0.5801   -1.9053 H   0  0  0  0  0  0  0  0  0  0  0  0
   13.4544    1.1030   -0.2939 H   0  0  0  0  0  0  0  0  0  0  0  0
   14.3234   -1.1914    0.2099 H   0  0  0  0  0  0  0  0  0  0  0  0
   13.8865   -1.7100   -1.4013 H   0  0  0  0  0  0  0  0  0  0  0  0
   15.9153    0.4996   -0.7579 H   0  0  0  0  0  0  0  0  0  0  0  0
   16.3160   -1.1320   -1.2850 H   0  0  0  0  0  0  0  0  0  0  0  0
   15.4863   -0.0309   -2.3807 H   0  0  0  0  0  0  0  0  0  0  0  0
   -9.2727    1.4365    3.4184 O   0  0  0  0  0  0  0  0  0  0  0  0
   -9.9005    2.0695    3.7917 H   0  0  0  0  0  0  0  0  0  0  0  0
  1  3  2  0
  1  4  1  6
  4  5  1  0
  6  5  1  6
  6  7  1  0
  6  8  1  0
  6  9  1  0
  9 10  1  0
  9 11  1  0
 11 12  2  0
 11 13  1  0
 13 14  1  0
 14 15  1  0
 15 16  1  0
 16 17  2  0
 16 18  1  0
 18 19  1  0
 19 20  1  0
 20 21  1  0
 21 22  1  0
 22 23  1  6
 22 24  1  0
 22 25  1  0
 25 26  1  0
 26 27  1  0
 27 28  1  0
 28 29  1  0
 29 30  1  0
 30 31  1  0
 31 32  1  0
 32 33  1  0
  1  2  1  0
  2 34  1  0
  5 35  1  0
  5 36  1  0
  7 37  1  0
  7 38  1  0
  7 39  1  0
  8 40  1  0
  8 41  1  0
  8 42  1  0
  9 43  1  1
 10 44  1  0
 13 45  1  0
 14 46  1  0
 14 47  1  0
 15 48  1  0
 15 49  1  0
 18 50  1  0
 19 51  1  0
 19 52  1  0
 20 53  1  0
 20 54  1  0
 21 55  1  0
 21 56  1  0
 23 57  1  0
 24 58  1  0
 25 59  1  0
 25 60  1  0
 26 61  1  0
 26 62  1  0
 27 63  1  0
 27 64  1  0
 28 65  1  0
 28 66  1  0
 29 67  1  0
 29 68  1  0
 30 69  1  0
 30 70  1  0
 31 71  1  0
 31 72  1  0
 32 73  1  0
 32 74  1  0
 33 75  1  0
 33 76  1  0
 33 77  1  0
  1 78  1  0
 78 79  1  0
M  END
