
     RDKit          3D

 39 42  0  0  0  0  0  0  0  0999 V2000
    3.2918    0.6621   -0.5907 C   0  0  0  0  0  0  0  0  0  0  0  0
    1.9269    0.5267   -0.4148 C   0  0  0  0  0  0  0  0  0  0  0  0
    1.7283   -0.8692   -0.4449 C   0  0  0  0  0  0  0  0  0  0  0  0
    1.1241    2.9243   -0.2103 C   0  0  0  0  0  0  0  0  0  0  0  0
   -1.0594    2.6769    0.0473 C   0  0  0  0  0  0  0  0  0  0  0  0
   -3.0804    1.7871    0.2592 C   0  0  0  0  0  0  0  0  0  0  0  0
   -2.8369   -1.9576    0.4426 C   0  0  0  0  0  0  0  0  0  0  0  0
   -3.6623   -3.0680    0.4852 C   0  0  0  0  0  0  0  0  0  0  0  0
   -4.7664   -0.6602   -0.0476 C   0  0  0  0  0  0  0  0  0  0  0  0
    7.2555   -1.8552    0.2479 C   0  0  0  0  0  0  0  0  0  0  0  0
    5.7917   -1.4840    0.4351 C   0  0  0  0  0  0  0  0  0  0  0  0
    3.7981   -0.5762   -0.7133 N   0  0  0  0  0  0  0  0  0  0  0  0
    2.8652   -1.5162   -0.6225 N   0  0  0  0  0  0  0  0  0  0  0  0
    0.9307    1.5662   -0.2464 C   0  0  0  0  0  0  0  0  0  0  0  0
   -0.0618    3.5856   -0.0359 N   0  0  0  0  0  0  0  0  0  0  0  0
   -0.4794    1.3890   -0.0814 C   0  0  0  0  0  0  0  0  0  0  0  0
   -1.2331    0.3031   -0.0405 N   0  0  0  0  0  0  0  0  0  0  0  0
   -2.5379    0.4955    0.1225 C   0  0  0  0  0  0  0  0  0  0  0  0
   -2.3464    2.8890    0.2221 N   0  0  0  0  0  0  0  0  0  0  0  0
   -3.3913   -0.7072    0.1738 C   0  0  0  0  0  0  0  0  0  0  0  0
   -4.9748   -3.0219    0.2809 N   0  0  0  0  0  0  0  0  0  0  0  0
   -5.5025   -1.8326    0.0187 C   0  0  0  0  0  0  0  0  0  0  0  0
    3.9233    1.5349   -0.6402 H   0  0  0  0  0  0  0  0  0  0  0  0
    0.7978   -1.4069   -0.3484 H   0  0  0  0  0  0  0  0  0  0  0  0
    2.0405    3.4858   -0.2987 H   0  0  0  0  0  0  0  0  0  0  0  0
   -4.1420    1.9254    0.4196 H   0  0  0  0  0  0  0  0  0  0  0  0
   -1.7766   -2.0678    0.6213 H   0  0  0  0  0  0  0  0  0  0  0  0
   -3.2389   -4.0435    0.6974 H   0  0  0  0  0  0  0  0  0  0  0  0
   -5.2763    0.2629   -0.2870 H   0  0  0  0  0  0  0  0  0  0  0  0
    7.8458   -0.9936   -0.0688 H   0  0  0  0  0  0  0  0  0  0  0  0
    7.6869   -2.2260    1.1771 H   0  0  0  0  0  0  0  0  0  0  0  0
    7.3755   -2.6346   -0.5064 H   0  0  0  0  0  0  0  0  0  0  0  0
    5.2216   -2.3574    0.7589 H   0  0  0  0  0  0  0  0  0  0  0  0
    5.6935   -0.7301    1.2200 H   0  0  0  0  0  0  0  0  0  0  0  0
    5.7299   -0.0513   -1.1795 H   0  0  0  0  0  0  0  0  0  0  0  0
    5.2695   -1.6796   -1.6554 H   0  0  0  0  0  0  0  0  0  0  0  0
   -0.1663    4.5862    0.0198 H   0  0  0  0  0  0  0  0  0  0  0  0
   -6.5726   -1.8027   -0.1539 H   0  0  0  0  0  0  0  0  0  0  0  0
    5.1918   -0.9421   -0.8551 C   0  0  0  0  0  0  0  0  0  0  0  0
 15  4  1  0
 15  5  1  0
  4 14  2  0
  3  2  1  0
  3 13  2  0
  5 19  2  0
  5 16  1  0
 14  2  1  0
 14 16  1  0
 19  6  1  0
  2  1  2  0
 13 12  1  0
 16 17  2  0
  6 18  2  0
  1 12  1  0
 12 39  1  0
 17 18  1  0
 18 20  1  0
 39 11  1  0
 20  9  1  0
 20  7  2  0
  9 22  2  0
 11 10  1  0
  7  8  1  0
 22 21  1  0
  8 21  2  0
  1 23  1  0
  3 24  1  0
  4 25  1  0
  6 26  1  0
  7 27  1  0
  8 28  1  0
  9 29  1  0
 10 30  1  0
 10 31  1  0
 10 32  1  0
 11 33  1  0
 11 34  1  0
 39 35  1  0
 39 36  1  0
 15 37  1  0
 22 38  1  0
M  END
