
     RDKit          3D

 35 36  0  0  0  0  0  0  0  0999 V2000
   -0.6375    0.0751    0.2461 C   0  0  0  0  0  0  0  0  0  0  0  0
   -4.3364   -0.6665   -0.0181 C   0  0  0  0  0  0  0  0  0  0  0  0
   -0.6528    2.5476   -0.3760 C   0  0  0  0  0  0  0  0  0  0  0  0
   -2.1709    2.4548   -0.2779 C   0  0  0  0  0  0  0  0  0  0  0  0
   -2.5465    1.4399    0.7866 C   0  0  0  0  0  0  0  0  0  0  0  0
   -5.1197   -1.8662   -0.5226 C   0  0  0  0  0  0  0  0  0  0  0  0
    0.0490    1.2344   -0.1323 C   0  0  0  0  0  0  0  0  0  0  0  0
    2.1444    0.0132    0.0071 C   0  0  0  0  0  0  0  0  0  0  0  0
   -2.3675   -1.8263   -0.6987 O   0  0  0  0  0  0  0  0  0  0  0  0
    1.4326    1.1780   -0.2463 C   0  0  0  0  0  0  0  0  0  0  0  0
    3.6185    0.0393   -0.1387 C   0  0  0  0  0  0  0  0  0  0  0  0
    5.5961   -1.2291    0.0104 C   0  0  0  0  0  0  0  0  0  0  0  0
    0.0746   -1.0931    0.5308 C   0  0  0  0  0  0  0  0  0  0  0  0
    1.4481   -1.1276    0.4092 C   0  0  0  0  0  0  0  0  0  0  0  0
    4.2509    1.0239   -0.4418 O   0  0  0  0  0  0  0  0  0  0  0  0
    4.1752   -1.1376    0.1013 O   0  0  0  0  0  0  0  0  0  0  0  0
   -2.0391    0.1289    0.3931 N   0  0  0  0  0  0  0  0  0  0  0  0
   -2.8381   -0.8495   -0.1463 C   0  0  0  0  0  0  0  0  0  0  0  0
   -4.6358    0.2289   -0.5720 H   0  0  0  0  0  0  0  0  0  0  0  0
   -4.5915   -0.4667    1.0258 H   0  0  0  0  0  0  0  0  0  0  0  0
   -0.3548    2.9450   -1.3484 H   0  0  0  0  0  0  0  0  0  0  0  0
   -0.2871    3.2636    0.3653 H   0  0  0  0  0  0  0  0  0  0  0  0
   -2.5926    3.4309   -0.0357 H   0  0  0  0  0  0  0  0  0  0  0  0
   -2.6075    2.1434   -1.2304 H   0  0  0  0  0  0  0  0  0  0  0  0
   -2.1028    1.7082    1.7486 H   0  0  0  0  0  0  0  0  0  0  0  0
   -3.6198    1.3989    0.9365 H   0  0  0  0  0  0  0  0  0  0  0  0
   -4.9436   -2.0497   -1.5814 H   0  0  0  0  0  0  0  0  0  0  0  0
   -4.8637   -2.7731    0.0240 H   0  0  0  0  0  0  0  0  0  0  0  0
   -6.1862   -1.6879   -0.3893 H   0  0  0  0  0  0  0  0  0  0  0  0
    1.9625    2.0744   -0.5458 H   0  0  0  0  0  0  0  0  0  0  0  0
    5.9485   -0.9916   -0.9930 H   0  0  0  0  0  0  0  0  0  0  0  0
    6.0835   -0.5707    0.7290 H   0  0  0  0  0  0  0  0  0  0  0  0
    5.8426   -2.2605    0.2436 H   0  0  0  0  0  0  0  0  0  0  0  0
   -0.4426   -1.9767    0.8716 H   0  0  0  0  0  0  0  0  0  0  0  0
    1.9686   -2.0451    0.6451 H   0  0  0  0  0  0  0  0  0  0  0  0
 12 16  1  0
 15 11  2  0
 16 11  1  0
 11  8  1  0
  8 14  2  0
  8 10  1  0
 14 13  1  0
  6  2  1  0
  2 18  1  0
 10  7  2  0
 13  1  2  0
  7  1  1  0
  7  3  1  0
  1 17  1  0
 18 17  1  0
 18  9  2  0
  3  4  1  0
 17  5  1  0
  5  4  1  0
  2 19  1  0
  2 20  1  0
  3 21  1  0
  3 22  1  0
  4 23  1  0
  4 24  1  0
  5 25  1  0
  5 26  1  0
  6 27  1  0
  6 28  1  0
  6 29  1  0
 10 30  1  0
 12 31  1  0
 12 32  1  0
 12 33  1  0
 13 34  1  0
 14 35  1  0
M  END
