
     RDKit          3D

 36 38  0  0  0  0  0  0  0  0999 V2000
   -0.3757    1.4859    0.8984 C   0  0  0  0  0  0  0  0  0  0  0  0
   -1.8606    1.7548    0.8243 C   0  0  0  0  0  0  0  0  0  0  0  0
   -2.3194    2.8002    1.2442 O   0  0  0  0  0  0  0  0  0  0  0  0
   -2.6565    0.6587    0.2732 C   0  0  0  0  0  0  0  0  0  0  0  0
   -4.0720    0.6763    0.2221 C   0  0  0  0  0  0  0  0  0  0  0  0
   -4.7055    1.7877    0.6006 O   0  0  0  0  0  0  0  0  0  0  0  0
   -4.7886   -0.4302   -0.2006 C   0  0  0  0  0  0  0  0  0  0  0  0
   -4.1133   -1.5845   -0.5905 C   0  0  0  0  0  0  0  0  0  0  0  0
   -4.8590   -2.6186   -0.9890 O   0  0  0  0  0  0  0  0  0  0  0  0
   -2.7243   -1.6355   -0.5794 C   0  0  0  0  0  0  0  0  0  0  0  0
   -2.0151   -0.5229   -0.1566 C   0  0  0  0  0  0  0  0  0  0  0  0
   -0.6798   -0.6439   -0.1770 O   0  0  0  0  0  0  0  0  0  0  0  0
    0.0793    0.5653   -0.2147 C   0  0  2  0  0  0  0  0  0  0  0  0
    1.5330    0.2049   -0.1206 C   0  0  0  0  0  0  0  0  0  0  0  0
    2.4218    0.6903   -1.0764 C   0  0  0  0  0  0  0  0  0  0  0  0
    3.7761    0.4156   -0.9942 C   0  0  0  0  0  0  0  0  0  0  0  0
    4.6030    0.9060   -1.9390 O   0  0  0  0  0  0  0  0  0  0  0  0
    4.2597   -0.3706    0.0637 C   0  0  0  0  0  0  0  0  0  0  0  0
    5.5923   -0.5820    0.0510 O   0  0  0  0  0  0  0  0  0  0  0  0
    6.1648   -1.3554    1.0872 C   0  0  0  0  0  0  0  0  0  0  0  0
    3.3739   -0.8607    1.0116 C   0  0  0  0  0  0  0  0  0  0  0  0
    2.0165   -0.5717    0.9216 C   0  0  0  0  0  0  0  0  0  0  0  0
    0.1692    2.4290    0.8479 H   0  0  0  0  0  0  0  0  0  0  0  0
   -0.1557    1.0400    1.8752 H   0  0  0  0  0  0  0  0  0  0  0  0
   -5.6595    1.6616    0.5283 H   0  0  0  0  0  0  0  0  0  0  0  0
   -5.8718   -0.4051   -0.2328 H   0  0  0  0  0  0  0  0  0  0  0  0
   -4.3029   -3.3661   -1.2384 H   0  0  0  0  0  0  0  0  0  0  0  0
   -2.1923   -2.5193   -0.9108 H   0  0  0  0  0  0  0  0  0  0  0  0
   -0.1091    1.0546   -1.1789 H   0  0  0  0  0  0  0  0  0  0  0  0
    2.0600    1.2902   -1.9039 H   0  0  0  0  0  0  0  0  0  0  0  0
    5.5117    0.6360   -1.7592 H   0  0  0  0  0  0  0  0  0  0  0  0
    7.2328   -1.3949    0.8900 H   0  0  0  0  0  0  0  0  0  0  0  0
    6.0026   -0.9004    2.0676 H   0  0  0  0  0  0  0  0  0  0  0  0
    5.7687   -2.3740    1.0988 H   0  0  0  0  0  0  0  0  0  0  0  0
    3.7269   -1.4682    1.8342 H   0  0  0  0  0  0  0  0  0  0  0  0
    1.3507   -0.9672    1.6781 H   0  0  0  0  0  0  0  0  0  0  0  0
  6  5  1  0
  3  2  2  0
  5  7  2  0
  5  4  1  0
  7  8  1  0
  2  4  1  0
  2  1  1  0
  4 11  2  0
  8  9  1  0
  8 10  2  0
  1 13  1  0
 11 10  1  0
 11 12  1  0
 13 12  1  0
 13 14  1  0
 14 22  1  0
 14 15  2  0
 22 21  2  0
 15 16  1  0
 21 18  1  0
 16 18  2  0
 16 17  1  0
 18 19  1  0
 19 20  1  0
  1 23  1  0
  1 24  1  0
  6 25  1  0
  7 26  1  0
  9 27  1  0
 10 28  1  0
 13 29  1  6
 15 30  1  0
 17 31  1  0
 20 32  1  0
 20 33  1  0
 20 34  1  0
 21 35  1  0
 22 36  1  0
M  END
