
     RDKit          3D

 55 58  0  0  0  0  0  0  0  0999 V2000
   -2.6900    1.2186   -0.9305 N   0  0  0  0  0  0  0  0  0  0  0  0
   -1.9723    2.2299   -1.4591 N   0  0  0  0  0  0  0  0  0  0  0  0
   -0.6979    2.0118   -1.4654 C   0  0  0  0  0  0  0  0  0  0  0  0
   -0.0276    0.9320   -1.0158 N   0  0  0  0  0  0  0  0  0  0  0  0
   -0.7330   -0.0494   -0.5049 C   0  0  0  0  0  0  0  0  0  0  0  0
   -2.1570    0.0374   -0.4432 C   0  0  0  0  0  0  0  0  0  0  0  0
   -3.2069   -0.7669   -0.0184 C   0  0  0  0  0  0  0  0  0  0  0  0
   -4.3809   -0.0190   -0.2554 C   0  0  0  0  0  0  0  0  0  0  0  0
   -4.0227    1.1992   -0.8195 C   0  0  0  0  0  0  0  0  0  0  0  0
   -5.7756   -0.4486   -0.0080 C   0  0  0  0  0  0  0  0  0  0  0  0
   -6.1204   -1.6219   -0.0885 O   0  0  0  0  0  0  0  0  0  0  0  0
   -6.6299    0.5488    0.2820 N   0  0  0  0  0  0  0  0  0  0  0  0
   -8.0447    0.3526    0.5150 C   0  0  0  0  0  0  0  0  0  0  0  0
   -8.8415    1.5879    0.1229 C   0  0  0  0  0  0  0  0  0  0  0  0
  -10.3271    1.4034    0.3958 C   0  0  0  0  0  0  0  0  0  0  0  0
   -3.0935   -2.1231    0.6014 C   0  0  0  0  0  0  0  0  0  0  0  0
   -0.1299   -1.1622   -0.0413 N   0  0  0  0  0  0  0  0  0  0  0  0
    1.2387   -1.4706   -0.0296 C   0  0  0  0  0  0  0  0  0  0  0  0
    1.5984   -2.8165   -0.2012 C   0  0  0  0  0  0  0  0  0  0  0  0
    2.9476   -3.1448   -0.1593 C   0  0  0  0  0  0  0  0  0  0  0  0
    3.9262   -2.1829    0.0275 C   0  0  0  0  0  0  0  0  0  0  0  0
    3.5580   -0.8529    0.2035 C   0  0  0  0  0  0  0  0  0  0  0  0
    2.2113   -0.5051    0.1935 C   0  0  0  0  0  0  0  0  0  0  0  0
    4.5426    0.2342    0.4653 C   0  0  0  0  0  0  0  0  0  0  0  0
    4.2372    1.2527    1.0540 O   0  0  0  0  0  0  0  0  0  0  0  0
    5.8007    0.0071   -0.0078 N   0  0  0  0  0  0  0  0  0  0  0  0
    6.8843    0.8410    0.1606 C   0  0  0  0  0  0  0  0  0  0  0  0
    7.9958    0.5352   -0.4533 N   0  0  0  0  0  0  0  0  0  0  0  0
    8.8924    1.4979   -0.1044 O   0  0  0  0  0  0  0  0  0  0  0  0
    8.3102    2.3699    0.7125 C   0  0  0  0  0  0  0  0  0  0  0  0
    7.0236    2.0258    0.9345 C   0  0  0  0  0  0  0  0  0  0  0  0
    0.5607   -3.8770   -0.4117 C   0  0  0  0  0  0  0  0  0  0  0  0
   -0.0972    2.8074   -1.8880 H   0  0  0  0  0  0  0  0  0  0  0  0
   -4.6209    2.0222   -1.1756 H   0  0  0  0  0  0  0  0  0  0  0  0
   -6.2509    1.4554    0.5072 H   0  0  0  0  0  0  0  0  0  0  0  0
   -8.3781   -0.5050   -0.0698 H   0  0  0  0  0  0  0  0  0  0  0  0
   -8.2301    0.1103    1.5675 H   0  0  0  0  0  0  0  0  0  0  0  0
   -8.4707    2.4554    0.6772 H   0  0  0  0  0  0  0  0  0  0  0  0
   -8.6780    1.8005   -0.9365 H   0  0  0  0  0  0  0  0  0  0  0  0
  -10.5128    1.2050    1.4525 H   0  0  0  0  0  0  0  0  0  0  0  0
  -10.8920    2.2937    0.1204 H   0  0  0  0  0  0  0  0  0  0  0  0
  -10.7313    0.5652   -0.1742 H   0  0  0  0  0  0  0  0  0  0  0  0
   -2.4714   -2.1075    1.4989 H   0  0  0  0  0  0  0  0  0  0  0  0
   -4.0662   -2.5041    0.8947 H   0  0  0  0  0  0  0  0  0  0  0  0
   -2.6724   -2.8527   -0.0949 H   0  0  0  0  0  0  0  0  0  0  0  0
   -0.7395   -1.8972    0.2777 H   0  0  0  0  0  0  0  0  0  0  0  0
    3.2403   -4.1799   -0.2818 H   0  0  0  0  0  0  0  0  0  0  0  0
    4.9611   -2.4978    0.0641 H   0  0  0  0  0  0  0  0  0  0  0  0
    1.9236    0.5210    0.3589 H   0  0  0  0  0  0  0  0  0  0  0  0
    5.9657   -0.7999   -0.5914 H   0  0  0  0  0  0  0  0  0  0  0  0
    8.9166    3.1892    1.0665 H   0  0  0  0  0  0  0  0  0  0  0  0
    6.3023    2.5300    1.5484 H   0  0  0  0  0  0  0  0  0  0  0  0
   -0.1029   -3.6362   -1.2449 H   0  0  0  0  0  0  0  0  0  0  0  0
    1.0241   -4.8378   -0.6245 H   0  0  0  0  0  0  0  0  0  0  0  0
   -0.0633   -4.0154    0.4759 H   0  0  0  0  0  0  0  0  0  0  0  0
  9  1  1  0
  2  1  1  0
  1  6  1  0
  2  3  2  0
  3  4  1  0
  3 33  1  0
  4  5  2  0
  6  5  1  0
  5 17  1  0
  7  6  2  0
  8  7  1  0
  7 16  1  0
 10  8  1  0
  9  8  2  0
  9 34  1  0
 12 10  1  0
 10 11  2  0
 13 12  1  0
 12 35  1  0
 14 13  1  0
 13 36  1  0
 13 37  1  0
 15 14  1  0
 14 38  1  0
 14 39  1  0
 15 40  1  0
 15 41  1  0
 15 42  1  0
 16 43  1  0
 16 44  1  0
 16 45  1  0
 17 18  1  0
 17 46  1  0
 18 19  2  0
 18 23  1  0
 32 19  1  0
 19 20  1  0
 20 21  2  0
 20 47  1  0
 22 21  1  0
 21 48  1  0
 23 22  2  0
 22 24  1  0
 23 49  1  0
 25 24  2  0
 24 26  1  0
 26 27  1  0
 26 50  1  0
 27 31  1  0
 27 28  2  0
 28 29  1  0
 30 29  1  0
 31 30  2  0
 30 51  1  0
 31 52  1  0
 32 53  1  0
 32 54  1  0
 32 55  1  0
M  END
