
     RDKit          3D

 34 35  0  0  0  0  0  0  0  0999 V2000
    3.1054    1.0859   -0.0647 C   0  0  0  0  0  0  0  0  0  0  0  0
    2.1935    1.9914    0.4666 C   0  0  0  0  0  0  0  0  0  0  0  0
    0.9664    1.5727    0.9529 C   0  0  0  0  0  0  0  0  0  0  0  0
   -4.3571    0.2039   -0.8775 C   0  0  0  0  0  0  0  0  0  0  0  0
   -2.1089    0.9181   -0.3725 C   0  0  0  0  0  0  0  0  0  0  0  0
    0.6220    0.2207    0.9076 C   0  0  0  0  0  0  0  0  0  0  0  0
    1.5308   -0.6853    0.3787 C   0  0  0  0  0  0  0  0  0  0  0  0
    2.7713   -0.2659   -0.1045 C   0  0  0  0  0  0  0  0  0  0  0  0
   -0.7165   -0.2597    1.3958 C   0  0  0  0  0  0  0  0  0  0  0  0
   -1.7562   -0.4215    0.2806 C   0  0  1  0  0  0  0  0  0  0  0  0
   -3.0281   -1.0740    0.8218 C   0  0  0  0  0  0  0  0  0  0  0  0
   -4.1078   -1.1648   -0.2509 C   0  0  0  0  0  0  0  0  0  0  0  0
   -3.1517    0.8422   -1.3830 N   0  0  0  0  0  0  0  0  0  0  0  0
    3.5787   -1.2344   -0.5829 O   0  0  0  0  0  0  0  0  0  0  0  0
    4.0555    1.4476   -0.4327 H   0  0  0  0  0  0  0  0  0  0  0  0
    2.4562    3.0413    0.4988 H   0  0  0  0  0  0  0  0  0  0  0  0
    0.2720    2.2925    1.3693 H   0  0  0  0  0  0  0  0  0  0  0  0
   -4.8038    0.8677   -0.1286 H   0  0  0  0  0  0  0  0  0  0  0  0
   -2.4447    1.6088    0.4120 H   0  0  0  0  0  0  0  0  0  0  0  0
   -1.2236    1.3696   -0.8248 H   0  0  0  0  0  0  0  0  0  0  0  0
    5.3614   -1.8020   -1.3261 H   0  0  0  0  0  0  0  0  0  0  0  0
    4.8428   -0.2043   -1.8858 H   0  0  0  0  0  0  0  0  0  0  0  0
    5.4627   -0.4120   -0.2328 H   0  0  0  0  0  0  0  0  0  0  0  0
    1.2835   -1.7413    0.3467 H   0  0  0  0  0  0  0  0  0  0  0  0
   -0.5950   -1.2232    1.8991 H   0  0  0  0  0  0  0  0  0  0  0  0
   -1.1077    0.4348    2.1464 H   0  0  0  0  0  0  0  0  0  0  0  0
   -1.3326   -1.0771   -0.4921 H   0  0  0  0  0  0  0  0  0  0  0  0
   -2.8007   -2.0660    1.2222 H   0  0  0  0  0  0  0  0  0  0  0  0
   -3.3995   -0.4774    1.6642 H   0  0  0  0  0  0  0  0  0  0  0  0
   -5.0358   -1.5592    0.1716 H   0  0  0  0  0  0  0  0  0  0  0  0
   -3.7947   -1.8663   -1.0319 H   0  0  0  0  0  0  0  0  0  0  0  0
   -2.8057    0.3062   -2.1711 H   0  0  0  0  0  0  0  0  0  0  0  0
   -5.0789    0.1259   -1.6935 H   0  0  0  0  0  0  0  0  0  0  0  0
    4.8722   -0.8785   -1.0258 C   0  0  0  0  0  0  0  0  0  0  0  0
 12  4  1  0
 12 11  1  0
  4 13  1  0
 11 10  1  0
 34 14  1  0
 14  8  1  0
 13  5  1  0
 10  5  1  0
 10  9  1  0
  8  7  1  0
  8  1  2  0
  7  6  2  0
  9  6  1  0
  1  2  1  0
  6  3  1  0
  2  3  2  0
  1 15  1  0
  2 16  1  0
  3 17  1  0
  4 33  1  0
  4 18  1  0
  5 19  1  0
  5 20  1  0
 34 21  1  0
 34 22  1  0
 34 23  1  0
  7 24  1  0
  9 25  1  0
  9 26  1  0
 10 27  1  6
 11 28  1  0
 11 29  1  0
 12 30  1  0
 12 31  1  0
 13 32  1  0
M  END
