
     RDKit          3D

 20 20  0  0  0  0  0  0  0  0999 V2000
    0.3626    0.0832   -3.2638 C   0  0  0  0  0  0  0  0  0  0  0  0
   -0.3621    0.4038   -4.1726 O   0  0  0  0  0  0  0  0  0  0  0  0
    0.1611    0.4538   -1.8272 C   0  0  0  0  0  0  0  0  0  0  0  0
    0.2349   -0.7794   -0.9172 C   0  0  0  0  0  0  0  0  0  0  0  0
    0.1142   -0.4031    0.5331 C   0  0  0  0  0  0  0  0  0  0  0  0
    1.2477   -0.1255    1.2937 C   0  0  0  0  0  0  0  0  0  0  0  0
    1.1362    0.2585    2.6236 C   0  0  0  0  0  0  0  0  0  0  0  0
   -0.1161    0.3730    3.2132 C   0  0  0  0  0  0  0  0  0  0  0  0
   -1.2530    0.0988    2.4641 C   0  0  0  0  0  0  0  0  0  0  0  0
   -1.1366   -0.2864    1.1352 C   0  0  0  0  0  0  0  0  0  0  0  0
    1.2645   -0.5289   -3.4523 H   0  0  0  0  0  0  0  0  0  0  0  0
    0.9705    1.1428   -1.5590 H   0  0  0  0  0  0  0  0  0  0  0  0
   -0.7836    0.9855   -1.7041 H   0  0  0  0  0  0  0  0  0  0  0  0
   -0.5604   -1.4777   -1.1871 H   0  0  0  0  0  0  0  0  0  0  0  0
    1.1816   -1.2976   -1.0881 H   0  0  0  0  0  0  0  0  0  0  0  0
    2.2293   -0.2179    0.8428 H   0  0  0  0  0  0  0  0  0  0  0  0
    2.0291    0.4638    3.2004 H   0  0  0  0  0  0  0  0  0  0  0  0
   -0.2054    0.6687    4.2506 H   0  0  0  0  0  0  0  0  0  0  0  0
   -2.2336    0.1828    2.9152 H   0  0  0  0  0  0  0  0  0  0  0  0
   -2.0300   -0.5026    0.5605 H   0  0  0  0  0  0  0  0  0  0  0  0
  1  2  2  0
  1  3  1  0
  1 11  1  0
  3  4  1  0
  3 12  1  0
  3 13  1  0
  4  5  1  0
  4 14  1  0
  4 15  1  0
  5  6  2  0
  5 10  1  0
  6  7  1  0
  6 16  1  0
  7  8  2  0
  7 17  1  0
  8  9  1  0
  8 18  1  0
  9 10  2  0
  9 19  1  0
 10 20  1  0
M  END
