
     RDKit          3D

 26 27  0  0  0  0  0  0  0  0999 V2000
    4.1806    1.9847   -0.0135 O   0  0  0  0  0  0  0  0  0  0  0  0
    4.3252    0.7858   -0.0172 C   0  0  0  0  0  0  0  0  0  0  0  0
    5.5113    0.1965   -0.0228 O   0  0  0  0  0  0  0  0  0  0  0  0
    3.1975   -0.1808   -0.0175 C   0  0  0  0  0  0  0  0  0  0  0  0
    3.3988   -1.5589   -0.0188 C   0  0  0  0  0  0  0  0  0  0  0  0
    2.3023   -2.4126   -0.0201 C   0  0  0  0  0  0  0  0  0  0  0  0
    1.0138   -1.9106   -0.0194 C   0  0  0  0  0  0  0  0  0  0  0  0
    1.9019    0.3262   -0.0175 C   0  0  0  0  0  0  0  0  0  0  0  0
    0.8059   -0.5277   -0.0184 C   0  0  0  0  0  0  0  0  0  0  0  0
   -0.4499    0.0963   -0.0189 N   0  0  0  0  0  0  0  0  0  0  0  0
   -1.4293   -0.6852   -0.0165 N   0  0  0  0  0  0  0  0  0  0  0  0
   -2.6429   -0.0787   -0.0154 C   0  0  0  0  0  0  0  0  0  0  0  0
   -2.9745    1.2568   -0.0108 C   0  0  0  0  0  0  0  0  0  0  0  0
   -2.2489    2.3456   -0.0134 N   0  0  0  0  0  0  0  0  0  0  0  0
   -4.4048    1.3897   -0.0043 N   0  0  0  0  0  0  0  0  0  0  0  0
   -3.9158   -0.7618   -0.0125 C   0  0  0  0  0  0  0  0  0  0  0  0
   -4.9376    0.2743   -0.0056 N   0  0  0  0  0  0  0  0  0  0  0  0
   -4.1918   -1.9900   -0.0155 N   0  0  0  0  0  0  0  0  0  0  0  0
    6.2135    0.8639   -0.0245 H   0  0  0  0  0  0  0  0  0  0  0  0
    4.3957   -1.9762   -0.0190 H   0  0  0  0  0  0  0  0  0  0  0  0
    2.4581   -3.4832   -0.0247 H   0  0  0  0  0  0  0  0  0  0  0  0
    0.1697   -2.5863   -0.0183 H   0  0  0  0  0  0  0  0  0  0  0  0
    1.7321    1.3952   -0.0173 H   0  0  0  0  0  0  0  0  0  0  0  0
   -1.2428    2.2662   -0.0123 H   0  0  0  0  0  0  0  0  0  0  0  0
   -2.6792    3.2576    0.0034 H   0  0  0  0  0  0  0  0  0  0  0  0
   -5.1991   -2.1346   -0.0118 H   0  0  0  0  0  0  0  0  0  0  0  0
  1  2  2  0
  2  3  1  0
  2  4  1  0
  3 19  1  0
  4  5  2  0
  4  8  1  0
  5  6  1  0
  5 20  1  0
  6  7  2  0
  6 21  1  0
  7  9  1  0
  7 22  1  0
  8  9  2  0
  8 23  1  0
  9 10  1  0
 10 11  2  0
 11 12  1  0
 12 13  2  0
 12 16  1  0
 13 14  1  0
 13 15  1  0
 14 24  1  0
 14 25  1  0
 15 17  2  0
 16 17  1  0
 16 18  2  0
 18 26  1  0
M  END
