
     RDKit          3D

 52 56  0  0  0  0  0  0  0  0999 V2000
   -4.7881    2.3539    1.4931 F   0  0  0  0  0  0  0  0  0  0  0  0
   -4.2613    1.5054    0.6062 C   0  0  1  0  0  0  0  0  0  0  0  0
   -4.1222    2.1915   -0.5412 F   0  0  0  0  0  0  0  0  0  0  0  0
   -3.0199    1.2289    1.0347 F   0  0  0  0  0  0  0  0  0  0  0  0
   -5.0942    0.2715    0.4223 C   0  0  0  0  0  0  0  0  0  0  0  0
   -6.3555    0.2194    1.0066 C   0  0  0  0  0  0  0  0  0  0  0  0
   -7.1634   -0.8943    0.8374 C   0  0  0  0  0  0  0  0  0  0  0  0
   -6.7104   -1.9598    0.0769 C   0  0  0  0  0  0  0  0  0  0  0  0
   -5.4532   -1.9047   -0.5053 C   0  0  0  0  0  0  0  0  0  0  0  0
   -4.6253   -0.7999   -0.3477 C   0  0  0  0  0  0  0  0  0  0  0  0
   -3.2729   -0.8249   -1.0013 C   0  0  0  0  0  0  0  0  0  0  0  0
   -2.2031   -1.3488   -0.0504 C   0  0  0  0  0  0  0  0  0  0  0  0
   -2.5116   -1.8408    1.0235 O   0  0  0  0  0  0  0  0  0  0  0  0
   -0.9230   -1.2702   -0.4712 N   0  0  0  0  0  0  0  0  0  0  0  0
   -0.4674   -0.7055   -1.7263 C   0  0  0  0  0  0  0  0  0  0  0  0
    0.4305    0.4963   -1.4782 C   0  0  0  0  0  0  0  0  0  0  0  0
    0.1778   -1.6660    0.3865 C   0  0  0  0  0  0  0  0  0  0  0  0
    1.0919   -0.4794    0.6305 C   0  0  0  0  0  0  0  0  0  0  0  0
    1.5445    0.0894   -0.6372 N   0  0  0  0  0  0  0  0  0  0  0  0
    2.6513    0.9000   -0.6038 C   0  0  0  0  0  0  0  0  0  0  0  0
    3.8897    0.4459   -0.0943 C   0  0  0  0  0  0  0  0  0  0  0  0
    2.5494    2.1323   -1.0846 N   0  0  0  0  0  0  0  0  0  0  0  0
    3.5897    2.9530   -0.9809 C   0  0  0  0  0  0  0  0  0  0  0  0
    4.7514    2.6910   -0.4171 N   0  0  0  0  0  0  0  0  0  0  0  0
    4.8796    1.4354   -0.0057 C   0  0  0  0  0  0  0  0  0  0  0  0
    6.3665    0.8168    0.6490 S   0  0  0  0  0  0  0  0  0  0  0  0
    5.6793   -0.7649    0.7304 C   0  0  0  0  0  0  0  0  0  0  0  0
    4.3958   -0.8330    0.3096 C   0  0  0  0  0  0  0  0  0  0  0  0
    6.2964   -2.0878    1.0313 C   0  0  0  0  0  0  0  0  0  0  0  0
    5.0570   -3.0099    1.0029 C   0  0  0  0  0  0  0  0  0  0  0  0
    3.9626   -2.2680    0.2041 C   0  0  0  0  0  0  0  0  0  0  0  0
   -6.7235    1.0442    1.6001 H   0  0  0  0  0  0  0  0  0  0  0  0
   -8.1420   -0.9224    1.2968 H   0  0  0  0  0  0  0  0  0  0  0  0
   -7.3337   -2.8327   -0.0650 H   0  0  0  0  0  0  0  0  0  0  0  0
   -5.1048   -2.7388   -1.1023 H   0  0  0  0  0  0  0  0  0  0  0  0
   -3.3074   -1.4895   -1.8691 H   0  0  0  0  0  0  0  0  0  0  0  0
   -2.9980    0.1489   -1.4042 H   0  0  0  0  0  0  0  0  0  0  0  0
    0.0909   -1.4706   -2.2739 H   0  0  0  0  0  0  0  0  0  0  0  0
   -1.3003   -0.4085   -2.3568 H   0  0  0  0  0  0  0  0  0  0  0  0
    0.8074    0.8610   -2.4320 H   0  0  0  0  0  0  0  0  0  0  0  0
   -0.1532    1.3041   -1.0177 H   0  0  0  0  0  0  0  0  0  0  0  0
   -0.2025   -2.0381    1.3333 H   0  0  0  0  0  0  0  0  0  0  0  0
    0.7357   -2.4736   -0.0977 H   0  0  0  0  0  0  0  0  0  0  0  0
    0.5490    0.2830    1.2057 H   0  0  0  0  0  0  0  0  0  0  0  0
    1.9406   -0.7891    1.2359 H   0  0  0  0  0  0  0  0  0  0  0  0
    3.4576    3.9491   -1.3882 H   0  0  0  0  0  0  0  0  0  0  0  0
    7.0272   -2.3543    0.2625 H   0  0  0  0  0  0  0  0  0  0  0  0
    5.2844   -3.9877    0.5813 H   0  0  0  0  0  0  0  0  0  0  0  0
    2.9723   -2.4838    0.6023 H   0  0  0  0  0  0  0  0  0  0  0  0
    6.8163   -2.1167    1.9899 H   0  0  0  0  0  0  0  0  0  0  0  0
    4.7061   -3.1697    2.0230 H   0  0  0  0  0  0  0  0  0  0  0  0
    3.9474   -2.5717   -0.8465 H   0  0  0  0  0  0  0  0  0  0  0  0
 23 24  1  0
 23 22  2  0
 24 25  2  0
 22 20  1  0
 25 26  1  0
 25 21  1  0
 20 21  2  0
 20 19  1  0
 26 27  1  0
 16 19  1  0
 16 15  1  0
 21 28  1  0
  2  1  1  1
 19 18  1  0
 18 17  1  0
  3  2  1  0
 15 14  1  0
 27 28  2  0
 27 29  1  0
  2  4  1  0
  2  5  1  0
 28 31  1  0
 14 17  1  0
 14 12  1  0
 13 12  2  0
 12 11  1  0
 29 30  1  0
  5  6  2  0
  5 10  1  0
 31 30  1  0
 11 10  1  0
  6  7  1  0
 10  9  2  0
  7  8  2  0
  9  8  1  0
  6 32  1  0
  7 33  1  0
  8 34  1  0
  9 35  1  0
 11 36  1  0
 11 37  1  0
 15 38  1  0
 15 39  1  0
 16 40  1  0
 16 41  1  0
 17 42  1  0
 17 43  1  0
 18 44  1  0
 18 45  1  0
 23 46  1  0
 29 47  1  0
 30 48  1  0
 31 49  1  0
 29 50  1  0
 30 51  1  0
 31 52  1  0
M  END
