
     RDKit          3D

 28 29  0  0  0  0  0  0  0  0999 V2000
    3.1919    2.7976   -0.5483 C   0  0  0  0  0  0  0  0  0  0  0  0
    3.6556   -2.3132    1.2519 O   0  0  0  0  0  0  0  0  0  0  0  0
   -4.7750   -0.5840    0.4053 F   0  0  0  0  0  0  0  0  0  0  0  0
   -4.1223    1.4491    0.1379 F   0  0  0  0  0  0  0  0  0  0  0  0
   -3.5375    0.3578    1.8928 F   0  0  0  0  0  0  0  0  0  0  0  0
   -1.3429   -1.7795   -1.5458 C   0  0  0  0  0  0  0  0  0  0  0  0
   -0.1914   -1.0168   -1.4479 C   0  0  0  0  0  0  0  0  0  0  0  0
   -2.5050   -1.3893   -0.8950 C   0  0  0  0  0  0  0  0  0  0  0  0
   -1.3491    0.5303   -0.0053 C   0  0  0  0  0  0  0  0  0  0  0  0
    4.4184    0.9237    0.3847 N   0  0  0  0  0  0  0  0  0  0  0  0
    2.3369   -0.7076    0.3632 N   0  0  0  0  0  0  0  0  0  0  0  0
    0.9644    0.9326   -0.5544 N   0  0  0  0  0  0  0  0  0  0  0  0
    4.6027   -0.2896    0.8237 N   0  0  0  0  0  0  0  0  0  0  0  0
    3.2752    1.3854   -0.0692 C   0  0  0  0  0  0  0  0  0  0  0  0
   -0.1964    0.1329   -0.6641 C   0  0  0  0  0  0  0  0  0  0  0  0
   -2.5056   -0.2293   -0.1338 C   0  0  0  0  0  0  0  0  0  0  0  0
    2.1506    0.5310   -0.0989 C   0  0  0  0  0  0  0  0  0  0  0  0
    3.5680   -1.1673    0.8429 C   0  0  0  0  0  0  0  0  0  0  0  0
   -3.7400    0.2408    0.5735 C   0  0  1  0  0  0  0  0  0  0  0  0
    4.1638    3.2733   -0.4389 H   0  0  0  0  0  0  0  0  0  0  0  0
    2.9061    2.8585   -1.6007 H   0  0  0  0  0  0  0  0  0  0  0  0
    2.4699    3.3847    0.0243 H   0  0  0  0  0  0  0  0  0  0  0  0
   -1.3416   -2.6758   -2.1500 H   0  0  0  0  0  0  0  0  0  0  0  0
    0.6988   -1.3067   -1.9920 H   0  0  0  0  0  0  0  0  0  0  0  0
   -3.3962   -1.9920   -0.9959 H   0  0  0  0  0  0  0  0  0  0  0  0
   -1.3292    1.4277    0.6006 H   0  0  0  0  0  0  0  0  0  0  0  0
    1.5646   -1.3636    0.4078 H   0  0  0  0  0  0  0  0  0  0  0  0
    0.8670    1.9155   -0.7654 H   0  0  0  0  0  0  0  0  0  0  0  0
  1 14  1  0
  2 18  2  0
 19  3  1  1
  4 19  1  0
  5 19  1  0
  6  7  2  0
  6  8  1  0
  7 15  1  0
  8 16  2  0
  9 15  2  0
  9 16  1  0
 10 13  2  0
 10 14  1  0
 11 17  1  0
 11 18  1  0
 12 15  1  0
 12 17  1  0
 13 18  1  0
 14 17  2  0
 16 19  1  0
  1 20  1  0
  1 21  1  0
  1 22  1  0
  6 23  1  0
  7 24  1  0
  8 25  1  0
  9 26  1  0
 11 27  1  0
 12 28  1  0
M  END
