
     RDKit          3D

 51 54  0  0  0  0  0  0  0  0999 V2000
   -3.3452   -1.1457    0.0328 C   0  0  0  0  0  0  0  0  0  0  0  0
   -2.2247   -0.9371    0.8104 C   0  0  0  0  0  0  0  0  0  0  0  0
   -2.0842   -2.2009   -1.7407 C   0  0  0  0  0  0  0  0  0  0  0  0
   -3.2879   -1.7658   -1.2231 C   0  0  0  0  0  0  0  0  0  0  0  0
   -0.9312   -2.0013   -0.9819 C   0  0  0  0  0  0  0  0  0  0  0  0
   -1.0206   -1.3794    0.2723 C   0  0  0  0  0  0  0  0  0  0  0  0
    0.2619   -1.3327    0.7462 N   0  0  0  0  0  0  0  0  0  0  0  0
    1.0452   -1.9147   -0.2061 C   0  0  0  0  0  0  0  0  0  0  0  0
    0.3760   -2.3206   -1.2491 N   0  0  0  0  0  0  0  0  0  0  0  0
    0.6556   -0.8519    2.0516 C   0  0  0  0  0  0  0  0  0  0  0  0
    2.5189   -2.0620   -0.0634 C   0  0  0  0  0  0  0  0  0  0  0  0
    3.0840   -0.7617   -0.0893 O   0  0  0  0  0  0  0  0  0  0  0  0
   -4.5740   -0.7833    0.5366 O   0  0  0  0  0  0  0  0  0  0  0  0
    4.4145   -0.6362    0.1029 C   0  0  0  0  0  0  0  0  0  0  0  0
    4.8949    0.6670    0.1934 C   0  0  0  0  0  0  0  0  0  0  0  0
    6.2484    0.9018    0.3907 C   0  0  0  0  0  0  0  0  0  0  0  0
    7.1382   -0.1680    0.4994 C   0  0  0  0  0  0  0  0  0  0  0  0
    6.6512   -1.4591    0.4057 C   0  0  0  0  0  0  0  0  0  0  0  0
    5.2977   -1.7067    0.2087 C   0  0  0  0  0  0  0  0  0  0  0  0
    6.6959    2.3161    0.4839 C   0  0  0  0  0  0  0  0  0  0  0  0
    7.9933    2.4317    0.7248 O   0  0  0  0  0  0  0  0  0  0  0  0
    5.9592    3.2644    0.3568 O   0  0  0  0  0  0  0  0  0  0  0  0
   -5.0885    0.4240    0.1976 C   0  0  0  0  0  0  0  0  0  0  0  0
   -6.3557    0.7253    0.7198 C   0  0  0  0  0  0  0  0  0  0  0  0
   -6.8647    1.9619    0.3752 C   0  0  0  0  0  0  0  0  0  0  0  0
   -6.1532    2.8434   -0.4460 C   0  0  0  0  0  0  0  0  0  0  0  0
   -4.9197    2.4065   -0.8887 C   0  0  0  0  0  0  0  0  0  0  0  0
   -4.3963    1.2209   -0.5718 N   0  0  0  0  0  0  0  0  0  0  0  0
   -7.0948   -0.2407    1.5918 C   0  0  0  0  0  0  0  0  0  0  0  0
   -6.6985    4.1883   -0.8191 C   0  0  0  0  0  0  0  0  0  0  0  0
   -2.2931   -0.4580    1.7788 H   0  0  0  0  0  0  0  0  0  0  0  0
   -2.0378   -2.6832   -2.7085 H   0  0  0  0  0  0  0  0  0  0  0  0
   -4.2036   -1.9055   -1.7829 H   0  0  0  0  0  0  0  0  0  0  0  0
    0.5202   -1.6228    2.8093 H   0  0  0  0  0  0  0  0  0  0  0  0
    1.6948   -0.5399    2.0428 H   0  0  0  0  0  0  0  0  0  0  0  0
    0.0516    0.0129    2.3174 H   0  0  0  0  0  0  0  0  0  0  0  0
    2.7732   -2.5762    0.8704 H   0  0  0  0  0  0  0  0  0  0  0  0
    2.8800   -2.6716   -0.8955 H   0  0  0  0  0  0  0  0  0  0  0  0
    4.2003    1.4933    0.1135 H   0  0  0  0  0  0  0  0  0  0  0  0
    8.1955   -0.0063    0.6511 H   0  0  0  0  0  0  0  0  0  0  0  0
    7.3312   -2.2963    0.4861 H   0  0  0  0  0  0  0  0  0  0  0  0
    4.9586   -2.7313    0.1367 H   0  0  0  0  0  0  0  0  0  0  0  0
    8.2369    3.3676    0.7824 H   0  0  0  0  0  0  0  0  0  0  0  0
   -7.8405    2.2492    0.7519 H   0  0  0  0  0  0  0  0  0  0  0  0
   -4.3145    3.0368   -1.5324 H   0  0  0  0  0  0  0  0  0  0  0  0
   -6.5348   -0.4766    2.4979 H   0  0  0  0  0  0  0  0  0  0  0  0
   -8.0561    0.1728    1.8915 H   0  0  0  0  0  0  0  0  0  0  0  0
   -7.2838   -1.1843    1.0779 H   0  0  0  0  0  0  0  0  0  0  0  0
   -6.8153    4.8262    0.0583 H   0  0  0  0  0  0  0  0  0  0  0  0
   -6.0375    4.7013   -1.5166 H   0  0  0  0  0  0  0  0  0  0  0  0
   -7.6795    4.1043   -1.2887 H   0  0  0  0  0  0  0  0  0  0  0  0
 22 20  2  0
 21 20  1  0
 20 16  1  0
 17 16  1  0
 17 18  2  0
 16 15  2  0
 18 19  1  0
 15 14  1  0
 19 14  2  0
 14 12  1  0
 12 11  1  0
 11  8  1  0
  8  9  2  0
  8  7  1  0
  9  5  1  0
 10  7  1  0
  7  6  1  0
  5  6  1  0
  5  3  2  0
  6  2  2  0
  3  4  1  0
  2  1  1  0
  4  1  2  0
  1 13  1  0
 13 23  1  0
 28 23  1  0
 28 27  2  0
 23 24  2  0
 27 26  1  0
 24 29  1  0
 24 25  1  0
 26 25  2  0
 26 30  1  0
  2 31  1  0
  3 32  1  0
  4 33  1  0
 10 34  1  0
 10 35  1  0
 10 36  1  0
 11 37  1  0
 11 38  1  0
 15 39  1  0
 17 40  1  0
 18 41  1  0
 19 42  1  0
 21 43  1  0
 25 44  1  0
 27 45  1  0
 29 46  1  0
 29 47  1  0
 29 48  1  0
 30 49  1  0
 30 50  1  0
 30 51  1  0
M  END
