
     RDKit          3D

 72 77  0  0  0  0  0  0  0  0999 V2000
    5.7231   -2.7976   -0.2685 O   0  0  0  0  0  0  0  0  0  0  0  0
    5.4815   -1.6260   -0.0060 C   0  0  0  0  0  0  0  0  0  0  0  0
    6.4320   -0.6837    0.0764 N   0  0  0  0  0  0  0  0  0  0  0  0
    7.8283   -0.9834   -0.1694 C   0  0  0  0  0  0  0  0  0  0  0  0
    8.6387    0.2758   -0.0488 C   0  0  0  0  0  0  0  0  0  0  0  0
    9.0715    0.7399    1.1865 C   0  0  0  0  0  0  0  0  0  0  0  0
    9.7902    1.9239    1.2305 C   0  0  0  0  0  0  0  0  0  0  0  0
   10.0915    2.6428    0.1571 N   0  0  0  0  0  0  0  0  0  0  0  0
    9.6813    2.2083   -1.0336 C   0  0  0  0  0  0  0  0  0  0  0  0
   10.0487    3.0379   -2.2255 C   0  0  0  0  0  0  0  0  0  0  0  0
    8.9507    1.0310   -1.1708 C   0  0  0  0  0  0  0  0  0  0  0  0
    4.0999   -1.1602    0.2322 C   0  0  0  0  0  0  0  0  0  0  0  0
    2.9189   -1.9133    0.1997 C   0  0  0  0  0  0  0  0  0  0  0  0
    2.5926   -3.3403   -0.0917 C   0  0  0  0  0  0  0  0  0  0  0  0
    3.8395    0.1153    0.5070 N   0  0  0  0  0  0  0  0  0  0  0  0
    2.5365    0.2141    0.6364 N   0  0  0  0  0  0  0  0  0  0  0  0
    1.9336    1.4975    0.9310 C   0  0  0  0  0  0  0  0  0  0  0  0
    1.9312   -0.9835    0.4583 C   0  0  0  0  0  0  0  0  0  0  0  0
    0.5194   -1.3097    0.4309 C   0  0  0  0  0  0  0  0  0  0  0  0
   -0.3957   -0.3620    0.3580 N   0  0  0  0  0  0  0  0  0  0  0  0
   -1.6708   -0.7601    0.2686 C   0  0  0  0  0  0  0  0  0  0  0  0
   -2.0793   -2.0225    0.2217 N   0  0  0  0  0  0  0  0  0  0  0  0
   -1.1370   -2.9561    0.3069 C   0  0  0  0  0  0  0  0  0  0  0  0
    0.2090   -2.6785    0.4277 C   0  0  0  0  0  0  0  0  0  0  0  0
    1.2802   -3.7177    0.6012 C   0  0  0  0  0  0  0  0  0  0  0  0
   -2.5712    0.2556    0.2218 N   0  0  0  0  0  0  0  0  0  0  0  0
   -3.9610    0.2456    0.0982 C   0  0  0  0  0  0  0  0  0  0  0  0
   -4.6275    1.4496    0.3534 C   0  0  0  0  0  0  0  0  0  0  0  0
   -5.9954    1.5596    0.2184 C   0  0  0  0  0  0  0  0  0  0  0  0
   -6.7826    0.4643   -0.1650 C   0  0  0  0  0  0  0  0  0  0  0  0
   -6.1112   -0.7347   -0.4071 C   0  0  0  0  0  0  0  0  0  0  0  0
   -4.7297   -0.8466   -0.2918 C   0  0  0  0  0  0  0  0  0  0  0  0
   -8.1654    0.6113   -0.3234 N   0  0  0  0  0  0  0  0  0  0  0  0
   -8.8909   -0.5058   -0.8929 C   0  0  0  0  0  0  0  0  0  0  0  0
  -10.2952   -0.0837   -1.2836 C   0  0  0  0  0  0  0  0  0  0  0  0
  -11.0078    0.4641   -0.1495 N   0  0  0  0  0  0  0  0  0  0  0  0
  -12.3728    0.7966   -0.4846 C   0  0  0  0  0  0  0  0  0  0  0  0
  -10.2888    1.6067    0.3725 C   0  0  0  0  0  0  0  0  0  0  0  0
   -8.8867    1.2115    0.7911 C   0  0  0  0  0  0  0  0  0  0  0  0
    6.1610    0.2655    0.2813 H   0  0  0  0  0  0  0  0  0  0  0  0
    8.1855   -1.7290    0.5449 H   0  0  0  0  0  0  0  0  0  0  0  0
    7.9521   -1.4072   -1.1686 H   0  0  0  0  0  0  0  0  0  0  0  0
    8.8630    0.1945    2.0980 H   0  0  0  0  0  0  0  0  0  0  0  0
    8.6343    0.7039   -2.1537 H   0  0  0  0  0  0  0  0  0  0  0  0
   10.1412    2.3080    2.1822 H   0  0  0  0  0  0  0  0  0  0  0  0
   11.1312    3.0566   -2.3617 H   0  0  0  0  0  0  0  0  0  0  0  0
    9.6017    2.6512   -3.1394 H   0  0  0  0  0  0  0  0  0  0  0  0
    9.7226    4.0700   -2.0946 H   0  0  0  0  0  0  0  0  0  0  0  0
    2.5007   -3.4765   -1.1740 H   0  0  0  0  0  0  0  0  0  0  0  0
    3.3902   -4.0029    0.2382 H   0  0  0  0  0  0  0  0  0  0  0  0
    0.9278   -4.6832    0.2357 H   0  0  0  0  0  0  0  0  0  0  0  0
    1.4747   -3.8435    1.6718 H   0  0  0  0  0  0  0  0  0  0  0  0
    1.4049    1.8823    0.0624 H   0  0  0  0  0  0  0  0  0  0  0  0
    1.2329    1.4047    1.7553 H   0  0  0  0  0  0  0  0  0  0  0  0
    2.7312    2.1804    1.2057 H   0  0  0  0  0  0  0  0  0  0  0  0
   -2.1516    1.1667    0.3280 H   0  0  0  0  0  0  0  0  0  0  0  0
   -1.4820   -3.9853    0.2761 H   0  0  0  0  0  0  0  0  0  0  0  0
   -4.0601    2.3243    0.6508 H   0  0  0  0  0  0  0  0  0  0  0  0
   -4.2664   -1.7980   -0.4967 H   0  0  0  0  0  0  0  0  0  0  0  0
   -6.4510    2.5239    0.4025 H   0  0  0  0  0  0  0  0  0  0  0  0
   -6.6554   -1.6238   -0.6936 H   0  0  0  0  0  0  0  0  0  0  0  0
   -8.3762   -0.8502   -1.7911 H   0  0  0  0  0  0  0  0  0  0  0  0
   -8.9465   -1.3585   -0.1978 H   0  0  0  0  0  0  0  0  0  0  0  0
   -8.9417    0.5139    1.6405 H   0  0  0  0  0  0  0  0  0  0  0  0
   -8.3666    2.1031    1.1363 H   0  0  0  0  0  0  0  0  0  0  0  0
  -10.2363    0.6409   -2.1152 H   0  0  0  0  0  0  0  0  0  0  0  0
  -10.8309   -0.9598   -1.6565 H   0  0  0  0  0  0  0  0  0  0  0  0
  -12.8980   -0.0921   -0.8379 H   0  0  0  0  0  0  0  0  0  0  0  0
  -12.8962    1.1639    0.3994 H   0  0  0  0  0  0  0  0  0  0  0  0
  -12.4540    1.5673   -1.2672 H   0  0  0  0  0  0  0  0  0  0  0  0
  -10.2297    2.4238   -0.3685 H   0  0  0  0  0  0  0  0  0  0  0  0
  -10.8176    1.9981    1.2447 H   0  0  0  0  0  0  0  0  0  0  0  0
  1  2  2  0
  2  3  1  0
  2 12  1  0
  3  4  1  0
  4  5  1  0
  5  6  2  0
  5 11  1  0
  6  7  1  0
  7  8  2  0
  8  9  1  0
  9 10  1  0
  9 11  2  0
 12 13  1  0
 12 15  2  0
 13 14  1  0
 13 18  2  0
 14 25  1  0
 15 16  1  0
 16 17  1  0
 16 18  1  0
 18 19  1  0
 19 20  1  0
 19 24  2  0
 20 21  2  0
 21 22  1  0
 21 26  1  0
 22 23  2  0
 23 24  1  0
 24 25  1  0
 26 27  1  0
 27 28  2  0
 27 32  1  0
 28 29  1  0
 29 30  2  0
 30 31  1  0
 30 33  1  0
 31 32  2  0
 33 34  1  0
 33 39  1  0
 34 35  1  0
 35 36  1  0
 36 37  1  0
 36 38  1  0
 38 39  1  0
  3 40  1  0
  4 41  1  0
  4 42  1  0
  6 43  1  0
 11 44  1  0
  7 45  1  0
 10 46  1  0
 10 47  1  0
 10 48  1  0
 14 49  1  0
 14 50  1  0
 25 51  1  0
 25 52  1  0
 17 53  1  0
 17 54  1  0
 17 55  1  0
 26 56  1  0
 23 57  1  0
 28 58  1  0
 32 59  1  0
 29 60  1  0
 31 61  1  0
 34 62  1  0
 34 63  1  0
 39 64  1  0
 39 65  1  0
 35 66  1  0
 35 67  1  0
 37 68  1  0
 37 69  1  0
 37 70  1  0
 38 71  1  0
 38 72  1  0
M  END
