
     RDKit          3D

 18 18  0  0  0  0  0  0  0  0999 V2000
    0.9620    0.2329    0.0198 O   0  0  0  0  0  0  0  0  0  0  0  0
    0.3443    0.0104   -1.0414 C   0  0  0  0  0  0  0  0  0  0  0  0
   -0.1248    1.0528   -1.7990 N   0  0  0  0  0  0  0  0  0  0  0  0
    0.0715   -1.4132   -1.5533 C   0  0  1  0  0  0  0  0  0  0  0  0
    0.8463   -2.4510   -0.8717 N   0  0  0  0  0  0  0  0  0  0  0  0
   -0.0745   -3.4573   -0.3517 C   0  0  0  0  0  0  0  0  0  0  0  0
   -1.5233   -3.0419   -0.6525 C   0  0  0  0  0  0  0  0  0  0  0  0
   -1.4360   -1.7337   -1.4272 C   0  0  0  0  0  0  0  0  0  0  0  0
    0.0335    1.9838   -1.5046 H   0  0  0  0  0  0  0  0  0  0  0  0
   -0.6109    0.8917   -2.6414 H   0  0  0  0  0  0  0  0  0  0  0  0
    0.3821   -1.4594   -2.6386 H   0  0  0  0  0  0  0  0  0  0  0  0
    1.4012   -2.0513   -0.1341 H   0  0  0  0  0  0  0  0  0  0  0  0
    0.0655   -3.6204    0.7512 H   0  0  0  0  0  0  0  0  0  0  0  0
    0.1669   -4.4245   -0.8730 H   0  0  0  0  0  0  0  0  0  0  0  0
   -2.0977   -2.9064    0.2964 H   0  0  0  0  0  0  0  0  0  0  0  0
   -2.0385   -3.8301   -1.2534 H   0  0  0  0  0  0  0  0  0  0  0  0
   -1.8886   -1.8358   -2.4433 H   0  0  0  0  0  0  0  0  0  0  0  0
   -1.9789   -0.9177   -0.8903 H   0  0  0  0  0  0  0  0  0  0  0  0
  1  2  2  0
  2  3  1  0
  2  4  1  0
  3  9  1  0
  3 10  1  0
  4  5  1  0
  4  8  1  0
  4 11  1  6
  5  6  1  0
  5 12  1  0
  6  7  1  0
  6 13  1  0
  6 14  1  0
  7  8  1  0
  7 15  1  0
  7 16  1  0
  8 17  1  0
  8 18  1  0
M  END
