
     RDKit          3D

 77 79  0  0  0  0  0  0  0  0999 V2000
   -1.3637    2.9682   -0.2558 C   0  0  0  0  0  0  0  0  0  0  0  0
   -1.2463    1.4622   -0.0315 C   0  0  1  0  0  0  0  0  0  0  0  0
   -0.0765    1.2190    0.9494 C   0  0  1  0  0  0  0  0  0  0  0  0
   -0.3511   -0.1663    1.5269 C   0  0  0  0  0  0  0  0  0  0  0  0
   -1.8593   -0.1588    1.5415 C   0  0  0  0  0  0  0  0  0  0  0  0
   -4.4781    1.6734    1.6792 C   0  0  0  0  0  0  0  0  0  0  0  0
   -7.2463   -1.1229   -0.5619 C   0  0  2  0  0  0  0  0  0  0  0  0
   -8.1958   -0.5277    1.7587 C   0  0  0  0  0  0  0  0  0  0  0  0
   -7.5367   -1.5745    0.8720 C   0  0  0  0  0  0  0  0  0  0  0  0
   -8.5155   -0.6470   -1.2862 C   0  0  0  0  0  0  0  0  0  0  0  0
   -9.6443   -1.6671   -1.3318 C   0  0  0  0  0  0  0  0  0  0  0  0
   -6.7011   -2.2639   -1.2070 O   0  0  0  0  0  0  0  0  0  0  0  0
   -4.5899   -0.5366   -0.0399 S   0  0  0  0  0  0  0  0  0  0  0  0
   -3.8143    1.0438    0.4604 C   0  0  2  0  0  0  0  0  0  0  0  0
   -2.3637    0.7620    0.7176 C   0  0  0  0  0  0  0  0  0  0  0  0
   -1.0614    0.7274   -1.3665 C   0  0  0  0  0  0  0  0  0  0  0  0
   -0.0387    3.5343   -0.7821 C   0  0  0  0  0  0  0  0  0  0  0  0
    1.1924    3.1149    0.0413 C   0  0  0  0  0  0  0  0  0  0  0  0
    1.2225    1.6388    0.3497 C   0  0  0  0  0  0  0  0  0  0  0  0
    2.2494    0.8024    0.1365 C   0  0  0  0  0  0  0  0  0  0  0  0
    3.5389    1.1565   -0.4284 C   0  0  0  0  0  0  0  0  0  0  0  0
    4.5691    0.3284   -0.6595 C   0  0  0  0  0  0  0  0  0  0  0  0
    5.8691    0.8370   -1.2026 C   0  0  0  0  0  0  0  0  0  0  0  0
    7.0197    0.5109   -0.2413 C   0  0  1  0  0  0  0  0  0  0  0  0
    6.8539    1.1529    1.0074 O   0  0  0  0  0  0  0  0  0  0  0  0
    4.5923   -1.1413   -0.3691 C   0  0  0  0  0  0  0  0  0  0  0  0
    5.7520   -1.5054    0.5774 C   0  0  1  0  0  0  0  0  0  0  0  0
    5.8382   -2.8953    0.7627 O   0  0  0  0  0  0  0  0  0  0  0  0
    7.0483   -0.9740    0.0174 C   0  0  0  0  0  0  0  0  0  0  0  0
    8.0789   -1.7685   -0.2665 C   0  0  0  0  0  0  0  0  0  0  0  0
    9.3932   -1.3881   -0.8693 C   0  0  0  0  0  0  0  0  0  0  0  0
   10.4127   -2.0200   -0.1189 O   0  0  0  0  0  0  0  0  0  0  0  0
   -2.1641    3.2076   -0.9622 H   0  0  0  0  0  0  0  0  0  0  0  0
   -1.6232    3.4543    0.6907 H   0  0  0  0  0  0  0  0  0  0  0  0
   -0.2643    1.9151    1.7809 H   0  0  0  0  0  0  0  0  0  0  0  0
    0.0281   -0.9822    0.8998 H   0  0  0  0  0  0  0  0  0  0  0  0
    0.0877   -0.3053    2.5171 H   0  0  0  0  0  0  0  0  0  0  0  0
   -2.4454   -0.8532    2.1321 H   0  0  0  0  0  0  0  0  0  0  0  0
   -4.4560    0.9903    2.5280 H   0  0  0  0  0  0  0  0  0  0  0  0
   -3.9496    2.5867    1.9600 H   0  0  0  0  0  0  0  0  0  0  0  0
   -5.5160    1.9453    1.4861 H   0  0  0  0  0  0  0  0  0  0  0  0
   -6.1365    0.3987   -1.6302 H   0  0  0  0  0  0  0  0  0  0  0  0
   -6.5603    0.8566    0.0078 H   0  0  0  0  0  0  0  0  0  0  0  0
   -8.3593   -0.9307    2.7582 H   0  0  0  0  0  0  0  0  0  0  0  0
   -7.5792    0.3650    1.8698 H   0  0  0  0  0  0  0  0  0  0  0  0
   -9.1661   -0.2112    1.3736 H   0  0  0  0  0  0  0  0  0  0  0  0
   -8.1751   -2.4609    0.8292 H   0  0  0  0  0  0  0  0  0  0  0  0
   -6.5997   -1.8954    1.3332 H   0  0  0  0  0  0  0  0  0  0  0  0
   -8.8671    0.2760   -0.8170 H   0  0  0  0  0  0  0  0  0  0  0  0
   -8.2387   -0.3693   -2.3090 H   0  0  0  0  0  0  0  0  0  0  0  0
   -9.3162   -2.6047   -1.7806 H   0  0  0  0  0  0  0  0  0  0  0  0
  -10.0367   -1.8928   -0.3396 H   0  0  0  0  0  0  0  0  0  0  0  0
  -10.4748   -1.2898   -1.9290 H   0  0  0  0  0  0  0  0  0  0  0  0
   -6.5266   -2.0399   -2.1278 H   0  0  0  0  0  0  0  0  0  0  0  0
   -3.8998    1.7292   -0.3874 H   0  0  0  0  0  0  0  0  0  0  0  0
   -1.9700    0.8008   -1.9682 H   0  0  0  0  0  0  0  0  0  0  0  0
   -0.2418    1.1333   -1.9590 H   0  0  0  0  0  0  0  0  0  0  0  0
   -0.8549   -0.3322   -1.2105 H   0  0  0  0  0  0  0  0  0  0  0  0
    0.1060    3.2256   -1.8195 H   0  0  0  0  0  0  0  0  0  0  0  0
   -0.0910    4.6249   -0.8004 H   0  0  0  0  0  0  0  0  0  0  0  0
    2.0931    3.4516   -0.4715 H   0  0  0  0  0  0  0  0  0  0  0  0
    1.1658    3.6548    0.9957 H   0  0  0  0  0  0  0  0  0  0  0  0
    2.1079   -0.2341    0.4253 H   0  0  0  0  0  0  0  0  0  0  0  0
    3.6911    2.2002   -0.6858 H   0  0  0  0  0  0  0  0  0  0  0  0
    6.0952    0.3611   -2.1634 H   0  0  0  0  0  0  0  0  0  0  0  0
    5.8289    1.9145   -1.3879 H   0  0  0  0  0  0  0  0  0  0  0  0
    7.9525    0.8334   -0.7156 H   0  0  0  0  0  0  0  0  0  0  0  0
    6.6402    2.0780    0.8461 H   0  0  0  0  0  0  0  0  0  0  0  0
    3.6540   -1.4919    0.0638 H   0  0  0  0  0  0  0  0  0  0  0  0
    4.7401   -1.6936   -1.3051 H   0  0  0  0  0  0  0  0  0  0  0  0
    5.5632   -1.0053    1.5378 H   0  0  0  0  0  0  0  0  0  0  0  0
    5.0278   -3.1892    1.1899 H   0  0  0  0  0  0  0  0  0  0  0  0
    7.9753   -2.8323   -0.0801 H   0  0  0  0  0  0  0  0  0  0  0  0
    9.4094   -1.7281   -1.9139 H   0  0  0  0  0  0  0  0  0  0  0  0
    9.5343   -0.3023   -0.8963 H   0  0  0  0  0  0  0  0  0  0  0  0
   11.2415   -1.9062   -0.5926 H   0  0  0  0  0  0  0  0  0  0  0  0
   -6.2242    0.0212   -0.6072 C   0  0  0  0  0  0  0  0  0  0  0  0
 32 31  1  0
 31 30  1  0
 30 29  2  0
 25 24  1  0
 29 24  1  0
 29 27  1  0
 24 23  1  0
 27 28  1  0
 27 26  1  0
 23 22  1  0
 26 22  1  0
 22 21  2  0
 21 20  1  0
 20 19  2  0
 19  3  1  0
 19 18  1  0
  4  3  1  0
  4  5  1  0
 11 10  1  0
  3  2  1  0
  2 16  1  6
 18 17  1  0
  5 15  2  0
 10  7  1  0
  2 15  1  0
  2  1  1  0
 17  1  1  0
 15 14  1  0
 77  7  1  0
 77 13  1  0
  7 12  1  6
  7  9  1  0
  8  9  1  0
 14 13  1  0
 14  6  1  0
  1 33  1  0
  1 34  1  0
  3 35  1  1
  4 36  1  0
  4 37  1  0
  5 38  1  0
  6 39  1  0
  6 40  1  0
  6 41  1  0
 77 42  1  0
 77 43  1  0
  8 44  1  0
  8 45  1  0
  8 46  1  0
  9 47  1  0
  9 48  1  0
 10 49  1  0
 10 50  1  0
 11 51  1  0
 11 52  1  0
 11 53  1  0
 12 54  1  0
 14 55  1  6
 16 56  1  0
 16 57  1  0
 16 58  1  0
 17 59  1  0
 17 60  1  0
 18 61  1  0
 18 62  1  0
 20 63  1  0
 21 64  1  0
 23 65  1  0
 23 66  1  0
 24 67  1  6
 25 68  1  0
 26 69  1  0
 26 70  1  0
 27 71  1  1
 28 72  1  0
 30 73  1  0
 31 74  1  0
 31 75  1  0
 32 76  1  0
M  END
