
     RDKit          3D

 49 52  0  0  0  0  0  0  0  0999 V2000
    3.3610    1.0501    0.5872 C   0  0  0  0  0  0  0  0  0  0  0  0
   -4.0778    3.1629   -0.0852 N   0  0  0  0  0  0  0  0  0  0  0  0
   -0.3362    1.4325   -0.0502 C   0  0  0  0  0  0  0  0  0  0  0  0
    1.0320    0.8916   -0.0493 C   0  0  0  0  0  0  0  0  0  0  0  0
   -2.7423    1.1364   -0.0084 C   0  0  0  0  0  0  0  0  0  0  0  0
   -4.9185    0.4209    1.0106 C   0  0  0  0  0  0  0  0  0  0  0  0
    6.0187   -2.6679    1.1088 C   0  0  0  0  0  0  0  0  0  0  0  0
    5.4005   -3.1086   -0.2122 C   0  0  0  0  0  0  0  0  0  0  0  0
   -1.4646    0.6105   -0.0067 C   0  0  0  0  0  0  0  0  0  0  0  0
    5.0837   -0.6842   -0.0033 C   0  0  2  0  0  0  0  0  0  0  0  0
   -5.0892   -1.7202   -0.7484 C   0  0  0  0  0  0  0  0  0  0  0  0
    5.3116   -1.3444    1.3860 C   0  0  0  0  0  0  0  0  0  0  0  0
    1.3366   -0.3023   -0.7005 C   0  0  0  0  0  0  0  0  0  0  0  0
    2.6292   -0.8074   -0.7120 C   0  0  0  0  0  0  0  0  0  0  0  0
    3.6694   -0.1351   -0.0808 C   0  0  0  0  0  0  0  0  0  0  0  0
    2.0730    1.5558    0.6032 C   0  0  0  0  0  0  0  0  0  0  0  0
   -2.8642    2.5449   -0.0792 C   0  0  0  0  0  0  0  0  0  0  0  0
   -1.7953    3.3361   -0.1184 N   0  0  0  0  0  0  0  0  0  0  0  0
   -0.5858    2.7979   -0.0981 C   0  0  0  0  0  0  0  0  0  0  0  0
   -3.9148    0.2410    0.0572 C   0  0  0  0  0  0  0  0  0  0  0  0
   -5.9944   -0.4487    1.0907 C   0  0  0  0  0  0  0  0  0  0  0  0
   -6.0706   -1.5148    0.2079 C   0  0  0  0  0  0  0  0  0  0  0  0
   -4.0202   -0.8403   -0.8173 C   0  0  0  0  0  0  0  0  0  0  0  0
   -7.4124   -2.6064    0.3041 Cl  0  0  0  0  0  0  0  0  0  0  0  0
    5.4095   -1.8192   -1.0259 C   0  0  0  0  0  0  0  0  0  0  0  0
    6.0770    0.4318   -0.2725 C   0  0  0  0  0  0  0  0  0  0  0  0
    7.0218    0.7157    0.4201 O   0  0  0  0  0  0  0  0  0  0  0  0
    5.8136    1.0458   -1.4210 O   0  0  0  0  0  0  0  0  0  0  0  0
    4.1320    1.5898    1.1263 H   0  0  0  0  0  0  0  0  0  0  0  0
   -4.8784    2.6464   -0.4099 H   0  0  0  0  0  0  0  0  0  0  0  0
   -4.0711    4.1310   -0.3628 H   0  0  0  0  0  0  0  0  0  0  0  0
   -4.8580    1.2414    1.7136 H   0  0  0  0  0  0  0  0  0  0  0  0
    5.8851   -3.3891    1.9159 H   0  0  0  0  0  0  0  0  0  0  0  0
    7.0935   -2.5117    0.9821 H   0  0  0  0  0  0  0  0  0  0  0  0
    5.9497   -3.9117   -0.7050 H   0  0  0  0  0  0  0  0  0  0  0  0
    4.3771   -3.4599   -0.0495 H   0  0  0  0  0  0  0  0  0  0  0  0
   -1.3452   -0.4645    0.0665 H   0  0  0  0  0  0  0  0  0  0  0  0
   -5.1559   -2.5509   -1.4376 H   0  0  0  0  0  0  0  0  0  0  0  0
    4.3401   -1.5495    1.8391 H   0  0  0  0  0  0  0  0  0  0  0  0
    5.8533   -0.6948    2.0720 H   0  0  0  0  0  0  0  0  0  0  0  0
    0.5615   -0.8434   -1.2295 H   0  0  0  0  0  0  0  0  0  0  0  0
    2.8100   -1.7391   -1.2316 H   0  0  0  0  0  0  0  0  0  0  0  0
    1.8758    2.4701    1.1489 H   0  0  0  0  0  0  0  0  0  0  0  0
    0.2399    3.5006   -0.1470 H   0  0  0  0  0  0  0  0  0  0  0  0
   -6.7599   -0.2983    1.8396 H   0  0  0  0  0  0  0  0  0  0  0  0
   -3.2628   -0.9954   -1.5752 H   0  0  0  0  0  0  0  0  0  0  0  0
    6.4163   -1.6800   -1.4292 H   0  0  0  0  0  0  0  0  0  0  0  0
    4.7404   -1.8234   -1.8851 H   0  0  0  0  0  0  0  0  0  0  0  0
    6.4869    1.7196   -1.5977 H   0  0  0  0  0  0  0  0  0  0  0  0
 24 22  1  0
 22 11  2  0
 22 21  1  0
 11 23  1  0
 21  6  2  0
 23 20  2  0
  2 17  1  0
  6 20  1  0
 20  5  1  0
 17  5  1  0
 17 18  2  0
  5  9  2  0
 18 19  1  0
  9  3  1  0
 19  3  2  0
  3  4  1  0
  4 16  1  0
  4 13  2  0
 16  1  2  0
  1 15  1  0
 13 14  1  0
 15 14  2  0
 15 10  1  0
 25 10  1  0
 25  8  1  0
 10 12  1  0
 10 26  1  6
 12  7  1  0
  8  7  1  0
 26 27  2  0
 26 28  1  0
  1 29  1  0
  2 30  1  0
  2 31  1  0
  6 32  1  0
  7 33  1  0
  7 34  1  0
  8 35  1  0
  8 36  1  0
  9 37  1  0
 11 38  1  0
 12 39  1  0
 12 40  1  0
 13 41  1  0
 14 42  1  0
 16 43  1  0
 19 44  1  0
 21 45  1  0
 23 46  1  0
 25 47  1  0
 25 48  1  0
 28 49  1  0
M  END
