
     RDKit          3D

 26 26  0  0  0  0  0  0  0  0999 V2000
    4.1192    0.1357    0.6644 C   0  0  0  0  0  0  0  0  0  0  0  0
   -0.1675    1.1356   -0.1772 C   0  0  0  0  0  0  0  0  0  0  0  0
    3.3843   -0.0996   -0.6577 C   0  0  0  0  0  0  0  0  0  0  0  0
    1.1836   -1.2837   -0.3554 C   0  0  0  0  0  0  0  0  0  0  0  0
    1.8947   -0.0940   -0.4792 C   0  0  0  0  0  0  0  0  0  0  0  0
   -2.9300    1.0764    1.1010 O   0  0  0  0  0  0  0  0  0  0  0  0
   -3.0153   -1.3734    0.6161 O   0  0  0  0  0  0  0  0  0  0  0  0
   -3.1499    0.3995   -1.2749 N   0  0  0  0  0  0  0  0  0  0  0  0
   -0.8522   -0.0687   -0.0578 C   0  0  0  0  0  0  0  0  0  0  0  0
    1.1988    1.1130   -0.3871 C   0  0  0  0  0  0  0  0  0  0  0  0
   -0.1875   -1.2817   -0.1432 C   0  0  0  0  0  0  0  0  0  0  0  0
    5.6308    0.1319    0.4916 C   0  0  0  0  0  0  0  0  0  0  0  0
    3.7980    1.0907    1.0898 H   0  0  0  0  0  0  0  0  0  0  0  0
    3.8260   -0.6350    1.3825 H   0  0  0  0  0  0  0  0  0  0  0  0
   -0.6884    2.0816   -0.1094 H   0  0  0  0  0  0  0  0  0  0  0  0
    3.6730    0.6770   -1.3713 H   0  0  0  0  0  0  0  0  0  0  0  0
    3.7016   -1.0545   -1.0846 H   0  0  0  0  0  0  0  0  0  0  0  0
    1.7060   -2.2297   -0.4282 H   0  0  0  0  0  0  0  0  0  0  0  0
   -4.1067    0.7387   -1.2324 H   0  0  0  0  0  0  0  0  0  0  0  0
   -3.0749   -0.3509   -1.9539 H   0  0  0  0  0  0  0  0  0  0  0  0
    1.7358    2.0490   -0.4836 H   0  0  0  0  0  0  0  0  0  0  0  0
   -0.7206   -2.2177   -0.0481 H   0  0  0  0  0  0  0  0  0  0  0  0
    5.9491    0.8994   -0.2161 H   0  0  0  0  0  0  0  0  0  0  0  0
    6.1372    0.3238    1.4380 H   0  0  0  0  0  0  0  0  0  0  0  0
    5.9831   -0.8300    0.1157 H   0  0  0  0  0  0  0  0  0  0  0  0
   -2.5961   -0.0347    0.2206 S   0  0  1  0  0  0  0  0  0  0  0  0
 12  1  1  0
  1  3  1  0
  3  5  1  0
  5 10  1  0
  5  4  2  0
 10  2  2  0
  4 11  1  0
  2  9  1  0
 11  9  2  0
  9 26  1  0
  6 26  2  0
 26  7  2  0
 26  8  1  6
  1 13  1  0
  1 14  1  0
  2 15  1  0
  3 16  1  0
  3 17  1  0
  4 18  1  0
  8 19  1  0
  8 20  1  0
 10 21  1  0
 11 22  1  0
 12 23  1  0
 12 24  1  0
 12 25  1  0
M  END
