
     RDKit          3D

 20 20  0  0  0  0  0  0  0  0999 V2000
   -0.6200   -1.1279   -0.4198 C   0  0  0  0  0  0  0  0  0  0  0  0
   -2.1310   -0.8179   -0.3395 C   0  0  0  0  0  0  0  0  0  0  0  0
   -2.2474    0.5331    0.3913 C   0  0  0  0  0  0  0  0  0  0  0  0
   -0.8641    1.1644    0.2579 C   0  0  0  0  0  0  0  0  0  0  0  0
    0.0634   -0.0335    0.4259 C   0  0  2  0  0  0  0  0  0  0  0  0
    1.5131    0.1653    0.0478 C   0  0  0  0  0  0  0  0  0  0  0  0
    2.3487   -0.7689    0.5816 N   0  0  0  0  0  0  0  0  0  0  0  0
    1.9832    1.0949   -0.6925 N   0  0  0  0  0  0  0  0  0  0  0  0
   -0.3776   -2.1314   -0.0689 H   0  0  0  0  0  0  0  0  0  0  0  0
   -0.2710   -1.0597   -1.4527 H   0  0  0  0  0  0  0  0  0  0  0  0
   -2.5570   -0.7538   -1.3414 H   0  0  0  0  0  0  0  0  0  0  0  0
   -2.6784   -1.6024    0.1835 H   0  0  0  0  0  0  0  0  0  0  0  0
   -3.0398    1.1642   -0.0124 H   0  0  0  0  0  0  0  0  0  0  0  0
   -2.4719    0.3733    1.4483 H   0  0  0  0  0  0  0  0  0  0  0  0
   -0.7541    1.5982   -0.7415 H   0  0  0  0  0  0  0  0  0  0  0  0
   -0.6799    1.9556    0.9860 H   0  0  0  0  0  0  0  0  0  0  0  0
    0.0309   -0.3387    1.4780 H   0  0  0  0  0  0  0  0  0  0  0  0
    1.9600   -1.6267    0.9335 H   0  0  0  0  0  0  0  0  0  0  0  0
    3.2714   -0.8513    0.1872 H   0  0  0  0  0  0  0  0  0  0  0  0
    1.2467    1.7312   -0.9712 H   0  0  0  0  0  0  0  0  0  0  0  0
  1  2  1  0
  1  5  1  0
  2  3  1  0
  3  4  1  0
  4  5  1  0
  5  6  1  0
  6  7  1  0
  6  8  2  0
  1  9  1  0
  1 10  1  0
  2 11  1  0
  2 12  1  0
  3 13  1  0
  3 14  1  0
  4 15  1  0
  4 16  1  0
  5 17  1  1
  7 18  1  0
  7 19  1  0
  8 20  1  0
M  END
