
     RDKit          3D

 34 36  0  0  0  0  0  0  0  0999 V2000
    1.6752   -0.3019   -4.7101 C   0  0  0  0  0  0  0  0  0  0  0  0
    1.8771    0.0251   -3.3822 C   0  0  0  0  0  0  0  0  0  0  0  0
    0.7860    0.1527   -2.5255 C   0  0  0  0  0  0  0  0  0  0  0  0
   -0.5038   -0.0531   -3.0144 C   0  0  0  0  0  0  0  0  0  0  0  0
   -0.7021   -0.3841   -4.3518 C   0  0  0  0  0  0  0  0  0  0  0  0
    0.3857   -0.5078   -5.1958 C   0  0  0  0  0  0  0  0  0  0  0  0
    1.0220    0.4768   -1.1056 C   0  0  0  0  0  0  0  0  0  0  0  0
    2.1428    0.5930   -0.6288 O   0  0  0  0  0  0  0  0  0  0  0  0
   -0.0886    0.6358   -0.3492 N   0  0  0  0  0  0  0  0  0  0  0  0
   -1.3535    0.3989   -0.8446 N   0  0  0  0  0  0  0  0  0  0  0  0
   -1.6634    0.0979   -2.1215 C   0  0  0  0  0  0  0  0  0  0  0  0
   -2.8255   -0.0264   -2.4803 O   0  0  0  0  0  0  0  0  0  0  0  0
   -0.0204    0.7498    1.0970 C   0  0  0  0  0  0  0  0  0  0  0  0
   -0.0792   -0.6122    1.7943 C   0  0  0  0  0  0  0  0  0  0  0  0
   -0.0269   -0.4393    3.2858 C   0  0  0  0  0  0  0  0  0  0  0  0
   -1.1964   -0.3854    4.0398 C   0  0  0  0  0  0  0  0  0  0  0  0
    1.1956   -0.2831    3.9361 C   0  0  0  0  0  0  0  0  0  0  0  0
   -1.1475   -0.1855    5.4132 C   0  0  0  0  0  0  0  0  0  0  0  0
    1.2491   -0.0814    5.3084 C   0  0  0  0  0  0  0  0  0  0  0  0
    0.0763   -0.0330    6.0515 C   0  0  0  0  0  0  0  0  0  0  0  0
    2.5234   -0.3987   -5.3742 H   0  0  0  0  0  0  0  0  0  0  0  0
    2.8782    0.1816   -3.0056 H   0  0  0  0  0  0  0  0  0  0  0  0
   -1.7052   -0.5420   -4.7234 H   0  0  0  0  0  0  0  0  0  0  0  0
    0.2340   -0.7645   -6.2356 H   0  0  0  0  0  0  0  0  0  0  0  0
   -2.1025    0.6535   -0.2145 H   0  0  0  0  0  0  0  0  0  0  0  0
    0.9028    1.2674    1.3428 H   0  0  0  0  0  0  0  0  0  0  0  0
   -0.8399    1.3915    1.4271 H   0  0  0  0  0  0  0  0  0  0  0  0
   -0.9952   -1.1324    1.5067 H   0  0  0  0  0  0  0  0  0  0  0  0
    0.7594   -1.2216    1.4519 H   0  0  0  0  0  0  0  0  0  0  0  0
   -2.1552   -0.5102    3.5495 H   0  0  0  0  0  0  0  0  0  0  0  0
    2.1146   -0.3251    3.3621 H   0  0  0  0  0  0  0  0  0  0  0  0
   -2.0656   -0.1510    5.9855 H   0  0  0  0  0  0  0  0  0  0  0  0
    2.2069    0.0368    5.7988 H   0  0  0  0  0  0  0  0  0  0  0  0
    0.1169    0.1184    7.1223 H   0  0  0  0  0  0  0  0  0  0  0  0
  1  2  2  0
  1  6  1  0
  1 21  1  0
  2  3  1  0
  2 22  1  0
  3  4  2  0
  3  7  1  0
  4  5  1  0
  4 11  1  0
  5  6  2  0
  5 23  1  0
  6 24  1  0
  7  8  2  0
  7  9  1  0
  9 10  2  0
  9 13  1  0
 10 11  1  0
 10 25  1  0
 11 12  2  0
 13 14  1  0
 13 26  1  0
 13 27  1  0
 14 15  1  0
 14 28  1  0
 14 29  1  0
 15 16  2  0
 15 17  1  0
 16 18  1  0
 16 30  1  0
 17 19  2  0
 17 31  1  0
 18 20  2  0
 18 32  1  0
 19 20  1  0
 19 33  1  0
 20 34  1  0
M  CHG  2   9   1  10   1
M  END
