
     RDKit          3D

 52 56  0  0  0  0  0  0  0  0999 V2000
    3.8846   -1.1882   -0.2788 C   0  0  0  0  0  0  0  0  0  0  0  0
    4.9952    0.9642   -0.2890 C   0  0  0  0  0  0  0  0  0  0  0  0
    5.5803    0.5947   -1.4878 C   0  0  0  0  0  0  0  0  0  0  0  0
    5.3202   -0.6525   -2.0750 C   0  0  0  0  0  0  0  0  0  0  0  0
    4.4666   -1.5677   -1.4819 C   0  0  0  0  0  0  0  0  0  0  0  0
    3.0098   -1.8133    0.5702 N   0  0  0  0  0  0  0  0  0  0  0  0
    2.7693   -0.9649    1.5995 C   0  0  0  0  0  0  0  0  0  0  0  0
   -0.2263   -1.8485    1.5943 C   0  0  0  0  0  0  0  0  0  0  0  0
   -2.2005   -2.3225    0.6365 C   0  0  0  0  0  0  0  0  0  0  0  0
   -1.2357   -0.3155    0.3298 C   0  0  0  0  0  0  0  0  0  0  0  0
   -3.2426   -4.5313    0.9203 C   0  0  0  0  0  0  0  0  0  0  0  0
    1.8761   -1.3310    2.7410 C   0  0  0  0  0  0  0  0  0  0  0  0
   -3.3970   -5.4995   -0.2415 C   0  0  0  0  0  0  0  0  0  0  0  0
   -4.4681   -3.8826   -1.5365 C   0  0  0  0  0  0  0  0  0  0  0  0
   -4.3557   -2.8528   -0.4245 C   0  0  0  0  0  0  0  0  0  0  0  0
   -0.4545    1.9791   -0.2981 C   0  0  0  0  0  0  0  0  0  0  0  0
    0.7995    2.0004    0.3177 C   0  0  0  0  0  0  0  0  0  0  0  0
    1.6302    3.1032    0.2291 C   0  0  0  0  0  0  0  0  0  0  0  0
    1.2253    4.2202   -0.4791 C   0  0  0  0  0  0  0  0  0  0  0  0
   -0.8316    3.1317   -1.0059 C   0  0  0  0  0  0  0  0  0  0  0  0
   -0.0107    4.2407   -1.1016 C   0  0  0  0  0  0  0  0  0  0  0  0
    2.2611    5.6020   -0.5971 Cl  0  0  0  0  0  0  0  0  0  0  0  0
   -1.3284    0.9078   -0.2646 N   0  0  0  0  0  0  0  0  0  0  0  0
   -0.1873   -0.6157    1.0805 N   0  0  0  0  0  0  0  0  0  0  0  0
   -1.1927   -2.7387    1.4091 N   0  0  0  0  0  0  0  0  0  0  0  0
   -3.2169   -3.1723    0.4146 N   0  0  0  0  0  0  0  0  0  0  0  0
   -4.5303   -5.1957   -1.0242 O   0  0  0  0  0  0  0  0  0  0  0  0
   -2.2666   -1.1111    0.0740 N   0  0  0  0  0  0  0  0  0  0  0  0
    0.8121   -2.2216    2.3626 N   0  0  0  0  0  0  0  0  0  0  0  0
    4.1354    0.0556    0.3257 C   0  0  0  0  0  0  0  0  0  0  0  0
    3.4212    0.1598    1.4974 N   0  0  0  0  0  0  0  0  0  0  0  0
    5.1985    1.9284    0.1596 H   0  0  0  0  0  0  0  0  0  0  0  0
    6.2540    1.2798   -1.9855 H   0  0  0  0  0  0  0  0  0  0  0  0
    5.7965   -0.9045   -3.0134 H   0  0  0  0  0  0  0  0  0  0  0  0
    4.2655   -2.5297   -1.9349 H   0  0  0  0  0  0  0  0  0  0  0  0
    2.6046   -2.7287    0.4533 H   0  0  0  0  0  0  0  0  0  0  0  0
   -4.0844   -4.6402    1.6123 H   0  0  0  0  0  0  0  0  0  0  0  0
   -2.3281   -4.7440    1.4659 H   0  0  0  0  0  0  0  0  0  0  0  0
    2.4643   -1.8411    3.5057 H   0  0  0  0  0  0  0  0  0  0  0  0
    1.5012   -0.4090    3.1891 H   0  0  0  0  0  0  0  0  0  0  0  0
   -2.4846   -5.4772   -0.8545 H   0  0  0  0  0  0  0  0  0  0  0  0
   -3.5239   -6.5149    0.1368 H   0  0  0  0  0  0  0  0  0  0  0  0
   -5.3795   -3.7132   -2.1114 H   0  0  0  0  0  0  0  0  0  0  0  0
   -3.6112   -3.7736   -2.2162 H   0  0  0  0  0  0  0  0  0  0  0  0
   -4.2430   -1.8582   -0.8463 H   0  0  0  0  0  0  0  0  0  0  0  0
   -5.2645   -2.8603    0.1871 H   0  0  0  0  0  0  0  0  0  0  0  0
    1.1364    1.1412    0.8716 H   0  0  0  0  0  0  0  0  0  0  0  0
    2.5930    3.0742    0.7209 H   0  0  0  0  0  0  0  0  0  0  0  0
   -0.3382    5.1073   -1.6589 H   0  0  0  0  0  0  0  0  0  0  0  0
   -2.1828    1.0124   -0.7927 H   0  0  0  0  0  0  0  0  0  0  0  0
    0.7588   -3.1267    2.7989 H   0  0  0  0  0  0  0  0  0  0  0  0
   -2.3717    3.1946   -1.8024 Cl  0  0  0  0  0  0  0  0  0  0  0  0
 12 29  1  0
 12  7  1  0
 29  8  1  0
  8 25  1  0
  8 24  2  0
  7  6  1  0
  7 31  2  0
 25  9  2  0
 24 10  1  0
 17 18  2  0
 17 16  1  0
 15 14  1  0
 15 26  1  0
 18 19  1  0
  6  1  1  0
 14 27  1  0
 31 30  1  0
  9 26  1  0
  9 28  1  0
 27 13  1  0
 10 28  2  0
 10 23  1  0
 26 11  1  0
 23 16  1  0
 16 20  2  0
  1 30  1  0
  1  5  2  0
 19 22  1  0
 19 21  2  0
 30  2  2  0
 11 13  1  0
  5  4  1  0
 20 21  1  0
 20 52  1  0
  2  3  1  0
  4  3  2  0
  2 32  1  0
  3 33  1  0
  4 34  1  0
  5 35  1  0
  6 36  1  0
 11 37  1  0
 11 38  1  0
 12 39  1  0
 12 40  1  0
 13 41  1  0
 13 42  1  0
 14 43  1  0
 14 44  1  0
 15 45  1  0
 15 46  1  0
 17 47  1  0
 18 48  1  0
 21 49  1  0
 23 50  1  0
 29 51  1  0
M  END
