
     RDKit          3D

 16 15  0  0  0  0  0  0  0  0999 V2000
    1.7501   -0.7937   -0.0229 C   0  0  0  0  0  0  0  0  0  0  0  0
    0.5125    0.0103    0.3600 C   0  0  1  0  0  0  0  0  0  0  0  0
    0.6560    1.4630   -0.0827 C   0  0  0  0  0  0  0  0  0  0  0  0
   -0.7378   -0.6412   -0.2240 C   0  0  0  0  0  0  0  0  0  0  0  0
   -1.9613    0.0129    0.2185 N   0  0  0  0  0  0  0  0  0  0  0  0
    2.6513   -0.3698    0.4227 H   0  0  0  0  0  0  0  0  0  0  0  0
    1.6715   -1.8307    0.3092 H   0  0  0  0  0  0  0  0  0  0  0  0
    1.8936   -0.8032   -1.1063 H   0  0  0  0  0  0  0  0  0  0  0  0
    0.4118   -0.0097    1.4512 H   0  0  0  0  0  0  0  0  0  0  0  0
    0.7233    1.5341   -1.1717 H   0  0  0  0  0  0  0  0  0  0  0  0
   -0.1849    2.0781    0.2414 H   0  0  0  0  0  0  0  0  0  0  0  0
    1.5610    1.9115    0.3314 H   0  0  0  0  0  0  0  0  0  0  0  0
   -0.6325   -0.6773   -1.3201 H   0  0  0  0  0  0  0  0  0  0  0  0
   -0.7762   -1.6815    0.1108 H   0  0  0  0  0  0  0  0  0  0  0  0
   -2.0619    0.9041   -0.2508 H   0  0  0  0  0  0  0  0  0  0  0  0
   -2.7572   -0.5356   -0.0806 H   0  0  0  0  0  0  0  0  0  0  0  0
  1  2  1  0
  1  6  1  0
  1  7  1  0
  1  8  1  0
  2  3  1  0
  2  4  1  0
  2  9  1  1
  3 10  1  0
  3 11  1  0
  3 12  1  0
  4  5  1  0
  4 13  1  0
  4 14  1  0
  5 15  1  0
  5 16  1  0
M  END
