
     RDKit          3D

 54 58  0  0  0  0  0  0  0  0999 V2000
    1.5529   -0.1340    1.9460 O   0  0  0  0  0  0  0  0  0  0  0  0
    1.2020   -0.4261    0.8154 C   0  0  0  0  0  0  0  0  0  0  0  0
    2.0796   -0.6947   -0.1738 N   0  0  0  0  0  0  0  0  0  0  0  0
    3.5003   -0.7182    0.0550 C   0  0  1  0  0  0  0  0  0  0  0  0
    4.1685   -1.6530   -0.9606 C   0  0  0  0  0  0  0  0  0  0  0  0
    3.6673   -3.0027   -0.8615 N   0  0  0  0  0  0  0  0  0  0  0  0
    2.6803   -3.5677   -1.6219 C   0  0  0  0  0  0  0  0  0  0  0  0
    2.4837   -4.8132   -1.1003 C   0  0  0  0  0  0  0  0  0  0  0  0
    3.3209   -5.0174   -0.0395 N   0  0  0  0  0  0  0  0  0  0  0  0
    4.0095   -3.9123    0.0773 C   0  0  0  0  0  0  0  0  0  0  0  0
    4.1400    0.6524   -0.0139 C   0  0  0  0  0  0  0  0  0  0  0  0
    3.5884    1.6648   -0.7912 C   0  0  0  0  0  0  0  0  0  0  0  0
    4.1714    2.9174   -0.8859 C   0  0  0  0  0  0  0  0  0  0  0  0
    5.3385    3.1672   -0.1836 C   0  0  0  0  0  0  0  0  0  0  0  0
    6.0804    4.7253   -0.2793 Cl  0  0  0  0  0  0  0  0  0  0  0  0
    5.9254    2.1877    0.5991 C   0  0  0  0  0  0  0  0  0  0  0  0
    5.3178    0.9438    0.6688 C   0  0  0  0  0  0  0  0  0  0  0  0
    6.0802   -0.2666    1.6503 Cl  0  0  0  0  0  0  0  0  0  0  0  0
   -0.2412   -0.5062    0.4407 C   0  0  0  0  0  0  0  0  0  0  0  0
   -0.7071   -1.3653   -0.5529 C   0  0  0  0  0  0  0  0  0  0  0  0
   -2.0543   -1.4188   -0.8571 C   0  0  0  0  0  0  0  0  0  0  0  0
   -2.9577   -0.6076   -0.1713 C   0  0  0  0  0  0  0  0  0  0  0  0
   -2.4972    0.2433    0.8330 C   0  0  0  0  0  0  0  0  0  0  0  0
   -1.1493    0.2827    1.1401 C   0  0  0  0  0  0  0  0  0  0  0  0
   -4.3651   -0.6668   -0.5206 C   0  0  0  0  0  0  0  0  0  0  0  0
   -4.9342   -1.3519   -1.4527 N   0  0  0  0  0  0  0  0  0  0  0  0
   -6.2649   -1.0704   -1.3941 N   0  0  0  0  0  0  0  0  0  0  0  0
   -6.4284   -0.2284   -0.4296 C   0  0  0  0  0  0  0  0  0  0  0  0
   -5.2598    0.0639    0.1616 O   0  0  0  0  0  0  0  0  0  0  0  0
   -7.6566    0.3858    0.0401 C   0  0  0  0  0  0  0  0  0  0  0  0
   -8.8489    0.1165   -0.6344 C   0  0  0  0  0  0  0  0  0  0  0  0
  -10.0317    0.6920   -0.2041 C   0  0  0  0  0  0  0  0  0  0  0  0
  -10.0366    1.5370    0.8996 C   0  0  0  0  0  0  0  0  0  0  0  0
   -8.8519    1.8049    1.5722 C   0  0  0  0  0  0  0  0  0  0  0  0
   -7.6622    1.2338    1.1476 C   0  0  0  0  0  0  0  0  0  0  0  0
    1.7424   -0.7764   -1.1203 H   0  0  0  0  0  0  0  0  0  0  0  0
    3.6616   -1.1234    1.0560 H   0  0  0  0  0  0  0  0  0  0  0  0
    4.0018   -1.2936   -1.9769 H   0  0  0  0  0  0  0  0  0  0  0  0
    5.2455   -1.6585   -0.7973 H   0  0  0  0  0  0  0  0  0  0  0  0
    2.2328   -3.0543   -2.4568 H   0  0  0  0  0  0  0  0  0  0  0  0
    1.7913   -5.5692   -1.4369 H   0  0  0  0  0  0  0  0  0  0  0  0
    4.7753   -3.7179    0.8141 H   0  0  0  0  0  0  0  0  0  0  0  0
    2.6716    1.4803   -1.3356 H   0  0  0  0  0  0  0  0  0  0  0  0
    3.7179    3.6841   -1.4981 H   0  0  0  0  0  0  0  0  0  0  0  0
    6.8372    2.3851    1.1452 H   0  0  0  0  0  0  0  0  0  0  0  0
   -0.0313   -2.0252   -1.0819 H   0  0  0  0  0  0  0  0  0  0  0  0
   -2.4051   -2.0947   -1.6250 H   0  0  0  0  0  0  0  0  0  0  0  0
   -3.1798    0.8802    1.3787 H   0  0  0  0  0  0  0  0  0  0  0  0
   -0.8014    0.9422    1.9234 H   0  0  0  0  0  0  0  0  0  0  0  0
   -8.8479   -0.5394   -1.4947 H   0  0  0  0  0  0  0  0  0  0  0  0
  -10.9523    0.4830   -0.7323 H   0  0  0  0  0  0  0  0  0  0  0  0
  -10.9624    1.9868    1.2330 H   0  0  0  0  0  0  0  0  0  0  0  0
   -8.8516    2.4614    2.4318 H   0  0  0  0  0  0  0  0  0  0  0  0
   -6.7480    1.4516    1.6836 H   0  0  0  0  0  0  0  0  0  0  0  0
  2  1  2  0
 19  2  1  0
  3  2  1  0
  3  4  1  0
  3 36  1  0
 11  4  1  0
  5  4  1  0
  4 37  1  1
  5  6  1  0
  5 38  1  0
  5 39  1  0
 10  6  1  0
  6  7  1  0
  7  8  2  0
  7 40  1  0
  9  8  1  0
  8 41  1  0
 10  9  2  0
 10 42  1  0
 12 11  2  0
 11 17  1  0
 13 12  1  0
 12 43  1  0
 13 14  2  0
 13 44  1  0
 15 14  1  0
 14 16  1  0
 16 17  2  0
 16 45  1  0
 17 18  1  0
 20 19  2  0
 19 24  1  0
 21 20  1  0
 20 46  1  0
 21 22  2  0
 21 47  1  0
 25 22  1  0
 22 23  1  0
 23 24  2  0
 23 48  1  0
 24 49  1  0
 26 25  2  0
 25 29  1  0
 27 26  1  0
 27 28  2  0
 28 30  1  0
 28 29  1  0
 35 30  1  0
 30 31  2  0
 31 32  1  0
 31 50  1  0
 33 32  2  0
 32 51  1  0
 34 33  1  0
 33 52  1  0
 35 34  2  0
 34 53  1  0
 35 54  1  0
M  END
