
     RDKit          3D

 27 27  0  0  0  0  0  0  0  0999 V2000
   -2.8254   -1.0875    0.0203 C   0  0  0  0  0  0  0  0  0  0  0  0
   -4.1006   -0.5558    0.0234 C   0  0  0  0  0  0  0  0  0  0  0  0
   -4.2411    0.8256    0.0048 C   0  0  0  0  0  0  0  0  0  0  0  0
   -3.2114    1.6629   -0.0152 N   0  0  0  0  0  0  0  0  0  0  0  0
   -1.9906    1.1442   -0.0173 C   0  0  0  0  0  0  0  0  0  0  0  0
   -1.7305   -0.2245   -0.0006 C   0  0  0  0  0  0  0  0  0  0  0  0
   -0.3474   -0.7847   -0.0060 C   0  0  0  0  0  0  0  0  0  0  0  0
    0.8157    0.1727   -0.0143 C   0  0  0  0  0  0  0  0  0  0  0  0
    2.1779   -0.5023   -0.0230 C   0  0  0  0  0  0  0  0  0  0  0  0
   -0.1868   -1.9862   -0.0028 O   0  0  0  0  0  0  0  0  0  0  0  0
    4.6816   -0.1551   -0.0425 C   0  0  0  0  0  0  0  0  0  0  0  0
    5.7479    0.8365   -0.0417 N   0  0  0  0  0  0  0  0  0  0  0  0
    3.3145    0.5117   -0.0266 C   0  0  0  0  0  0  0  0  0  0  0  0
   -2.6781   -2.1592    0.0342 H   0  0  0  0  0  0  0  0  0  0  0  0
   -4.9737   -1.1932    0.0392 H   0  0  0  0  0  0  0  0  0  0  0  0
   -5.2288    1.2728    0.0059 H   0  0  0  0  0  0  0  0  0  0  0  0
   -1.1801    1.8634   -0.0336 H   0  0  0  0  0  0  0  0  0  0  0  0
    0.7137    0.8330   -0.8830 H   0  0  0  0  0  0  0  0  0  0  0  0
    0.7243    0.8327    0.8559 H   0  0  0  0  0  0  0  0  0  0  0  0
    2.2734   -1.1537    0.8495 H   0  0  0  0  0  0  0  0  0  0  0  0
    2.2649   -1.1487   -0.9003 H   0  0  0  0  0  0  0  0  0  0  0  0
    3.2268    1.1703   -0.8961 H   0  0  0  0  0  0  0  0  0  0  0  0
    3.2341    1.1542    0.8577 H   0  0  0  0  0  0  0  0  0  0  0  0
    4.7726   -0.7563   -0.9518 H   0  0  0  0  0  0  0  0  0  0  0  0
    4.7408   -0.8622    0.7983 H   0  0  0  0  0  0  0  0  0  0  0  0
    5.7386    1.3297    0.8430 H   0  0  0  0  0  0  0  0  0  0  0  0
    6.6435    0.3667   -0.0776 H   0  0  0  0  0  0  0  0  0  0  0  0
  1  2  2  0
  1  6  1  0
  2  3  1  0
  3  4  2  0
  4  5  1  0
  5  6  2  0
  6  7  1  0
  7  8  1  0
  7 10  2  0
  8  9  1  0
  9 13  1  0
 11 12  1  0
 11 13  1  0
  1 14  1  0
  2 15  1  0
  3 16  1  0
  5 17  1  0
  8 18  1  0
  8 19  1  0
  9 20  1  0
  9 21  1  0
 13 22  1  0
 13 23  1  0
 11 24  1  0
 11 25  1  0
 12 26  1  0
 12 27  1  0
M  END
