
     RDKit          3D

 35 38  0  0  0  0  0  0  0  0999 V2000
   -0.0490    0.3692   -0.4114 C   0  0  0  0  0  0  0  0  0  0  0  0
   -1.0174    1.3515   -0.6126 C   0  0  0  0  0  0  0  0  0  0  0  0
   -0.6963    2.6880   -0.4761 C   0  0  0  0  0  0  0  0  0  0  0  0
   -1.9117    3.8852   -0.7440 Cl  0  0  0  0  0  0  0  0  0  0  0  0
    0.5882    3.0806   -0.1311 C   0  0  0  0  0  0  0  0  0  0  0  0
    1.5587    2.1155    0.0594 C   0  0  0  0  0  0  0  0  0  0  0  0
    1.2494    0.7676   -0.0756 C   0  0  0  0  0  0  0  0  0  0  0  0
    2.2542   -0.2004    0.0985 N   0  0  0  0  0  0  0  0  0  0  0  0
    3.2517   -0.2914    1.0302 C   0  0  0  0  0  0  0  0  0  0  0  0
    3.4488    0.6292    2.1749 C   0  0  0  0  0  0  0  0  0  0  0  0
    3.9790   -1.3372    0.7662 N   0  0  0  0  0  0  0  0  0  0  0  0
    3.4750   -1.9500   -0.3384 N   0  0  0  0  0  0  0  0  0  0  0  0
    2.4474   -1.2672   -0.7304 C   0  0  0  0  0  0  0  0  0  0  0  0
    1.4832   -1.5594   -1.8187 C   0  0  0  0  0  0  0  0  0  0  0  0
    0.2139   -1.9308   -1.2211 N   0  0  0  0  0  0  0  0  0  0  0  0
   -0.4493   -1.0548   -0.5820 C   0  0  0  0  0  0  0  0  0  0  0  0
   -1.7413   -1.4683    0.0171 C   0  0  0  0  0  0  0  0  0  0  0  0
   -2.5137   -2.4481   -0.6062 C   0  0  0  0  0  0  0  0  0  0  0  0
   -3.7063   -2.8660   -0.0381 C   0  0  0  0  0  0  0  0  0  0  0  0
   -4.1352   -2.3214    1.1669 C   0  0  0  0  0  0  0  0  0  0  0  0
   -3.3675   -1.3525    1.7981 C   0  0  0  0  0  0  0  0  0  0  0  0
   -2.1804   -0.9220    1.2228 C   0  0  0  0  0  0  0  0  0  0  0  0
   -2.0235    1.0619   -0.8837 H   0  0  0  0  0  0  0  0  0  0  0  0
    0.8397    4.1269   -0.0291 H   0  0  0  0  0  0  0  0  0  0  0  0
    2.5678    2.4259    0.2904 H   0  0  0  0  0  0  0  0  0  0  0  0
    2.5013    0.9077    2.6354 H   0  0  0  0  0  0  0  0  0  0  0  0
    4.0638    0.1350    2.9232 H   0  0  0  0  0  0  0  0  0  0  0  0
    3.9606    1.5447    1.8777 H   0  0  0  0  0  0  0  0  0  0  0  0
    1.3844   -0.6907   -2.4814 H   0  0  0  0  0  0  0  0  0  0  0  0
    1.8581   -2.3896   -2.4136 H   0  0  0  0  0  0  0  0  0  0  0  0
   -2.1828   -2.8722   -1.5450 H   0  0  0  0  0  0  0  0  0  0  0  0
   -4.3050   -3.6163   -0.5375 H   0  0  0  0  0  0  0  0  0  0  0  0
   -5.0660   -2.6505    1.6102 H   0  0  0  0  0  0  0  0  0  0  0  0
   -3.6901   -0.9293    2.7400 H   0  0  0  0  0  0  0  0  0  0  0  0
   -1.5880   -0.1693    1.7275 H   0  0  0  0  0  0  0  0  0  0  0  0
 21 20  2  0
 21 22  1  0
 20 19  1  0
 22 17  2  0
 19 18  2  0
 17 18  1  0
 17 16  1  0
 15 16  2  0
 15 14  1  0
 16  1  1  0
 14 13  1  0
  1  2  2  0
  1  7  1  0
  2  3  1  0
 13 12  2  0
 13  8  1  0
 12 11  1  0
  8  7  1  0
  8  9  1  0
  7  6  2  0
  3  4  1  0
  3  5  2  0
 11  9  2  0
  9 10  1  0
  6  5  1  0
  2 23  1  0
  5 24  1  0
  6 25  1  0
 10 26  1  0
 10 27  1  0
 10 28  1  0
 14 29  1  0
 14 30  1  0
 18 31  1  0
 19 32  1  0
 20 33  1  0
 21 34  1  0
 22 35  1  0
M  END
