
     RDKit          3D

 27 28  0  0  0  0  0  0  0  0999 V2000
   -0.5250    0.5350   -0.2530 C   0  0  2  0  0  0  0  0  0  0  0  0
    0.1710   -0.1720   -1.4220 C   0  0  0  0  0  0  0  0  0  0  0  0
   -0.1380   -0.1380   -2.5890 O   0  0  0  0  0  0  0  0  0  0  0  0
    1.3320   -0.9430   -0.7810 C   0  0  0  0  0  0  0  0  0  0  0  0
    1.2470   -0.6030    0.7380 C   0  0  1  0  0  0  0  0  0  0  0  0
    1.6570    0.8970    0.8410 C   0  0  0  0  0  0  0  0  0  0  0  0
    0.4840    1.6630    0.1860 C   0  0  0  0  0  0  0  0  0  0  0  0
   -0.3080   -0.4910    0.9120 C   0  0  2  0  0  0  0  0  0  0  0  0
   -1.0140   -1.8220    0.6450 C   0  0  0  0  0  0  0  0  0  0  0  0
   -0.6940    0.0910    2.2730 C   0  0  0  0  0  0  0  0  0  0  0  0
   -1.9670    0.9880   -0.4920 C   0  0  0  0  0  0  0  0  0  0  0  0
    2.2850   -0.5890   -1.1750 H   0  0  0  0  0  0  0  0  0  0  0  0
    1.2210   -2.0130   -0.9590 H   0  0  0  0  0  0  0  0  0  0  0  0
    1.7630   -1.2880    1.4110 H   0  0  0  0  0  0  0  0  0  0  0  0
    1.7670    1.1910    1.8850 H   0  0  0  0  0  0  0  0  0  0  0  0
    2.5820    1.0780    0.2940 H   0  0  0  0  0  0  0  0  0  0  0  0
    0.0220    2.3380    0.9060 H   0  0  0  0  0  0  0  0  0  0  0  0
    0.8320    2.2170   -0.6850 H   0  0  0  0  0  0  0  0  0  0  0  0
   -0.7480   -2.5370    1.4240 H   0  0  0  0  0  0  0  0  0  0  0  0
   -2.0930   -1.6680    0.6470 H   0  0  0  0  0  0  0  0  0  0  0  0
   -0.7040   -2.2100   -0.3240 H   0  0  0  0  0  0  0  0  0  0  0  0
   -0.4260   -0.6130    3.0600 H   0  0  0  0  0  0  0  0  0  0  0  0
   -0.1620    1.0300    2.4300 H   0  0  0  0  0  0  0  0  0  0  0  0
   -1.7680    0.2740    2.2990 H   0  0  0  0  0  0  0  0  0  0  0  0
   -1.9880    1.7250   -1.2950 H   0  0  0  0  0  0  0  0  0  0  0  0
   -2.5760    0.1280   -0.7720 H   0  0  0  0  0  0  0  0  0  0  0  0
   -2.3650    1.4330    0.4190 H   0  0  0  0  0  0  0  0  0  0  0  0
  1  2  1  0
  1  7  1  0
  1  8  1  0
  1 11  1  6
  2  3  2  0
  2  4  1  0
  4  5  1  0
  4 12  1  0
  4 13  1  0
  5  6  1  0
  5  8  1  0
  5 14  1  1
  6  7  1  0
  6 15  1  0
  6 16  1  0
  7 17  1  0
  7 18  1  0
  8  9  1  6
  8 10  1  0
  9 19  1  0
  9 20  1  0
  9 21  1  0
 10 22  1  0
 10 23  1  0
 10 24  1  0
 11 25  1  0
 11 26  1  0
 11 27  1  0
M  END
