
     RDKit          3D

 46 48  0  0  0  0  0  0  0  0999 V2000
   -4.1328   -2.6545   -0.0240 C   0  0  0  0  0  0  0  0  0  0  0  0
   -3.2216   -0.4848   -0.2583 C   0  0  0  0  0  0  0  0  0  0  0  0
   -5.1773   -0.9442   -1.1668 C   0  0  0  0  0  0  0  0  0  0  0  0
    4.3335   -1.9334   -0.7208 P   0  0  1  0  0  0  0  0  0  0  0  0
    3.9517   -2.6897    0.6401 O   0  0  0  0  0  0  0  0  0  0  0  0
    5.7397   -1.4778   -0.6647 O   0  0  0  0  0  0  0  0  0  0  0  0
    3.9411   -2.8987   -1.9368 O   0  0  0  0  0  0  0  0  0  0  0  0
    2.8240    0.3557    0.5531 P   0  0  2  0  0  0  0  0  0  0  0  0
    4.2634    0.7033    1.1631 O   0  0  0  0  0  0  0  0  0  0  0  0
    1.9852   -0.2868    1.5908 O   0  0  0  0  0  0  0  0  0  0  0  0
    3.1119   -0.6165   -0.9417 C   0  0  0  0  0  0  0  0  0  0  0  0
    1.3547    2.5603    0.6533 C   0  0  0  0  0  0  0  0  0  0  0  0
    0.1462    2.8514   -0.2129 C   0  0  1  0  0  0  0  0  0  0  0  0
   -0.4610    1.6303   -0.6385 O   0  0  0  0  0  0  0  0  0  0  0  0
   -0.9207    3.6219    0.5602 C   0  0  1  0  0  0  0  0  0  0  0  0
   -1.6087    4.4592   -0.3307 O   0  0  0  0  0  0  0  0  0  0  0  0
   -1.8189    2.4793    1.0458 C   0  0  1  0  0  0  0  0  0  0  0  0
   -3.1348    2.8464    1.3278 O   0  0  0  0  0  0  0  0  0  0  0  0
   -1.7770    1.5491   -0.1628 C   0  0  2  0  0  0  0  0  0  0  0  0
   -2.0898    0.1772    0.1243 N   0  0  0  0  0  0  0  0  0  0  0  0
   -1.3280   -0.7260    0.8291 C   0  0  0  0  0  0  0  0  0  0  0  0
   -1.8848   -1.8943    0.9220 N   0  0  0  0  0  0  0  0  0  0  0  0
   -3.0767   -1.7652    0.2493 C   0  0  0  0  0  0  0  0  0  0  0  0
   -4.1381   -3.9159    0.4221 N   0  0  0  0  0  0  0  0  0  0  0  0
   -5.1688   -2.2147   -0.7336 N   0  0  0  0  0  0  0  0  0  0  0  0
   -4.2413   -0.0167   -0.9664 N   0  0  0  0  0  0  0  0  0  0  0  0
   -6.2458   -0.5852   -1.9231 N   0  0  0  0  0  0  0  0  0  0  0  0
    3.0531   -3.0412    0.6961 H   0  0  0  0  0  0  0  0  0  0  0  0
    4.5971   -3.5855   -2.1223 H   0  0  0  0  0  0  0  0  0  0  0  0
    4.9162    1.0557    0.5434 H   0  0  0  0  0  0  0  0  0  0  0  0
    3.4670    0.0297   -1.7483 H   0  0  0  0  0  0  0  0  0  0  0  0
    2.1511   -1.0288   -1.2595 H   0  0  0  0  0  0  0  0  0  0  0  0
    1.0627    2.1018    1.6012 H   0  0  0  0  0  0  0  0  0  0  0  0
    1.8720    3.4945    0.8783 H   0  0  0  0  0  0  0  0  0  0  0  0
    0.4638    3.4143   -1.0963 H   0  0  0  0  0  0  0  0  0  0  0  0
   -0.4898    4.1871    1.3976 H   0  0  0  0  0  0  0  0  0  0  0  0
   -2.4625    4.6745    0.0628 H   0  0  0  0  0  0  0  0  0  0  0  0
   -1.3424    1.9840    1.9022 H   0  0  0  0  0  0  0  0  0  0  0  0
   -3.1804    3.1707    2.2326 H   0  0  0  0  0  0  0  0  0  0  0  0
   -2.5043    1.8789   -0.9137 H   0  0  0  0  0  0  0  0  0  0  0  0
   -0.3579   -0.4676    1.2288 H   0  0  0  0  0  0  0  0  0  0  0  0
   -3.3152   -4.3059    0.8471 H   0  0  0  0  0  0  0  0  0  0  0  0
   -4.8432   -4.5555    0.0985 H   0  0  0  0  0  0  0  0  0  0  0  0
   -7.0677   -1.1616   -1.8622 H   0  0  0  0  0  0  0  0  0  0  0  0
   -6.4154    0.3991   -2.0420 H   0  0  0  0  0  0  0  0  0  0  0  0
    2.2417    1.7094   -0.0735 O   0  0  0  0  0  0  0  0  0  0  0  0
 27  3  1  0
  3 25  1  0
  3 26  2  0
 25  1  2  0
 26  2  1  0
 18 17  1  0
  1 24  1  0
  1 23  1  0
  2 23  2  0
  2 20  1  0
 17 19  1  0
 17 15  1  0
 23 22  1  0
 19 20  1  0
 19 14  1  0
 20 21  1  0
 16 15  1  0
 15 13  1  0
 22 21  2  0
 14 13  1  0
 13 12  1  0
 12 46  1  0
  8 46  1  6
 10  8  2  0
  8  9  1  0
  8 11  1  0
  6  4  2  0
 11  4  1  0
  4  7  1  6
  4  5  1  0
  5 28  1  0
  7 29  1  0
  9 30  1  0
 11 31  1  0
 11 32  1  0
 12 33  1  0
 12 34  1  0
 13 35  1  6
 15 36  1  1
 16 37  1  0
 17 38  1  1
 18 39  1  0
 19 40  1  6
 21 41  1  0
 24 42  1  0
 24 43  1  0
 27 44  1  0
 27 45  1  0
M  END
