
     RDKit          3D

 59 62  0  0  0  0  0  0  0  0999 V2000
    0.9425   -0.0880   -4.4989 C   0  0  0  0  0  0  0  0  0  0  0  0
    0.7984   -1.1663   -3.7271 C   0  0  0  0  0  0  0  0  0  0  0  0
    0.4327    1.4169   -6.3638 C   0  0  0  0  0  0  0  0  0  0  0  0
    1.7281   -1.3554   -2.2531 S   0  0  2  0  0  0  0  0  0  0  0  0
    0.2054    0.1969   -5.7252 C   0  0  0  0  0  0  0  0  0  0  0  0
    2.1038   -2.7537   -2.1369 O   0  0  0  0  0  0  0  0  0  0  0  0
   -0.7038    0.5846    0.2781 C   0  0  0  0  0  0  0  0  0  0  0  0
   -1.0333    1.7402    0.5079 O   0  0  0  0  0  0  0  0  0  0  0  0
    0.2076    0.3337   -0.9106 C   0  0  0  0  0  0  0  0  0  0  0  0
    0.6763   -1.0389   -1.0102 N   0  0  0  0  0  0  0  0  0  0  0  0
   -0.7176   -0.6890   -6.2873 C   0  0  0  0  0  0  0  0  0  0  0  0
   -0.7781   -1.8361    0.7068 C   0  0  0  0  0  0  0  0  0  0  0  0
   -0.3829   -2.0020   -0.7394 C   0  0  0  0  0  0  0  0  0  0  0  0
   -0.2414    1.7576   -7.5248 C   0  0  0  0  0  0  0  0  0  0  0  0
   -1.1201   -0.4567    1.0136 N   0  0  0  0  0  0  0  0  0  0  0  0
   -1.3960   -0.3643   -7.4463 C   0  0  0  0  0  0  0  0  0  0  0  0
   -1.1529    0.8603   -8.0566 C   0  0  0  0  0  0  0  0  0  0  0  0
    2.7506   -0.3241   -2.1977 O   0  0  0  0  0  0  0  0  0  0  0  0
   -1.9346   -0.2031    2.1944 C   0  0  0  0  0  0  0  0  0  0  0  0
    1.7436   -0.5537    9.1232 C   0  0  0  0  0  0  0  0  0  0  0  0
   -0.2243    0.2872    6.1330 N   0  0  0  0  0  0  0  0  0  0  0  0
    0.2418    0.2636    7.4200 C   0  0  0  0  0  0  0  0  0  0  0  0
    1.3368   -0.5346    7.8057 C   0  0  0  0  0  0  0  0  0  0  0  0
   -1.4073    1.0637    5.8055 C   0  0  0  0  0  0  0  0  0  0  0  0
   -0.3485    1.0059    8.4589 C   0  0  0  0  0  0  0  0  0  0  0  0
    0.7039    0.1379    5.0200 C   0  0  0  0  0  0  0  0  0  0  0  0
   -1.1746    0.3812    3.3817 C   0  0  1  0  0  0  0  0  0  0  0  0
   -2.1105    0.5044    4.5774 C   0  0  0  0  0  0  0  0  0  0  0  0
    1.1783    0.1466   10.1050 N   0  0  0  0  0  0  0  0  0  0  0  0
    0.1494    0.9055    9.7448 C   0  0  0  0  0  0  0  0  0  0  0  0
    0.0325   -0.4519    3.7915 C   0  0  0  0  0  0  0  0  0  0  0  0
    1.6690    0.6660   -4.2141 H   0  0  0  0  0  0  0  0  0  0  0  0
    0.0982   -1.9713   -3.9171 H   0  0  0  0  0  0  0  0  0  0  0  0
    1.1452    2.1162   -5.9446 H   0  0  0  0  0  0  0  0  0  0  0  0
    1.0544    1.0097   -0.7996 H   0  0  0  0  0  0  0  0  0  0  0  0
   -0.3507    0.6466   -1.8039 H   0  0  0  0  0  0  0  0  0  0  0  0
   -0.9167   -1.6482   -5.8280 H   0  0  0  0  0  0  0  0  0  0  0  0
   -1.6498   -2.4612    0.9036 H   0  0  0  0  0  0  0  0  0  0  0  0
    0.0317   -2.1889    1.3506 H   0  0  0  0  0  0  0  0  0  0  0  0
   -1.2443   -1.8470   -1.4002 H   0  0  0  0  0  0  0  0  0  0  0  0
   -0.0213   -3.0171   -0.8849 H   0  0  0  0  0  0  0  0  0  0  0  0
   -0.0558    2.7086   -8.0045 H   0  0  0  0  0  0  0  0  0  0  0  0
   -2.1072   -1.0579   -7.8728 H   0  0  0  0  0  0  0  0  0  0  0  0
   -2.7586    0.4618    1.9263 H   0  0  0  0  0  0  0  0  0  0  0  0
   -2.3821   -1.1552    2.4865 H   0  0  0  0  0  0  0  0  0  0  0  0
    1.8620   -1.1639    7.1022 H   0  0  0  0  0  0  0  0  0  0  0  0
   -1.1503    2.1200    5.6418 H   0  0  0  0  0  0  0  0  0  0  0  0
   -2.1061    1.0272    6.6390 H   0  0  0  0  0  0  0  0  0  0  0  0
   -1.1754    1.6789    8.2874 H   0  0  0  0  0  0  0  0  0  0  0  0
    1.1276    1.1192    4.7627 H   0  0  0  0  0  0  0  0  0  0  0  0
    1.5376   -0.4952    5.3094 H   0  0  0  0  0  0  0  0  0  0  0  0
   -0.8238    1.3841    3.1150 H   0  0  0  0  0  0  0  0  0  0  0  0
   -2.9566    1.1542    4.3403 H   0  0  0  0  0  0  0  0  0  0  0  0
   -2.5226   -0.4803    4.8224 H   0  0  0  0  0  0  0  0  0  0  0  0
   -0.3154    1.4941   10.5295 H   0  0  0  0  0  0  0  0  0  0  0  0
   -0.2729   -1.4830    3.9984 H   0  0  0  0  0  0  0  0  0  0  0  0
    0.7759   -0.4874    2.9916 H   0  0  0  0  0  0  0  0  0  0  0  0
   -2.0028    1.2670   -9.5055 Cl  0  0  0  0  0  0  0  0  0  0  0  0
    2.5828   -1.1836    9.4009 H   0  0  0  0  0  0  0  0  0  0  0  0
  1  2  2  0
  1  5  1  0
  1 32  1  0
  4  2  1  6
  2 33  1  0
  3  5  2  0
  3 14  1  0
  3 34  1  0
  4  6  2  0
  4 10  1  0
  4 18  2  0
  5 11  1  0
 58 17  1  0
  7  8  2  0
  7  9  1  0
  7 15  1  0
  9 10  1  0
  9 35  1  0
  9 36  1  0
 10 13  1  0
 11 16  2  0
 11 37  1  0
 12 13  1  0
 12 15  1  0
 12 38  1  0
 12 39  1  0
 13 40  1  0
 13 41  1  0
 14 17  2  0
 14 42  1  0
 15 19  1  0
 16 17  1  0
 16 43  1  0
 19 27  1  0
 19 44  1  0
 19 45  1  0
 20 23  2  0
 20 29  1  0
 20 59  1  0
 21 22  1  0
 21 24  1  0
 21 26  1  0
 22 23  1  0
 22 25  2  0
 23 46  1  0
 24 28  1  0
 24 47  1  0
 24 48  1  0
 25 30  1  0
 25 49  1  0
 26 31  1  0
 26 50  1  0
 26 51  1  0
 27 28  1  0
 27 31  1  0
 27 52  1  6
 28 53  1  0
 28 54  1  0
 29 30  2  0
 30 55  1  0
 31 56  1  0
 31 57  1  0
M  END
