
     RDKit          3D

 51 50  0  0  0  0  0  0  0  0999 V2000
    9.1680   -1.3312    0.0044 O   0  0  0  0  0  0  0  0  0  0  0  0
    9.0598   -0.1301   -0.0068 C   0  0  0  0  0  0  0  0  0  0  0  0
   10.1088    0.6888   -0.0250 O   0  0  0  0  0  0  0  0  0  0  0  0
    7.7611    0.6267   -0.0010 C   0  0  0  0  0  0  0  0  0  0  0  0
    6.5271   -0.2608   -0.0006 C   0  0  0  0  0  0  0  0  0  0  0  0
    5.2428    0.5591    0.0014 C   0  0  0  0  0  0  0  0  0  0  0  0
    3.9876   -0.3042    0.0027 C   0  0  0  0  0  0  0  0  0  0  0  0
    2.7013    0.5122    0.0019 C   0  0  0  0  0  0  0  0  0  0  0  0
    1.4422   -0.3460    0.0027 C   0  0  0  0  0  0  0  0  0  0  0  0
    0.1578    0.4736    0.0012 C   0  0  0  0  0  0  0  0  0  0  0  0
   -1.1040   -0.3808    0.0013 C   0  0  0  0  0  0  0  0  0  0  0  0
   -2.3858    0.4427    0.0008 C   0  0  0  0  0  0  0  0  0  0  0  0
   -3.6506   -0.4073    0.0003 C   0  0  0  0  0  0  0  0  0  0  0  0
   -4.9291    0.4215   -0.0007 C   0  0  0  0  0  0  0  0  0  0  0  0
   -6.1968   -0.4236   -0.0015 C   0  0  0  0  0  0  0  0  0  0  0  0
   -7.4700    0.4135   -0.0013 C   0  0  0  0  0  0  0  0  0  0  0  0
   -8.7401   -0.4284   -0.0001 C   0  0  0  0  0  0  0  0  0  0  0  0
   -9.9892    0.4307    0.0000 C   0  0  0  0  0  0  0  0  0  0  0  0
  -11.1291   -0.4033    0.0015 O   0  0  0  0  0  0  0  0  0  0  0  0
   10.9295    0.1740   -0.0277 H   0  0  0  0  0  0  0  0  0  0  0  0
    7.7581    1.2867    0.8729 H   0  0  0  0  0  0  0  0  0  0  0  0
    7.7528    1.2948   -0.8684 H   0  0  0  0  0  0  0  0  0  0  0  0
    6.5390   -0.9141   -0.8775 H   0  0  0  0  0  0  0  0  0  0  0  0
    6.5409   -0.9165    0.8743 H   0  0  0  0  0  0  0  0  0  0  0  0
    5.2308    1.2177    0.8770 H   0  0  0  0  0  0  0  0  0  0  0  0
    3.9999   -0.9637   -0.8723 H   0  0  0  0  0  0  0  0  0  0  0  0
    2.6902    1.1726    0.8765 H   0  0  0  0  0  0  0  0  0  0  0  0
    2.6905    1.1705   -0.8741 H   0  0  0  0  0  0  0  0  0  0  0  0
    1.4528   -1.0067   -0.8716 H   0  0  0  0  0  0  0  0  0  0  0  0
    1.4520   -1.0041    0.8791 H   0  0  0  0  0  0  0  0  0  0  0  0
    0.1483    1.1337    0.8760 H   0  0  0  0  0  0  0  0  0  0  0  0
    0.1491    1.1326   -0.8745 H   0  0  0  0  0  0  0  0  0  0  0  0
   -1.0955   -1.0407   -0.8736 H   0  0  0  0  0  0  0  0  0  0  0  0
   -1.0959   -1.0397    0.8771 H   0  0  0  0  0  0  0  0  0  0  0  0
   -2.3933    1.1023    0.8760 H   0  0  0  0  0  0  0  0  0  0  0  0
   -2.3925    1.1025   -0.8744 H   0  0  0  0  0  0  0  0  0  0  0  0
   -3.6444   -1.0668   -0.8750 H   0  0  0  0  0  0  0  0  0  0  0  0
   -3.6454   -1.0665    0.8757 H   0  0  0  0  0  0  0  0  0  0  0  0
   -4.9341    1.0813    0.8743 H   0  0  0  0  0  0  0  0  0  0  0  0
   -4.9326    1.0808   -0.8762 H   0  0  0  0  0  0  0  0  0  0  0  0
   -6.1946   -1.0818   -0.8775 H   0  0  0  0  0  0  0  0  0  0  0  0
   -6.1950   -1.0831    0.8735 H   0  0  0  0  0  0  0  0  0  0  0  0
   -7.4677    1.0729    0.8738 H   0  0  0  0  0  0  0  0  0  0  0  0
   -7.4686    1.0720   -0.8770 H   0  0  0  0  0  0  0  0  0  0  0  0
   -8.7471   -1.0819   -0.8788 H   0  0  0  0  0  0  0  0  0  0  0  0
   -8.7463   -1.0808    0.8792 H   0  0  0  0  0  0  0  0  0  0  0  0
   -9.9737    1.0876    0.8804 H   0  0  0  0  0  0  0  0  0  0  0  0
   -9.9750    1.0862   -0.8814 H   0  0  0  0  0  0  0  0  0  0  0  0
  -11.9101    0.1568    0.0022 H   0  0  0  0  0  0  0  0  0  0  0  0
    5.2286    1.2180   -0.8739 H   0  0  0  0  0  0  0  0  0  0  0  0
    4.0003   -0.9624    0.8787 H   0  0  0  0  0  0  0  0  0  0  0  0
 11 12  1  0
 11 10  1  0
 12 13  1  0
  8  9  1  0
  8  7  1  0
 10  9  1  0
  7  6  1  0
  6  5  1  0
 13 14  1  0
 14 15  1  0
  5  4  1  0
 15 16  1  0
  4  2  1  0
  1  2  2  0
  2  3  1  0
 16 17  1  0
 17 18  1  0
 18 19  1  0
  3 20  1  0
  4 21  1  0
  4 22  1  0
  5 23  1  0
  5 24  1  0
  6 25  1  0
  7 26  1  0
  8 27  1  0
  8 28  1  0
  9 29  1  0
  9 30  1  0
 10 31  1  0
 10 32  1  0
 11 33  1  0
 11 34  1  0
 12 35  1  0
 12 36  1  0
 13 37  1  0
 13 38  1  0
 14 39  1  0
 14 40  1  0
 15 41  1  0
 15 42  1  0
 16 43  1  0
 16 44  1  0
 17 45  1  0
 17 46  1  0
 18 47  1  0
 18 48  1  0
 19 49  1  0
  6 50  1  0
  7 51  1  0
M  END
