
     RDKit          3D

 40 42  0  0  0  0  0  0  0  0999 V2000
   -4.4869    1.2931   -1.0423 C   0  0  0  0  0  0  0  0  0  0  0  0
   -2.4018   -0.0083   -1.5650 C   0  0  0  0  0  0  0  0  0  0  0  0
   -3.5191    0.3850   -0.6339 C   0  0  0  0  0  0  0  0  0  0  0  0
   -0.0785   -0.6823   -1.6296 C   0  0  0  0  0  0  0  0  0  0  0  0
   -4.6524    0.1544    1.4644 C   0  0  0  0  0  0  0  0  0  0  0  0
   -3.5998   -0.1843    0.6339 C   0  0  0  0  0  0  0  0  0  0  0  0
    6.3065   -0.6308    0.3947 C   0  0  0  0  0  0  0  0  0  0  0  0
    5.7093    0.5087   -0.1878 C   0  0  0  0  0  0  0  0  0  0  0  0
    6.3541    1.7231   -0.1844 C   0  0  0  0  0  0  0  0  0  0  0  0
    8.1238    0.5580    0.9677 C   0  0  0  0  0  0  0  0  0  0  0  0
   -4.7551   -0.5599    3.0381 Cl  0  0  0  0  0  0  0  0  0  0  0  0
   -5.6330    1.0557    1.0763 C   0  0  0  0  0  0  0  0  0  0  0  0
   -5.5291    1.6142   -0.1858 C   0  0  0  0  0  0  0  0  0  0  0  0
   -6.7267    2.7529   -0.6996 Cl  0  0  0  0  0  0  0  0  0  0  0  0
   -1.1404   -0.0818   -0.8609 N   0  0  0  0  0  0  0  0  0  0  0  0
    1.0960   -1.0433   -0.7455 C   0  0  1  0  0  0  0  0  0  0  0  0
    1.5300    0.0763   -0.0772 F   0  0  0  0  0  0  0  0  0  0  0  0
    0.7048   -1.9103    0.2275 F   0  0  0  0  0  0  0  0  0  0  0  0
    2.2678   -1.6452   -1.5042 C   0  0  0  0  0  0  0  0  0  0  0  0
    3.3538   -2.0251   -0.6481 N   0  0  0  0  0  0  0  0  0  0  0  0
    4.4184   -1.2601   -0.3420 C   0  0  0  0  0  0  0  0  0  0  0  0
    4.4977    0.0641   -0.6601 N   0  0  0  0  0  0  0  0  0  0  0  0
    5.4808   -1.7143    0.2778 N   0  0  0  0  0  0  0  0  0  0  0  0
    7.6091    1.7303    0.4225 C   0  0  0  0  0  0  0  0  0  0  0  0
    7.4985   -0.6175    0.9647 N   0  0  0  0  0  0  0  0  0  0  0  0
   -4.4268    1.7509   -2.0212 H   0  0  0  0  0  0  0  0  0  0  0  0
   -2.6242   -1.0009   -1.9685 H   0  0  0  0  0  0  0  0  0  0  0  0
   -2.3885    0.6745   -2.4260 H   0  0  0  0  0  0  0  0  0  0  0  0
   -0.4481   -1.6065   -2.0812 H   0  0  0  0  0  0  0  0  0  0  0  0
    0.2851   -0.0605   -2.4607 H   0  0  0  0  0  0  0  0  0  0  0  0
   -2.8382   -0.8786    0.9611 H   0  0  0  0  0  0  0  0  0  0  0  0
    9.1015    0.5766    1.4372 H   0  0  0  0  0  0  0  0  0  0  0  0
   -6.4453    1.3170    1.7395 H   0  0  0  0  0  0  0  0  0  0  0  0
   -0.8717    0.8468   -0.5616 H   0  0  0  0  0  0  0  0  0  0  0  0
    1.9196   -2.5347   -2.0300 H   0  0  0  0  0  0  0  0  0  0  0  0
    2.5998   -0.9505   -2.2806 H   0  0  0  0  0  0  0  0  0  0  0  0
    3.4374   -2.9938   -0.3922 H   0  0  0  0  0  0  0  0  0  0  0  0
    3.7666    0.6411   -1.0405 H   0  0  0  0  0  0  0  0  0  0  0  0
    8.1869    2.6422    0.4759 H   0  0  0  0  0  0  0  0  0  0  0  0
    5.9251    2.6167   -0.6179 H   0  0  0  0  0  0  0  0  0  0  0  0
 12 13  1  0
 12  5  2  0
 13  1  2  0
 13 14  1  0
  1  3  1  0
  5 11  1  0
  5  6  1  0
  3  6  2  0
  3  2  1  0
  2 15  1  0
 15  4  1  0
  4 16  1  0
 16 17  1  1
 18 16  1  0
 16 19  1  0
 19 20  1  0
 20 21  1  0
 21 22  1  0
 21 23  2  0
 22  8  1  0
 23  7  1  0
  8  7  1  0
  8  9  2  0
  7 25  2  0
 25 10  1  0
  9 24  1  0
 10 24  2  0
  1 26  1  0
  2 27  1  0
  2 28  1  0
  4 29  1  0
  4 30  1  0
  6 31  1  0
  9 40  1  0
 10 32  1  0
 12 33  1  0
 15 34  1  0
 19 35  1  0
 19 36  1  0
 20 37  1  0
 22 38  1  0
 24 39  1  0
M  END
