
     RDKit          3D

 48 51  0  0  0  0  0  0  0  0999 V2000
   -3.3955   -0.8041   -0.1338 C   0  0  0  0  0  0  0  0  0  0  0  0
   -4.7382   -0.4448    0.0881 C   0  0  0  0  0  0  0  0  0  0  0  0
   -5.7568   -1.3940    0.4317 C   0  0  0  0  0  0  0  0  0  0  0  0
   -5.4764   -2.7186    0.5312 N   0  0  0  0  0  0  0  0  0  0  0  0
   -7.0377   -0.9087    0.6042 C   0  0  0  0  0  0  0  0  0  0  0  0
   -7.3115    0.4627    0.4540 C   0  0  0  0  0  0  0  0  0  0  0  0
   -8.7157    0.9474    0.6582 C   0  0  0  0  0  0  0  0  0  0  0  0
   -6.3940    1.3510    0.1532 N   0  0  0  0  0  0  0  0  0  0  0  0
   -5.1255    0.9094   -0.0290 C   0  0  0  0  0  0  0  0  0  0  0  0
   -4.1321    1.8527   -0.3713 C   0  0  0  0  0  0  0  0  0  0  0  0
   -2.8325    1.4892   -0.5943 C   0  0  0  0  0  0  0  0  0  0  0  0
   -2.4468    0.1358   -0.4686 C   0  0  0  0  0  0  0  0  0  0  0  0
   -1.1474   -0.3047   -0.7420 N   0  0  0  0  0  0  0  0  0  0  0  0
    0.0089    0.3827   -0.4915 C   0  0  0  0  0  0  0  0  0  0  0  0
    0.0415    1.5228   -0.0651 O   0  0  0  0  0  0  0  0  0  0  0  0
    1.1308   -0.3439   -0.7939 N   0  0  0  0  0  0  0  0  0  0  0  0
    2.4442    0.0894   -0.5739 C   0  0  0  0  0  0  0  0  0  0  0  0
    3.3715   -0.8109   -0.1036 C   0  0  0  0  0  0  0  0  0  0  0  0
    4.7195   -0.4450    0.0765 C   0  0  0  0  0  0  0  0  0  0  0  0
    5.7220   -1.3561    0.5457 C   0  0  0  0  0  0  0  0  0  0  0  0
    5.4126   -2.6451    0.8425 N   0  0  0  0  0  0  0  0  0  0  0  0
    6.9948   -0.8536    0.7281 C   0  0  0  0  0  0  0  0  0  0  0  0
    7.2798    0.4947    0.4468 C   0  0  0  0  0  0  0  0  0  0  0  0
    8.6768    0.9974    0.6555 C   0  0  0  0  0  0  0  0  0  0  0  0
    6.3839    1.3413   -0.0032 N   0  0  0  0  0  0  0  0  0  0  0  0
    5.1215    0.8841   -0.1872 C   0  0  0  0  0  0  0  0  0  0  0  0
    4.1500    1.7853   -0.6770 C   0  0  0  0  0  0  0  0  0  0  0  0
    2.8520    1.4066   -0.8800 C   0  0  0  0  0  0  0  0  0  0  0  0
   -3.0831   -1.8387   -0.0544 H   0  0  0  0  0  0  0  0  0  0  0  0
   -4.5384   -3.0098    0.7455 H   0  0  0  0  0  0  0  0  0  0  0  0
   -6.1800   -3.3089    0.9433 H   0  0  0  0  0  0  0  0  0  0  0  0
   -7.8433   -1.5870    0.8602 H   0  0  0  0  0  0  0  0  0  0  0  0
   -9.0501    0.7530    1.6790 H   0  0  0  0  0  0  0  0  0  0  0  0
   -8.7880    2.0167    0.4711 H   0  0  0  0  0  0  0  0  0  0  0  0
   -9.4097    0.4311   -0.0070 H   0  0  0  0  0  0  0  0  0  0  0  0
   -4.4279    2.8892   -0.4736 H   0  0  0  0  0  0  0  0  0  0  0  0
   -2.1130    2.2402   -0.8807 H   0  0  0  0  0  0  0  0  0  0  0  0
   -1.0684   -1.2840   -0.9692 H   0  0  0  0  0  0  0  0  0  0  0  0
    1.0227   -1.3334   -0.9592 H   0  0  0  0  0  0  0  0  0  0  0  0
    3.0358   -1.8115    0.1410 H   0  0  0  0  0  0  0  0  0  0  0  0
    4.6310   -3.0778    0.3810 H   0  0  0  0  0  0  0  0  0  0  0  0
    6.1821   -3.2775    0.9896 H   0  0  0  0  0  0  0  0  0  0  0  0
    7.7880   -1.5023    1.0813 H   0  0  0  0  0  0  0  0  0  0  0  0
    9.3857    0.4536    0.0287 H   0  0  0  0  0  0  0  0  0  0  0  0
    8.7488    2.0564    0.4168 H   0  0  0  0  0  0  0  0  0  0  0  0
    8.9925    0.8527    1.6902 H   0  0  0  0  0  0  0  0  0  0  0  0
    4.4625    2.7962   -0.9062 H   0  0  0  0  0  0  0  0  0  0  0  0
    2.1463    2.1168   -1.2838 H   0  0  0  0  0  0  0  0  0  0  0  0
  1  2  2  0
  1 12  1  0
  1 29  1  0
  2  3  1  0
  2  9  1  0
  3  4  1  0
  3  5  2  0
  4 30  1  0
  4 31  1  0
  5  6  1  0
  5 32  1  0
  6  7  1  0
  6  8  2  0
  7 33  1  0
  7 34  1  0
  7 35  1  0
  8  9  1  0
  9 10  2  0
 10 11  1  0
 10 36  1  0
 11 12  2  0
 11 37  1  0
 12 13  1  0
 13 14  1  0
 13 38  1  0
 14 15  2  0
 14 16  1  0
 16 17  1  0
 16 39  1  0
 17 18  2  0
 17 28  1  0
 18 19  1  0
 18 40  1  0
 19 20  2  0
 19 26  1  0
 20 21  1  0
 20 22  1  0
 21 41  1  0
 21 42  1  0
 22 23  2  0
 22 43  1  0
 23 24  1  0
 23 25  1  0
 24 44  1  0
 24 45  1  0
 24 46  1  0
 25 26  2  0
 26 27  1  0
 27 28  2  0
 27 47  1  0
 28 48  1  0
M  END
