
     RDKit          3D

 61 63  0  0  0  0  0  0  0  0999 V2000
    9.7189    0.6997   -0.0566 C   0  0  0  0  0  0  0  0  0  0  0  0
   10.8427    0.8925    0.7371 C   0  0  0  0  0  0  0  0  0  0  0  0
   10.9064    0.3243    2.0017 C   0  0  0  0  0  0  0  0  0  0  0  0
    9.8394   -0.4355    2.4648 C   0  0  0  0  0  0  0  0  0  0  0  0
    8.7195   -0.6269    1.6677 C   0  0  0  0  0  0  0  0  0  0  0  0
    8.6452   -0.0631    0.3943 C   0  0  0  0  0  0  0  0  0  0  0  0
    7.4299   -0.2587   -0.4812 C   0  0  1  0  0  0  0  0  0  0  0  0
    7.1391   -1.7330   -0.7504 C   0  0  0  0  0  0  0  0  0  0  0  0
    6.2346    0.4576    0.1577 C   0  0  0  0  0  0  0  0  0  0  0  0
    5.0528    0.4127   -0.6802 N   0  0  0  0  0  0  0  0  0  0  0  0
    3.9638   -0.3625   -0.5562 C   0  0  0  0  0  0  0  0  0  0  0  0
    4.9775    1.1629   -1.7648 N   0  0  0  0  0  0  0  0  0  0  0  0
    3.8582    0.9028   -2.3493 N   0  0  0  0  0  0  0  0  0  0  0  0
    3.1914   -0.0350   -1.6428 C   0  0  0  0  0  0  0  0  0  0  0  0
    1.8394   -0.5297   -2.0385 C   0  0  0  0  0  0  0  0  0  0  0  0
    0.7661    0.1083   -1.3060 N   0  0  0  0  0  0  0  0  0  0  0  0
    0.4178   -0.2678   -0.0629 C   0  0  0  0  0  0  0  0  0  0  0  0
    0.9521   -1.2082    0.5105 O   0  0  0  0  0  0  0  0  0  0  0  0
   -0.7206    0.5166    0.5499 C   0  0  0  0  0  0  0  0  0  0  0  0
   -2.0788   -0.0228    0.0946 C   0  0  0  0  0  0  0  0  0  0  0  0
   -3.2094    0.7130    0.7943 C   0  0  0  0  0  0  0  0  0  0  0  0
   -4.5856    0.2259    0.3941 C   0  0  0  0  0  0  0  0  0  0  0  0
   -4.7693   -0.8210   -0.1985 O   0  0  0  0  0  0  0  0  0  0  0  0
   -5.5855    1.0641    0.7798 N   0  0  0  0  0  0  0  0  0  0  0  0
   -6.9676    0.9265    0.6416 C   0  0  0  0  0  0  0  0  0  0  0  0
   -7.5942   -0.1664    0.0470 C   0  0  0  0  0  0  0  0  0  0  0  0
   -7.7549    1.9698    1.1382 C   0  0  0  0  0  0  0  0  0  0  0  0
   -9.1324    1.9191    1.0420 C   0  0  0  0  0  0  0  0  0  0  0  0
   -9.7587    0.8263    0.4597 C   0  0  0  0  0  0  0  0  0  0  0  0
   -8.9840   -0.2189   -0.0305 C   0  0  0  0  0  0  0  0  0  0  0  0
   -9.5861   -1.4213   -0.6940 C   0  0  0  0  0  0  0  0  0  0  0  0
   -8.9363   -2.1030   -1.4753 O   0  0  0  0  0  0  0  0  0  0  0  0
  -10.8610   -1.6944   -0.3817 N   0  0  0  0  0  0  0  0  0  0  0  0
    9.6762    1.1482   -1.0426 H   0  0  0  0  0  0  0  0  0  0  0  0
   11.6676    1.4870    0.3658 H   0  0  0  0  0  0  0  0  0  0  0  0
   11.7798    0.4716    2.6238 H   0  0  0  0  0  0  0  0  0  0  0  0
    9.8795   -0.8820    3.4500 H   0  0  0  0  0  0  0  0  0  0  0  0
    7.8996   -1.2236    2.0504 H   0  0  0  0  0  0  0  0  0  0  0  0
    7.6305    0.2308   -1.4387 H   0  0  0  0  0  0  0  0  0  0  0  0
    6.3404   -1.8549   -1.4826 H   0  0  0  0  0  0  0  0  0  0  0  0
    8.0232   -2.2296   -1.1494 H   0  0  0  0  0  0  0  0  0  0  0  0
    6.8398   -2.2608    0.1571 H   0  0  0  0  0  0  0  0  0  0  0  0
    5.9711   -0.0003    1.1107 H   0  0  0  0  0  0  0  0  0  0  0  0
    6.4724    1.5041    0.3462 H   0  0  0  0  0  0  0  0  0  0  0  0
    3.8223   -1.0521    0.2577 H   0  0  0  0  0  0  0  0  0  0  0  0
    1.6823   -0.3314   -3.0979 H   0  0  0  0  0  0  0  0  0  0  0  0
    1.7746   -1.6082   -1.8987 H   0  0  0  0  0  0  0  0  0  0  0  0
    0.3574    0.9395   -1.7011 H   0  0  0  0  0  0  0  0  0  0  0  0
   -0.6383    0.4420    1.6355 H   0  0  0  0  0  0  0  0  0  0  0  0
   -0.6377    1.5749    0.2893 H   0  0  0  0  0  0  0  0  0  0  0  0
   -2.1761    0.0875   -0.9876 H   0  0  0  0  0  0  0  0  0  0  0  0
   -2.1383   -1.0909    0.3105 H   0  0  0  0  0  0  0  0  0  0  0  0
   -3.1170    0.5927    1.8795 H   0  0  0  0  0  0  0  0  0  0  0  0
   -3.1325    1.7881    0.6076 H   0  0  0  0  0  0  0  0  0  0  0  0
   -5.2927    1.9083    1.2490 H   0  0  0  0  0  0  0  0  0  0  0  0
   -7.0166   -0.9826   -0.3529 H   0  0  0  0  0  0  0  0  0  0  0  0
   -7.2818    2.8297    1.5973 H   0  0  0  0  0  0  0  0  0  0  0  0
   -9.7221    2.7431    1.4204 H   0  0  0  0  0  0  0  0  0  0  0  0
  -10.8372    0.8204    0.3748 H   0  0  0  0  0  0  0  0  0  0  0  0
  -11.3616   -1.2087    0.3414 H   0  0  0  0  0  0  0  0  0  0  0  0
  -11.3189   -2.4871   -0.8013 H   0  0  0  0  0  0  0  0  0  0  0  0
  8  7  1  0
  7  6  1  0
  7  9  1  0
  1  6  2  0
  1  2  1  0
  6  5  1  0
  9 10  1  0
  2  3  2  0
  5  4  2  0
  3  4  1  0
 10 11  1  0
 10 12  1  0
 11 14  2  0
 12 13  2  0
 13 14  1  0
 14 15  1  0
 18 17  2  0
 15 16  1  0
 17 16  1  0
 17 19  1  0
 19 20  1  0
 20 21  1  0
 21 22  1  0
 22 23  2  0
 22 24  1  0
 24 25  1  0
 25 26  2  0
 25 27  1  0
 26 30  1  0
 27 28  2  0
 30 31  1  0
 30 29  2  0
 28 29  1  0
 33 31  1  0
 31 32  2  0
  1 34  1  0
  2 35  1  0
  3 36  1  0
  4 37  1  0
  5 38  1  0
  7 39  1  6
  8 40  1  0
  8 41  1  0
  8 42  1  0
  9 43  1  0
  9 44  1  0
 11 45  1  0
 15 46  1  0
 15 47  1  0
 16 48  1  0
 19 49  1  0
 19 50  1  0
 20 51  1  0
 20 52  1  0
 21 53  1  0
 21 54  1  0
 24 55  1  0
 26 56  1  0
 27 57  1  0
 28 58  1  0
 29 59  1  0
 33 60  1  0
 33 61  1  0
M  END
