
     RDKit          3D

 23 24  0  0  0  0  0  0  0  0999 V2000
   -0.3920    0.0851   -0.0489 C   0  0  0  0  0  0  0  0  0  0  0  0
   -1.8431    0.1586    0.0101 C   0  0  0  0  0  0  0  0  0  0  0  0
   -2.7083    1.1997   -0.1320 C   0  0  0  0  0  0  0  0  0  0  0  0
    0.2324    1.2361   -0.2919 N   0  0  0  0  0  0  0  0  0  0  0  0
   -4.0146    0.6558    0.0221 C   0  0  0  0  0  0  0  0  0  0  0  0
   -3.8446   -0.6697    0.2459 C   0  0  0  0  0  0  0  0  0  0  0  0
    1.5538    1.2353   -0.3659 C   0  0  0  0  0  0  0  0  0  0  0  0
    4.5092   -0.6143    0.6734 N   0  0  0  0  0  0  0  0  0  0  0  0
    2.3479    0.1037   -0.2121 C   0  0  0  0  0  0  0  0  0  0  0  0
    0.3058   -1.1092    0.1381 C   0  0  0  0  0  0  0  0  0  0  0  0
    1.6862   -1.0896    0.0572 C   0  0  0  0  0  0  0  0  0  0  0  0
   -2.5338   -0.9789    0.2403 O   0  0  0  0  0  0  0  0  0  0  0  0
   -2.4434    2.2265   -0.3221 H   0  0  0  0  0  0  0  0  0  0  0  0
   -4.9543    1.1811   -0.0293 H   0  0  0  0  0  0  0  0  0  0  0  0
   -4.5321   -1.4813    0.4196 H   0  0  0  0  0  0  0  0  0  0  0  0
    2.0206    2.1971   -0.5591 H   0  0  0  0  0  0  0  0  0  0  0  0
    5.5007   -0.6473    0.4750 H   0  0  0  0  0  0  0  0  0  0  0  0
    4.4174   -0.1542    1.5704 H   0  0  0  0  0  0  0  0  0  0  0  0
    4.1450    1.2302   -0.3725 H   0  0  0  0  0  0  0  0  0  0  0  0
    4.1230   -0.2380   -1.3226 H   0  0  0  0  0  0  0  0  0  0  0  0
   -0.2134   -2.0349    0.3448 H   0  0  0  0  0  0  0  0  0  0  0  0
    2.2522   -1.9998    0.2075 H   0  0  0  0  0  0  0  0  0  0  0  0
    3.8433    0.1744   -0.3486 C   0  0  0  0  0  0  0  0  0  0  0  0
  8 23  1  0
 11 10  2  0
 11  9  1  0
 10  1  1  0
 23  9  1  0
  9  7  2  0
  1  2  1  0
  1  4  2  0
  3  2  2  0
  3  5  1  0
  7  4  1  0
  2 12  1  0
  5  6  2  0
 12  6  1  0
  3 13  1  0
  5 14  1  0
  6 15  1  0
  7 16  1  0
  8 17  1  0
  8 18  1  0
 23 19  1  0
 23 20  1  0
 10 21  1  0
 11 22  1  0
M  END
