
     RDKit          3D

 32 31  0  0  0  0  0  0  0  0999 V2000
    0.7821    0.0273    0.1083 N   0  0  0  0  0  0  0  0  0  0  0  0
   -0.4058   -0.6201    0.6336 C   0  0  0  0  0  0  0  0  0  0  0  0
   -1.6528   -0.2549   -0.1607 C   0  0  0  0  0  0  0  0  0  0  0  0
    2.1904   -1.9095   -0.5667 C   0  0  0  0  0  0  0  0  0  0  0  0
    3.4609   -2.6852   -0.2478 C   0  0  0  0  0  0  0  0  0  0  0  0
    0.8996    1.4105    0.5465 C   0  0  0  0  0  0  0  0  0  0  0  0
    1.6452    2.2832   -0.4541 C   0  0  0  0  0  0  0  0  0  0  0  0
    1.8410    3.7037    0.0567 C   0  0  0  0  0  0  0  0  0  0  0  0
   -5.0486   -0.3570   -0.8992 N   0  0  0  0  0  0  0  0  0  0  0  0
   -4.0990   -0.6146   -0.3020 C   0  0  0  0  0  0  0  0  0  0  0  0
   -2.8893   -0.9282    0.4397 C   0  0  0  0  0  0  0  0  0  0  0  0
    1.9921   -0.7337    0.3803 C   0  0  0  0  0  0  0  0  0  0  0  0
   -0.2747   -1.7027    0.5753 H   0  0  0  0  0  0  0  0  0  0  0  0
   -0.5604   -0.3912    1.7015 H   0  0  0  0  0  0  0  0  0  0  0  0
   -1.8047    0.8263   -0.1702 H   0  0  0  0  0  0  0  0  0  0  0  0
   -1.5229   -0.5705   -1.1971 H   0  0  0  0  0  0  0  0  0  0  0  0
    2.2267   -1.5292   -1.5908 H   0  0  0  0  0  0  0  0  0  0  0  0
    1.3334   -2.5862   -0.5187 H   0  0  0  0  0  0  0  0  0  0  0  0
    3.6089   -3.5106   -0.9443 H   0  0  0  0  0  0  0  0  0  0  0  0
    4.3431   -2.0443   -0.3045 H   0  0  0  0  0  0  0  0  0  0  0  0
    3.4264   -3.1061    0.7589 H   0  0  0  0  0  0  0  0  0  0  0  0
   -0.1018    1.8275    0.6797 H   0  0  0  0  0  0  0  0  0  0  0  0
    1.3827    1.4766    1.5363 H   0  0  0  0  0  0  0  0  0  0  0  0
    2.6190    1.8435   -0.6861 H   0  0  0  0  0  0  0  0  0  0  0  0
    1.0834    2.2956   -1.3918 H   0  0  0  0  0  0  0  0  0  0  0  0
    0.8855    4.1807    0.2841 H   0  0  0  0  0  0  0  0  0  0  0  0
    2.4404    3.7172    0.9690 H   0  0  0  0  0  0  0  0  0  0  0  0
    2.3499    4.3241   -0.6815 H   0  0  0  0  0  0  0  0  0  0  0  0
   -2.7741   -2.0145    0.4501 H   0  0  0  0  0  0  0  0  0  0  0  0
   -3.0381   -0.6146    1.4750 H   0  0  0  0  0  0  0  0  0  0  0  0
    2.8515   -0.0675    0.2720 H   0  0  0  0  0  0  0  0  0  0  0  0
    2.0184   -1.0877    1.4251 H   0  0  0  0  0  0  0  0  0  0  0  0
  5  4  1  0
  4 12  1  0
 12  1  1  0
  1  2  1  0
  1  6  1  0
  2  3  1  0
  6  7  1  0
  3 11  1  0
 11 10  1  0
  7  8  1  0
 10  9  3  0
  2 13  1  0
  2 14  1  0
  3 15  1  0
  3 16  1  0
  4 17  1  0
  4 18  1  0
  5 19  1  0
  5 20  1  0
  5 21  1  0
  6 22  1  0
  6 23  1  0
  7 24  1  0
  7 25  1  0
  8 26  1  0
  8 27  1  0
  8 28  1  0
 11 29  1  0
 11 30  1  0
 12 31  1  0
 12 32  1  0
M  END
