
     RDKit          3D

 28 28  0  0  0  0  0  0  0  0999 V2000
   -0.8661    0.9199   -1.8298 O   0  0  0  0  0  0  0  0  0  0  0  0
    0.6165    0.9287   -1.8204 C   0  0  2  0  0  0  0  0  0  0  0  0
    1.0687   -0.1664   -2.4951 O   0  0  0  0  0  0  0  0  0  0  0  0
    1.1854    0.9035   -0.3951 C   0  0  1  0  0  0  0  0  0  0  0  0
    0.8628    2.1488    0.2583 O   0  0  0  0  0  0  0  0  0  0  0  0
    0.6318   -0.2094    0.4033 C   0  0  1  0  0  0  0  0  0  0  0  0
    1.0938   -0.0752    1.7871 O   0  0  0  0  0  0  0  0  0  0  0  0
    2.0989   -1.0259    2.1561 C   0  0  0  0  0  0  0  0  0  0  0  0
    2.3135   -1.9739    1.4544 O   0  0  0  0  0  0  0  0  0  0  0  0
    2.8195   -0.8748    3.4177 N   0  0  0  0  0  0  0  0  0  0  0  0
   -0.8571   -0.2183    0.3913 C   0  0  2  0  0  0  0  0  0  0  0  0
   -1.3177   -1.4015    1.0472 O   0  0  0  0  0  0  0  0  0  0  0  0
   -1.4210   -0.1914   -1.0336 C   0  0  1  0  0  0  0  0  0  0  0  0
   -2.9166   -0.0435   -0.9645 C   0  0  0  0  0  0  0  0  0  0  0  0
   -3.4288    0.1657   -2.2654 O   0  0  0  0  0  0  0  0  0  0  0  0
    0.9644    1.8233   -2.3208 H   0  0  0  0  0  0  0  0  0  0  0  0
    1.4075    0.0983   -3.3283 H   0  0  0  0  0  0  0  0  0  0  0  0
    2.2612    0.7964   -0.4489 H   0  0  0  0  0  0  0  0  0  0  0  0
    1.6229    2.7247    0.2381 H   0  0  0  0  0  0  0  0  0  0  0  0
    0.9927   -1.1479   -0.0048 H   0  0  0  0  0  0  0  0  0  0  0  0
    2.6299   -0.0985    4.0072 H   0  0  0  0  0  0  0  0  0  0  0  0
    3.4713   -1.5920    3.7179 H   0  0  0  0  0  0  0  0  0  0  0  0
   -1.2222    0.6625    0.9348 H   0  0  0  0  0  0  0  0  0  0  0  0
   -1.9430   -1.1670    1.7161 H   0  0  0  0  0  0  0  0  0  0  0  0
   -1.1769   -1.1271   -1.5236 H   0  0  0  0  0  0  0  0  0  0  0  0
   -3.3532   -0.9502   -0.5424 H   0  0  0  0  0  0  0  0  0  0  0  0
   -3.1676    0.8043   -0.3366 H   0  0  0  0  0  0  0  0  0  0  0  0
   -4.3705    0.2868   -2.2202 H   0  0  0  0  0  0  0  0  0  0  0  0
  1  2  1  0
  1 13  1  0
  2  3  1  0
  2  4  1  0
  2 16  1  6
  3 17  1  0
  4  5  1  0
  4  6  1  0
  4 18  1  6
  5 19  1  0
  6  7  1  0
  6 11  1  0
  6 20  1  6
  7  8  1  0
  8  9  2  0
  8 10  1  0
 10 21  1  0
 10 22  1  0
 11 12  1  0
 11 13  1  0
 11 23  1  1
 12 24  1  0
 13 14  1  0
 13 25  1  6
 14 15  1  0
 14 26  1  0
 14 27  1  0
 15 28  1  0
M  END
