
     RDKit          3D

 46 47  0  0  0  0  0  0  0  0999 V2000
   -2.9765   -1.9745   -0.1106 C   0  0  0  0  0  0  0  0  0  0  0  0
    6.8056    1.2921   -1.2462 C   0  0  0  0  0  0  0  0  0  0  0  0
   -2.2836   -1.3830   -1.1584 C   0  0  0  0  0  0  0  0  0  0  0  0
   -0.9245   -1.1565   -1.0283 C   0  0  0  0  0  0  0  0  0  0  0  0
    2.3209   -1.0755    0.3882 C   0  0  0  0  0  0  0  0  0  0  0  0
   -0.2580   -1.5193    0.1440 C   0  0  0  0  0  0  0  0  0  0  0  0
   -0.9723   -2.1168    1.1868 C   0  0  0  0  0  0  0  0  0  0  0  0
   -2.3300   -2.3451    1.0625 C   0  0  0  0  0  0  0  0  0  0  0  0
    1.1408   -1.2817    0.2756 C   0  0  0  0  0  0  0  0  0  0  0  0
    3.7487   -0.8234    0.5097 C   0  0  0  0  0  0  0  0  0  0  0  0
    6.6366    0.5571   -0.0781 C   0  0  0  0  0  0  0  0  0  0  0  0
   -5.4383   -0.8996    0.4435 N   0  0  0  0  0  0  0  0  0  0  0  0
    3.9839    0.6143    0.6270 N   0  0  0  0  0  0  0  0  0  0  0  0
   -5.1840    0.4177   -0.1287 C   0  0  0  0  0  0  0  0  0  0  0  0
   -6.0967    2.8866   -1.3936 F   0  0  0  0  0  0  0  0  0  0  0  0
   -6.0260    2.7924   -0.0564 C   0  0  1  0  0  0  0  0  0  0  0  0
   -4.8315    3.2924    0.2976 F   0  0  0  0  0  0  0  0  0  0  0  0
   -6.9546    3.6210    0.4397 F   0  0  0  0  0  0  0  0  0  0  0  0
   -6.2249    1.3825    0.4271 C   0  0  0  0  0  0  0  0  0  0  0  0
   -4.7287   -2.2178   -0.2436 S   0  0  1  0  0  0  0  0  0  0  0  0
   -5.0743   -2.2011   -1.6538 O   0  0  0  0  0  0  0  0  0  0  0  0
   -5.0949   -3.3496    0.5887 O   0  0  0  0  0  0  0  0  0  0  0  0
    5.4729    1.1246    1.1310 S   0  0  1  0  0  0  0  0  0  0  0  0
    5.7484    0.4346    2.3791 O   0  0  0  0  0  0  0  0  0  0  0  0
    5.4259    2.5748    1.0845 O   0  0  0  0  0  0  0  0  0  0  0  0
    7.6805    0.8232   -2.2130 C   0  0  0  0  0  0  0  0  0  0  0  0
    8.3749   -0.3635   -2.0107 C   0  0  0  0  0  0  0  0  0  0  0  0
    8.1991   -1.0855   -0.8387 C   0  0  0  0  0  0  0  0  0  0  0  0
    7.3263   -0.6283    0.1387 C   0  0  0  0  0  0  0  0  0  0  0  0
    6.2735    2.2203   -1.4066 H   0  0  0  0  0  0  0  0  0  0  0  0
   -2.7857   -1.1015   -2.0737 H   0  0  0  0  0  0  0  0  0  0  0  0
   -0.3775   -0.6984   -1.8406 H   0  0  0  0  0  0  0  0  0  0  0  0
   -0.4606   -2.4067    2.0941 H   0  0  0  0  0  0  0  0  0  0  0  0
   -2.8686   -2.8125    1.8756 H   0  0  0  0  0  0  0  0  0  0  0  0
    4.1222   -1.3178    1.4075 H   0  0  0  0  0  0  0  0  0  0  0  0
    4.2712   -1.2630   -0.3470 H   0  0  0  0  0  0  0  0  0  0  0  0
   -5.3695   -0.9250    1.4563 H   0  0  0  0  0  0  0  0  0  0  0  0
    3.6530    1.1440   -0.1737 H   0  0  0  0  0  0  0  0  0  0  0  0
   -4.1715    0.7640    0.0994 H   0  0  0  0  0  0  0  0  0  0  0  0
   -5.2816    0.3484   -1.2111 H   0  0  0  0  0  0  0  0  0  0  0  0
   -7.2242    1.0540    0.1363 H   0  0  0  0  0  0  0  0  0  0  0  0
   -6.1887    1.3904    1.5193 H   0  0  0  0  0  0  0  0  0  0  0  0
    7.8212    1.3881   -3.1245 H   0  0  0  0  0  0  0  0  0  0  0  0
    9.0568   -0.7247   -2.7689 H   0  0  0  0  0  0  0  0  0  0  0  0
    8.7429   -2.0065   -0.6794 H   0  0  0  0  0  0  0  0  0  0  0  0
    7.1999   -1.1907    1.0538 H   0  0  0  0  0  0  0  0  0  0  0  0
 16 17  1  1
 21 20  2  0
 15 16  1  0
 18 16  1  0
 16 19  1  0
  3  4  1  0
  3  1  2  0
 20 12  1  1
 20 22  2  0
 20  1  1  0
 24 23  2  0
  4  6  2  0
 12 14  1  0
 19 14  1  0
  1  8  1  0
 25 23  2  0
  2 26  2  0
  2 11  1  0
 23 11  1  0
 23 13  1  6
  6  9  1  0
  6  7  1  0
 26 27  1  0
 11 29  2  0
  8  7  2  0
  9  5  3  0
  5 10  1  0
 13 10  1  0
 27 28  2  0
 29 28  1  0
  2 30  1  0
  3 31  1  0
  4 32  1  0
  7 33  1  0
  8 34  1  0
 10 35  1  0
 10 36  1  0
 12 37  1  0
 13 38  1  0
 14 39  1  0
 14 40  1  0
 19 41  1  0
 19 42  1  0
 26 43  1  0
 27 44  1  0
 28 45  1  0
 29 46  1  0
M  END
