
     RDKit          3D

 20 22  0  0  0  0  0  0  0  0999 V2000
    2.7533   -1.4736    0.0303 C   0  0  0  0  0  0  0  0  0  0  0  0
    3.6895   -0.4540    0.0337 N   0  0  0  0  0  0  0  0  0  0  0  0
    3.0569   -2.6525    0.0352 O   0  0  0  0  0  0  0  0  0  0  0  0
    0.0071   -1.9204    0.0171 S   0  0  0  0  0  0  0  0  0  0  0  0
   -3.2083   -1.9828    0.0003 Cl  0  0  0  0  0  0  0  0  0  0  0  0
    3.3815    0.8625    0.0288 C   0  0  0  0  0  0  0  0  0  0  0  0
    2.1837    1.3379    0.0204 N   0  0  0  0  0  0  0  0  0  0  0  0
   -0.1019    3.4235   -0.0046 Cl  0  0  0  0  0  0  0  0  0  0  0  0
    1.1848    0.4167    0.0163 C   0  0  0  0  0  0  0  0  0  0  0  0
    1.4229   -0.9385    0.0210 C   0  0  0  0  0  0  0  0  0  0  0  0
   -0.9724   -0.4923    0.0073 C   0  0  0  0  0  0  0  0  0  0  0  0
   -2.3616   -0.4835   -0.0000 C   0  0  0  0  0  0  0  0  0  0  0  0
   -3.0281    0.7211   -0.0072 C   0  0  0  0  0  0  0  0  0  0  0  0
   -2.3100    1.9176   -0.0075 C   0  0  0  0  0  0  0  0  0  0  0  0
   -0.9304    1.9144   -0.0009 C   0  0  0  0  0  0  0  0  0  0  0  0
   -0.2303    0.7021    0.0073 C   0  0  0  0  0  0  0  0  0  0  0  0
    4.6681   -0.7154    0.0387 H   0  0  0  0  0  0  0  0  0  0  0  0
    4.2290    1.5351    0.0335 H   0  0  0  0  0  0  0  0  0  0  0  0
   -4.1088    0.7487   -0.0117 H   0  0  0  0  0  0  0  0  0  0  0  0
   -2.8496    2.8541   -0.0136 H   0  0  0  0  0  0  0  0  0  0  0  0
  3  1  2  0
  1 10  1  0
  1  2  1  0
  2  6  1  0
  2 17  1  0
  4 10  1  0
  4 11  1  0
  5 12  1  0
  6  7  2  0
  6 18  1  0
  9  7  1  0
 15  8  1  0
 10  9  2  0
  9 16  1  0
 12 11  1  0
 11 16  2  0
 12 13  2  0
 13 14  1  0
 13 19  1  0
 14 15  2  0
 14 20  1  0
 16 15  1  0
M  END
