
     RDKit          3D

 29 30  0  0  0  0  0  0  0  0999 V2000
    2.5646   -1.6707    0.0463 N   0  0  0  0  0  0  0  0  0  0  0  0
   -2.1330    1.1987   -0.0414 N   0  0  0  0  0  0  0  0  0  0  0  0
   -0.9152   -0.6826    0.0030 C   0  0  0  0  0  0  0  0  0  0  0  0
   -0.8364    0.7238   -0.0225 C   0  0  0  0  0  0  0  0  0  0  0  0
    0.3684    1.3479   -0.0229 C   0  0  0  0  0  0  0  0  0  0  0  0
    1.5389    0.5546    0.0020 C   0  0  0  0  0  0  0  0  0  0  0  0
   -2.5059    2.5888   -0.0673 C   0  0  0  0  0  0  0  0  0  0  0  0
    2.5092   -3.1094    0.0746 C   0  0  0  0  0  0  0  0  0  0  0  0
    1.4826   -0.8762    0.0268 C   0  0  0  0  0  0  0  0  0  0  0  0
    0.1995   -1.4770    0.0276 C   0  0  0  0  0  0  0  0  0  0  0  0
    2.7533    2.4756   -0.0274 O   0  0  0  0  0  0  0  0  0  0  0  0
    3.8229    0.6355    0.0287 O   0  0  0  0  0  0  0  0  0  0  0  0
   -3.0101    0.1473   -0.0286 C   0  0  0  0  0  0  0  0  0  0  0  0
   -2.2382   -1.0069   -0.0013 N   0  0  0  0  0  0  0  0  0  0  0  0
   -4.2232    0.1964   -0.0386 O   0  0  0  0  0  0  0  0  0  0  0  0
    3.4652   -1.2259    0.0538 H   0  0  0  0  0  0  0  0  0  0  0  0
    0.4442    2.4247   -0.0412 H   0  0  0  0  0  0  0  0  0  0  0  0
   -3.5889    2.6666   -0.0780 H   0  0  0  0  0  0  0  0  0  0  0  0
   -2.1272    3.1049    0.8150 H   0  0  0  0  0  0  0  0  0  0  0  0
   -2.1120    3.0765   -0.9590 H   0  0  0  0  0  0  0  0  0  0  0  0
   -2.4487   -2.8690    0.9230 H   0  0  0  0  0  0  0  0  0  0  0  0
   -3.8510   -2.3037    0.0058 H   0  0  0  0  0  0  0  0  0  0  0  0
   -2.4262   -2.9061   -0.8511 H   0  0  0  0  0  0  0  0  0  0  0  0
    1.9997   -3.4854    0.9651 H   0  0  0  0  0  0  0  0  0  0  0  0
    2.0065   -3.5192   -0.8045 H   0  0  0  0  0  0  0  0  0  0  0  0
    3.5285   -3.4840    0.0854 H   0  0  0  0  0  0  0  0  0  0  0  0
    0.1021   -2.5522    0.0485 H   0  0  0  0  0  0  0  0  0  0  0  0
    2.7668    1.2579    0.0009 N   0  0  0  0  0  0  0  0  0  0  0  0
   -2.7663   -2.3479    0.0204 C   0  0  0  0  0  0  0  0  0  0  0  0
  8  1  1  0
 12 28  2  0
  1  9  1  0
 28 11  1  0
 28  6  1  0
  9  6  2  0
  9 10  1  0
  6  5  1  0
 10  3  2  0
  5  4  2  0
  3  4  1  0
  3 14  1  0
  4  2  1  0
 14 29  1  0
 14 13  1  0
  2 13  1  0
  2  7  1  0
 13 15  2  0
  1 16  1  0
  5 17  1  0
  7 18  1  0
  7 19  1  0
  7 20  1  0
 29 21  1  0
 29 22  1  0
 29 23  1  0
  8 24  1  0
  8 25  1  0
  8 26  1  0
 10 27  1  0
M  CHG  2  11  -1  28   1
M  END
