
     RDKit          3D

 40 42  0  0  0  0  0  0  0  0999 V2000
    0.8612    0.3941    3.5055 C   0  0  0  0  0  0  0  0  0  0  0  0
   -0.6026    0.4138    3.4209 C   0  0  0  0  0  0  0  0  0  0  0  0
   -1.1511    0.0802    2.1116 C   0  0  0  0  0  0  0  0  0  0  0  0
   -0.3746   -0.2473    1.0193 C   0  0  0  0  0  0  0  0  0  0  0  0
    1.0709   -0.2848    1.1029 C   0  0  0  0  0  0  0  0  0  0  0  0
    1.6446    0.0807    2.4542 C   0  0  0  0  0  0  0  0  0  0  0  0
   -2.4541    0.0258    1.7360 N   0  0  0  0  0  0  0  0  0  0  0  0
   -2.5287   -0.3283    0.4178 C   0  0  0  0  0  0  0  0  0  0  0  0
   -1.2446   -0.5124   -0.0611 C   0  0  0  0  0  0  0  0  0  0  0  0
    1.8084   -0.5854    0.1906 O   0  0  0  0  0  0  0  0  0  0  0  0
   -1.2917    0.6918    4.3890 O   0  0  0  0  0  0  0  0  0  0  0  0
   -3.5942    0.2970    2.5925 C   0  0  0  0  0  0  0  0  0  0  0  0
   -0.8510   -0.8915   -1.4423 C   0  0  0  0  0  0  0  0  0  0  0  0
   -0.2974    0.2576   -2.0681 O   0  0  0  0  0  0  0  0  0  0  0  0
    0.2739    0.1187   -3.2803 C   0  0  0  0  0  0  0  0  0  0  0  0
    0.9047    1.2538   -3.7962 C   0  0  0  0  0  0  0  0  0  0  0  0
    1.5157    1.2069   -5.0366 C   0  0  0  0  0  0  0  0  0  0  0  0
    1.5111    0.0341   -5.7860 C   0  0  0  0  0  0  0  0  0  0  0  0
    0.8813   -1.0880   -5.2728 C   0  0  0  0  0  0  0  0  0  0  0  0
    0.2608   -1.0572   -4.0275 C   0  0  0  0  0  0  0  0  0  0  0  0
   -3.8262   -0.4637   -0.2942 C   0  0  0  0  0  0  0  0  0  0  0  0
    2.9633    0.0453    2.4408 O   0  0  0  0  0  0  0  0  0  0  0  0
    3.6600    0.3632    3.6365 C   0  0  0  0  0  0  0  0  0  0  0  0
    1.2763    0.6518    4.4714 H   0  0  0  0  0  0  0  0  0  0  0  0
   -3.5398    1.3055    2.9931 H   0  0  0  0  0  0  0  0  0  0  0  0
   -4.5066    0.2045    2.0135 H   0  0  0  0  0  0  0  0  0  0  0  0
   -3.6313   -0.4112    3.4162 H   0  0  0  0  0  0  0  0  0  0  0  0
   -0.1166   -1.7020   -1.4181 H   0  0  0  0  0  0  0  0  0  0  0  0
   -1.7154   -1.2545   -2.0069 H   0  0  0  0  0  0  0  0  0  0  0  0
    0.9103    2.1676   -3.2146 H   0  0  0  0  0  0  0  0  0  0  0  0
    2.0027    2.0944   -5.4199 H   0  0  0  0  0  0  0  0  0  0  0  0
    1.9929   -0.0010   -6.7539 H   0  0  0  0  0  0  0  0  0  0  0  0
    0.8673   -2.0089   -5.8419 H   0  0  0  0  0  0  0  0  0  0  0  0
   -0.2249   -1.9530   -3.6653 H   0  0  0  0  0  0  0  0  0  0  0  0
   -4.3943    0.4677   -0.2828 H   0  0  0  0  0  0  0  0  0  0  0  0
   -3.6605   -0.7281   -1.3359 H   0  0  0  0  0  0  0  0  0  0  0  0
   -4.4531   -1.2412    0.1447 H   0  0  0  0  0  0  0  0  0  0  0  0
    4.7183    0.2907    3.4042 H   0  0  0  0  0  0  0  0  0  0  0  0
    3.4311    1.3775    3.9704 H   0  0  0  0  0  0  0  0  0  0  0  0
    3.4160   -0.3405    4.4349 H   0  0  0  0  0  0  0  0  0  0  0  0
  1  2  1  0
  1  6  2  0
  1 24  1  0
  2  3  1  0
  2 11  2  0
  3  4  2  0
  3  7  1  0
  4  5  1  0
  4  9  1  0
  5  6  1  0
  5 10  2  0
  6 22  1  0
  7  8  1  0
  7 12  1  0
  8  9  2  0
  8 21  1  0
  9 13  1  0
 12 25  1  0
 12 26  1  0
 12 27  1  0
 13 14  1  0
 13 28  1  0
 13 29  1  0
 14 15  1  0
 15 16  2  0
 15 20  1  0
 16 17  1  0
 16 30  1  0
 17 18  2  0
 17 31  1  0
 18 19  1  0
 18 32  1  0
 19 20  2  0
 19 33  1  0
 20 34  1  0
 21 35  1  0
 21 36  1  0
 21 37  1  0
 22 23  1  0
 23 38  1  0
 23 39  1  0
 23 40  1  0
M  END
