
     RDKit          3D

 17 18  0  0  0  0  0  0  0  0999 V2000
    0.7437   -1.4173    0.0092 C   0  0  0  0  0  0  0  0  0  0  0  0
   -0.5866   -1.7463    0.0316 C   0  0  0  0  0  0  0  0  0  0  0  0
   -1.5067   -0.6898    0.0261 C   0  0  0  0  0  0  0  0  0  0  0  0
   -1.0983    0.6576   -0.0012 C   0  0  0  0  0  0  0  0  0  0  0  0
    0.2547    0.9828   -0.0240 C   0  0  0  0  0  0  0  0  0  0  0  0
    1.1500   -0.0658   -0.0180 C   0  0  0  0  0  0  0  0  0  0  0  0
   -2.8511   -0.6640    0.0438 N   0  0  0  0  0  0  0  0  0  0  0  0
   -3.3394    0.5820    0.0301 N   0  0  0  0  0  0  0  0  0  0  0  0
   -2.3162    1.3925    0.0029 C   0  0  0  0  0  0  0  0  0  0  0  0
    2.5675    0.2325   -0.0406 N   0  0  0  0  0  0  0  0  0  0  0  0
    3.3475   -0.6928   -0.0325 O   0  0  0  0  0  0  0  0  0  0  0  0
    2.9092    1.3933   -0.0667 O   0  0  0  0  0  0  0  0  0  0  0  0
    1.4817   -2.2053    0.0110 H   0  0  0  0  0  0  0  0  0  0  0  0
   -0.9035   -2.7796    0.0525 H   0  0  0  0  0  0  0  0  0  0  0  0
    0.5783    2.0137   -0.0456 H   0  0  0  0  0  0  0  0  0  0  0  0
   -3.4849   -1.4467    0.0659 H   0  0  0  0  0  0  0  0  0  0  0  0
   -2.4555    2.4624   -0.0113 H   0  0  0  0  0  0  0  0  0  0  0  0
  1  2  2  0
  1  6  1  0
  1 13  1  0
  2  3  1  0
  2 14  1  0
  3  4  2  0
  3  7  1  0
  4  5  1  0
  4  9  1  0
  5  6  2  0
  5 15  1  0
  6 10  1  0
  7  8  1  0
  7 16  1  0
  8  9  2  0
  9 17  1  0
 10 11  1  0
 10 12  2  0
M  CHG  2  10   1  11  -1
M  END
