
     RDKit          3D

 15 15  0  0  0  0  0  0  0  0999 V2000
   -1.0377   -1.1511    0.0079 C   0  0  0  0  0  0  0  0  0  0  0  0
    0.8729    0.0174   -0.0667 C   0  0  0  0  0  0  0  0  0  0  0  0
    0.1962    1.2228   -0.0635 C   0  0  0  0  0  0  0  0  0  0  0  0
   -1.1915    1.1182   -0.0172 C   0  0  0  0  0  0  0  0  0  0  0  0
    2.6053    0.0297   -0.1197 Cl  0  0  0  0  0  0  0  0  0  0  0  0
    0.3053   -1.1575   -0.0323 N   0  0  0  0  0  0  0  0  0  0  0  0
   -1.6489   -2.3405    0.0353 N   0  0  0  0  0  0  0  0  0  0  0  0
   -1.8037   -0.0579    0.0187 N   0  0  0  0  0  0  0  0  0  0  0  0
   -2.0587    2.3348   -0.0066 C   0  0  0  0  0  0  0  0  0  0  0  0
    0.7037    2.1743   -0.0949 H   0  0  0  0  0  0  0  0  0  0  0  0
   -1.1162   -3.1919    0.0511 H   0  0  0  0  0  0  0  0  0  0  0  0
   -2.6505   -2.3945    0.0839 H   0  0  0  0  0  0  0  0  0  0  0  0
   -2.6894    2.3399    0.8830 H   0  0  0  0  0  0  0  0  0  0  0  0
   -1.4729    3.2511   -0.0220 H   0  0  0  0  0  0  0  0  0  0  0  0
   -2.7210    2.3316   -0.8730 H   0  0  0  0  0  0  0  0  0  0  0  0
  9  4  1  0
  4  8  1  0
  4  3  2  0
  8  1  2  0
  3  2  1  0
  1  7  1  0
  1  6  1  0
  2  6  2  0
  2  5  1  0
  3 10  1  0
  7 11  1  0
  7 12  1  0
  9 13  1  0
  9 14  1  0
  9 15  1  0
M  END
