
     RDKit          3D

 71 73  0  0  0  0  0  0  0  0999 V2000
    2.2772    0.9668   -0.5399 C   0  0  0  0  0  0  0  0  0  0  0  0
    1.0364    1.1052    0.1419 N   0  0  0  0  0  0  0  0  0  0  0  0
    3.7293    0.0814    2.3322 O   0  0  0  0  0  0  0  0  0  0  0  0
    1.6326   -2.5532   -0.5186 Cl  0  0  0  0  0  0  0  0  0  0  0  0
    2.4768    1.6496   -1.7347 C   0  0  0  0  0  0  0  0  0  0  0  0
   -4.8115   -0.8441   -0.1203 N   0  0  0  0  0  0  0  0  0  0  0  0
    0.0073    0.0188   -1.5442 O   0  0  0  0  0  0  0  0  0  0  0  0
    6.1914    0.6422   -2.7428 Cl  0  0  0  0  0  0  0  0  0  0  0  0
    3.6708    1.5590   -2.4257 C   0  0  0  0  0  0  0  0  0  0  0  0
   -3.8908    0.5570    1.3870 O   0  0  0  0  0  0  0  0  0  0  0  0
    4.6809    0.7667   -1.9042 C   0  0  0  0  0  0  0  0  0  0  0  0
   -9.4483   -0.1655   -0.3333 O   0  0  0  0  0  0  0  0  0  0  0  0
    4.4978    0.0651   -0.7277 C   0  0  0  0  0  0  0  0  0  0  0  0
   -8.3783    0.8640    1.3272 O   0  0  0  0  0  0  0  0  0  0  0  0
    3.2897    0.1451   -0.0391 C   0  0  0  0  0  0  0  0  0  0  0  0
    3.1512   -0.6268    1.2620 C   0  0  1  0  0  0  0  0  0  0  0  0
    3.7060   -2.0345    1.1397 C   0  0  0  0  0  0  0  0  0  0  0  0
    3.0739   -2.9869    0.3432 C   0  0  0  0  0  0  0  0  0  0  0  0
    3.5579   -4.2788    0.2165 C   0  0  0  0  0  0  0  0  0  0  0  0
    4.7075   -4.6444    0.9015 C   0  0  0  0  0  0  0  0  0  0  0  0
    5.3529   -3.7183    1.7058 C   0  0  0  0  0  0  0  0  0  0  0  0
    4.8497   -2.4301    1.8250 C   0  0  0  0  0  0  0  0  0  0  0  0
   -0.0650    0.5454   -0.4482 C   0  0  0  0  0  0  0  0  0  0  0  0
   -1.3633    0.5686    0.3324 C   0  0  0  0  0  0  0  0  0  0  0  0
   -2.4690   -0.1790   -0.3901 C   0  0  0  0  0  0  0  0  0  0  0  0
   -3.7801   -0.1154    0.3699 C   0  0  0  0  0  0  0  0  0  0  0  0
   -6.1276   -0.7281    0.4738 C   0  0  0  0  0  0  0  0  0  0  0  0
   -7.0492    0.0868   -0.4507 C   0  0  1  0  0  0  0  0  0  0  0  0
   -7.0995   -0.5474   -1.8372 C   0  0  0  0  0  0  0  0  0  0  0  0
   -5.6935   -0.7450   -2.3934 C   0  0  0  0  0  0  0  0  0  0  0  0
   -4.8215   -1.5144   -1.4103 C   0  0  0  0  0  0  0  0  0  0  0  0
   -8.4225    0.2325    0.1587 C   0  0  0  0  0  0  0  0  0  0  0  0
    1.0049    1.8479    1.4002 C   0  0  0  0  0  0  0  0  0  0  0  0
    1.0844    3.3856    1.3135 C   0  0  1  0  0  0  0  0  0  0  0  0
    0.0637    3.9550    0.3314 C   0  0  0  0  0  0  0  0  0  0  0  0
    0.7722    3.8959    2.7235 C   0  0  0  0  0  0  0  0  0  0  0  0
    2.4904    3.8577    0.9315 C   0  0  0  0  0  0  0  0  0  0  0  0
    4.5711    0.4601    2.0558 H   0  0  0  0  0  0  0  0  0  0  0  0
    1.6895    2.2784   -2.1288 H   0  0  0  0  0  0  0  0  0  0  0  0
    3.8096    2.1006   -3.3511 H   0  0  0  0  0  0  0  0  0  0  0  0
    5.2908   -0.5733   -0.3579 H   0  0  0  0  0  0  0  0  0  0  0  0
    2.0893   -0.7179    1.5051 H   0  0  0  0  0  0  0  0  0  0  0  0
    3.0414   -4.9925   -0.4108 H   0  0  0  0  0  0  0  0  0  0  0  0
    5.0888   -5.6521    0.8059 H   0  0  0  0  0  0  0  0  0  0  0  0
    6.2480   -3.9957    2.2463 H   0  0  0  0  0  0  0  0  0  0  0  0
    5.3572   -1.7259    2.4700 H   0  0  0  0  0  0  0  0  0  0  0  0
   -1.1958    0.1213    1.3152 H   0  0  0  0  0  0  0  0  0  0  0  0
   -1.6646    1.6000    0.5242 H   0  0  0  0  0  0  0  0  0  0  0  0
   -2.6182    0.2356   -1.3905 H   0  0  0  0  0  0  0  0  0  0  0  0
   -2.1775   -1.2210   -0.5375 H   0  0  0  0  0  0  0  0  0  0  0  0
   -6.5396   -1.7335    0.6085 H   0  0  0  0  0  0  0  0  0  0  0  0
   -6.0388   -0.2717    1.4545 H   0  0  0  0  0  0  0  0  0  0  0  0
   -6.6256    1.0961   -0.5287 H   0  0  0  0  0  0  0  0  0  0  0  0
   -7.6018   -1.5174   -1.7737 H   0  0  0  0  0  0  0  0  0  0  0  0
   -7.6888    0.0699   -2.5170 H   0  0  0  0  0  0  0  0  0  0  0  0
   -5.7391   -1.2876   -3.3396 H   0  0  0  0  0  0  0  0  0  0  0  0
   -5.2286    0.2236   -2.6020 H   0  0  0  0  0  0  0  0  0  0  0  0
   -3.8128   -1.6320   -1.7952 H   0  0  0  0  0  0  0  0  0  0  0  0
   -5.2214   -2.5232   -1.2667 H   0  0  0  0  0  0  0  0  0  0  0  0
    0.0930    1.5750    1.9268 H   0  0  0  0  0  0  0  0  0  0  0  0
    1.8240    1.5014    2.0314 H   0  0  0  0  0  0  0  0  0  0  0  0
   -0.9567    3.6619    0.5875 H   0  0  0  0  0  0  0  0  0  0  0  0
    0.1013    5.0461    0.3413 H   0  0  0  0  0  0  0  0  0  0  0  0
    0.2558    3.6358   -0.6947 H   0  0  0  0  0  0  0  0  0  0  0  0
    1.4660    3.4817    3.4589 H   0  0  0  0  0  0  0  0  0  0  0  0
    0.8558    4.9832    2.7686 H   0  0  0  0  0  0  0  0  0  0  0  0
   -0.2403    3.6281    3.0335 H   0  0  0  0  0  0  0  0  0  0  0  0
    2.7452    3.6260   -0.1012 H   0  0  0  0  0  0  0  0  0  0  0  0
    2.5693    4.9404    1.0495 H   0  0  0  0  0  0  0  0  0  0  0  0
    3.2489    3.3979    1.5693 H   0  0  0  0  0  0  0  0  0  0  0  0
   -9.2697    0.9377    1.7001 H   0  0  0  0  0  0  0  0  0  0  0  0
  1  2  1  0
  1  5  2  0
  1 15  1  0
  2 23  1  0
  2 33  1  0
  3 16  1  0
  4 18  1  0
  5  9  1  0
  6 26  1  0
  6 27  1  0
  6 31  1  0
  7 23  2  0
  8 11  1  0
  9 11  2  0
 10 26  2  0
 11 13  1  0
 12 32  2  0
 13 15  2  0
 14 32  1  0
 15 16  1  0
 16 17  1  0
 17 18  2  0
 17 22  1  0
 18 19  1  0
 19 20  2  0
 20 21  1  0
 21 22  2  0
 23 24  1  0
 24 25  1  0
 25 26  1  0
 27 28  1  0
 28 29  1  0
 28 32  1  0
 29 30  1  0
 30 31  1  0
 34 33  1  1
 34 35  1  0
 34 36  1  0
 34 37  1  0
  3 38  1  0
  5 39  1  0
  9 40  1  0
 13 41  1  0
 16 42  1  1
 19 43  1  0
 20 44  1  0
 21 45  1  0
 22 46  1  0
 24 47  1  0
 24 48  1  0
 25 49  1  0
 25 50  1  0
 27 51  1  0
 27 52  1  0
 28 53  1  6
 29 54  1  0
 29 55  1  0
 30 56  1  0
 30 57  1  0
 31 58  1  0
 31 59  1  0
 33 60  1  0
 33 61  1  0
 35 62  1  0
 35 63  1  0
 35 64  1  0
 36 65  1  0
 36 66  1  0
 36 67  1  0
 37 68  1  0
 37 69  1  0
 37 70  1  0
 14 71  1  0
M  END
