
     RDKit          3D

 95 97  0  0  0  0  0  0  0  0999 V2000
    4.1068    0.2899    4.0174 C   0  0  0  0  0  0  0  0  0  0  0  0
    4.8732   -0.2170    2.8015 C   0  0  0  0  0  0  0  0  0  0  0  0
    4.3275    0.3744    1.5025 C   0  0  2  0  0  0  0  0  0  0  0  0
    5.1005   -0.1697    0.3027 C   0  0  0  0  0  0  0  0  0  0  0  0
    4.5317    0.2317   -1.0583 C   0  0  2  0  0  0  0  0  0  0  0  0
    0.7203   -0.0671   -1.1625 C   0  0  1  0  0  0  0  0  0  0  0  0
   -6.5440   -1.0536    0.6616 C   0  0  0  0  0  0  0  0  0  0  0  0
   -7.8176   -0.3108    0.3106 C   0  0  0  0  0  0  0  0  0  0  0  0
   -8.2962    0.4444    1.4018 O   0  0  0  0  0  0  0  0  0  0  0  0
   -7.3171    1.3569    1.8467 C   0  0  0  0  0  0  0  0  0  0  0  0
   -6.0296    0.6547    2.2336 C   0  0  0  0  0  0  0  0  0  0  0  0
   -5.5288   -0.1149    1.1078 N   0  0  0  0  0  0  0  0  0  0  0  0
   -4.2938   -0.7857    1.4039 C   0  0  0  0  0  0  0  0  0  0  0  0
   -3.0896    1.2710    1.0053 O   0  0  0  0  0  0  0  0  0  0  0  0
   -2.0681   -0.3612    2.1881 N   0  0  0  0  0  0  0  0  0  0  0  0
   -0.7763    0.2835    2.3113 C   0  0  1  0  0  0  0  0  0  0  0  0
   -0.1964    0.0505    3.6937 C   0  0  0  0  0  0  0  0  0  0  0  0
    0.8923   -1.1989    1.3927 O   0  0  0  0  0  0  0  0  0  0  0  0
    0.0049    0.3554    0.0186 N   0  0  0  0  0  0  0  0  0  0  0  0
   -0.0742    0.2593   -2.4306 C   0  0  0  0  0  0  0  0  0  0  0  0
   -1.3819   -0.4769   -2.4884 C   0  0  0  0  0  0  0  0  0  0  0  0
   -2.5661    0.1180   -2.0575 C   0  0  0  0  0  0  0  0  0  0  0  0
   -3.7646   -0.5715   -2.0630 C   0  0  0  0  0  0  0  0  0  0  0  0
   -3.8111   -1.8903   -2.5161 C   0  0  0  0  0  0  0  0  0  0  0  0
   -5.0188   -2.4906   -2.4935 O   0  0  0  0  0  0  0  0  0  0  0  0
   -5.1107   -3.8358   -2.9152 C   0  0  0  0  0  0  0  0  0  0  0  0
   -2.6384   -2.5011   -2.9551 C   0  0  0  0  0  0  0  0  0  0  0  0
   -1.4437   -1.7914   -2.9332 C   0  0  0  0  0  0  0  0  0  0  0  0
    3.1396   -0.1909   -1.1411 N   0  0  0  0  0  0  0  0  0  0  0  0
    4.3535    1.9007    1.5805 C   0  0  0  0  0  0  0  0  0  0  0  0
    3.5949    2.4150    2.7993 C   0  0  0  0  0  0  0  0  0  0  0  0
    4.1112    1.8152    4.1054 C   0  0  1  0  0  0  0  0  0  0  0  0
    3.3084    2.3093    5.3011 C   0  0  0  0  0  0  0  0  0  0  0  0
    5.2706   -0.3665   -2.2758 C   0  0  1  0  0  0  0  0  0  0  0  0
    4.5808   -0.0224   -3.4546 O   0  0  0  0  0  0  0  0  0  0  0  0
    3.0692   -0.0615    3.9570 H   0  0  0  0  0  0  0  0  0  0  0  0
    4.5236   -0.1380    4.9338 H   0  0  0  0  0  0  0  0  0  0  0  0
    5.9336    0.0446    2.9024 H   0  0  0  0  0  0  0  0  0  0  0  0
    4.8264   -1.3092    2.7599 H   0  0  0  0  0  0  0  0  0  0  0  0
    3.2815    0.0570    1.4187 H   0  0  0  0  0  0  0  0  0  0  0  0
    6.1382    0.1576    0.3702 H   0  0  0  0  0  0  0  0  0  0  0  0
    5.1275   -1.2649    0.3619 H   0  0  0  0  0  0  0  0  0  0  0  0
    4.5307    1.3176   -1.1600 H   0  0  0  0  0  0  0  0  0  0  0  0
    0.8523   -1.1496   -1.1071 H   0  0  0  0  0  0  0  0  0  0  0  0
   -6.1855   -1.5778   -0.2273 H   0  0  0  0  0  0  0  0  0  0  0  0
   -7.6280    0.3412   -0.5543 H   0  0  0  0  0  0  0  0  0  0  0  0
   -8.6000   -1.0193    0.0340 H   0  0  0  0  0  0  0  0  0  0  0  0
   -7.1030    2.1005    1.0659 H   0  0  0  0  0  0  0  0  0  0  0  0
   -7.7286    1.8837    2.7087 H   0  0  0  0  0  0  0  0  0  0  0  0
   -5.2999    1.4117    2.5256 H   0  0  0  0  0  0  0  0  0  0  0  0
   -6.2072    0.0134    3.1144 H   0  0  0  0  0  0  0  0  0  0  0  0
   -4.3539   -1.4073    2.3135 H   0  0  0  0  0  0  0  0  0  0  0  0
   -4.0657   -1.4748    0.5833 H   0  0  0  0  0  0  0  0  0  0  0  0
   -2.1493   -1.2997    2.5498 H   0  0  0  0  0  0  0  0  0  0  0  0
   -0.9307    1.3534    2.1633 H   0  0  0  0  0  0  0  0  0  0  0  0
    0.7742    0.5361    3.7951 H   0  0  0  0  0  0  0  0  0  0  0  0
   -0.8618    0.4688    4.4475 H   0  0  0  0  0  0  0  0  0  0  0  0
   -0.0622   -1.0110    3.9003 H   0  0  0  0  0  0  0  0  0  0  0  0
   -0.6243    1.1402   -0.0554 H   0  0  0  0  0  0  0  0  0  0  0  0
   -0.2372    1.3380   -2.4891 H   0  0  0  0  0  0  0  0  0  0  0  0
    0.5453   -0.0090   -3.2899 H   0  0  0  0  0  0  0  0  0  0  0  0
   -2.5576    1.1423   -1.7068 H   0  0  0  0  0  0  0  0  0  0  0  0
   -4.6672   -0.0952   -1.6990 H   0  0  0  0  0  0  0  0  0  0  0  0
   -6.1531   -4.1243   -2.8055 H   0  0  0  0  0  0  0  0  0  0  0  0
   -4.8218   -3.9570   -3.9626 H   0  0  0  0  0  0  0  0  0  0  0  0
   -4.4953   -4.5002   -2.3031 H   0  0  0  0  0  0  0  0  0  0  0  0
   -2.6352   -3.5201   -3.3183 H   0  0  0  0  0  0  0  0  0  0  0  0
   -0.5410   -2.2832   -3.2780 H   0  0  0  0  0  0  0  0  0  0  0  0
    2.9554   -1.1611   -0.9305 H   0  0  0  0  0  0  0  0  0  0  0  0
    5.3963    2.2386    1.6283 H   0  0  0  0  0  0  0  0  0  0  0  0
    3.9235    2.3398    0.6777 H   0  0  0  0  0  0  0  0  0  0  0  0
    3.6499    3.5068    2.8418 H   0  0  0  0  0  0  0  0  0  0  0  0
    2.5310    2.1666    2.6907 H   0  0  0  0  0  0  0  0  0  0  0  0
    5.1530    2.1378    4.2353 H   0  0  0  0  0  0  0  0  0  0  0  0
    3.6749    1.8783    6.2346 H   0  0  0  0  0  0  0  0  0  0  0  0
    3.3576    3.3959    5.3939 H   0  0  0  0  0  0  0  0  0  0  0  0
    2.2542    2.0366    5.2038 H   0  0  0  0  0  0  0  0  0  0  0  0
    5.2810   -1.4645   -2.1508 H   0  0  0  0  0  0  0  0  0  0  0  0
    3.6737   -0.3321   -3.3659 H   0  0  0  0  0  0  0  0  0  0  0  0
    6.7683    0.0809   -4.6644 H   0  0  0  0  0  0  0  0  0  0  0  0
    8.3247   -0.2250   -3.8997 H   0  0  0  0  0  0  0  0  0  0  0  0
    7.0962   -1.4924   -3.9416 H   0  0  0  0  0  0  0  0  0  0  0  0
    6.6866    1.9686   -1.3786 H   0  0  0  0  0  0  0  0  0  0  0  0
    7.9122    1.8886   -2.6388 H   0  0  0  0  0  0  0  0  0  0  0  0
    6.2183    2.0895   -3.0760 H   0  0  0  0  0  0  0  0  0  0  0  0
    7.5195   -1.4294   -1.5081 H   0  0  0  0  0  0  0  0  0  0  0  0
    6.7404    0.0792   -2.4720 C   0  0  1  0  0  0  0  0  0  0  0  0
    2.0807    0.6329   -1.2112 C   0  0  0  0  0  0  0  0  0  0  0  0
    7.2529   -0.4165   -3.8270 C   0  0  0  0  0  0  0  0  0  0  0  0
    6.8941    1.5916   -2.3816 C   0  0  0  0  0  0  0  0  0  0  0  0
    7.5524   -0.4685   -1.4459 O   0  0  0  0  0  0  0  0  0  0  0  0
    0.1391   -0.2567    1.2072 C   0  0  0  0  0  0  0  0  0  0  0  0
    2.1504    1.8462   -1.3259 O   0  0  0  0  0  0  0  0  0  0  0  0
   -3.1088    0.1599    1.5080 C   0  0  0  0  0  0  0  0  0  0  0  0
   -6.7597   -1.8179    1.4278 H   0  0  0  0  0  0  0  0  0  0  0  0
 13 94  1  0
 13 12  1  0
  7  8  1  0
  7 12  1  0
 94 14  2  0
 94 15  1  0
  8  9  1  0
 12 11  1  0
 15 16  1  0
  9 10  1  0
 11 10  1  0
 17 16  1  0
 16 92  1  0
 92 18  2  0
 92 19  1  0
 27 28  2  0
 27 24  1  0
 19  6  1  0
 28 21  1  0
 25 24  1  0
 25 26  1  0
 24 23  2  0
 21 20  1  0
 21 22  2  0
  6 20  1  0
  6 88  1  0
 93 88  2  0
 23 22  1  0
 88 29  1  0
  1  2  1  0
  1 32  1  0
 33 32  1  0
  2  3  1  0
 32 31  1  0
 90 87  1  0
 29  5  1  0
  5  4  1  0
  5 34  1  0
 87 91  1  1
  3  4  1  0
  3 30  1  0
 31 30  1  0
 87 34  1  0
 87 89  1  0
 34 35  1  0
  1 36  1  0
  1 37  1  0
  2 38  1  0
  2 39  1  0
  3 40  1  6
  4 41  1  0
  4 42  1  0
  5 43  1  6
  6 44  1  1
  7 95  1  0
  7 45  1  0
  8 46  1  0
  8 47  1  0
 10 48  1  0
 10 49  1  0
 11 50  1  0
 11 51  1  0
 13 52  1  0
 13 53  1  0
 15 54  1  0
 16 55  1  6
 17 56  1  0
 17 57  1  0
 17 58  1  0
 19 59  1  0
 20 60  1  0
 20 61  1  0
 22 62  1  0
 23 63  1  0
 26 64  1  0
 26 65  1  0
 26 66  1  0
 27 67  1  0
 28 68  1  0
 29 69  1  0
 30 70  1  0
 30 71  1  0
 31 72  1  0
 31 73  1  0
 32 74  1  1
 33 75  1  0
 33 76  1  0
 33 77  1  0
 34 78  1  1
 35 79  1  0
 89 80  1  0
 89 81  1  0
 89 82  1  0
 90 83  1  0
 90 84  1  0
 90 85  1  0
 91 86  1  0
M  END
