
     RDKit          3D

 71 75  0  0  0  0  0  0  0  0999 V2000
    5.3437    0.5297    0.0775 C   0  0  0  0  0  0  0  0  0  0  0  0
   -0.2340    0.1858   -2.2157 C   0  0  0  0  0  0  0  0  0  0  0  0
    0.6432    0.8915   -1.1628 C   0  0  1  0  0  0  0  0  0  0  0  0
    2.9843    0.8740   -0.4788 C   0  0  0  0  0  0  0  0  0  0  0  0
   -0.6988   -1.2319   -1.8549 C   0  0  0  0  0  0  0  0  0  0  0  0
   -1.8453   -1.7471   -2.7576 C   0  0  0  0  0  0  0  0  0  0  0  0
   -0.0849    0.8591    0.1533 C   0  0  0  0  0  0  0  0  0  0  0  0
   -0.8724    0.1590    2.0107 C   0  0  0  0  0  0  0  0  0  0  0  0
   -8.4680   -0.1539    1.6295 C   0  0  0  0  0  0  0  0  0  0  0  0
   -3.3594    0.7809    1.6134 C   0  0  0  0  0  0  0  0  0  0  0  0
    9.0093   -0.3470    0.2770 C   0  0  0  0  0  0  0  0  0  0  0  0
    8.9606   -1.6973    0.5748 C   0  0  0  0  0  0  0  0  0  0  0  0
    7.7223   -2.3121    0.6788 C   0  0  0  0  0  0  0  0  0  0  0  0
    6.5475   -1.6019    0.5074 C   0  0  0  0  0  0  0  0  0  0  0  0
    6.5819   -0.2378    0.2203 C   0  0  0  0  0  0  0  0  0  0  0  0
    7.8358    0.3688    0.1088 C   0  0  0  0  0  0  0  0  0  0  0  0
    7.9307    1.7459   -0.2014 N   0  0  0  0  0  0  0  0  0  0  0  0
    8.5818    2.7202    0.4435 C   0  0  0  0  0  0  0  0  0  0  0  0
    8.4302    3.8249   -0.2343 N   0  0  0  0  0  0  0  0  0  0  0  0
    7.6836    3.5063   -1.2950 N   0  0  0  0  0  0  0  0  0  0  0  0
    7.3807    2.2721   -1.2941 N   0  0  0  0  0  0  0  0  0  0  0  0
    4.2026    0.0311   -0.3963 C   0  0  0  0  0  0  0  0  0  0  0  0
    2.9458    2.0298   -0.0808 O   0  0  0  0  0  0  0  0  0  0  0  0
    1.9332    0.2637   -1.0555 N   0  0  0  0  0  0  0  0  0  0  0  0
    0.2499    0.1932    1.2273 N   0  0  0  0  0  0  0  0  0  0  0  0
   -1.9114    0.8090    1.3996 C   0  0  0  0  0  0  0  0  0  0  0  0
   -1.3624    1.2873    0.2324 N   0  0  0  0  0  0  0  0  0  0  0  0
   -3.9460    1.2339    2.7853 C   0  0  0  0  0  0  0  0  0  0  0  0
   -5.3039    1.1137    3.0157 C   0  0  0  0  0  0  0  0  0  0  0  0
   -6.1142    0.5207    2.0461 C   0  0  0  0  0  0  0  0  0  0  0  0
   -5.5549    0.0589    0.8563 C   0  0  0  0  0  0  0  0  0  0  0  0
   -4.1820    0.1746    0.6294 C   0  0  0  0  0  0  0  0  0  0  0  0
   -7.4745    0.4392    2.3422 N   0  0  0  0  0  0  0  0  0  0  0  0
   -8.3482   -0.7320    0.5732 O   0  0  0  0  0  0  0  0  0  0  0  0
   -9.6235   -0.0061    2.2748 O   0  0  0  0  0  0  0  0  0  0  0  0
  -10.7777   -0.5867    1.6734 C   0  0  0  0  0  0  0  0  0  0  0  0
   -3.1627   -2.1550   -2.0717 C   0  0  0  0  0  0  0  0  0  0  0  0
   -4.1624   -1.1013   -1.5585 C   0  0  1  0  0  0  0  0  0  0  0  0
   -3.5892   -0.2902   -0.5223 N   0  0  0  0  0  0  0  0  0  0  0  0
   -4.7089   -0.2007   -2.6631 C   0  0  1  0  0  0  0  0  0  0  0  0
   -5.1831   -0.9089   -3.6963 F   0  0  0  0  0  0  0  0  0  0  0  0
   -5.7169    0.5662   -2.2225 F   0  0  0  0  0  0  0  0  0  0  0  0
   -3.7880    0.6415   -3.1508 F   0  0  0  0  0  0  0  0  0  0  0  0
    5.3638    1.5688    0.3876 H   0  0  0  0  0  0  0  0  0  0  0  0
   -1.1022    0.8226   -2.3998 H   0  0  0  0  0  0  0  0  0  0  0  0
    0.3049    0.1552   -3.1636 H   0  0  0  0  0  0  0  0  0  0  0  0
    0.7872    1.9253   -1.4890 H   0  0  0  0  0  0  0  0  0  0  0  0
    0.1472   -1.9179   -1.9387 H   0  0  0  0  0  0  0  0  0  0  0  0
   -0.9837   -1.3019   -0.8011 H   0  0  0  0  0  0  0  0  0  0  0  0
   -2.0291   -1.0352   -3.5628 H   0  0  0  0  0  0  0  0  0  0  0  0
   -1.4987   -2.6503   -3.2611 H   0  0  0  0  0  0  0  0  0  0  0  0
   -0.8970   -0.3782    2.9467 H   0  0  0  0  0  0  0  0  0  0  0  0
    9.9670    0.1429    0.1625 H   0  0  0  0  0  0  0  0  0  0  0  0
    9.8741   -2.2576    0.7139 H   0  0  0  0  0  0  0  0  0  0  0  0
    5.5955   -2.0996    0.6326 H   0  0  0  0  0  0  0  0  0  0  0  0
    9.1185    2.5866    1.3679 H   0  0  0  0  0  0  0  0  0  0  0  0
    4.1387   -0.9914   -0.7523 H   0  0  0  0  0  0  0  0  0  0  0  0
    2.0085   -0.7139   -1.2878 H   0  0  0  0  0  0  0  0  0  0  0  0
   -1.8454    1.8578   -0.4453 H   0  0  0  0  0  0  0  0  0  0  0  0
   -3.3205    1.6955    3.5389 H   0  0  0  0  0  0  0  0  0  0  0  0
   -5.7324    1.4815    3.9393 H   0  0  0  0  0  0  0  0  0  0  0  0
   -6.1877   -0.3958    0.1140 H   0  0  0  0  0  0  0  0  0  0  0  0
   -7.7509    0.8600    3.2170 H   0  0  0  0  0  0  0  0  0  0  0  0
  -10.9889   -0.1447    0.7000 H   0  0  0  0  0  0  0  0  0  0  0  0
  -10.6738   -1.6660    1.5650 H   0  0  0  0  0  0  0  0  0  0  0  0
  -11.6007   -0.3726    2.3489 H   0  0  0  0  0  0  0  0  0  0  0  0
   -3.7078   -2.7999   -2.7624 H   0  0  0  0  0  0  0  0  0  0  0  0
   -2.9301   -2.7887   -1.2122 H   0  0  0  0  0  0  0  0  0  0  0  0
   -5.0179   -1.6678   -1.1741 H   0  0  0  0  0  0  0  0  0  0  0  0
   -2.5889   -0.3312   -0.4920 H   0  0  0  0  0  0  0  0  0  0  0  0
    7.6405   -3.9973    1.0456 Cl  0  0  0  0  0  0  0  0  0  0  0  0
 19 18  2  0
 19 20  1  0
 18 17  1  0
 20 21  2  0
 17 21  1  0
 17 16  1  0
 11 16  2  0
 11 12  1  0
 16 15  1  0
 25  8  1  0
 25  7  2  0
  2  5  1  0
  2  3  1  0
 12 13  2  0
 15  1  1  0
 15 14  2  0
  8 26  2  0
  5  6  1  0
  1 22  2  0
 40 43  1  6
 24  3  1  0
 24  4  1  0
  7  3  1  0
  7 27  1  0
 13 14  1  0
 13 71  1  0
 42 40  1  0
 22  4  1  0
 26 27  1  0
 26 10  1  0
 40 38  1  0
 40 41  1  0
  6 37  1  0
  4 23  2  0
 38 37  1  0
 38 39  1  0
 10 28  1  0
 10 32  2  0
 28 29  2  0
 39 32  1  0
 32 31  1  0
 29 30  1  0
 31 30  2  0
 30 33  1  0
 34  9  2  0
 33  9  1  0
  9 35  1  0
 35 36  1  0
  1 44  1  0
  2 45  1  0
  2 46  1  0
  3 47  1  6
  5 48  1  0
  5 49  1  0
  6 50  1  0
  6 51  1  0
  8 52  1  0
 11 53  1  0
 12 54  1  0
 14 55  1  0
 18 56  1  0
 22 57  1  0
 24 58  1  0
 27 59  1  0
 28 60  1  0
 29 61  1  0
 31 62  1  0
 33 63  1  0
 36 64  1  0
 36 65  1  0
 36 66  1  0
 37 67  1  0
 37 68  1  0
 38 69  1  1
 39 70  1  0
M  END
