
     RDKit          3D

 17 16  0  0  0  0  0  0  0  0999 V2000
    1.8882    0.1480    1.0272 N   0  0  0  0  0  0  0  0  0  0  0  0
    0.4788    0.4051    0.8235 C   0  0  1  0  0  0  0  0  0  0  0  0
   -0.1617   -0.2147   -0.4336 C   0  0  0  0  0  0  0  0  0  0  0  0
    0.3282    0.4609   -1.6872 C   0  0  0  0  0  0  0  0  0  0  0  0
   -0.6704   -0.1499   -3.0176 S   0  0  0  0  0  0  0  0  0  0  0  0
   -0.3257   -0.0939    2.0127 C   0  0  0  0  0  0  0  0  0  0  0  0
   -1.3378    0.7415    2.3698 O   0  0  0  0  0  0  0  0  0  0  0  0
   -0.1789   -1.1257    2.6696 O   0  0  0  0  0  0  0  0  0  0  0  0
    2.1861   -0.6650    0.5230 H   0  0  0  0  0  0  0  0  0  0  0  0
    2.4281    0.9405    0.7400 H   0  0  0  0  0  0  0  0  0  0  0  0
    0.3543    1.5297    0.7660 H   0  0  0  0  0  0  0  0  0  0  0  0
    0.0610   -1.3137   -0.4732 H   0  0  0  0  0  0  0  0  0  0  0  0
   -1.2766   -0.0962   -0.3529 H   0  0  0  0  0  0  0  0  0  0  0  0
    0.2273    1.5701   -1.6024 H   0  0  0  0  0  0  0  0  0  0  0  0
    1.4039    0.2279   -1.8777 H   0  0  0  0  0  0  0  0  0  0  0  0
   -0.0982    0.4937   -4.0193 H   0  0  0  0  0  0  0  0  0  0  0  0
   -1.8135    0.3706    3.1320 H   0  0  0  0  0  0  0  0  0  0  0  0
  1  2  1  0
  1  9  1  0
  1 10  1  0
  2  3  1  0
  2  6  1  0
  2 11  1  6
  3  4  1  0
  3 12  1  0
  3 13  1  0
  4  5  1  0
  4 14  1  0
  4 15  1  0
  5 16  1  0
  6  7  1  0
  6  8  2  0
  7 17  1  0
M  END
