
     RDKit          3D

 19 20  0  0  0  0  0  0  0  0999 V2000
    1.3958    1.1877   -0.0447 N   0  0  0  0  0  0  0  0  0  0  0  0
   -0.7070    0.0216    0.0201 C   0  0  0  0  0  0  0  0  0  0  0  0
    1.3853   -1.1647    0.0799 N   0  0  0  0  0  0  0  0  0  0  0  0
    2.7102   -1.1627    0.0528 C   0  0  0  0  0  0  0  0  0  0  0  0
    0.7807    0.0143    0.0842 C   0  0  0  0  0  0  0  0  0  0  0  0
    2.7193    1.1798   -0.0905 C   0  0  0  0  0  0  0  0  0  0  0  0
    3.4477    0.0046   -0.0463 C   0  0  0  0  0  0  0  0  0  0  0  0
   -2.8011    1.1859    0.0183 C   0  0  0  0  0  0  0  0  0  0  0  0
   -3.4402   -0.0485   -0.0058 C   0  0  0  0  0  0  0  0  0  0  0  0
   -2.6475   -1.1872   -0.0576 C   0  0  0  0  0  0  0  0  0  0  0  0
   -1.3161   -1.1577   -0.0454 N   0  0  0  0  0  0  0  0  0  0  0  0
   -1.4182    1.2226   -0.0040 C   0  0  0  0  0  0  0  0  0  0  0  0
    3.1977   -2.1316    0.0451 H   0  0  0  0  0  0  0  0  0  0  0  0
    3.2127    2.1443   -0.1442 H   0  0  0  0  0  0  0  0  0  0  0  0
    4.5266    0.0008   -0.0941 H   0  0  0  0  0  0  0  0  0  0  0  0
   -3.3774    2.1020    0.0433 H   0  0  0  0  0  0  0  0  0  0  0  0
   -4.5164   -0.1327   -0.0105 H   0  0  0  0  0  0  0  0  0  0  0  0
   -3.1071   -2.1686   -0.1017 H   0  0  0  0  0  0  0  0  0  0  0  0
   -0.8867    2.1627    0.0091 H   0  0  0  0  0  0  0  0  0  0  0  0
  4  3  2  0
  4  7  1  0
  3  5  1  0
 12  8  2  0
 12  2  1  0
  7  6  2  0
  8  9  1  0
  5  2  1  0
  5  1  2  0
  2 11  2  0
  6  1  1  0
  9 10  2  0
 11 10  1  0
  4 13  1  0
  6 14  1  0
  7 15  1  0
  8 16  1  0
  9 17  1  0
 10 18  1  0
 12 19  1  0
M  END
