
     RDKit          3D

 18 17  0  0  0  0  0  0  0  0999 V2000
   -0.9769    0.9312   -0.2168 C   0  0  0  0  0  0  0  0  0  0  0  0
    0.3110    0.1866    0.1189 C   0  0  2  0  0  0  0  0  0  0  0  0
    1.5324    1.0869   -0.0343 C   0  0  0  0  0  0  0  0  0  0  0  0
    2.4588    0.8582   -0.7643 O   0  0  0  0  0  0  0  0  0  0  0  0
    1.4484    2.1446    0.7578 O   0  0  0  0  0  0  0  0  0  0  0  0
    0.4386   -0.9851   -0.6990 N   0  0  0  0  0  0  0  0  0  0  0  0
    1.0891   -2.0875   -0.2996 C   0  0  0  0  0  0  0  0  0  0  0  0
    1.5912   -2.2448    0.7980 O   0  0  0  0  0  0  0  0  0  0  0  0
   -2.2012    0.1339    0.1561 C   0  0  0  0  0  0  0  0  0  0  0  0
   -2.2178   -0.7653    0.9568 O   0  0  0  0  0  0  0  0  0  0  0  0
   -3.2779    0.5734   -0.4799 O   0  0  0  0  0  0  0  0  0  0  0  0
   -1.0286    1.8718    0.3371 H   0  0  0  0  0  0  0  0  0  0  0  0
   -1.0079    1.1995   -1.2755 H   0  0  0  0  0  0  0  0  0  0  0  0
    0.2765   -0.1247    1.1665 H   0  0  0  0  0  0  0  0  0  0  0  0
    2.2315    2.7073    0.6581 H   0  0  0  0  0  0  0  0  0  0  0  0
    0.1473   -0.9342   -1.6632 H   0  0  0  0  0  0  0  0  0  0  0  0
    1.1109   -2.8586   -1.0827 H   0  0  0  0  0  0  0  0  0  0  0  0
   -4.0596    0.0766   -0.1944 H   0  0  0  0  0  0  0  0  0  0  0  0
  7  6  1  0
  7  8  2  0
  6  2  1  0
  2  3  1  0
  2  1  1  0
  4  3  2  0
  3  5  1  0
  1  9  1  0
  9 10  2  0
  9 11  1  0
  1 12  1  0
  1 13  1  0
  2 14  1  1
  5 15  1  0
  6 16  1  0
  7 17  1  0
 11 18  1  0
M  END
