
     RDKit          3D

 44 47  0  0  0  0  0  0  0  0999 V2000
   -0.7133   -1.3842    0.3913 C   0  0  0  0  0  0  0  0  0  0  0  0
    1.5364   -1.2488    0.3577 N   0  0  0  0  0  0  0  0  0  0  0  0
    2.7324   -0.5960    0.4851 C   0  0  0  0  0  0  0  0  0  0  0  0
    2.0635    1.4027    1.7731 C   0  0  0  0  0  0  0  0  0  0  0  0
    2.1580    2.7524    2.0734 C   0  0  0  0  0  0  0  0  0  0  0  0
    3.0436    3.5416    1.3564 C   0  0  0  0  0  0  0  0  0  0  0  0
    3.7323    1.6415    0.0427 C   0  0  0  0  0  0  0  0  0  0  0  0
    5.3033    1.8267   -1.7257 C   0  0  0  0  0  0  0  0  0  0  0  0
   -7.3512    2.6362   -0.9740 C   0  0  0  0  0  0  0  0  0  0  0  0
   -5.8849    2.2787   -0.9959 C   0  0  0  0  0  0  0  0  0  0  0  0
   -4.4965    0.5334   -0.1496 C   0  0  0  0  0  0  0  0  0  0  0  0
   -4.4117   -0.6808    0.5365 C   0  0  0  0  0  0  0  0  0  0  0  0
   -3.1937   -1.3070    0.6980 C   0  0  0  0  0  0  0  0  0  0  0  0
   -2.0174   -0.7435    0.1933 C   0  0  0  0  0  0  0  0  0  0  0  0
   -2.1148    0.4731   -0.4847 C   0  0  0  0  0  0  0  0  0  0  0  0
   -3.3307    1.1068   -0.6638 C   0  0  0  0  0  0  0  0  0  0  0  0
    0.3256   -0.6517    0.2347 N   0  0  0  0  0  0  0  0  0  0  0  0
    3.6973   -1.4643    0.3742 N   0  0  0  0  0  0  0  0  0  0  0  0
    3.1559   -2.6943    0.1627 N   0  0  0  0  0  0  0  0  0  0  0  0
    1.8657   -2.5524    0.1554 C   0  0  0  0  0  0  0  0  0  0  0  0
    0.6271   -3.7161   -0.1569 S   0  0  0  0  0  0  0  0  0  0  0  0
   -0.6404   -2.8321    0.7991 C   0  0  0  0  0  0  0  0  0  0  0  0
    2.8424    0.8324    0.7702 C   0  0  0  0  0  0  0  0  0  0  0  0
    3.8264    2.9979    0.3474 C   0  0  0  0  0  0  0  0  0  0  0  0
    1.3860    0.7769    2.3385 H   0  0  0  0  0  0  0  0  0  0  0  0
    1.5520    3.1785    2.8610 H   0  0  0  0  0  0  0  0  0  0  0  0
    3.1343    4.5968    1.5790 H   0  0  0  0  0  0  0  0  0  0  0  0
    6.1084    2.2692   -1.1343 H   0  0  0  0  0  0  0  0  0  0  0  0
    5.7374    1.1512   -2.4582 H   0  0  0  0  0  0  0  0  0  0  0  0
    4.7698    2.6225   -2.2513 H   0  0  0  0  0  0  0  0  0  0  0  0
   -7.5059    3.5534   -1.5414 H   0  0  0  0  0  0  0  0  0  0  0  0
   -7.9591    1.8541   -1.4288 H   0  0  0  0  0  0  0  0  0  0  0  0
   -7.7058    2.8065    0.0425 H   0  0  0  0  0  0  0  0  0  0  0  0
   -5.5368    2.1468   -2.0251 H   0  0  0  0  0  0  0  0  0  0  0  0
   -5.2884    3.0763   -0.5422 H   0  0  0  0  0  0  0  0  0  0  0  0
   -5.3106   -1.1292    0.9395 H   0  0  0  0  0  0  0  0  0  0  0  0
   -3.1741   -2.2410    1.2443 H   0  0  0  0  0  0  0  0  0  0  0  0
   -1.2241    0.9309   -0.8930 H   0  0  0  0  0  0  0  0  0  0  0  0
   -3.3537    2.0404   -1.2088 H   0  0  0  0  0  0  0  0  0  0  0  0
   -0.4220   -2.9166    1.8661 H   0  0  0  0  0  0  0  0  0  0  0  0
   -1.5689   -3.3593    0.5999 H   0  0  0  0  0  0  0  0  0  0  0  0
    4.5031    3.6440   -0.1939 H   0  0  0  0  0  0  0  0  0  0  0  0
    4.4331    1.0437   -0.9300 O   0  0  0  0  0  0  0  0  0  0  0  0
   -5.7174    1.0658   -0.2670 O   0  0  0  0  0  0  0  0  0  0  0  0
 18 19  1  0
 18  3  2  0
 19 20  2  0
  4  5  2  0
  4 23  1  0
  5  6  1  0
  3 23  1  0
  3  2  1  0
 23  7  2  0
  6 24  2  0
 20  2  1  0
 20 21  1  0
  8 43  1  0
  7 24  1  0
  7 43  1  0
  2 17  1  0
 21 22  1  0
 17  1  2  0
 22  1  1  0
  1 14  1  0
 14 15  2  0
 14 13  1  0
 15 16  1  0
 16 11  2  0
 13 12  2  0
 12 11  1  0
 11 44  1  0
  9 10  1  0
 44 10  1  0
  4 25  1  0
  5 26  1  0
  6 27  1  0
  8 28  1  0
  8 29  1  0
  8 30  1  0
  9 31  1  0
  9 32  1  0
  9 33  1  0
 10 34  1  0
 10 35  1  0
 12 36  1  0
 13 37  1  0
 15 38  1  0
 16 39  1  0
 22 40  1  0
 22 41  1  0
 24 42  1  0
M  END
