
     RDKit          3D

 20 21  0  0  0  0  0  0  0  0999 V2000
    3.7764   -1.0131   -0.1164 N   0  0  0  0  0  0  0  0  0  0  0  0
   -0.6068    1.6289   -0.0298 C   0  0  0  0  0  0  0  0  0  0  0  0
    0.4781    0.7757   -0.0408 C   0  0  0  0  0  0  0  0  0  0  0  0
    2.5069   -0.5838   -0.0584 C   0  0  0  0  0  0  0  0  0  0  0  0
    0.3100   -0.6212   -0.0346 C   0  0  0  0  0  0  0  0  0  0  0  0
   -0.9724   -1.1535   -0.0168 C   0  0  0  0  0  0  0  0  0  0  0  0
   -4.4371   -0.0807    0.0120 C   0  0  0  0  0  0  0  0  0  0  0  0
   -2.0705   -0.2956   -0.0047 C   0  0  0  0  0  0  0  0  0  0  0  0
   -1.8885    1.0918   -0.0125 C   0  0  0  0  0  0  0  0  0  0  0  0
    1.4696   -1.3565   -0.0436 N   0  0  0  0  0  0  0  0  0  0  0  0
   -3.2801   -0.8918    0.0147 O   0  0  0  0  0  0  0  0  0  0  0  0
    2.1799    1.1486   -0.0630 S   0  0  0  0  0  0  0  0  0  0  0  0
    4.5327   -0.3945    0.1217 H   0  0  0  0  0  0  0  0  0  0  0  0
    3.9426   -1.9921    0.0523 H   0  0  0  0  0  0  0  0  0  0  0  0
   -0.4769    2.7030   -0.0348 H   0  0  0  0  0  0  0  0  0  0  0  0
   -1.1162   -2.2268   -0.0114 H   0  0  0  0  0  0  0  0  0  0  0  0
   -5.2886   -0.7566    0.0199 H   0  0  0  0  0  0  0  0  0  0  0  0
   -4.4911    0.5598    0.8962 H   0  0  0  0  0  0  0  0  0  0  0  0
   -4.4964    0.5457   -0.8818 H   0  0  0  0  0  0  0  0  0  0  0  0
   -2.7290    1.7708   -0.0055 H   0  0  0  0  0  0  0  0  0  0  0  0
  1  4  1  0
  4 12  1  0
  4 10  2  0
 12  3  1  0
 10  5  1  0
  3  5  1  0
  3  2  2  0
  5  6  2  0
  2  9  1  0
  6  8  1  0
  9  8  2  0
  8 11  1  0
 11  7  1  0
  1 13  1  0
  1 14  1  0
  2 15  1  0
  6 16  1  0
  7 17  1  0
  7 18  1  0
  7 19  1  0
  9 20  1  0
M  END
