
     RDKit          3D

 28 29  0  0  0  0  0  0  0  0999 V2000
   -2.0921   -0.9697    2.2517 O   0  0  0  0  0  0  0  0  0  0  0  0
   -1.2444    1.0746    1.9963 O   0  0  0  0  0  0  0  0  0  0  0  0
    3.8739   -0.9592    0.6703 O   0  0  0  0  0  0  0  0  0  0  0  0
    3.9855    1.9076    0.4382 Cl  0  0  0  0  0  0  0  0  0  0  0  0
    1.6412   -2.9096    0.2038 Cl  0  0  0  0  0  0  0  0  0  0  0  0
   -4.2905    0.5107   -1.9362 C   0  0  0  0  0  0  0  0  0  0  0  0
   -4.7522   -0.2255   -0.8518 C   0  0  0  0  0  0  0  0  0  0  0  0
   -3.0129    1.0382   -1.9299 C   0  0  0  0  0  0  0  0  0  0  0  0
   -3.9310   -0.3878    0.2494 C   0  0  0  0  0  0  0  0  0  0  0  0
    1.4012    1.5459   -0.2233 C   0  0  0  0  0  0  0  0  0  0  0  0
    0.3589   -0.6076   -0.3615 C   0  0  0  0  0  0  0  0  0  0  0  0
   -1.9124    0.1604    1.5807 C   0  0  0  0  0  0  0  0  0  0  0  0
    0.2697    0.7756   -0.4810 C   0  0  0  0  0  0  0  0  0  0  0  0
    2.5879    0.9389    0.1380 C   0  0  0  0  0  0  0  0  0  0  0  0
    1.5503   -1.1867    0.0381 C   0  0  0  0  0  0  0  0  0  0  0  0
    2.6989   -0.4422    0.2937 C   0  0  0  0  0  0  0  0  0  0  0  0
   -2.1713    0.8801   -0.8246 C   0  0  0  0  0  0  0  0  0  0  0  0
   -2.6575    0.1833    0.2969 C   0  0  0  0  0  0  0  0  0  0  0  0
   -1.6437   -0.9183    3.1093 H   0  0  0  0  0  0  0  0  0  0  0  0
    3.8330   -1.9237    0.7033 H   0  0  0  0  0  0  0  0  0  0  0  0
   -4.9212    0.6550   -2.8038 H   0  0  0  0  0  0  0  0  0  0  0  0
   -5.7420   -0.6603   -0.8610 H   0  0  0  0  0  0  0  0  0  0  0  0
   -2.6436    1.5710   -2.7980 H   0  0  0  0  0  0  0  0  0  0  0  0
   -4.3010   -0.9367    1.1048 H   0  0  0  0  0  0  0  0  0  0  0  0
    1.3525    2.6234   -0.3066 H   0  0  0  0  0  0  0  0  0  0  0  0
   -0.4849   -1.2451   -0.5892 H   0  0  0  0  0  0  0  0  0  0  0  0
   -0.7704    2.1343   -1.5817 H   0  0  0  0  0  0  0  0  0  0  0  0
   -0.8989    1.4190   -0.8826 N   0  0  0  0  0  0  0  0  0  0  0  0
 12  1  1  0
  1 19  1  0
  2 12  2  0
 16  3  1  0
  3 20  1  0
 14  4  1  0
 15  5  1  0
  7  6  2  0
  6  8  1  0
  6 21  1  0
  9  7  1  0
  7 22  1  0
 17  8  2  0
  8 23  1  0
  9 18  2  0
  9 24  1  0
 13 10  2  0
 10 14  1  0
 10 25  1  0
 13 11  1  0
 11 15  2  0
 11 26  1  0
 17 28  1  0
 28 13  1  0
 28 27  1  0
 12 18  1  0
 14 16  2  0
 15 16  1  0
 18 17  1  0
M  END
