
     RDKit          3D

 26 25  0  0  0  0  0  0  0  0999 V2000
    3.2818    0.2233   -0.3264 C   0  0  0  0  0  0  0  0  0  0  0  0
    2.0330   -0.3029    0.3618 C   0  0  1  0  0  0  0  0  0  0  0  0
    0.7847    0.2608   -0.3251 C   0  0  0  0  0  0  0  0  0  0  0  0
   -0.5615    0.0823    1.6918 O   0  0  0  0  0  0  0  0  0  0  0  0
   -0.5172   -0.2205    0.3117 C   0  0  1  0  0  0  0  0  0  0  0  0
   -1.7190    0.3406   -0.4417 C   0  0  0  0  0  0  0  0  0  0  0  0
   -3.0579   -0.1624    0.0817 C   0  0  0  0  0  0  0  0  0  0  0  0
    2.0496   -1.6991    0.4137 O   0  0  0  0  0  0  0  0  0  0  0  0
   -5.4256   -0.1238   -0.2136 O   0  0  0  0  0  0  0  0  0  0  0  0
    3.4381    1.5264   -0.1393 O   0  0  0  0  0  0  0  0  0  0  0  0
    4.0312   -0.4566   -0.9800 O   0  0  0  0  0  0  0  0  0  0  0  0
    2.0504    0.0451    1.3985 H   0  0  0  0  0  0  0  0  0  0  0  0
    0.8163    1.3542   -0.2989 H   0  0  0  0  0  0  0  0  0  0  0  0
    0.7879   -0.0199   -1.3838 H   0  0  0  0  0  0  0  0  0  0  0  0
   -4.1886    1.4632   -0.7449 H   0  0  0  0  0  0  0  0  0  0  0  0
   -4.0809    0.0515   -1.7916 H   0  0  0  0  0  0  0  0  0  0  0  0
   -0.5577   -1.3126    0.2540 H   0  0  0  0  0  0  0  0  0  0  0  0
   -1.6899    1.4366   -0.4053 H   0  0  0  0  0  0  0  0  0  0  0  0
   -1.6150    0.0725   -1.4977 H   0  0  0  0  0  0  0  0  0  0  0  0
   -3.1905    0.1402    1.1235 H   0  0  0  0  0  0  0  0  0  0  0  0
   -3.0700   -1.2570    0.0627 H   0  0  0  0  0  0  0  0  0  0  0  0
    2.0449   -2.0462   -0.4852 H   0  0  0  0  0  0  0  0  0  0  0  0
   -6.1439    0.1856   -0.7722 H   0  0  0  0  0  0  0  0  0  0  0  0
    4.2202    1.8435   -0.6159 H   0  0  0  0  0  0  0  0  0  0  0  0
   -0.5868    1.0409    1.7893 H   0  0  0  0  0  0  0  0  0  0  0  0
   -4.2126    0.3647   -0.7469 C   0  0  0  0  0  0  0  0  0  0  0  0
 11  1  2  0
  1  2  1  0
  1 10  1  0
  3  2  1  0
  2  8  1  0
  2 12  1  1
  3  5  1  0
  3 13  1  0
  3 14  1  0
  5  4  1  0
  4 25  1  0
 26  9  1  0
 26  7  1  0
 26 15  1  0
 26 16  1  0
  6  5  1  0
  5 17  1  1
  6  7  1  0
  6 18  1  0
  6 19  1  0
  7 20  1  0
  7 21  1  0
  8 22  1  0
  9 23  1  0
 10 24  1  0
M  END
