
     RDKit          3D

 50 53  0  0  0  0  0  0  0  0999 V2000
    3.6225   -3.1415   -0.5085 C   0  0  0  0  0  0  0  0  0  0  0  0
    0.5522   -0.2009   -3.1144 C   0  0  0  0  0  0  0  0  0  0  0  0
   -3.0250   -1.0084    0.1732 C   0  0  0  0  0  0  0  0  0  0  0  0
   -4.2635   -1.4166    0.6994 C   0  0  0  0  0  0  0  0  0  0  0  0
   -4.5899   -2.7537    0.7829 C   0  0  0  0  0  0  0  0  0  0  0  0
   -3.6870   -3.7195    0.3407 C   0  0  0  0  0  0  0  0  0  0  0  0
   -0.8529    1.9142   -0.5112 C   0  0  0  0  0  0  0  0  0  0  0  0
    2.8204   -0.8142   -0.4221 C   0  0  0  0  0  0  0  0  0  0  0  0
    3.7591   -1.8159   -0.0716 C   0  0  0  0  0  0  0  0  0  0  0  0
    4.8519   -1.4067    0.7336 C   0  0  0  0  0  0  0  0  0  0  0  0
    4.9763   -0.1491    1.1422 N   0  0  0  0  0  0  0  0  0  0  0  0
    4.0281    0.7054    0.7561 C   0  0  0  0  0  0  0  0  0  0  0  0
    2.9642    0.4349   -0.0081 N   0  0  0  0  0  0  0  0  0  0  0  0
    5.7958   -2.2699    1.1099 N   0  0  0  0  0  0  0  0  0  0  0  0
    4.1452    1.9664    1.1830 N   0  0  0  0  0  0  0  0  0  0  0  0
    1.7665   -1.1144   -1.1991 N   0  0  0  0  0  0  0  0  0  0  0  0
    3.5080   -4.2356   -0.8702 N   0  0  0  0  0  0  0  0  0  0  0  0
    0.7641   -0.1637   -1.6023 C   0  0  2  0  0  0  0  0  0  0  0  0
   -0.5535   -0.4677   -0.9106 C   0  0  0  0  0  0  0  0  0  0  0  0
   -1.3343    0.5718   -0.4721 N   0  0  0  0  0  0  0  0  0  0  0  0
   -2.6055    0.3874    0.0874 C   0  0  0  0  0  0  0  0  0  0  0  0
   -2.1308   -1.9997   -0.2771 C   0  0  0  0  0  0  0  0  0  0  0  0
   -0.9118   -1.6914   -0.8239 N   0  0  0  0  0  0  0  0  0  0  0  0
   -2.4714   -3.3531   -0.1863 C   0  0  0  0  0  0  0  0  0  0  0  0
   -3.2305    1.3539    0.4614 O   0  0  0  0  0  0  0  0  0  0  0  0
   -1.1376    2.7070   -1.6115 C   0  0  0  0  0  0  0  0  0  0  0  0
   -0.6934    3.9475   -1.7329 N   0  0  0  0  0  0  0  0  0  0  0  0
    0.0581    4.4393   -0.7585 C   0  0  0  0  0  0  0  0  0  0  0  0
    0.3650    3.7009    0.3680 C   0  0  0  0  0  0  0  0  0  0  0  0
   -0.0987    2.4083    0.5507 C   0  0  0  0  0  0  0  0  0  0  0  0
    0.2216    1.6206    1.7783 C   0  0  0  0  0  0  0  0  0  0  0  0
    1.1419    4.2505    1.3095 F   0  0  0  0  0  0  0  0  0  0  0  0
    1.4790    0.0635   -3.6217 H   0  0  0  0  0  0  0  0  0  0  0  0
    0.2427   -1.1934   -3.4418 H   0  0  0  0  0  0  0  0  0  0  0  0
   -0.2157    0.5092   -3.4202 H   0  0  0  0  0  0  0  0  0  0  0  0
   -5.5452   -3.0520    1.1911 H   0  0  0  0  0  0  0  0  0  0  0  0
   -3.9557   -4.7646    0.4140 H   0  0  0  0  0  0  0  0  0  0  0  0
    5.7848   -3.2390    0.8444 H   0  0  0  0  0  0  0  0  0  0  0  0
    6.5625   -1.9509    1.6771 H   0  0  0  0  0  0  0  0  0  0  0  0
    4.9278    2.2426    1.7488 H   0  0  0  0  0  0  0  0  0  0  0  0
    3.4767    2.6637    0.9102 H   0  0  0  0  0  0  0  0  0  0  0  0
    1.6179   -2.0740   -1.4707 H   0  0  0  0  0  0  0  0  0  0  0  0
    1.1319    0.8195   -1.3208 H   0  0  0  0  0  0  0  0  0  0  0  0
   -1.7636   -4.0914   -0.5376 H   0  0  0  0  0  0  0  0  0  0  0  0
   -1.7451    2.3141   -2.4200 H   0  0  0  0  0  0  0  0  0  0  0  0
    0.4306    5.4520   -0.8663 H   0  0  0  0  0  0  0  0  0  0  0  0
    1.2093    1.1676    1.6838 H   0  0  0  0  0  0  0  0  0  0  0  0
    0.2250    2.2515    2.6646 H   0  0  0  0  0  0  0  0  0  0  0  0
   -0.4911    0.8166    1.9430 H   0  0  0  0  0  0  0  0  0  0  0  0
   -5.4473   -0.2932    1.2606 Cl  0  0  0  0  0  0  0  0  0  0  0  0
 14 10  1  0
 11 10  1  0
 11 12  2  0
 15 12  1  0
 10  9  2  0
 12 13  1  0
  9  1  1  0
  9  8  1  0
 13  8  2  0
  1 17  3  0
  8 16  1  0
 27 28  1  0
 27 26  2  0
 28 29  2  0
 16 18  1  0
 32 29  1  0
 26  7  1  0
 29 30  1  0
  2 18  1  0
 18 19  1  0
  7 30  2  0
  7 20  1  0
 30 31  1  0
 19 20  1  0
 19 23  2  0
 20 21  1  0
 23 22  1  0
 21 25  2  0
 21  3  1  0
 22  3  1  0
 22 24  2  0
  3  4  2  0
 24  6  1  0
  4 50  1  0
  4  5  1  0
  6  5  2  0
  2 33  1  0
  2 34  1  0
  2 35  1  0
  5 36  1  0
  6 37  1  0
 14 38  1  0
 14 39  1  0
 15 40  1  0
 15 41  1  0
 16 42  1  0
 18 43  1  1
 24 44  1  0
 26 45  1  0
 28 46  1  0
 31 47  1  0
 31 48  1  0
 31 49  1  0
M  END
