
     RDKit          3D

 17 17  0  0  0  0  0  0  0  0999 V2000
    2.7474    0.5188   -0.0127 As  0  0  0  0  0  0  0  0  0  0  0  0
    0.9561   -0.2412    0.0482 C   0  0  0  0  0  0  0  0  0  0  0  0
   -0.1251    0.6117    0.0312 C   0  0  0  0  0  0  0  0  0  0  0  0
    0.7062   -1.6217    0.1038 C   0  0  0  0  0  0  0  0  0  0  0  0
   -0.5735   -2.1213    0.1427 C   0  0  0  0  0  0  0  0  0  0  0  0
   -1.6840   -1.2678    0.1310 C   0  0  0  0  0  0  0  0  0  0  0  0
   -2.8804   -1.8304    0.1733 O   0  0  0  0  0  0  0  0  0  0  0  0
   -1.4325    0.1154    0.0747 C   0  0  0  0  0  0  0  0  0  0  0  0
   -2.5150    1.0590    0.0587 N   0  0  0  0  0  0  0  0  0  0  0  0
   -2.2711    2.2374    0.0084 O   0  0  0  0  0  0  0  0  0  0  0  0
   -3.6591    0.6258    0.0977 O   0  0  0  0  0  0  0  0  0  0  0  0
    3.2558   -0.1423    1.2411 H   0  0  0  0  0  0  0  0  0  0  0  0
    3.3412   -0.5439   -0.8966 H   0  0  0  0  0  0  0  0  0  0  0  0
    0.0212    1.6825   -0.0162 H   0  0  0  0  0  0  0  0  0  0  0  0
    1.5309   -2.3227    0.1164 H   0  0  0  0  0  0  0  0  0  0  0  0
   -0.7445   -3.1893    0.1836 H   0  0  0  0  0  0  0  0  0  0  0  0
   -3.5621   -1.1332    0.1590 H   0  0  0  0  0  0  0  0  0  0  0  0
  5  4  1  0
  5  6  2  0
  4  2  2  0
  7  6  1  0
  6  8  1  0
  2  1  1  0
  2  3  1  0
 11  9  2  0
  8  3  2  0
  8  9  1  0
  9 10  1  0
  1 12  1  0
  1 13  1  0
  3 14  1  0
  4 15  1  0
  5 16  1  0
  7 17  1  0
M  CHG  2   9   1  10  -1
M  END
