
     RDKit          3D

 48 50  0  0  0  0  0  0  0  0999 V2000
    7.9488    2.1406    0.8075 P   0  0  1  0  0  0  0  0  0  0  0  0
    8.4260    2.1923   -0.6094 O   0  0  0  0  0  0  0  0  0  0  0  0
    8.2566    0.7168    1.4116 O   0  0  0  0  0  0  0  0  0  0  0  0
    8.6959    3.2451    1.6585 O   0  0  0  0  0  0  0  0  0  0  0  0
    5.5237    1.5873   -0.3837 P   0  0  2  0  0  0  0  0  0  0  0  0
    6.2712    0.3242   -0.6630 O   0  0  0  0  0  0  0  0  0  0  0  0
    5.4934    2.4656   -1.6688 O   0  0  0  0  0  0  0  0  0  0  0  0
    6.2809    2.4282    0.8541 N   0  0  0  0  0  0  0  0  0  0  0  0
    2.9724    0.9665   -1.0739 P   0  0  1  0  0  0  0  0  0  0  0  0
    2.4505    2.2353   -1.6318 O   0  0  0  0  0  0  0  0  0  0  0  0
    3.6237    0.0437   -2.1083 O   0  0  0  0  0  0  0  0  0  0  0  0
    4.0657    1.2417    0.0423 O   0  0  0  0  0  0  0  0  0  0  0  0
    1.7862    0.2425   -0.3161 O   0  0  0  0  0  0  0  0  0  0  0  0
    0.4525    0.2170   -0.8635 C   0  0  0  0  0  0  0  0  0  0  0  0
   -0.4374   -0.5738    0.0630 C   0  0  1  0  0  0  0  0  0  0  0  0
   -1.7521    0.0068    0.0769 O   0  0  0  0  0  0  0  0  0  0  0  0
   -0.6318   -2.0447   -0.3123 C   0  0  1  0  0  0  0  0  0  0  0  0
    0.1792   -2.8881    0.4977 O   0  0  0  0  0  0  0  0  0  0  0  0
   -2.1353   -2.3050   -0.0877 C   0  0  1  0  0  0  0  0  0  0  0  0
   -2.3606   -3.3834    0.8135 O   0  0  0  0  0  0  0  0  0  0  0  0
   -2.6489   -0.9901    0.5035 C   0  0  2  0  0  0  0  0  0  0  0  0
   -3.9915   -0.6231    0.0658 N   0  0  0  0  0  0  0  0  0  0  0  0
   -4.3555   -0.1183   -1.1553 C   0  0  0  0  0  0  0  0  0  0  0  0
   -5.6396    0.1221   -1.2722 N   0  0  0  0  0  0  0  0  0  0  0  0
   -6.1568   -0.2511   -0.0407 C   0  0  0  0  0  0  0  0  0  0  0  0
   -7.4650   -0.2413    0.4807 C   0  0  0  0  0  0  0  0  0  0  0  0
   -8.5339    0.1745   -0.2025 N   0  0  0  0  0  0  0  0  0  0  0  0
   -7.6384   -0.6805    1.7484 N   0  0  0  0  0  0  0  0  0  0  0  0
   -6.5725   -1.0980    2.4382 C   0  0  0  0  0  0  0  0  0  0  0  0
   -5.2954   -1.1517    2.0502 N   0  0  0  0  0  0  0  0  0  0  0  0
   -5.1533   -0.7119    0.7934 C   0  0  0  0  0  0  0  0  0  0  0  0
    8.6867    0.8098    2.1840 H   0  0  0  0  0  0  0  0  0  0  0  0
    9.5333    3.3005    1.3971 H   0  0  0  0  0  0  0  0  0  0  0  0
    6.3225    2.6518   -1.9197 H   0  0  0  0  0  0  0  0  0  0  0  0
    6.1240    3.3171    0.7566 H   0  0  0  0  0  0  0  0  0  0  0  0
    3.3515    0.2712   -2.9201 H   0  0  0  0  0  0  0  0  0  0  0  0
    0.4680   -0.2008   -1.7421 H   0  0  0  0  0  0  0  0  0  0  0  0
    0.1127    1.1329   -0.9423 H   0  0  0  0  0  0  0  0  0  0  0  0
   -0.0982   -0.5295    0.9802 H   0  0  0  0  0  0  0  0  0  0  0  0
   -0.4206   -2.1568   -1.2420 H   0  0  0  0  0  0  0  0  0  0  0  0
    0.4548   -3.5814    0.0198 H   0  0  0  0  0  0  0  0  0  0  0  0
   -2.5755   -2.4547   -0.9334 H   0  0  0  0  0  0  0  0  0  0  0  0
   -2.7215   -4.0664    0.3752 H   0  0  0  0  0  0  0  0  0  0  0  0
   -2.6199   -1.0638    1.4703 H   0  0  0  0  0  0  0  0  0  0  0  0
   -3.7291    0.0439   -1.8590 H   0  0  0  0  0  0  0  0  0  0  0  0
   -8.4384    0.4801   -1.0693 H   0  0  0  0  0  0  0  0  0  0  0  0
   -9.3606    0.1568    0.1868 H   0  0  0  0  0  0  0  0  0  0  0  0
   -6.7501   -1.4029    3.3428 H   0  0  0  0  0  0  0  0  0  0  0  0
  1  2  2  0
  1  3  1  1
  1  4  1  0
  1  8  1  0
  3 32  1  0
  4 33  1  0
  5  6  2  0
  5  7  1  6
  5  8  1  0
  5 12  1  0
  7 34  1  0
  8 35  1  0
  9 10  2  0
  9 11  1  6
  9 12  1  0
  9 13  1  0
 11 36  1  0
 13 14  1  0
 14 15  1  0
 14 37  1  0
 14 38  1  0
 15 16  1  0
 15 17  1  0
 15 39  1  1
 16 21  1  0
 17 18  1  0
 17 19  1  0
 17 40  1  6
 18 41  1  0
 19 20  1  0
 19 21  1  0
 19 42  1  6
 20 43  1  0
 21 22  1  0
 21 44  1  1
 22 23  1  0
 22 31  1  0
 23 24  2  0
 23 45  1  0
 24 25  1  0
 25 26  1  0
 25 31  2  0
 26 27  1  0
 26 28  2  0
 27 46  1  0
 27 47  1  0
 28 29  1  0
 29 30  2  0
 29 48  1  0
 30 31  1  0
M  END
