
     RDKit          3D

 56 59  0  0  0  0  0  0  0  0999 V2000
   -7.7560   -3.4642    0.4608 O   0  0  0  0  0  0  0  0  0  0  0  0
   -8.0744   -2.2545    0.0156 C   0  0  0  0  0  0  0  0  0  0  0  0
   -9.2101   -1.8726   -0.1152 O   0  0  0  0  0  0  0  0  0  0  0  0
   -6.8408   -1.4137   -0.2893 C   0  0  1  0  0  0  0  0  0  0  0  0
   -7.1097   -0.2639   -1.1130 N   0  0  0  0  0  0  0  0  0  0  0  0
   -6.1949   -0.9794    1.0406 C   0  0  0  0  0  0  0  0  0  0  0  0
   -4.8809   -0.2909    0.8182 C   0  0  0  0  0  0  0  0  0  0  0  0
   -4.7755    1.0962    0.8402 C   0  0  0  0  0  0  0  0  0  0  0  0
   -3.5574    1.7217    0.6280 C   0  0  0  0  0  0  0  0  0  0  0  0
   -2.4097    0.9716    0.3761 C   0  0  0  0  0  0  0  0  0  0  0  0
   -2.5131   -0.4191    0.3466 C   0  0  0  0  0  0  0  0  0  0  0  0
   -3.7313   -1.0374    0.5681 C   0  0  0  0  0  0  0  0  0  0  0  0
   -1.1057    1.6334    0.1526 C   0  0  0  0  0  0  0  0  0  0  0  0
   -0.0764    0.8582   -0.1424 N   0  0  0  0  0  0  0  0  0  0  0  0
    1.0865    1.5051   -0.3282 C   0  0  0  0  0  0  0  0  0  0  0  0
    1.2490    2.8213   -0.2404 N   0  0  0  0  0  0  0  0  0  0  0  0
    0.1408    3.4998    0.0576 C   0  0  0  0  0  0  0  0  0  0  0  0
    0.2363    4.8272    0.1596 N   0  0  0  0  0  0  0  0  0  0  0  0
   -1.0653    2.9535    0.2654 N   0  0  0  0  0  0  0  0  0  0  0  0
    2.1485    0.7436   -0.6145 N   0  0  0  0  0  0  0  0  0  0  0  0
    3.4904    1.2516   -0.8512 C   0  0  2  0  0  0  0  0  0  0  0  0
    3.6289    1.8824   -2.2360 C   0  0  0  0  0  0  0  0  0  0  0  0
    4.4764    0.1255   -0.6537 C   0  0  0  0  0  0  0  0  0  0  0  0
    4.4247   -1.0151   -1.4923 C   0  0  0  0  0  0  0  0  0  0  0  0
    5.3086   -2.0445   -1.3336 C   0  0  0  0  0  0  0  0  0  0  0  0
    6.3073   -1.9943   -0.3327 C   0  0  0  0  0  0  0  0  0  0  0  0
    7.2389   -3.0417   -0.1456 C   0  0  0  0  0  0  0  0  0  0  0  0
    8.1930   -2.9585    0.8320 C   0  0  0  0  0  0  0  0  0  0  0  0
    8.2592   -1.8232    1.6670 C   0  0  0  0  0  0  0  0  0  0  0  0
    7.3699   -0.7950    1.5086 C   0  0  0  0  0  0  0  0  0  0  0  0
    6.3722   -0.8533    0.5070 C   0  0  0  0  0  0  0  0  0  0  0  0
    5.4344    0.1907    0.3225 C   0  0  0  0  0  0  0  0  0  0  0  0
   -8.5581   -3.9633    0.6775 H   0  0  0  0  0  0  0  0  0  0  0  0
   -6.1291   -2.0572   -0.8167 H   0  0  0  0  0  0  0  0  0  0  0  0
   -7.4652   -0.5513   -2.0155 H   0  0  0  0  0  0  0  0  0  0  0  0
   -7.8284    0.3121   -0.6920 H   0  0  0  0  0  0  0  0  0  0  0  0
   -6.8840   -0.3143    1.5685 H   0  0  0  0  0  0  0  0  0  0  0  0
   -6.0462   -1.8521    1.6793 H   0  0  0  0  0  0  0  0  0  0  0  0
   -5.6568    1.6957    1.0329 H   0  0  0  0  0  0  0  0  0  0  0  0
   -3.4947    2.8010    0.6547 H   0  0  0  0  0  0  0  0  0  0  0  0
   -1.6323   -1.0169    0.1563 H   0  0  0  0  0  0  0  0  0  0  0  0
   -3.7890   -2.1196    0.5505 H   0  0  0  0  0  0  0  0  0  0  0  0
    1.1115    5.2910   -0.0074 H   0  0  0  0  0  0  0  0  0  0  0  0
   -0.5746    5.3808    0.3714 H   0  0  0  0  0  0  0  0  0  0  0  0
    1.9803   -0.2479   -0.6790 H   0  0  0  0  0  0  0  0  0  0  0  0
    3.6931    2.0193   -0.1012 H   0  0  0  0  0  0  0  0  0  0  0  0
    3.4508    1.1506   -3.0250 H   0  0  0  0  0  0  0  0  0  0  0  0
    2.9159    2.6970   -2.3549 H   0  0  0  0  0  0  0  0  0  0  0  0
    4.6332    2.2863   -2.3667 H   0  0  0  0  0  0  0  0  0  0  0  0
    3.6789   -1.0766   -2.2760 H   0  0  0  0  0  0  0  0  0  0  0  0
    5.2550   -2.9117   -1.9805 H   0  0  0  0  0  0  0  0  0  0  0  0
    7.1878   -3.9130   -0.7876 H   0  0  0  0  0  0  0  0  0  0  0  0
    8.9012   -3.7650    0.9699 H   0  0  0  0  0  0  0  0  0  0  0  0
    9.0185   -1.7695    2.4360 H   0  0  0  0  0  0  0  0  0  0  0  0
    7.4201    0.0765    2.1501 H   0  0  0  0  0  0  0  0  0  0  0  0
    5.4827    1.0563    0.9743 H   0  0  0  0  0  0  0  0  0  0  0  0
  2  1  1  0
  1 33  1  0
  3  2  2  0
  2  4  1  0
  6  4  1  0
  4  5  1  0
  4 34  1  6
  5 35  1  0
  5 36  1  0
  6  7  1  0
  6 37  1  0
  6 38  1  0
 12  7  2  0
  7  8  1  0
  8  9  2  0
  8 39  1  0
 10  9  1  0
  9 40  1  0
 11 10  2  0
 10 13  1  0
 12 11  1  0
 11 41  1  0
 12 42  1  0
 19 13  1  0
 13 14  2  0
 14 15  1  0
 16 15  2  0
 15 20  1  0
 17 16  1  0
 18 17  1  0
 19 17  2  0
 18 43  1  0
 18 44  1  0
 20 21  1  0
 20 45  1  0
 23 21  1  0
 21 22  1  0
 21 46  1  1
 22 47  1  0
 22 48  1  0
 22 49  1  0
 24 23  2  0
 23 32  1  0
 25 24  1  0
 24 50  1  0
 25 26  2  0
 25 51  1  0
 27 26  1  0
 26 31  1  0
 27 28  2  0
 27 52  1  0
 28 29  1  0
 28 53  1  0
 29 30  2  0
 29 54  1  0
 31 30  1  0
 30 55  1  0
 31 32  2  0
 32 56  1  0
M  END
