
     RDKit          3D

 55 58  0  0  0  0  0  0  0  0999 V2000
    5.0802   -0.1529    1.6960 C   0  0  0  0  0  0  0  0  0  0  0  0
    4.6238   -1.3971    2.2813 N   0  0  0  0  0  0  0  0  0  0  0  0
    3.9865   -1.1795    3.5596 C   0  0  0  0  0  0  0  0  0  0  0  0
    3.7551   -2.1085    1.3661 C   0  0  0  0  0  0  0  0  0  0  0  0
    4.4777   -2.4111    0.0638 C   0  0  0  0  0  0  0  0  0  0  0  0
    5.0460   -1.2066   -0.5388 N   0  0  0  0  0  0  0  0  0  0  0  0
    4.2946   -0.4980   -1.8134 S   0  0  1  0  0  0  0  0  0  0  0  0
    5.1632    0.5740   -2.2729 O   0  0  0  0  0  0  0  0  0  0  0  0
    3.9201   -1.5627   -2.7305 O   0  0  0  0  0  0  0  0  0  0  0  0
    2.7938    0.2345   -1.2252 C   0  0  0  0  0  0  0  0  0  0  0  0
    2.7991    1.5412   -0.7584 C   0  0  0  0  0  0  0  0  0  0  0  0
    1.6372    2.0840   -0.2383 C   0  0  0  0  0  0  0  0  0  0  0  0
    0.4594    1.3356   -0.1709 C   0  0  0  0  0  0  0  0  0  0  0  0
    0.4773    0.0273   -0.6612 C   0  0  0  0  0  0  0  0  0  0  0  0
    1.6298   -0.5223   -1.1895 C   0  0  0  0  0  0  0  0  0  0  0  0
   -0.7837    1.8948    0.3843 C   0  0  0  0  0  0  0  0  0  0  0  0
   -0.8523    3.1158    1.0676 C   0  0  0  0  0  0  0  0  0  0  0  0
   -1.9717    3.6005    1.5490 N   0  0  0  0  0  0  0  0  0  0  0  0
   -3.1062    2.9024    1.3883 C   0  0  0  0  0  0  0  0  0  0  0  0
   -3.0457    1.6476    0.7208 C   0  0  0  0  0  0  0  0  0  0  0  0
   -1.9017    1.2002    0.2483 N   0  0  0  0  0  0  0  0  0  0  0  0
   -4.2437    0.7828    0.5308 C   0  0  0  0  0  0  0  0  0  0  0  0
   -5.3543    1.1175    0.9195 O   0  0  0  0  0  0  0  0  0  0  0  0
   -3.9721   -0.3821   -0.0971 N   0  0  0  0  0  0  0  0  0  0  0  0
   -4.8316   -1.4235   -0.4254 C   0  0  0  0  0  0  0  0  0  0  0  0
   -6.1907   -1.4821   -0.1231 C   0  0  0  0  0  0  0  0  0  0  0  0
   -6.9018   -2.6036   -0.5216 C   0  0  0  0  0  0  0  0  0  0  0  0
   -6.2546   -3.6218   -1.2007 C   0  0  0  0  0  0  0  0  0  0  0  0
   -4.9587   -3.5706   -1.4914 N   0  0  0  0  0  0  0  0  0  0  0  0
   -4.2749   -2.5067   -1.1148 C   0  0  0  0  0  0  0  0  0  0  0  0
   -4.2220    3.4412    1.8753 N   0  0  0  0  0  0  0  0  0  0  0  0
    5.8322   -0.4124    0.4027 C   0  0  0  0  0  0  0  0  0  0  0  0
    4.2467    0.5483    1.5143 H   0  0  0  0  0  0  0  0  0  0  0  0
    5.7596    0.3424    2.3937 H   0  0  0  0  0  0  0  0  0  0  0  0
    6.1398    0.5243   -0.0557 H   0  0  0  0  0  0  0  0  0  0  0  0
    6.7419   -0.9794    0.6169 H   0  0  0  0  0  0  0  0  0  0  0  0
    3.0885   -0.5452    3.4952 H   0  0  0  0  0  0  0  0  0  0  0  0
    3.6884   -2.1340    3.9955 H   0  0  0  0  0  0  0  0  0  0  0  0
    4.6846   -0.6997    4.2474 H   0  0  0  0  0  0  0  0  0  0  0  0
    3.4549   -3.0557    1.8201 H   0  0  0  0  0  0  0  0  0  0  0  0
    2.8281   -1.5474    1.1571 H   0  0  0  0  0  0  0  0  0  0  0  0
    5.3059   -3.0984    0.2541 H   0  0  0  0  0  0  0  0  0  0  0  0
    3.8094   -2.9094   -0.6359 H   0  0  0  0  0  0  0  0  0  0  0  0
    3.6931    2.1484   -0.8030 H   0  0  0  0  0  0  0  0  0  0  0  0
    1.6086   -1.5351   -1.5685 H   0  0  0  0  0  0  0  0  0  0  0  0
    1.6668    3.1106    0.0999 H   0  0  0  0  0  0  0  0  0  0  0  0
   -0.4209   -0.5729   -0.6333 H   0  0  0  0  0  0  0  0  0  0  0  0
    0.0333    3.7155    1.2386 H   0  0  0  0  0  0  0  0  0  0  0  0
   -4.1730    4.3269    2.3498 H   0  0  0  0  0  0  0  0  0  0  0  0
   -5.1032    2.9633    1.7973 H   0  0  0  0  0  0  0  0  0  0  0  0
   -3.0014   -0.4969   -0.3612 H   0  0  0  0  0  0  0  0  0  0  0  0
   -6.6889   -0.6860    0.4049 H   0  0  0  0  0  0  0  0  0  0  0  0
   -3.2174   -2.4937   -1.3661 H   0  0  0  0  0  0  0  0  0  0  0  0
   -7.9576   -2.6824   -0.3015 H   0  0  0  0  0  0  0  0  0  0  0  0
   -6.7939   -4.5055   -1.5207 H   0  0  0  0  0  0  0  0  0  0  0  0
  1  2  1  0
  1 32  1  0
  2  3  1  0
  2  4  1  0
  4  5  1  0
  5  6  1  0
  6  7  1  0
  6 32  1  0
  7  8  2  0
  7  9  2  0
  7 10  1  1
 10 11  2  0
 10 15  1  0
 11 12  1  0
 12 13  2  0
 13 14  1  0
 13 16  1  0
 14 15  2  0
 16 17  2  0
 16 21  1  0
 17 18  1  0
 18 19  2  0
 19 20  1  0
 19 31  1  0
 20 21  2  0
 20 22  1  0
 22 23  2  0
 22 24  1  0
 24 25  1  0
 25 26  2  0
 25 30  1  0
 26 27  1  0
 27 28  2  0
 28 29  1  0
 29 30  2  0
  1 33  1  0
  1 34  1  0
 32 35  1  0
 32 36  1  0
  3 37  1  0
  3 38  1  0
  3 39  1  0
  4 40  1  0
  4 41  1  0
  5 42  1  0
  5 43  1  0
 11 44  1  0
 15 45  1  0
 12 46  1  0
 14 47  1  0
 17 48  1  0
 31 49  1  0
 31 50  1  0
 24 51  1  0
 26 52  1  0
 30 53  1  0
 27 54  1  0
 28 55  1  0
M  END
