
     RDKit          3D

 59 62  0  0  0  0  0  0  0  0999 V2000
    4.9650    4.5860    1.6083 C   0  0  0  0  0  0  0  0  0  0  0  0
    5.7018    3.8016   -1.9333 C   0  0  0  0  0  0  0  0  0  0  0  0
    5.6664   -4.3093    0.4303 C   0  0  0  0  0  0  0  0  0  0  0  0
   -4.8109   -0.6599   -1.7291 C   0  0  0  0  0  0  0  0  0  0  0  0
   -4.8157   -1.3530    0.5684 C   0  0  0  0  0  0  0  0  0  0  0  0
   -5.9313    0.1242   -1.5044 C   0  0  0  0  0  0  0  0  0  0  0  0
   -5.9322   -0.5718    0.8127 C   0  0  0  0  0  0  0  0  0  0  0  0
    5.7852    2.5509    0.5486 C   0  0  0  0  0  0  0  0  0  0  0  0
    1.7768   -2.4940   -0.2845 C   0  0  0  0  0  0  0  0  0  0  0  0
    6.7673   -3.5072    0.2218 C   0  0  0  0  0  0  0  0  0  0  0  0
    2.6215   -0.4374    0.3413 C   0  0  0  0  0  0  0  0  0  0  0  0
    5.3584    3.8716    0.4362 C   0  0  0  0  0  0  0  0  0  0  0  0
    4.2725   -2.3544    0.1359 C   0  0  0  0  0  0  0  0  0  0  0  0
    6.1690    1.8481   -0.5861 C   0  0  0  0  0  0  0  0  0  0  0  0
   -6.4806    0.1618   -0.2311 C   0  0  0  0  0  0  0  0  0  0  0  0
    5.4802   -1.6461   -0.0528 C   0  0  0  0  0  0  0  0  0  0  0  0
    0.6345   -1.7537   -0.2611 C   0  0  0  0  0  0  0  0  0  0  0  0
  -10.6108    0.7670   -0.0081 C   0  0  0  0  0  0  0  0  0  0  0  0
   -9.2895    0.0412   -0.1965 C   0  0  0  0  0  0  0  0  0  0  0  0
    6.6700   -2.2007   -0.0165 N   0  0  0  0  0  0  0  0  0  0  0  0
    5.3142    4.5044   -0.8068 C   0  0  0  0  0  0  0  0  0  0  0  0
    4.4113   -3.7130    0.3838 C   0  0  0  0  0  0  0  0  0  0  0  0
    6.1226    2.4820   -1.8227 C   0  0  0  0  0  0  0  0  0  0  0  0
    2.9403   -1.7378    0.0660 C   0  0  0  0  0  0  0  0  0  0  0  0
   -4.2433   -1.4028   -0.6997 C   0  0  0  0  0  0  0  0  0  0  0  0
   -1.7556   -1.4687   -0.5631 C   0  0  0  0  0  0  0  0  0  0  0  0
   -3.0142   -2.2248   -0.9386 C   0  0  0  0  0  0  0  0  0  0  0  0
    6.5893    0.4135   -0.4661 C   0  0  0  0  0  0  0  0  0  0  0  0
    4.6463    5.1625    2.5535 N   0  0  0  0  0  0  0  0  0  0  0  0
   -1.7339   -0.2823   -0.2952 O   0  0  0  0  0  0  0  0  0  0  0  0
   -7.9124    1.5666    1.4716 O   0  0  0  0  0  0  0  0  0  0  0  0
   -7.9686    2.2028   -0.9580 O   0  0  0  0  0  0  0  0  0  0  0  0
    5.3897   -0.3359   -0.2906 O   0  0  0  0  0  0  0  0  0  0  0  0
    0.9423   -0.1156    0.1884 S   0  0  0  0  0  0  0  0  0  0  0  0
    5.6726    4.2810   -2.9020 H   0  0  0  0  0  0  0  0  0  0  0  0
    5.7777   -5.3664    0.6244 H   0  0  0  0  0  0  0  0  0  0  0  0
   -4.3768   -0.6910   -2.7204 H   0  0  0  0  0  0  0  0  0  0  0  0
   -4.3830   -1.9281    1.3775 H   0  0  0  0  0  0  0  0  0  0  0  0
   -6.3607    0.6986   -2.3138 H   0  0  0  0  0  0  0  0  0  0  0  0
   -6.3595   -0.5361    1.8058 H   0  0  0  0  0  0  0  0  0  0  0  0
    5.8223    2.0781    1.5223 H   0  0  0  0  0  0  0  0  0  0  0  0
    1.7872   -3.5375   -0.5677 H   0  0  0  0  0  0  0  0  0  0  0  0
    7.7698   -3.9181    0.2444 H   0  0  0  0  0  0  0  0  0  0  0  0
    3.2736    0.3643    0.6442 H   0  0  0  0  0  0  0  0  0  0  0  0
  -10.7089    1.1690    0.9987 H   0  0  0  0  0  0  0  0  0  0  0  0
  -10.7322    1.5770   -0.7248 H   0  0  0  0  0  0  0  0  0  0  0  0
  -11.4237    0.0595   -0.1644 H   0  0  0  0  0  0  0  0  0  0  0  0
   -9.1723   -0.7779    0.5143 H   0  0  0  0  0  0  0  0  0  0  0  0
   -9.1841   -0.3590   -1.2056 H   0  0  0  0  0  0  0  0  0  0  0  0
    4.9840    5.5313   -0.8841 H   0  0  0  0  0  0  0  0  0  0  0  0
    3.5311   -4.3184    0.5558 H   0  0  0  0  0  0  0  0  0  0  0  0
    6.4196    1.9412   -2.7126 H   0  0  0  0  0  0  0  0  0  0  0  0
   -3.0565   -3.1579   -0.3714 H   0  0  0  0  0  0  0  0  0  0  0  0
   -2.9373   -2.5086   -1.9921 H   0  0  0  0  0  0  0  0  0  0  0  0
    7.1203    0.0840   -1.3620 H   0  0  0  0  0  0  0  0  0  0  0  0
    7.2566    0.2732    0.3872 H   0  0  0  0  0  0  0  0  0  0  0  0
   -0.7041   -3.2056   -0.7797 H   0  0  0  0  0  0  0  0  0  0  0  0
   -0.6316   -2.2234   -0.5579 N   0  0  0  0  0  0  0  0  0  0  0  0
   -7.9143    1.1596    0.0665 S   0  0  1  0  0  0  0  0  0  0  0  0
 29  1  3  0
  3 10  2  0
  3 22  1  0
 10 20  1  0
  1 12  1  0
 31 59  2  0
 22 13  2  0
 20 16  2  0
 18 19  1  0
 12  8  2  0
 12 21  1  0
  8 14  1  0
 59 19  1  1
 16 13  1  0
 16 33  1  0
 59 32  2  0
 59 15  1  0
 13 24  1  0
 21  2  2  0
  6 15  1  0
  6  4  2  0
 14 28  1  0
 14 23  2  0
 33 28  1  0
 24  9  1  0
 24 11  2  0
 15  7  2  0
  2 23  1  0
  9 17  2  0
  4 25  1  0
 11 34  1  0
 17 34  1  0
 17 58  1  0
  7  5  1  0
 25  5  2  0
 25 27  1  0
 58 26  1  0
 26 27  1  0
 26 30  2  0
  2 35  1  0
  3 36  1  0
  4 37  1  0
  5 38  1  0
  6 39  1  0
  7 40  1  0
  8 41  1  0
  9 42  1  0
 10 43  1  0
 11 44  1  0
 18 45  1  0
 18 46  1  0
 18 47  1  0
 19 48  1  0
 19 49  1  0
 21 50  1  0
 22 51  1  0
 23 52  1  0
 27 53  1  0
 27 54  1  0
 28 55  1  0
 28 56  1  0
 58 57  1  0
M  END
