
     RDKit          3D

 52 54  0  0  0  0  0  0  0  0999 V2000
    4.1688   -0.5067    0.4970 C   0  0  0  0  0  0  0  0  0  0  0  0
    2.8846    1.0816   -0.8320 N   0  0  0  0  0  0  0  0  0  0  0  0
    3.4867    3.2362   -0.3998 O   0  0  0  0  0  0  0  0  0  0  0  0
    4.1227    0.4880   -0.5193 C   0  0  0  0  0  0  0  0  0  0  0  0
    1.3803    2.8147   -1.0883 N   0  0  0  0  0  0  0  0  0  0  0  0
    0.0560    1.9245    1.0944 O   0  0  0  0  0  0  0  0  0  0  0  0
    5.4057   -1.1556    0.7580 C   0  0  0  0  0  0  0  0  0  0  0  0
    0.3519    1.9194   -1.1445 N   0  0  0  0  0  0  0  0  0  0  0  0
   -5.0268    0.8380    1.9865 O   0  0  0  0  0  0  0  0  0  0  0  0
    3.0341   -0.8733    1.2596 C   0  0  0  0  0  0  0  0  0  0  0  0
   -4.4265   -0.1904    1.7973 N   0  0  0  0  0  0  0  0  0  0  0  0
   -4.4741   -1.1594    2.5147 O   0  0  0  0  0  0  0  0  0  0  0  0
    5.2597    0.8374   -1.1989 C   0  0  0  0  0  0  0  0  0  0  0  0
    6.5605   -0.7680    0.0404 C   0  0  0  0  0  0  0  0  0  0  0  0
    5.4560   -2.1692    1.7442 C   0  0  0  0  0  0  0  0  0  0  0  0
    3.1175   -1.8531    2.2113 C   0  0  0  0  0  0  0  0  0  0  0  0
    6.4882    0.2158   -0.9066 C   0  0  0  0  0  0  0  0  0  0  0  0
    2.6523    2.4147   -0.7327 C   0  0  0  0  0  0  0  0  0  0  0  0
    4.3382   -2.5160    2.4514 C   0  0  0  0  0  0  0  0  0  0  0  0
   -0.3003    1.5517   -0.0044 C   0  0  0  0  0  0  0  0  0  0  0  0
   -1.4607    0.6406   -0.2007 C   0  0  0  0  0  0  0  0  0  0  0  0
   -2.4397    0.6139    0.7793 C   0  0  0  0  0  0  0  0  0  0  0  0
   -1.5979   -0.2088   -1.2906 C   0  0  0  0  0  0  0  0  0  0  0  0
   -3.5209   -0.2386    0.6500 C   0  0  0  0  0  0  0  0  0  0  0  0
   -2.7043   -1.0319   -1.4026 C   0  0  0  0  0  0  0  0  0  0  0  0
   -3.7264   -1.0782   -0.4504 C   0  0  0  0  0  0  0  0  0  0  0  0
   -4.9302   -2.0021   -0.6740 C   0  0  1  0  0  0  0  0  0  0  0  0
   -6.2507   -1.4050   -0.1605 C   0  0  0  0  0  0  0  0  0  0  0  0
   -5.1339   -2.2643   -2.1744 C   0  0  0  0  0  0  0  0  0  0  0  0
   -4.6549   -3.3500    0.0081 C   0  0  0  0  0  0  0  0  0  0  0  0
    2.1281    0.4740   -1.1080 H   0  0  0  0  0  0  0  0  0  0  0  0
    1.1360    3.7569   -0.8126 H   0  0  0  0  0  0  0  0  0  0  0  0
   -0.0786    1.8010   -2.0496 H   0  0  0  0  0  0  0  0  0  0  0  0
    2.0928   -0.3624    1.1061 H   0  0  0  0  0  0  0  0  0  0  0  0
    5.2128    1.5827   -1.9810 H   0  0  0  0  0  0  0  0  0  0  0  0
    7.5016   -1.2614    0.2502 H   0  0  0  0  0  0  0  0  0  0  0  0
    6.3997   -2.6674    1.9317 H   0  0  0  0  0  0  0  0  0  0  0  0
    2.2419   -2.1175    2.7898 H   0  0  0  0  0  0  0  0  0  0  0  0
    7.3726    0.5103   -1.4560 H   0  0  0  0  0  0  0  0  0  0  0  0
    4.3876   -3.2929    3.2027 H   0  0  0  0  0  0  0  0  0  0  0  0
   -2.3524    1.2500    1.6507 H   0  0  0  0  0  0  0  0  0  0  0  0
   -0.8432   -0.2620   -2.0644 H   0  0  0  0  0  0  0  0  0  0  0  0
   -2.7602   -1.6600   -2.2782 H   0  0  0  0  0  0  0  0  0  0  0  0
   -6.3848   -0.3724   -0.4858 H   0  0  0  0  0  0  0  0  0  0  0  0
   -7.0787   -1.9810   -0.5743 H   0  0  0  0  0  0  0  0  0  0  0  0
   -6.3701   -1.4569    0.9190 H   0  0  0  0  0  0  0  0  0  0  0  0
   -4.3163   -2.8245   -2.6256 H   0  0  0  0  0  0  0  0  0  0  0  0
   -6.0326   -2.8673   -2.3055 H   0  0  0  0  0  0  0  0  0  0  0  0
   -5.2682   -1.3379   -2.7350 H   0  0  0  0  0  0  0  0  0  0  0  0
   -4.5068   -3.2454    1.0810 H   0  0  0  0  0  0  0  0  0  0  0  0
   -5.5004   -4.0219   -0.1504 H   0  0  0  0  0  0  0  0  0  0  0  0
   -3.7659   -3.8255   -0.4099 H   0  0  0  0  0  0  0  0  0  0  0  0
  3 18  2  0
 18  5  1  0
 18  2  1  0
 17 14  2  0
 17 13  1  0
 14  7  1  0
 13  4  2  0
  5  8  1  0
  7 15  2  0
  7  1  1  0
 15 19  1  0
  4  1  1  0
  4  2  1  0
  1 10  2  0
 19 16  2  0
 10 16  1  0
  8 20  1  0
  6 20  2  0
 20 21  1  0
 21 22  2  0
 21 23  1  0
 22 24  1  0
 12 11  1  0
 23 25  2  0
 24 11  1  0
 24 26  2  0
 11  9  2  0
 25 26  1  0
 26 27  1  0
 27 29  1  6
 27 30  1  0
 27 28  1  0
  2 31  1  0
  5 32  1  0
  8 33  1  0
 10 34  1  0
 13 35  1  0
 14 36  1  0
 15 37  1  0
 16 38  1  0
 17 39  1  0
 19 40  1  0
 22 41  1  0
 23 42  1  0
 25 43  1  0
 28 44  1  0
 28 45  1  0
 28 46  1  0
 29 47  1  0
 29 48  1  0
 29 49  1  0
 30 50  1  0
 30 51  1  0
 30 52  1  0
M  CHG  2  11   1  12  -1
M  END
