
     RDKit          3D

 34 36  0  0  0  0  0  0  0  0999 V2000
   -0.9583    1.7817   -0.5329 C   0  0  0  0  0  0  0  0  0  0  0  0
   -2.1158    1.7166    0.2442 C   0  0  0  0  0  0  0  0  0  0  0  0
   -0.4212    3.0369   -0.8268 C   0  0  0  0  0  0  0  0  0  0  0  0
   -2.7164    2.8750    0.7232 C   0  0  0  0  0  0  0  0  0  0  0  0
   -1.0168    4.1960   -0.3450 C   0  0  0  0  0  0  0  0  0  0  0  0
   -2.1676    4.1165    0.4292 C   0  0  0  0  0  0  0  0  0  0  0  0
   -0.0341   -0.0061   -1.2955 Sn  0  0  0  0  0  0  0  0  0  0  0  0
    1.9868   -0.0801   -0.5579 C   0  0  0  0  0  0  0  0  0  0  0  0
    4.1375   -1.1886   -0.4381 C   0  0  0  0  0  0  0  0  0  0  0  0
    4.6194   -0.1836    0.3910 C   0  0  0  0  0  0  0  0  0  0  0  0
    2.8323   -1.1336   -0.9117 C   0  0  0  0  0  0  0  0  0  0  0  0
    3.7918    0.8741    0.7446 C   0  0  0  0  0  0  0  0  0  0  0  0
    2.4854    0.9253    0.2721 C   0  0  0  0  0  0  0  0  0  0  0  0
   -1.0887   -1.7087   -0.5071 C   0  0  0  0  0  0  0  0  0  0  0  0
   -1.1110   -3.7473    0.7997 C   0  0  0  0  0  0  0  0  0  0  0  0
   -0.4320   -2.6456    0.2927 C   0  0  0  0  0  0  0  0  0  0  0  0
   -2.4575   -3.9287    0.5115 C   0  0  0  0  0  0  0  0  0  0  0  0
   -3.1215   -3.0077   -0.2889 C   0  0  0  0  0  0  0  0  0  0  0  0
   -2.4397   -1.9092   -0.7979 C   0  0  0  0  0  0  0  0  0  0  0  0
   -2.5598    0.7585    0.4895 H   0  0  0  0  0  0  0  0  0  0  0  0
    0.4709    3.1247   -1.4368 H   0  0  0  0  0  0  0  0  0  0  0  0
   -3.6123    2.8067    1.3274 H   0  0  0  0  0  0  0  0  0  0  0  0
   -0.5838    5.1611   -0.5757 H   0  0  0  0  0  0  0  0  0  0  0  0
   -2.6360    5.0195    0.7992 H   0  0  0  0  0  0  0  0  0  0  0  0
    4.7794   -2.0140   -0.7198 H   0  0  0  0  0  0  0  0  0  0  0  0
    5.6367   -0.2243    0.7586 H   0  0  0  0  0  0  0  0  0  0  0  0
    2.4806   -1.9272   -1.5619 H   0  0  0  0  0  0  0  0  0  0  0  0
    4.1621    1.6610    1.3897 H   0  0  0  0  0  0  0  0  0  0  0  0
    1.8577    1.7585    0.5677 H   0  0  0  0  0  0  0  0  0  0  0  0
   -0.5877   -4.4632    1.4211 H   0  0  0  0  0  0  0  0  0  0  0  0
    0.6177   -2.5219    0.5345 H   0  0  0  0  0  0  0  0  0  0  0  0
   -2.9870   -4.7859    0.9072 H   0  0  0  0  0  0  0  0  0  0  0  0
   -4.1702   -3.1456   -0.5203 H   0  0  0  0  0  0  0  0  0  0  0  0
   -2.9774   -1.2082   -1.4266 H   0  0  0  0  0  0  0  0  0  0  0  0
  1  2  2  0
  1  3  1  0
  1  7  1  0
  2  4  1  0
  3  5  2  0
  4  6  2  0
  5  6  1  0
  7  8  1  0
  7 14  1  0
  8 11  2  0
  8 13  1  0
  9 10  2  0
  9 11  1  0
 10 12  1  0
 12 13  2  0
 14 16  1  0
 14 19  2  0
 15 16  2  0
 15 17  1  0
 17 18  2  0
 18 19  1  0
  2 20  1  0
  3 21  1  0
  4 22  1  0
  5 23  1  0
  6 24  1  0
  9 25  1  0
 10 26  1  0
 11 27  1  0
 12 28  1  0
 13 29  1  0
 15 30  1  0
 16 31  1  0
 17 32  1  0
 18 33  1  0
 19 34  1  0
M  CHG  1   7   1
M  END
