
     RDKit          3D

 11 10  0  0  0  0  0  0  0  0999 V2000
   -1.1387   -0.5903   -0.9561 N   0  0  0  0  0  0  0  0  0  0  0  0
    0.0377    0.1234   -0.0209 P   0  0  1  0  0  0  0  0  0  0  0  0
    1.5006   -0.4935   -0.3603 O   0  0  0  0  0  0  0  0  0  0  0  0
    0.1107    1.5979   -0.2105 O   0  0  0  0  0  0  0  0  0  0  0  0
   -0.3414   -0.4424    1.6432 C   0  0  0  0  0  0  0  0  0  0  0  0
   -1.3031   -1.5792   -0.8259 H   0  0  0  0  0  0  0  0  0  0  0  0
   -1.1252   -0.3565   -1.9398 H   0  0  0  0  0  0  0  0  0  0  0  0
    1.5576   -1.4561   -0.3203 H   0  0  0  0  0  0  0  0  0  0  0  0
    0.4215   -0.0832    2.3331 H   0  0  0  0  0  0  0  0  0  0  0  0
   -1.3076   -0.0512    1.9570 H   0  0  0  0  0  0  0  0  0  0  0  0
   -0.3719   -1.5304    1.7025 H   0  0  0  0  0  0  0  0  0  0  0  0
  1  2  1  0
  1  6  1  0
  1  7  1  0
  2  3  1  6
  2  4  2  0
  2  5  1  0
  3  8  1  0
  5  9  1  0
  5 10  1  0
  5 11  1  0
M  END
