
     RDKit          3D

 63 67  0  0  0  0  0  0  0  0999 V2000
   -0.6878   -1.0292    0.5293 O   0  0  0  0  0  0  0  0  0  0  0  0
    0.1188    4.8896    1.6274 C   0  0  0  0  0  0  0  0  0  0  0  0
    0.0185    1.6814   -0.0870 C   0  0  0  0  0  0  0  0  0  0  0  0
    1.8667   -0.3364   -3.4573 O   0  0  0  0  0  0  0  0  0  0  0  0
   -1.4204   -0.0998    0.8031 C   0  0  0  0  0  0  0  0  0  0  0  0
   -3.5873   -0.4723   -0.7147 N   0  0  0  0  0  0  0  0  0  0  0  0
   -2.7476   -0.2964    1.5084 C   0  0  0  0  0  0  0  0  0  0  0  0
   -3.8684   -0.5294    0.5356 C   0  0  0  0  0  0  0  0  0  0  0  0
   -4.5603   -0.6723   -1.6075 N   0  0  0  0  0  0  0  0  0  0  0  0
   -5.2074   -0.8009    1.0103 C   0  0  0  0  0  0  0  0  0  0  0  0
   -6.2126   -1.0017    0.0549 C   0  0  0  0  0  0  0  0  0  0  0  0
   -7.5244   -1.2604    0.4525 C   0  0  0  0  0  0  0  0  0  0  0  0
   -7.8335   -1.3193    1.7952 C   0  0  0  0  0  0  0  0  0  0  0  0
    3.7655   -0.4667   -1.8333 N   0  0  0  0  0  0  0  0  0  0  0  0
   -6.8362   -1.1221    2.7529 C   0  0  0  0  0  0  0  0  0  0  0  0
   -5.5362   -0.8658    2.3694 C   0  0  0  0  0  0  0  0  0  0  0  0
   -5.8761   -0.9365   -1.3675 C   0  0  0  0  0  0  0  0  0  0  0  0
    3.6768    1.4008   -3.4889 O   0  0  0  0  0  0  0  0  0  0  0  0
    3.1221   -1.5448   -1.0777 C   0  0  0  0  0  0  0  0  0  0  0  0
    2.9906   -1.2738    0.4176 C   0  0  0  0  0  0  0  0  0  0  0  0
    4.2175   -1.5792    1.2409 C   0  0  0  0  0  0  0  0  0  0  0  0
    4.0276   -2.0585    2.5376 C   0  0  0  0  0  0  0  0  0  0  0  0
    5.0927   -2.3587    3.3711 C   0  0  0  0  0  0  0  0  0  0  0  0
    6.3885   -2.1828    2.9074 C   0  0  0  0  0  0  0  0  0  0  0  0
    6.5899   -1.7066    1.6221 C   0  0  0  0  0  0  0  0  0  0  0  0
    5.5252   -1.4002    0.7732 C   0  0  0  0  0  0  0  0  0  0  0  0
    5.8623   -0.8978   -0.6113 C   0  0  0  0  0  0  0  0  0  0  0  0
    4.9303    0.1537   -1.2005 C   0  0  0  0  0  0  0  0  0  0  0  0
    1.8686    1.5055   -1.6065 C   0  0  0  0  0  0  0  0  0  0  0  0
    0.7002    0.9784   -1.0632 C   0  0  0  0  0  0  0  0  0  0  0  0
    0.4903    2.9516    0.3075 C   0  0  0  0  0  0  0  0  0  0  0  0
   -0.2437    3.5764    1.2330 O   0  0  0  0  0  0  0  0  0  0  0  0
    1.6430    3.4728   -0.2668 C   0  0  0  0  0  0  0  0  0  0  0  0
    2.3455    2.7440   -1.2150 C   0  0  0  0  0  0  0  0  0  0  0  0
   -1.1420    1.1988    0.5214 N   0  0  0  0  0  0  0  0  0  0  0  0
   -6.6702   -1.0981   -2.2821 O   0  0  0  0  0  0  0  0  0  0  0  0
   -0.6311    5.2107    2.3446 H   0  0  0  0  0  0  0  0  0  0  0  0
    1.0997    4.9085    2.1066 H   0  0  0  0  0  0  0  0  0  0  0  0
    0.1204    5.5764    0.7786 H   0  0  0  0  0  0  0  0  0  0  0  0
   -2.6515   -1.1577    2.1729 H   0  0  0  0  0  0  0  0  0  0  0  0
   -2.9867    0.5610    2.1438 H   0  0  0  0  0  0  0  0  0  0  0  0
   -4.2572   -0.6099   -2.5697 H   0  0  0  0  0  0  0  0  0  0  0  0
   -8.2915   -1.4116   -0.2945 H   0  0  0  0  0  0  0  0  0  0  0  0
   -8.8492   -1.5194    2.1083 H   0  0  0  0  0  0  0  0  0  0  0  0
   -7.0835   -1.1713    3.8049 H   0  0  0  0  0  0  0  0  0  0  0  0
   -4.7775   -0.7178    3.1258 H   0  0  0  0  0  0  0  0  0  0  0  0
    2.1396   -1.7373   -1.5031 H   0  0  0  0  0  0  0  0  0  0  0  0
    3.6931   -2.4614   -1.2426 H   0  0  0  0  0  0  0  0  0  0  0  0
    2.6713   -0.2409    0.5838 H   0  0  0  0  0  0  0  0  0  0  0  0
    2.1653   -1.8832    0.7895 H   0  0  0  0  0  0  0  0  0  0  0  0
    3.0154   -2.2048    2.8969 H   0  0  0  0  0  0  0  0  0  0  0  0
    4.9100   -2.7304    4.3711 H   0  0  0  0  0  0  0  0  0  0  0  0
    7.2367   -2.4095    3.5405 H   0  0  0  0  0  0  0  0  0  0  0  0
    7.6026   -1.5623    1.2634 H   0  0  0  0  0  0  0  0  0  0  0  0
    6.8561   -0.4490   -0.5696 H   0  0  0  0  0  0  0  0  0  0  0  0
    5.9518   -1.7306   -1.3152 H   0  0  0  0  0  0  0  0  0  0  0  0
    5.4781    0.7073   -1.9591 H   0  0  0  0  0  0  0  0  0  0  0  0
    4.6438    0.8691   -0.4190 H   0  0  0  0  0  0  0  0  0  0  0  0
    0.3207    0.0253   -1.3974 H   0  0  0  0  0  0  0  0  0  0  0  0
    2.0179    4.4445    0.0225 H   0  0  0  0  0  0  0  0  0  0  0  0
    3.2477    3.1604   -1.6408 H   0  0  0  0  0  0  0  0  0  0  0  0
   -1.7870    1.8918    0.8697 H   0  0  0  0  0  0  0  0  0  0  0  0
    2.7977    0.5189   -2.7374 S   0  0  1  0  0  0  0  0  0  0  0  0
  4 63  2  0
  7  5  1  0
  7  8  1  0
 32  2  1  0
 32 31  1  0
 35  3  1  0
 35  5  1  0
  6  8  2  0
  6  9  1  0
  3 31  1  0
  3 30  2  0
 31 33  2  0
 30 29  1  0
  5  1  2  0
 33 34  1  0
 29 34  2  0
 63 29  1  1
 63 18  2  0
 63 14  1  0
  8 10  1  0
  9 17  1  0
 28 27  1  0
 28 14  1  0
 27 26  1  0
 14 19  1  0
 10 16  1  0
 10 11  2  0
 17 11  1  0
 17 36  2  0
 16 15  2  0
 26 25  2  0
 26 21  1  0
 11 12  1  0
 19 20  1  0
 25 24  1  0
 20 21  1  0
 21 22  2  0
 15 13  1  0
 12 13  2  0
 24 23  2  0
 22 23  1  0
  2 37  1  0
  2 38  1  0
  2 39  1  0
  7 40  1  0
  7 41  1  0
  9 42  1  0
 12 43  1  0
 13 44  1  0
 15 45  1  0
 16 46  1  0
 19 47  1  0
 19 48  1  0
 20 49  1  0
 20 50  1  0
 22 51  1  0
 23 52  1  0
 24 53  1  0
 25 54  1  0
 27 55  1  0
 27 56  1  0
 28 57  1  0
 28 58  1  0
 30 59  1  0
 33 60  1  0
 34 61  1  0
 35 62  1  0
M  END
