
     RDKit          3D

 25 27  0  0  0  0  0  0  0  0999 V2000
    3.2370   -1.1471   -0.4783 C   0  0  0  0  0  0  0  0  0  0  0  0
   -0.1351    2.2607   -0.0847 C   0  0  0  0  0  0  0  0  0  0  0  0
   -2.6324   -1.3959    0.2680 C   0  0  0  0  0  0  0  0  0  0  0  0
   -1.0341    0.1048    0.1100 C   0  0  0  0  0  0  0  0  0  0  0  0
    0.1014    0.8876    0.0604 C   0  0  0  0  0  0  0  0  0  0  0  0
    1.4716    0.3630    0.1768 C   0  0  0  0  0  0  0  0  0  0  0  0
    2.3935    0.9192    1.0605 C   0  0  0  0  0  0  0  0  0  0  0  0
    3.6774    0.4038    1.1256 C   0  0  0  0  0  0  0  0  0  0  0  0
    1.9390   -0.6862   -0.5986 C   0  0  0  0  0  0  0  0  0  0  0  0
   -1.4318    2.7444   -0.1790 C   0  0  0  0  0  0  0  0  0  0  0  0
   -2.3196    0.6896    0.0161 C   0  0  0  0  0  0  0  0  0  0  0  0
    1.1289   -1.2601   -1.4962 F   0  0  0  0  0  0  0  0  0  0  0  0
   -1.2770   -1.2341    0.2741 N   0  0  0  0  0  0  0  0  0  0  0  0
    4.0944   -0.6102    0.3762 N   0  0  0  0  0  0  0  0  0  0  0  0
   -2.5262    1.9848   -0.1320 N   0  0  0  0  0  0  0  0  0  0  0  0
   -3.2875   -0.2680    0.1095 N   0  0  0  0  0  0  0  0  0  0  0  0
    3.5820   -1.9682   -1.0974 H   0  0  0  0  0  0  0  0  0  0  0  0
    0.6950    2.9515   -0.1418 H   0  0  0  0  0  0  0  0  0  0  0  0
    2.1065    1.7411    1.7024 H   0  0  0  0  0  0  0  0  0  0  0  0
    4.3956    0.8274    1.8173 H   0  0  0  0  0  0  0  0  0  0  0  0
   -1.5914    3.8095   -0.3006 H   0  0  0  0  0  0  0  0  0  0  0  0
   -2.6565   -3.4313    0.2968 H   0  0  0  0  0  0  0  0  0  0  0  0
   -4.1803   -2.6755    0.2572 H   0  0  0  0  0  0  0  0  0  0  0  0
   -0.6020   -1.9660    0.4276 H   0  0  0  0  0  0  0  0  0  0  0  0
   -3.1975   -2.5983    0.4580 N   0  0  0  0  0  0  0  0  0  0  0  0
 12  9  1  0
  1  9  2  0
  1 14  1  0
  9  6  1  0
  2 10  2  0
  2  5  1  0
 10 15  1  0
 14  8  2  0
  6  5  1  0
  6  7  2  0
  5  4  2  0
 15 11  2  0
  8  7  1  0
  4 11  1  0
  4 13  1  0
 11 16  1  0
 13  3  1  0
 16  3  2  0
  3 25  1  0
  1 17  1  0
  2 18  1  0
  7 19  1  0
  8 20  1  0
 10 21  1  0
 25 22  1  0
 25 23  1  0
 13 24  1  0
M  END
