
     RDKit          3D

 20 20  0  0  0  0  0  0  0  0999 V2000
   -2.6538    0.6453   -1.3579 O   0  0  0  0  0  0  0  0  0  0  0  0
   -1.2533    0.6453   -1.3579 C   0  0  0  0  0  0  0  0  0  0  0  0
   -0.7891    0.6453   -0.0449 C   0  0  2  0  0  0  0  0  0  0  0  0
    0.8006    0.6312   -0.0228 C   0  0  1  0  0  0  0  0  0  0  0  0
    1.3258    1.9705    0.4581 O   0  0  0  0  0  0  0  0  0  0  0  0
    1.1090   -0.2539    0.7748 C   0  0  2  0  0  0  0  0  0  0  0  0
    2.3511   -0.9267    0.3308 O   0  0  0  0  0  0  0  0  0  0  0  0
   -0.1620   -1.3345    0.7631 C   0  0  2  0  0  0  0  0  0  0  0  0
   -1.2192   -0.6257    0.6649 O   0  0  0  0  0  0  0  0  0  0  0  0
   -2.9682    0.8395   -2.2254 H   0  0  0  0  0  0  0  0  0  0  0  0
   -0.8922   -0.2392   -1.8687 H   0  0  0  0  0  0  0  0  0  0  0  0
   -0.8922    1.5299   -1.8686 H   0  0  0  0  0  0  0  0  0  0  0  0
   -1.1602    1.5122    0.4882 H   0  0  0  0  0  0  0  0  0  0  0  0
    1.1874    0.3998   -1.0079 H   0  0  0  0  0  0  0  0  0  0  0  0
    1.9038    2.3335   -0.1924 H   0  0  0  0  0  0  0  0  0  0  0  0
    1.2352    0.1639    1.7663 H   0  0  0  0  0  0  0  0  0  0  0  0
    2.9476   -0.9970    1.0576 H   0  0  0  0  0  0  0  0  0  0  0  0
   -0.1820   -2.0570    1.9390 O   0  0  0  0  0  0  0  0  0  0  0  0
   -0.0784   -1.9983   -0.0890 H   0  0  0  0  0  0  0  0  0  0  0  0
   -0.6100   -2.8842    1.7925 H   0  0  0  0  0  0  0  0  0  0  0  0
  1  2  1  0
  1 10  1  0
  2 11  1  0
  2 12  1  0
  3  2  1  0
  3 13  1  1
  4  3  1  0
  4  5  1  0
  4 14  1  6
  5 15  1  0
  6  4  1  0
  6 16  1  1
  7  6  1  0
  7 17  1  0
  8  6  1  0
  8  9  1  0
  8 18  1  0
  9  3  1  0
  8 19  1  6
 18 20  1  0
M  END
