
     RDKit          3D

 16 17  0  0  0  0  0  0  0  0999 V2000
   -0.5546    0.5927   -0.0255 C   0  0  0  0  0  0  0  0  0  0  0  0
    0.7715    0.9997   -0.0241 C   0  0  0  0  0  0  0  0  0  0  0  0
    1.7300   -0.0059   -0.0107 C   0  0  0  0  0  0  0  0  0  0  0  0
    1.4116   -1.3610    0.0007 C   0  0  0  0  0  0  0  0  0  0  0  0
    0.0787   -1.7678   -0.0003 C   0  0  0  0  0  0  0  0  0  0  0  0
   -0.8602   -0.7666   -0.0136 C   0  0  0  0  0  0  0  0  0  0  0  0
    3.4068    0.4497   -0.0068 Cl  0  0  0  0  0  0  0  0  0  0  0  0
   -1.7261    1.3189   -0.0314 N   0  0  0  0  0  0  0  0  0  0  0  0
   -2.6545    0.4125   -0.0258 C   0  0  0  0  0  0  0  0  0  0  0  0
   -2.2201   -0.8680   -0.0152 O   0  0  0  0  0  0  0  0  0  0  0  0
   -3.9752    0.5948   -0.0728 N   0  0  0  0  0  0  0  0  0  0  0  0
    1.0436    2.0462   -0.0323 H   0  0  0  0  0  0  0  0  0  0  0  0
    2.1977   -2.1023    0.0109 H   0  0  0  0  0  0  0  0  0  0  0  0
   -0.1848   -2.8165    0.0095 H   0  0  0  0  0  0  0  0  0  0  0  0
   -4.3195    1.5258    0.0923 H   0  0  0  0  0  0  0  0  0  0  0  0
   -4.5907   -0.1584    0.1863 H   0  0  0  0  0  0  0  0  0  0  0  0
  8  1  1  0
  8  9  2  0
  2  1  2  0
  2  3  1  0
  1  6  1  0
 11  9  1  0
  7  3  1  0
  9 10  1  0
  3  4  2  0
  6 10  1  0
  6  5  2  0
  4  5  1  0
  2 12  1  0
  4 13  1  0
  5 14  1  0
 11 15  1  0
 11 16  1  0
M  END
