
     RDKit          3D

 66 69  0  0  0  0  0  0  0  0999 V2000
   -4.9058   -4.8708    0.7395 O   0  0  0  0  0  0  0  0  0  0  0  0
   -4.7724   -3.7384    0.3139 C   0  0  0  0  0  0  0  0  0  0  0  0
   -5.4721   -3.3200   -0.8087 N   0  0  0  0  0  0  0  0  0  0  0  0
   -5.4403   -2.0904   -1.4078 C   0  0  0  0  0  0  0  0  0  0  0  0
   -6.0976   -1.8257   -2.3940 O   0  0  0  0  0  0  0  0  0  0  0  0
   -3.9209   -2.7161    0.8667 C   0  0  0  0  0  0  0  0  0  0  0  0
   -3.8743   -1.5023    0.2914 C   0  0  0  0  0  0  0  0  0  0  0  0
   -4.6100   -1.1689   -0.8052 N   0  0  0  0  0  0  0  0  0  0  0  0
   -4.5540    0.1701   -1.4337 C   0  0  2  0  0  0  0  0  0  0  0  0
   -3.4490    0.8668   -0.9500 O   0  0  0  0  0  0  0  0  0  0  0  0
   -5.7898    1.0053   -1.0935 C   0  0  2  0  0  0  0  0  0  0  0  0
   -6.0079    1.8838   -2.1623 O   0  0  0  0  0  0  0  0  0  0  0  0
   -5.3062    1.7592    0.1499 C   0  0  2  0  0  0  0  0  0  0  0  0
   -5.9676    2.9702    0.3759 O   0  0  0  0  0  0  0  0  0  0  0  0
   -3.8422    2.0103   -0.1899 C   0  0  1  0  0  0  0  0  0  0  0  0
   -2.9535    2.1615    1.0299 C   0  0  0  0  0  0  0  0  0  0  0  0
   -1.5593    2.3059    0.7048 N   0  0  0  0  0  0  0  0  0  0  0  0
   -0.9564    3.4869    0.5281 C   0  0  0  0  0  0  0  0  0  0  0  0
   -1.5133    4.5706    0.6318 O   0  0  0  0  0  0  0  0  0  0  0  0
    0.5075    3.3889    0.1997 C   0  0  0  0  0  0  0  0  0  0  0  0
    1.2641    4.5418    0.0630 C   0  0  0  0  0  0  0  0  0  0  0  0
    2.6121    4.3974   -0.2279 C   0  0  0  0  0  0  0  0  0  0  0  0
    3.1458    3.1281   -0.3737 C   0  0  0  0  0  0  0  0  0  0  0  0
    2.3030    2.0301   -0.2210 C   0  0  0  0  0  0  0  0  0  0  0  0
    1.0172    2.1708    0.0645 N   0  0  0  0  0  0  0  0  0  0  0  0
    2.7716    0.6137   -0.4052 C   0  0  0  0  0  0  0  0  0  0  0  0
    4.1680    0.5546   -0.2586 O   0  0  0  0  0  0  0  0  0  0  0  0
   -6.0889   -3.9956   -1.2431 H   0  0  0  0  0  0  0  0  0  0  0  0
   -3.3183   -2.9311    1.7352 H   0  0  0  0  0  0  0  0  0  0  0  0
   -3.2242   -0.7356    0.6813 H   0  0  0  0  0  0  0  0  0  0  0  0
   -4.4580    0.0117   -2.5093 H   0  0  0  0  0  0  0  0  0  0  0  0
   -6.6699    0.3858   -0.8888 H   0  0  0  0  0  0  0  0  0  0  0  0
   -6.4541    2.6667   -1.8166 H   0  0  0  0  0  0  0  0  0  0  0  0
   -5.3738    1.0948    1.0228 H   0  0  0  0  0  0  0  0  0  0  0  0
   -6.7751    2.7976    0.8705 H   0  0  0  0  0  0  0  0  0  0  0  0
   -3.7526    2.9041   -0.8189 H   0  0  0  0  0  0  0  0  0  0  0  0
   -3.2902    3.0349    1.5889 H   0  0  0  0  0  0  0  0  0  0  0  0
   -3.0653    1.2994    1.6906 H   0  0  0  0  0  0  0  0  0  0  0  0
   -0.9962    1.4802    0.5645 H   0  0  0  0  0  0  0  0  0  0  0  0
    0.8170    5.5177    0.1853 H   0  0  0  0  0  0  0  0  0  0  0  0
    3.2430    5.2688   -0.3415 H   0  0  0  0  0  0  0  0  0  0  0  0
    4.1931    2.9957   -0.6026 H   0  0  0  0  0  0  0  0  0  0  0  0
    2.2586   -0.0305    0.3168 H   0  0  0  0  0  0  0  0  0  0  0  0
    2.4688    0.2737   -1.4060 H   0  0  0  0  0  0  0  0  0  0  0  0
    4.7783   -0.5380   -0.8769 C   0  0  1  0  0  0  0  0  0  0  0  0
    6.2934   -0.3662   -0.7128 C   0  0  1  0  0  0  0  0  0  0  0  0
    6.6846   -0.6366    0.7411 C   0  0  1  0  0  0  0  0  0  0  0  0
    6.1208   -1.9574    1.2614 C   0  0  1  0  0  0  0  0  0  0  0  0
    4.6203   -1.9763    1.0025 C   0  0  1  0  0  0  0  0  0  0  0  0
    4.3320   -1.7563   -0.3698 O   0  0  0  0  0  0  0  0  0  0  0  0
    3.9705   -3.2800    1.4109 C   0  0  0  0  0  0  0  0  0  0  0  0
    2.5721   -3.1218    1.3398 O   0  0  0  0  0  0  0  0  0  0  0  0
    6.7182   -3.0815    0.6701 O   0  0  0  0  0  0  0  0  0  0  0  0
    8.0777   -0.6764    0.9314 O   0  0  0  0  0  0  0  0  0  0  0  0
    6.9793   -1.2490   -1.5624 O   0  0  0  0  0  0  0  0  0  0  0  0
    4.5175   -0.5601   -1.9450 H   0  0  0  0  0  0  0  0  0  0  0  0
    6.5420    0.6776   -0.9530 H   0  0  0  0  0  0  0  0  0  0  0  0
    6.2277    0.1598    1.3453 H   0  0  0  0  0  0  0  0  0  0  0  0
    6.2618   -1.9698    2.3542 H   0  0  0  0  0  0  0  0  0  0  0  0
    4.1835   -1.1783    1.6200 H   0  0  0  0  0  0  0  0  0  0  0  0
    4.3208   -4.0928    0.7641 H   0  0  0  0  0  0  0  0  0  0  0  0
    4.2994   -3.5131    2.4321 H   0  0  0  0  0  0  0  0  0  0  0  0
    2.1662   -3.9533    1.6002 H   0  0  0  0  0  0  0  0  0  0  0  0
    7.6483   -2.8819    0.5205 H   0  0  0  0  0  0  0  0  0  0  0  0
    8.4830    0.0771    0.4902 H   0  0  0  0  0  0  0  0  0  0  0  0
    6.9667   -0.8814   -2.4511 H   0  0  0  0  0  0  0  0  0  0  0  0
 12 11  1  0
 14 13  1  0
 13 11  1  0
 13 15  1  0
 11  9  1  0
 15 16  1  0
 15 10  1  0
 16 17  1  0
 19 18  2  0
 10  9  1  0
  9  8  1  0
 18 17  1  0
 18 20  1  0
  5  4  2  0
 27 26  1  0
  8  4  1  0
  8  7  1  0
  4  3  1  0
 25 20  1  0
 25 24  2  0
 20 21  2  0
  7  6  2  0
 26 24  1  0
 24 23  1  0
  3  2  1  0
 21 22  1  0
  6  2  1  0
  2  1  2  0
 23 22  2  0
  3 28  1  0
  6 29  1  0
  7 30  1  0
  9 31  1  6
 11 32  1  1
 12 33  1  0
 13 34  1  1
 14 35  1  0
 15 36  1  6
 16 37  1  0
 16 38  1  0
 17 39  1  0
 21 40  1  0
 22 41  1  0
 23 42  1  0
 26 43  1  0
 26 44  1  0
 27 45  1  0
 45 46  1  0
 46 47  1  0
 47 48  1  0
 48 49  1  0
 49 50  1  0
 50 45  1  0
 49 51  1  0
 51 52  1  0
 48 53  1  0
 47 54  1  0
 46 55  1  0
 45 56  1  6
 46 57  1  6
 47 58  1  1
 48 59  1  1
 49 60  1  1
 51 61  1  0
 51 62  1  0
 52 63  1  0
 53 64  1  0
 54 65  1  0
 55 66  1  0
M  END
