
     RDKit          3D

 55 55  0  0  0  0  0  0  0  0999 V2000
  -10.0602    2.9397    1.1391 C   0  0  0  0  0  0  0  0  0  0  0  0
   -9.3493    2.2243   -0.0008 C   0  0  0  0  0  0  0  0  0  0  0  0
   -8.8293    0.8443    0.4071 C   0  0  0  0  0  0  0  0  0  0  0  0
   -8.1906    0.1199   -0.7361 C   0  0  0  0  0  0  0  0  0  0  0  0
   -6.9004   -0.1747   -0.8884 C   0  0  0  0  0  0  0  0  0  0  0  0
   -5.7802    0.1139    0.0703 C   0  0  0  0  0  0  0  0  0  0  0  0
   -5.2814   -1.1591    0.6927 C   0  0  0  0  0  0  0  0  0  0  0  0
   -4.1249   -1.7765    0.4576 C   0  0  0  0  0  0  0  0  0  0  0  0
   -3.0203   -1.3478   -0.4558 C   0  0  0  0  0  0  0  0  0  0  0  0
   -1.7082   -1.1141    0.2951 C   0  0  0  0  0  0  0  0  0  0  0  0
   -0.5210   -0.9114   -0.6363 C   0  0  0  0  0  0  0  0  0  0  0  0
    0.7872   -0.6479    0.0994 C   0  0  0  0  0  0  0  0  0  0  0  0
    1.9831   -0.5597   -0.8403 C   0  0  0  0  0  0  0  0  0  0  0  0
    3.2836   -0.1993   -0.1342 C   0  0  0  0  0  0  0  0  0  0  0  0
    4.4755   -0.1723   -1.0960 C   0  0  0  0  0  0  0  0  0  0  0  0
    5.7424    0.3286   -0.4573 C   0  0  0  0  0  0  0  0  0  0  0  0
    6.1572    1.6457   -0.6557 C   0  0  0  0  0  0  0  0  0  0  0  0
    7.2977    2.1362   -0.0422 C   0  0  0  0  0  0  0  0  0  0  0  0
    8.0555    1.3128    0.7801 C   0  0  0  0  0  0  0  0  0  0  0  0
    7.6667   -0.0018    0.9866 C   0  0  0  0  0  0  0  0  0  0  0  0
    8.4199   -0.7905    1.7842 O   0  0  0  0  0  0  0  0  0  0  0  0
    6.5056   -0.4885    0.3724 C   0  0  0  0  0  0  0  0  0  0  0  0
    6.1984   -1.7807    0.6586 O   0  0  0  0  0  0  0  0  0  0  0  0
  -10.4038    3.9294    0.8368 H   0  0  0  0  0  0  0  0  0  0  0  0
  -10.9325    2.3752    1.4739 H   0  0  0  0  0  0  0  0  0  0  0  0
   -9.4006    3.0663    1.9995 H   0  0  0  0  0  0  0  0  0  0  0  0
  -10.0305    2.1189   -0.8501 H   0  0  0  0  0  0  0  0  0  0  0  0
   -8.5105    2.8295   -0.3559 H   0  0  0  0  0  0  0  0  0  0  0  0
   -8.1345    0.9523    1.2429 H   0  0  0  0  0  0  0  0  0  0  0  0
   -9.6692    0.2494    0.7826 H   0  0  0  0  0  0  0  0  0  0  0  0
   -8.8677   -0.1729   -1.5348 H   0  0  0  0  0  0  0  0  0  0  0  0
   -6.6020   -0.7066   -1.7876 H   0  0  0  0  0  0  0  0  0  0  0  0
   -4.9754    0.6250   -0.4627 H   0  0  0  0  0  0  0  0  0  0  0  0
   -6.1092    0.7936    0.8597 H   0  0  0  0  0  0  0  0  0  0  0  0
   -5.9727   -1.6261    1.3886 H   0  0  0  0  0  0  0  0  0  0  0  0
   -3.9372   -2.7034    0.9944 H   0  0  0  0  0  0  0  0  0  0  0  0
   -2.8602   -2.1344   -1.2021 H   0  0  0  0  0  0  0  0  0  0  0  0
   -3.2904   -0.4478   -1.0127 H   0  0  0  0  0  0  0  0  0  0  0  0
   -1.8193   -0.2480    0.9556 H   0  0  0  0  0  0  0  0  0  0  0  0
   -1.5093   -1.9699    0.9493 H   0  0  0  0  0  0  0  0  0  0  0  0
   -0.4091   -1.7991   -1.2693 H   0  0  0  0  0  0  0  0  0  0  0  0
   -0.7235   -0.0787   -1.3187 H   0  0  0  0  0  0  0  0  0  0  0  0
    0.7017    0.2813    0.6736 H   0  0  0  0  0  0  0  0  0  0  0  0
    0.9597   -1.4432    0.8327 H   0  0  0  0  0  0  0  0  0  0  0  0
    2.1006   -1.5157   -1.3625 H   0  0  0  0  0  0  0  0  0  0  0  0
    1.7828    0.1872   -1.6161 H   0  0  0  0  0  0  0  0  0  0  0  0
    3.1856    0.7844    0.3345 H   0  0  0  0  0  0  0  0  0  0  0  0
    3.4699   -0.9082    0.6781 H   0  0  0  0  0  0  0  0  0  0  0  0
    4.6146   -1.1668   -1.5375 H   0  0  0  0  0  0  0  0  0  0  0  0
    4.2304    0.4804   -1.9372 H   0  0  0  0  0  0  0  0  0  0  0  0
    5.5712    2.2866   -1.3029 H   0  0  0  0  0  0  0  0  0  0  0  0
    7.6047    3.1610   -0.2044 H   0  0  0  0  0  0  0  0  0  0  0  0
    8.9539    1.6810    1.2598 H   0  0  0  0  0  0  0  0  0  0  0  0
    8.0669   -1.6879    1.7952 H   0  0  0  0  0  0  0  0  0  0  0  0
    5.5238   -2.1240    0.0636 H   0  0  0  0  0  0  0  0  0  0  0  0
 21 20  1  0
 20 19  2  0
 20 22  1  0
 19 18  1  0
 23 22  1  0
 22 16  2  0
 18 17  2  0
 16 17  1  0
 16 15  1  0
 14 15  1  0
 14 13  1  0
 13 12  1  0
 12 11  1  0
 11 10  1  0
  9 10  1  0
  9  8  1  0
  8  7  2  0
  6  7  1  0
  6  5  1  0
  1  2  1  0
  3  2  1  0
  3  4  1  0
  5  4  2  0
  1 24  1  0
  1 25  1  0
  1 26  1  0
  2 27  1  0
  2 28  1  0
  3 29  1  0
  3 30  1  0
  4 31  1  0
  5 32  1  0
  6 33  1  0
  6 34  1  0
  7 35  1  0
  8 36  1  0
  9 37  1  0
  9 38  1  0
 10 39  1  0
 10 40  1  0
 11 41  1  0
 11 42  1  0
 12 43  1  0
 12 44  1  0
 13 45  1  0
 13 46  1  0
 14 47  1  0
 14 48  1  0
 15 49  1  0
 15 50  1  0
 17 51  1  0
 18 52  1  0
 19 53  1  0
 21 54  1  0
 23 55  1  0
M  END
