
     RDKit          3D

 27 27  0  0  0  0  0  0  0  0999 V2000
    3.8252    0.3821   -0.0506 C   0  0  0  0  0  0  0  0  0  0  0  0
    2.6445   -1.3224   -1.4159 N   0  0  0  0  0  0  0  0  0  0  0  0
    4.9086   -0.1873    0.1068 O   0  0  0  0  0  0  0  0  0  0  0  0
   -4.3859   -0.8084    0.4823 N   0  0  0  0  0  0  0  0  0  0  0  0
   -2.2456    0.3245    0.2773 C   0  0  0  0  0  0  0  0  0  0  0  0
   -2.7057    1.0175   -0.8502 C   0  0  0  0  0  0  0  0  0  0  0  0
   -4.0059    0.7898   -1.3017 C   0  0  0  0  0  0  0  0  0  0  0  0
   -4.8081   -0.1316   -0.6034 C   0  0  0  0  0  0  0  0  0  0  0  0
   -0.8655    0.5422    0.7866 C   0  0  1  0  0  0  0  0  0  0  0  0
   -0.7968    0.9020    2.1461 O   0  0  0  0  0  0  0  0  0  0  0  0
    2.4935   -0.2162   -0.5049 C   0  0  1  0  0  0  0  0  0  0  0  0
    1.6911   -0.5672    0.7521 C   0  0  0  0  0  0  0  0  0  0  0  0
    0.0154   -0.9944    0.4090 S   0  0  0  0  0  0  0  0  0  0  0  0
    3.7823    1.7168    0.2069 O   0  0  0  0  0  0  0  0  0  0  0  0
    3.2281   -1.0682   -2.1884 H   0  0  0  0  0  0  0  0  0  0  0  0
    3.0294   -2.1248   -0.9576 H   0  0  0  0  0  0  0  0  0  0  0  0
   -2.8161   -1.1513    1.8004 H   0  0  0  0  0  0  0  0  0  0  0  0
   -2.0501    1.7308   -1.3712 H   0  0  0  0  0  0  0  0  0  0  0  0
   -4.3993    1.3153   -2.1819 H   0  0  0  0  0  0  0  0  0  0  0  0
   -5.8435   -0.3419   -0.9267 H   0  0  0  0  0  0  0  0  0  0  0  0
   -0.3564    1.3965    0.2586 H   0  0  0  0  0  0  0  0  0  0  0  0
   -0.7803    0.0934    2.6761 H   0  0  0  0  0  0  0  0  0  0  0  0
    1.9499    0.6098   -1.0600 H   0  0  0  0  0  0  0  0  0  0  0  0
    2.1430   -1.4481    1.2736 H   0  0  0  0  0  0  0  0  0  0  0  0
    1.7170    0.3077    1.4523 H   0  0  0  0  0  0  0  0  0  0  0  0
    4.6596    2.0261    0.4891 H   0  0  0  0  0  0  0  0  0  0  0  0
   -3.1303   -0.5796    0.9073 C   0  0  0  0  0  0  0  0  0  0  0  0
  1 11  1  0
  1 14  1  0
  2 11  1  0
  2 15  1  0
  2 16  1  0
  3  1  2  0
 27  4  2  0
 27 17  1  0
  5 27  1  0
  6  5  2  0
  6  7  1  0
  6 18  1  0
  7  8  2  0
  7 19  1  0
  8  4  1  0
  8 20  1  0
  9  5  1  0
  9 21  1  6
 10  9  1  0
 10 22  1  0
 11 12  1  0
 11 23  1  6
 12 13  1  0
 12 24  1  0
 12 25  1  0
 13  9  1  0
 14 26  1  0
M  END
