
     RDKit          3D

 43 44  0  0  0  0  0  0  0  0999 V2000
   -5.1377   -2.0145   -0.8688 C   0  0  0  0  0  0  0  0  0  0  0  0
   -4.8152   -1.0706    0.1751 N   0  0  0  0  0  0  0  0  0  0  0  0
   -5.4233   -1.2566    1.4709 C   0  0  0  0  0  0  0  0  0  0  0  0
   -3.6586   -0.3343    0.0785 C   0  0  0  0  0  0  0  0  0  0  0  0
   -2.9009   -0.3069   -1.1088 C   0  0  0  0  0  0  0  0  0  0  0  0
   -1.7519    0.4564   -1.2031 C   0  0  0  0  0  0  0  0  0  0  0  0
   -3.1805    0.4372    1.1502 C   0  0  0  0  0  0  0  0  0  0  0  0
   -2.0272    1.2007    1.0289 C   0  0  0  0  0  0  0  0  0  0  0  0
   -1.2828    1.2274   -0.1422 C   0  0  0  0  0  0  0  0  0  0  0  0
    0.0039    2.0206   -0.2960 C   0  0  1  0  0  0  0  0  0  0  0  0
    0.2089    3.0954    0.6660 N   0  0  0  0  0  0  0  0  0  0  0  0
    1.2138    1.1099   -0.2848 C   0  0  0  0  0  0  0  0  0  0  0  0
    2.2532    1.2847   -1.1909 C   0  0  0  0  0  0  0  0  0  0  0  0
    3.3888    0.4911   -1.1716 C   0  0  0  0  0  0  0  0  0  0  0  0
    3.5384   -0.5358   -0.2219 C   0  0  0  0  0  0  0  0  0  0  0  0
    2.4923   -0.7000    0.7058 C   0  0  0  0  0  0  0  0  0  0  0  0
    1.3634    0.1003    0.6605 C   0  0  0  0  0  0  0  0  0  0  0  0
    4.6450   -1.3476   -0.2080 N   0  0  0  0  0  0  0  0  0  0  0  0
    4.8492   -2.2433    0.9054 C   0  0  0  0  0  0  0  0  0  0  0  0
    5.7777   -1.0145   -1.0387 C   0  0  0  0  0  0  0  0  0  0  0  0
   -4.3813   -2.7987   -0.9895 H   0  0  0  0  0  0  0  0  0  0  0  0
   -6.0842   -2.4958   -0.6368 H   0  0  0  0  0  0  0  0  0  0  0  0
   -5.2595   -1.5181   -1.8334 H   0  0  0  0  0  0  0  0  0  0  0  0
   -4.7723   -1.7807    2.1805 H   0  0  0  0  0  0  0  0  0  0  0  0
   -5.7060   -0.3031    1.9206 H   0  0  0  0  0  0  0  0  0  0  0  0
   -6.3349   -1.8385    1.3603 H   0  0  0  0  0  0  0  0  0  0  0  0
   -3.2049   -0.8849   -1.9706 H   0  0  0  0  0  0  0  0  0  0  0  0
   -1.2000    0.4444   -2.1373 H   0  0  0  0  0  0  0  0  0  0  0  0
   -3.7062    0.4566    2.0947 H   0  0  0  0  0  0  0  0  0  0  0  0
   -1.7145    1.7862    1.8861 H   0  0  0  0  0  0  0  0  0  0  0  0
   -0.0295    2.4931   -1.2844 H   0  0  0  0  0  0  0  0  0  0  0  0
   -0.6175    3.6812    0.7062 H   0  0  0  0  0  0  0  0  0  0  0  0
    0.3302    2.7137    1.5967 H   0  0  0  0  0  0  0  0  0  0  0  0
    2.1805    2.0658   -1.9396 H   0  0  0  0  0  0  0  0  0  0  0  0
    4.1568    0.6769   -1.9094 H   0  0  0  0  0  0  0  0  0  0  0  0
    2.5464   -1.4640    1.4684 H   0  0  0  0  0  0  0  0  0  0  0  0
    0.5783   -0.0804    1.3865 H   0  0  0  0  0  0  0  0  0  0  0  0
    4.0336   -2.9638    0.9956 H   0  0  0  0  0  0  0  0  0  0  0  0
    5.7619   -2.8122    0.7478 H   0  0  0  0  0  0  0  0  0  0  0  0
    4.9412   -1.7214    1.8647 H   0  0  0  0  0  0  0  0  0  0  0  0
    6.2162   -0.0395   -0.7964 H   0  0  0  0  0  0  0  0  0  0  0  0
    6.5490   -1.7691   -0.9098 H   0  0  0  0  0  0  0  0  0  0  0  0
    5.5090   -1.0052   -2.0970 H   0  0  0  0  0  0  0  0  0  0  0  0
  1  2  1  0
  1 21  1  0
  1 22  1  0
  1 23  1  0
  2  4  1  0
  2  3  1  0
  3 24  1  0
  3 25  1  0
  3 26  1  0
  4  5  2  0
  4  7  1  0
  5  6  1  0
  5 27  1  0
  6  9  2  0
  6 28  1  0
  7  8  2  0
  7 29  1  0
  8  9  1  0
  8 30  1  0
  9 10  1  0
 10 11  1  0
 10 12  1  0
 10 31  1  6
 11 32  1  0
 11 33  1  0
 12 13  2  0
 12 17  1  0
 13 14  1  0
 13 34  1  0
 14 15  2  0
 14 35  1  0
 15 18  1  0
 15 16  1  0
 16 17  2  0
 16 36  1  0
 17 37  1  0
 18 20  1  0
 18 19  1  0
 19 38  1  0
 19 39  1  0
 19 40  1  0
 20 41  1  0
 20 42  1  0
 20 43  1  0
M  END
