
     RDKit          3D

 23 23  0  0  0  0  0  0  0  0999 V2000
   -2.6858    0.3121    0.0555 C   0  0  0  0  0  0  0  0  0  0  0  0
   -3.7977    1.1192    0.1330 N   0  0  0  0  0  0  0  0  0  0  0  0
   -1.4011    0.8612    0.0423 C   0  0  0  0  0  0  0  0  0  0  0  0
   -0.2744    0.0462    0.0237 C   0  0  0  0  0  0  0  0  0  0  0  0
    1.0552    0.7127    0.0103 C   0  0  0  0  0  0  0  0  0  0  0  0
    2.0584   -0.1481   -0.0034 O   0  0  0  0  0  0  0  0  0  0  0  0
    3.3963    0.3745   -0.0148 C   0  0  0  0  0  0  0  0  0  0  0  0
    4.3506   -0.7936   -0.0184 C   0  0  0  0  0  0  0  0  0  0  0  0
   -0.4065   -1.3412    0.0154 C   0  0  0  0  0  0  0  0  0  0  0  0
   -1.6816   -1.8886    0.0234 C   0  0  0  0  0  0  0  0  0  0  0  0
   -2.8076   -1.0835    0.0425 C   0  0  0  0  0  0  0  0  0  0  0  0
    1.2059    1.9122    0.0123 O   0  0  0  0  0  0  0  0  0  0  0  0
   -3.6759    2.0701   -0.1762 H   0  0  0  0  0  0  0  0  0  0  0  0
   -4.6580    0.7205   -0.2063 H   0  0  0  0  0  0  0  0  0  0  0  0
   -1.2854    1.9381    0.0475 H   0  0  0  0  0  0  0  0  0  0  0  0
    3.5368    0.9978   -0.9001 H   0  0  0  0  0  0  0  0  0  0  0  0
    3.5505    1.0028    0.8646 H   0  0  0  0  0  0  0  0  0  0  0  0
    5.3726   -0.4159   -0.0257 H   0  0  0  0  0  0  0  0  0  0  0  0
    4.2309   -1.4146    0.8692 H   0  0  0  0  0  0  0  0  0  0  0  0
    4.2202   -1.4186   -0.9018 H   0  0  0  0  0  0  0  0  0  0  0  0
    0.4566   -1.9904    0.0004 H   0  0  0  0  0  0  0  0  0  0  0  0
   -1.8019   -2.9642    0.0138 H   0  0  0  0  0  0  0  0  0  0  0  0
   -3.7928   -1.5350    0.0491 H   0  0  0  0  0  0  0  0  0  0  0  0
  1  2  1  0
  1  3  2  0
  1 11  1  0
  3  4  1  0
  4  5  1  0
  4  9  2  0
  5  6  1  0
  5 12  2  0
  6  7  1  0
  7  8  1  0
  9 10  1  0
 10 11  2  0
  2 13  1  0
  2 14  1  0
  3 15  1  0
  7 16  1  0
  7 17  1  0
  8 18  1  0
  8 19  1  0
  8 20  1  0
  9 21  1  0
 10 22  1  0
 11 23  1  0
M  END
