
     RDKit          3D

 26 26  0  0  0  0  0  0  0  0999 V2000
   -4.2782   -1.8022   -0.0485 C   0  0  0  0  0  0  0  0  0  0  0  0
   -5.3975   -0.9836   -0.0115 C   0  0  0  0  0  0  0  0  0  0  0  0
   -5.2412    0.3975    0.0278 C   0  0  0  0  0  0  0  0  0  0  0  0
   -3.9738    0.9526    0.0287 C   0  0  0  0  0  0  0  0  0  0  0  0
   -2.8372    0.1392   -0.0063 C   0  0  0  0  0  0  0  0  0  0  0  0
   -3.0070   -1.2458   -0.0450 C   0  0  0  0  0  0  0  0  0  0  0  0
   -1.4983    0.7985   -0.0092 C   0  0  0  0  0  0  0  0  0  0  0  0
   -1.4221    2.0164   -0.0356 O   0  0  0  0  0  0  0  0  0  0  0  0
   -0.2889   -0.0379    0.0224 C   0  0  0  0  0  0  0  0  0  0  0  0
    0.9409    0.5085   -0.0090 C   0  0  0  0  0  0  0  0  0  0  0  0
    2.1388   -0.2823    0.0189 C   0  0  0  0  0  0  0  0  0  0  0  0
    3.3820    0.2338   -0.0273 C   0  0  0  0  0  0  0  0  0  0  0  0
    3.5951    1.5490   -0.1018 O   0  0  0  0  0  0  0  0  0  0  0  0
    4.5604   -0.6866    0.0012 C   0  0  0  0  0  0  0  0  0  0  0  0
    5.6927   -0.0070   -0.0786 O   0  0  0  0  0  0  0  0  0  0  0  0
    4.4821   -1.8843    0.0833 O   0  0  0  0  0  0  0  0  0  0  0  0
   -4.3909   -2.8777   -0.0799 H   0  0  0  0  0  0  0  0  0  0  0  0
   -6.3889   -1.4179   -0.0134 H   0  0  0  0  0  0  0  0  0  0  0  0
   -6.1098    1.0419    0.0573 H   0  0  0  0  0  0  0  0  0  0  0  0
   -3.8618    2.0279    0.0580 H   0  0  0  0  0  0  0  0  0  0  0  0
   -2.1594   -1.9151   -0.0761 H   0  0  0  0  0  0  0  0  0  0  0  0
   -0.3815   -1.1142    0.0732 H   0  0  0  0  0  0  0  0  0  0  0  0
    1.0344    1.5876   -0.0599 H   0  0  0  0  0  0  0  0  0  0  0  0
    2.0418   -1.3580    0.0762 H   0  0  0  0  0  0  0  0  0  0  0  0
    4.5371    1.7576   -0.1356 H   0  0  0  0  0  0  0  0  0  0  0  0
    6.4613   -0.5978   -0.0604 H   0  0  0  0  0  0  0  0  0  0  0  0
  1  2  2  0
  1  6  1  0
  1 17  1  0
  2  3  1  0
  2 18  1  0
  3  4  2  0
  3 19  1  0
  4  5  1  0
  4 20  1  0
  5  6  2  0
  5  7  1  0
  6 21  1  0
  7  8  2  0
  7  9  1  0
  9 10  2  0
  9 22  1  0
 10 11  1  0
 10 23  1  0
 11 12  2  0
 11 24  1  0
 12 13  1  0
 12 14  1  0
 13 25  1  0
 14 15  1  0
 14 16  2  0
 15 26  1  0
M  END
