
     RDKit          3D

 86 88  0  0  0  0  0  0  0  0999 V2000
   -3.9790   -1.0178   -0.1774 C   0  0  0  0  0  0  0  0  0  0  0  0
   -4.2378   -1.6163    0.8564 O   0  0  0  0  0  0  0  0  0  0  0  0
   -4.7177   -1.2821   -1.4812 C   0  0  0  0  0  0  0  0  0  0  0  0
   -5.0627   -2.6695   -1.6355 N   0  0  0  0  0  0  0  0  0  0  0  0
   -5.2791   -5.1279   -3.0352 O   0  0  0  0  0  0  0  0  0  0  0  0
   -6.0535   -2.8627   -2.6802 C   0  0  0  0  0  0  0  0  0  0  0  0
   -3.8986   -3.4990   -1.8922 C   0  0  0  0  0  0  0  0  0  0  0  0
   -6.4160   -4.3314   -2.7841 C   0  0  0  0  0  0  0  0  0  0  0  0
   -4.3131   -4.9524   -2.0234 C   0  0  0  0  0  0  0  0  0  0  0  0
   -3.0540   -0.0515   -0.2639 N   0  0  0  0  0  0  0  0  0  0  0  0
   -2.3045    0.4437    0.8631 C   0  0  1  0  0  0  0  0  0  0  0  0
   -0.9925    1.0199    0.3377 C   0  0  0  0  0  0  0  0  0  0  0  0
   -0.8810    1.3952   -0.8183 O   0  0  0  0  0  0  0  0  0  0  0  0
   -3.0774    1.5124    1.6401 C   0  0  0  0  0  0  0  0  0  0  0  0
   -0.0200    1.1137    1.2567 N   0  0  0  0  0  0  0  0  0  0  0  0
    1.2716    1.7070    1.0028 C   0  0  1  0  0  0  0  0  0  0  0  0
    1.4727    2.9989    1.8051 C   0  0  0  0  0  0  0  0  0  0  0  0
    0.4531    4.0373    1.4411 C   0  0  0  0  0  0  0  0  0  0  0  0
    0.5730    4.7760    0.2635 C   0  0  0  0  0  0  0  0  0  0  0  0
   -0.3810    5.7045   -0.1052 C   0  0  0  0  0  0  0  0  0  0  0  0
   -1.5001    5.9208    0.7030 C   0  0  0  0  0  0  0  0  0  0  0  0
   -2.3833    6.8426    0.2682 O   0  0  0  0  0  0  0  0  0  0  0  0
   -3.5399    7.0811    1.0433 C   0  0  0  0  0  0  0  0  0  0  0  0
   -1.6355    5.1954    1.8820 C   0  0  0  0  0  0  0  0  0  0  0  0
   -0.6608    4.2673    2.2343 C   0  0  0  0  0  0  0  0  0  0  0  0
    2.3392    0.6808    1.3698 C   0  0  0  0  0  0  0  0  0  0  0  0
    2.4629    0.3010    2.5224 O   0  0  0  0  0  0  0  0  0  0  0  0
    3.1040    0.2645    0.3456 N   0  0  0  0  0  0  0  0  0  0  0  0
    4.0474   -0.8335    0.4320 C   0  0  2  0  0  0  0  0  0  0  0  0
    5.3993   -0.3601   -0.1223 C   0  0  1  0  0  0  0  0  0  0  0  0
    5.8623    0.7584    0.5983 O   0  0  0  0  0  0  0  0  0  0  0  0
    6.4862   -1.4337   -0.0951 C   0  0  2  0  0  0  0  0  0  0  0  0
    6.7804   -1.9576    1.3077 C   0  0  0  0  0  0  0  0  0  0  0  0
    7.7474   -0.9058   -0.7721 C   0  0  0  0  0  0  0  0  0  0  0  0
    8.6298   -1.9861   -0.9896 O   0  0  0  0  0  0  0  0  0  0  0  0
    3.5016   -2.0661   -0.3065 C   0  0  0  0  0  0  0  0  0  0  0  0
    2.0616   -2.3352    0.0296 C   0  0  0  0  0  0  0  0  0  0  0  0
    1.7073   -2.8561    1.2722 C   0  0  0  0  0  0  0  0  0  0  0  0
    0.3759   -3.0609    1.6019 C   0  0  0  0  0  0  0  0  0  0  0  0
   -0.6257   -2.7483    0.6909 C   0  0  0  0  0  0  0  0  0  0  0  0
   -0.2844   -2.2306   -0.5505 C   0  0  0  0  0  0  0  0  0  0  0  0
    1.0501   -2.0245   -0.8740 C   0  0  0  0  0  0  0  0  0  0  0  0
   -5.6393   -0.6919   -1.4414 H   0  0  0  0  0  0  0  0  0  0  0  0
   -4.1416   -0.8889   -2.3354 H   0  0  0  0  0  0  0  0  0  0  0  0
   -6.9530   -2.2925   -2.4350 H   0  0  0  0  0  0  0  0  0  0  0  0
   -5.6946   -2.5028   -3.6595 H   0  0  0  0  0  0  0  0  0  0  0  0
   -3.3675   -3.1800   -2.8056 H   0  0  0  0  0  0  0  0  0  0  0  0
   -3.1937   -3.4195   -1.0615 H   0  0  0  0  0  0  0  0  0  0  0  0
   -7.1147   -4.4874   -3.6073 H   0  0  0  0  0  0  0  0  0  0  0  0
   -6.9100   -4.6502   -1.8552 H   0  0  0  0  0  0  0  0  0  0  0  0
   -4.6999   -5.3058   -1.0573 H   0  0  0  0  0  0  0  0  0  0  0  0
   -3.4483   -5.5638   -2.2847 H   0  0  0  0  0  0  0  0  0  0  0  0
   -2.8745    0.3843   -1.1563 H   0  0  0  0  0  0  0  0  0  0  0  0
   -2.0875   -0.3915    1.5323 H   0  0  0  0  0  0  0  0  0  0  0  0
   -3.2471    2.3982    1.0282 H   0  0  0  0  0  0  0  0  0  0  0  0
   -4.0421    1.1152    1.9530 H   0  0  0  0  0  0  0  0  0  0  0  0
   -2.5360    1.8187    2.5337 H   0  0  0  0  0  0  0  0  0  0  0  0
   -0.1866    0.7501    2.1831 H   0  0  0  0  0  0  0  0  0  0  0  0
    1.3170    1.9415   -0.0609 H   0  0  0  0  0  0  0  0  0  0  0  0
    1.4223    2.7723    2.8722 H   0  0  0  0  0  0  0  0  0  0  0  0
    2.4820    3.3691    1.6056 H   0  0  0  0  0  0  0  0  0  0  0  0
    1.4315    4.6261   -0.3818 H   0  0  0  0  0  0  0  0  0  0  0  0
   -0.2682    6.2707   -1.0215 H   0  0  0  0  0  0  0  0  0  0  0  0
   -4.1126    7.8429    0.5200 H   0  0  0  0  0  0  0  0  0  0  0  0
   -4.1575    6.1845    1.1432 H   0  0  0  0  0  0  0  0  0  0  0  0
   -3.2954    7.4513    2.0427 H   0  0  0  0  0  0  0  0  0  0  0  0
   -2.4849    5.3311    2.5378 H   0  0  0  0  0  0  0  0  0  0  0  0
   -0.7809    3.7175    3.1603 H   0  0  0  0  0  0  0  0  0  0  0  0
    2.8423    0.5675   -0.5811 H   0  0  0  0  0  0  0  0  0  0  0  0
    4.1542   -1.0692    1.4919 H   0  0  0  0  0  0  0  0  0  0  0  0
    5.2341   -0.0911   -1.1794 H   0  0  0  0  0  0  0  0  0  0  0  0
    5.2060    1.4584    0.5186 H   0  0  0  0  0  0  0  0  0  0  0  0
    6.1236   -2.2617   -0.7148 H   0  0  0  0  0  0  0  0  0  0  0  0
    7.1622   -1.1648    1.9524 H   0  0  0  0  0  0  0  0  0  0  0  0
    5.8928   -2.3758    1.7843 H   0  0  0  0  0  0  0  0  0  0  0  0
    7.5274   -2.7493    1.2756 H   0  0  0  0  0  0  0  0  0  0  0  0
    7.4715   -0.4253   -1.7215 H   0  0  0  0  0  0  0  0  0  0  0  0
    8.2092   -0.1357   -0.1427 H   0  0  0  0  0  0  0  0  0  0  0  0
    9.4499   -1.6359   -1.3485 H   0  0  0  0  0  0  0  0  0  0  0  0
    3.6088   -1.9210   -1.3861 H   0  0  0  0  0  0  0  0  0  0  0  0
    4.1143   -2.9328   -0.0466 H   0  0  0  0  0  0  0  0  0  0  0  0
    2.4816   -3.1000    1.9907 H   0  0  0  0  0  0  0  0  0  0  0  0
    0.1160   -3.4658    2.5717 H   0  0  0  0  0  0  0  0  0  0  0  0
   -1.6645   -2.9051    0.9531 H   0  0  0  0  0  0  0  0  0  0  0  0
   -1.0535   -1.9795   -1.2696 H   0  0  0  0  0  0  0  0  0  0  0  0
    1.3094   -1.6160   -1.8438 H   0  0  0  0  0  0  0  0  0  0  0  0
  7  9  1  0
  7  4  1  0
  3  4  1  0
  3  1  1  0
  9  5  1  0
  5  8  1  0
  4  6  1  0
  1  2  2  0
  1 10  1  0
  6  8  1  0
 10 11  1  0
 14 11  1  0
 11 12  1  0
 20 19  2  0
 20 21  1  0
 22 21  1  0
 22 23  1  0
 12 13  2  0
 12 15  1  0
 19 18  1  0
 21 24  2  0
 15 16  1  0
 18 17  1  0
 18 25  2  0
 24 25  1  0
 17 16  1  0
 16 26  1  0
 27 26  2  0
 26 28  1  0
 39 40  1  0
 39 38  2  0
 40 41  2  0
 38 37  1  0
 28 29  1  0
 33 32  1  0
 41 42  1  0
 37 42  2  0
 37 36  1  0
 29 36  1  0
 29 30  1  0
 34 32  1  0
 34 35  1  0
 32 30  1  0
 30 31  1  0
  3 43  1  0
  3 44  1  0
  6 45  1  0
  6 46  1  0
  7 47  1  0
  7 48  1  0
  8 49  1  0
  8 50  1  0
  9 51  1  0
  9 52  1  0
 10 53  1  0
 11 54  1  1
 14 55  1  0
 14 56  1  0
 14 57  1  0
 15 58  1  0
 16 59  1  6
 17 60  1  0
 17 61  1  0
 19 62  1  0
 20 63  1  0
 23 64  1  0
 23 65  1  0
 23 66  1  0
 24 67  1  0
 25 68  1  0
 28 69  1  0
 29 70  1  1
 30 71  1  6
 31 72  1  0
 32 73  1  6
 33 74  1  0
 33 75  1  0
 33 76  1  0
 34 77  1  0
 34 78  1  0
 35 79  1  0
 36 80  1  0
 36 81  1  0
 38 82  1  0
 39 83  1  0
 40 84  1  0
 41 85  1  0
 42 86  1  0
M  END
