
     RDKit          3D

 32 34  0  0  0  0  0  0  0  0999 V2000
    0.5474   -0.7318   -0.4781 C   0  0  0  0  0  0  0  0  0  0  0  0
    0.3111   -1.6947    0.5075 C   0  0  0  0  0  0  0  0  0  0  0  0
   -0.9266   -1.7863    1.0960 C   0  0  0  0  0  0  0  0  0  0  0  0
   -1.9479   -0.9193    0.6941 C   0  0  0  0  0  0  0  0  0  0  0  0
   -1.7089    0.0305   -0.2983 C   0  0  0  0  0  0  0  0  0  0  0  0
   -0.4510    0.1247   -0.8861 C   0  0  0  0  0  0  0  0  0  0  0  0
   -2.7841    0.9281   -0.7253 C   0  0  0  0  0  0  0  0  0  0  0  0
   -3.1869   -0.9967    1.2651 N   0  0  0  0  0  0  0  0  0  0  0  0
   -3.9838    0.7180   -0.0640 N   0  0  0  0  0  0  0  0  0  0  0  0
   -2.6726    1.7779   -1.5768 O   0  0  0  0  0  0  0  0  0  0  0  0
   -4.2510   -0.2074    0.9410 C   0  0  0  0  0  0  0  0  0  0  0  0
   -5.3329   -0.2994    1.4654 O   0  0  0  0  0  0  0  0  0  0  0  0
   -4.9934    1.5696   -0.3515 O   0  0  0  0  0  0  0  0  0  0  0  0
    2.1540   -0.6311   -1.2148 S   0  0  1  0  0  0  0  0  0  0  0  0
    3.1282    0.1850    0.0204 C   0  0  0  0  0  0  0  0  0  0  0  0
    2.6614   -1.9904   -1.3664 O   0  0  0  0  0  0  0  0  0  0  0  0
    2.0573    0.2418   -2.3796 O   0  0  0  0  0  0  0  0  0  0  0  0
    3.9388   -0.5697    0.8568 C   0  0  0  0  0  0  0  0  0  0  0  0
    4.6859    0.0802    1.8290 C   0  0  0  0  0  0  0  0  0  0  0  0
    4.6173    1.4609    1.9542 C   0  0  0  0  0  0  0  0  0  0  0  0
    3.8036    2.2032    1.1062 C   0  0  0  0  0  0  0  0  0  0  0  0
    3.0536    1.5683    0.1295 C   0  0  0  0  0  0  0  0  0  0  0  0
    1.0929   -2.3755    0.8175 H   0  0  0  0  0  0  0  0  0  0  0  0
   -1.1126   -2.5288    1.8602 H   0  0  0  0  0  0  0  0  0  0  0  0
   -0.2806    0.8660   -1.6555 H   0  0  0  0  0  0  0  0  0  0  0  0
   -3.3514   -1.6832    1.9890 H   0  0  0  0  0  0  0  0  0  0  0  0
   -5.5092    1.1618   -1.0631 H   0  0  0  0  0  0  0  0  0  0  0  0
    3.9965   -1.6449    0.7571 H   0  0  0  0  0  0  0  0  0  0  0  0
    5.3226   -0.4965    2.4859 H   0  0  0  0  0  0  0  0  0  0  0  0
    5.1995    1.9628    2.7155 H   0  0  0  0  0  0  0  0  0  0  0  0
    3.7544    3.2792    1.2039 H   0  0  0  0  0  0  0  0  0  0  0  0
    2.4245    2.1492   -0.5319 H   0  0  0  0  0  0  0  0  0  0  0  0
  2  1  2  0
  1  6  1  0
 14  1  1  1
  3  2  1  0
  2 23  1  0
  3  4  2  0
  3 24  1  0
  8  4  1  0
  4  5  1  0
  5  7  1  0
  5  6  2  0
  6 25  1  0
  9  7  1  0
  7 10  2  0
  8 11  1  0
  8 26  1  0
 11  9  1  0
  9 13  1  0
 12 11  2  0
 13 27  1  0
 15 14  1  0
 14 17  2  0
 14 16  2  0
 22 15  1  0
 15 18  2  0
 19 18  1  0
 18 28  1  0
 20 19  2  0
 19 29  1  0
 21 20  1  0
 20 30  1  0
 21 22  2  0
 21 31  1  0
 22 32  1  0
M  END
