
     RDKit          3D

 88 93  0  0  0  0  0  0  0  0999 V2000
   -5.9831   -1.4933    3.4774 C   0  0  0  0  0  0  0  0  0  0  0  0
   -4.6359   -2.0145    3.0012 C   0  0  0  0  0  0  0  0  0  0  0  0
   -4.6463   -2.4441    1.5316 C   0  0  2  0  0  0  0  0  0  0  0  0
   -5.5937   -3.5115    1.3123 N   0  0  0  0  0  0  0  0  0  0  0  0
   -5.7447   -3.8892   -0.0783 C   0  0  0  0  0  0  0  0  0  0  0  0
   -3.2221   -2.8374    1.1309 C   0  0  0  0  0  0  0  0  0  0  0  0
   -2.7293   -3.8903    1.5124 O   0  0  0  0  0  0  0  0  0  0  0  0
   -2.5744   -1.9440    0.3651 N   0  0  0  0  0  0  0  0  0  0  0  0
   -1.2027   -2.0791   -0.0460 C   0  0  1  0  0  0  0  0  0  0  0  0
   -1.0580   -2.4468   -1.5393 C   0  0  1  0  0  0  0  0  0  0  0  0
   -1.5392   -3.8681   -1.8224 C   0  0  0  0  0  0  0  0  0  0  0  0
   -1.3241   -4.2410   -3.2866 C   0  0  0  0  0  0  0  0  0  0  0  0
   -1.9973   -3.2432   -4.2227 C   0  0  0  0  0  0  0  0  0  0  0  0
   -1.5407   -1.8187   -3.9279 C   0  0  0  0  0  0  0  0  0  0  0  0
   -1.7587   -1.4507   -2.4634 C   0  0  0  0  0  0  0  0  0  0  0  0
   -0.4655   -0.7708    0.2335 C   0  0  0  0  0  0  0  0  0  0  0  0
   -1.0900    0.2576    0.4336 O   0  0  0  0  0  0  0  0  0  0  0  0
    0.8935   -0.7835    0.1742 N   0  0  0  0  0  0  0  0  0  0  0  0
    1.6279   -2.0095    0.5059 C   0  0  0  0  0  0  0  0  0  0  0  0
    3.0641   -1.9164    0.0628 C   0  0  2  0  0  0  0  0  0  0  0  0
    4.0038   -3.0150    0.5648 C   0  0  0  0  0  0  0  0  0  0  0  0
    5.3013   -2.2570    0.6753 C   0  0  0  0  0  0  0  0  0  0  0  0
    6.6022   -2.6966    0.7877 C   0  0  0  0  0  0  0  0  0  0  0  0
    7.6322   -1.7587    0.9025 C   0  0  0  0  0  0  0  0  0  0  0  0
    7.3381   -0.4027    0.9053 C   0  0  0  0  0  0  0  0  0  0  0  0
    6.0253    0.0561    0.7946 C   0  0  0  0  0  0  0  0  0  0  0  0
    5.0144   -0.8863    0.6885 C   0  0  0  0  0  0  0  0  0  0  0  0
    3.6443   -0.6982    0.6023 N   0  0  0  0  0  0  0  0  0  0  0  0
    3.0397    0.4759    0.0523 C   0  0  0  0  0  0  0  0  0  0  0  0
    1.5451    0.5023    0.4071 C   0  0  1  0  0  0  0  0  0  0  0  0
    0.9414    1.5823   -0.4937 C   0  0  0  0  0  0  0  0  0  0  0  0
    0.7079    1.3698   -1.6713 O   0  0  0  0  0  0  0  0  0  0  0  0
    0.8373    2.7854    0.0929 N   0  0  0  0  0  0  0  0  0  0  0  0
    0.4495    3.9930   -0.5969 C   0  0  2  0  0  0  0  0  0  0  0  0
    1.5973    4.9949   -0.6499 C   0  0  0  0  0  0  0  0  0  0  0  0
    1.0862    6.3099   -1.1919 C   0  0  0  0  0  0  0  0  0  0  0  0
    0.0779    6.8673   -0.3583 O   0  0  0  0  0  0  0  0  0  0  0  0
   -0.8693    6.0278    0.1129 C   0  0  0  0  0  0  0  0  0  0  0  0
   -1.9842    6.6193    0.7066 C   0  0  0  0  0  0  0  0  0  0  0  0
   -2.9980    5.8312    1.2216 C   0  0  0  0  0  0  0  0  0  0  0  0
   -2.9126    4.4456    1.1483 C   0  0  0  0  0  0  0  0  0  0  0  0
   -1.7993    3.8643    0.5634 C   0  0  0  0  0  0  0  0  0  0  0  0
   -0.7638    4.6357    0.0411 C   0  0  0  0  0  0  0  0  0  0  0  0
   -6.3016   -0.6320    2.8874 H   0  0  0  0  0  0  0  0  0  0  0  0
   -6.7551   -2.2563    3.3956 H   0  0  0  0  0  0  0  0  0  0  0  0
   -5.9291   -1.1780    4.5197 H   0  0  0  0  0  0  0  0  0  0  0  0
   -3.8765   -1.2389    3.1321 H   0  0  0  0  0  0  0  0  0  0  0  0
   -4.3183   -2.8602    3.6180 H   0  0  0  0  0  0  0  0  0  0  0  0
   -4.9686   -1.5863    0.9286 H   0  0  0  0  0  0  0  0  0  0  0  0
   -5.3192   -4.3191    1.8591 H   0  0  0  0  0  0  0  0  0  0  0  0
   -6.1091   -3.0365   -0.6540 H   0  0  0  0  0  0  0  0  0  0  0  0
   -4.8265   -4.2456   -0.5657 H   0  0  0  0  0  0  0  0  0  0  0  0
   -6.4866   -4.6830   -0.1621 H   0  0  0  0  0  0  0  0  0  0  0  0
   -3.0520   -1.0907    0.1220 H   0  0  0  0  0  0  0  0  0  0  0  0
   -0.7813   -2.8873    0.5542 H   0  0  0  0  0  0  0  0  0  0  0  0
    0.0134   -2.4119   -1.7744 H   0  0  0  0  0  0  0  0  0  0  0  0
   -1.0168   -4.5764   -1.1738 H   0  0  0  0  0  0  0  0  0  0  0  0
   -2.6048   -3.9517   -1.5813 H   0  0  0  0  0  0  0  0  0  0  0  0
   -0.2497   -4.2709   -3.4990 H   0  0  0  0  0  0  0  0  0  0  0  0
   -1.7030   -5.2489   -3.4723 H   0  0  0  0  0  0  0  0  0  0  0  0
   -1.7872   -3.4997   -5.2640 H   0  0  0  0  0  0  0  0  0  0  0  0
   -3.0841   -3.3093   -4.1005 H   0  0  0  0  0  0  0  0  0  0  0  0
   -0.4761   -1.7211   -4.1680 H   0  0  0  0  0  0  0  0  0  0  0  0
   -2.0682   -1.1097   -4.5703 H   0  0  0  0  0  0  0  0  0  0  0  0
   -2.8340   -1.4495   -2.2530 H   0  0  0  0  0  0  0  0  0  0  0  0
   -1.3976   -0.4357   -2.2822 H   0  0  0  0  0  0  0  0  0  0  0  0
    1.5911   -2.1916    1.5855 H   0  0  0  0  0  0  0  0  0  0  0  0
    1.1718   -2.8613    0.0073 H   0  0  0  0  0  0  0  0  0  0  0  0
    3.1019   -1.8825   -1.0392 H   0  0  0  0  0  0  0  0  0  0  0  0
    3.6884   -3.3857    1.5465 H   0  0  0  0  0  0  0  0  0  0  0  0
    4.0449   -3.8660   -0.1138 H   0  0  0  0  0  0  0  0  0  0  0  0
    6.8261   -3.7567    0.7790 H   0  0  0  0  0  0  0  0  0  0  0  0
    8.6592   -2.0898    0.9839 H   0  0  0  0  0  0  0  0  0  0  0  0
    8.1406    0.3194    0.9860 H   0  0  0  0  0  0  0  0  0  0  0  0
    5.8179    1.1188    0.7909 H   0  0  0  0  0  0  0  0  0  0  0  0
    3.4941    1.3747    0.4699 H   0  0  0  0  0  0  0  0  0  0  0  0
    3.1662    0.5091   -1.0397 H   0  0  0  0  0  0  0  0  0  0  0  0
    1.4480    0.7795    1.4638 H   0  0  0  0  0  0  0  0  0  0  0  0
    1.0320    2.8634    1.0799 H   0  0  0  0  0  0  0  0  0  0  0  0
    0.1950    3.7008   -1.6178 H   0  0  0  0  0  0  0  0  0  0  0  0
    2.0194    5.1412    0.3485 H   0  0  0  0  0  0  0  0  0  0  0  0
    2.3961    4.6209   -1.2921 H   0  0  0  0  0  0  0  0  0  0  0  0
    1.8804    7.0529   -1.2420 H   0  0  0  0  0  0  0  0  0  0  0  0
    0.6887    6.1757   -2.2047 H   0  0  0  0  0  0  0  0  0  0  0  0
   -2.0450    7.6995    0.7585 H   0  0  0  0  0  0  0  0  0  0  0  0
   -3.8587    6.3022    1.6783 H   0  0  0  0  0  0  0  0  0  0  0  0
   -3.7041    3.8255    1.5476 H   0  0  0  0  0  0  0  0  0  0  0  0
   -1.7209    2.7852    0.5162 H   0  0  0  0  0  0  0  0  0  0  0  0
 24 25  2  0
 24 23  1  0
 25 26  1  0
 23 22  2  0
 26 27  2  0
 22 27  1  0
 22 21  1  0
 27 28  1  0
 21 20  1  0
 28 20  1  0
 28 29  1  0
 20 19  1  0
 36 35  1  0
 36 37  1  0
 29 30  1  0
 35 34  1  0
 37 38  1  0
 19 18  1  0
 30 31  1  0
 30 18  1  0
 31 33  1  0
 31 32  2  0
 33 34  1  0
 34 43  1  0
 18 16  1  0
 38 43  2  0
 38 39  1  0
 43 42  1  0
 39 40  2  0
 16  9  1  0
 16 17  2  0
 42 41  2  0
  9 10  1  0
  9  8  1  0
 11 10  1  0
 11 12  1  0
 15 14  1  0
 15 10  1  0
 40 41  1  0
 14 13  1  0
 12 13  1  0
  7  6  2  0
  8  6  1  0
  6  3  1  0
  1  2  1  0
  3  2  1  0
  3  4  1  0
  4  5  1  0
  1 44  1  0
  1 45  1  0
  1 46  1  0
  2 47  1  0
  2 48  1  0
  3 49  1  6
  4 50  1  0
  5 51  1  0
  5 52  1  0
  5 53  1  0
  8 54  1  0
  9 55  1  1
 10 56  1  6
 11 57  1  0
 11 58  1  0
 12 59  1  0
 12 60  1  0
 13 61  1  0
 13 62  1  0
 14 63  1  0
 14 64  1  0
 15 65  1  0
 15 66  1  0
 19 67  1  0
 19 68  1  0
 20 69  1  6
 21 70  1  0
 21 71  1  0
 23 72  1  0
 24 73  1  0
 25 74  1  0
 26 75  1  0
 29 76  1  0
 29 77  1  0
 30 78  1  1
 33 79  1  0
 34 80  1  6
 35 81  1  0
 35 82  1  0
 36 83  1  0
 36 84  1  0
 39 85  1  0
 40 86  1  0
 41 87  1  0
 42 88  1  0
M  END
