
     RDKit          3D

 52 51  0  0  0  0  0  0  0  0999 V2000
   -2.6515    2.8322    0.2025 C   0  0  1  0  0  0  0  0  0  0  0  0
   -5.7580   -5.5240   -0.0370 C   0  0  0  0  0  0  0  0  0  0  0  0
   -6.2061   -4.1481    0.4363 C   0  0  0  0  0  0  0  0  0  0  0  0
   -5.4876   -3.0123   -0.2812 C   0  0  0  0  0  0  0  0  0  0  0  0
   -5.9158   -1.6322    0.2005 C   0  0  0  0  0  0  0  0  0  0  0  0
   -5.1989   -0.4979   -0.5333 C   0  0  0  0  0  0  0  0  0  0  0  0
   -5.6412    0.8499   -0.0564 C   0  0  0  0  0  0  0  0  0  0  0  0
   -4.9074    1.7792    0.5540 C   0  0  0  0  0  0  0  0  0  0  0  0
   -3.4510    1.7124    0.8861 C   0  0  0  0  0  0  0  0  0  0  0  0
   -1.2108    2.7636    0.6219 C   0  0  0  0  0  0  0  0  0  0  0  0
   -0.1675    2.6894   -0.1956 C   0  0  0  0  0  0  0  0  0  0  0  0
    1.2496    2.6217    0.2693 C   0  0  0  0  0  0  0  0  0  0  0  0
    1.9680    1.3519   -0.1355 C   0  0  0  0  0  0  0  0  0  0  0  0
    1.3889    0.4273   -0.6576 O   0  0  0  0  0  0  0  0  0  0  0  0
    3.4453    1.3238    0.1589 C   0  0  0  0  0  0  0  0  0  0  0  0
    4.1400    0.0085   -0.1482 C   0  0  0  0  0  0  0  0  0  0  0  0
    5.6305    0.0746    0.1622 C   0  0  0  0  0  0  0  0  0  0  0  0
    6.3220   -1.2424   -0.1471 C   0  0  0  0  0  0  0  0  0  0  0  0
    7.7961   -1.2402    0.1450 C   0  0  0  0  0  0  0  0  0  0  0  0
    8.4204   -0.3028    0.5762 O   0  0  0  0  0  0  0  0  0  0  0  0
    8.3566   -2.4150   -0.1312 O   0  0  0  0  0  0  0  0  0  0  0  0
   -2.8303    2.8309   -1.1912 O   0  0  0  0  0  0  0  0  0  0  0  0
   -3.0592    3.7896    0.5500 H   0  0  0  0  0  0  0  0  0  0  0  0
   -3.0172    0.7453    0.6165 H   0  0  0  0  0  0  0  0  0  0  0  0
   -3.3170    1.8159    1.9677 H   0  0  0  0  0  0  0  0  0  0  0  0
   -1.0475    2.7694    1.6973 H   0  0  0  0  0  0  0  0  0  0  0  0
   -4.6890   -5.6682    0.1302 H   0  0  0  0  0  0  0  0  0  0  0  0
   -6.2853   -6.3213    0.4879 H   0  0  0  0  0  0  0  0  0  0  0  0
   -5.9426   -5.6528   -1.1050 H   0  0  0  0  0  0  0  0  0  0  0  0
   -7.2855   -4.0430    0.2894 H   0  0  0  0  0  0  0  0  0  0  0  0
   -6.0377   -4.0583    1.5140 H   0  0  0  0  0  0  0  0  0  0  0  0
   -4.4060   -3.1228   -0.1445 H   0  0  0  0  0  0  0  0  0  0  0  0
   -5.6654   -3.0937   -1.3594 H   0  0  0  0  0  0  0  0  0  0  0  0
   -6.9983   -1.5211    0.0757 H   0  0  0  0  0  0  0  0  0  0  0  0
   -5.7223   -1.5439    1.2743 H   0  0  0  0  0  0  0  0  0  0  0  0
   -4.1196   -0.6228   -0.4229 H   0  0  0  0  0  0  0  0  0  0  0  0
   -5.4089   -0.5857   -1.6050 H   0  0  0  0  0  0  0  0  0  0  0  0
   -6.6941    1.0693   -0.2156 H   0  0  0  0  0  0  0  0  0  0  0  0
   -5.4033    2.7018    0.8457 H   0  0  0  0  0  0  0  0  0  0  0  0
   -0.3189    2.6958   -1.2703 H   0  0  0  0  0  0  0  0  0  0  0  0
    1.8262    3.4693   -0.1183 H   0  0  0  0  0  0  0  0  0  0  0  0
    1.3134    2.7040    1.3600 H   0  0  0  0  0  0  0  0  0  0  0  0
    3.9053    2.1424   -0.4073 H   0  0  0  0  0  0  0  0  0  0  0  0
    3.5852    1.6021    1.2096 H   0  0  0  0  0  0  0  0  0  0  0  0
    3.6816   -0.7983    0.4304 H   0  0  0  0  0  0  0  0  0  0  0  0
    3.9984   -0.2497   -1.2010 H   0  0  0  0  0  0  0  0  0  0  0  0
    6.0886    0.8809   -0.4168 H   0  0  0  0  0  0  0  0  0  0  0  0
    5.7729    0.3310    1.2153 H   0  0  0  0  0  0  0  0  0  0  0  0
    5.8635   -2.0589    0.4200 H   0  0  0  0  0  0  0  0  0  0  0  0
    6.1860   -1.5097   -1.2001 H   0  0  0  0  0  0  0  0  0  0  0  0
    9.3052   -2.3815    0.0620 H   0  0  0  0  0  0  0  0  0  0  0  0
   -2.6057    1.9564   -1.5275 H   0  0  0  0  0  0  0  0  0  0  0  0
  1  9  1  0
  1 10  1  0
  2  3  1  0
  3  4  1  0
  4  5  1  0
  5  6  1  0
  6  7  1  0
  7  8  2  0
  8  9  1  0
 10 11  2  0
 11 12  1  0
 12 13  1  0
 13 14  2  0
 13 15  1  0
 15 16  1  0
 16 17  1  0
 17 18  1  0
 18 19  1  0
 19 20  2  0
 19 21  1  0
  1 23  1  1
  9 24  1  0
  9 25  1  0
 10 26  1  0
  2 27  1  0
  2 28  1  0
  2 29  1  0
  3 30  1  0
  3 31  1  0
  4 32  1  0
  4 33  1  0
  5 34  1  0
  5 35  1  0
  6 36  1  0
  6 37  1  0
  7 38  1  0
  8 39  1  0
 11 40  1  0
 12 41  1  0
 12 42  1  0
 15 43  1  0
 15 44  1  0
 16 45  1  0
 16 46  1  0
 17 47  1  0
 17 48  1  0
 18 49  1  0
 18 50  1  0
 21 51  1  0
 22 52  1  0
 22  1  1  0
M  END
