
     RDKit          3D

 25 26  0  0  0  0  0  0  0  0999 V2000
    1.2303   -2.0791    0.3850 O   0  0  0  0  0  0  0  0  0  0  0  0
    0.9857   -0.8489   -0.2695 C   0  0  1  0  0  0  0  0  0  0  0  0
   -0.4653   -0.4230   -0.1266 C   0  0  0  0  0  0  0  0  0  0  0  0
   -1.4716   -1.3873   -0.1895 C   0  0  0  0  0  0  0  0  0  0  0  0
   -2.8093   -1.0376   -0.1056 C   0  0  0  0  0  0  0  0  0  0  0  0
   -3.1630    0.2972    0.0501 C   0  0  0  0  0  0  0  0  0  0  0  0
   -2.1707    1.2601    0.1190 C   0  0  0  0  0  0  0  0  0  0  0  0
   -0.8206    0.9191    0.0321 C   0  0  0  0  0  0  0  0  0  0  0  0
    0.2230    1.9996    0.1462 C   0  0  0  0  0  0  0  0  0  0  0  0
    1.5940    1.5462   -0.3261 C   0  0  0  0  0  0  0  0  0  0  0  0
    1.9469    0.1960    0.2790 C   0  0  2  0  0  0  0  0  0  0  0  0
    3.3075   -0.1740   -0.0699 N   0  0  0  0  0  0  0  0  0  0  0  0
    1.1696   -2.7917   -0.2556 H   0  0  0  0  0  0  0  0  0  0  0  0
    1.2045   -0.9488   -1.3421 H   0  0  0  0  0  0  0  0  0  0  0  0
   -1.2135   -2.4324   -0.3077 H   0  0  0  0  0  0  0  0  0  0  0  0
   -3.5728   -1.8026   -0.1609 H   0  0  0  0  0  0  0  0  0  0  0  0
   -4.2048    0.5834    0.1172 H   0  0  0  0  0  0  0  0  0  0  0  0
   -2.4416    2.3026    0.2451 H   0  0  0  0  0  0  0  0  0  0  0  0
    0.2861    2.3153    1.1932 H   0  0  0  0  0  0  0  0  0  0  0  0
   -0.0994    2.8833   -0.4094 H   0  0  0  0  0  0  0  0  0  0  0  0
    2.3451    2.2901   -0.0485 H   0  0  0  0  0  0  0  0  0  0  0  0
    1.6180    1.4677   -1.4179 H   0  0  0  0  0  0  0  0  0  0  0  0
    1.7866    0.2608    1.3694 H   0  0  0  0  0  0  0  0  0  0  0  0
    3.9498    0.4980    0.3317 H   0  0  0  0  0  0  0  0  0  0  0  0
    3.5368   -1.0625    0.3577 H   0  0  0  0  0  0  0  0  0  0  0  0
  1  2  1  0
  1 13  1  0
  2  3  1  0
  2 11  1  0
  2 14  1  6
  3  4  1  0
  3  8  2  0
  4  5  2  0
  4 15  1  0
  5  6  1  0
  5 16  1  0
  6  7  2  0
  6 17  1  0
  7  8  1  0
  7 18  1  0
  8  9  1  0
  9 10  1  0
  9 19  1  0
  9 20  1  0
 10 11  1  0
 10 21  1  0
 10 22  1  0
 11 12  1  0
 11 23  1  1
 12 24  1  0
 12 25  1  0
M  END
