
     RDKit          3D

 62 66  0  0  0  0  0  0  0  0999 V2000
   -3.6908   -1.9315    0.5857 C   0  0  2  0  0  0  0  0  0  0  0  0
   -4.4498   -2.0960   -0.7282 C   0  0  2  0  0  0  0  0  0  0  0  0
   -5.5347   -2.9407   -0.4623 O   0  0  0  0  0  0  0  0  0  0  0  0
   -3.3946   -2.7837   -1.5925 C   0  0  2  0  0  0  0  0  0  0  0  0
   -3.9942   -3.4779   -2.6446 O   0  0  0  0  0  0  0  0  0  0  0  0
   -2.6891   -3.6898   -0.5623 C   0  0  2  0  0  0  0  0  0  0  0  0
   -1.5479    3.8014    1.1726 C   0  0  0  0  0  0  0  0  0  0  0  0
   -1.2381    0.7635    0.4030 N   0  0  0  0  0  0  0  0  0  0  0  0
   -1.6248   -0.4684    0.2541 C   0  0  0  0  0  0  0  0  0  0  0  0
   -2.9263   -0.6873    0.6174 N   0  0  0  0  0  0  0  0  0  0  0  0
   -3.4051    0.5194    1.0321 C   0  0  0  0  0  0  0  0  0  0  0  0
   -2.3410    1.4149    0.8937 C   0  0  0  0  0  0  0  0  0  0  0  0
   -2.8282   -3.0201    0.6880 O   0  0  0  0  0  0  0  0  0  0  0  0
   -1.2544   -3.9396   -0.8893 C   0  0  0  0  0  0  0  0  0  0  0  0
   -0.2275   -3.7485   -0.0696 C   0  0  0  0  0  0  0  0  0  0  0  0
    1.2054   -3.9164   -0.4726 C   0  0  0  0  0  0  0  0  0  0  0  0
    1.9089   -2.6512   -0.3543 N   0  0  0  0  0  0  0  0  0  0  0  0
    2.6125   -2.2880    0.7199 C   0  0  0  0  0  0  0  0  0  0  0  0
    2.8249   -3.0705    1.6577 O   0  0  0  0  0  0  0  0  0  0  0  0
    3.1617   -0.9086    0.7628 C   0  0  0  0  0  0  0  0  0  0  0  0
    2.7043    0.1196   -0.0673 C   0  0  0  0  0  0  0  0  0  0  0  0
    3.2463    1.3918    0.0000 C   0  0  0  0  0  0  0  0  0  0  0  0
    4.2765    1.6357    0.9153 C   0  0  0  0  0  0  0  0  0  0  0  0
    2.7429    2.4762   -0.8664 C   0  0  0  0  0  0  0  0  0  0  0  0
    3.6171    3.3994   -1.4417 C   0  0  0  0  0  0  0  0  0  0  0  0
    3.1516    4.4185   -2.2589 C   0  0  0  0  0  0  0  0  0  0  0  0
    1.3774    2.6037   -1.1274 C   0  0  0  0  0  0  0  0  0  0  0  0
    0.8956    3.6148   -1.9455 C   0  0  0  0  0  0  0  0  0  0  0  0
    1.7941    4.5056   -2.4992 C   0  0  0  0  0  0  0  0  0  0  0  0
    1.3345    5.4870   -3.2929 F   0  0  0  0  0  0  0  0  0  0  0  0
    4.1626   -0.6403    1.7023 C   0  0  0  0  0  0  0  0  0  0  0  0
    4.6305   -1.5409    2.5729 O   0  0  0  0  0  0  0  0  0  0  0  0
    4.7352    0.6420    1.7546 C   0  0  0  0  0  0  0  0  0  0  0  0
    5.7144    0.9241    2.6347 O   0  0  0  0  0  0  0  0  0  0  0  0
   -2.5801    2.7316    1.2715 C   0  0  0  0  0  0  0  0  0  0  0  0
   -3.7927    3.0397    1.7287 N   0  0  0  0  0  0  0  0  0  0  0  0
   -4.7270    2.0935    1.8086 C   0  0  0  0  0  0  0  0  0  0  0  0
   -4.6117    0.8153    1.4804 N   0  0  0  0  0  0  0  0  0  0  0  0
   -4.3701   -1.9007    1.4409 H   0  0  0  0  0  0  0  0  0  0  0  0
   -4.7664   -1.1316   -1.1426 H   0  0  0  0  0  0  0  0  0  0  0  0
   -5.9008   -3.2450   -1.3001 H   0  0  0  0  0  0  0  0  0  0  0  0
   -2.6924   -2.0294   -1.9704 H   0  0  0  0  0  0  0  0  0  0  0  0
   -3.3402   -3.6493   -3.3287 H   0  0  0  0  0  0  0  0  0  0  0  0
   -3.2288   -4.6446   -0.5190 H   0  0  0  0  0  0  0  0  0  0  0  0
   -1.6454    4.3292    0.2214 H   0  0  0  0  0  0  0  0  0  0  0  0
   -1.6726    4.5321    1.9693 H   0  0  0  0  0  0  0  0  0  0  0  0
   -0.5412    3.3901    1.2140 H   0  0  0  0  0  0  0  0  0  0  0  0
   -0.9957   -1.2655   -0.1130 H   0  0  0  0  0  0  0  0  0  0  0  0
   -1.0762   -4.2968   -1.9012 H   0  0  0  0  0  0  0  0  0  0  0  0
   -0.3895   -3.4121    0.9500 H   0  0  0  0  0  0  0  0  0  0  0  0
    1.7049   -4.6541    0.1540 H   0  0  0  0  0  0  0  0  0  0  0  0
    1.2860   -4.2547   -1.5054 H   0  0  0  0  0  0  0  0  0  0  0  0
    1.7999   -2.0039   -1.1173 H   0  0  0  0  0  0  0  0  0  0  0  0
    1.9121   -0.0626   -0.7820 H   0  0  0  0  0  0  0  0  0  0  0  0
    4.7083    2.6259    1.0013 H   0  0  0  0  0  0  0  0  0  0  0  0
    4.6826    3.3189   -1.2672 H   0  0  0  0  0  0  0  0  0  0  0  0
    3.8366    5.1259   -2.7077 H   0  0  0  0  0  0  0  0  0  0  0  0
    0.6684    1.9266   -0.6637 H   0  0  0  0  0  0  0  0  0  0  0  0
   -0.1649    3.7120   -2.1387 H   0  0  0  0  0  0  0  0  0  0  0  0
    4.0558   -2.3423    2.4845 H   0  0  0  0  0  0  0  0  0  0  0  0
    5.9014    0.1559    3.1885 H   0  0  0  0  0  0  0  0  0  0  0  0
   -5.6922    2.4071    2.1887 H   0  0  0  0  0  0  0  0  0  0  0  0
  1  2  1  0
  1 10  1  0
  1 13  1  0
  2  3  1  0
  2  4  1  0
  4  5  1  0
  4  6  1  0
  6 13  1  0
  6 14  1  0
  7 35  1  0
  8  9  2  0
  8 12  1  0
  9 10  1  0
 10 11  1  0
 11 12  2  0
 11 38  1  0
 12 35  1  0
 14 15  2  0
 15 16  1  0
 16 17  1  0
 17 18  1  0
 18 19  2  0
 18 20  1  0
 20 21  2  0
 20 31  1  0
 21 22  1  0
 22 23  2  0
 22 24  1  0
 23 33  1  0
 24 25  2  0
 24 27  1  0
 25 26  1  0
 26 29  2  0
 27 28  2  0
 28 29  1  0
 29 30  1  0
 31 32  1  0
 31 33  2  0
 33 34  1  0
 35 36  2  0
 36 37  1  0
 37 38  2  0
  1 39  1  1
  2 40  1  6
  3 41  1  0
  4 42  1  6
  5 43  1  0
  6 44  1  1
  7 45  1  0
  7 46  1  0
  7 47  1  0
  9 48  1  0
 14 49  1  0
 15 50  1  0
 16 51  1  0
 16 52  1  0
 17 53  1  0
 21 54  1  0
 23 55  1  0
 25 56  1  0
 26 57  1  0
 27 58  1  0
 28 59  1  0
 32 60  1  0
 34 61  1  0
 37 62  1  0
M  END
