
     RDKit          3D

 19 20  0  0  0  0  0  0  0  0999 V2000
    1.4904   -2.7658   -0.0195 O   0  0  0  0  0  0  0  0  0  0  0  0
    1.1572   -1.6044   -0.0142 C   0  0  0  0  0  0  0  0  0  0  0  0
    2.0474   -0.5448   -0.0155 N   0  0  0  0  0  0  0  0  0  0  0  0
   -0.2067   -1.0681   -0.0066 C   0  0  0  0  0  0  0  0  0  0  0  0
   -1.4050   -1.7725   -0.0104 C   0  0  0  0  0  0  0  0  0  0  0  0
   -2.5966   -1.0816   -0.0049 C   0  0  0  0  0  0  0  0  0  0  0  0
   -2.6362    0.3320    0.0060 C   0  0  0  0  0  0  0  0  0  0  0  0
   -3.8082    0.9855    0.0143 N   0  0  0  0  0  0  0  0  0  0  0  0
   -1.4177    1.0465    0.0092 C   0  0  0  0  0  0  0  0  0  0  0  0
   -0.2600    0.3161    0.0023 C   0  0  0  0  0  0  0  0  0  0  0  0
    1.3709    0.9860    0.0003 S   0  0  1  0  0  0  0  0  0  0  0  0
    1.6731    1.6646    1.2450 O   0  0  0  0  0  0  0  0  0  0  0  0
    1.6612    1.6835   -1.2368 O   0  0  0  0  0  0  0  0  0  0  0  0
    3.0536   -0.6676   -0.0094 H   0  0  0  0  0  0  0  0  0  0  0  0
   -1.4081   -2.8544   -0.0185 H   0  0  0  0  0  0  0  0  0  0  0  0
   -3.5302   -1.6299   -0.0093 H   0  0  0  0  0  0  0  0  0  0  0  0
   -4.6822    0.4904    0.0033 H   0  0  0  0  0  0  0  0  0  0  0  0
   -3.8480    1.9893    0.0169 H   0  0  0  0  0  0  0  0  0  0  0  0
   -1.4138    2.1291    0.0171 H   0  0  0  0  0  0  0  0  0  0  0  0
  1  2  2  0
  2  3  1  0
  2  4  1  0
 11  3  1  6
  4  5  1  0
  4 10  2  0
  5  6  2  0
  6  7  1  0
  7  8  1  0
  7  9  2  0
  9 10  1  0
 10 11  1  0
 11 12  2  0
 11 13  2  0
  3 14  1  0
  5 15  1  0
  6 16  1  0
  8 17  1  0
  8 18  1  0
  9 19  1  0
M  END
