
     RDKit          3D

 53 55  0  0  0  0  0  0  0  0999 V2000
   -9.9804   -1.3167    2.5618 N   0  0  0  0  0  0  0  0  0  0  0  0
   -9.0738   -1.0435    1.9053 C   0  0  0  0  0  0  0  0  0  0  0  0
   -7.9498   -0.7063    1.0920 C   0  0  0  0  0  0  0  0  0  0  0  0
   -7.6469    0.6335    0.8520 C   0  0  0  0  0  0  0  0  0  0  0  0
   -6.5580    0.9504    0.0595 C   0  0  0  0  0  0  0  0  0  0  0  0
   -7.1682   -1.7205    0.5399 C   0  0  0  0  0  0  0  0  0  0  0  0
   -6.0829   -1.3856   -0.2504 C   0  0  0  0  0  0  0  0  0  0  0  0
   -5.7714   -0.0525   -0.4993 C   0  0  0  0  0  0  0  0  0  0  0  0
   -4.5742    0.3002   -1.3300 C   0  0  0  0  0  0  0  0  0  0  0  0
   -2.0070    0.9313   -2.3010 C   0  0  0  0  0  0  0  0  0  0  0  0
   -2.2653    0.7450   -0.9217 C   0  0  0  0  0  0  0  0  0  0  0  0
   -1.2474    0.8913   -0.0087 C   0  0  0  0  0  0  0  0  0  0  0  0
   -0.7475    1.2505   -2.7283 C   0  0  0  0  0  0  0  0  0  0  0  0
    0.3179    1.4042   -1.8175 C   0  0  0  0  0  0  0  0  0  0  0  0
    0.0533    1.2195   -0.4353 C   0  0  0  0  0  0  0  0  0  0  0  0
    1.1145    1.3689    0.4864 C   0  0  0  0  0  0  0  0  0  0  0  0
    1.6236    1.7421   -2.2375 C   0  0  0  0  0  0  0  0  0  0  0  0
    2.6393    1.8859   -1.3347 C   0  0  0  0  0  0  0  0  0  0  0  0
    2.3670    1.6840    0.0353 C   0  0  0  0  0  0  0  0  0  0  0  0
    3.7031    1.7349    1.1999 S   0  0  1  0  0  0  0  0  0  0  0  0
    4.7976    2.4586    0.5750 O   0  0  0  0  0  0  0  0  0  0  0  0
    3.1816    2.1475    2.4905 O   0  0  0  0  0  0  0  0  0  0  0  0
    4.1915    0.1872    1.3796 N   0  0  0  0  0  0  0  0  0  0  0  0
    4.9323   -0.5147    0.3606 C   0  0  1  0  0  0  0  0  0  0  0  0
    6.3934   -0.6377    0.7764 C   0  0  0  0  0  0  0  0  0  0  0  0
    6.8200   -0.3629    1.8648 O   0  0  0  0  0  0  0  0  0  0  0  0
    7.1333   -1.0991   -0.2211 O   0  0  0  0  0  0  0  0  0  0  0  0
    4.3256   -1.8910    0.0660 C   0  0  0  0  0  0  0  0  0  0  0  0
    2.8900   -1.7776   -0.4205 C   0  0  0  0  0  0  0  0  0  0  0  0
    2.3065   -3.1043   -0.8212 C   0  0  0  0  0  0  0  0  0  0  0  0
    2.8803   -4.1627   -0.7554 O   0  0  0  0  0  0  0  0  0  0  0  0
    1.0597   -2.9777   -1.2590 O   0  0  0  0  0  0  0  0  0  0  0  0
   -3.4781    0.4223   -0.4336 O   0  0  0  0  0  0  0  0  0  0  0  0
   -8.2595    1.4157    1.2787 H   0  0  0  0  0  0  0  0  0  0  0  0
   -7.4104   -2.7576    0.7264 H   0  0  0  0  0  0  0  0  0  0  0  0
   -6.3232    1.9901   -0.1308 H   0  0  0  0  0  0  0  0  0  0  0  0
   -5.4769   -2.1720   -0.6822 H   0  0  0  0  0  0  0  0  0  0  0  0
   -4.3842   -0.4806   -2.0728 H   0  0  0  0  0  0  0  0  0  0  0  0
   -4.7436    1.2414   -1.8618 H   0  0  0  0  0  0  0  0  0  0  0  0
   -0.5629    1.3888   -3.7862 H   0  0  0  0  0  0  0  0  0  0  0  0
   -1.4449    0.7501    1.0472 H   0  0  0  0  0  0  0  0  0  0  0  0
    1.8156    1.8937   -3.2923 H   0  0  0  0  0  0  0  0  0  0  0  0
    0.9191    1.2189    1.5412 H   0  0  0  0  0  0  0  0  0  0  0  0
    3.6293    2.1620   -1.6685 H   0  0  0  0  0  0  0  0  0  0  0  0
    3.7129   -0.3497    2.0914 H   0  0  0  0  0  0  0  0  0  0  0  0
    4.9114    0.0623   -0.5698 H   0  0  0  0  0  0  0  0  0  0  0  0
    4.9361   -2.3798   -0.6925 H   0  0  0  0  0  0  0  0  0  0  0  0
    4.3754   -2.5126    0.9633 H   0  0  0  0  0  0  0  0  0  0  0  0
    8.0565   -1.1922    0.0591 H   0  0  0  0  0  0  0  0  0  0  0  0
    2.2405   -1.3528    0.3491 H   0  0  0  0  0  0  0  0  0  0  0  0
    2.8168   -1.0945   -1.2729 H   0  0  0  0  0  0  0  0  0  0  0  0
    0.7049   -3.8464   -1.5002 H   0  0  0  0  0  0  0  0  0  0  0  0
   -2.7936    0.8260   -3.0351 H   0  0  0  0  0  0  0  0  0  0  0  0
  1  2  3  0
  2  3  1  0
  3  4  2  0
  3  6  1  0
  4  5  1  0
  5  8  2  0
  6  7  2  0
  7  8  1  0
  8  9  1  0
  9 33  1  0
 10 11  2  0
 10 13  1  0
 11 12  1  0
 11 33  1  0
 12 15  2  0
 13 14  2  0
 14 15  1  0
 14 17  1  0
 15 16  1  0
 16 19  2  0
 17 18  2  0
 18 19  1  0
 19 20  1  0
 20 21  2  0
 20 22  2  0
 20 23  1  1
 23 24  1  0
 24 25  1  0
 24 28  1  0
 25 26  2  0
 25 27  1  0
 28 29  1  0
 29 30  1  0
 30 31  2  0
 30 32  1  0
  4 34  1  0
  6 35  1  0
  5 36  1  0
  7 37  1  0
  9 38  1  0
  9 39  1  0
 10 53  1  0
 13 40  1  0
 12 41  1  0
 17 42  1  0
 16 43  1  0
 18 44  1  0
 23 45  1  0
 24 46  1  6
 28 47  1  0
 28 48  1  0
 27 49  1  0
 29 50  1  0
 29 51  1  0
 32 52  1  0
M  END
