
     RDKit          3D

 15 15  0  0  0  0  0  0  0  0999 V2000
    0.0030    0.0235    2.4505 C   0  0  0  0  0  0  0  0  0  0  0  0
    0.0089   -0.0109    0.9493 C   0  0  0  0  0  0  0  0  0  0  0  0
    1.2084   -0.0037    0.2389 C   0  0  0  0  0  0  0  0  0  0  0  0
    1.2169   -0.0059   -1.1495 C   0  0  0  0  0  0  0  0  0  0  0  0
    0.0203   -0.0176   -1.8549 C   0  0  0  0  0  0  0  0  0  0  0  0
   -1.1816   -0.0288   -1.1597 C   0  0  0  0  0  0  0  0  0  0  0  0
   -1.1843   -0.0264    0.2292 C   0  0  0  0  0  0  0  0  0  0  0  0
    0.8744   -0.4820    2.8661 H   0  0  0  0  0  0  0  0  0  0  0  0
    0.0210    1.0520    2.8175 H   0  0  0  0  0  0  0  0  0  0  0  0
   -0.8894   -0.4501    2.8589 H   0  0  0  0  0  0  0  0  0  0  0  0
    2.1478    0.0005    0.7800 H   0  0  0  0  0  0  0  0  0  0  0  0
    2.1598   -0.0019   -1.6819 H   0  0  0  0  0  0  0  0  0  0  0  0
    0.0252   -0.0220   -2.9372 H   0  0  0  0  0  0  0  0  0  0  0  0
   -2.1203   -0.0431   -1.6990 H   0  0  0  0  0  0  0  0  0  0  0  0
   -2.1281   -0.0405    0.7623 H   0  0  0  0  0  0  0  0  0  0  0  0
  1  2  1  0
  1  8  1  0
  1  9  1  0
  1 10  1  0
  2  3  2  0
  2  7  1  0
  3  4  1  0
  3 11  1  0
  4  5  2  0
  4 12  1  0
  5  6  1  0
  5 13  1  0
  6  7  2  0
  6 14  1  0
  7 15  1  0
M  END
