
     RDKit          3D

 30 31  0  0  0  0  0  0  0  0999 V2000
    6.7077    0.2990    0.1035 C   0  0  0  0  0  0  0  0  0  0  0  0
   -4.6507   -0.6188    1.3990 C   0  0  0  0  0  0  0  0  0  0  0  0
   -2.1193   -1.7201   -0.2958 O   0  0  0  0  0  0  0  0  0  0  0  0
   -4.4625   -0.0298   -1.1628 O   0  0  0  0  0  0  0  0  0  0  0  0
   -4.4446    1.8469    0.4993 O   0  0  0  0  0  0  0  0  0  0  0  0
    4.0604    1.2127   -0.1086 C   0  0  0  0  0  0  0  0  0  0  0  0
    2.7542    1.6491   -0.1906 C   0  0  0  0  0  0  0  0  0  0  0  0
    3.3615   -1.0989    0.1386 C   0  0  0  0  0  0  0  0  0  0  0  0
    0.7825   -1.3541    0.0692 C   0  0  0  0  0  0  0  0  0  0  0  0
   -2.4107    0.4599    0.2613 N   0  0  0  0  0  0  0  0  0  0  0  0
    0.3847    0.8440   -0.1407 N   0  0  0  0  0  0  0  0  0  0  0  0
    5.6373   -0.6210    0.1482 O   0  0  0  0  0  0  0  0  0  0  0  0
   -1.6373   -0.6345   -0.0532 C   0  0  0  0  0  0  0  0  0  0  0  0
    4.3695   -0.1556    0.0593 C   0  0  0  0  0  0  0  0  0  0  0  0
   -0.1919   -0.3975   -0.0540 C   0  0  0  0  0  0  0  0  0  0  0  0
    2.0309   -0.6737    0.0478 C   0  0  0  0  0  0  0  0  0  0  0  0
    1.7409    0.6992   -0.1038 C   0  0  0  0  0  0  0  0  0  0  0  0
   -4.0885    0.4876    0.1372 S   0  0  1  0  0  0  0  0  0  0  0  0
    6.6632    1.0241    0.9205 H   0  0  0  0  0  0  0  0  0  0  0  0
    7.6197   -0.2845    0.2062 H   0  0  0  0  0  0  0  0  0  0  0  0
    6.7474    0.8405   -0.8454 H   0  0  0  0  0  0  0  0  0  0  0  0
   -4.2656   -0.2834    2.3584 H   0  0  0  0  0  0  0  0  0  0  0  0
   -5.7390   -0.5761    1.3945 H   0  0  0  0  0  0  0  0  0  0  0  0
   -4.3165   -1.6279    1.1768 H   0  0  0  0  0  0  0  0  0  0  0  0
    4.8474    1.9507   -0.1730 H   0  0  0  0  0  0  0  0  0  0  0  0
    2.5358    2.7016   -0.3147 H   0  0  0  0  0  0  0  0  0  0  0  0
    3.6028   -2.1472    0.2654 H   0  0  0  0  0  0  0  0  0  0  0  0
    0.6167   -2.4125    0.1927 H   0  0  0  0  0  0  0  0  0  0  0  0
   -2.0015    1.2832    0.6869 H   0  0  0  0  0  0  0  0  0  0  0  0
   -0.0865    1.6955   -0.4016 H   0  0  0  0  0  0  0  0  0  0  0  0
 12  1  1  0
  1 19  1  0
  1 20  1  0
  1 21  1  0
 18  2  1  0
  2 22  1  0
  2 23  1  0
  2 24  1  0
 13  3  2  0
 18  4  2  0
 18  5  2  0
  6 14  2  0
  6  7  1  0
  6 25  1  0
  7 17  2  0
  7 26  1  0
 14  8  1  0
  8 16  2  0
  8 27  1  0
 16  9  1  0
  9 15  2  0
  9 28  1  0
 13 10  1  0
 18 10  1  6
 10 29  1  0
 17 11  1  0
 11 15  1  0
 12 14  1  0
 15 13  1  0
 17 16  1  0
 11 30  1  0
M  END
