
     RDKit          3D

 36 37  0  0  0  0  0  0  0  0999 V2000
   -2.4470   -1.3054    0.9996 C   0  0  0  0  0  0  0  0  0  0  0  0
    1.8334   -0.3250    1.1485 C   0  0  0  0  0  0  0  0  0  0  0  0
    4.0072   -0.2492    0.1136 C   0  0  0  0  0  0  0  0  0  0  0  0
    2.0360   -0.6550   -1.2073 C   0  0  0  0  0  0  0  0  0  0  0  0
   -0.7273    3.7304    1.2079 C   0  0  0  0  0  0  0  0  0  0  0  0
   -1.3313    2.5254    0.5295 C   0  0  0  0  0  0  0  0  0  0  0  0
   -2.5261    2.2726    0.6188 O   0  0  0  0  0  0  0  0  0  0  0  0
   -0.4656    1.7736   -0.1734 N   0  0  0  0  0  0  0  0  0  0  0  0
   -0.8110    0.5743   -0.8943 C   0  0  0  0  0  0  0  0  0  0  0  0
   -0.2931   -0.7155   -0.2165 C   0  0  2  0  0  0  0  0  0  0  0  0
   -0.6386   -1.9280   -1.1027 C   0  0  0  0  0  0  0  0  0  0  0  0
   -2.1243   -2.2580   -1.1037 C   0  0  0  0  0  0  0  0  0  0  0  0
   -2.6289   -2.4515    0.1975 O   0  0  0  0  0  0  0  0  0  0  0  0
   -0.9800   -0.9314    1.1388 C   0  0  0  0  0  0  0  0  0  0  0  0
    1.2192   -0.5817   -0.0760 C   0  0  0  0  0  0  0  0  0  0  0  0
    3.2110   -0.1634    1.2448 C   0  0  0  0  0  0  0  0  0  0  0  0
    3.4106   -0.4944   -1.1166 C   0  0  0  0  0  0  0  0  0  0  0  0
   -3.0229   -0.4581    0.6028 H   0  0  0  0  0  0  0  0  0  0  0  0
   -2.8598   -1.5372    1.9830 H   0  0  0  0  0  0  0  0  0  0  0  0
    1.2422   -0.2482    2.0511 H   0  0  0  0  0  0  0  0  0  0  0  0
    5.0801   -0.1270    0.1869 H   0  0  0  0  0  0  0  0  0  0  0  0
    1.6032   -0.8404   -2.1830 H   0  0  0  0  0  0  0  0  0  0  0  0
   -1.2008    4.6351    0.8266 H   0  0  0  0  0  0  0  0  0  0  0  0
   -0.9317    3.6831    2.2771 H   0  0  0  0  0  0  0  0  0  0  0  0
    0.3481    3.8206    1.0665 H   0  0  0  0  0  0  0  0  0  0  0  0
    0.5004    2.0567   -0.1923 H   0  0  0  0  0  0  0  0  0  0  0  0
   -1.8933    0.5511   -1.0073 H   0  0  0  0  0  0  0  0  0  0  0  0
   -0.3928    0.6403   -1.9016 H   0  0  0  0  0  0  0  0  0  0  0  0
   -0.3273   -1.7626   -2.1372 H   0  0  0  0  0  0  0  0  0  0  0  0
   -0.0803   -2.7970   -0.7422 H   0  0  0  0  0  0  0  0  0  0  0  0
   -2.6929   -1.4729   -1.6227 H   0  0  0  0  0  0  0  0  0  0  0  0
   -2.2935   -3.1851   -1.6546 H   0  0  0  0  0  0  0  0  0  0  0  0
   -0.9090   -0.0404    1.7669 H   0  0  0  0  0  0  0  0  0  0  0  0
   -0.4658   -1.7335    1.6772 H   0  0  0  0  0  0  0  0  0  0  0  0
    3.6582    0.0335    2.2109 H   0  0  0  0  0  0  0  0  0  0  0  0
    4.0180   -0.5605   -2.0104 H   0  0  0  0  0  0  0  0  0  0  0  0
  7  6  2  0
  5  6  1  0
  6  8  1  0
  8  9  1  0
 10  9  1  6
 10 11  1  0
 10 14  1  0
 10 15  1  0
 11 12  1  0
 14  1  1  0
  1 13  1  0
 12 13  1  0
 15  2  2  0
 15  4  1  0
  2 16  1  0
  4 17  2  0
 16  3  2  0
 17  3  1  0
  1 18  1  0
  1 19  1  0
  2 20  1  0
  3 21  1  0
  4 22  1  0
  5 23  1  0
  5 24  1  0
  5 25  1  0
  8 26  1  0
  9 27  1  0
  9 28  1  0
 11 29  1  0
 11 30  1  0
 12 31  1  0
 12 32  1  0
 14 33  1  0
 14 34  1  0
 16 35  1  0
 17 36  1  0
M  END
