
     RDKit          3D

 46 49  0  0  0  0  0  0  0  0999 V2000
    1.9613    0.9729   -0.8489 C   0  0  0  0  0  0  0  0  0  0  0  0
    3.3303    0.9531   -0.6292 C   0  0  0  0  0  0  0  0  0  0  0  0
    3.9082   -0.0833    0.0942 C   0  0  0  0  0  0  0  0  0  0  0  0
    3.1082   -1.1031    0.5896 C   0  0  0  0  0  0  0  0  0  0  0  0
    1.7397   -1.0910    0.3571 C   0  0  0  0  0  0  0  0  0  0  0  0
    1.1481   -0.0496   -0.3597 C   0  0  0  0  0  0  0  0  0  0  0  0
   -0.3050   -0.0284   -0.5827 C   0  0  0  0  0  0  0  0  0  0  0  0
   -1.3296    0.0055    0.4168 C   0  0  0  0  0  0  0  0  0  0  0  0
   -1.4091    0.0571    1.8297 C   0  0  0  0  0  0  0  0  0  0  0  0
   -0.3230    0.1098    2.6126 N   0  0  0  0  0  0  0  0  0  0  0  0
   -0.3619    0.0532    4.0545 C   0  0  0  0  0  0  0  0  0  0  0  0
    0.9611    0.5415    4.6344 C   0  0  1  0  0  0  0  0  0  0  0  0
    0.9539    0.4366    6.1501 C   0  0  0  0  0  0  0  0  0  0  0  0
    2.0593   -0.1350    4.0519 O   0  0  0  0  0  0  0  0  0  0  0  0
   -2.6129    0.0766    2.4087 N   0  0  0  0  0  0  0  0  0  0  0  0
   -3.6993    0.0879    1.6392 C   0  0  0  0  0  0  0  0  0  0  0  0
   -3.7654    0.0877    0.3240 N   0  0  0  0  0  0  0  0  0  0  0  0
   -2.5586    0.0528   -0.2479 C   0  0  0  0  0  0  0  0  0  0  0  0
   -2.3091    0.0617   -1.5762 N   0  0  0  0  0  0  0  0  0  0  0  0
   -0.9516    0.0031   -1.7980 C   0  0  0  0  0  0  0  0  0  0  0  0
   -0.4183   -0.0130   -3.1586 C   0  0  0  0  0  0  0  0  0  0  0  0
   -1.0408    0.7207   -4.1718 C   0  0  0  0  0  0  0  0  0  0  0  0
   -0.5390    0.7064   -5.4648 C   0  0  0  0  0  0  0  0  0  0  0  0
    0.5935   -0.0375   -5.7673 C   0  0  0  0  0  0  0  0  0  0  0  0
    1.2172   -0.7729   -4.7669 C   0  0  0  0  0  0  0  0  0  0  0  0
    0.7148   -0.7658   -3.4755 C   0  0  0  0  0  0  0  0  0  0  0  0
    1.5141    1.7916   -1.3987 H   0  0  0  0  0  0  0  0  0  0  0  0
    3.9469    1.7539   -1.0167 H   0  0  0  0  0  0  0  0  0  0  0  0
    4.9756   -0.0934    0.2724 H   0  0  0  0  0  0  0  0  0  0  0  0
    3.5491   -1.9163    1.1511 H   0  0  0  0  0  0  0  0  0  0  0  0
    1.1274   -1.9060    0.7259 H   0  0  0  0  0  0  0  0  0  0  0  0
    0.5814   -0.0252    2.1870 H   0  0  0  0  0  0  0  0  0  0  0  0
   -0.5688   -0.9673    4.4040 H   0  0  0  0  0  0  0  0  0  0  0  0
   -1.1703    0.6826    4.4261 H   0  0  0  0  0  0  0  0  0  0  0  0
    1.0906    1.5898    4.3496 H   0  0  0  0  0  0  0  0  0  0  0  0
    1.8898    0.8058    6.5693 H   0  0  0  0  0  0  0  0  0  0  0  0
    0.1408    1.0263    6.5749 H   0  0  0  0  0  0  0  0  0  0  0  0
    0.8196   -0.5980    6.4755 H   0  0  0  0  0  0  0  0  0  0  0  0
    2.0229   -1.0615    4.3150 H   0  0  0  0  0  0  0  0  0  0  0  0
   -4.6468    0.1031    2.1686 H   0  0  0  0  0  0  0  0  0  0  0  0
   -3.0182    0.0227   -2.2917 H   0  0  0  0  0  0  0  0  0  0  0  0
   -1.9128    1.3243   -3.9510 H   0  0  0  0  0  0  0  0  0  0  0  0
   -1.0308    1.2862   -6.2347 H   0  0  0  0  0  0  0  0  0  0  0  0
    0.9860   -0.0467   -6.7756 H   0  0  0  0  0  0  0  0  0  0  0  0
    2.0958   -1.3627   -4.9936 H   0  0  0  0  0  0  0  0  0  0  0  0
    1.1992   -1.3602   -2.7123 H   0  0  0  0  0  0  0  0  0  0  0  0
  1  2  2  0
  1  6  1  0
  1 27  1  0
  2  3  1  0
  2 28  1  0
  3  4  2  0
  3 29  1  0
  4  5  1  0
  4 30  1  0
  5  6  2  0
  5 31  1  0
  6  7  1  0
  7  8  1  0
  7 20  2  0
  8  9  2  0
  8 18  1  0
  9 10  1  0
  9 15  1  0
 10 11  1  0
 10 32  1  0
 11 12  1  0
 11 33  1  0
 11 34  1  0
 12 13  1  0
 12 14  1  0
 12 35  1  1
 13 36  1  0
 13 37  1  0
 13 38  1  0
 14 39  1  0
 15 16  2  0
 16 17  1  0
 16 40  1  0
 17 18  2  0
 18 19  1  0
 19 20  1  0
 19 41  1  0
 20 21  1  0
 21 22  2  0
 21 26  1  0
 22 23  1  0
 22 42  1  0
 23 24  2  0
 23 43  1  0
 24 25  1  0
 24 44  1  0
 25 26  2  0
 25 45  1  0
 26 46  1  0
M  END
