
     RDKit          3D

118125  0  0  0  0  0  0  0  0999 V2000
   -9.9881    2.6036   -1.6520 C   0  0  0  0  0  0  0  0  0  0  0  0
  -11.4793    2.8388   -1.7942 C   0  0  0  0  0  0  0  0  0  0  0  0
  -11.9498    2.4324   -3.0602 O   0  0  0  0  0  0  0  0  0  0  0  0
  -11.6553    1.0727   -3.2897 C   0  0  0  0  0  0  0  0  0  0  0  0
  -10.1688    0.7938   -3.1771 C   0  0  0  0  0  0  0  0  0  0  0  0
   -9.6780    1.2017   -1.8720 N   0  0  0  0  0  0  0  0  0  0  0  0
   -8.2634    0.9364   -1.7015 C   0  0  0  0  0  0  0  0  0  0  0  0
   -7.9614   -0.5459   -1.5223 C   0  0  0  0  0  0  0  0  0  0  0  0
   -6.4687   -0.8172   -1.3477 C   0  0  2  0  0  0  0  0  0  0  0  0
   -6.1946   -2.3175   -1.3158 C   0  0  0  0  0  0  0  0  0  0  0  0
   -4.4167   -2.5718   -1.0626 S   0  0  0  0  0  0  0  0  0  0  0  0
   -4.1817   -4.2732   -1.4568 C   0  0  0  0  0  0  0  0  0  0  0  0
   -2.8609   -4.7033   -1.6028 C   0  0  0  0  0  0  0  0  0  0  0  0
   -2.5875   -6.0309   -1.8887 C   0  0  0  0  0  0  0  0  0  0  0  0
   -3.6220   -6.9467   -2.0413 C   0  0  0  0  0  0  0  0  0  0  0  0
   -4.9333   -6.5189   -1.8969 C   0  0  0  0  0  0  0  0  0  0  0  0
   -5.2187   -5.1916   -1.6005 C   0  0  0  0  0  0  0  0  0  0  0  0
   -5.9514   -0.2147   -0.1296 N   0  0  0  0  0  0  0  0  0  0  0  0
   -5.1690    0.8662   -0.0230 C   0  0  0  0  0  0  0  0  0  0  0  0
   -4.6743    1.3379    1.2303 C   0  0  0  0  0  0  0  0  0  0  0  0
   -3.8095    2.4235    1.3174 C   0  0  0  0  0  0  0  0  0  0  0  0
   -5.1336    0.6293    2.7633 S   0  0  1  0  0  0  0  0  0  0  0  0
   -5.5156   -0.7668    2.6052 O   0  0  0  0  0  0  0  0  0  0  0  0
   -4.2032    1.0233    3.8029 O   0  0  0  0  0  0  0  0  0  0  0  0
   -6.7087    1.5247    3.1546 C   0  0  1  0  0  0  0  0  0  0  0  0
   -6.4580    2.8113    3.3153 F   0  0  0  0  0  0  0  0  0  0  0  0
   -7.5686    1.3659    2.1602 F   0  0  0  0  0  0  0  0  0  0  0  0
   -7.2178    1.0256    4.2651 F   0  0  0  0  0  0  0  0  0  0  0  0
   -4.7829    1.6212   -1.1572 C   0  0  0  0  0  0  0  0  0  0  0  0
   -3.9372    2.6927   -1.0648 C   0  0  0  0  0  0  0  0  0  0  0  0
   -3.4264    3.0885    0.1751 C   0  0  0  0  0  0  0  0  0  0  0  0
   -2.3020    4.4254    0.3048 S   0  0  1  0  0  0  0  0  0  0  0  0
   -2.4107    5.2476   -0.8798 O   0  0  0  0  0  0  0  0  0  0  0  0
   -2.4126    5.0157    1.6250 O   0  0  0  0  0  0  0  0  0  0  0  0
   -0.7826    3.7064    0.3307 N   0  0  0  0  0  0  0  0  0  0  0  0
   -0.2907    2.9591   -0.7127 C   0  0  0  0  0  0  0  0  0  0  0  0
   -0.9342    2.8006   -1.7282 O   0  0  0  0  0  0  0  0  0  0  0  0
    1.0481    2.3556   -0.5058 C   0  0  0  0  0  0  0  0  0  0  0  0
    1.4236    1.3049   -1.3414 C   0  0  0  0  0  0  0  0  0  0  0  0
    2.6547    0.6956   -1.1915 C   0  0  0  0  0  0  0  0  0  0  0  0
    1.9439    2.7962    0.4664 C   0  0  0  0  0  0  0  0  0  0  0  0
    3.1786    2.1883    0.6083 C   0  0  0  0  0  0  0  0  0  0  0  0
    3.5541    1.1229   -0.2116 C   0  0  0  0  0  0  0  0  0  0  0  0
    4.8622    0.4649   -0.0454 C   0  0  0  0  0  0  0  0  0  0  0  0
    5.4204    0.2859    1.2201 C   0  0  0  0  0  0  0  0  0  0  0  0
    6.6440   -0.3467    1.3738 C   0  0  0  0  0  0  0  0  0  0  0  0
    5.5751   -0.0064   -1.1483 C   0  0  0  0  0  0  0  0  0  0  0  0
    6.8021   -0.6297   -0.9907 C   0  0  0  0  0  0  0  0  0  0  0  0
    7.3576   -0.8162    0.2740 C   0  0  0  0  0  0  0  0  0  0  0  0
    8.7002   -1.4899    0.4697 C   0  0  1  0  0  0  0  0  0  0  0  0
    8.8114   -2.7859   -0.3450 C   0  0  0  0  0  0  0  0  0  0  0  0
    9.8245   -3.6867    0.1529 N   0  0  0  0  0  0  0  0  0  0  0  0
   11.2020   -3.3253   -0.1431 C   0  0  0  0  0  0  0  0  0  0  0  0
   11.9998   -4.6051    0.1376 C   0  0  0  0  0  0  0  0  0  0  0  0
   10.9521   -5.7358    0.0958 C   0  0  0  0  0  0  0  0  0  0  0  0
    9.6788   -5.0366   -0.3661 C   0  0  0  0  0  0  0  0  0  0  0  0
    9.8052   -0.4782    0.2226 C   0  0  0  0  0  0  0  0  0  0  0  0
   10.2291   -0.1961   -1.0822 C   0  0  0  0  0  0  0  0  0  0  0  0
   11.2055    0.7478   -1.2683 C   0  0  0  0  0  0  0  0  0  0  0  0
   11.8014    1.1570   -2.4240 O   0  0  0  0  0  0  0  0  0  0  0  0
   12.5813    2.2880   -2.0694 C   0  0  0  0  0  0  0  0  0  0  0  0
   12.7162    2.2741   -0.6519 O   0  0  0  0  0  0  0  0  0  0  0  0
   11.7643    1.4201   -0.2026 C   0  0  0  0  0  0  0  0  0  0  0  0
   11.3753    1.1871    1.0938 C   0  0  0  0  0  0  0  0  0  0  0  0
   10.3748    0.2224    1.2947 C   0  0  0  0  0  0  0  0  0  0  0  0
    9.9083   -0.0766    2.5272 O   0  0  0  0  0  0  0  0  0  0  0  0
   10.4705    0.5678    3.6497 C   0  0  0  0  0  0  0  0  0  0  0  0
   -9.4439    3.2597   -2.3531 H   0  0  0  0  0  0  0  0  0  0  0  0
   -9.6832    2.8889   -0.6420 H   0  0  0  0  0  0  0  0  0  0  0  0
  -12.0089    2.2996   -0.9959 H   0  0  0  0  0  0  0  0  0  0  0  0
  -11.7021    3.9014   -1.6865 H   0  0  0  0  0  0  0  0  0  0  0  0
  -12.1982    0.4358   -2.5770 H   0  0  0  0  0  0  0  0  0  0  0  0
  -12.0060    0.8267   -4.2931 H   0  0  0  0  0  0  0  0  0  0  0  0
  -10.0122   -0.2765   -3.3226 H   0  0  0  0  0  0  0  0  0  0  0  0
   -9.6306    1.3121   -3.9901 H   0  0  0  0  0  0  0  0  0  0  0  0
   -7.6731    1.3365   -2.5450 H   0  0  0  0  0  0  0  0  0  0  0  0
   -7.9316    1.4760   -0.8105 H   0  0  0  0  0  0  0  0  0  0  0  0
   -8.5107   -0.9286   -0.6577 H   0  0  0  0  0  0  0  0  0  0  0  0
   -8.2977   -1.1162   -2.3913 H   0  0  0  0  0  0  0  0  0  0  0  0
   -5.9313   -0.4099   -2.2042 H   0  0  0  0  0  0  0  0  0  0  0  0
   -6.7683   -2.7995   -0.5207 H   0  0  0  0  0  0  0  0  0  0  0  0
   -6.4949   -2.7522   -2.2695 H   0  0  0  0  0  0  0  0  0  0  0  0
   -2.0451   -3.9981   -1.4975 H   0  0  0  0  0  0  0  0  0  0  0  0
   -1.5587   -6.3480   -2.0006 H   0  0  0  0  0  0  0  0  0  0  0  0
   -3.4058   -7.9819   -2.2693 H   0  0  0  0  0  0  0  0  0  0  0  0
   -5.7496   -7.2204   -2.0099 H   0  0  0  0  0  0  0  0  0  0  0  0
   -6.2502   -4.8914   -1.4802 H   0  0  0  0  0  0  0  0  0  0  0  0
   -6.1516   -0.7313    0.7155 H   0  0  0  0  0  0  0  0  0  0  0  0
   -3.4349    2.7352    2.2835 H   0  0  0  0  0  0  0  0  0  0  0  0
   -5.1502    1.3555   -2.1361 H   0  0  0  0  0  0  0  0  0  0  0  0
   -3.6767    3.2281   -1.9661 H   0  0  0  0  0  0  0  0  0  0  0  0
   -0.3370    3.6942    1.2401 H   0  0  0  0  0  0  0  0  0  0  0  0
    0.7424    0.9448   -2.1004 H   0  0  0  0  0  0  0  0  0  0  0  0
    2.9068   -0.1403   -1.8311 H   0  0  0  0  0  0  0  0  0  0  0  0
    1.7122    3.6359    1.1092 H   0  0  0  0  0  0  0  0  0  0  0  0
    3.8651    2.5670    1.3542 H   0  0  0  0  0  0  0  0  0  0  0  0
    4.8848    0.6170    2.1014 H   0  0  0  0  0  0  0  0  0  0  0  0
    7.0443   -0.4878    2.3697 H   0  0  0  0  0  0  0  0  0  0  0  0
    5.1809    0.1320   -2.1473 H   0  0  0  0  0  0  0  0  0  0  0  0
    7.3216   -0.9735   -1.8760 H   0  0  0  0  0  0  0  0  0  0  0  0
    8.7513   -1.8052    1.5126 H   0  0  0  0  0  0  0  0  0  0  0  0
    7.8506   -3.3006   -0.2606 H   0  0  0  0  0  0  0  0  0  0  0  0
    8.9500   -2.5811   -1.4209 H   0  0  0  0  0  0  0  0  0  0  0  0
   11.3174   -3.0262   -1.1986 H   0  0  0  0  0  0  0  0  0  0  0  0
   11.5353   -2.4829    0.4633 H   0  0  0  0  0  0  0  0  0  0  0  0
   12.7850   -4.7425   -0.6052 H   0  0  0  0  0  0  0  0  0  0  0  0
   12.4867   -4.5605    1.1120 H   0  0  0  0  0  0  0  0  0  0  0  0
   11.2332   -6.5499   -0.5719 H   0  0  0  0  0  0  0  0  0  0  0  0
   10.8104   -6.1656    1.0881 H   0  0  0  0  0  0  0  0  0  0  0  0
    8.7671   -5.5027    0.0144 H   0  0  0  0  0  0  0  0  0  0  0  0
    9.6157   -5.0479   -1.4682 H   0  0  0  0  0  0  0  0  0  0  0  0
    9.8092   -0.7208   -1.9296 H   0  0  0  0  0  0  0  0  0  0  0  0
   13.5655    2.2203   -2.5322 H   0  0  0  0  0  0  0  0  0  0  0  0
   12.0733    3.2079   -2.3813 H   0  0  0  0  0  0  0  0  0  0  0  0
   11.8288    1.7324    1.9096 H   0  0  0  0  0  0  0  0  0  0  0  0
   10.3194    1.6502    3.6203 H   0  0  0  0  0  0  0  0  0  0  0  0
    9.9584    0.1689    4.5219 H   0  0  0  0  0  0  0  0  0  0  0  0
   11.5401    0.3642    3.7481 H   0  0  0  0  0  0  0  0  0  0  0  0
  3  2  1  0
  3  4  1  0
  2  1  1  0
  4  5  1  0
  1  6  1  0
  5  6  1  0
  6  7  1  0
  7  8  1  0
  8  9  1  0
  9 10  1  0
  9 18  1  0
 10 11  1  0
 11 12  1  0
 18 19  1  0
 25 26  1  1
 28 25  1  0
 19 29  1  0
 19 20  2  0
 29 30  2  0
 23 22  2  0
 25 22  1  0
 25 27  1  0
 12 13  2  0
 12 17  1  0
 13 14  1  0
 22 20  1  6
 22 24  2  0
 17 16  2  0
 20 21  1  0
 30 31  1  0
 14 15  2  0
 21 31  2  0
 31 32  1  0
 16 15  1  0
 34 32  2  0
 37 36  2  0
 32 33  2  0
 32 35  1  1
 36 35  1  0
 36 38  1  0
 41 38  1  0
 41 42  2  0
 38 39  2  0
 42 43  1  0
 39 40  1  0
 43 40  2  0
 43 44  1  0
 45 44  2  0
 45 46  1  0
 44 47  1  0
 46 49  2  0
 60 61  1  0
 60 59  1  0
 61 62  1  0
 47 48  2  0
 49 48  1  0
 49 50  1  0
 58 59  2  0
 58 57  1  0
 59 63  1  0
 50 57  1  0
 50 51  1  0
 62 63  1  0
 57 65  2  0
 63 64  2  0
 52 51  1  0
 52 56  1  0
 52 53  1  0
 65 64  1  0
 65 66  1  0
 56 55  1  0
 53 54  1  0
 66 67  1  0
 54 55  1  0
  1 68  1  0
  1 69  1  0
  2 70  1  0
  2 71  1  0
  4 72  1  0
  4 73  1  0
  5 74  1  0
  5 75  1  0
  7 76  1  0
  7 77  1  0
  8 78  1  0
  8 79  1  0
  9 80  1  6
 10 81  1  0
 10 82  1  0
 13 83  1  0
 14 84  1  0
 15 85  1  0
 16 86  1  0
 17 87  1  0
 18 88  1  0
 21 89  1  0
 29 90  1  0
 30 91  1  0
 35 92  1  0
 39 93  1  0
 40 94  1  0
 41 95  1  0
 42 96  1  0
 45 97  1  0
 46 98  1  0
 47 99  1  0
 48100  1  0
 50101  1  1
 51102  1  0
 51103  1  0
 53104  1  0
 53105  1  0
 54106  1  0
 54107  1  0
 55108  1  0
 55109  1  0
 56110  1  0
 56111  1  0
 58112  1  0
 61113  1  0
 61114  1  0
 64115  1  0
 67116  1  0
 67117  1  0
 67118  1  0
M  END
