
     RDKit          3D

 23 23  0  0  0  0  0  0  0  0999 V2000
   -4.7262   -0.8741   -0.1242 O   0  0  0  0  0  0  0  0  0  0  0  0
   -3.4938   -0.3273   -0.0753 C   0  0  0  0  0  0  0  0  0  0  0  0
   -2.8139   -0.1084    1.1203 C   0  0  0  0  0  0  0  0  0  0  0  0
   -1.5512    0.4650    1.1050 C   0  0  0  0  0  0  0  0  0  0  0  0
   -0.9348    0.8352   -0.0867 C   0  0  0  0  0  0  0  0  0  0  0  0
    0.4459    1.4310   -0.0954 C   0  0  0  0  0  0  0  0  0  0  0  0
    1.5114    0.3486    0.0340 C   0  0  0  0  0  0  0  0  0  0  0  0
    2.8361    0.9351    0.0365 N   0  0  0  0  0  0  0  0  0  0  0  0
    3.9551    0.2473    0.0906 C   0  0  0  0  0  0  0  0  0  0  0  0
    4.0835   -1.4012    0.1559 S   0  0  0  0  0  0  0  0  0  0  0  0
   -1.6283    0.6065   -1.2722 C   0  0  0  0  0  0  0  0  0  0  0  0
   -2.8910    0.0340   -1.2772 C   0  0  0  0  0  0  0  0  0  0  0  0
   -5.0250   -1.1098    0.7611 H   0  0  0  0  0  0  0  0  0  0  0  0
   -3.2685   -0.3802    2.0663 H   0  0  0  0  0  0  0  0  0  0  0  0
   -1.0463    0.6346    2.0490 H   0  0  0  0  0  0  0  0  0  0  0  0
    0.6035    1.9826   -1.0255 H   0  0  0  0  0  0  0  0  0  0  0  0
    0.5512    2.1484    0.7233 H   0  0  0  0  0  0  0  0  0  0  0  0
    1.3712   -0.2276    0.9522 H   0  0  0  0  0  0  0  0  0  0  0  0
    1.4348   -0.3560   -0.7979 H   0  0  0  0  0  0  0  0  0  0  0  0
    4.8410    0.8788    0.0871 H   0  0  0  0  0  0  0  0  0  0  0  0
   -1.1777    0.8791   -2.2194 H   0  0  0  0  0  0  0  0  0  0  0  0
   -3.4108   -0.1296   -2.2132 H   0  0  0  0  0  0  0  0  0  0  0  0
    2.9086    1.9416    0.0041 H   0  0  0  0  0  0  0  0  0  0  0  0
 10  9  2  0
  7  8  1  0
  7  6  1  0
  9  8  1  0
  6  5  1  0
  5  4  2  0
  5 11  1  0
  4  3  1  0
 11 12  2  0
  3  2  2  0
 12  2  1  0
  2  1  1  0
  1 13  1  0
  3 14  1  0
  4 15  1  0
  6 16  1  0
  6 17  1  0
  7 18  1  0
  7 19  1  0
  9 20  1  0
 11 21  1  0
 12 22  1  0
  8 23  1  0
M  END
