
     RDKit          3D

 31 32  0  0  0  0  0  0  0  0999 V2000
    2.8351   -0.0310   -0.4115 N   0  0  0  0  0  0  0  0  0  0  0  0
   -6.1336    0.2805   -1.2230 N   0  0  0  0  0  0  0  0  0  0  0  0
    1.0854   -1.2514    0.7725 C   0  0  0  0  0  0  0  0  0  0  0  0
    1.0296    1.1496    0.7326 C   0  0  0  0  0  0  0  0  0  0  0  0
    2.0116    1.1635   -0.4331 C   0  0  0  0  0  0  0  0  0  0  0  0
   -1.0469   -0.0844    0.3035 C   0  0  0  0  0  0  0  0  0  0  0  0
   -1.7807   -1.2842    0.1219 C   0  0  0  0  0  0  0  0  0  0  0  0
   -3.6836    0.0427   -0.4811 C   0  0  0  0  0  0  0  0  0  0  0  0
    4.8969    1.2856   -0.3529 C   0  0  0  0  0  0  0  0  0  0  0  0
    4.1877   -0.0481   -0.3508 C   0  0  0  0  0  0  0  0  0  0  0  0
    2.0665   -1.2615   -0.3938 C   0  0  0  0  0  0  0  0  0  0  0  0
    0.2433   -0.0717    0.7088 N   0  0  0  0  0  0  0  0  0  0  0  0
   -3.0895   -1.2102   -0.2694 C   0  0  0  0  0  0  0  0  0  0  0  0
   -5.0335    0.1723   -0.8906 C   0  0  0  0  0  0  0  0  0  0  0  0
   -2.8885    1.1659   -0.2724 C   0  0  0  0  0  0  0  0  0  0  0  0
   -1.6291    1.1063    0.0997 N   0  0  0  0  0  0  0  0  0  0  0  0
    4.8200   -1.0952   -0.3004 O   0  0  0  0  0  0  0  0  0  0  0  0
    0.5006   -2.1657    0.7687 H   0  0  0  0  0  0  0  0  0  0  0  0
    1.6367   -1.2312    1.7165 H   0  0  0  0  0  0  0  0  0  0  0  0
    1.5810    1.1861    1.6764 H   0  0  0  0  0  0  0  0  0  0  0  0
    0.3791    2.0165    0.6856 H   0  0  0  0  0  0  0  0  0  0  0  0
    2.6223    2.0605   -0.3780 H   0  0  0  0  0  0  0  0  0  0  0  0
    1.4561    1.2026   -1.3759 H   0  0  0  0  0  0  0  0  0  0  0  0
   -1.3430   -2.2563    0.2841 H   0  0  0  0  0  0  0  0  0  0  0  0
    4.6507    1.8779   -1.2344 H   0  0  0  0  0  0  0  0  0  0  0  0
    4.6379    1.8817    0.5228 H   0  0  0  0  0  0  0  0  0  0  0  0
    5.9700    1.1146   -0.3429 H   0  0  0  0  0  0  0  0  0  0  0  0
    1.5139   -1.3567   -1.3346 H   0  0  0  0  0  0  0  0  0  0  0  0
    2.7368   -2.1121   -0.3099 H   0  0  0  0  0  0  0  0  0  0  0  0
   -3.6594   -2.1181   -0.4147 H   0  0  0  0  0  0  0  0  0  0  0  0
   -3.3014    2.1581   -0.4200 H   0  0  0  0  0  0  0  0  0  0  0  0
  2 14  3  0
 14  8  1  0
 15  8  2  0
 15 16  1  0
  8 13  1  0
 16  6  2  0
 13  7  2  0
  6  7  1  0
  6 12  1  0
  4 12  1  0
  4  5  1  0
 12  3  1  0
  3 11  1  0
  5  1  1  0
  1 11  1  0
  1 10  1  0
  9 10  1  0
 10 17  2  0
  3 18  1  0
  3 19  1  0
  4 20  1  0
  4 21  1  0
  5 22  1  0
  5 23  1  0
  7 24  1  0
  9 25  1  0
  9 26  1  0
  9 27  1  0
 11 28  1  0
 11 29  1  0
 13 30  1  0
 15 31  1  0
M  END
