
     RDKit          3D

 26 26  0  0  0  0  0  0  0  0999 V2000
   -0.0712   -0.1046    0.4600 C   0  0  0  0  0  0  0  0  0  0  0  0
    0.8148    0.9088    0.8136 C   0  0  0  0  0  0  0  0  0  0  0  0
    2.1601    0.8365    0.4873 C   0  0  0  0  0  0  0  0  0  0  0  0
    2.6409   -0.2881   -0.1906 C   0  0  0  0  0  0  0  0  0  0  0  0
    1.7681   -1.3019   -0.5420 C   0  0  0  0  0  0  0  0  0  0  0  0
    0.4194   -1.2098   -0.2248 C   0  0  0  0  0  0  0  0  0  0  0  0
    2.9813    1.8509    0.8305 O   0  0  0  0  0  0  0  0  0  0  0  0
    3.9701   -0.2915   -0.4645 O   0  0  0  0  0  0  0  0  0  0  0  0
   -2.0040   -1.0635    1.5881 O   0  0  0  0  0  0  0  0  0  0  0  0
   -4.6014    0.6330   -1.2782 C   0  0  0  0  0  0  0  0  0  0  0  0
   -2.3796    0.2055   -0.4526 C   0  0  0  0  0  0  0  0  0  0  0  0
   -1.5365    0.0164    0.8048 C   0  0  2  0  0  0  0  0  0  0  0  0
    0.4576    1.7824    1.3467 H   0  0  0  0  0  0  0  0  0  0  0  0
    2.1331   -2.1727   -1.0739 H   0  0  0  0  0  0  0  0  0  0  0  0
   -0.2302   -2.0164   -0.5435 H   0  0  0  0  0  0  0  0  0  0  0  0
    3.8889    1.6312    0.5969 H   0  0  0  0  0  0  0  0  0  0  0  0
    4.2376   -1.1394   -0.8275 H   0  0  0  0  0  0  0  0  0  0  0  0
   -1.7631   -1.8874    1.1561 H   0  0  0  0  0  0  0  0  0  0  0  0
   -4.5668   -0.2134   -1.9804 H   0  0  0  0  0  0  0  0  0  0  0  0
   -5.6364    0.7644   -0.9635 H   0  0  0  0  0  0  0  0  0  0  0  0
   -4.3177    1.5280   -1.8356 H   0  0  0  0  0  0  0  0  0  0  0  0
   -4.1098   -0.2483    0.4804 H   0  0  0  0  0  0  0  0  0  0  0  0
   -2.2575   -0.6742   -1.1138 H   0  0  0  0  0  0  0  0  0  0  0  0
   -1.9733    1.0545   -1.0107 H   0  0  0  0  0  0  0  0  0  0  0  0
   -1.6789    0.9027    1.4291 H   0  0  0  0  0  0  0  0  0  0  0  0
   -3.7535    0.4826   -0.1199 N   0  0  0  0  0  0  0  0  0  0  0  0
  9 12  1  0
 12 11  1  0
 12  1  1  0
  2  1  2  0
  2  3  1  0
  7  3  1  0
 11 26  1  0
  1  6  1  0
  3  4  2  0
 26 10  1  0
  6  5  2  0
  4  5  1  0
  4  8  1  0
  2 13  1  0
  5 14  1  0
  6 15  1  0
  7 16  1  0
  8 17  1  0
  9 18  1  0
 10 19  1  0
 10 20  1  0
 10 21  1  0
 26 22  1  0
 11 23  1  0
 11 24  1  0
 12 25  1  1
M  END
