
     RDKit          3D

 39 41  0  0  0  0  0  0  0  0999 V2000
   -1.2183    0.7681   -0.0055 N   0  0  0  0  0  0  0  0  0  0  0  0
   -0.8349    2.0568    0.0044 C   0  0  0  0  0  0  0  0  0  0  0  0
   -1.6029    3.0051    0.0181 O   0  0  0  0  0  0  0  0  0  0  0  0
    0.6546    2.2348   -0.0046 C   0  0  0  0  0  0  0  0  0  0  0  0
    1.3820    1.1265   -0.0172 N   0  0  0  0  0  0  0  0  0  0  0  0
    2.7082    1.2074   -0.0277 C   0  0  0  0  0  0  0  0  0  0  0  0
    3.3537    2.4485   -0.0254 C   0  0  0  0  0  0  0  0  0  0  0  0
    2.5915    3.6008   -0.0123 C   0  0  0  0  0  0  0  0  0  0  0  0
    1.2058    3.5058   -0.0015 C   0  0  0  0  0  0  0  0  0  0  0  0
    3.4405   -0.0494   -0.0409 C   0  0  0  0  0  0  0  0  0  0  0  0
    4.8297   -0.2819   -0.0754 C   0  0  0  0  0  0  0  0  0  0  0  0
    5.1005   -1.5712   -0.0731 N   0  0  0  0  0  0  0  0  0  0  0  0
    3.9176   -2.1824   -0.0362 N   0  0  0  0  0  0  0  0  0  0  0  0
    2.8945   -1.3209   -0.0179 C   0  0  0  0  0  0  0  0  0  0  0  0
   -2.5223    0.3131   -0.0055 C   0  0  0  0  0  0  0  0  0  0  0  0
   -3.7126    1.0121    0.0104 C   0  0  0  0  0  0  0  0  0  0  0  0
   -4.6920    0.0807    0.0086 N   0  0  0  0  0  0  0  0  0  0  0  0
   -4.2347   -1.1477   -0.0113 N   0  0  0  0  0  0  0  0  0  0  0  0
   -2.9124   -1.0421   -0.0182 C   0  0  0  0  0  0  0  0  0  0  0  0
   -6.1157    0.3295   -0.0183 C   0  0  0  0  0  0  0  0  0  0  0  0
   -2.0265   -2.2202   -0.0308 C   0  0  0  0  0  0  0  0  0  0  0  0
   -2.6375   -3.4083   -0.0385 N   0  0  0  0  0  0  0  0  0  0  0  0
   -0.8046   -2.0814   -0.0341 O   0  0  0  0  0  0  0  0  0  0  0  0
    3.8500   -3.6245   -0.0362 C   0  0  0  0  0  0  0  0  0  0  0  0
   -0.4889    0.0639   -0.0170 H   0  0  0  0  0  0  0  0  0  0  0  0
    4.4334    2.5100   -0.0327 H   0  0  0  0  0  0  0  0  0  0  0  0
    3.0724    4.5699   -0.0101 H   0  0  0  0  0  0  0  0  0  0  0  0
    0.5798    4.3863    0.0089 H   0  0  0  0  0  0  0  0  0  0  0  0
    5.6339    0.4382   -0.1010 H   0  0  0  0  0  0  0  0  0  0  0  0
    1.8674   -1.6478    0.0114 H   0  0  0  0  0  0  0  0  0  0  0  0
   -3.9300    2.0645    0.0255 H   0  0  0  0  0  0  0  0  0  0  0  0
   -6.5254    0.0944   -0.9989 H   0  0  0  0  0  0  0  0  0  0  0  0
   -6.6075   -0.2802    0.7351 H   0  0  0  0  0  0  0  0  0  0  0  0
   -6.2946    1.3774    0.2012 H   0  0  0  0  0  0  0  0  0  0  0  0
   -3.6409   -3.4818   -0.0336 H   0  0  0  0  0  0  0  0  0  0  0  0
   -2.0990   -4.2589   -0.0463 H   0  0  0  0  0  0  0  0  0  0  0  0
    4.4390   -4.0245    0.7859 H   0  0  0  0  0  0  0  0  0  0  0  0
    2.8153   -3.9297    0.0895 H   0  0  0  0  0  0  0  0  0  0  0  0
    4.2267   -4.0236   -0.9760 H   0  0  0  0  0  0  0  0  0  0  0  0
 24 13  1  0
 13 12  1  0
 13 14  1  0
 12 11  2  0
 14 10  2  0
 11 10  1  0
 22 21  1  0
 23 21  2  0
 10  6  1  0
 21 19  1  0
  6  5  2  0
  6  7  1  0
  5  4  1  0
 19 18  2  0
 19 15  1  0
  7  8  2  0
 18 17  1  0
  1 15  1  0
  1  2  1  0
 15 16  2  0
  4  2  1  0
  4  9  2  0
  8  9  1  0
  2  3  2  0
 17 16  1  0
 17 20  1  0
  1 25  1  0
  7 26  1  0
  8 27  1  0
  9 28  1  0
 11 29  1  0
 14 30  1  0
 16 31  1  0
 20 32  1  0
 20 33  1  0
 20 34  1  0
 22 35  1  0
 22 36  1  0
 24 37  1  0
 24 38  1  0
 24 39  1  0
M  END
