
     RDKit          3D

 41 43  0  0  0  0  0  0  0  0999 V2000
   -3.9444    1.3394    1.1680 N   0  0  0  0  0  0  0  0  0  0  0  0
   -0.8099   -0.6670    0.2805 S   0  0  0  0  0  0  0  0  0  0  0  0
    4.8400   -0.5166   -1.0446 O   0  0  0  0  0  0  0  0  0  0  0  0
   -2.0041    0.4785    0.8008 C   0  0  0  0  0  0  0  0  0  0  0  0
   -4.0449   -0.8280    0.0572 C   0  0  2  0  0  0  0  0  0  0  0  0
   -3.0476    2.1399    1.5819 N   0  0  0  0  0  0  0  0  0  0  0  0
   -5.2722   -1.2483    0.8858 C   0  0  0  0  0  0  0  0  0  0  0  0
   -1.8263    1.6467    1.3762 N   0  0  0  0  0  0  0  0  0  0  0  0
   -6.4689   -0.6598    0.1441 C   0  0  0  0  0  0  0  0  0  0  0  0
   -3.3203    0.2779    0.6719 N   0  0  0  0  0  0  0  0  0  0  0  0
   -6.0693   -0.8266   -1.3192 C   0  0  0  0  0  0  0  0  0  0  0  0
   -4.5872   -0.4411   -1.3388 C   0  0  0  0  0  0  0  0  0  0  0  0
    0.6921    0.3333    0.5653 C   0  0  1  0  0  0  0  0  0  0  0  0
    1.8248   -0.6792    0.5335 C   0  0  0  0  0  0  0  0  0  0  0  0
    0.8865    1.3895   -0.5149 C   0  0  0  0  0  0  0  0  0  0  0  0
    4.1520   -1.0594    1.2215 C   0  0  0  0  0  0  0  0  0  0  0  0
    5.1441   -0.4912    0.2711 C   0  0  0  0  0  0  0  0  0  0  0  0
    6.3492    0.1005    0.4536 C   0  0  0  0  0  0  0  0  0  0  0  0
    6.8200    0.4618   -0.8468 C   0  0  0  0  0  0  0  0  0  0  0  0
    5.8592    0.0646   -1.7117 C   0  0  0  0  0  0  0  0  0  0  0  0
   -3.3301   -1.6477   -0.0047 H   0  0  0  0  0  0  0  0  0  0  0  0
   -5.3328   -2.3380    0.8662 H   0  0  0  0  0  0  0  0  0  0  0  0
   -5.1977   -0.9504    1.9312 H   0  0  0  0  0  0  0  0  0  0  0  0
   -7.4037   -1.1615    0.3957 H   0  0  0  0  0  0  0  0  0  0  0  0
   -6.5852    0.3997    0.3860 H   0  0  0  0  0  0  0  0  0  0  0  0
   -6.1958   -1.8698   -1.6200 H   0  0  0  0  0  0  0  0  0  0  0  0
   -6.6604   -0.2168   -2.0026 H   0  0  0  0  0  0  0  0  0  0  0  0
    2.8945    0.5536    1.7368 H   0  0  0  0  0  0  0  0  0  0  0  0
   -4.4831    0.6350   -1.4870 H   0  0  0  0  0  0  0  0  0  0  0  0
   -4.0291   -0.9306   -2.1361 H   0  0  0  0  0  0  0  0  0  0  0  0
    0.6127    0.8020    1.5474 H   0  0  0  0  0  0  0  0  0  0  0  0
    0.9677    0.9333   -1.5004 H   0  0  0  0  0  0  0  0  0  0  0  0
    0.0521    2.0872   -0.5209 H   0  0  0  0  0  0  0  0  0  0  0  0
    1.7944    1.9624   -0.3226 H   0  0  0  0  0  0  0  0  0  0  0  0
    4.5813   -1.0382    2.2225 H   0  0  0  0  0  0  0  0  0  0  0  0
    3.9347   -2.1023    0.9883 H   0  0  0  0  0  0  0  0  0  0  0  0
    6.8429    0.2624    1.3986 H   0  0  0  0  0  0  0  0  0  0  0  0
    7.7455    0.9537   -1.0981 H   0  0  0  0  0  0  0  0  0  0  0  0
    5.7648    0.1237   -2.7838 H   0  0  0  0  0  0  0  0  0  0  0  0
    1.7242   -1.7090   -0.1142 O   0  0  0  0  0  0  0  0  0  0  0  0
    2.9067   -0.3200    1.2338 N   0  0  0  0  0  0  0  0  0  0  0  0
  6  1  2  0
  6  8  1  0
  1 10  1  0
  8  4  2  0
 10  4  1  0
 10  5  1  0
  4  2  1  0
 12  5  1  0
 12 11  1  0
  5  7  1  0
 40 14  2  0
  2 13  1  0
 11  9  1  0
 14 13  1  0
 14 41  1  0
  7  9  1  0
  3 20  1  0
  3 17  1  0
 13 15  1  0
 20 19  2  0
 16 17  1  0
 16 41  1  0
 17 18  2  0
 19 18  1  0
  5 21  1  6
  7 22  1  0
  7 23  1  0
  9 24  1  0
  9 25  1  0
 11 26  1  0
 11 27  1  0
 41 28  1  0
 12 29  1  0
 12 30  1  0
 13 31  1  1
 15 32  1  0
 15 33  1  0
 15 34  1  0
 16 35  1  0
 16 36  1  0
 18 37  1  0
 19 38  1  0
 20 39  1  0
M  END
