
     RDKit          3D

 83 82  0  0  0  0  0  0  0  0999 V2000
    1.2694    3.5304   -2.8782 O   0  0  0  0  0  0  0  0  0  0  0  0
   -0.8765    4.1616   -1.7376 O   0  0  0  0  0  0  0  0  0  0  0  0
    0.1669    3.1243   -1.7969 P   0  0  2  0  0  0  0  0  0  0  0  0
    0.9403    2.8049   -0.4333 O   0  0  0  0  0  0  0  0  0  0  0  0
    1.5656    3.8543    0.3020 C   0  0  0  0  0  0  0  0  0  0  0  0
    1.7520    3.4513    1.7431 C   0  0  0  0  0  0  0  0  0  0  0  0
    2.7959    2.4081    2.0424 N   0  0  1  0  0  0  0  0  0  0  0  0
    4.1363    2.8355    1.5541 C   0  0  0  0  0  0  0  0  0  0  0  0
    2.8511    2.2635    3.5277 C   0  0  0  0  0  0  0  0  0  0  0  0
    2.4518    1.0832    1.4505 C   0  0  0  0  0  0  0  0  0  0  0  0
   -0.2824    1.6333   -2.1038 O   0  0  0  0  0  0  0  0  0  0  0  0
   -1.0813    1.3372   -3.2498 C   0  0  0  0  0  0  0  0  0  0  0  0
   -1.4428   -0.1355   -3.2499 C   0  0  1  0  0  0  0  0  0  0  0  0
   -0.2911   -1.0888   -3.4806 C   0  0  0  0  0  0  0  0  0  0  0  0
    0.6210   -0.9997   -2.3930 O   0  0  0  0  0  0  0  0  0  0  0  0
    1.7054   -1.7659   -2.4211 C   0  0  0  0  0  0  0  0  0  0  0  0
    1.9514   -2.5359   -3.3151 O   0  0  0  0  0  0  0  0  0  0  0  0
    2.5667   -1.5247   -1.2122 C   0  0  0  0  0  0  0  0  0  0  0  0
    3.7166   -2.5057   -1.0562 C   0  0  0  0  0  0  0  0  0  0  0  0
    4.5269   -2.2182    0.2015 C   0  0  0  0  0  0  0  0  0  0  0  0
    5.6851   -3.1871    0.4014 C   0  0  0  0  0  0  0  0  0  0  0  0
    6.4780   -2.9148    1.6729 C   0  0  0  0  0  0  0  0  0  0  0  0
    7.6361   -3.8834    1.8799 C   0  0  0  0  0  0  0  0  0  0  0  0
    8.4211   -3.6029    3.1536 C   0  0  0  0  0  0  0  0  0  0  0  0
   -2.0643   -0.5072   -2.0203 O   0  0  0  0  0  0  0  0  0  0  0  0
   -3.3673   -0.2704   -1.8535 C   0  0  0  0  0  0  0  0  0  0  0  0
   -4.0609    0.2359   -2.6976 O   0  0  0  0  0  0  0  0  0  0  0  0
   -3.8289   -0.7093   -0.4921 C   0  0  0  0  0  0  0  0  0  0  0  0
   -5.3277   -0.5701   -0.2823 C   0  0  0  0  0  0  0  0  0  0  0  0
   -5.7532   -1.0172    1.1110 C   0  0  0  0  0  0  0  0  0  0  0  0
   -7.2562   -0.9068    1.3313 C   0  0  0  0  0  0  0  0  0  0  0  0
   -7.6969   -1.3546    2.7193 C   0  0  0  0  0  0  0  0  0  0  0  0
   -9.2015   -1.2495    2.9351 C   0  0  0  0  0  0  0  0  0  0  0  0
   -9.6360   -1.7044    4.3217 C   0  0  0  0  0  0  0  0  0  0  0  0
    1.9903    2.9029   -3.0219 H   0  0  0  0  0  0  0  0  0  0  0  0
    2.5054    4.1431   -0.1714 H   0  0  0  0  0  0  0  0  0  0  0  0
    0.9305    4.7428    0.3287 H   0  0  0  0  0  0  0  0  0  0  0  0
    2.0513    4.3439    2.2920 H   0  0  0  0  0  0  0  0  0  0  0  0
    0.8131    3.0941    2.1654 H   0  0  0  0  0  0  0  0  0  0  0  0
    4.3687    3.8167    1.9585 H   0  0  0  0  0  0  0  0  0  0  0  0
    4.8755    2.1143    1.8921 H   0  0  0  0  0  0  0  0  0  0  0  0
    4.1452    2.8716    0.4691 H   0  0  0  0  0  0  0  0  0  0  0  0
    3.5947    1.5142    3.7833 H   0  0  0  0  0  0  0  0  0  0  0  0
    3.1248    3.2172    3.9709 H   0  0  0  0  0  0  0  0  0  0  0  0
    1.8755    1.9544    3.8927 H   0  0  0  0  0  0  0  0  0  0  0  0
    2.5070    1.1378    0.3697 H   0  0  0  0  0  0  0  0  0  0  0  0
    3.1647    0.3491    1.8169 H   0  0  0  0  0  0  0  0  0  0  0  0
    1.4478    0.7988    1.7533 H   0  0  0  0  0  0  0  0  0  0  0  0
   -0.5410    1.5641   -4.1729 H   0  0  0  0  0  0  0  0  0  0  0  0
   -1.9904    1.9414   -3.2408 H   0  0  0  0  0  0  0  0  0  0  0  0
   -2.1271   -0.2808   -4.0918 H   0  0  0  0  0  0  0  0  0  0  0  0
    0.1950   -0.8284   -4.4239 H   0  0  0  0  0  0  0  0  0  0  0  0
   -0.6771   -2.1068   -3.5740 H   0  0  0  0  0  0  0  0  0  0  0  0
    1.9274   -1.5370   -0.3246 H   0  0  0  0  0  0  0  0  0  0  0  0
    2.9547   -0.5029   -1.2868 H   0  0  0  0  0  0  0  0  0  0  0  0
    4.3686   -2.4564   -1.9318 H   0  0  0  0  0  0  0  0  0  0  0  0
    3.3285   -3.5270   -1.0135 H   0  0  0  0  0  0  0  0  0  0  0  0
    3.8684   -2.2569    1.0768 H   0  0  0  0  0  0  0  0  0  0  0  0
    4.9165   -1.1945    0.1599 H   0  0  0  0  0  0  0  0  0  0  0  0
    6.3537   -3.1349   -0.4646 H   0  0  0  0  0  0  0  0  0  0  0  0
    5.2991   -4.2121    0.4257 H   0  0  0  0  0  0  0  0  0  0  0  0
    5.8069   -2.9649    2.5375 H   0  0  0  0  0  0  0  0  0  0  0  0
    6.8636   -1.8893    1.6495 H   0  0  0  0  0  0  0  0  0  0  0  0
    8.3066   -3.8335    1.0167 H   0  0  0  0  0  0  0  0  0  0  0  0
    7.2497   -4.9072    1.9042 H   0  0  0  0  0  0  0  0  0  0  0  0
    8.8534   -2.6005    3.1376 H   0  0  0  0  0  0  0  0  0  0  0  0
    7.7801   -3.6684    4.0352 H   0  0  0  0  0  0  0  0  0  0  0  0
    9.2386   -4.3123    3.2869 H   0  0  0  0  0  0  0  0  0  0  0  0
   -3.5102   -1.7447   -0.3370 H   0  0  0  0  0  0  0  0  0  0  0  0
   -3.2806   -0.1215    0.2519 H   0  0  0  0  0  0  0  0  0  0  0  0
   -5.6297    0.4690   -0.4379 H   0  0  0  0  0  0  0  0  0  0  0  0
   -5.8606   -1.1626   -1.0307 H   0  0  0  0  0  0  0  0  0  0  0  0
   -5.4371   -2.0534    1.2749 H   0  0  0  0  0  0  0  0  0  0  0  0
   -5.2299   -0.4176    1.8636 H   0  0  0  0  0  0  0  0  0  0  0  0
   -7.5723    0.1295    1.1671 H   0  0  0  0  0  0  0  0  0  0  0  0
   -7.7766   -1.5050    0.5754 H   0  0  0  0  0  0  0  0  0  0  0  0
   -7.3786   -2.3901    2.8853 H   0  0  0  0  0  0  0  0  0  0  0  0
   -7.1803   -0.7548    3.4768 H   0  0  0  0  0  0  0  0  0  0  0  0
   -9.5191   -0.2147    2.7720 H   0  0  0  0  0  0  0  0  0  0  0  0
   -9.7173   -1.8462    2.1765 H   0  0  0  0  0  0  0  0  0  0  0  0
   -9.3745   -2.7502    4.4928 H   0  0  0  0  0  0  0  0  0  0  0  0
   -9.1530   -1.1131    5.1020 H   0  0  0  0  0  0  0  0  0  0  0  0
  -10.7142   -1.6089    4.4556 H   0  0  0  0  0  0  0  0  0  0  0  0
  3  1  1  6
  1 35  1  0
  2  3  2  0
  3  4  1  0
  3 11  1  0
  4  5  1  0
  5  6  1  0
  5 36  1  0
  5 37  1  0
  7  6  1  1
  6 38  1  0
  6 39  1  0
  7  8  1  0
  7  9  1  0
  7 10  1  0
  8 40  1  0
  8 41  1  0
  8 42  1  0
  9 43  1  0
  9 44  1  0
  9 45  1  0
 10 46  1  0
 10 47  1  0
 10 48  1  0
 11 12  1  0
 12 13  1  0
 12 49  1  0
 12 50  1  0
 13 14  1  0
 13 25  1  0
 13 51  1  6
 14 15  1  0
 14 52  1  0
 14 53  1  0
 15 16  1  0
 16 17  2  0
 16 18  1  0
 18 19  1  0
 18 54  1  0
 18 55  1  0
 19 20  1  0
 19 56  1  0
 19 57  1  0
 20 21  1  0
 20 58  1  0
 20 59  1  0
 21 22  1  0
 21 60  1  0
 21 61  1  0
 22 23  1  0
 22 62  1  0
 22 63  1  0
 23 24  1  0
 23 64  1  0
 23 65  1  0
 24 66  1  0
 24 67  1  0
 24 68  1  0
 25 26  1  0
 26 27  2  0
 26 28  1  0
 28 29  1  0
 28 69  1  0
 28 70  1  0
 29 30  1  0
 29 71  1  0
 29 72  1  0
 30 31  1  0
 30 73  1  0
 30 74  1  0
 31 32  1  0
 31 75  1  0
 31 76  1  0
 32 33  1  0
 32 77  1  0
 32 78  1  0
 33 34  1  0
 33 79  1  0
 33 80  1  0
 34 81  1  0
 34 82  1  0
 34 83  1  0
M  CHG  1   7   1
M  END
