
     RDKit          3D

 50 52  0  0  0  0  0  0  0  0999 V2000
    6.6306    1.2611    0.4914 C   0  0  0  0  0  0  0  0  0  0  0  0
    6.2554   -0.1548    0.0864 C   0  0  0  0  0  0  0  0  0  0  0  0
    4.9340   -0.2441   -0.5187 N   0  0  0  0  0  0  0  0  0  0  0  0
    4.7780   -1.4471   -1.3253 C   0  0  0  0  0  0  0  0  0  0  0  0
    5.4734   -1.3554   -2.6736 C   0  0  0  0  0  0  0  0  0  0  0  0
    3.8639   -0.1020    0.4488 C   0  0  0  0  0  0  0  0  0  0  0  0
    2.6581    0.5708   -0.2049 C   0  0  0  0  0  0  0  0  0  0  0  0
    1.4856    0.6866    0.6649 N   0  0  0  0  0  0  0  0  0  0  0  0
    1.4931    1.6653    1.6211 C   0  0  0  0  0  0  0  0  0  0  0  0
    2.4344    2.4197    1.7599 O   0  0  0  0  0  0  0  0  0  0  0  0
    0.2305    1.7771    2.4526 C   0  0  0  0  0  0  0  0  0  0  0  0
   -0.8214    2.3050    1.6129 N   0  0  0  0  0  0  0  0  0  0  0  0
    0.4434   -0.2470    0.5269 C   0  0  0  0  0  0  0  0  0  0  0  0
    0.7587   -1.5883    0.3025 C   0  0  0  0  0  0  0  0  0  0  0  0
   -0.2247   -2.5369    0.1039 C   0  0  0  0  0  0  0  0  0  0  0  0
   -1.5579   -2.1494    0.1301 C   0  0  0  0  0  0  0  0  0  0  0  0
   -2.9116   -3.4364   -0.1179 Br  0  0  0  0  0  0  0  0  0  0  0  0
   -1.8968   -0.8275    0.3309 C   0  0  0  0  0  0  0  0  0  0  0  0
   -0.9049    0.1341    0.5276 C   0  0  0  0  0  0  0  0  0  0  0  0
   -1.3218    1.5342    0.7356 C   0  0  0  0  0  0  0  0  0  0  0  0
   -2.4413    2.0558   -0.0816 C   0  0  0  0  0  0  0  0  0  0  0  0
   -3.4695    2.7880    0.5105 C   0  0  0  0  0  0  0  0  0  0  0  0
   -4.5178    3.2851   -0.2465 C   0  0  0  0  0  0  0  0  0  0  0  0
   -4.5454    3.0663   -1.6182 C   0  0  0  0  0  0  0  0  0  0  0  0
   -3.5264    2.3542   -2.2345 C   0  0  0  0  0  0  0  0  0  0  0  0
   -2.4966    1.8650   -1.4562 C   0  0  0  0  0  0  0  0  0  0  0  0
   -1.4982    1.2018   -2.0569 F   0  0  0  0  0  0  0  0  0  0  0  0
    7.6507    1.2841    0.8757 H   0  0  0  0  0  0  0  0  0  0  0  0
    6.5741    1.9329   -0.3653 H   0  0  0  0  0  0  0  0  0  0  0  0
    5.9829    1.6593    1.2735 H   0  0  0  0  0  0  0  0  0  0  0  0
    6.9866   -0.5009   -0.6457 H   0  0  0  0  0  0  0  0  0  0  0  0
    6.3483   -0.8325    0.9501 H   0  0  0  0  0  0  0  0  0  0  0  0
    5.1272   -2.3400   -0.7818 H   0  0  0  0  0  0  0  0  0  0  0  0
    3.7130   -1.6075   -1.5080 H   0  0  0  0  0  0  0  0  0  0  0  0
    3.5821   -1.0667    0.8998 H   0  0  0  0  0  0  0  0  0  0  0  0
    4.1969    0.5248    1.2748 H   0  0  0  0  0  0  0  0  0  0  0  0
    5.0925   -0.5090   -3.2456 H   0  0  0  0  0  0  0  0  0  0  0  0
    6.5533   -1.2388   -2.5778 H   0  0  0  0  0  0  0  0  0  0  0  0
    5.2959   -2.2629   -3.2513 H   0  0  0  0  0  0  0  0  0  0  0  0
    2.9471    1.5702   -0.5288 H   0  0  0  0  0  0  0  0  0  0  0  0
    2.3438    0.0319   -1.0981 H   0  0  0  0  0  0  0  0  0  0  0  0
   -0.0281    0.8038    2.8874 H   0  0  0  0  0  0  0  0  0  0  0  0
    0.4206    2.4716    3.2676 H   0  0  0  0  0  0  0  0  0  0  0  0
    1.7900   -1.9130    0.2960 H   0  0  0  0  0  0  0  0  0  0  0  0
    0.0574   -3.5681   -0.0587 H   0  0  0  0  0  0  0  0  0  0  0  0
   -2.9351   -0.5212    0.3406 H   0  0  0  0  0  0  0  0  0  0  0  0
   -3.4443    2.9493    1.5801 H   0  0  0  0  0  0  0  0  0  0  0  0
   -5.3140    3.8379    0.2326 H   0  0  0  0  0  0  0  0  0  0  0  0
   -5.3606    3.4524   -2.2152 H   0  0  0  0  0  0  0  0  0  0  0  0
   -3.5250    2.1871   -3.3036 H   0  0  0  0  0  0  0  0  0  0  0  0
  1  2  1  0
  2  3  1  0
  3  4  1  0
  3  6  1  0
  4  5  1  0
  6  7  1  0
  7  8  1  0
  8  9  1  0
  8 13  1  0
  9 10  2  0
  9 11  1  0
 11 12  1  0
 12 20  2  0
 13 14  1  0
 13 19  2  0
 14 15  2  0
 15 16  1  0
 16 17  1  0
 16 18  2  0
 18 19  1  0
 19 20  1  0
 20 21  1  0
 21 22  2  0
 21 26  1  0
 22 23  1  0
 23 24  2  0
 24 25  1  0
 25 26  2  0
 26 27  1  0
  1 28  1  0
  1 29  1  0
  1 30  1  0
  2 31  1  0
  2 32  1  0
  4 33  1  0
  4 34  1  0
  6 35  1  0
  6 36  1  0
  5 37  1  0
  5 38  1  0
  5 39  1  0
  7 40  1  0
  7 41  1  0
 11 42  1  0
 11 43  1  0
 14 44  1  0
 15 45  1  0
 18 46  1  0
 22 47  1  0
 23 48  1  0
 24 49  1  0
 25 50  1  0
M  END
