
     RDKit          3D

 24 24  0  0  0  0  0  0  0  0999 V2000
   -2.6857   -1.7202   -0.8815 O   0  0  0  0  0  0  0  0  0  0  0  0
   -1.8198   -0.7840   -0.4380 C   0  0  0  0  0  0  0  0  0  0  0  0
   -0.4589   -0.9803   -0.6136 C   0  0  0  0  0  0  0  0  0  0  0  0
   -2.2722    0.4016    0.1556 C   0  0  0  0  0  0  0  0  0  0  0  0
   -3.6115    0.5294    0.3095 O   0  0  0  0  0  0  0  0  0  0  0  0
   -1.3569    1.3641    0.5490 C   0  0  0  0  0  0  0  0  0  0  0  0
    0.0042    1.1615    0.3616 C   0  0  0  0  0  0  0  0  0  0  0  0
    0.4629   -0.0131   -0.2238 C   0  0  0  0  0  0  0  0  0  0  0  0
    1.9371   -0.2568   -0.4289 C   0  0  1  0  0  0  0  0  0  0  0  0
    2.5461    0.6485   -1.3227 O   0  0  0  0  0  0  0  0  0  0  0  0
    2.6566   -0.2340    0.9171 C   0  0  0  0  0  0  0  0  0  0  0  0
    4.1062   -0.4977    0.7207 N   0  0  0  0  0  0  0  0  0  0  0  0
   -3.5148   -1.6642   -0.3912 H   0  0  0  0  0  0  0  0  0  0  0  0
   -0.1196   -1.9063   -1.0638 H   0  0  0  0  0  0  0  0  0  0  0  0
   -3.8080    1.1789    0.9947 H   0  0  0  0  0  0  0  0  0  0  0  0
   -1.7076    2.2846    0.9992 H   0  0  0  0  0  0  0  0  0  0  0  0
    0.6874    1.9377    0.6830 H   0  0  0  0  0  0  0  0  0  0  0  0
    2.0675   -1.2499   -0.8680 H   0  0  0  0  0  0  0  0  0  0  0  0
    2.2119    1.5371   -1.1583 H   0  0  0  0  0  0  0  0  0  0  0  0
    2.5808    0.7424    1.3912 H   0  0  0  0  0  0  0  0  0  0  0  0
    2.2724   -1.0038    1.5815 H   0  0  0  0  0  0  0  0  0  0  0  0
    4.2819   -1.4372    0.3660 H   0  0  0  0  0  0  0  0  0  0  0  0
    4.5124    0.1609    0.0551 H   0  0  0  0  0  0  0  0  0  0  0  0
    4.6232   -0.4121    1.5950 H   0  0  0  0  0  0  0  0  0  0  0  0
 10  9  1  0
  9  8  1  0
  9 11  1  0
  8  7  2  0
  8  3  1  0
  7  6  1  0
  3  2  2  0
  6  4  2  0
  2  4  1  0
  2  1  1  0
  4  5  1  0
 11 12  1  0
  1 13  1  0
  3 14  1  0
  5 15  1  0
  6 16  1  0
  7 17  1  0
  9 18  1  6
 10 19  1  0
 11 20  1  0
 11 21  1  0
 12 22  1  0
 12 23  1  0
 12 24  1  0
M  CHG  1  12   1
M  END
