
     RDKit          3D

 66 66  0  0  0  0  0  0  0  0999 V2000
    1.7914   -1.3436    1.8387 O   0  0  0  0  0  0  0  0  0  0  0  0
    1.7739   -0.9311    0.6866 C   0  0  0  0  0  0  0  0  0  0  0  0
    2.7928   -1.1034   -0.1756 N   0  0  0  0  0  0  0  0  0  0  0  0
    4.0157   -1.8197    0.1217 C   0  0  1  0  0  0  0  0  0  0  0  0
    4.0355   -3.1727   -0.5738 C   0  0  0  0  0  0  0  0  0  0  0  0
    4.0091   -2.9729   -1.9683 O   0  0  0  0  0  0  0  0  0  0  0  0
    5.2360   -0.9719   -0.2385 C   0  0  0  0  0  0  0  0  0  0  0  0
    5.3714    0.2968    0.6035 C   0  0  2  0  0  0  0  0  0  0  0  0
    6.5344    1.1300    0.1031 C   0  0  0  0  0  0  0  0  0  0  0  0
    6.3629    1.9417   -1.0163 C   0  0  0  0  0  0  0  0  0  0  0  0
    7.4160    2.6893   -1.5228 C   0  0  0  0  0  0  0  0  0  0  0  0
    8.6633    2.6370   -0.9127 C   0  0  0  0  0  0  0  0  0  0  0  0
    8.8433    1.8327    0.2038 C   0  0  0  0  0  0  0  0  0  0  0  0
    7.7856    1.0862    0.7094 C   0  0  0  0  0  0  0  0  0  0  0  0
    5.4559    0.0107    1.9793 O   0  0  0  0  0  0  0  0  0  0  0  0
    0.5976   -0.1576    0.1295 C   0  0  0  0  0  0  0  0  0  0  0  0
   -0.7452   -0.6604    0.6435 C   0  0  0  0  0  0  0  0  0  0  0  0
   -1.9148    0.0995    0.0319 C   0  0  0  0  0  0  0  0  0  0  0  0
   -3.2681   -0.3821    0.5386 C   0  0  0  0  0  0  0  0  0  0  0  0
   -4.4418    0.3453   -0.1042 C   0  0  0  0  0  0  0  0  0  0  0  0
   -5.7982   -0.1337    0.3976 C   0  0  0  0  0  0  0  0  0  0  0  0
   -6.9693    0.5820   -0.2630 C   0  0  0  0  0  0  0  0  0  0  0  0
   -8.3285    0.1041    0.2321 C   0  0  0  0  0  0  0  0  0  0  0  0
   -9.4963    0.8158   -0.4389 C   0  0  0  0  0  0  0  0  0  0  0  0
  -10.8576    0.3384    0.0505 C   0  0  0  0  0  0  0  0  0  0  0  0
  -12.0242    1.0483   -0.6251 C   0  0  0  0  0  0  0  0  0  0  0  0
  -13.3803    0.5630   -0.1320 C   0  0  0  0  0  0  0  0  0  0  0  0
    2.6635   -0.7948   -1.1263 H   0  0  0  0  0  0  0  0  0  0  0  0
    4.0208   -2.0179    1.1938 H   0  0  0  0  0  0  0  0  0  0  0  0
    4.9353   -3.7154   -0.2553 H   0  0  0  0  0  0  0  0  0  0  0  0
    3.1698   -3.7535   -0.2324 H   0  0  0  0  0  0  0  0  0  0  0  0
    3.9151   -3.8289   -2.3949 H   0  0  0  0  0  0  0  0  0  0  0  0
    6.1392   -1.5808   -0.1141 H   0  0  0  0  0  0  0  0  0  0  0  0
    5.2040   -0.6966   -1.2956 H   0  0  0  0  0  0  0  0  0  0  0  0
    4.4599    0.8916    0.4833 H   0  0  0  0  0  0  0  0  0  0  0  0
    5.3908    1.9968   -1.4944 H   0  0  0  0  0  0  0  0  0  0  0  0
    7.2624    3.3182   -2.3904 H   0  0  0  0  0  0  0  0  0  0  0  0
    9.4855    3.2239   -1.3012 H   0  0  0  0  0  0  0  0  0  0  0  0
    9.8101    1.7868    0.6887 H   0  0  0  0  0  0  0  0  0  0  0  0
    7.9498    0.4756    1.5884 H   0  0  0  0  0  0  0  0  0  0  0  0
    6.0594   -0.7280    2.1113 H   0  0  0  0  0  0  0  0  0  0  0  0
    0.7290    0.8929    0.4109 H   0  0  0  0  0  0  0  0  0  0  0  0
    0.6115   -0.1796   -0.9633 H   0  0  0  0  0  0  0  0  0  0  0  0
   -0.8497   -1.7259    0.4165 H   0  0  0  0  0  0  0  0  0  0  0  0
   -0.7799   -0.5725    1.7319 H   0  0  0  0  0  0  0  0  0  0  0  0
   -1.8070    1.1694    0.2417 H   0  0  0  0  0  0  0  0  0  0  0  0
   -1.8801    0.0011   -1.0588 H   0  0  0  0  0  0  0  0  0  0  0  0
   -3.3628   -1.4577    0.3528 H   0  0  0  0  0  0  0  0  0  0  0  0
   -3.3145   -0.2588    1.6263 H   0  0  0  0  0  0  0  0  0  0  0  0
   -4.3469    1.4215    0.0779 H   0  0  0  0  0  0  0  0  0  0  0  0
   -4.3924    0.2188   -1.1915 H   0  0  0  0  0  0  0  0  0  0  0  0
   -5.8882   -1.2120    0.2253 H   0  0  0  0  0  0  0  0  0  0  0  0
   -5.8540    0.0033    1.4833 H   0  0  0  0  0  0  0  0  0  0  0  0
   -6.8795    1.6605   -0.0913 H   0  0  0  0  0  0  0  0  0  0  0  0
   -6.9103    0.4446   -1.3486 H   0  0  0  0  0  0  0  0  0  0  0  0
   -8.4167   -0.9751    0.0645 H   0  0  0  0  0  0  0  0  0  0  0  0
   -8.3913    0.2464    1.3168 H   0  0  0  0  0  0  0  0  0  0  0  0
   -9.4084    1.8950   -0.2709 H   0  0  0  0  0  0  0  0  0  0  0  0
   -9.4309    0.6741   -1.5236 H   0  0  0  0  0  0  0  0  0  0  0  0
  -10.9451   -0.7412   -0.1157 H   0  0  0  0  0  0  0  0  0  0  0  0
  -10.9254    0.4820    1.1349 H   0  0  0  0  0  0  0  0  0  0  0  0
  -11.9369    2.1263   -0.4571 H   0  0  0  0  0  0  0  0  0  0  0  0
  -11.9549    0.9055   -1.7081 H   0  0  0  0  0  0  0  0  0  0  0  0
  -13.5073   -0.5053   -0.3169 H   0  0  0  0  0  0  0  0  0  0  0  0
  -13.4897    0.7241    0.9422 H   0  0  0  0  0  0  0  0  0  0  0  0
  -14.1992    1.0842   -0.6290 H   0  0  0  0  0  0  0  0  0  0  0  0
  1  2  2  0
  2  3  1  0
  2 16  1  0
  3  4  1  0
  4  5  1  0
  4  7  1  0
  5  6  1  0
  7  8  1  0
  8  9  1  0
  8 15  1  0
  9 10  2  0
  9 14  1  0
 10 11  1  0
 11 12  2  0
 12 13  1  0
 13 14  2  0
 16 17  1  0
 17 18  1  0
 18 19  1  0
 19 20  1  0
 20 21  1  0
 21 22  1  0
 22 23  1  0
 23 24  1  0
 24 25  1  0
 25 26  1  0
 26 27  1  0
  3 28  1  0
  4 29  1  1
  5 30  1  0
  5 31  1  0
  6 32  1  0
  7 33  1  0
  7 34  1  0
  8 35  1  1
 10 36  1  0
 11 37  1  0
 12 38  1  0
 13 39  1  0
 14 40  1  0
 15 41  1  0
 16 42  1  0
 16 43  1  0
 17 44  1  0
 17 45  1  0
 18 46  1  0
 18 47  1  0
 19 48  1  0
 19 49  1  0
 20 50  1  0
 20 51  1  0
 21 52  1  0
 21 53  1  0
 22 54  1  0
 22 55  1  0
 23 56  1  0
 23 57  1  0
 24 58  1  0
 24 59  1  0
 25 60  1  0
 25 61  1  0
 26 62  1  0
 26 63  1  0
 27 64  1  0
 27 65  1  0
 27 66  1  0
M  END
