
     RDKit          3D

 34 36  0  0  0  0  0  0  0  0999 V2000
    0.7129    0.7023   -0.5496 C   0  0  0  0  0  0  0  0  0  0  0  0
    1.1468   -0.6482   -0.4852 C   0  0  0  0  0  0  0  0  0  0  0  0
    2.3597   -0.9139    0.1896 C   0  0  0  0  0  0  0  0  0  0  0  0
    2.2323   -3.1627   -0.1597 C   0  0  0  0  0  0  0  0  0  0  0  0
    0.4760   -1.7752   -1.0158 C   0  0  0  0  0  0  0  0  0  0  0  0
   -2.9835   -0.3905   -0.8962 C   0  0  0  0  0  0  0  0  0  0  0  0
   -4.1417   -0.4603    1.2290 C   0  0  0  0  0  0  0  0  0  0  0  0
   -2.1766    0.9269    0.9627 C   0  0  0  0  0  0  0  0  0  0  0  0
    3.1281    0.1349    0.7696 C   0  0  0  0  0  0  0  0  0  0  0  0
   -2.0681    0.4971   -0.3559 C   0  0  0  0  0  0  0  0  0  0  0  0
   -4.0149   -0.8633   -0.0965 C   0  0  0  0  0  0  0  0  0  0  0  0
   -3.2056    0.4404    1.7450 C   0  0  0  0  0  0  0  0  0  0  0  0
    2.6547    1.4172    0.6663 C   0  0  0  0  0  0  0  0  0  0  0  0
    1.4588    1.7072    0.0151 C   0  0  0  0  0  0  0  0  0  0  0  0
    1.0134   -3.0206   -0.8485 C   0  0  0  0  0  0  0  0  0  0  0  0
    3.3575    2.4190    1.2071 F   0  0  0  0  0  0  0  0  0  0  0  0
    2.8816   -2.1456    0.3381 N   0  0  0  0  0  0  0  0  0  0  0  0
    4.2639   -0.1347    1.3941 O   0  0  0  0  0  0  0  0  0  0  0  0
   -0.7861    1.1743   -1.3682 S   0  0  1  0  0  0  0  0  0  0  0  0
    2.6708   -4.1442   -0.0245 H   0  0  0  0  0  0  0  0  0  0  0  0
   -0.4500   -1.6721   -1.5605 H   0  0  0  0  0  0  0  0  0  0  0  0
   -2.9067   -0.7164   -1.9247 H   0  0  0  0  0  0  0  0  0  0  0  0
   -1.4656    1.6256    1.3860 H   0  0  0  0  0  0  0  0  0  0  0  0
   -4.7320   -1.5552   -0.5198 H   0  0  0  0  0  0  0  0  0  0  0  0
   -3.2895    0.7704    2.7729 H   0  0  0  0  0  0  0  0  0  0  0  0
   -4.8468   -1.6205    2.8868 H   0  0  0  0  0  0  0  0  0  0  0  0
   -5.7794   -0.1655    2.5857 H   0  0  0  0  0  0  0  0  0  0  0  0
   -5.9658   -1.5637    1.5264 H   0  0  0  0  0  0  0  0  0  0  0  0
    1.1341    2.7386   -0.0287 H   0  0  0  0  0  0  0  0  0  0  0  0
    0.5159   -3.8950   -1.2430 H   0  0  0  0  0  0  0  0  0  0  0  0
    4.4028   -1.0973    1.3470 H   0  0  0  0  0  0  0  0  0  0  0  0
   -5.2454   -0.9810    2.0974 C   0  0  0  0  0  0  0  0  0  0  0  0
   -0.8793    2.6293   -1.2979 O   0  0  0  0  0  0  0  0  0  0  0  0
   -0.8384    0.5322   -2.6780 O   0  0  0  0  0  0  0  0  0  0  0  0
 33 19  2  0
 34 19  2  0
 16 13  1  0
 14 13  2  0
 14  1  1  0
 19  1  1  1
 19 10  1  0
 13  9  1  0
  1  2  2  0
  9 18  1  0
  9  3  2  0
  2  3  1  0
  2  5  1  0
  3 17  1  0
 10  8  1  0
 10  6  2  0
  5 15  2  0
  8 12  2  0
 17  4  2  0
  6 11  1  0
 15  4  1  0
 12  7  1  0
 11  7  2  0
  7 32  1  0
  4 20  1  0
  5 21  1  0
  6 22  1  0
  8 23  1  0
 11 24  1  0
 12 25  1  0
 32 26  1  0
 32 27  1  0
 32 28  1  0
 14 29  1  0
 15 30  1  0
 18 31  1  0
M  END
