
     RDKit          3D

 17 16  0  0  0  0  0  0  0  0999 V2000
   -1.0348    0.1200    0.1347 P   0  0  2  0  0  0  0  0  0  0  0  0
    0.5244   -0.6826    0.5727 C   0  0  0  0  0  0  0  0  0  0  0  0
    1.7046   -0.2600   -0.2928 C   0  0  1  0  0  0  0  0  0  0  0  0
    1.7516    1.1514   -0.2812 O   0  0  0  0  0  0  0  0  0  0  0  0
    2.9980   -0.8752    0.2188 C   0  0  0  0  0  0  0  0  0  0  0  0
   -1.1798    0.0229   -1.4677 O   0  0  0  0  0  0  0  0  0  0  0  0
   -1.2514    1.5222    0.5617 O   0  0  0  0  0  0  0  0  0  0  0  0
   -2.0821   -0.9411    0.7498 O   0  0  0  0  0  0  0  0  0  0  0  0
    0.3957   -1.7642    0.4939 H   0  0  0  0  0  0  0  0  0  0  0  0
    0.7203   -0.4620    1.6265 H   0  0  0  0  0  0  0  0  0  0  0  0
    1.5322   -0.6263   -1.3134 H   0  0  0  0  0  0  0  0  0  0  0  0
    2.4510    1.4319   -0.8801 H   0  0  0  0  0  0  0  0  0  0  0  0
    3.8422   -0.5702   -0.4028 H   0  0  0  0  0  0  0  0  0  0  0  0
    3.1983   -0.5666    1.2461 H   0  0  0  0  0  0  0  0  0  0  0  0
    2.9486   -1.9642    0.1934 H   0  0  0  0  0  0  0  0  0  0  0  0
   -1.1105   -0.8669   -1.8365 H   0  0  0  0  0  0  0  0  0  0  0  0
   -2.9898   -0.6098    0.7892 H   0  0  0  0  0  0  0  0  0  0  0  0
  1  2  1  0
  1  6  1  6
  1  7  2  0
  1  8  1  0
  2  3  1  0
  2  9  1  0
  2 10  1  0
  3  4  1  0
  3  5  1  0
  3 11  1  6
  4 12  1  0
  5 13  1  0
  5 14  1  0
  5 15  1  0
  6 16  1  0
  8 17  1  0
M  END
