
     RDKit          3D

 41 42  0  0  0  0  0  0  0  0999 V2000
    1.4956    2.4668   -0.2071 C   0  0  0  0  0  0  0  0  0  0  0  0
    0.0580    2.6692    0.2583 C   0  0  0  0  0  0  0  0  0  0  0  0
   -0.7737    1.4265    0.0908 C   0  0  0  0  0  0  0  0  0  0  0  0
   -2.1575    1.4963    0.0756 C   0  0  0  0  0  0  0  0  0  0  0  0
   -2.9907    0.3854   -0.0344 C   0  0  0  0  0  0  0  0  0  0  0  0
   -4.4899    0.5729   -0.0498 C   0  0  0  0  0  0  0  0  0  0  0  0
   -4.7797    1.9337   -0.2556 O   0  0  0  0  0  0  0  0  0  0  0  0
   -2.3293   -0.8412   -0.1549 C   0  0  0  0  0  0  0  0  0  0  0  0
   -3.0700   -2.0849   -0.2657 N   0  0  0  0  0  0  0  0  0  0  0  0
   -2.5328   -3.0312   -0.7952 O   0  0  0  0  0  0  0  0  0  0  0  0
   -4.1919   -2.1266    0.1888 O   0  0  0  0  0  0  0  0  0  0  0  0
   -0.9471   -0.9540   -0.1697 C   0  0  0  0  0  0  0  0  0  0  0  0
   -0.1431    0.1763   -0.0401 C   0  0  0  0  0  0  0  0  0  0  0  0
    1.2181    0.0747   -0.0728 N   0  0  0  0  0  0  0  0  0  0  0  0
    2.0564    1.1711    0.3561 C   0  0  1  0  0  0  0  0  0  0  0  0
    3.4814    0.9030   -0.1048 C   0  0  0  0  0  0  0  0  0  0  0  0
    3.9376   -0.3812    0.3900 N   0  0  0  0  0  0  0  0  0  0  0  0
    5.1188   -0.9200   -0.2728 C   0  0  1  0  0  0  0  0  0  0  0  0
    6.3594   -0.0360   -0.1504 C   0  0  0  0  0  0  0  0  0  0  0  0
    5.3930   -2.3194    0.2590 C   0  0  0  0  0  0  0  0  0  0  0  0
    1.5399    2.4336   -1.2998 H   0  0  0  0  0  0  0  0  0  0  0  0
    2.1112    3.3078    0.1162 H   0  0  0  0  0  0  0  0  0  0  0  0
    0.0565    2.9557    1.3148 H   0  0  0  0  0  0  0  0  0  0  0  0
   -0.4040    3.4997   -0.2792 H   0  0  0  0  0  0  0  0  0  0  0  0
   -2.6083    2.4762    0.1579 H   0  0  0  0  0  0  0  0  0  0  0  0
   -4.9371   -0.0428   -0.8382 H   0  0  0  0  0  0  0  0  0  0  0  0
   -4.9107    0.2222    0.8994 H   0  0  0  0  0  0  0  0  0  0  0  0
   -5.7298    2.0459   -0.1617 H   0  0  0  0  0  0  0  0  0  0  0  0
   -0.4818   -1.9251   -0.2707 H   0  0  0  0  0  0  0  0  0  0  0  0
    1.6251   -0.8379    0.0718 H   0  0  0  0  0  0  0  0  0  0  0  0
    2.0606    1.2514    1.4556 H   0  0  0  0  0  0  0  0  0  0  0  0
    3.5005    0.8740   -1.1989 H   0  0  0  0  0  0  0  0  0  0  0  0
    4.1114    1.7492    0.2024 H   0  0  0  0  0  0  0  0  0  0  0  0
    4.1151   -0.3139    1.3870 H   0  0  0  0  0  0  0  0  0  0  0  0
    4.8649   -1.0045   -1.3356 H   0  0  0  0  0  0  0  0  0  0  0  0
    7.2076   -0.4738   -0.6790 H   0  0  0  0  0  0  0  0  0  0  0  0
    6.1912    0.9584   -0.5670 H   0  0  0  0  0  0  0  0  0  0  0  0
    6.6454    0.0843    0.8975 H   0  0  0  0  0  0  0  0  0  0  0  0
    4.5183   -2.9601    0.1447 H   0  0  0  0  0  0  0  0  0  0  0  0
    6.2253   -2.7808   -0.2734 H   0  0  0  0  0  0  0  0  0  0  0  0
    5.6560   -2.2915    1.3195 H   0  0  0  0  0  0  0  0  0  0  0  0
 11  9  2  0
 10  9  1  0
  9  8  1  0
  6  5  1  0
  6  7  1  0
  8  5  2  0
  8 12  1  0
  5  4  1  0
 12 13  2  0
  4  3  2  0
 13  3  1  0
 13 14  1  0
  3  2  1  0
 14 15  1  0
  2  1  1  0
 15 16  1  0
 15  1  1  0
 17 16  1  0
 17 18  1  0
 20 18  1  0
 18 19  1  0
  1 21  1  0
  1 22  1  0
  2 23  1  0
  2 24  1  0
  4 25  1  0
  6 26  1  0
  6 27  1  0
  7 28  1  0
 12 29  1  0
 14 30  1  0
 15 31  1  1
 16 32  1  0
 16 33  1  0
 17 34  1  0
 18 35  1  6
 19 36  1  0
 19 37  1  0
 19 38  1  0
 20 39  1  0
 20 40  1  0
 20 41  1  0
M  CHG  2   9   1  10  -1
M  END
