
     RDKit          3D

 25 24  0  0  0  0  0  0  0  0999 V2000
    2.0608   -0.5040   -0.2308 N   0  0  0  0  0  0  0  0  0  0  0  0
    0.6180   -0.4470   -0.3335 C   0  0  2  0  0  0  0  0  0  0  0  0
    0.2149    0.1467   -1.6764 C   0  0  0  0  0  0  0  0  0  0  0  0
    0.6461    1.1597   -2.2273 O   0  0  0  0  0  0  0  0  0  0  0  0
   -0.1204    0.3629    0.7466 C   0  0  0  0  0  0  0  0  0  0  0  0
    0.0690   -0.2357    2.1222 C   0  0  0  0  0  0  0  0  0  0  0  0
   -0.8249    0.4449    3.1386 C   0  0  0  0  0  0  0  0  0  0  0  0
   -0.6199   -0.1214    4.5198 C   0  0  0  0  0  0  0  0  0  0  0  0
   -0.7722   -0.5696   -2.2901 O   0  0  0  0  0  0  0  0  0  0  0  0
   -1.2217   -0.0866   -3.5575 C   0  0  0  0  0  0  0  0  0  0  0  0
    2.4724    0.3833   -0.4490 H   0  0  0  0  0  0  0  0  0  0  0  0
    2.3258   -0.7788    0.6947 H   0  0  0  0  0  0  0  0  0  0  0  0
    0.2431   -1.5153   -0.2942 H   0  0  0  0  0  0  0  0  0  0  0  0
   -1.2124    0.3729    0.4888 H   0  0  0  0  0  0  0  0  0  0  0  0
    0.2381    1.4252    0.7372 H   0  0  0  0  0  0  0  0  0  0  0  0
    1.1383   -0.1308    2.4461 H   0  0  0  0  0  0  0  0  0  0  0  0
   -0.1636   -1.3332    2.0942 H   0  0  0  0  0  0  0  0  0  0  0  0
   -1.8981    0.3194    2.8354 H   0  0  0  0  0  0  0  0  0  0  0  0
   -0.6104    1.5462    3.1463 H   0  0  0  0  0  0  0  0  0  0  0  0
   -1.2972    0.3844    5.2494 H   0  0  0  0  0  0  0  0  0  0  0  0
   -0.8402   -1.2163    4.5346 H   0  0  0  0  0  0  0  0  0  0  0  0
    0.4347    0.0278    4.8559 H   0  0  0  0  0  0  0  0  0  0  0  0
   -1.9979   -0.8303   -3.8632 H   0  0  0  0  0  0  0  0  0  0  0  0
   -1.6555    0.9355   -3.4420 H   0  0  0  0  0  0  0  0  0  0  0  0
   -0.3702   -0.0619   -4.2790 H   0  0  0  0  0  0  0  0  0  0  0  0
  1  2  1  0
  1 11  1  0
  1 12  1  0
  2  3  1  0
  2  5  1  0
  2 13  1  6
  3  4  2  0
  3  9  1  0
  5  6  1  0
  5 14  1  0
  5 15  1  0
  6  7  1  0
  6 16  1  0
  6 17  1  0
  7  8  1  0
  7 18  1  0
  7 19  1  0
  8 20  1  0
  8 21  1  0
  8 22  1  0
  9 10  1  0
 10 23  1  0
 10 24  1  0
 10 25  1  0
M  END
