
     RDKit          3D

 55 57  0  0  0  0  0  0  0  0999 V2000
   -5.9517   -4.0067    0.2598 O   0  0  0  0  0  0  0  0  0  0  0  0
   -5.0286   -3.2646    0.0348 C   0  0  0  0  0  0  0  0  0  0  0  0
   -3.8148   -3.6890   -0.2955 O   0  0  0  0  0  0  0  0  0  0  0  0
   -5.0951   -1.7633    0.0858 C   0  0  0  0  0  0  0  0  0  0  0  0
   -6.4603   -1.2497    0.5142 C   0  0  0  0  0  0  0  0  0  0  0  0
   -7.7869    0.7688    1.2229 C   0  0  0  0  0  0  0  0  0  0  0  0
   -7.9263    0.4114    2.4908 O   0  0  0  0  0  0  0  0  0  0  0  0
   -8.6062    1.3854    0.5978 O   0  0  0  0  0  0  0  0  0  0  0  0
   -6.1844    0.9263   -0.5962 N   0  0  0  0  0  0  0  0  0  0  0  0
   -5.2615    2.9999    0.4170 O   0  0  0  0  0  0  0  0  0  0  0  0
   -2.9602    0.6832   -1.6565 C   0  0  0  0  0  0  0  0  0  0  0  0
   -1.7720   -0.0110   -1.5027 C   0  0  0  0  0  0  0  0  0  0  0  0
   -3.5059    1.3348   -0.5581 C   0  0  0  0  0  0  0  0  0  0  0  0
   -2.8781    1.3115    0.6793 C   0  0  0  0  0  0  0  0  0  0  0  0
   -1.6905    0.6096    0.8161 C   0  0  0  0  0  0  0  0  0  0  0  0
   -1.1337   -0.0603   -0.2674 C   0  0  0  0  0  0  0  0  0  0  0  0
    0.1656   -0.7908   -0.1116 C   0  0  0  0  0  0  0  0  0  0  0  0
    2.4747   -0.2155   -0.1366 C   0  0  0  0  0  0  0  0  0  0  0  0
    3.4416    0.7886   -0.2621 C   0  0  0  0  0  0  0  0  0  0  0  0
    4.7810    0.4821   -0.1857 C   0  0  0  0  0  0  0  0  0  0  0  0
    2.8807   -1.5332    0.0683 C   0  0  0  0  0  0  0  0  0  0  0  0
    4.2309   -1.8244    0.1423 C   0  0  0  0  0  0  0  0  0  0  0  0
    5.2148   -0.8377    0.0190 C   0  0  0  0  0  0  0  0  0  0  0  0
    6.5938   -1.2599    0.1146 C   0  0  0  0  0  0  0  0  0  0  0  0
    7.9824    1.1484   -0.2399 S   0  0  0  0  0  0  0  0  0  0  0  0
    9.7484    0.9727   -0.1741 C   0  0  0  0  0  0  0  0  0  0  0  0
   10.0667   -0.3376    0.0427 N   0  0  0  0  0  0  0  0  0  0  0  0
   -6.4596    0.2759    0.6618 C   0  0  2  0  0  0  0  0  0  0  0  0
    9.0468   -1.2533    0.1686 C   0  0  0  0  0  0  0  0  0  0  0  0
    7.7432   -0.5691    0.0311 C   0  0  0  0  0  0  0  0  0  0  0  0
   -5.0847    2.1243   -0.7289 S   0  0  1  0  0  0  0  0  0  0  0  0
   -5.1963    2.6377   -2.0820 O   0  0  0  0  0  0  0  0  0  0  0  0
   10.5151    1.8861   -0.3037 O   0  0  0  0  0  0  0  0  0  0  0  0
    1.1985    0.1816   -0.2263 O   0  0  0  0  0  0  0  0  0  0  0  0
   -3.7964   -4.6576   -0.3173 H   0  0  0  0  0  0  0  0  0  0  0  0
   -4.3181   -1.4061    0.7692 H   0  0  0  0  0  0  0  0  0  0  0  0
   -4.8163   -1.3838   -0.9007 H   0  0  0  0  0  0  0  0  0  0  0  0
   -7.2269   -1.5459   -0.2062 H   0  0  0  0  0  0  0  0  0  0  0  0
   -6.7359   -1.6910    1.4718 H   0  0  0  0  0  0  0  0  0  0  0  0
   -5.6819    0.5340    1.3885 H   0  0  0  0  0  0  0  0  0  0  0  0
   -8.7852    0.7036    2.8322 H   0  0  0  0  0  0  0  0  0  0  0  0
   -6.4491    0.4636   -1.4561 H   0  0  0  0  0  0  0  0  0  0  0  0
   -3.4478    0.7077   -2.6220 H   0  0  0  0  0  0  0  0  0  0  0  0
   -1.3416   -0.5236   -2.3537 H   0  0  0  0  0  0  0  0  0  0  0  0
   -3.2987    1.8288    1.5306 H   0  0  0  0  0  0  0  0  0  0  0  0
   -1.2002    0.5808    1.7810 H   0  0  0  0  0  0  0  0  0  0  0  0
    0.2132   -1.2828    0.8647 H   0  0  0  0  0  0  0  0  0  0  0  0
    0.2731   -1.5577   -0.8843 H   0  0  0  0  0  0  0  0  0  0  0  0
    3.1275    1.8120   -0.4218 H   0  0  0  0  0  0  0  0  0  0  0  0
    2.1682   -2.3395    0.1700 H   0  0  0  0  0  0  0  0  0  0  0  0
    5.4803    1.2994   -0.2879 H   0  0  0  0  0  0  0  0  0  0  0  0
    4.5298   -2.8530    0.3019 H   0  0  0  0  0  0  0  0  0  0  0  0
    6.7271   -2.3240    0.2845 H   0  0  0  0  0  0  0  0  0  0  0  0
   11.0374   -0.6202    0.1093 H   0  0  0  0  0  0  0  0  0  0  0  0
    9.2208   -2.4335    0.3621 O   0  0  0  0  0  0  0  0  0  0  0  0
  3  2  1  0
  2  1  2  0
  2  4  1  0
  4  5  1  0
  5 28  1  0
  6  7  1  0
  6  8  2  0
  6 28  1  0
  9 28  1  0
 31  9  1  1
 10 31  2  0
 11 12  2  0
 11 13  1  0
 12 16  1  0
 13 14  2  0
 13 31  1  0
 14 15  1  0
 15 16  2  0
 16 17  1  0
 17 34  1  0
 18 19  2  0
 18 21  1  0
 18 34  1  0
 19 20  1  0
 20 23  2  0
 21 22  2  0
 22 23  1  0
 23 24  1  0
 24 30  2  0
 25 26  1  0
 25 30  1  0
 26 27  1  0
 26 33  2  0
 27 29  1  0
 29 30  1  0
 29 55  2  0
 31 32  2  0
  3 35  1  0
  4 36  1  0
  4 37  1  0
  5 38  1  0
  5 39  1  0
 28 40  1  1
  7 41  1  0
  9 42  1  0
 11 43  1  0
 12 44  1  0
 14 45  1  0
 15 46  1  0
 17 47  1  0
 17 48  1  0
 19 49  1  0
 21 50  1  0
 20 51  1  0
 22 52  1  0
 24 53  1  0
 27 54  1  0
M  END
