
     RDKit          3D

107111  0  0  0  0  0  0  0  0999 V2000
   -2.8451    0.5470    0.6710 C   0  0  1  0  0  0  0  0  0  0  0  0
   -7.3772   -1.2394    0.8110 C   0  0  0  0  0  0  0  0  0  0  0  0
   -6.3375   -0.5857    1.3242 C   0  0  0  0  0  0  0  0  0  0  0  0
    2.7231    2.1095    2.0179 N   0  0  0  0  0  0  0  0  0  0  0  0
   -4.1057    0.2132    1.2646 N   0  0  0  0  0  0  0  0  0  0  0  0
  -11.1445   -0.4125    0.8345 C   0  0  0  0  0  0  0  0  0  0  0  0
    3.5323   -3.4929    0.3536 N   0  0  0  0  0  0  0  0  0  0  0  0
   -8.7678   -1.1603    1.3381 C   0  0  0  0  0  0  0  0  0  0  0  0
  -12.0977    0.1769   -0.1957 C   0  0  0  0  0  0  0  0  0  0  0  0
   -9.7226   -0.5528    0.3066 C   0  0  0  0  0  0  0  0  0  0  0  0
   -5.0018   -0.6221    0.6889 C   0  0  0  0  0  0  0  0  0  0  0  0
   -4.7319   -1.3295   -0.2711 O   0  0  0  0  0  0  0  0  0  0  0  0
   -2.9279    1.8834   -0.1079 C   0  0  0  0  0  0  0  0  0  0  0  0
   -4.0210    1.8248   -1.1328 C   0  0  0  0  0  0  0  0  0  0  0  0
   -5.3131    2.2192   -0.8006 C   0  0  0  0  0  0  0  0  0  0  0  0
   -6.3228    2.0509   -1.7273 C   0  0  0  0  0  0  0  0  0  0  0  0
   -7.5694    2.4173   -1.3974 F   0  0  0  0  0  0  0  0  0  0  0  0
   -6.1060    1.5207   -2.9835 C   0  0  0  0  0  0  0  0  0  0  0  0
   -4.8072    1.1563   -3.2849 C   0  0  0  0  0  0  0  0  0  0  0  0
   -4.5574    0.6451   -4.4988 F   0  0  0  0  0  0  0  0  0  0  0  0
   -3.7641    1.2930   -2.3929 C   0  0  0  0  0  0  0  0  0  0  0  0
   -1.7700    0.6453    1.7496 C   0  0  0  0  0  0  0  0  0  0  0  0
   -2.0471    0.7524    2.9329 O   0  0  0  0  0  0  0  0  0  0  0  0
   -0.5161    0.6467    1.2757 N   0  0  0  0  0  0  0  0  0  0  0  0
    0.6406    0.8219    2.1111 C   0  0  1  0  0  0  0  0  0  0  0  0
    1.1467   -0.5074    2.6605 C   0  0  0  0  0  0  0  0  0  0  0  0
    1.3585   -1.4001    1.5673 O   0  0  0  0  0  0  0  0  0  0  0  0
    1.9127   -2.5665    1.8572 C   0  0  0  0  0  0  0  0  0  0  0  0
    2.2688   -2.8757    2.9665 O   0  0  0  0  0  0  0  0  0  0  0  0
    2.1008   -3.4712    0.6463 C   0  0  2  0  0  0  0  0  0  0  0  0
    1.7508   -4.9371    0.9546 C   0  0  0  0  0  0  0  0  0  0  0  0
    2.9267   -5.7410    0.3929 C   0  0  1  0  0  0  0  0  0  0  0  0
    2.7657   -6.0483   -1.0909 C   0  0  0  0  0  0  0  0  0  0  0  0
    4.0995   -4.8001    0.6581 C   0  0  0  0  0  0  0  0  0  0  0  0
    4.0652   -2.5216   -0.4240 C   0  0  0  0  0  0  0  0  0  0  0  0
    3.3585   -1.7152   -0.9989 O   0  0  0  0  0  0  0  0  0  0  0  0
    5.6061   -2.4412   -0.5310 C   0  0  2  0  0  0  0  0  0  0  0  0
    6.2732   -2.5106    0.8384 C   0  0  0  0  0  0  0  0  0  0  0  0
    5.8959   -1.2366   -1.2916 N   0  0  0  0  0  0  0  0  0  0  0  0
    6.3584   -0.0559   -0.8025 C   0  0  0  0  0  0  0  0  0  0  0  0
    7.2214    0.0770    0.0432 O   0  0  0  0  0  0  0  0  0  0  0  0
    5.7934    1.1653   -1.5392 C   0  0  2  0  0  0  0  0  0  0  0  0
    6.8653    1.7742   -2.4359 C   0  0  0  0  0  0  0  0  0  0  0  0
    6.3349    2.9760   -3.2173 C   0  0  0  0  0  0  0  0  0  0  0  0
    5.4232    3.8541   -2.3452 C   0  0  0  0  0  0  0  0  0  0  0  0
    5.6175    3.5554   -0.8672 C   0  0  0  0  0  0  0  0  0  0  0  0
    5.3048    2.1606   -0.5875 N   0  0  0  0  0  0  0  0  0  0  0  0
    4.5152    1.7212    0.4165 C   0  0  0  0  0  0  0  0  0  0  0  0
    4.3626    0.5344    0.6398 O   0  0  0  0  0  0  0  0  0  0  0  0
    3.8243    2.7467    1.3142 C   0  0  2  0  0  0  0  0  0  0  0  0
    4.7558    3.2296    2.4403 C   0  0  0  0  0  0  0  0  0  0  0  0
    3.8432    3.3086    3.6582 C   0  0  0  0  0  0  0  0  0  0  0  0
    2.9250    2.1134    3.4606 C   0  0  0  0  0  0  0  0  0  0  0  0
    1.7054    1.5853    1.3196 C   0  0  0  0  0  0  0  0  0  0  0  0
    1.6065    1.7205    0.1099 O   0  0  0  0  0  0  0  0  0  0  0  0
   -2.5846   -0.2487   -0.0295 H   0  0  0  0  0  0  0  0  0  0  0  0
   -7.2279   -1.8461   -0.0780 H   0  0  0  0  0  0  0  0  0  0  0  0
   -6.4676    0.0403    2.2018 H   0  0  0  0  0  0  0  0  0  0  0  0
   -4.4082    0.7739    2.0460 H   0  0  0  0  0  0  0  0  0  0  0  0
  -11.1362    0.2177    1.7290 H   0  0  0  0  0  0  0  0  0  0  0  0
  -11.5106   -1.3923    1.1559 H   0  0  0  0  0  0  0  0  0  0  0  0
   -9.1179   -2.1661    1.5937 H   0  0  0  0  0  0  0  0  0  0  0  0
   -8.7873   -0.5703    2.2583 H   0  0  0  0  0  0  0  0  0  0  0  0
  -13.1043    0.2866    0.2092 H   0  0  0  0  0  0  0  0  0  0  0  0
  -11.7641    1.1633   -0.5231 H   0  0  0  0  0  0  0  0  0  0  0  0
  -12.1653   -0.4583   -1.0808 H   0  0  0  0  0  0  0  0  0  0  0  0
   -9.7264   -1.1763   -0.5935 H   0  0  0  0  0  0  0  0  0  0  0  0
   -9.3445    0.4271   -0.0013 H   0  0  0  0  0  0  0  0  0  0  0  0
   -3.1099    2.6958    0.5992 H   0  0  0  0  0  0  0  0  0  0  0  0
   -1.9684    2.0858   -0.5871 H   0  0  0  0  0  0  0  0  0  0  0  0
   -5.5359    2.6428    0.1702 H   0  0  0  0  0  0  0  0  0  0  0  0
   -6.9102    1.4014   -3.6972 H   0  0  0  0  0  0  0  0  0  0  0  0
   -2.7658    0.9801   -2.6720 H   0  0  0  0  0  0  0  0  0  0  0  0
   -0.3538    0.5530    0.2843 H   0  0  0  0  0  0  0  0  0  0  0  0
    0.3472    1.4187    2.9790 H   0  0  0  0  0  0  0  0  0  0  0  0
    2.0655   -0.3713    3.2310 H   0  0  0  0  0  0  0  0  0  0  0  0
    0.3961   -0.9259    3.3342 H   0  0  0  0  0  0  0  0  0  0  0  0
    1.5417   -3.0934   -0.2093 H   0  0  0  0  0  0  0  0  0  0  0  0
    1.6665   -5.0983    2.0291 H   0  0  0  0  0  0  0  0  0  0  0  0
    0.7981   -5.2144    0.5044 H   0  0  0  0  0  0  0  0  0  0  0  0
    3.0587   -6.6731    0.9455 H   0  0  0  0  0  0  0  0  0  0  0  0
    2.6577   -5.1385   -1.6851 H   0  0  0  0  0  0  0  0  0  0  0  0
    3.6291   -6.5934   -1.4748 H   0  0  0  0  0  0  0  0  0  0  0  0
    1.8815   -6.6626   -1.2652 H   0  0  0  0  0  0  0  0  0  0  0  0
    4.9594   -5.0187    0.0255 H   0  0  0  0  0  0  0  0  0  0  0  0
    4.4206   -4.8607    1.7016 H   0  0  0  0  0  0  0  0  0  0  0  0
    5.9483   -3.3033   -1.1166 H   0  0  0  0  0  0  0  0  0  0  0  0
    6.0911   -3.4824    1.2888 H   0  0  0  0  0  0  0  0  0  0  0  0
    7.3497   -2.3936    0.7510 H   0  0  0  0  0  0  0  0  0  0  0  0
    5.8914   -1.7488    1.5134 H   0  0  0  0  0  0  0  0  0  0  0  0
    5.1837   -1.1002   -1.9930 H   0  0  0  0  0  0  0  0  0  0  0  0
    4.9500    0.8490   -2.1652 H   0  0  0  0  0  0  0  0  0  0  0  0
    7.7203    2.0650   -1.8213 H   0  0  0  0  0  0  0  0  0  0  0  0
    7.2264    1.0068   -3.1230 H   0  0  0  0  0  0  0  0  0  0  0  0
    7.1825    3.5523   -3.5908 H   0  0  0  0  0  0  0  0  0  0  0  0
    5.7853    2.6315   -4.0951 H   0  0  0  0  0  0  0  0  0  0  0  0
    5.6132    4.9134   -2.5226 H   0  0  0  0  0  0  0  0  0  0  0  0
    4.3736    3.6800   -2.5935 H   0  0  0  0  0  0  0  0  0  0  0  0
    6.6436    3.7773   -0.5592 H   0  0  0  0  0  0  0  0  0  0  0  0
    4.9748    4.2037   -0.2791 H   0  0  0  0  0  0  0  0  0  0  0  0
    3.4392    3.5910    0.7374 H   0  0  0  0  0  0  0  0  0  0  0  0
    5.5473    2.4978    2.6162 H   0  0  0  0  0  0  0  0  0  0  0  0
    5.2310    4.1778    2.1941 H   0  0  0  0  0  0  0  0  0  0  0  0
    4.3880    3.2603    4.5999 H   0  0  0  0  0  0  0  0  0  0  0  0
    3.2629    4.2333    3.6478 H   0  0  0  0  0  0  0  0  0  0  0  0
    1.9858    2.2109    4.0040 H   0  0  0  0  0  0  0  0  0  0  0  0
    3.4179    1.1947    3.7922 H   0  0  0  0  0  0  0  0  0  0  0  0
 17 16  1  0
 18 16  1  0
 18 19  2  0
 16 15  2  0
 20 19  1  0
 19 21  1  0
 15 14  1  0
 21 14  2  0
 14 13  1  0
 13  1  1  0
 38 37  1  0
  1  5  1  0
  1 22  1  0
 36 35  2  0
  5 11  1  0
 23 22  2  0
 22 24  1  0
 37 35  1  0
 37 39  1  0
 46 45  1  0
 46 47  1  0
 45 44  1  0
 11  3  1  0
 11 12  2  0
 35  7  1  0
  3  2  2  0
 39 40  1  0
 44 43  1  0
 24 25  1  0
 49 48  2  0
  2  8  1  0
  8 10  1  0
  7 34  1  0
  7 30  1  0
 47 48  1  0
 47 42  1  0
 40 41  2  0
 40 42  1  0
 34 32  1  0
 48 50  1  0
 42 43  1  0
 25 54  1  0
 25 26  1  0
 10  6  1  0
  6  9  1  0
 30 28  1  0
 30 31  1  0
 32 33  1  0
 32 31  1  0
 28 27  1  0
 28 29  2  0
 54 55  2  0
 54  4  1  0
 27 26  1  0
 50  4  1  0
 50 51  1  0
  4 53  1  0
 51 52  1  0
 53 52  1  0
  1 56  1  6
  2 57  1  0
  3 58  1  0
  5 59  1  0
  6 60  1  0
  6 61  1  0
  8 62  1  0
  8 63  1  0
  9 64  1  0
  9 65  1  0
  9 66  1  0
 10 67  1  0
 10 68  1  0
 13 69  1  0
 13 70  1  0
 15 71  1  0
 18 72  1  0
 21 73  1  0
 24 74  1  0
 25 75  1  1
 26 76  1  0
 26 77  1  0
 30 78  1  6
 31 79  1  0
 31 80  1  0
 32 81  1  1
 33 82  1  0
 33 83  1  0
 33 84  1  0
 34 85  1  0
 34 86  1  0
 37 87  1  6
 38 88  1  0
 38 89  1  0
 38 90  1  0
 39 91  1  0
 42 92  1  6
 43 93  1  0
 43 94  1  0
 44 95  1  0
 44 96  1  0
 45 97  1  0
 45 98  1  0
 46 99  1  0
 46100  1  0
 50101  1  6
 51102  1  0
 51103  1  0
 52104  1  0
 52105  1  0
 53106  1  0
 53107  1  0
M  END
