
     RDKit          3D

 17 16  0  0  0  0  0  0  0  0999 V2000
   -1.5745   -0.6067   -0.6165 N   0  0  0  0  0  0  0  0  0  0  0  0
   -0.2004   -0.3607   -0.2431 C   0  0  2  0  0  0  0  0  0  0  0  0
   -0.1372    0.2095    1.1699 C   0  0  0  0  0  0  0  0  0  0  0  0
   -0.7952    1.1342    1.6470 O   0  0  0  0  0  0  0  0  0  0  0  0
    0.5901    0.6073   -1.1343 C   0  0  0  0  0  0  0  0  0  0  0  0
    0.6570   -0.0907   -2.7584 S   0  0  0  0  0  0  0  0  0  0  0  0
    0.7720   -0.4381    1.9544 O   0  0  0  0  0  0  0  0  0  0  0  0
    0.7267   -0.1636    3.3573 C   0  0  0  0  0  0  0  0  0  0  0  0
   -1.6197   -0.9153   -1.5698 H   0  0  0  0  0  0  0  0  0  0  0  0
   -2.1353    0.2150   -0.4969 H   0  0  0  0  0  0  0  0  0  0  0  0
    0.3315   -1.3622   -0.2466 H   0  0  0  0  0  0  0  0  0  0  0  0
    0.1051    1.6124   -1.1475 H   0  0  0  0  0  0  0  0  0  0  0  0
    1.6218    0.7256   -0.7229 H   0  0  0  0  0  0  0  0  0  0  0  0
    1.0505    0.9790   -3.4282 H   0  0  0  0  0  0  0  0  0  0  0  0
    1.5058   -0.8431    3.7831 H   0  0  0  0  0  0  0  0  0  0  0  0
    0.9726    0.9091    3.5424 H   0  0  0  0  0  0  0  0  0  0  0  0
   -0.2878   -0.3996    3.7580 H   0  0  0  0  0  0  0  0  0  0  0  0
  1  2  1  0
  1  9  1  0
  1 10  1  0
  2  3  1  0
  2  5  1  0
  2 11  1  1
  3  4  2  0
  3  7  1  0
  5  6  1  0
  5 12  1  0
  5 13  1  0
  6 14  1  0
  7  8  1  0
  8 15  1  0
  8 16  1  0
  8 17  1  0
M  END
