
     RDKit          3D

 52 57  0  0  0  0  0  0  0  0999 V2000
    6.6493   -2.4967    1.0818 C   0  0  0  0  0  0  0  0  0  0  0  0
    5.2432   -2.4378    1.0287 C   0  0  0  0  0  0  0  0  0  0  0  0
    5.2023    2.0056   -0.5178 C   0  0  0  0  0  0  0  0  0  0  0  0
   -0.2657    1.9126   -0.3246 C   0  0  0  0  0  0  0  0  0  0  0  0
   -6.1055    1.4094   -0.0397 C   0  0  0  0  0  0  0  0  0  0  0  0
   -5.8817    0.8412    1.3860 C   0  0  0  0  0  0  0  0  0  0  0  0
   -1.5755    1.4683   -0.2813 C   0  0  0  0  0  0  0  0  0  0  0  0
    7.3662   -1.3916    0.7176 C   0  0  0  0  0  0  0  0  0  0  0  0
    2.1766    1.5547   -0.4985 C   0  0  0  0  0  0  0  0  0  0  0  0
    7.3496    0.9564   -0.0958 C   0  0  0  0  0  0  0  0  0  0  0  0
   -7.3690   -0.5843    0.2067 C   0  0  0  0  0  0  0  0  0  0  0  0
   -1.8433    0.1101   -0.3732 C   0  0  0  0  0  0  0  0  0  0  0  0
    0.7864    1.0063   -0.4365 C   0  0  0  0  0  0  0  0  0  0  0  0
   -6.2285   -0.6467    1.2332 C   0  0  1  0  0  0  0  0  0  0  0  0
   -6.5531    0.1808   -0.8446 C   0  0  2  0  0  0  0  0  0  0  0  0
    5.2758   -0.2775    0.2799 C   0  0  0  0  0  0  0  0  0  0  0  0
    6.6871   -0.2268    0.2983 C   0  0  0  0  0  0  0  0  0  0  0  0
   -3.7259   -1.0458    0.7233 C   0  0  0  0  0  0  0  0  0  0  0  0
    4.5283    0.8675   -0.1405 C   0  0  0  0  0  0  0  0  0  0  0  0
    4.5835   -1.3769    0.6452 N   0  0  0  0  0  0  0  0  0  0  0  0
    6.6118    2.0363   -0.4913 C   0  0  0  0  0  0  0  0  0  0  0  0
    3.1507    0.6919   -0.1252 N   0  0  0  0  0  0  0  0  0  0  0  0
    2.3835    2.7018   -0.8541 O   0  0  0  0  0  0  0  0  0  0  0  0
    0.5020   -0.3549   -0.5281 C   0  0  0  0  0  0  0  0  0  0  0  0
   -0.8082   -0.8029   -0.5014 C   0  0  0  0  0  0  0  0  0  0  0  0
   -3.1819   -0.3487   -0.3485 N   0  0  0  0  0  0  0  0  0  0  0  0
   -4.0625   -0.1745   -1.4092 C   0  0  0  0  0  0  0  0  0  0  0  0
   -3.7735    0.3853   -2.4352 O   0  0  0  0  0  0  0  0  0  0  0  0
   -5.3744   -0.7969   -1.0250 C   0  0  1  0  0  0  0  0  0  0  0  0
   -5.1556   -1.3642    0.3881 C   0  0  2  0  0  0  0  0  0  0  0  0
    7.1369   -3.4044    1.4080 H   0  0  0  0  0  0  0  0  0  0  0  0
    4.6561   -3.3029    1.3159 H   0  0  0  0  0  0  0  0  0  0  0  0
    4.6692    2.8852   -0.8376 H   0  0  0  0  0  0  0  0  0  0  0  0
   -0.0638    2.9731   -0.2617 H   0  0  0  0  0  0  0  0  0  0  0  0
   -6.8992    2.1572   -0.0408 H   0  0  0  0  0  0  0  0  0  0  0  0
   -5.2224    1.9035   -0.4507 H   0  0  0  0  0  0  0  0  0  0  0  0
   -4.8733    1.0172    1.7658 H   0  0  0  0  0  0  0  0  0  0  0  0
   -6.5621    1.3039    2.1019 H   0  0  0  0  0  0  0  0  0  0  0  0
   -2.3856    2.1776   -0.1747 H   0  0  0  0  0  0  0  0  0  0  0  0
    8.4487   -1.3957    0.7460 H   0  0  0  0  0  0  0  0  0  0  0  0
    8.4313    0.9937   -0.0817 H   0  0  0  0  0  0  0  0  0  0  0  0
   -7.7025   -1.5678   -0.1322 H   0  0  0  0  0  0  0  0  0  0  0  0
   -8.2358   -0.0260    0.5657 H   0  0  0  0  0  0  0  0  0  0  0  0
   -6.4477   -1.1529    2.1719 H   0  0  0  0  0  0  0  0  0  0  0  0
   -7.0599    0.4192   -1.7782 H   0  0  0  0  0  0  0  0  0  0  0  0
    7.1088    2.9476   -0.7963 H   0  0  0  0  0  0  0  0  0  0  0  0
    2.8876   -0.2160    0.2377 H   0  0  0  0  0  0  0  0  0  0  0  0
    1.2853   -1.0904   -0.6573 H   0  0  0  0  0  0  0  0  0  0  0  0
   -1.0195   -1.8594   -0.5969 H   0  0  0  0  0  0  0  0  0  0  0  0
   -5.6213   -1.5691   -1.7568 H   0  0  0  0  0  0  0  0  0  0  0  0
   -5.2935   -2.4466    0.4354 H   0  0  0  0  0  0  0  0  0  0  0  0
   -3.1145   -1.3150    1.7254 O   0  0  0  0  0  0  0  0  0  0  0  0
  6  5  1  0
  6 14  1  0
  5 15  1  0
  1  2  2  0
  1  8  1  0
  2 20  1  0
  8 17  2  0
 11 14  1  0
 11 15  1  0
 20 16  2  0
 14 30  1  0
 15 29  1  0
 17 16  1  0
 17 10  1  0
 16 19  1  0
  4  7  2  0
  4 13  1  0
  7 12  1  0
 10 21  2  0
 19 22  1  0
 19  3  2  0
 22  9  1  0
 21  3  1  0
 30 29  1  0
 30 18  1  0
 29 27  1  0
 27 28  2  0
 27 26  1  0
 18 52  2  0
 18 26  1  0
 26 12  1  0
 12 25  2  0
 13  9  1  0
 13 24  2  0
  9 23  2  0
 24 25  1  0
  1 31  1  0
  2 32  1  0
  3 33  1  0
  4 34  1  0
  5 35  1  0
  5 36  1  0
  6 37  1  0
  6 38  1  0
  7 39  1  0
  8 40  1  0
 10 41  1  0
 11 42  1  0
 11 43  1  0
 14 44  1  1
 15 45  1  6
 21 46  1  0
 22 47  1  0
 24 48  1  0
 25 49  1  0
 29 50  1  6
 30 51  1  6
M  END
