
     RDKit          3D

 37 37  0  0  0  0  0  0  0  0999 V2000
   -3.4476    0.4189    1.5555 C   0  0  0  0  0  0  0  0  0  0  0  0
   -3.0752    0.4637    0.0689 C   0  0  1  0  0  0  0  0  0  0  0  0
   -3.7915   -0.6673   -0.6689 C   0  0  0  0  0  0  0  0  0  0  0  0
   -3.6037    1.7946   -0.4856 C   0  0  0  0  0  0  0  0  0  0  0  0
   -1.5409    0.5091   -0.1506 C   0  0  0  0  0  0  0  0  0  0  0  0
   -0.6044   -0.7115    0.0006 C   0  0  1  0  0  0  0  0  0  0  0  0
   -0.8602   -1.4729    1.3071 C   0  0  0  0  0  0  0  0  0  0  0  0
   -0.7670   -1.6752   -1.1878 C   0  0  0  0  0  0  0  0  0  0  0  0
    0.8606   -0.2400   -0.0151 C   0  0  0  0  0  0  0  0  0  0  0  0
    1.2634    1.0695   -0.2747 C   0  0  0  0  0  0  0  0  0  0  0  0
    2.6015    1.4430   -0.3000 C   0  0  0  0  0  0  0  0  0  0  0  0
    3.5961    0.5027   -0.0672 C   0  0  0  0  0  0  0  0  0  0  0  0
    4.8834    0.9089   -0.0972 O   0  0  0  0  0  0  0  0  0  0  0  0
    3.2244   -0.8155    0.1822 C   0  0  0  0  0  0  0  0  0  0  0  0
    1.8846   -1.1659    0.2013 C   0  0  0  0  0  0  0  0  0  0  0  0
   -2.9495    1.2186    2.1089 H   0  0  0  0  0  0  0  0  0  0  0  0
   -4.5242    0.5597    1.6774 H   0  0  0  0  0  0  0  0  0  0  0  0
   -3.1887   -0.5242    2.0325 H   0  0  0  0  0  0  0  0  0  0  0  0
   -4.8736   -0.5399   -0.5852 H   0  0  0  0  0  0  0  0  0  0  0  0
   -3.5440   -0.6759   -1.7322 H   0  0  0  0  0  0  0  0  0  0  0  0
   -3.5542   -1.6506   -0.2613 H   0  0  0  0  0  0  0  0  0  0  0  0
   -3.1205    2.6445    0.0020 H   0  0  0  0  0  0  0  0  0  0  0  0
   -3.4217    1.8801   -1.5590 H   0  0  0  0  0  0  0  0  0  0  0  0
   -4.6797    1.8858   -0.3222 H   0  0  0  0  0  0  0  0  0  0  0  0
   -1.3768    0.8979   -1.1623 H   0  0  0  0  0  0  0  0  0  0  0  0
   -1.1853    1.2934    0.5267 H   0  0  0  0  0  0  0  0  0  0  0  0
   -1.8530   -1.9215    1.3159 H   0  0  0  0  0  0  0  0  0  0  0  0
   -0.1487   -2.2877    1.4407 H   0  0  0  0  0  0  0  0  0  0  0  0
   -0.7784   -0.8166    2.1749 H   0  0  0  0  0  0  0  0  0  0  0  0
   -0.6304   -1.1497   -2.1351 H   0  0  0  0  0  0  0  0  0  0  0  0
   -0.0316   -2.4801   -1.1470 H   0  0  0  0  0  0  0  0  0  0  0  0
   -1.7502   -2.1414   -1.2065 H   0  0  0  0  0  0  0  0  0  0  0  0
    0.5356    1.8444   -0.4682 H   0  0  0  0  0  0  0  0  0  0  0  0
    2.8701    2.4726   -0.5033 H   0  0  0  0  0  0  0  0  0  0  0  0
    5.4722    0.1654    0.0723 H   0  0  0  0  0  0  0  0  0  0  0  0
    3.9789   -1.5743    0.3597 H   0  0  0  0  0  0  0  0  0  0  0  0
    1.6460   -2.2053    0.3898 H   0  0  0  0  0  0  0  0  0  0  0  0
  2  4  1  6
  6  7  1  1
  1  2  1  0
  2  5  1  0
  2  3  1  0
  5  6  1  0
  6  8  1  0
  6  9  1  0
  9 15  2  0
  9 10  1  0
 15 14  1  0
 10 11  2  0
 14 12  2  0
 11 12  1  0
 12 13  1  0
  1 16  1  0
  1 17  1  0
  1 18  1  0
  3 19  1  0
  3 20  1  0
  3 21  1  0
  4 22  1  0
  4 23  1  0
  4 24  1  0
  5 25  1  0
  5 26  1  0
  7 27  1  0
  7 28  1  0
  7 29  1  0
  8 30  1  0
  8 31  1  0
  8 32  1  0
 10 33  1  0
 11 34  1  0
 13 35  1  0
 14 36  1  0
 15 37  1  0
M  END
