
     RDKit          3D

 50 50  0  0  0  0  0  0  0  0999 V2000
    2.1394   -3.3456   -1.5947 C   0  0  0  0  0  0  0  0  0  0  0  0
    2.3687   -3.3481   -0.2264 C   0  0  0  0  0  0  0  0  0  0  0  0
    1.6339   -2.5095    0.6033 C   0  0  0  0  0  0  0  0  0  0  0  0
   -2.9693    0.6638   -1.7235 C   0  0  0  0  0  0  0  0  0  0  0  0
   -0.1048   -0.7145    0.9780 C   0  0  2  0  0  0  0  0  0  0  0  0
    0.4408    0.7261    0.8022 C   0  0  2  0  0  0  0  0  0  0  0  0
    3.9939    1.8741    0.4897 C   0  0  0  0  0  0  0  0  0  0  0  0
    0.6652   -1.6613    0.0789 C   0  0  0  0  0  0  0  0  0  0  0  0
    0.4361   -1.6692   -1.2958 C   0  0  0  0  0  0  0  0  0  0  0  0
    1.1696   -2.5030   -2.1266 C   0  0  0  0  0  0  0  0  0  0  0  0
   -2.4358    0.1664    1.1392 C   0  0  2  0  0  0  0  0  0  0  0  0
   -4.2149    2.2308   -0.2120 C   0  0  0  0  0  0  0  0  0  0  0  0
   -5.3353    0.1867   -1.0999 C   0  0  0  0  0  0  0  0  0  0  0  0
   -1.5253   -0.8510    0.6680 N   0  0  0  0  0  0  0  0  0  0  0  0
    1.8862    0.7136    0.7974 N   0  0  0  0  0  0  0  0  0  0  0  0
    0.0013    1.5955    1.8098 O   0  0  0  0  0  0  0  0  0  0  0  0
   -2.6227    0.1774    2.5245 O   0  0  0  0  0  0  0  0  0  0  0  0
   -3.6774   -0.0182    0.5335 O   0  0  0  0  0  0  0  0  0  0  0  0
    4.7192    3.4658   -0.0255 S   0  0  0  0  0  0  0  0  0  0  0  0
    2.7068   -4.0001   -2.2436 H   0  0  0  0  0  0  0  0  0  0  0  0
    3.1164   -4.0053    0.1994 H   0  0  0  0  0  0  0  0  0  0  0  0
    1.8150   -2.5177    1.6717 H   0  0  0  0  0  0  0  0  0  0  0  0
   -2.7665   -0.3753   -1.9823 H   0  0  0  0  0  0  0  0  0  0  0  0
   -3.3366    1.1721   -2.6165 H   0  0  0  0  0  0  0  0  0  0  0  0
   -2.0227    1.1340   -1.4534 H   0  0  0  0  0  0  0  0  0  0  0  0
   -3.0503   -2.2875    0.7624 H   0  0  0  0  0  0  0  0  0  0  0  0
   -1.4838   -2.9167    0.3031 H   0  0  0  0  0  0  0  0  0  0  0  0
   -1.7865   -2.5191    1.9886 H   0  0  0  0  0  0  0  0  0  0  0  0
    0.1063   -1.0052    2.0229 H   0  0  0  0  0  0  0  0  0  0  0  0
    0.0266    1.1402   -0.1322 H   0  0  0  0  0  0  0  0  0  0  0  0
    2.1375    2.7623    1.0874 H   0  0  0  0  0  0  0  0  0  0  0  0
    2.1857    2.2881   -0.6074 H   0  0  0  0  0  0  0  0  0  0  0  0
    4.2989    1.6419    1.5095 H   0  0  0  0  0  0  0  0  0  0  0  0
    4.3579    1.0845   -0.1692 H   0  0  0  0  0  0  0  0  0  0  0  0
   -0.3351   -1.0316   -1.7112 H   0  0  0  0  0  0  0  0  0  0  0  0
    0.9799   -2.5014   -3.1925 H   0  0  0  0  0  0  0  0  0  0  0  0
   -2.0272    1.1461    0.9012 H   0  0  0  0  0  0  0  0  0  0  0  0
   -4.5685    2.8111   -1.0656 H   0  0  0  0  0  0  0  0  0  0  0  0
   -4.9562    2.3195    0.5840 H   0  0  0  0  0  0  0  0  0  0  0  0
   -3.2904    2.6985    0.1318 H   0  0  0  0  0  0  0  0  0  0  0  0
   -5.2209   -0.8577   -1.3947 H   0  0  0  0  0  0  0  0  0  0  0  0
   -6.1004    0.2431   -0.3239 H   0  0  0  0  0  0  0  0  0  0  0  0
   -5.6945    0.7428   -1.9660 H   0  0  0  0  0  0  0  0  0  0  0  0
    2.2266   -0.0082    0.1758 H   0  0  0  0  0  0  0  0  0  0  0  0
    0.3061    1.2506    2.6577 H   0  0  0  0  0  0  0  0  0  0  0  0
   -3.0259   -0.6532    2.8043 H   0  0  0  0  0  0  0  0  0  0  0  0
    6.0041    3.1305    0.1282 H   0  0  0  0  0  0  0  0  0  0  0  0
    2.4796    1.9808    0.4078 C   0  0  0  0  0  0  0  0  0  0  0  0
   -1.9835   -2.2014    0.9543 C   0  0  0  0  0  0  0  0  0  0  0  0
   -4.0137    0.7697   -0.6138 C   0  0  1  0  0  0  0  0  0  0  0  0
  4 50  1  0
 12 50  1  0
 48  7  1  0
 48 15  1  0
 19  7  1  0
 50 18  1  1
 50 13  1  0
 15  6  1  0
 18 11  1  0
  6 16  1  0
  6  5  1  0
 11 17  1  0
 11 14  1  0
 14  5  1  0
 14 49  1  0
  5  8  1  0
  9  8  2  0
  9 10  1  0
  8  3  1  0
 10  1  2  0
  3  2  2  0
  1  2  1  0
  1 20  1  0
  2 21  1  0
  3 22  1  0
  4 23  1  0
  4 24  1  0
  4 25  1  0
 49 26  1  0
 49 27  1  0
 49 28  1  0
  5 29  1  1
  6 30  1  6
 48 31  1  0
 48 32  1  0
  7 33  1  0
  7 34  1  0
  9 35  1  0
 10 36  1  0
 11 37  1  6
 12 38  1  0
 12 39  1  0
 12 40  1  0
 13 41  1  0
 13 42  1  0
 13 43  1  0
 15 44  1  0
 16 45  1  0
 17 46  1  0
 19 47  1  0
M  END
