
     RDKit          3D

 45 47  0  0  0  0  0  0  0  0999 V2000
   -1.9389    0.3687   -1.4098 C   0  0  0  0  0  0  0  0  0  0  0  0
   -3.1548   -0.2799   -1.2980 C   0  0  0  0  0  0  0  0  0  0  0  0
   -3.8568   -0.1969   -0.1018 C   0  0  0  0  0  0  0  0  0  0  0  0
   -5.4387   -0.9865    0.0135 S   0  0  1  0  0  0  0  0  0  0  0  0
   -6.0489   -0.5760    1.2704 O   0  0  0  0  0  0  0  0  0  0  0  0
   -6.1791   -0.7637   -1.2197 O   0  0  0  0  0  0  0  0  0  0  0  0
   -3.3615    0.5145    0.9786 C   0  0  0  0  0  0  0  0  0  0  0  0
   -2.1302    1.1434    0.8623 C   0  0  0  0  0  0  0  0  0  0  0  0
   -1.4150    1.0711   -0.3269 C   0  0  0  0  0  0  0  0  0  0  0  0
   -0.1507    1.8546   -0.5220 C   0  0  0  0  0  0  0  0  0  0  0  0
   -0.1146    2.6746   -1.4300 O   0  0  0  0  0  0  0  0  0  0  0  0
    0.8616    1.6455    0.3388 N   0  0  0  0  0  0  0  0  0  0  0  0
    2.0748    2.4440    0.2504 C   0  0  0  0  0  0  0  0  0  0  0  0
    3.2416    1.6061   -0.2550 C   0  0  0  0  0  0  0  0  0  0  0  0
    0.9920    0.4855    1.2083 C   0  0  0  0  0  0  0  0  0  0  0  0
    2.1423   -0.4024    0.7477 C   0  0  0  0  0  0  0  0  0  0  0  0
    3.4637    0.3629    0.6206 C   0  0  2  0  0  0  0  0  0  0  0  0
    3.8075    0.7605    1.9307 O   0  0  0  0  0  0  0  0  0  0  0  0
    4.5258   -0.5486    0.0186 C   0  0  0  0  0  0  0  0  0  0  0  0
    5.6158   -0.9834    0.7668 C   0  0  0  0  0  0  0  0  0  0  0  0
    6.5735   -1.8243    0.2103 C   0  0  0  0  0  0  0  0  0  0  0  0
    6.4555   -2.2510   -1.1034 C   0  0  0  0  0  0  0  0  0  0  0  0
    5.3657   -1.8330   -1.8569 C   0  0  0  0  0  0  0  0  0  0  0  0
    4.4132   -0.9930   -1.3000 C   0  0  0  0  0  0  0  0  0  0  0  0
   -5.0014   -2.5773   -0.0037 N   0  0  0  0  0  0  0  0  0  0  0  0
   -1.3945    0.3227   -2.3436 H   0  0  0  0  0  0  0  0  0  0  0  0
   -3.5470   -0.8369   -2.1384 H   0  0  0  0  0  0  0  0  0  0  0  0
   -3.9163    0.5838    1.9038 H   0  0  0  0  0  0  0  0  0  0  0  0
   -1.7397    1.7007    1.7042 H   0  0  0  0  0  0  0  0  0  0  0  0
    1.9046    3.2896   -0.4096 H   0  0  0  0  0  0  0  0  0  0  0  0
    2.2918    2.8451    1.2435 H   0  0  0  0  0  0  0  0  0  0  0  0
    3.0479    1.3142   -1.2889 H   0  0  0  0  0  0  0  0  0  0  0  0
    4.1500    2.2162   -0.2665 H   0  0  0  0  0  0  0  0  0  0  0  0
    1.1500    0.8263    2.2337 H   0  0  0  0  0  0  0  0  0  0  0  0
    0.0743   -0.0963    1.2035 H   0  0  0  0  0  0  0  0  0  0  0  0
    2.2612   -1.2286    1.4531 H   0  0  0  0  0  0  0  0  0  0  0  0
    1.8864   -0.8421   -0.2191 H   0  0  0  0  0  0  0  0  0  0  0  0
    4.5390    1.3866    1.8866 H   0  0  0  0  0  0  0  0  0  0  0  0
    5.7297   -0.6744    1.7968 H   0  0  0  0  0  0  0  0  0  0  0  0
    7.4130   -2.1481    0.8125 H   0  0  0  0  0  0  0  0  0  0  0  0
    7.2017   -2.9040   -1.5372 H   0  0  0  0  0  0  0  0  0  0  0  0
    5.2546   -2.1613   -2.8824 H   0  0  0  0  0  0  0  0  0  0  0  0
    3.5717   -0.6874   -1.9101 H   0  0  0  0  0  0  0  0  0  0  0  0
   -4.6120   -2.8894    0.8800 H   0  0  0  0  0  0  0  0  0  0  0  0
   -5.7766   -3.1735   -0.2787 H   0  0  0  0  0  0  0  0  0  0  0  0
 22 21  1  0
 22 23  2  0
 21 20  2  0
 23 24  1  0
 16 15  1  0
 16 17  1  0
 20 19  1  0
 24 19  2  0
 15 12  1  0
 19 17  1  0
 11 10  2  0
 17 18  1  1
 17 14  1  0
 10 12  1  0
 10  9  1  0
 12 13  1  0
 14 13  1  0
  9  1  2  0
  9  8  1  0
  1  2  1  0
  8  7  2  0
  2  3  2  0
  7  3  1  0
  3  4  1  0
  6  4  2  0
  4  5  2  0
  4 25  1  1
  1 26  1  0
  2 27  1  0
  7 28  1  0
  8 29  1  0
 13 30  1  0
 13 31  1  0
 14 32  1  0
 14 33  1  0
 15 34  1  0
 15 35  1  0
 16 36  1  0
 16 37  1  0
 18 38  1  0
 20 39  1  0
 21 40  1  0
 22 41  1  0
 23 42  1  0
 24 43  1  0
 25 44  1  0
 25 45  1  0
M  END
