
     RDKit          3D

 45 48  0  0  0  0  0  0  0  0999 V2000
   -4.4309   -2.2735   -1.4818 O   0  0  0  0  0  0  0  0  0  0  0  0
   -5.1728   -1.5229   -0.8595 C   0  0  0  0  0  0  0  0  0  0  0  0
   -6.5545   -1.7557   -0.8801 N   0  0  0  0  0  0  0  0  0  0  0  0
   -4.8122   -0.3952   -0.0789 C   0  0  0  0  0  0  0  0  0  0  0  0
   -3.4894    0.0184   -0.0424 N   0  0  0  0  0  0  0  0  0  0  0  0
   -3.1553    0.9721    0.7223 C   0  0  0  0  0  0  0  0  0  0  0  0
   -4.1002    1.6478    1.6807 C   0  0  0  0  0  0  0  0  0  0  0  0
   -5.4607    1.4361    1.2437 N   0  0  0  0  0  0  0  0  0  0  0  0
   -5.8158    0.3531    0.5377 C   0  0  0  0  0  0  0  0  0  0  0  0
   -7.1294    0.0900    0.4374 N   0  0  0  0  0  0  0  0  0  0  0  0
   -7.4655   -0.9631   -0.2707 C   0  0  0  0  0  0  0  0  0  0  0  0
   -8.7560   -1.2687   -0.4191 N   0  0  0  0  0  0  0  0  0  0  0  0
   -1.7362    1.4495    0.7570 C   0  0  0  0  0  0  0  0  0  0  0  0
   -0.9153    0.6588   -0.1081 N   0  0  0  0  0  0  0  0  0  0  0  0
    0.4006    0.8601   -0.3016 C   0  0  0  0  0  0  0  0  0  0  0  0
    1.1077    1.8697    0.3825 C   0  0  0  0  0  0  0  0  0  0  0  0
    2.4567    2.0497    0.1679 C   0  0  0  0  0  0  0  0  0  0  0  0
    3.1362    1.2425   -0.7405 C   0  0  0  0  0  0  0  0  0  0  0  0
    2.4542    0.2360   -1.4279 C   0  0  0  0  0  0  0  0  0  0  0  0
    1.1105    0.0491   -1.2124 C   0  0  0  0  0  0  0  0  0  0  0  0
    4.8582    1.4270   -0.9351 S   0  0  1  0  0  0  0  0  0  0  0  0
    5.2617    0.8345   -2.1939 O   0  0  0  0  0  0  0  0  0  0  0  0
    5.2657    2.7799   -0.5988 O   0  0  0  0  0  0  0  0  0  0  0  0
    5.5453    0.4873    0.2974 N   0  0  0  0  0  0  0  0  0  0  0  0
    5.1071   -0.8187    0.4539 C   0  0  0  0  0  0  0  0  0  0  0  0
    4.2784   -1.3282    1.8870 S   0  0  0  0  0  0  0  0  0  0  0  0
    4.1188   -2.8923    1.2023 C   0  0  0  0  0  0  0  0  0  0  0  0
    4.6578   -2.8994   -0.0422 C   0  0  0  0  0  0  0  0  0  0  0  0
    5.2209   -1.7275   -0.4561 N   0  0  0  0  0  0  0  0  0  0  0  0
   -3.9273    1.2549    2.6929 H   0  0  0  0  0  0  0  0  0  0  0  0
   -9.0524   -2.1326   -0.8393 H   0  0  0  0  0  0  0  0  0  0  0  0
   -9.4354   -0.7560    0.1161 H   0  0  0  0  0  0  0  0  0  0  0  0
   -1.7154    2.5111    0.4742 H   0  0  0  0  0  0  0  0  0  0  0  0
   -1.3821    1.4133    1.7971 H   0  0  0  0  0  0  0  0  0  0  0  0
   -1.3925   -0.0707   -0.6184 H   0  0  0  0  0  0  0  0  0  0  0  0
    0.6016    2.5164    1.0866 H   0  0  0  0  0  0  0  0  0  0  0  0
    2.9728    2.8320    0.7090 H   0  0  0  0  0  0  0  0  0  0  0  0
    2.9697   -0.3999   -2.1350 H   0  0  0  0  0  0  0  0  0  0  0  0
    0.5861   -0.7308   -1.7506 H   0  0  0  0  0  0  0  0  0  0  0  0
    5.6665    1.0184    1.1526 H   0  0  0  0  0  0  0  0  0  0  0  0
    3.6662   -3.7063    1.7454 H   0  0  0  0  0  0  0  0  0  0  0  0
    4.6849   -3.7616   -0.6924 H   0  0  0  0  0  0  0  0  0  0  0  0
   -6.8681   -2.5565   -1.4125 H   0  0  0  0  0  0  0  0  0  0  0  0
   -3.8961    2.7195    1.7239 H   0  0  0  0  0  0  0  0  0  0  0  0
   -6.1940    1.9560    1.6990 H   0  0  0  0  0  0  0  0  0  0  0  0
 12 11  1  0
  3 11  1  0
  3  2  1  0
 11 10  2  0
  1  2  2  0
  2  4  1  0
 10  9  1  0
  4  9  2  0
  4  5  1  0
  9  8  1  0
  5  6  2  0
  8  7  1  0
 23 21  2  0
 16 17  2  0
 16 15  1  0
 17 18  1  0
  6  7  1  0
  6 13  1  0
 14 15  1  0
 14 13  1  0
 21 18  1  0
 21 24  1  1
 21 22  2  0
 15 20  2  0
 18 19  2  0
 24 25  1  0
 20 19  1  0
 25 26  1  0
 25 29  2  0
 26 27  1  0
 29 28  1  0
 27 28  2  0
  7 30  1  0
 12 31  1  0
 12 32  1  0
 13 33  1  0
 13 34  1  0
 14 35  1  0
 16 36  1  0
 17 37  1  0
 19 38  1  0
 20 39  1  0
 24 40  1  0
 27 41  1  0
 28 42  1  0
  3 43  1  0
  7 44  1  0
  8 45  1  0
M  END
