
     RDKit          3D

 18 17  0  0  0  0  0  0  0  0999 V2000
   -2.2082   -0.1407    1.0923 O   0  0  0  0  0  0  0  0  0  0  0  0
   -1.6691    0.1596    0.0562 C   0  0  0  0  0  0  0  0  0  0  0  0
   -0.3959   -0.5166   -0.4306 C   0  0  2  0  0  0  0  0  0  0  0  0
   -0.4729   -1.9005   -0.2327 O   0  0  0  0  0  0  0  0  0  0  0  0
    0.8053    0.1165    0.3011 C   0  0  2  0  0  0  0  0  0  0  0  0
    0.6771    1.5159    0.3483 O   0  0  0  0  0  0  0  0  0  0  0  0
    2.1180   -0.3456   -0.3166 C   0  0  0  0  0  0  0  0  0  0  0  0
    3.2564    0.1345    0.4483 N   0  0  0  0  0  0  0  0  0  0  0  0
   -2.1128    1.0921   -0.7681 O   0  0  0  0  0  0  0  0  0  0  0  0
   -0.2889   -0.3597   -1.5082 H   0  0  0  0  0  0  0  0  0  0  0  0
   -2.9079    1.5118   -0.4041 H   0  0  0  0  0  0  0  0  0  0  0  0
   -0.5959   -2.0729    0.7083 H   0  0  0  0  0  0  0  0  0  0  0  0
    0.7640   -0.2174    1.3457 H   0  0  0  0  0  0  0  0  0  0  0  0
    0.9048    1.8807   -0.5137 H   0  0  0  0  0  0  0  0  0  0  0  0
    2.0846   -1.4369   -0.4238 H   0  0  0  0  0  0  0  0  0  0  0  0
    2.1884    0.0585   -1.3328 H   0  0  0  0  0  0  0  0  0  0  0  0
    3.3146   -0.3795    1.3190 H   0  0  0  0  0  0  0  0  0  0  0  0
    4.1077   -0.0851   -0.0523 H   0  0  0  0  0  0  0  0  0  0  0  0
  1  2  2  0
  2  3  1  0
  2  9  1  0
  3  4  1  0
  3  5  1  0
  5  6  1  0
  5  7  1  0
  7  8  1  0
  3 10  1  6
  9 11  1  0
  4 12  1  0
  5 13  1  1
  6 14  1  0
  7 15  1  0
  7 16  1  0
  8 17  1  0
  8 18  1  0
M  END
