
     RDKit          3D

 49 50  0  0  0  0  0  0  0  0999 V2000
   -2.3901   -3.0302   -1.1089 O   0  0  0  0  0  0  0  0  0  0  0  0
   -2.0868    3.2488    0.8278 O   0  0  0  0  0  0  0  0  0  0  0  0
   -4.1651    0.1509    0.3378 C   0  0  2  0  0  0  0  0  0  0  0  0
   -1.0510   -2.6097   -1.0029 C   0  0  1  0  0  0  0  0  0  0  0  0
   -1.0579    0.8248    1.7359 O   0  0  0  0  0  0  0  0  0  0  0  0
   -3.8055    1.5361    0.8965 C   0  0  1  0  0  0  0  0  0  0  0  0
   -2.5315    2.0494    0.2432 C   0  0  2  0  0  0  0  0  0  0  0  0
   -1.4148    1.0196    0.3917 C   0  0  2  0  0  0  0  0  0  0  0  0
   -1.8870   -0.3107   -0.1856 C   0  0  1  0  0  0  0  0  0  0  0  0
    2.7345   -0.4039    0.5093 C   0  0  0  0  0  0  0  0  0  0  0  0
    3.4816    0.1232    1.5592 C   0  0  0  0  0  0  0  0  0  0  0  0
    4.7110    0.7102    1.3245 C   0  0  0  0  0  0  0  0  0  0  0  0
    5.1978    0.7432    0.0261 C   0  0  0  0  0  0  0  0  0  0  0  0
    4.4858    0.2053   -1.0337 C   0  0  0  0  0  0  0  0  0  0  0  0
    3.2494   -0.3652   -0.7836 C   0  0  0  0  0  0  0  0  0  0  0  0
   -0.8671   -1.4516    0.0004 C   0  0  2  0  0  0  0  0  0  0  0  0
   -0.1353   -3.7822   -0.6754 C   0  0  0  0  0  0  0  0  0  0  0  0
    0.4828   -0.9527   -0.1306 N   0  0  0  0  0  0  0  0  0  0  0  0
    6.4946    1.3573   -0.2295 N   0  0  0  0  0  0  0  0  0  0  0  0
    1.2343   -1.5615    1.9203 O   0  0  0  0  0  0  0  0  0  0  0  0
   -4.8138    2.4870    0.6788 O   0  0  0  0  0  0  0  0  0  0  0  0
    6.9081    1.3561   -1.3642 O   0  0  0  0  0  0  0  0  0  0  0  0
    7.0879    1.8367    0.7067 O   0  0  0  0  0  0  0  0  0  0  0  0
   -3.0826   -0.7256    0.4493 O   0  0  0  0  0  0  0  0  0  0  0  0
   -2.7089   -3.2824   -0.2359 H   0  0  0  0  0  0  0  0  0  0  0  0
   -2.8165    3.8773    0.8308 H   0  0  0  0  0  0  0  0  0  0  0  0
   -4.9619   -0.2945    0.9404 H   0  0  0  0  0  0  0  0  0  0  0  0
   -0.7917   -2.2250   -1.9957 H   0  0  0  0  0  0  0  0  0  0  0  0
   -0.7471    1.6641    2.0901 H   0  0  0  0  0  0  0  0  0  0  0  0
   -3.6153    1.4021    1.9697 H   0  0  0  0  0  0  0  0  0  0  0  0
   -2.7163    2.1862   -0.8338 H   0  0  0  0  0  0  0  0  0  0  0  0
   -0.5601    1.3709   -0.2026 H   0  0  0  0  0  0  0  0  0  0  0  0
   -2.0664   -0.1552   -1.2596 H   0  0  0  0  0  0  0  0  0  0  0  0
    3.0998    0.0840    2.5697 H   0  0  0  0  0  0  0  0  0  0  0  0
    5.2728    1.1280    2.1468 H   0  0  0  0  0  0  0  0  0  0  0  0
    4.8744    0.2222   -2.0411 H   0  0  0  0  0  0  0  0  0  0  0  0
    2.7095   -0.7990   -1.6150 H   0  0  0  0  0  0  0  0  0  0  0  0
   -6.1505   -1.6291   -0.8584 H   0  0  0  0  0  0  0  0  0  0  0  0
   -5.9103   -1.3788   -2.5918 H   0  0  0  0  0  0  0  0  0  0  0  0
   -4.6027   -2.0738   -1.6200 H   0  0  0  0  0  0  0  0  0  0  0  0
   -0.9694   -1.8328    1.0190 H   0  0  0  0  0  0  0  0  0  0  0  0
   -0.2812   -4.5823   -1.4014 H   0  0  0  0  0  0  0  0  0  0  0  0
    0.9167   -3.5013   -0.7050 H   0  0  0  0  0  0  0  0  0  0  0  0
   -0.3500   -4.1816    0.3188 H   0  0  0  0  0  0  0  0  0  0  0  0
    0.7152   -0.4765   -0.9885 H   0  0  0  0  0  0  0  0  0  0  0  0
   -5.5619    2.2877    1.2506 H   0  0  0  0  0  0  0  0  0  0  0  0
   -4.8171    0.3246   -1.3611 S   0  0  0  0  0  0  0  0  0  0  0  0
    1.4114   -1.0304    0.8372 C   0  0  0  0  0  0  0  0  0  0  0  0
   -5.4198   -1.3590   -1.6202 C   0  0  0  0  0  0  0  0  0  0  0  0
  5  8  1  0
  2  7  1  0
  6 21  1  0
  6  7  1  0
  6  3  1  0
  7  8  1  0
  3 24  1  0
  3 47  1  0
  8  9  1  0
 24  9  1  0
  9 16  1  0
 20 48  2  0
 16  4  1  0
 16 18  1  0
 49 47  1  0
  4  1  1  0
  4 17  1  0
 48 18  1  0
 48 10  1  0
 10 11  2  0
 10 15  1  0
 11 12  1  0
 15 14  2  0
 12 13  2  0
 14 13  1  0
 13 19  1  0
 19 23  1  0
 19 22  2  0
  1 25  1  0
  2 26  1  0
  3 27  1  1
  4 28  1  6
  5 29  1  0
  6 30  1  1
  7 31  1  6
  8 32  1  6
  9 33  1  6
 11 34  1  0
 12 35  1  0
 14 36  1  0
 15 37  1  0
 49 38  1  0
 49 39  1  0
 49 40  1  0
 16 41  1  1
 17 42  1  0
 17 43  1  0
 17 44  1  0
 18 45  1  0
 21 46  1  0
M  CHG  2  19   1  23  -1
M  END
