
     RDKit          3D

 33 34  0  0  0  0  0  0  0  0999 V2000
   -0.2021   -0.6549    0.4943 C   0  0  0  0  0  0  0  0  0  0  0  0
   -0.3111   -2.0455    0.4616 C   0  0  0  0  0  0  0  0  0  0  0  0
    0.8261   -2.8353    0.5197 C   0  0  0  0  0  0  0  0  0  0  0  0
    2.0817   -2.2504    0.6086 C   0  0  0  0  0  0  0  0  0  0  0  0
    2.2148   -0.8655    0.6438 C   0  0  0  0  0  0  0  0  0  0  0  0
    1.0660   -0.0833    0.5866 C   0  0  0  0  0  0  0  0  0  0  0  0
    3.5737   -0.2228    0.6851 C   0  0  0  0  0  0  0  0  0  0  0  0
    4.0498    0.1240   -0.7219 C   0  0  0  0  0  0  0  0  0  0  0  0
    5.4109    0.7626   -0.7508 C   0  0  0  0  0  0  0  0  0  0  0  0
    5.7804    1.0781   -1.9880 O   0  0  0  0  0  0  0  0  0  0  0  0
    6.1006    0.9720    0.2159 O   0  0  0  0  0  0  0  0  0  0  0  0
   -1.4064    0.1970    0.4301 C   0  0  0  0  0  0  0  0  0  0  0  0
   -1.4959    1.3800    1.1664 C   0  0  0  0  0  0  0  0  0  0  0  0
   -2.6278    2.1780    1.1040 C   0  0  0  0  0  0  0  0  0  0  0  0
   -3.7019    1.8168    0.3080 C   0  0  0  0  0  0  0  0  0  0  0  0
   -3.6065    0.6411   -0.4211 C   0  0  0  0  0  0  0  0  0  0  0  0
   -4.7203    0.2452   -1.2735 N   0  0  0  0  0  0  0  0  0  0  0  0
   -5.6994    0.9526   -1.2910 O   0  0  0  0  0  0  0  0  0  0  0  0
   -4.6110   -0.7701   -1.9192 O   0  0  0  0  0  0  0  0  0  0  0  0
   -2.4823   -0.1674   -0.3744 C   0  0  0  0  0  0  0  0  0  0  0  0
   -1.2859   -2.5148    0.4136 H   0  0  0  0  0  0  0  0  0  0  0  0
    0.7320   -3.9132    0.5047 H   0  0  0  0  0  0  0  0  0  0  0  0
    2.9649   -2.8763    0.6548 H   0  0  0  0  0  0  0  0  0  0  0  0
    1.1672    0.9964    0.5933 H   0  0  0  0  0  0  0  0  0  0  0  0
    3.5399    0.6814    1.2960 H   0  0  0  0  0  0  0  0  0  0  0  0
    4.2854   -0.9002    1.1602 H   0  0  0  0  0  0  0  0  0  0  0  0
    4.0772   -0.7729   -1.3484 H   0  0  0  0  0  0  0  0  0  0  0  0
    3.3423    0.8006   -1.2108 H   0  0  0  0  0  0  0  0  0  0  0  0
    6.6583    1.4882   -1.9772 H   0  0  0  0  0  0  0  0  0  0  0  0
   -0.6791    1.6750    1.8126 H   0  0  0  0  0  0  0  0  0  0  0  0
   -2.6781    3.0869    1.6871 H   0  0  0  0  0  0  0  0  0  0  0  0
   -4.5824    2.4405    0.2637 H   0  0  0  0  0  0  0  0  0  0  0  0
   -2.4289   -1.0662   -0.9722 H   0  0  0  0  0  0  0  0  0  0  0  0
 19 17  1  0
 17 18  2  0
 17 16  1  0
 15 16  2  0
 15 14  1  0
 16 20  1  0
 14 13  2  0
 20 12  2  0
 13 12  1  0
 12  1  1  0
  1  2  2  0
  1  6  1  0
  2  3  1  0
  6  5  2  0
  3  4  2  0
  5  4  1  0
  5  7  1  0
 11  9  2  0
  7  8  1  0
  9  8  1  0
  9 10  1  0
  2 21  1  0
  3 22  1  0
  4 23  1  0
  6 24  1  0
  7 25  1  0
  7 26  1  0
  8 27  1  0
  8 28  1  0
 10 29  1  0
 13 30  1  0
 14 31  1  0
 15 32  1  0
 20 33  1  0
M  CHG  2  17   1  19  -1
M  END
