
     RDKit          3D

 37 37  0  0  0  0  0  0  0  0999 V2000
    2.2257    1.1914   -0.1824 C   0  0  0  0  0  0  0  0  0  0  0  0
    1.3696   -0.0576   -0.0418 C   0  0  0  0  0  0  0  0  0  0  0  0
   -4.1243    2.5589   -0.0503 N   0  0  0  0  0  0  0  0  0  0  0  0
    6.6321    0.2912   -0.7334 O   0  0  0  0  0  0  0  0  0  0  0  0
    5.6163   -0.7559   -0.6229 S   0  0  1  0  0  0  0  0  0  0  0  0
    5.6769   -1.8263   -1.6054 O   0  0  0  0  0  0  0  0  0  0  0  0
    5.7374   -1.3298    0.9278 N   0  0  0  0  0  0  0  0  0  0  0  0
    4.0880   -0.2144   -0.6721 N   0  0  0  0  0  0  0  0  0  0  0  0
    3.6970    0.8854   -0.0858 C   0  0  0  0  0  0  0  0  0  0  0  0
    4.4385    1.7709    0.5550 N   0  0  0  0  0  0  0  0  0  0  0  0
   -0.3842    0.4019   -0.1369 S   0  0  0  0  0  0  0  0  0  0  0  0
   -1.0773   -1.2734   -0.0945 C   0  0  0  0  0  0  0  0  0  0  0  0
   -2.5647   -1.2178   -0.0969 C   0  0  0  0  0  0  0  0  0  0  0  0
   -3.2462   -0.1339   -0.1922 N   0  0  0  0  0  0  0  0  0  0  0  0
   -4.5839   -0.2511   -0.4039 C   0  0  0  0  0  0  0  0  0  0  0  0
   -5.0548   -1.9218   -0.0512 S   0  0  0  0  0  0  0  0  0  0  0  0
   -3.3656   -2.4826   -0.3332 C   0  0  0  0  0  0  0  0  0  0  0  0
   -5.5661    0.6771   -0.1206 N   0  0  0  0  0  0  0  0  0  0  0  0
   -5.3374    1.9177    0.0767 C   0  0  0  0  0  0  0  0  0  0  0  0
   -6.3832    2.7594    0.4412 N   0  0  0  0  0  0  0  0  0  0  0  0
    2.0567    1.6657   -1.1535 H   0  0  0  0  0  0  0  0  0  0  0  0
    1.9504    1.9260    0.5768 H   0  0  0  0  0  0  0  0  0  0  0  0
    1.5923   -0.7691   -0.8358 H   0  0  0  0  0  0  0  0  0  0  0  0
    1.5724   -0.5406    0.9156 H   0  0  0  0  0  0  0  0  0  0  0  0
   -3.3225    1.9439   -0.0386 H   0  0  0  0  0  0  0  0  0  0  0  0
    5.1566   -2.1475    1.0785 H   0  0  0  0  0  0  0  0  0  0  0  0
    6.7018   -1.5510    1.1539 H   0  0  0  0  0  0  0  0  0  0  0  0
    4.0139    2.5915    0.9538 H   0  0  0  0  0  0  0  0  0  0  0  0
   -0.7119   -1.8391   -0.9603 H   0  0  0  0  0  0  0  0  0  0  0  0
   -0.6988   -1.7882    0.7955 H   0  0  0  0  0  0  0  0  0  0  0  0
   -3.3037   -2.7994   -1.3819 H   0  0  0  0  0  0  0  0  0  0  0  0
   -6.3541    3.6673   -0.0014 H   0  0  0  0  0  0  0  0  0  0  0  0
   -7.2846    2.3298    0.3007 H   0  0  0  0  0  0  0  0  0  0  0  0
   -4.0043    3.3788    0.5231 H   0  0  0  0  0  0  0  0  0  0  0  0
    5.4452    1.7245    0.5753 H   0  0  0  0  0  0  0  0  0  0  0  0
   -5.0026   -2.0763    1.3262 H   0  0  0  0  0  0  0  0  0  0  0  0
   -3.1432   -3.3314    0.3091 H   0  0  0  0  0  0  0  0  0  0  0  0
  1  2  1  0
  1  9  1  0
  2 11  1  0
  3 19  1  0
  4  5  2  0
  5  6  2  0
  5  7  1  0
  5  8  1  1
  8  9  2  0
  9 10  1  0
 11 12  1  0
 12 13  1  0
 13 14  2  0
 13 17  1  0
 14 15  1  0
 15 16  2  0
 16 17  1  0
 18 19  2  0
 19 20  1  0
 15 18  1  0
  1 21  1  0
  1 22  1  0
  2 23  1  0
  2 24  1  0
  3 25  1  0
  7 26  1  0
  7 27  1  0
 10 28  1  0
 12 29  1  0
 12 30  1  0
 17 31  1  0
 20 32  1  0
 20 33  1  0
  3 34  1  0
 10 35  1  0
 16 36  1  1
 17 37  1  0
M  END
