
     RDKit          3D

 74 79  0  0  0  0  0  0  0  0999 V2000
   11.7217    0.9141   -1.1911 C   0  0  0  0  0  0  0  0  0  0  0  0
   12.8976    1.8276   -0.9047 C   0  0  0  0  0  0  0  0  0  0  0  0
   13.5612    1.4643    0.2860 O   0  0  0  0  0  0  0  0  0  0  0  0
   12.6690    1.4676    1.3778 C   0  0  0  0  0  0  0  0  0  0  0  0
   11.4858    0.5481    1.1410 C   0  0  0  0  0  0  0  0  0  0  0  0
   10.7919    0.9345   -0.0760 N   0  0  0  0  0  0  0  0  0  0  0  0
    9.6183    0.1311   -0.3391 C   0  0  0  0  0  0  0  0  0  0  0  0
    8.4762    0.4618    0.6136 C   0  0  0  0  0  0  0  0  0  0  0  0
    7.2897   -0.2642    0.2161 N   0  0  0  0  0  0  0  0  0  0  0  0
    6.2636   -0.5069    1.0486 C   0  0  0  0  0  0  0  0  0  0  0  0
    6.2537   -0.1519    2.2196 O   0  0  0  0  0  0  0  0  0  0  0  0
    5.1092   -1.2458    0.4523 C   0  0  0  0  0  0  0  0  0  0  0  0
    3.8416   -1.0223    0.9726 C   0  0  0  0  0  0  0  0  0  0  0  0
    2.7219   -1.6517    0.4347 C   0  0  0  0  0  0  0  0  0  0  0  0
    1.4094   -1.3526    1.0877 C   0  0  0  0  0  0  0  0  0  0  0  0
    1.4104   -1.2385    2.3025 O   0  0  0  0  0  0  0  0  0  0  0  0
    5.2606   -2.1752   -0.5737 C   0  0  0  0  0  0  0  0  0  0  0  0
    4.1546   -2.8353   -1.0805 C   0  0  0  0  0  0  0  0  0  0  0  0
    2.8745   -2.5716   -0.6035 C   0  0  0  0  0  0  0  0  0  0  0  0
    1.6850   -3.2281   -1.2274 C   0  0  0  0  0  0  0  0  0  0  0  0
    0.8157   -2.1918   -1.9287 C   0  0  0  0  0  0  0  0  0  0  0  0
   -0.0880   -1.3887   -1.0297 C   0  0  0  0  0  0  0  0  0  0  0  0
   -1.2805   -0.9684   -1.5985 C   0  0  0  0  0  0  0  0  0  0  0  0
    0.1753   -1.0721    0.3186 C   0  0  0  0  0  0  0  0  0  0  0  0
   -0.8186   -0.3758    1.0274 C   0  0  0  0  0  0  0  0  0  0  0  0
   -1.9944    0.0448    0.4559 C   0  0  0  0  0  0  0  0  0  0  0  0
   -2.2404   -0.2349   -0.8951 C   0  0  0  0  0  0  0  0  0  0  0  0
   -3.3840    0.1521   -1.5342 N   0  0  0  0  0  0  0  0  0  0  0  0
   -4.3940    0.9439   -0.9785 C   0  0  0  0  0  0  0  0  0  0  0  0
   -5.6950    0.4697   -0.8673 C   0  0  0  0  0  0  0  0  0  0  0  0
   -4.1427    2.2559   -0.5873 C   0  0  0  0  0  0  0  0  0  0  0  0
   -2.9065    2.7418   -0.7194 F   0  0  0  0  0  0  0  0  0  0  0  0
   -5.1263    3.0711   -0.0703 C   0  0  0  0  0  0  0  0  0  0  0  0
   -6.4019    2.5564    0.0362 C   0  0  0  0  0  0  0  0  0  0  0  0
   -7.3711    3.3303    0.5337 F   0  0  0  0  0  0  0  0  0  0  0  0
   -6.7180    1.2664   -0.3682 C   0  0  0  0  0  0  0  0  0  0  0  0
   -8.0377    0.8018   -0.2645 N   0  0  0  0  0  0  0  0  0  0  0  0
   -8.3725   -0.3205    0.4311 C   0  0  0  0  0  0  0  0  0  0  0  0
   -7.5551   -1.0070    1.0151 O   0  0  0  0  0  0  0  0  0  0  0  0
   -9.8043   -0.6679    0.4346 C   0  0  0  0  0  0  0  0  0  0  0  0
  -10.9604   -0.0396   -0.6800 S   0  0  0  0  0  0  0  0  0  0  0  0
  -12.2222   -0.9356    0.0386 C   0  0  0  0  0  0  0  0  0  0  0  0
  -11.7789   -1.6929    1.0830 C   0  0  0  0  0  0  0  0  0  0  0  0
  -10.3903   -1.5440    1.3066 C   0  0  0  0  0  0  0  0  0  0  0  0
   11.2153    1.2676   -2.0924 H   0  0  0  0  0  0  0  0  0  0  0  0
   12.0889   -0.1050   -1.4023 H   0  0  0  0  0  0  0  0  0  0  0  0
   13.6239    1.7679   -1.7163 H   0  0  0  0  0  0  0  0  0  0  0  0
   12.5414    2.8659   -0.8447 H   0  0  0  0  0  0  0  0  0  0  0  0
   13.2257    1.1386    2.2565 H   0  0  0  0  0  0  0  0  0  0  0  0
   12.3017    2.4853    1.5721 H   0  0  0  0  0  0  0  0  0  0  0  0
   11.8321   -0.4990    1.0932 H   0  0  0  0  0  0  0  0  0  0  0  0
   10.8170    0.6249    2.0007 H   0  0  0  0  0  0  0  0  0  0  0  0
    9.2888    0.3487   -1.3600 H   0  0  0  0  0  0  0  0  0  0  0  0
    9.8314   -0.9502   -0.2995 H   0  0  0  0  0  0  0  0  0  0  0  0
    8.7210    0.1831    1.6381 H   0  0  0  0  0  0  0  0  0  0  0  0
    8.3002    1.5419    0.6023 H   0  0  0  0  0  0  0  0  0  0  0  0
    7.1470   -0.4020   -0.7720 H   0  0  0  0  0  0  0  0  0  0  0  0
    3.7209   -0.3242    1.7903 H   0  0  0  0  0  0  0  0  0  0  0  0
    6.2398   -2.4105   -0.9713 H   0  0  0  0  0  0  0  0  0  0  0  0
    4.2844   -3.5673   -1.8678 H   0  0  0  0  0  0  0  0  0  0  0  0
    2.0211   -3.9631   -1.9590 H   0  0  0  0  0  0  0  0  0  0  0  0
    1.0957   -3.7748   -0.4857 H   0  0  0  0  0  0  0  0  0  0  0  0
    1.4564   -1.5118   -2.4997 H   0  0  0  0  0  0  0  0  0  0  0  0
    0.1893   -2.6975   -2.6650 H   0  0  0  0  0  0  0  0  0  0  0  0
   -1.4815   -1.2272   -2.6324 H   0  0  0  0  0  0  0  0  0  0  0  0
   -0.6495   -0.1431    2.0695 H   0  0  0  0  0  0  0  0  0  0  0  0
   -2.7212    0.5672    1.0631 H   0  0  0  0  0  0  0  0  0  0  0  0
   -3.5773   -0.2653   -2.4312 H   0  0  0  0  0  0  0  0  0  0  0  0
   -5.9112   -0.5377   -1.1957 H   0  0  0  0  0  0  0  0  0  0  0  0
   -4.9063    4.0854    0.2358 H   0  0  0  0  0  0  0  0  0  0  0  0
   -8.7684    1.4407   -0.5420 H   0  0  0  0  0  0  0  0  0  0  0  0
  -13.2246   -0.8674   -0.3553 H   0  0  0  0  0  0  0  0  0  0  0  0
  -12.4210   -2.3361    1.6662 H   0  0  0  0  0  0  0  0  0  0  0  0
   -9.8428   -2.0527    2.0867 H   0  0  0  0  0  0  0  0  0  0  0  0
  1  6  1  0
  1  2  1  0
  6  7  1  0
  6  5  1  0
  7  8  1  0
  5  4  1  0
  2  3  1  0
  4  3  1  0
  8  9  1  0
 11 10  2  0
 10  9  1  0
 10 12  1  0
 16 15  2  0
 12 13  2  0
 12 17  1  0
 13 14  1  0
 17 18  2  0
 15 14  1  0
 15 24  1  0
 14 19  2  0
 18 19  1  0
 19 20  1  0
 25 24  1  0
 25 26  2  0
 24 22  2  0
 20 21  1  0
 26 27  1  0
 22 21  1  0
 22 23  1  0
 27 23  2  0
 27 28  1  0
 32 31  1  0
 31 33  2  0
 31 29  1  0
 33 34  1  0
 28 29  1  0
 29 30  2  0
 34 35  1  0
 34 36  2  0
 39 38  2  0
 30 36  1  0
 36 37  1  0
 38 37  1  0
 38 40  1  0
 41 40  1  0
 41 42  1  0
 40 44  2  0
 42 43  2  0
 44 43  1  0
  1 45  1  0
  1 46  1  0
  2 47  1  0
  2 48  1  0
  4 49  1  0
  4 50  1  0
  5 51  1  0
  5 52  1  0
  7 53  1  0
  7 54  1  0
  8 55  1  0
  8 56  1  0
  9 57  1  0
 13 58  1  0
 17 59  1  0
 18 60  1  0
 20 61  1  0
 20 62  1  0
 21 63  1  0
 21 64  1  0
 23 65  1  0
 25 66  1  0
 26 67  1  0
 28 68  1  0
 30 69  1  0
 33 70  1  0
 37 71  1  0
 42 72  1  0
 43 73  1  0
 44 74  1  0
M  END
