
     RDKit          3D

 41 42  0  0  0  0  0  0  0  0999 V2000
    1.0293    0.4425    0.7727 C   0  0  0  0  0  0  0  0  0  0  0  0
   -1.2353    0.2533    0.0560 C   0  0  0  0  0  0  0  0  0  0  0  0
    0.5469   -0.3724   -1.3937 C   0  0  0  0  0  0  0  0  0  0  0  0
   -2.6781    0.4376    0.3701 C   0  0  0  0  0  0  0  0  0  0  0  0
   -4.9022   -0.3769   -0.1154 C   0  0  0  0  0  0  0  0  0  0  0  0
   -6.9703   -1.0072   -0.4273 C   0  0  0  0  0  0  0  0  0  0  0  0
    5.9229   -0.6482    2.0124 C   0  0  0  0  0  0  0  0  0  0  0  0
    5.9998   -0.2697    0.5333 C   0  0  1  0  0  0  0  0  0  0  0  0
    5.6342    1.2049    0.3593 C   0  0  0  0  0  0  0  0  0  0  0  0
    7.4271   -0.4968    0.0323 C   0  0  0  0  0  0  0  0  0  0  0  0
    5.0751   -1.1656   -0.3242 C   0  0  0  0  0  0  0  0  0  0  0  0
    3.6197   -1.1060    0.0618 C   0  0  0  0  0  0  0  0  0  0  0  0
    1.5017   -0.0597   -0.4352 C   0  0  0  0  0  0  0  0  0  0  0  0
   -0.3126    0.6056    1.0351 C   0  0  0  0  0  0  0  0  0  0  0  0
   -0.8064   -0.2222   -1.1786 C   0  0  0  0  0  0  0  0  0  0  0  0
   -7.2106    0.0043    0.4400 C   0  0  0  0  0  0  0  0  0  0  0  0
    1.9182    0.7949    1.6990 F   0  0  0  0  0  0  0  0  0  0  0  0
    0.9715   -0.8300   -2.5715 F   0  0  0  0  0  0  0  0  0  0  0  0
    2.8640   -0.2423   -0.6777 N   0  0  0  0  0  0  0  0  0  0  0  0
   -3.5352   -0.3965   -0.2714 N   0  0  0  0  0  0  0  0  0  0  0  0
   -5.6578   -1.2210   -0.7414 N   0  0  0  0  0  0  0  0  0  0  0  0
    3.1349   -1.7601    0.9651 O   0  0  0  0  0  0  0  0  0  0  0  0
   -3.0719    1.2703    1.1655 O   0  0  0  0  0  0  0  0  0  0  0  0
   -5.7272    0.7432    0.9100 S   0  0  0  0  0  0  0  0  0  0  0  0
   -7.7292   -1.6355   -0.8706 H   0  0  0  0  0  0  0  0  0  0  0  0
    4.9418   -0.4405    2.4397 H   0  0  0  0  0  0  0  0  0  0  0  0
    6.1377   -1.7075    2.1641 H   0  0  0  0  0  0  0  0  0  0  0  0
    6.6569   -0.0754    2.5826 H   0  0  0  0  0  0  0  0  0  0  0  0
    6.3478    1.8398    0.8874 H   0  0  0  0  0  0  0  0  0  0  0  0
    5.6488    1.4983   -0.6934 H   0  0  0  0  0  0  0  0  0  0  0  0
    4.6436    1.4315    0.7562 H   0  0  0  0  0  0  0  0  0  0  0  0
    7.7267   -1.5412    0.1456 H   0  0  0  0  0  0  0  0  0  0  0  0
    7.5270   -0.2334   -1.0228 H   0  0  0  0  0  0  0  0  0  0  0  0
    8.1358    0.1133    0.5954 H   0  0  0  0  0  0  0  0  0  0  0  0
    5.1991   -0.8877   -1.3749 H   0  0  0  0  0  0  0  0  0  0  0  0
    5.3971   -2.2047   -0.2250 H   0  0  0  0  0  0  0  0  0  0  0  0
   -0.6321    0.9987    1.9907 H   0  0  0  0  0  0  0  0  0  0  0  0
   -1.4944   -0.4628   -1.9784 H   0  0  0  0  0  0  0  0  0  0  0  0
   -8.1569    0.3480    0.8255 H   0  0  0  0  0  0  0  0  0  0  0  0
    3.2678    0.1870   -1.4961 H   0  0  0  0  0  0  0  0  0  0  0  0
   -3.1847   -1.1445   -0.8538 H   0  0  0  0  0  0  0  0  0  0  0  0
  8 10  1  6
  7  8  1  0
  8  9  1  0
  8 11  1  0
 11 12  1  0
 19 12  1  0
 19 13  1  0
 12 22  2  0
 17  1  1  0
 13  1  2  0
 13  3  1  0
 18  3  1  0
  1 14  1  0
  3 15  2  0
 14  2  2  0
 15  2  1  0
  2  4  1  0
  4 23  2  0
  4 20  1  0
 20  5  1  0
  5 21  2  0
  5 24  1  0
 21  6  1  0
 24 16  1  0
  6 16  2  0
  6 25  1  0
  7 26  1  0
  7 27  1  0
  7 28  1  0
  9 29  1  0
  9 30  1  0
  9 31  1  0
 10 32  1  0
 10 33  1  0
 10 34  1  0
 11 35  1  0
 11 36  1  0
 14 37  1  0
 15 38  1  0
 16 39  1  0
 19 40  1  0
 20 41  1  0
M  END
