
     RDKit          3D

 17 18  0  0  0  0  0  0  0  0999 V2000
    0.8192    1.6010   -0.0070 N   0  0  0  0  0  0  0  0  0  0  0  0
    2.1499    1.7409   -0.0125 N   0  0  0  0  0  0  0  0  0  0  0  0
    2.6605    0.5409   -0.0018 C   0  0  0  0  0  0  0  0  0  0  0  0
    1.5992   -1.8352    0.0268 C   0  0  0  0  0  0  0  0  0  0  0  0
    0.3730   -2.4704    0.0374 C   0  0  0  0  0  0  0  0  0  0  0  0
   -0.8157   -1.7354    0.0333 C   0  0  0  0  0  0  0  0  0  0  0  0
   -0.7980   -0.3541    0.0184 C   0  0  0  0  0  0  0  0  0  0  0  0
    0.4398    0.3103    0.0078 C   0  0  0  0  0  0  0  0  0  0  0  0
    1.6323   -0.4415    0.0119 C   0  0  0  0  0  0  0  0  0  0  0  0
   -2.0265    0.3870    0.0146 N   0  0  0  0  0  0  0  0  0  0  0  0
   -3.0751   -0.2132    0.0217 O   0  0  0  0  0  0  0  0  0  0  0  0
   -1.9422    1.5984    0.0040 O   0  0  0  0  0  0  0  0  0  0  0  0
    0.2297    2.4168   -0.0125 H   0  0  0  0  0  0  0  0  0  0  0  0
    3.7289    0.3894   -0.0038 H   0  0  0  0  0  0  0  0  0  0  0  0
    2.5164   -2.4091    0.0305 H   0  0  0  0  0  0  0  0  0  0  0  0
    0.3195   -3.5494    0.0491 H   0  0  0  0  0  0  0  0  0  0  0  0
   -1.7599   -2.2611    0.0431 H   0  0  0  0  0  0  0  0  0  0  0  0
  1  2  1  0
  1  8  1  0
  1 13  1  0
  2  3  2  0
  3  9  1  0
  3 14  1  0
  4  5  1  0
  4  9  2  0
  4 15  1  0
  5  6  2  0
  5 16  1  0
  6  7  1  0
  6 17  1  0
  7  8  2  0
  7 10  1  0
  8  9  1  0
 10 11  2  0
 10 12  1  0
M  CHG  2  10   1  12  -1
M  END
