
     RDKit          3D

 37 39  0  0  0  0  0  0  0  0999 V2000
   -1.6413    2.7715    1.5961 Cl  0  0  0  0  0  0  0  0  0  0  0  0
   -2.3618    1.9740    0.2359 C   0  0  0  0  0  0  0  0  0  0  0  0
   -3.7307    2.0576    0.0404 C   0  0  0  0  0  0  0  0  0  0  0  0
   -4.3093    1.3980   -1.0338 C   0  0  0  0  0  0  0  0  0  0  0  0
   -3.5107    0.6580   -1.8964 C   0  0  0  0  0  0  0  0  0  0  0  0
   -2.1447    0.5726   -1.6861 C   0  0  0  0  0  0  0  0  0  0  0  0
   -1.5406    1.2296   -0.6116 C   0  0  0  0  0  0  0  0  0  0  0  0
   -0.1634    1.2401   -0.4345 N   0  0  0  0  0  0  0  0  0  0  0  0
    0.5047    0.1747   -0.2120 C   0  0  0  0  0  0  0  0  0  0  0  0
   -0.1218   -1.1427    0.0572 C   0  0  0  0  0  0  0  0  0  0  0  0
   -1.0744   -1.2764    1.0661 C   0  0  0  0  0  0  0  0  0  0  0  0
   -1.6864   -2.4905    1.3129 C   0  0  0  0  0  0  0  0  0  0  0  0
   -1.3673   -3.6014    0.5325 C   0  0  0  0  0  0  0  0  0  0  0  0
   -1.9995   -4.7567    0.8008 O   0  0  0  0  0  0  0  0  0  0  0  0
   -0.4180   -3.4803   -0.4803 C   0  0  0  0  0  0  0  0  0  0  0  0
    0.2029   -2.2624   -0.7027 C   0  0  0  0  0  0  0  0  0  0  0  0
    1.9753    0.2689   -0.1971 C   0  0  0  0  0  0  0  0  0  0  0  0
    2.7643   -0.7002    0.4219 C   0  0  0  0  0  0  0  0  0  0  0  0
    4.1442   -0.5892    0.4570 C   0  0  0  0  0  0  0  0  0  0  0  0
    4.7693    0.5033   -0.1386 C   0  0  0  0  0  0  0  0  0  0  0  0
    6.1010    0.6643   -0.1446 O   0  0  0  0  0  0  0  0  0  0  0  0
    3.9932    1.4835   -0.7626 C   0  0  0  0  0  0  0  0  0  0  0  0
    2.6198    1.3638   -0.7838 C   0  0  0  0  0  0  0  0  0  0  0  0
   -4.3386    2.6342    0.7247 H   0  0  0  0  0  0  0  0  0  0  0  0
   -5.3766    1.4666   -1.1942 H   0  0  0  0  0  0  0  0  0  0  0  0
   -3.9535    0.1431   -2.7388 H   0  0  0  0  0  0  0  0  0  0  0  0
   -1.5249    0.0001   -2.3643 H   0  0  0  0  0  0  0  0  0  0  0  0
   -1.3314   -0.4261    1.6857 H   0  0  0  0  0  0  0  0  0  0  0  0
   -2.4147   -2.5827    2.1086 H   0  0  0  0  0  0  0  0  0  0  0  0
   -1.7016   -5.4535    0.2051 H   0  0  0  0  0  0  0  0  0  0  0  0
   -0.1601   -4.3349   -1.0957 H   0  0  0  0  0  0  0  0  0  0  0  0
    0.9397   -2.1867   -1.4926 H   0  0  0  0  0  0  0  0  0  0  0  0
    2.3038   -1.5524    0.9030 H   0  0  0  0  0  0  0  0  0  0  0  0
    4.7310   -1.3542    0.9519 H   0  0  0  0  0  0  0  0  0  0  0  0
    6.5364   -0.0759    0.2939 H   0  0  0  0  0  0  0  0  0  0  0  0
    4.4759    2.3324   -1.2300 H   0  0  0  0  0  0  0  0  0  0  0  0
    2.0306    2.1295   -1.2705 H   0  0  0  0  0  0  0  0  0  0  0  0
  4  5  2  0
  4  3  1  0
  5  6  1  0
  3  2  2  0
  6  7  2  0
  2  7  1  0
  2  1  1  0
  7  8  1  0
  8  9  2  0
 21 20  1  0
 19 20  1  0
 19 18  2  0
 20 22  2  0
 18 17  1  0
 22 23  1  0
 17 23  2  0
 17  9  1  0
  9 10  1  0
 10 11  2  0
 10 16  1  0
 11 12  1  0
 16 15  2  0
 12 13  2  0
 15 13  1  0
 13 14  1  0
  3 24  1  0
  4 25  1  0
  5 26  1  0
  6 27  1  0
 11 28  1  0
 12 29  1  0
 14 30  1  0
 15 31  1  0
 16 32  1  0
 18 33  1  0
 19 34  1  0
 21 35  1  0
 22 36  1  0
 23 37  1  0
M  END
