
     RDKit          3D

 33 34  0  0  0  0  0  0  0  0999 V2000
   -5.0445    1.1062   -0.0054 C   0  0  0  0  0  0  0  0  0  0  0  0
   -4.7144   -0.2465   -0.0025 C   0  0  0  0  0  0  0  0  0  0  0  0
   -3.3764   -0.6294   -0.0099 C   0  0  0  0  0  0  0  0  0  0  0  0
   -2.3508    0.3141   -0.0207 C   0  0  0  0  0  0  0  0  0  0  0  0
   -2.7034    1.6689   -0.0243 C   0  0  0  0  0  0  0  0  0  0  0  0
   -4.0312    2.0554   -0.0161 C   0  0  0  0  0  0  0  0  0  0  0  0
   -0.9683   -0.1603   -0.0250 C   0  0  0  0  0  0  0  0  0  0  0  0
    0.1250    0.6144   -0.0217 C   0  0  0  0  0  0  0  0  0  0  0  0
    1.5070    0.1441   -0.0220 C   0  0  0  0  0  0  0  0  0  0  0  0
    2.5873    1.0362   -0.0311 C   0  0  0  0  0  0  0  0  0  0  0  0
    3.9035    0.6034   -0.0283 C   0  0  0  0  0  0  0  0  0  0  0  0
    4.2128   -0.7545   -0.0175 C   0  0  0  0  0  0  0  0  0  0  0  0
    3.1441   -1.6557   -0.0103 C   0  0  0  0  0  0  0  0  0  0  0  0
    1.8354   -1.2182   -0.0128 C   0  0  0  0  0  0  0  0  0  0  0  0
   -5.7469   -1.3133    0.0116 C   0  0  0  0  0  0  0  0  0  0  0  0
    6.6763   -0.2912   -0.0217 O   0  0  0  0  0  0  0  0  0  0  0  0
    5.9227   -2.5847    0.0088 O   0  0  0  0  0  0  0  0  0  0  0  0
   -5.4923   -2.4935    0.0439 O   0  0  0  0  0  0  0  0  0  0  0  0
   -6.9827   -0.8371   -0.0155 O   0  0  0  0  0  0  0  0  0  0  0  0
    2.3188    2.7552   -0.0446 Cl  0  0  0  0  0  0  0  0  0  0  0  0
    5.7059   -1.2431   -0.0097 B   0  0  0  0  0  0  0  0  0  0  0  0
   -6.0756    1.4305    0.0006 H   0  0  0  0  0  0  0  0  0  0  0  0
   -3.1254   -1.6829   -0.0064 H   0  0  0  0  0  0  0  0  0  0  0  0
   -1.9396    2.4348   -0.0334 H   0  0  0  0  0  0  0  0  0  0  0  0
   -4.2814    3.1078   -0.0184 H   0  0  0  0  0  0  0  0  0  0  0  0
   -0.8682   -1.2406   -0.0294 H   0  0  0  0  0  0  0  0  0  0  0  0
    0.0001    1.6894   -0.0177 H   0  0  0  0  0  0  0  0  0  0  0  0
    4.6934    1.3430   -0.0342 H   0  0  0  0  0  0  0  0  0  0  0  0
    3.3306   -2.7219   -0.0016 H   0  0  0  0  0  0  0  0  0  0  0  0
    1.0441   -1.9553   -0.0056 H   0  0  0  0  0  0  0  0  0  0  0  0
    7.5838   -0.6101   -0.0166 H   0  0  0  0  0  0  0  0  0  0  0  0
    6.8436   -2.8639    0.0197 H   0  0  0  0  0  0  0  0  0  0  0  0
   -7.6199   -1.5667   -0.0002 H   0  0  0  0  0  0  0  0  0  0  0  0
 18 15  2  0
 15 19  1  0
 15  2  1  0
  1  2  2  0
  1  6  1  0
  2  3  1  0
  6  5  2  0
  3  4  2  0
  5  4  1  0
  4  7  1  0
  7  8  2  0
  8  9  1  0
 20 10  1  0
  9 10  2  0
  9 14  1  0
 10 11  1  0
 14 13  2  0
 11 12  2  0
 13 12  1  0
 12 21  1  0
 21 16  1  0
 21 17  1  0
  1 22  1  0
  3 23  1  0
  5 24  1  0
  6 25  1  0
  7 26  1  0
  8 27  1  0
 11 28  1  0
 13 29  1  0
 14 30  1  0
 16 31  1  0
 17 32  1  0
 19 33  1  0
M  END
