
     RDKit          3D

 54 53  0  0  0  0  0  0  0  0999 V2000
   -3.1074    0.0259    1.8606 C   0  0  0  0  0  0  0  0  0  0  0  0
   -5.0166   -1.5715    2.0239 C   0  0  0  0  0  0  0  0  0  0  0  0
   -6.8545    1.4690   -1.6300 O   0  0  0  0  0  0  0  0  0  0  0  0
   -6.0410    2.0165   -0.3661 P   0  0  1  0  0  0  0  0  0  0  0  0
   -4.9731    2.9224   -0.8293 O   0  0  0  0  0  0  0  0  0  0  0  0
   -7.0912    2.5952    0.6846 O   0  0  0  0  0  0  0  0  0  0  0  0
   -5.5985    0.7491    0.4886 O   0  0  0  0  0  0  0  0  0  0  0  0
   -4.6946   -0.2153   -0.0679 C   0  0  0  0  0  0  0  0  0  0  0  0
   -3.9898   -0.9455    1.0743 C   0  0  1  0  0  0  0  0  0  0  0  0
   -3.1275   -2.1030    0.4978 C   0  0  1  0  0  0  0  0  0  0  0  0
   -3.8959   -3.0521   -0.1918 O   0  0  0  0  0  0  0  0  0  0  0  0
   -2.0067   -1.6274   -0.4271 C   0  0  0  0  0  0  0  0  0  0  0  0
   -2.2227   -1.4764   -1.6251 O   0  0  0  0  0  0  0  0  0  0  0  0
   -0.8166   -1.4159    0.1347 N   0  0  0  0  0  0  0  0  0  0  0  0
    0.3443   -0.9946   -0.6253 C   0  0  0  0  0  0  0  0  0  0  0  0
    1.5347   -0.8395    0.3048 C   0  0  0  0  0  0  0  0  0  0  0  0
    2.8137   -0.5528   -0.4550 C   0  0  0  0  0  0  0  0  0  0  0  0
    3.0247   -1.0115   -1.5687 O   0  0  0  0  0  0  0  0  0  0  0  0
    3.6983    0.2179    0.1986 N   0  0  0  0  0  0  0  0  0  0  0  0
    5.0275    0.4918   -0.2946 C   0  0  0  0  0  0  0  0  0  0  0  0
    6.0057   -0.6334    0.0495 C   0  0  0  0  0  0  0  0  0  0  0  0
    7.3379   -0.3771   -0.4414 N   0  0  0  0  0  0  0  0  0  0  0  0
    8.2289    0.3964    0.2043 C   0  0  0  0  0  0  0  0  0  0  0  0
    7.9875    0.9165    1.2855 O   0  0  0  0  0  0  0  0  0  0  0  0
    9.5516    0.5900   -0.5069 C   0  0  0  0  0  0  0  0  0  0  0  0
   10.7288    0.6343    0.4559 C   0  0  0  0  0  0  0  0  0  0  0  0
   -2.5024   -0.5040    2.5996 H   0  0  0  0  0  0  0  0  0  0  0  0
   -2.4333    0.5928    1.2177 H   0  0  0  0  0  0  0  0  0  0  0  0
   -3.7205    0.7420    2.4064 H   0  0  0  0  0  0  0  0  0  0  0  0
   -5.5937   -0.8074    2.5432 H   0  0  0  0  0  0  0  0  0  0  0  0
   -5.7153   -2.2244    1.5008 H   0  0  0  0  0  0  0  0  0  0  0  0
   -4.5106   -2.1679    2.7862 H   0  0  0  0  0  0  0  0  0  0  0  0
   -7.6071    0.8959   -1.4311 H   0  0  0  0  0  0  0  0  0  0  0  0
   -7.3970    3.4891    0.4817 H   0  0  0  0  0  0  0  0  0  0  0  0
   -5.2696   -0.9152   -0.6793 H   0  0  0  0  0  0  0  0  0  0  0  0
   -3.9678    0.2863   -0.7119 H   0  0  0  0  0  0  0  0  0  0  0  0
   -2.6857   -2.6131    1.3613 H   0  0  0  0  0  0  0  0  0  0  0  0
   -3.9099   -2.7995   -1.1237 H   0  0  0  0  0  0  0  0  0  0  0  0
   -0.6999   -1.6279    1.1130 H   0  0  0  0  0  0  0  0  0  0  0  0
    0.5655   -1.7309   -1.3991 H   0  0  0  0  0  0  0  0  0  0  0  0
    0.1325   -0.0479   -1.1268 H   0  0  0  0  0  0  0  0  0  0  0  0
    1.3427   -0.0610    1.0466 H   0  0  0  0  0  0  0  0  0  0  0  0
    1.6929   -1.7698    0.8614 H   0  0  0  0  0  0  0  0  0  0  0  0
    3.4674    0.5383    1.1248 H   0  0  0  0  0  0  0  0  0  0  0  0
    4.9926    0.6377   -1.3742 H   0  0  0  0  0  0  0  0  0  0  0  0
    5.3654    1.4269    0.1504 H   0  0  0  0  0  0  0  0  0  0  0  0
    6.0361   -0.7778    1.1301 H   0  0  0  0  0  0  0  0  0  0  0  0
    5.6611   -1.5676   -0.3929 H   0  0  0  0  0  0  0  0  0  0  0  0
    7.5894   -0.7589   -1.3382 H   0  0  0  0  0  0  0  0  0  0  0  0
    9.7015   -0.1895   -1.2565 H   0  0  0  0  0  0  0  0  0  0  0  0
    9.4891    1.5330   -1.0590 H   0  0  0  0  0  0  0  0  0  0  0  0
   10.6206    1.4415    1.1780 H   0  0  0  0  0  0  0  0  0  0  0  0
   10.8251   -0.3012    1.0078 H   0  0  0  0  0  0  0  0  0  0  0  0
   11.6582    0.7945   -0.0890 H   0  0  0  0  0  0  0  0  0  0  0  0
 24 23  2  0
 21 20  1  0
 21 22  1  0
 20 19  1  0
 18 17  2  0
 23 22  1  0
 23 25  1  0
 13 12  2  0
 19 17  1  0
 10 12  1  0
 10 11  1  0
 10  9  1  0
 17 16  1  0
 25 26  1  0
 12 14  1  0
  9  2  1  1
  1  9  1  0
  9  8  1  0
 14 15  1  0
 15 16  1  0
  8  7  1  0
  4  7  1  1
  4  5  2  0
  4  6  1  0
  4  3  1  0
  1 27  1  0
  1 28  1  0
  1 29  1  0
  2 30  1  0
  2 31  1  0
  2 32  1  0
  3 33  1  0
  6 34  1  0
  8 35  1  0
  8 36  1  0
 10 37  1  1
 11 38  1  0
 14 39  1  0
 15 40  1  0
 15 41  1  0
 16 42  1  0
 16 43  1  0
 19 44  1  0
 20 45  1  0
 20 46  1  0
 21 47  1  0
 21 48  1  0
 22 49  1  0
 25 50  1  0
 25 51  1  0
 26 52  1  0
 26 53  1  0
 26 54  1  0
M  END
