
     RDKit          3D

 25 24  0  0  0  0  0  0  0  0999 V2000
    2.7195    1.5468    0.4096 O   0  0  0  0  0  0  0  0  0  0  0  0
    2.3910    0.9849   -0.8341 C   0  0  0  0  0  0  0  0  0  0  0  0
    1.4521   -0.1934   -0.6851 C   0  0  1  0  0  0  0  0  0  0  0  0
    2.0007   -1.3895    0.0737 C   0  0  0  0  0  0  0  0  0  0  0  0
    2.1447   -1.0999    1.4400 O   0  0  0  0  0  0  0  0  0  0  0  0
    0.2463    0.2947   -0.0790 O   0  0  0  0  0  0  0  0  0  0  0  0
   -0.9091   -0.2960   -0.3626 C   0  0  0  0  0  0  0  0  0  0  0  0
   -1.0162   -1.2373   -1.1092 O   0  0  0  0  0  0  0  0  0  0  0  0
   -2.0513    0.3581    0.3672 C   0  0  0  0  0  0  0  0  0  0  0  0
   -3.4225   -0.1304   -0.0735 C   0  0  0  0  0  0  0  0  0  0  0  0
   -4.5369    0.5717    0.6893 C   0  0  0  0  0  0  0  0  0  0  0  0
    3.2121    2.3548    0.2418 H   0  0  0  0  0  0  0  0  0  0  0  0
    1.9108    1.7174   -1.4957 H   0  0  0  0  0  0  0  0  0  0  0  0
    3.2767    0.6164   -1.3696 H   0  0  0  0  0  0  0  0  0  0  0  0
    1.2443   -0.5407   -1.7022 H   0  0  0  0  0  0  0  0  0  0  0  0
    1.3260   -2.2391   -0.0855 H   0  0  0  0  0  0  0  0  0  0  0  0
    2.9545   -1.6565   -0.4025 H   0  0  0  0  0  0  0  0  0  0  0  0
    2.3613   -1.9220    1.8883 H   0  0  0  0  0  0  0  0  0  0  0  0
   -1.9112    0.1781    1.4387 H   0  0  0  0  0  0  0  0  0  0  0  0
   -1.9709    1.4418    0.2420 H   0  0  0  0  0  0  0  0  0  0  0  0
   -3.5471    0.0419   -1.1449 H   0  0  0  0  0  0  0  0  0  0  0  0
   -3.4981   -1.2090    0.0773 H   0  0  0  0  0  0  0  0  0  0  0  0
   -4.4579    0.3912    1.7629 H   0  0  0  0  0  0  0  0  0  0  0  0
   -4.5041    1.6517    0.5347 H   0  0  0  0  0  0  0  0  0  0  0  0
   -5.5166    0.2204    0.3661 H   0  0  0  0  0  0  0  0  0  0  0  0
  5  4  1  0
  1  2  1  0
  4  3  1  0
  6  3  1  0
  6  7  1  0
  3  2  1  0
 10 11  1  0
 10  9  1  0
  7  9  1  0
  7  8  2  0
  1 12  1  0
  2 13  1  0
  2 14  1  0
  3 15  1  6
  4 16  1  0
  4 17  1  0
  5 18  1  0
  9 19  1  0
  9 20  1  0
 10 21  1  0
 10 22  1  0
 11 23  1  0
 11 24  1  0
 11 25  1  0
M  END
