
     RDKit          3D

 24 25  0  0  0  0  0  0  0  0999 V2000
    3.6024    0.3849   -0.0462 C   0  0  0  0  0  0  0  0  0  0  0  0
   -1.1462    2.9752   -0.0190 C   0  0  0  0  0  0  0  0  0  0  0  0
   -1.9846   -2.1409    0.0257 C   0  0  0  0  0  0  0  0  0  0  0  0
   -2.9269   -1.1025    0.0283 C   0  0  0  0  0  0  0  0  0  0  0  0
   -0.6264   -1.8806    0.0107 C   0  0  0  0  0  0  0  0  0  0  0  0
   -2.5298    0.2217    0.0160 C   0  0  0  0  0  0  0  0  0  0  0  0
    0.8261    1.4562   -0.0239 C   0  0  0  0  0  0  0  0  0  0  0  0
    2.3968   -0.5227   -0.0267 C   0  0  0  0  0  0  0  0  0  0  0  0
    1.0865    0.1011   -0.0177 C   0  0  0  0  0  0  0  0  0  0  0  0
   -0.1963   -0.5503   -0.0020 C   0  0  0  0  0  0  0  0  0  0  0  0
   -1.1616    0.4752    0.0009 C   0  0  0  0  0  0  0  0  0  0  0  0
   -0.5016    1.6827   -0.0125 N   0  0  0  0  0  0  0  0  0  0  0  0
    2.5209   -1.7375   -0.0198 O   0  0  0  0  0  0  0  0  0  0  0  0
    3.6035    1.0515    0.8174 H   0  0  0  0  0  0  0  0  0  0  0  0
    4.5195   -0.2001   -0.0357 H   0  0  0  0  0  0  0  0  0  0  0  0
    3.6001    1.0130   -0.9386 H   0  0  0  0  0  0  0  0  0  0  0  0
   -1.7795    3.0913    0.8595 H   0  0  0  0  0  0  0  0  0  0  0  0
   -0.3883    3.7530   -0.0093 H   0  0  0  0  0  0  0  0  0  0  0  0
   -1.7592    3.0937   -0.9116 H   0  0  0  0  0  0  0  0  0  0  0  0
   -2.3297   -3.1669    0.0362 H   0  0  0  0  0  0  0  0  0  0  0  0
   -3.9828   -1.3394    0.0402 H   0  0  0  0  0  0  0  0  0  0  0  0
    0.0885   -2.6906    0.0086 H   0  0  0  0  0  0  0  0  0  0  0  0
   -3.2576    1.0226    0.0186 H   0  0  0  0  0  0  0  0  0  0  0  0
    1.5176    2.2849   -0.0353 H   0  0  0  0  0  0  0  0  0  0  0  0
  3  4  2  0
  3  5  1  0
  4  6  1  0
  5 10  2  0
  6 11  2  0
 10 11  1  0
 10  9  1  0
 11 12  1  0
 13  8  2  0
  9  8  1  0
  9  7  2  0
 12  2  1  0
 12  7  1  0
  8  1  1  0
  1 14  1  0
  1 15  1  0
  1 16  1  0
  2 17  1  0
  2 18  1  0
  2 19  1  0
  3 20  1  0
  4 21  1  0
  5 22  1  0
  6 23  1  0
  7 24  1  0
M  END
