
     RDKit          3D

 31 33  0  0  0  0  0  0  0  0999 V2000
    3.2658    0.2418    2.3919 O   0  0  0  0  0  0  0  0  0  0  0  0
    3.6799    0.2644    1.2622 N   0  0  0  0  0  0  0  0  0  0  0  0
    4.8596    0.4419    0.9937 O   0  0  0  0  0  0  0  0  0  0  0  0
    2.7593    0.0771    0.1736 C   0  0  0  0  0  0  0  0  0  0  0  0
    3.2036    0.0973   -1.1630 C   0  0  0  0  0  0  0  0  0  0  0  0
    4.4539    0.2796   -1.5489 O   0  0  0  0  0  0  0  0  0  0  0  0
    2.2451   -0.0897   -2.1672 C   0  0  0  0  0  0  0  0  0  0  0  0
    0.9221   -0.2878   -1.8559 C   0  0  0  0  0  0  0  0  0  0  0  0
    1.4147   -0.1255    0.4852 C   0  0  0  0  0  0  0  0  0  0  0  0
    0.5043   -0.3078   -0.5244 C   0  0  0  0  0  0  0  0  0  0  0  0
   -0.8713   -0.5020   -0.2149 N   0  0  0  0  0  0  0  0  0  0  0  0
   -1.2866   -1.8011   -0.0450 C   0  0  0  0  0  0  0  0  0  0  0  0
   -0.5321   -2.7439   -0.1364 O   0  0  0  0  0  0  0  0  0  0  0  0
   -2.6206   -1.9617    0.2376 N   0  0  0  0  0  0  0  0  0  0  0  0
   -1.7337    0.5874   -0.1267 C   0  0  0  0  0  0  0  0  0  0  0  0
   -3.0852    0.3750    0.1583 C   0  0  0  0  0  0  0  0  0  0  0  0
   -3.5810   -0.9858    0.3596 C   0  0  0  0  0  0  0  0  0  0  0  0
   -4.7329   -1.2715    0.6133 O   0  0  0  0  0  0  0  0  0  0  0  0
   -3.9601    1.4568    0.2502 C   0  0  0  0  0  0  0  0  0  0  0  0
   -3.5027    2.7440    0.0622 C   0  0  0  0  0  0  0  0  0  0  0  0
   -2.1550    2.9502   -0.2225 C   0  0  0  0  0  0  0  0  0  0  0  0
   -1.2722    1.8908   -0.3178 C   0  0  0  0  0  0  0  0  0  0  0  0
    5.0186    0.3966   -0.7624 H   0  0  0  0  0  0  0  0  0  0  0  0
    2.5696   -0.0739   -3.1991 H   0  0  0  0  0  0  0  0  0  0  0  0
    0.1990   -0.4257   -2.6492 H   0  0  0  0  0  0  0  0  0  0  0  0
    1.0879   -0.1393    1.5157 H   0  0  0  0  0  0  0  0  0  0  0  0
   -2.9220   -2.9201    0.3668 H   0  0  0  0  0  0  0  0  0  0  0  0
   -5.0031    1.2722    0.4695 H   0  0  0  0  0  0  0  0  0  0  0  0
   -4.1816    3.5818    0.1345 H   0  0  0  0  0  0  0  0  0  0  0  0
   -1.7830    3.9547   -0.3740 H   0  0  0  0  0  0  0  0  0  0  0  0
   -0.2328    2.0853   -0.5392 H   0  0  0  0  0  0  0  0  0  0  0  0
  6  5  1  0
  5  7  1  0
  5  4  2  0
  7  8  2  0
  3  2  1  0
  8 10  1  0
  4  2  1  0
  4  9  1  0
  2  1  2  0
 13 12  2  0
  9 10  2  0
 10 11  1  0
 12 11  1  0
 12 14  1  0
 11 15  1  0
 14 17  1  0
 15 22  1  0
 15 16  2  0
 22 21  2  0
 17 16  1  0
 17 18  2  0
 16 19  1  0
 21 20  1  0
 19 20  2  0
  6 23  1  0
  7 24  1  0
  8 25  1  0
  9 26  1  0
 14 27  1  0
 19 28  1  0
 20 29  1  0
 21 30  1  0
 22 31  1  0
M  CHG  2   2   1   3  -1
M  END
