
     RDKit          3D

 14 14  0  0  0  0  0  0  0  0999 V2000
   -1.7556    0.0016   -0.0139 N   0  0  0  0  0  0  0  0  0  0  0  0
   -1.0973   -1.1702   -0.0098 C   0  0  0  0  0  0  0  0  0  0  0  0
    0.2622   -1.2066    0.0023 C   0  0  0  0  0  0  0  0  0  0  0  0
    0.9977    0.0039    0.0098 C   0  0  0  0  0  0  0  0  0  0  0  0
    0.2602    1.2133    0.0062 C   0  0  0  0  0  0  0  0  0  0  0  0
   -1.0994    1.1745   -0.0060 C   0  0  0  0  0  0  0  0  0  0  0  0
    2.3217    0.0054    0.0200 N   0  0  0  0  0  0  0  0  0  0  0  0
   -2.7654    0.0006   -0.0255 H   0  0  0  0  0  0  0  0  0  0  0  0
   -1.7033   -2.0630   -0.0166 H   0  0  0  0  0  0  0  0  0  0  0  0
    0.7684   -2.1614    0.0058 H   0  0  0  0  0  0  0  0  0  0  0  0
    0.7648    2.1689    0.0121 H   0  0  0  0  0  0  0  0  0  0  0  0
   -1.7069    2.0663   -0.0102 H   0  0  0  0  0  0  0  0  0  0  0  0
    2.8456    0.8645    0.0225 H   0  0  0  0  0  0  0  0  0  0  0  0
    2.8473   -0.8527    0.0182 H   0  0  0  0  0  0  0  0  0  0  0  0
  1  2  2  0
  1  6  1  0
  1  8  1  0
  2  3  1  0
  2  9  1  0
  3  4  2  0
  3 10  1  0
  4  5  1  0
  4  7  1  0
  5  6  2  0
  5 11  1  0
  6 12  1  0
  7 13  1  0
  7 14  1  0
M  CHG  1   1   1
M  END
