
     RDKit          3D

 43 45  0  0  0  0  0  0  0  0999 V2000
    3.5642   -1.7205    0.0044 C   0  0  0  0  0  0  0  0  0  0  0  0
    2.4772   -2.5470    0.2570 C   0  0  0  0  0  0  0  0  0  0  0  0
    1.1659   -2.0954    0.2487 C   0  0  0  0  0  0  0  0  0  0  0  0
    0.9037   -0.7575   -0.0452 C   0  0  0  0  0  0  0  0  0  0  0  0
    1.9798    0.0859   -0.3315 C   0  0  0  0  0  0  0  0  0  0  0  0
    3.2837   -0.3815   -0.2926 C   0  0  0  0  0  0  0  0  0  0  0  0
   -0.3606   -0.1739   -0.0908 N   0  0  0  0  0  0  0  0  0  0  0  0
   -1.6003   -0.7064    0.0525 C   0  0  0  0  0  0  0  0  0  0  0  0
   -2.7137    0.1457   -0.0569 C   0  0  0  0  0  0  0  0  0  0  0  0
   -3.9656   -0.4129    0.0855 C   0  0  0  0  0  0  0  0  0  0  0  0
   -4.1053   -1.7294    0.3249 N   0  0  0  0  0  0  0  0  0  0  0  0
   -3.0013   -2.4355    0.4116 C   0  0  0  0  0  0  0  0  0  0  0  0
   -1.7541   -2.0053    0.2897 N   0  0  0  0  0  0  0  0  0  0  0  0
   -5.2125    0.3780   -0.0139 C   0  0  0  0  0  0  0  0  0  0  0  0
   -6.4474   -0.2558    0.1393 C   0  0  0  0  0  0  0  0  0  0  0  0
   -7.6296    0.4627    0.0503 C   0  0  0  0  0  0  0  0  0  0  0  0
   -7.6012    1.8289   -0.1951 C   0  0  0  0  0  0  0  0  0  0  0  0
   -6.3792    2.4705   -0.3490 C   0  0  0  0  0  0  0  0  0  0  0  0
   -5.1971    1.7527   -0.2599 C   0  0  0  0  0  0  0  0  0  0  0  0
    4.9665   -2.2509    0.0452 C   0  0  0  0  0  0  0  0  0  0  0  0
    4.3375    0.5134   -0.6083 N   0  0  0  0  0  0  0  0  0  0  0  0
    4.7489    1.7582    0.4139 S   0  0  1  0  0  0  0  0  0  0  0  0
    5.3229    1.0078    1.9194 C   0  0  0  0  0  0  0  0  0  0  0  0
    5.8656    2.4305   -0.2284 O   0  0  0  0  0  0  0  0  0  0  0  0
    3.5380    2.5021    0.7141 O   0  0  0  0  0  0  0  0  0  0  0  0
    2.6568   -3.5916    0.4807 H   0  0  0  0  0  0  0  0  0  0  0  0
    0.3631   -2.7811    0.4599 H   0  0  0  0  0  0  0  0  0  0  0  0
    1.7975    1.1169   -0.6055 H   0  0  0  0  0  0  0  0  0  0  0  0
   -0.3523    0.8179   -0.2731 H   0  0  0  0  0  0  0  0  0  0  0  0
   -2.5678    1.1996   -0.2471 H   0  0  0  0  0  0  0  0  0  0  0  0
   -3.1182   -3.4969    0.6053 H   0  0  0  0  0  0  0  0  0  0  0  0
   -6.4792   -1.3197    0.3280 H   0  0  0  0  0  0  0  0  0  0  0  0
   -8.5758   -0.0477    0.1737 H   0  0  0  0  0  0  0  0  0  0  0  0
   -8.5234    2.3906   -0.2676 H   0  0  0  0  0  0  0  0  0  0  0  0
   -6.3441    3.5351   -0.5389 H   0  0  0  0  0  0  0  0  0  0  0  0
   -4.2641    2.2852   -0.3874 H   0  0  0  0  0  0  0  0  0  0  0  0
    5.4967   -2.1111   -0.8995 H   0  0  0  0  0  0  0  0  0  0  0  0
    5.5642   -1.7719    0.8231 H   0  0  0  0  0  0  0  0  0  0  0  0
    4.9651   -3.3193    0.2536 H   0  0  0  0  0  0  0  0  0  0  0  0
    5.1590    0.0865   -1.0227 H   0  0  0  0  0  0  0  0  0  0  0  0
    6.2122    0.4191    1.7079 H   0  0  0  0  0  0  0  0  0  0  0  0
    5.5639    1.8080    2.6176 H   0  0  0  0  0  0  0  0  0  0  0  0
    4.5386    0.3804    2.3383 H   0  0  0  0  0  0  0  0  0  0  0  0
  1  2  2  0
  1  6  1  0
  1 20  1  0
  2  3  1  0
  3  4  2  0
  4  5  1  0
  4  7  1  0
  5  6  2  0
  6 21  1  0
  7  8  1  0
  8  9  2  0
  8 13  1  0
  9 10  1  0
 10 11  2  0
 10 14  1  0
 11 12  1  0
 12 13  2  0
 14 15  2  0
 14 19  1  0
 15 16  1  0
 16 17  2  0
 17 18  1  0
 18 19  2  0
 22 21  1  6
 22 23  1  0
 22 24  2  0
 22 25  2  0
  2 26  1  0
  3 27  1  0
  5 28  1  0
  7 29  1  0
  9 30  1  0
 12 31  1  0
 15 32  1  0
 16 33  1  0
 17 34  1  0
 18 35  1  0
 19 36  1  0
 20 37  1  0
 20 38  1  0
 20 39  1  0
 21 40  1  0
 23 41  1  0
 23 42  1  0
 23 43  1  0
M  END
