
     RDKit          3D

 44 45  0  0  0  0  0  0  0  0999 V2000
   -3.5919    1.7525   -0.7433 O   0  0  0  0  0  0  0  0  0  0  0  0
   -3.5863    0.5701   -0.5046 C   0  0  0  0  0  0  0  0  0  0  0  0
   -4.6854   -0.1303   -0.2561 O   0  0  0  0  0  0  0  0  0  0  0  0
   -5.9457    0.5500   -0.2679 C   0  0  0  0  0  0  0  0  0  0  0  0
   -7.0263   -0.4275    0.1593 C   0  0  1  0  0  0  0  0  0  0  0  0
   -6.7970   -0.9468    1.5748 C   0  0  0  0  0  0  0  0  0  0  0  0
   -8.3827    0.2614    0.0424 C   0  0  0  0  0  0  0  0  0  0  0  0
   -2.3587   -0.3002   -0.4564 C   0  0  0  0  0  0  0  0  0  0  0  0
   -1.0574    0.4694   -0.6087 C   0  0  0  0  0  0  0  0  0  0  0  0
    0.1541   -0.4538   -0.5637 C   0  0  0  0  0  0  0  0  0  0  0  0
    1.4632    0.3165   -0.6826 C   0  0  0  0  0  0  0  0  0  0  0  0
    2.6928   -0.5717   -0.7267 C   0  0  1  0  0  0  0  0  0  0  0  0
    4.0124    0.1847   -0.9350 C   0  0  1  0  0  0  0  0  0  0  0  0
    4.1152    1.3772   -0.1329 N   0  0  0  0  0  0  0  0  0  0  0  0
    5.2004    1.3857    0.6895 C   0  0  0  0  0  0  0  0  0  0  0  0
    5.5545    2.3065    1.4106 O   0  0  0  0  0  0  0  0  0  0  0  0
    2.9423   -1.5174    0.8121 S   0  0  0  0  0  0  0  0  0  0  0  0
    4.6005   -1.9602    0.2346 C   0  0  0  0  0  0  0  0  0  0  0  0
    5.1838   -0.6926   -0.3971 C   0  0  2  0  0  0  0  0  0  0  0  0
    5.8074    0.1822    0.5587 N   0  0  0  0  0  0  0  0  0  0  0  0
   -5.9159    1.4040    0.4160 H   0  0  0  0  0  0  0  0  0  0  0  0
   -6.1469    0.9301   -1.2732 H   0  0  0  0  0  0  0  0  0  0  0  0
   -7.0138   -1.2748   -0.5351 H   0  0  0  0  0  0  0  0  0  0  0  0
   -7.5861   -1.6426    1.8629 H   0  0  0  0  0  0  0  0  0  0  0  0
   -5.8461   -1.4705    1.6717 H   0  0  0  0  0  0  0  0  0  0  0  0
   -6.8031   -0.1240    2.2937 H   0  0  0  0  0  0  0  0  0  0  0  0
   -8.4512    1.1158    0.7200 H   0  0  0  0  0  0  0  0  0  0  0  0
   -8.5672    0.6216   -0.9710 H   0  0  0  0  0  0  0  0  0  0  0  0
   -9.1877   -0.4279    0.2992 H   0  0  0  0  0  0  0  0  0  0  0  0
   -2.3681   -0.8601    0.4838 H   0  0  0  0  0  0  0  0  0  0  0  0
   -2.4510   -1.0538   -1.2460 H   0  0  0  0  0  0  0  0  0  0  0  0
   -1.0582    1.0203   -1.5529 H   0  0  0  0  0  0  0  0  0  0  0  0
   -0.9724    1.2153    0.1859 H   0  0  0  0  0  0  0  0  0  0  0  0
    0.1416   -1.0238    0.3711 H   0  0  0  0  0  0  0  0  0  0  0  0
    0.0855   -1.1898   -1.3715 H   0  0  0  0  0  0  0  0  0  0  0  0
    1.4474    0.9139   -1.6013 H   0  0  0  0  0  0  0  0  0  0  0  0
    1.5512    1.0231    0.1468 H   0  0  0  0  0  0  0  0  0  0  0  0
    2.5877   -1.2919   -1.5452 H   0  0  0  0  0  0  0  0  0  0  0  0
    4.1311    0.4124   -1.9981 H   0  0  0  0  0  0  0  0  0  0  0  0
    3.6705    2.2396   -0.3985 H   0  0  0  0  0  0  0  0  0  0  0  0
    5.2071   -2.3228    1.0637 H   0  0  0  0  0  0  0  0  0  0  0  0
    4.5299   -2.7543   -0.5101 H   0  0  0  0  0  0  0  0  0  0  0  0
    5.8815   -0.9684   -1.1913 H   0  0  0  0  0  0  0  0  0  0  0  0
    6.6295   -0.0658    1.0816 H   0  0  0  0  0  0  0  0  0  0  0  0
 20 19  1  0
 20 15  1  0
 18 19  1  0
 18 17  1  0
 16 15  2  0
 19 13  1  0
 15 14  1  0
 17 12  1  0
 14 13  1  0
 13 12  1  0
 12 11  1  0
 11 10  1  0
 10  9  1  0
  9  8  1  0
  8  2  1  0
  2  3  1  0
  2  1  2  0
  3  4  1  0
  5  6  1  0
  5  4  1  0
  5  7  1  0
  4 21  1  0
  4 22  1  0
  5 23  1  6
  6 24  1  0
  6 25  1  0
  6 26  1  0
  7 27  1  0
  7 28  1  0
  7 29  1  0
  8 30  1  0
  8 31  1  0
  9 32  1  0
  9 33  1  0
 10 34  1  0
 10 35  1  0
 11 36  1  0
 11 37  1  0
 12 38  1  6
 13 39  1  6
 14 40  1  0
 18 41  1  0
 18 42  1  0
 19 43  1  6
 20 44  1  0
M  END
