
     RDKit          3D

 89 94  0  0  0  0  0  0  0  0999 V2000
   -3.8549    3.8099   -1.5756 C   0  0  0  0  0  0  0  0  0  0  0  0
   -3.8518    1.3691   -2.1204 C   0  0  0  0  0  0  0  0  0  0  0  0
   -3.8670    2.3982   -0.9985 C   0  0  0  0  0  0  0  0  0  0  0  0
   -6.4879   -2.3405    0.2958 N   0  0  0  0  0  0  0  0  0  0  0  0
   -6.3588   -3.2725    2.5666 C   0  0  0  0  0  0  0  0  0  0  0  0
   -6.9411   -2.2769    1.5565 C   0  0  0  0  0  0  0  0  0  0  0  0
   -4.3756   -1.9194   -0.7544 C   0  0  0  0  0  0  0  0  0  0  0  0
   -4.8691   -0.6943   -1.1340 C   0  0  0  0  0  0  0  0  0  0  0  0
   -5.2324   -2.9616   -0.1045 C   0  0  0  0  0  0  0  0  0  0  0  0
   -7.1106   -1.5211   -0.7348 C   0  0  0  0  0  0  0  0  0  0  0  0
   -6.2864   -0.2648   -1.0097 C   0  0  0  0  0  0  0  0  0  0  0  0
   -3.0012   -1.8619   -1.0702 C   0  0  0  0  0  0  0  0  0  0  0  0
   -3.3009    4.9045    0.4906 C   0  0  0  0  0  0  0  0  0  0  0  0
   -3.7598    5.9178    1.5166 C   0  0  0  0  0  0  0  0  0  0  0  0
   -4.8406    7.1309   -0.1265 C   0  0  0  0  0  0  0  0  0  0  0  0
   -4.4330    6.1408   -1.2132 C   0  0  2  0  0  0  0  0  0  0  0  0
   -5.5112    6.1510   -2.2894 C   0  0  0  0  0  0  0  0  0  0  0  0
   -1.9620   -2.8762   -0.8885 C   0  0  0  0  0  0  0  0  0  0  0  0
   -0.6173   -2.5142   -0.8912 C   0  0  0  0  0  0  0  0  0  0  0  0
    0.3940   -3.4606   -0.7288 C   0  0  0  0  0  0  0  0  0  0  0  0
    0.0339   -4.8023   -0.5515 C   0  0  0  0  0  0  0  0  0  0  0  0
   -1.2955   -5.1801   -0.5503 C   0  0  0  0  0  0  0  0  0  0  0  0
   -2.2834   -4.2239   -0.7230 C   0  0  0  0  0  0  0  0  0  0  0  0
    1.7565   -3.0658   -0.7459 C   0  0  0  0  0  0  0  0  0  0  0  0
    2.9181   -2.7403   -0.7725 C   0  0  0  0  0  0  0  0  0  0  0  0
    4.2948   -2.3912   -0.7990 C   0  0  0  0  0  0  0  0  0  0  0  0
    5.2680   -3.3591   -0.5373 C   0  0  0  0  0  0  0  0  0  0  0  0
    6.6068   -3.0186   -0.5631 C   0  0  0  0  0  0  0  0  0  0  0  0
    6.9759   -1.7132   -0.8560 C   0  0  0  0  0  0  0  0  0  0  0  0
    6.0346   -0.7244   -1.1356 C   0  0  0  0  0  0  0  0  0  0  0  0
    4.6946   -1.0863   -1.0914 C   0  0  0  0  0  0  0  0  0  0  0  0
    6.4206    0.6945   -1.4475 C   0  0  0  0  0  0  0  0  0  0  0  0
    7.0284    2.8214   -0.4977 C   0  0  0  0  0  0  0  0  0  0  0  0
    7.2442    3.5976    0.7743 C   0  0  0  0  0  0  0  0  0  0  0  0
    6.3563    3.4761    1.8425 C   0  0  0  0  0  0  0  0  0  0  0  0
    6.5421    4.2114    3.0043 C   0  0  0  0  0  0  0  0  0  0  0  0
    7.6202    5.0817    3.1181 C   0  0  0  0  0  0  0  0  0  0  0  0
    8.5113    5.2068    2.0618 C   0  0  0  0  0  0  0  0  0  0  0  0
    8.3239    4.4663    0.9006 C   0  0  0  0  0  0  0  0  0  0  0  0
   -3.8328    0.0074   -1.6305 N   0  0  0  0  0  0  0  0  0  0  0  0
   -2.6994   -0.6811   -1.5934 N   0  0  0  0  0  0  0  0  0  0  0  0
   -6.0248   -2.7167    3.7295 N   0  0  0  0  0  0  0  0  0  0  0  0
   -4.2471    4.8216   -0.6107 N   0  0  0  0  0  0  0  0  0  0  0  0
    6.6588    1.4447   -0.2257 N   0  0  0  0  0  0  0  0  0  0  0  0
   -7.8444   -1.5436    1.9275 O   0  0  0  0  0  0  0  0  0  0  0  0
   -6.2914   -4.4625    2.3071 O   0  0  0  0  0  0  0  0  0  0  0  0
   -3.9243    7.1918    0.9385 O   0  0  0  0  0  0  0  0  0  0  0  0
    8.6659   -1.3243   -0.8640 Cl  0  0  0  0  0  0  0  0  0  0  0  0
    1.2597   -5.9962   -0.3386 Cl  0  0  0  0  0  0  0  0  0  0  0  0
   -2.8622    4.0230   -2.0086 H   0  0  0  0  0  0  0  0  0  0  0  0
   -4.5643    3.8334   -2.4046 H   0  0  0  0  0  0  0  0  0  0  0  0
   -4.7259    1.4932   -2.7625 H   0  0  0  0  0  0  0  0  0  0  0  0
   -2.9714    1.4903   -2.7505 H   0  0  0  0  0  0  0  0  0  0  0  0
   -3.0090    2.2236   -0.3461 H   0  0  0  0  0  0  0  0  0  0  0  0
   -4.7673    2.2766   -0.3899 H   0  0  0  0  0  0  0  0  0  0  0  0
   -4.7197   -3.3831    0.7572 H   0  0  0  0  0  0  0  0  0  0  0  0
   -5.4449   -3.7904   -0.7871 H   0  0  0  0  0  0  0  0  0  0  0  0
   -7.1721   -2.1242   -1.6432 H   0  0  0  0  0  0  0  0  0  0  0  0
   -8.1228   -1.2647   -0.4370 H   0  0  0  0  0  0  0  0  0  0  0  0
   -6.4111    0.4613   -0.2012 H   0  0  0  0  0  0  0  0  0  0  0  0
   -6.6473    0.2093   -1.9252 H   0  0  0  0  0  0  0  0  0  0  0  0
   -2.2888    5.1694    0.1375 H   0  0  0  0  0  0  0  0  0  0  0  0
   -3.2227    3.9364    0.9887 H   0  0  0  0  0  0  0  0  0  0  0  0
   -4.7014    5.5764    1.9707 H   0  0  0  0  0  0  0  0  0  0  0  0
   -3.0177    6.0088    2.3112 H   0  0  0  0  0  0  0  0  0  0  0  0
   -4.9047    8.1326   -0.5560 H   0  0  0  0  0  0  0  0  0  0  0  0
   -5.8417    6.8576    0.2423 H   0  0  0  0  0  0  0  0  0  0  0  0
   -3.4873    6.4987   -1.6604 H   0  0  0  0  0  0  0  0  0  0  0  0
   -5.7561    7.1792   -2.5596 H   0  0  0  0  0  0  0  0  0  0  0  0
   -5.1999    5.6526   -3.2056 H   0  0  0  0  0  0  0  0  0  0  0  0
   -6.4223    5.6689   -1.9310 H   0  0  0  0  0  0  0  0  0  0  0  0
   -0.3381   -1.4770   -1.0186 H   0  0  0  0  0  0  0  0  0  0  0  0
   -1.5656   -6.2194   -0.4236 H   0  0  0  0  0  0  0  0  0  0  0  0
   -3.3118   -4.5568   -0.7485 H   0  0  0  0  0  0  0  0  0  0  0  0
    4.9753   -4.3756   -0.3126 H   0  0  0  0  0  0  0  0  0  0  0  0
    7.3610   -3.7656   -0.3571 H   0  0  0  0  0  0  0  0  0  0  0  0
    3.9427   -0.3347   -1.2968 H   0  0  0  0  0  0  0  0  0  0  0  0
    7.2804    0.7058   -2.1318 H   0  0  0  0  0  0  0  0  0  0  0  0
    5.5966    1.1712   -1.9835 H   0  0  0  0  0  0  0  0  0  0  0  0
    6.2115    3.2801   -1.0652 H   0  0  0  0  0  0  0  0  0  0  0  0
    7.9220    2.9071   -1.1339 H   0  0  0  0  0  0  0  0  0  0  0  0
    5.5185    2.7950    1.7639 H   0  0  0  0  0  0  0  0  0  0  0  0
    5.8442    4.1041    3.8250 H   0  0  0  0  0  0  0  0  0  0  0  0
    7.7653    5.6542    4.0253 H   0  0  0  0  0  0  0  0  0  0  0  0
    9.3586    5.8757    2.1417 H   0  0  0  0  0  0  0  0  0  0  0  0
    9.0301    4.5650    0.0843 H   0  0  0  0  0  0  0  0  0  0  0  0
   -5.7130   -3.2900    4.4975 H   0  0  0  0  0  0  0  0  0  0  0  0
   -6.1580   -1.7350    3.9050 H   0  0  0  0  0  0  0  0  0  0  0  0
    7.4097    1.0066    0.2962 H   0  0  0  0  0  0  0  0  0  0  0  0
 36 35  2  0
 36 37  1  0
 35 34  1  0
 37 38  2  0
 34 33  1  0
 34 39  2  0
 38 39  1  0
 44 33  1  0
 44 32  1  0
 32 30  1  0
 30 31  2  0
 30 29  1  0
 31 26  1  0
 48 29  1  0
 49 21  1  0
 29 28  2  0
 26 25  1  0
 26 27  2  0
 25 24  3  0
 28 27  1  0
 21 22  2  0
 21 20  1  0
 24 20  1  0
 22 23  1  0
 20 19  2  0
 23 18  2  0
 19 18  1  0
 18 12  1  0
 14 13  1  0
 14 47  1  0
 12 41  2  0
 12  7  1  0
 13 43  1  0
 41 40  1  0
 42  5  1  0
 47 15  1  0
  9  7  1  0
  9  4  1  0
  7  8  2  0
 43  1  1  0
 43 16  1  0
  1  3  1  0
 40  8  1  0
 40  2  1  0
  5 46  2  0
  5  6  1  0
 15 16  1  0
  8 11  1  0
 16 17  1  0
  3  2  1  0
  4  6  1  0
  4 10  1  0
  6 45  2  0
 10 11  1  0
  1 50  1  0
  1 51  1  0
  2 52  1  0
  2 53  1  0
  3 54  1  0
  3 55  1  0
  9 56  1  0
  9 57  1  0
 10 58  1  0
 10 59  1  0
 11 60  1  0
 11 61  1  0
 13 62  1  0
 13 63  1  0
 14 64  1  0
 14 65  1  0
 15 66  1  0
 15 67  1  0
 16 68  1  6
 17 69  1  0
 17 70  1  0
 17 71  1  0
 19 72  1  0
 22 73  1  0
 23 74  1  0
 27 75  1  0
 28 76  1  0
 31 77  1  0
 32 78  1  0
 32 79  1  0
 33 80  1  0
 33 81  1  0
 35 82  1  0
 36 83  1  0
 37 84  1  0
 38 85  1  0
 39 86  1  0
 42 87  1  0
 42 88  1  0
 44 89  1  0
M  END
