
     RDKit          3D

105109  0  0  0  0  0  0  0  0999 V2000
    6.6341   -0.0548    1.0741 C   0  0  0  0  0  0  0  0  0  0  0  0
   10.4314   -0.5319   -2.0660 C   0  0  0  0  0  0  0  0  0  0  0  0
    3.7312   -2.4827    1.6291 C   0  0  0  0  0  0  0  0  0  0  0  0
    4.2284   -0.0246    0.5058 C   0  0  0  0  0  0  0  0  0  0  0  0
    2.7010   -1.7834    1.0227 C   0  0  0  0  0  0  0  0  0  0  0  0
    2.9307   -0.5384    0.4458 C   0  0  0  0  0  0  0  0  0  0  0  0
    5.0178   -1.9639    1.6733 C   0  0  0  0  0  0  0  0  0  0  0  0
    6.0954   -2.7458    2.3631 C   0  0  1  0  0  0  0  0  0  0  0  0
    8.6356   -0.1254   -0.3271 C   0  0  0  0  0  0  0  0  0  0  0  0
    9.1830   -0.6585   -1.5929 C   0  0  0  0  0  0  0  0  0  0  0  0
    5.2734   -0.7062    1.1088 C   0  0  0  0  0  0  0  0  0  0  0  0
   10.7887   -1.1561   -3.3809 C   0  0  0  0  0  0  0  0  0  0  0  0
   11.5648    0.1927   -1.4117 C   0  0  0  0  0  0  0  0  0  0  0  0
    1.8675    0.2271   -0.2070 C   0  0  0  0  0  0  0  0  0  0  0  0
    0.5851   -0.1788   -0.6427 C   0  0  0  0  0  0  0  0  0  0  0  0
    0.0527    0.9416   -1.2310 C   0  0  0  0  0  0  0  0  0  0  0  0
   -1.2609    0.9909   -1.9183 C   0  0  0  0  0  0  0  0  0  0  0  0
   -1.6137   -0.4473   -2.2863 C   0  0  0  0  0  0  0  0  0  0  0  0
   -0.1489   -1.4782   -0.5752 C   0  0  0  0  0  0  0  0  0  0  0  0
    0.2615    4.1451   -0.3543 C   0  0  0  0  0  0  0  0  0  0  0  0
    0.0950    5.5979   -0.7781 C   0  0  0  0  0  0  0  0  0  0  0  0
    0.1856    6.5960    1.4250 C   0  0  0  0  0  0  0  0  0  0  0  0
   -0.6001    7.4272    2.4214 C   0  0  0  0  0  0  0  0  0  0  0  0
   -1.7334    8.4978    0.7041 C   0  0  0  0  0  0  0  0  0  0  0  0
   -0.9698    7.6958   -0.3316 C   0  0  0  0  0  0  0  0  0  0  0  0
   -3.8522   -1.9819   -1.2910 C   0  0  0  0  0  0  0  0  0  0  0  0
   -4.9442   -2.7823   -0.5920 C   0  0  1  0  0  0  0  0  0  0  0  0
   -5.3477   -2.1760    0.7517 C   0  0  0  0  0  0  0  0  0  0  0  0
   -6.5092   -2.9358    1.3810 C   0  0  0  0  0  0  0  0  0  0  0  0
   -7.3049   -3.6389   -0.8039 C   0  0  0  0  0  0  0  0  0  0  0  0
   -6.1747   -2.8863   -1.4937 C   0  0  0  0  0  0  0  0  0  0  0  0
  -11.0100   -0.4337   -0.0671 C   0  0  0  0  0  0  0  0  0  0  0  0
  -11.8080   -2.6169    0.9218 C   0  0  0  0  0  0  0  0  0  0  0  0
  -11.5916   -2.3539   -1.5472 C   0  0  0  0  0  0  0  0  0  0  0  0
  -11.0124   -1.9523   -0.1954 C   0  0  1  0  0  0  0  0  0  0  0  0
    5.6953   -3.9749    2.7025 F   0  0  0  0  0  0  0  0  0  0  0  0
    7.1884   -2.8962    1.6041 F   0  0  0  0  0  0  0  0  0  0  0  0
    6.4948   -2.1487    3.4988 F   0  0  0  0  0  0  0  0  0  0  0  0
    7.3451   -0.4586   -0.1203 N   0  0  0  0  0  0  0  0  0  0  0  0
    0.9743    1.9184   -1.1249 N   0  0  0  0  0  0  0  0  0  0  0  0
    2.0680    1.5054   -0.5044 N   0  0  0  0  0  0  0  0  0  0  0  0
   -1.4865   -1.3272   -1.1363 N   0  0  0  0  0  0  0  0  0  0  0  0
   -0.5907    6.4042    0.2125 N   0  0  0  0  0  0  0  0  0  0  0  0
   -7.6342   -3.0170    0.4677 N   0  0  0  0  0  0  0  0  0  0  0  0
    9.2490    0.5574    0.4881 O   0  0  0  0  0  0  0  0  0  0  0  0
   -0.9790    8.6741    1.8829 O   0  0  0  0  0  0  0  0  0  0  0  0
   -2.2643   -2.9371    0.2251 O   0  0  0  0  0  0  0  0  0  0  0  0
   -9.0089   -1.7844    1.7873 O   0  0  0  0  0  0  0  0  0  0  0  0
   -9.6620   -2.4773   -0.2589 O   0  0  0  0  0  0  0  0  0  0  0  0
    6.4972    1.0296    1.0827 H   0  0  0  0  0  0  0  0  0  0  0  0
    7.2266   -0.2875    1.9586 H   0  0  0  0  0  0  0  0  0  0  0  0
    3.5046   -3.4431    2.0696 H   0  0  0  0  0  0  0  0  0  0  0  0
    4.4339    0.9417    0.0630 H   0  0  0  0  0  0  0  0  0  0  0  0
    1.7153   -2.2239    1.0311 H   0  0  0  0  0  0  0  0  0  0  0  0
    8.4805   -1.2239   -2.1972 H   0  0  0  0  0  0  0  0  0  0  0  0
   11.5758   -1.9011   -3.2442 H   0  0  0  0  0  0  0  0  0  0  0  0
    9.9402   -1.6384   -3.8630 H   0  0  0  0  0  0  0  0  0  0  0  0
   11.1922   -0.4036   -4.0623 H   0  0  0  0  0  0  0  0  0  0  0  0
   11.8555    1.0474   -2.0283 H   0  0  0  0  0  0  0  0  0  0  0  0
   11.3357    0.5504   -0.4157 H   0  0  0  0  0  0  0  0  0  0  0  0
   12.4396   -0.4597   -1.3645 H   0  0  0  0  0  0  0  0  0  0  0  0
   -2.0349    1.4207   -1.2763 H   0  0  0  0  0  0  0  0  0  0  0  0
   -1.2227    1.5989   -2.8247 H   0  0  0  0  0  0  0  0  0  0  0  0
   -2.6202   -0.4891   -2.6875 H   0  0  0  0  0  0  0  0  0  0  0  0
   -0.9438   -0.7939   -3.0792 H   0  0  0  0  0  0  0  0  0  0  0  0
    0.4018   -2.2679   -1.1013 H   0  0  0  0  0  0  0  0  0  0  0  0
   -0.2596   -1.8070    0.4569 H   0  0  0  0  0  0  0  0  0  0  0  0
    0.1671    3.3515   -2.3663 H   0  0  0  0  0  0  0  0  0  0  0  0
    1.8018    3.6748   -1.8071 H   0  0  0  0  0  0  0  0  0  0  0  0
   -0.7096    3.7465   -0.0477 H   0  0  0  0  0  0  0  0  0  0  0  0
    1.0806    6.0230   -1.0362 H   0  0  0  0  0  0  0  0  0  0  0  0
    1.1541    7.0826    1.2133 H   0  0  0  0  0  0  0  0  0  0  0  0
    0.4065    5.6326    1.8886 H   0  0  0  0  0  0  0  0  0  0  0  0
   -1.4878    6.8619    2.7395 H   0  0  0  0  0  0  0  0  0  0  0  0
    0.0074    7.6230    3.3062 H   0  0  0  0  0  0  0  0  0  0  0  0
   -1.9687    9.4888    0.3132 H   0  0  0  0  0  0  0  0  0  0  0  0
   -2.6814    7.9887    0.9290 H   0  0  0  0  0  0  0  0  0  0  0  0
   -1.6107    7.5477   -1.2045 H   0  0  0  0  0  0  0  0  0  0  0  0
   -0.0908    8.2726   -0.6689 H   0  0  0  0  0  0  0  0  0  0  0  0
   -4.1467   -0.9288   -1.3336 H   0  0  0  0  0  0  0  0  0  0  0  0
   -3.7766   -2.3129   -2.3332 H   0  0  0  0  0  0  0  0  0  0  0  0
   -4.5751   -3.7989   -0.4137 H   0  0  0  0  0  0  0  0  0  0  0  0
   -4.5065   -2.1836    1.4462 H   0  0  0  0  0  0  0  0  0  0  0  0
   -5.6391   -1.1297    0.6084 H   0  0  0  0  0  0  0  0  0  0  0  0
   -6.1903   -3.9540    1.6290 H   0  0  0  0  0  0  0  0  0  0  0  0
   -6.8225   -2.4632    2.3076 H   0  0  0  0  0  0  0  0  0  0  0  0
   -8.1803   -3.6911   -1.4425 H   0  0  0  0  0  0  0  0  0  0  0  0
   -6.9879   -4.6693   -0.6084 H   0  0  0  0  0  0  0  0  0  0  0  0
   -6.5236   -1.8858   -1.7715 H   0  0  0  0  0  0  0  0  0  0  0  0
   -5.9180   -3.4031   -2.4223 H   0  0  0  0  0  0  0  0  0  0  0  0
  -10.6758   -0.0994    0.9120 H   0  0  0  0  0  0  0  0  0  0  0  0
  -10.3747    0.0199   -0.8297 H   0  0  0  0  0  0  0  0  0  0  0  0
  -12.0237   -0.0605   -0.2197 H   0  0  0  0  0  0  0  0  0  0  0  0
  -12.8613   -2.3549    0.8157 H   0  0  0  0  0  0  0  0  0  0  0  0
  -11.7331   -3.7039    0.8595 H   0  0  0  0  0  0  0  0  0  0  0  0
  -11.4840   -2.2999    1.9101 H   0  0  0  0  0  0  0  0  0  0  0  0
  -11.0396   -1.8942   -2.3684 H   0  0  0  0  0  0  0  0  0  0  0  0
  -11.5697   -3.4366   -1.6806 H   0  0  0  0  0  0  0  0  0  0  0  0
  -12.6295   -2.0299   -1.6191 H   0  0  0  0  0  0  0  0  0  0  0  0
    6.8602   -1.0239   -0.7978 H   0  0  0  0  0  0  0  0  0  0  0  0
    0.9348    4.0585    0.5011 H   0  0  0  0  0  0  0  0  0  0  0  0
   -0.5028    5.6256   -1.6943 H   0  0  0  0  0  0  0  0  0  0  0  0
    0.8236    3.3085   -1.4962 C   0  0  0  0  0  0  0  0  0  0  0  0
   -2.4775   -2.1232   -0.6637 C   0  0  0  0  0  0  0  0  0  0  0  0
   -8.7921   -2.3736    0.7436 C   0  0  0  0  0  0  0  0  0  0  0  0
 48105  2  0
 29 28  1  0
 29 44  1  0
 28 27  1  0
105 44  1  0
105 49  1  0
 44 30  1  0
 32 35  1  0
 33 35  1  0
 27 26  1  0
 27 31  1  0
 26104  1  0
 35 49  1  6
 35 34  1  0
 30 31  1  0
104 47  2  0
104 42  1  0
 18 42  1  0
 18 17  1  0
 42 19  1  0
 17 16  1  0
 16 40  1  0
 16 15  2  0
103 40  1  0
103 20  1  0
 19 15  1  0
 40 41  1  0
 15 14  1  0
 41 14  2  0
 14  6  1  0
 20 21  1  0
 21 43  1  0
  5  6  1  0
  5  3  2  0
  6  4  2  0
 25 43  1  0
 25 24  1  0
  3  7  1  0
  4 11  1  0
 43 22  1  0
  7 11  2  0
  7  8  1  0
 11  1  1  0
 22 23  1  0
 24 46  1  0
  8 38  1  1
 37  8  1  0
  8 36  1  0
  1 39  1  0
 45  9  2  0
 46 23  1  0
 39  9  1  0
  9 10  1  0
 10  2  2  0
  2 13  1  0
  2 12  1  0
  1 50  1  0
  1 51  1  0
  3 52  1  0
  4 53  1  0
  5 54  1  0
 10 55  1  0
 12 56  1  0
 12 57  1  0
 12 58  1  0
 13 59  1  0
 13 60  1  0
 13 61  1  0
 17 62  1  0
 17 63  1  0
 18 64  1  0
 18 65  1  0
 19 66  1  0
 19 67  1  0
103 68  1  0
103 69  1  0
 20 70  1  0
 21 71  1  0
 22 72  1  0
 22 73  1  0
 23 74  1  0
 23 75  1  0
 24 76  1  0
 24 77  1  0
 25 78  1  0
 25 79  1  0
 26 80  1  0
 26 81  1  0
 27 82  1  1
 28 83  1  0
 28 84  1  0
 29 85  1  0
 29 86  1  0
 30 87  1  0
 30 88  1  0
 31 89  1  0
 31 90  1  0
 32 91  1  0
 32 92  1  0
 32 93  1  0
 33 94  1  0
 33 95  1  0
 33 96  1  0
 34 97  1  0
 34 98  1  0
 34 99  1  0
 39100  1  0
 20101  1  0
 21102  1  0
M  END
