
     RDKit          3D

 20 20  0  0  0  0  0  0  0  0999 V2000
    0.1599   -1.0087    0.1035 C   0  0  0  0  0  0  0  0  0  0  0  0
    1.5360    1.4223    0.0132 C   0  0  0  0  0  0  0  0  0  0  0  0
    2.2545    0.2043    0.0389 C   0  0  0  0  0  0  0  0  0  0  0  0
    1.5464   -1.0007    0.0841 C   0  0  0  0  0  0  0  0  0  0  0  0
    0.1672    1.4045    0.0275 C   0  0  0  0  0  0  0  0  0  0  0  0
   -0.5697    0.2078    0.0716 C   0  0  0  0  0  0  0  0  0  0  0  0
   -2.0196    0.1893    0.0768 C   0  0  0  0  0  0  0  0  0  0  0  0
   -2.6422   -0.8780    0.1250 O   0  0  0  0  0  0  0  0  0  0  0  0
   -2.7760    1.4868    0.0194 C   0  0  0  0  0  0  0  0  0  0  0  0
   -0.4592   -2.1861    0.1470 O   0  0  0  0  0  0  0  0  0  0  0  0
    3.6075    0.2130    0.0532 N   0  0  0  0  0  0  0  0  0  0  0  0
    2.0723    2.3619   -0.0231 H   0  0  0  0  0  0  0  0  0  0  0  0
    2.0810   -1.9433    0.1024 H   0  0  0  0  0  0  0  0  0  0  0  0
   -0.3591    2.3502    0.0020 H   0  0  0  0  0  0  0  0  0  0  0  0
   -2.5138    2.0534   -0.8747 H   0  0  0  0  0  0  0  0  0  0  0  0
   -3.8468    1.2977    0.0122 H   0  0  0  0  0  0  0  0  0  0  0  0
   -2.5369    2.1163    0.8776 H   0  0  0  0  0  0  0  0  0  0  0  0
   -1.4298   -1.9976    0.1524 H   0  0  0  0  0  0  0  0  0  0  0  0
    4.0912    1.0566   -0.2035 H   0  0  0  0  0  0  0  0  0  0  0  0
    4.1034   -0.6384   -0.1495 H   0  0  0  0  0  0  0  0  0  0  0  0
  2  5  2  0
  2  3  1  0
  5  6  1  0
  9  7  1  0
 11  3  1  0
  3  4  2  0
  6  7  1  0
  6  1  2  0
  7  8  2  0
  4  1  1  0
  1 10  1  0
  2 12  1  0
  4 13  1  0
  5 14  1  0
  9 15  1  0
  9 16  1  0
  9 17  1  0
 10 18  1  0
 11 19  1  0
 11 20  1  0
M  END
