
     RDKit          3D

 40 42  0  0  0  0  0  0  0  0999 V2000
    7.4151   -1.3163    1.1987 F   0  0  0  0  0  0  0  0  0  0  0  0
    6.9136   -0.7264    0.1070 C   0  0  1  0  0  0  0  0  0  0  0  0
    7.3446    0.5451    0.1269 F   0  0  0  0  0  0  0  0  0  0  0  0
    7.4870   -1.3092   -0.9513 F   0  0  0  0  0  0  0  0  0  0  0  0
    5.4202   -0.8014    0.0596 C   0  0  0  0  0  0  0  0  0  0  0  0
    4.6891   -0.7466    1.2415 C   0  0  0  0  0  0  0  0  0  0  0  0
    3.3057   -0.7777    1.1961 C   0  0  0  0  0  0  0  0  0  0  0  0
    2.6355   -0.8650   -0.0204 C   0  0  0  0  0  0  0  0  0  0  0  0
    3.3764   -0.9124   -1.1952 C   0  0  0  0  0  0  0  0  0  0  0  0
    4.7620   -0.8813   -1.1612 C   0  0  0  0  0  0  0  0  0  0  0  0
    1.1335   -0.8660   -0.0617 C   0  0  0  0  0  0  0  0  0  0  0  0
    0.6583    0.5030   -0.0518 N   0  0  0  0  0  0  0  0  0  0  0  0
   -0.6430    0.8062   -0.0368 C   0  0  0  0  0  0  0  0  0  0  0  0
   -1.5118   -0.1839   -0.0202 N   0  0  0  0  0  0  0  0  0  0  0  0
   -2.8210    0.1093    0.0002 C   0  0  0  0  0  0  0  0  0  0  0  0
   -3.7723   -0.9359    0.0220 C   0  0  0  0  0  0  0  0  0  0  0  0
   -5.1069   -0.6345    0.0436 C   0  0  0  0  0  0  0  0  0  0  0  0
   -6.1416   -1.7177    0.0709 C   0  0  1  0  0  0  0  0  0  0  0  0
   -6.9117   -1.6244    1.1638 F   0  0  0  0  0  0  0  0  0  0  0  0
   -6.9621   -1.6330   -0.9850 F   0  0  0  0  0  0  0  0  0  0  0  0
   -5.6162   -2.9436    0.0635 F   0  0  0  0  0  0  0  0  0  0  0  0
   -5.5621    0.7054    0.0436 C   0  0  0  0  0  0  0  0  0  0  0  0
   -4.6576    1.7276    0.0220 C   0  0  0  0  0  0  0  0  0  0  0  0
   -3.2766    1.4449    0.0006 C   0  0  0  0  0  0  0  0  0  0  0  0
   -2.3834    2.4544   -0.0189 N   0  0  0  0  0  0  0  0  0  0  0  0
   -1.1169    2.1796   -0.0365 C   0  0  0  0  0  0  0  0  0  0  0  0
   -0.1763    3.3377   -0.0574 C   0  0  0  0  0  0  0  0  0  0  0  0
    1.0283    3.2188   -0.0853 O   0  0  0  0  0  0  0  0  0  0  0  0
   -0.7956    4.4975   -0.0422 O   0  0  0  0  0  0  0  0  0  0  0  0
    5.1847   -0.6841    2.2014 H   0  0  0  0  0  0  0  0  0  0  0  0
    2.7414   -0.7410    2.1199 H   0  0  0  0  0  0  0  0  0  0  0  0
    2.8694   -0.9833   -2.1495 H   0  0  0  0  0  0  0  0  0  0  0  0
    5.3133   -0.9244   -2.0909 H   0  0  0  0  0  0  0  0  0  0  0  0
    0.7775   -1.3838   -0.9563 H   0  0  0  0  0  0  0  0  0  0  0  0
    0.7305   -1.4063    0.7984 H   0  0  0  0  0  0  0  0  0  0  0  0
    1.3227    1.2598   -0.0843 H   0  0  0  0  0  0  0  0  0  0  0  0
   -3.4079   -1.9544    0.0214 H   0  0  0  0  0  0  0  0  0  0  0  0
   -6.6211    0.9254    0.0610 H   0  0  0  0  0  0  0  0  0  0  0  0
   -4.9805    2.7605    0.0222 H   0  0  0  0  0  0  0  0  0  0  0  0
   -0.1457    5.2166   -0.0601 H   0  0  0  0  0  0  0  0  0  0  0  0
 28 27  2  0
 29 27  1  0
 27 26  1  0
  2  4  1  6
 26 25  2  0
 26 13  1  0
 25 24  1  0
  6  7  1  0
  6  5  2  0
  7  8  2  0
 12 13  1  0
 12 11  1  0
 13 14  2  0
  2  5  1  0
  2  3  1  0
  2  1  1  0
  5 10  1  0
 24 23  1  0
 24 15  2  0
 23 22  2  0
  8 11  1  0
  8  9  1  0
 14 15  1  0
 15 16  1  0
 10  9  2  0
 22 17  1  0
 16 17  2  0
 17 18  1  0
 18 21  1  1
 18 19  1  0
 18 20  1  0
  6 30  1  0
  7 31  1  0
  9 32  1  0
 10 33  1  0
 11 34  1  0
 11 35  1  0
 12 36  1  0
 16 37  1  0
 22 38  1  0
 23 39  1  0
 29 40  1  0
M  END
