
     RDKit          3D

 50 53  0  0  0  0  0  0  0  0999 V2000
    1.5945    0.3823    1.1593 C   0  0  0  0  0  0  0  0  0  0  0  0
    2.7803    0.9161    0.6821 C   0  0  0  0  0  0  0  0  0  0  0  0
    3.7503    0.0611    0.1788 C   0  0  0  0  0  0  0  0  0  0  0  0
    5.2749    0.7353   -0.4355 S   0  0  1  0  0  0  0  0  0  0  0  0
    5.8042   -0.1943   -1.4183 O   0  0  0  0  0  0  0  0  0  0  0  0
    5.0307    2.1214   -0.7933 O   0  0  0  0  0  0  0  0  0  0  0  0
    6.3428    0.7542    0.8100 N   0  0  0  0  0  0  0  0  0  0  0  0
    3.5584   -1.3137    0.1573 C   0  0  0  0  0  0  0  0  0  0  0  0
    2.3781   -1.8387    0.6568 C   0  0  0  0  0  0  0  0  0  0  0  0
    1.3858   -0.9932    1.1407 C   0  0  0  0  0  0  0  0  0  0  0  0
    0.1493   -1.5831    1.7516 C   0  0  0  0  0  0  0  0  0  0  0  0
    0.2671   -2.2782    2.7498 O   0  0  0  0  0  0  0  0  0  0  0  0
   -1.0348   -1.2960    1.1791 N   0  0  0  0  0  0  0  0  0  0  0  0
   -2.2866   -1.6395    1.8323 C   0  0  0  0  0  0  0  0  0  0  0  0
   -2.9741   -0.3596    2.2782 C   0  0  0  0  0  0  0  0  0  0  0  0
   -2.9813    0.6763    1.1852 C   0  0  0  0  0  0  0  0  0  0  0  0
   -3.8296    1.7810    1.2792 C   0  0  0  0  0  0  0  0  0  0  0  0
   -3.8467    2.7604    0.3055 C   0  0  0  0  0  0  0  0  0  0  0  0
   -4.6507    3.8471    0.3344 O   0  0  0  0  0  0  0  0  0  0  0  0
   -2.9886    2.6567   -0.8002 C   0  0  0  0  0  0  0  0  0  0  0  0
   -2.9665    3.5956   -1.7699 O   0  0  0  0  0  0  0  0  0  0  0  0
   -2.1481    1.5654   -0.8941 C   0  0  0  0  0  0  0  0  0  0  0  0
   -2.1378    0.5741    0.0869 C   0  0  0  0  0  0  0  0  0  0  0  0
   -1.2142   -0.6069   -0.0925 C   0  0  2  0  0  0  0  0  0  0  0  0
   -1.6784   -1.5976   -1.1524 C   0  0  0  0  0  0  0  0  0  0  0  0
   -2.9842   -1.6352   -1.6261 C   0  0  0  0  0  0  0  0  0  0  0  0
   -3.3667   -2.5835   -2.5683 C   0  0  0  0  0  0  0  0  0  0  0  0
   -2.4449   -3.5008   -3.0498 C   0  0  0  0  0  0  0  0  0  0  0  0
   -1.1350   -3.4661   -2.5854 C   0  0  0  0  0  0  0  0  0  0  0  0
   -0.7582   -2.5217   -1.6436 C   0  0  0  0  0  0  0  0  0  0  0  0
    0.8302    1.0464    1.5439 H   0  0  0  0  0  0  0  0  0  0  0  0
    2.9313    1.9867    0.6991 H   0  0  0  0  0  0  0  0  0  0  0  0
    6.6152   -0.1666    1.1344 H   0  0  0  0  0  0  0  0  0  0  0  0
    6.0666    1.3518    1.5809 H   0  0  0  0  0  0  0  0  0  0  0  0
    4.3134   -1.9776   -0.2414 H   0  0  0  0  0  0  0  0  0  0  0  0
    2.2295   -2.9108    0.6515 H   0  0  0  0  0  0  0  0  0  0  0  0
   -2.9164   -2.1860    1.1260 H   0  0  0  0  0  0  0  0  0  0  0  0
   -2.0939   -2.2992    2.6729 H   0  0  0  0  0  0  0  0  0  0  0  0
   -3.9952   -0.5876    2.5916 H   0  0  0  0  0  0  0  0  0  0  0  0
   -2.4607    0.0382    3.1590 H   0  0  0  0  0  0  0  0  0  0  0  0
   -4.4955    1.8684    2.1320 H   0  0  0  0  0  0  0  0  0  0  0  0
   -5.1864    3.8574    1.1352 H   0  0  0  0  0  0  0  0  0  0  0  0
   -3.5748    4.3131   -1.5582 H   0  0  0  0  0  0  0  0  0  0  0  0
   -1.4858    1.4900   -1.7498 H   0  0  0  0  0  0  0  0  0  0  0  0
   -0.2459   -0.2302   -0.4221 H   0  0  0  0  0  0  0  0  0  0  0  0
   -3.7131   -0.9215   -1.2634 H   0  0  0  0  0  0  0  0  0  0  0  0
   -4.3884   -2.6016   -2.9249 H   0  0  0  0  0  0  0  0  0  0  0  0
   -2.7416   -4.2378   -3.7849 H   0  0  0  0  0  0  0  0  0  0  0  0
   -0.4067   -4.1735   -2.9601 H   0  0  0  0  0  0  0  0  0  0  0  0
    0.2672   -2.5042   -1.2913 H   0  0  0  0  0  0  0  0  0  0  0  0
 21 20  1  0
 19 18  1  0
 20 18  2  0
 20 22  1  0
 18 17  1  0
 22 23  2  0
 17 16  2  0
 23 16  1  0
 23 24  1  0
 16 15  1  0
 24 13  1  0
 24 25  1  0
 15 14  1  0
 26 25  2  0
 26 27  1  0
 12 11  2  0
 13 11  1  0
 13 14  1  0
 25 30  1  0
 11 10  1  0
 27 28  2  0
  1 10  2  0
  1  2  1  0
 10  9  1  0
 30 29  2  0
  2  3  2  0
 28 29  1  0
  9  8  2  0
  3  8  1  0
  3  4  1  0
  4  7  1  1
  5  4  2  0
  4  6  2  0
  1 31  1  0
  2 32  1  0
  7 33  1  0
  7 34  1  0
  8 35  1  0
  9 36  1  0
 14 37  1  0
 14 38  1  0
 15 39  1  0
 15 40  1  0
 17 41  1  0
 19 42  1  0
 21 43  1  0
 22 44  1  0
 24 45  1  6
 26 46  1  0
 27 47  1  0
 28 48  1  0
 29 49  1  0
 30 50  1  0
M  END
