
     RDKit          3D

 46 47  0  0  0  0  0  0  0  0999 V2000
   -0.6371   -1.9126    0.2623 C   0  0  0  0  0  0  0  0  0  0  0  0
    0.5133    0.2289    0.0744 N   0  0  0  0  0  0  0  0  0  0  0  0
    0.2763   -2.4709   -0.2818 O   0  0  0  0  0  0  0  0  0  0  0  0
   -0.6095   -0.4467    0.6571 C   0  0  1  0  0  0  0  0  0  0  0  0
   -1.9183    0.2585    0.3044 C   0  0  2  0  0  0  0  0  0  0  0  0
   -4.0165    2.3972    0.4078 O   0  0  0  0  0  0  0  0  0  0  0  0
    6.4672   -1.2804    0.0574 C   0  0  0  0  0  0  0  0  0  0  0  0
    5.7006   -1.2788   -1.0987 C   0  0  0  0  0  0  0  0  0  0  0  0
    6.0538   -0.5387    1.1576 C   0  0  0  0  0  0  0  0  0  0  0  0
    4.5266   -0.5382   -1.1527 C   0  0  0  0  0  0  0  0  0  0  0  0
    4.8792    0.1967    1.1042 C   0  0  0  0  0  0  0  0  0  0  0  0
   -2.9919   -0.0980    1.1898 N   0  0  0  0  0  0  0  0  0  0  0  0
   -2.4700   -0.1542   -1.4268 S   0  0  0  0  0  0  0  0  0  0  0  0
   -4.7421    1.4423    0.5158 C   0  0  0  0  0  0  0  0  0  0  0  0
    2.9298    2.3998    0.3657 C   0  0  0  0  0  0  0  0  0  0  0  0
    1.7135    0.2738    0.6798 C   0  0  0  0  0  0  0  0  0  0  0  0
    4.1063    0.2037   -0.0548 C   0  0  0  0  0  0  0  0  0  0  0  0
   -4.2746   -0.0012    0.5346 C   0  0  1  0  0  0  0  0  0  0  0  0
    2.8082    0.9683   -0.1256 C   0  0  2  0  0  0  0  0  0  0  0  0
   -4.1717   -0.6073   -0.9021 C   0  0  2  0  0  0  0  0  0  0  0  0
   -1.5504   -2.4590    0.5533 H   0  0  0  0  0  0  0  0  0  0  0  0
    0.4459    0.5162   -0.8903 H   0  0  0  0  0  0  0  0  0  0  0  0
   -0.5033   -0.4147    1.7482 H   0  0  0  0  0  0  0  0  0  0  0  0
   -1.7427    1.3319    0.3339 H   0  0  0  0  0  0  0  0  0  0  0  0
   -6.3389    2.4565    0.5733 H   0  0  0  0  0  0  0  0  0  0  0  0
    3.9963    3.9384    0.1059 H   0  0  0  0  0  0  0  0  0  0  0  0
    7.3835   -1.8546    0.1027 H   0  0  0  0  0  0  0  0  0  0  0  0
    6.0139   -1.8529   -1.9610 H   0  0  0  0  0  0  0  0  0  0  0  0
    6.6486   -0.5346    2.0618 H   0  0  0  0  0  0  0  0  0  0  0  0
    3.9333   -0.5384   -2.0593 H   0  0  0  0  0  0  0  0  0  0  0  0
    4.5739    0.7676    1.9723 H   0  0  0  0  0  0  0  0  0  0  0  0
   -2.8776   -1.0246    1.5791 H   0  0  0  0  0  0  0  0  0  0  0  0
   -4.9989   -0.5866    1.1051 H   0  0  0  0  0  0  0  0  0  0  0  0
    2.5109    1.0378   -1.1780 H   0  0  0  0  0  0  0  0  0  0  0  0
   -4.3171   -2.1235   -0.8146 C   0  0  0  0  0  0  0  0  0  0  0  0
   -5.1729   -0.0525   -1.9087 C   0  0  0  0  0  0  0  0  0  0  0  0
    2.1721    2.9141    1.1462 O   0  0  0  0  0  0  0  0  0  0  0  0
    1.9222   -0.1738    1.7904 O   0  0  0  0  0  0  0  0  0  0  0  0
   -6.0590    1.5295    0.6287 O   0  0  0  0  0  0  0  0  0  0  0  0
    3.9516    3.0190   -0.1990 O   0  0  0  0  0  0  0  0  0  0  0  0
   -4.0664   -2.5929   -1.7653 H   0  0  0  0  0  0  0  0  0  0  0  0
   -3.6720   -2.5580   -0.0508 H   0  0  0  0  0  0  0  0  0  0  0  0
   -5.3476   -2.3870   -0.5667 H   0  0  0  0  0  0  0  0  0  0  0  0
   -6.1937   -0.2654   -1.5880 H   0  0  0  0  0  0  0  0  0  0  0  0
   -5.0682    1.0222   -2.0551 H   0  0  0  0  0  0  0  0  0  0  0  0
   -5.0310   -0.5289   -2.8789 H   0  0  0  0  0  0  0  0  0  0  0  0
  1  3  2  0
  1  4  1  0
  2  4  1  0
  2 16  1  0
  4  5  1  0
  5 12  1  0
  5 13  1  0
 20 35  1  1
 36 20  1  0
  6 14  2  0
 37 15  2  0
 38 16  2  0
 39 14  1  0
 40 15  1  0
  7  8  2  0
  7  9  1  0
  8 10  1  0
  9 11  2  0
 10 17  2  0
 11 17  1  0
 12 18  1  0
 13 20  1  0
 14 18  1  0
 15 19  1  0
 16 19  1  0
 17 19  1  0
 18 20  1  0
  1 21  1  0
  2 22  1  0
  4 23  1  1
  5 24  1  6
 35 41  1  0
 35 42  1  0
 35 43  1  0
 36 44  1  0
 36 45  1  0
 36 46  1  0
 39 25  1  0
 40 26  1  0
  7 27  1  0
  8 28  1  0
  9 29  1  0
 10 30  1  0
 11 31  1  0
 12 32  1  0
 18 33  1  1
 19 34  1  6
M  END
