
     RDKit          3D

 83 84  0  0  0  0  0  0  0  0999 V2000
    4.3324   -1.7897    0.1973 C   0  0  1  0  0  0  0  0  0  0  0  0
    5.3500   -2.7655   -0.3769 C   0  0  1  0  0  0  0  0  0  0  0  0
    5.2361   -2.7670   -1.7794 O   0  0  0  0  0  0  0  0  0  0  0  0
    6.7624   -2.3545    0.0547 C   0  0  2  0  0  0  0  0  0  0  0  0
    6.8931   -2.6521    1.4245 O   0  0  0  0  0  0  0  0  0  0  0  0
    6.9904   -0.8790   -0.2604 C   0  0  2  0  0  0  0  0  0  0  0  0
    8.2579   -0.5328    0.2490 O   0  0  0  0  0  0  0  0  0  0  0  0
    5.8698    0.0336    0.2696 C   0  0  1  0  0  0  0  0  0  0  0  0
    4.6211   -0.4604   -0.1816 O   0  0  0  0  0  0  0  0  0  0  0  0
    5.8817    0.3135    1.7668 C   0  0  0  0  0  0  0  0  0  0  0  0
    2.9100   -2.0743   -0.2612 C   0  0  0  0  0  0  0  0  0  0  0  0
    1.9438   -1.1884    0.4915 C   0  0  0  0  0  0  0  0  0  0  0  0
    1.7457   -1.3215    1.6927 O   0  0  0  0  0  0  0  0  0  0  0  0
    1.3369   -0.2369   -0.2311 N   0  0  0  0  0  0  0  0  0  0  0  0
    0.3977    0.6805    0.3536 C   0  0  2  0  0  0  0  0  0  0  0  0
   -0.9333   -0.0245    0.6125 C   0  0  0  0  0  0  0  0  0  0  0  0
   -1.3040   -0.9521   -0.0924 O   0  0  0  0  0  0  0  0  0  0  0  0
    0.1723    1.8722   -0.5817 C   0  0  0  0  0  0  0  0  0  0  0  0
    1.4279    2.7098   -0.7911 C   0  0  0  0  0  0  0  0  0  0  0  0
    1.1635    3.9504   -1.6346 C   0  0  0  0  0  0  0  0  0  0  0  0
    2.4316    4.7395   -1.9192 C   0  0  0  0  0  0  0  0  0  0  0  0
    2.1403    5.9423   -2.6872 N   0  0  0  0  0  0  0  0  0  0  0  0
   -1.6918    0.4501    1.6121 N   0  0  0  0  0  0  0  0  0  0  0  0
   -3.0259   -0.0761    1.8019 C   0  0  2  0  0  0  0  0  0  0  0  0
   -3.9032    0.2464    0.5987 C   0  0  0  0  0  0  0  0  0  0  0  0
   -3.7205    1.2251   -0.1055 O   0  0  0  0  0  0  0  0  0  0  0  0
   -3.5314    0.6570    3.0542 C   0  0  0  0  0  0  0  0  0  0  0  0
   -2.7517    1.9668    3.0438 C   0  0  0  0  0  0  0  0  0  0  0  0
   -1.3847    1.5580    2.5124 C   0  0  0  0  0  0  0  0  0  0  0  0
   -4.9229   -0.6065    0.4143 N   0  0  0  0  0  0  0  0  0  0  0  0
   -5.9635   -0.3454   -0.5415 C   0  0  2  0  0  0  0  0  0  0  0  0
   -6.7228    0.9301   -0.1650 C   0  0  0  0  0  0  0  0  0  0  0  0
   -6.8724    1.2679    0.9977 O   0  0  0  0  0  0  0  0  0  0  0  0
   -6.9465   -1.5180   -0.5888 C   0  0  0  0  0  0  0  0  0  0  0  0
   -6.3171   -2.8785   -0.9036 C   0  0  1  0  0  0  0  0  0  0  0  0
   -7.4058   -3.9466   -0.9235 C   0  0  0  0  0  0  0  0  0  0  0  0
   -5.5388   -2.8696   -2.2140 C   0  0  0  0  0  0  0  0  0  0  0  0
   -7.2460    1.5897   -1.2060 N   0  0  0  0  0  0  0  0  0  0  0  0
    4.3645   -1.9040    1.2882 H   0  0  0  0  0  0  0  0  0  0  0  0
    5.1356   -3.7598    0.0413 H   0  0  0  0  0  0  0  0  0  0  0  0
    5.7970   -3.4666   -2.1287 H   0  0  0  0  0  0  0  0  0  0  0  0
    7.4901   -2.9407   -0.5300 H   0  0  0  0  0  0  0  0  0  0  0  0
    7.6921   -2.2250    1.7512 H   0  0  0  0  0  0  0  0  0  0  0  0
    6.9762   -0.7913   -1.3554 H   0  0  0  0  0  0  0  0  0  0  0  0
    8.4463    0.3835    0.0222 H   0  0  0  0  0  0  0  0  0  0  0  0
    5.9809    0.9998   -0.2357 H   0  0  0  0  0  0  0  0  0  0  0  0
    6.8253    0.7725    2.0610 H   0  0  0  0  0  0  0  0  0  0  0  0
    5.0875    1.0206    2.0088 H   0  0  0  0  0  0  0  0  0  0  0  0
    5.7448   -0.5759    2.3779 H   0  0  0  0  0  0  0  0  0  0  0  0
    2.8253   -1.9430   -1.3406 H   0  0  0  0  0  0  0  0  0  0  0  0
    2.6633   -3.1139   -0.0346 H   0  0  0  0  0  0  0  0  0  0  0  0
    1.4953   -0.1989   -1.2246 H   0  0  0  0  0  0  0  0  0  0  0  0
    0.8163    1.0444    1.2959 H   0  0  0  0  0  0  0  0  0  0  0  0
   -0.2053    1.5090   -1.5429 H   0  0  0  0  0  0  0  0  0  0  0  0
   -0.6204    2.4976   -0.1640 H   0  0  0  0  0  0  0  0  0  0  0  0
    1.8290    3.0090    0.1826 H   0  0  0  0  0  0  0  0  0  0  0  0
    2.2052    2.1052   -1.2676 H   0  0  0  0  0  0  0  0  0  0  0  0
    0.7019    3.6542   -2.5834 H   0  0  0  0  0  0  0  0  0  0  0  0
    0.4434    4.5990   -1.1263 H   0  0  0  0  0  0  0  0  0  0  0  0
    2.8842    5.0431   -0.9708 H   0  0  0  0  0  0  0  0  0  0  0  0
    3.1589    4.0736   -2.4073 H   0  0  0  0  0  0  0  0  0  0  0  0
    3.0017    6.4434   -2.8643 H   0  0  0  0  0  0  0  0  0  0  0  0
    1.7912    5.6773   -3.6005 H   0  0  0  0  0  0  0  0  0  0  0  0
   -3.0036   -1.1572    1.9623 H   0  0  0  0  0  0  0  0  0  0  0  0
   -4.6124    0.7951    3.0440 H   0  0  0  0  0  0  0  0  0  0  0  0
   -3.2818    0.0691    3.9388 H   0  0  0  0  0  0  0  0  0  0  0  0
   -3.2167    2.6866    2.3693 H   0  0  0  0  0  0  0  0  0  0  0  0
   -2.6848    2.4273    4.0284 H   0  0  0  0  0  0  0  0  0  0  0  0
   -0.7289    1.2243    3.3214 H   0  0  0  0  0  0  0  0  0  0  0  0
   -0.8903    2.3787    1.9957 H   0  0  0  0  0  0  0  0  0  0  0  0
   -5.0560   -1.3519    1.0790 H   0  0  0  0  0  0  0  0  0  0  0  0
   -5.5156   -0.2128   -1.5307 H   0  0  0  0  0  0  0  0  0  0  0  0
   -7.4723   -1.5767    0.3701 H   0  0  0  0  0  0  0  0  0  0  0  0
   -7.7047   -1.2959   -1.3454 H   0  0  0  0  0  0  0  0  0  0  0  0
   -5.6187   -3.1365   -0.0999 H   0  0  0  0  0  0  0  0  0  0  0  0
   -8.1183   -3.7652   -1.7313 H   0  0  0  0  0  0  0  0  0  0  0  0
   -6.9785   -4.9387   -1.0753 H   0  0  0  0  0  0  0  0  0  0  0  0
   -7.9638   -3.9656    0.0143 H   0  0  0  0  0  0  0  0  0  0  0  0
   -6.1719   -2.5557   -3.0475 H   0  0  0  0  0  0  0  0  0  0  0  0
   -4.6770   -2.2011   -2.1782 H   0  0  0  0  0  0  0  0  0  0  0  0
   -5.1618   -3.8673   -2.4445 H   0  0  0  0  0  0  0  0  0  0  0  0
   -7.0612    1.3174   -2.1561 H   0  0  0  0  0  0  0  0  0  0  0  0
   -7.8066    2.4138   -1.0631 H   0  0  0  0  0  0  0  0  0  0  0  0
  1  2  1  0
  1  9  1  0
  1 11  1  0
  2  3  1  0
  2  4  1  0
  4  5  1  0
  4  6  1  0
  6  7  1  0
  6  8  1  0
  8  9  1  0
  8 10  1  0
 11 12  1  0
 12 13  2  0
 12 14  1  0
 14 15  1  0
 15 16  1  0
 15 18  1  0
 16 17  2  0
 16 23  1  0
 18 19  1  0
 19 20  1  0
 20 21  1  0
 21 22  1  0
 23 24  1  0
 23 29  1  0
 24 25  1  0
 24 27  1  0
 25 26  2  0
 25 30  1  0
 27 28  1  0
 28 29  1  0
 30 31  1  0
 31 32  1  0
 31 34  1  0
 32 33  2  0
 32 38  1  0
 34 35  1  0
 35 36  1  0
 35 37  1  0
  1 39  1  1
  2 40  1  1
  3 41  1  0
  4 42  1  6
  5 43  1  0
  6 44  1  6
  7 45  1  0
  8 46  1  6
 10 47  1  0
 10 48  1  0
 10 49  1  0
 11 50  1  0
 11 51  1  0
 14 52  1  0
 15 53  1  1
 18 54  1  0
 18 55  1  0
 19 56  1  0
 19 57  1  0
 20 58  1  0
 20 59  1  0
 21 60  1  0
 21 61  1  0
 22 62  1  0
 22 63  1  0
 24 64  1  1
 27 65  1  0
 27 66  1  0
 28 67  1  0
 28 68  1  0
 29 69  1  0
 29 70  1  0
 30 71  1  0
 31 72  1  6
 34 73  1  0
 34 74  1  0
 35 75  1  1
 36 76  1  0
 36 77  1  0
 36 78  1  0
 37 79  1  0
 37 80  1  0
 37 81  1  0
 38 82  1  0
 38 83  1  0
M  END
