
     RDKit          3D

 58 62  0  0  0  0  0  0  0  0999 V2000
    3.2522    0.2421   -0.1468 C   0  0  0  0  0  0  0  0  0  0  0  0
    3.7456   -0.9539   -0.6260 C   0  0  0  0  0  0  0  0  0  0  0  0
    5.1306   -1.0967   -0.7972 C   0  0  0  0  0  0  0  0  0  0  0  0
    6.0207   -0.1864   -0.5356 N   0  0  0  0  0  0  0  0  0  0  0  0
    5.5681    1.0191   -0.1146 C   0  0  0  0  0  0  0  0  0  0  0  0
    4.1917    1.3037    0.0609 C   0  0  0  0  0  0  0  0  0  0  0  0
    3.8081    2.6290    0.3625 C   0  0  0  0  0  0  0  0  0  0  0  0
    4.7508    3.6024    0.5609 C   0  0  0  0  0  0  0  0  0  0  0  0
    6.1218    3.2979    0.4619 C   0  0  0  0  0  0  0  0  0  0  0  0
    6.5215    2.0352    0.1195 C   0  0  0  0  0  0  0  0  0  0  0  0
    5.6531   -2.4088   -1.3283 C   0  0  1  0  0  0  0  0  0  0  0  0
    1.9103    0.4530    0.0918 N   0  0  0  0  0  0  0  0  0  0  0  0
    0.9551   -0.4536   -0.5174 C   0  0  0  0  0  0  0  0  0  0  0  0
   -0.4296    0.1672   -0.4952 C   0  0  0  0  0  0  0  0  0  0  0  0
   -0.8444    0.4895    0.8589 N   0  0  0  0  0  0  0  0  0  0  0  0
    0.1237    1.3922    1.4589 C   0  0  0  0  0  0  0  0  0  0  0  0
   -2.1864    1.0446    0.8969 C   0  0  2  0  0  0  0  0  0  0  0  0
   -2.6897    1.2978    2.3386 C   0  0  0  0  0  0  0  0  0  0  0  0
   -4.0987    0.8976    2.3960 N   0  0  0  0  0  0  0  0  0  0  0  0
   -4.5166    0.6188    1.0329 C   0  0  1  0  0  0  0  0  0  0  0  0
   -3.2542    0.1215    0.3141 C   0  0  0  0  0  0  0  0  0  0  0  0
    1.5045    0.7724    1.4595 C   0  0  0  0  0  0  0  0  0  0  0  0
   -5.6235   -0.4198    1.0005 C   0  0  0  0  0  0  0  0  0  0  0  0
   -6.4736   -0.3878   -0.0410 N   0  0  0  0  0  0  0  0  0  0  0  0
   -6.4163    0.5888   -1.1195 C   0  0  0  0  0  0  0  0  0  0  0  0
   -7.4164   -0.1130   -2.4544 S   0  0  0  0  0  0  0  0  0  0  0  0
   -8.4911   -0.8893   -1.2184 C   0  0  0  0  0  0  0  0  0  0  0  0
   -7.5395   -1.3812   -0.1434 C   0  0  0  0  0  0  0  0  0  0  0  0
    5.3542   -2.5466   -2.6285 F   0  0  0  0  0  0  0  0  0  0  0  0
    6.9710   -2.5199   -1.2076 F   0  0  0  0  0  0  0  0  0  0  0  0
    5.1003   -3.4512   -0.6938 F   0  0  0  0  0  0  0  0  0  0  0  0
   -5.7063   -1.2732    1.8749 O   0  0  0  0  0  0  0  0  0  0  0  0
    3.0883   -1.7892   -0.8215 H   0  0  0  0  0  0  0  0  0  0  0  0
    2.7591    2.8886    0.4039 H   0  0  0  0  0  0  0  0  0  0  0  0
    4.4403    4.6147    0.7821 H   0  0  0  0  0  0  0  0  0  0  0  0
    6.8580    4.0720    0.6330 H   0  0  0  0  0  0  0  0  0  0  0  0
    7.5693    1.7906    0.0027 H   0  0  0  0  0  0  0  0  0  0  0  0
    1.2371   -0.6350   -1.5552 H   0  0  0  0  0  0  0  0  0  0  0  0
    0.9287   -1.4235   -0.0010 H   0  0  0  0  0  0  0  0  0  0  0  0
   -0.4360    1.0590   -1.1442 H   0  0  0  0  0  0  0  0  0  0  0  0
   -1.1205   -0.5556   -0.9305 H   0  0  0  0  0  0  0  0  0  0  0  0
    0.1639    2.3614    0.9317 H   0  0  0  0  0  0  0  0  0  0  0  0
   -0.1531    1.5998    2.4933 H   0  0  0  0  0  0  0  0  0  0  0  0
   -2.2190    1.9959    0.3362 H   0  0  0  0  0  0  0  0  0  0  0  0
   -2.1098    0.7117    3.0546 H   0  0  0  0  0  0  0  0  0  0  0  0
   -2.5714    2.3498    2.6078 H   0  0  0  0  0  0  0  0  0  0  0  0
   -4.1785    0.0428    2.9319 H   0  0  0  0  0  0  0  0  0  0  0  0
   -4.8519    1.5502    0.5647 H   0  0  0  0  0  0  0  0  0  0  0  0
   -3.3287    0.1731   -0.7726 H   0  0  0  0  0  0  0  0  0  0  0  0
   -3.0500   -0.9156    0.5985 H   0  0  0  0  0  0  0  0  0  0  0  0
    1.4957   -0.1431    2.0667 H   0  0  0  0  0  0  0  0  0  0  0  0
    2.2094    1.4575    1.9244 H   0  0  0  0  0  0  0  0  0  0  0  0
   -6.8197    1.5539   -0.8056 H   0  0  0  0  0  0  0  0  0  0  0  0
   -5.4052    0.7350   -1.4949 H   0  0  0  0  0  0  0  0  0  0  0  0
   -9.2012   -0.1617   -0.8250 H   0  0  0  0  0  0  0  0  0  0  0  0
   -9.0431   -1.7069   -1.6773 H   0  0  0  0  0  0  0  0  0  0  0  0
   -7.1242   -2.3544   -0.4140 H   0  0  0  0  0  0  0  0  0  0  0  0
   -8.0569   -1.4849    0.8103 H   0  0  0  0  0  0  0  0  0  0  0  0
  1  2  2  0
  1  6  1  0
  1 12  1  0
  2  3  1  0
  3  4  2  0
  3 11  1  0
  4  5  1  0
  5  6  2  0
  5 10  1  0
  6  7  1  0
  7  8  2  0
  8  9  1  0
  9 10  2  0
 11 29  1  6
 11 30  1  0
 11 31  1  0
 12 13  1  0
 12 22  1  0
 13 14  1  0
 14 15  1  0
 15 16  1  0
 15 17  1  0
 16 22  1  0
 17 18  1  0
 17 21  1  0
 18 19  1  0
 19 20  1  0
 20 21  1  0
 20 23  1  0
 23 24  1  0
 23 32  2  0
 24 25  1  0
 24 28  1  0
 25 26  1  0
 26 27  1  0
 27 28  1  0
  2 33  1  0
  7 34  1  0
  8 35  1  0
  9 36  1  0
 10 37  1  0
 13 38  1  0
 13 39  1  0
 14 40  1  0
 14 41  1  0
 16 42  1  0
 16 43  1  0
 17 44  1  6
 18 45  1  0
 18 46  1  0
 19 47  1  0
 20 48  1  6
 21 49  1  0
 21 50  1  0
 22 51  1  0
 22 52  1  0
 25 53  1  0
 25 54  1  0
 27 55  1  0
 27 56  1  0
 28 57  1  0
 28 58  1  0
M  END
