
     RDKit          3D

 48 51  0  0  0  0  0  0  0  0999 V2000
   -2.0184   -0.6913    0.1489 C   0  0  0  0  0  0  0  0  0  0  0  0
    0.3065   -1.0994    0.8250 C   0  0  0  0  0  0  0  0  0  0  0  0
   -1.3000   -3.0850    0.7222 C   0  0  0  0  0  0  0  0  0  0  0  0
   -3.9893    1.2642    0.2473 C   0  0  0  0  0  0  0  0  0  0  0  0
    1.4104   -0.6693    0.1025 C   0  0  0  0  0  0  0  0  0  0  0  0
    2.5010   -0.0671    0.7325 C   0  0  0  0  0  0  0  0  0  0  0  0
    3.6548    0.3932   -0.0606 C   0  0  0  0  0  0  0  0  0  0  0  0
   -2.0813    0.2923   -0.8306 C   0  0  0  0  0  0  0  0  0  0  0  0
    3.4840    0.9700   -1.3199 C   0  0  0  0  0  0  0  0  0  0  0  0
    5.7218    1.2911   -1.6201 C   0  0  0  0  0  0  0  0  0  0  0  0
    2.4799    0.0947    2.1157 C   0  0  0  0  0  0  0  0  0  0  0  0
   -5.6882    2.3701   -1.7697 F   0  0  0  0  0  0  0  0  0  0  0  0
   -6.0238    2.2181   -0.4642 C   0  0  1  0  0  0  0  0  0  0  0  0
   -6.6341    1.0114   -0.3915 F   0  0  0  0  0  0  0  0  0  0  0  0
   -4.9373    2.2721    0.3391 O   0  0  0  0  0  0  0  0  0  0  0  0
   -3.9527    0.3020    1.2524 C   0  0  0  0  0  0  0  0  0  0  0  0
   -4.9338    0.3068    2.3868 C   0  0  0  0  0  0  0  0  0  0  0  0
   -2.9507   -0.6625    1.1795 C   0  0  0  0  0  0  0  0  0  0  0  0
   -3.0614    1.2704   -0.7820 C   0  0  0  0  0  0  0  0  0  0  0  0
   -0.8992   -1.7180    0.1116 C   0  0  1  0  0  0  0  0  0  0  0  0
   -0.5656   -2.0665   -1.2585 N   0  0  0  0  0  0  0  0  0  0  0  0
   -0.4360   -3.3357   -1.2926 C   0  0  0  0  0  0  0  0  0  0  0  0
    0.0084   -4.0725   -2.3249 N   0  0  0  0  0  0  0  0  0  0  0  0
   -0.7138   -4.0278   -0.1749 O   0  0  0  0  0  0  0  0  0  0  0  0
    0.3011   -0.9216    2.2068 C   0  0  0  0  0  0  0  0  0  0  0  0
    1.3822   -0.3349    2.8458 C   0  0  0  0  0  0  0  0  0  0  0  0
    4.9580    0.2824    0.4161 C   0  0  0  0  0  0  0  0  0  0  0  0
    4.4830    1.4013   -2.0746 N   0  0  0  0  0  0  0  0  0  0  0  0
    5.9938    0.7413   -0.3758 C   0  0  0  0  0  0  0  0  0  0  0  0
    7.6274    0.6226    0.1687 Cl  0  0  0  0  0  0  0  0  0  0  0  0
   -0.9156   -3.2692    1.7236 H   0  0  0  0  0  0  0  0  0  0  0  0
   -2.3831   -3.2292    0.7246 H   0  0  0  0  0  0  0  0  0  0  0  0
    1.4256   -0.8281   -0.9677 H   0  0  0  0  0  0  0  0  0  0  0  0
   -1.3637    0.2999   -1.6394 H   0  0  0  0  0  0  0  0  0  0  0  0
    2.4864    1.1019   -1.7242 H   0  0  0  0  0  0  0  0  0  0  0  0
    6.5243    1.6484   -2.2553 H   0  0  0  0  0  0  0  0  0  0  0  0
    3.3070    0.5740    2.6242 H   0  0  0  0  0  0  0  0  0  0  0  0
   -6.7157    3.0048   -0.1729 H   0  0  0  0  0  0  0  0  0  0  0  0
   -5.9583    0.1745    2.0393 H   0  0  0  0  0  0  0  0  0  0  0  0
   -4.7167   -0.4999    3.0850 H   0  0  0  0  0  0  0  0  0  0  0  0
   -4.8998    1.2439    2.9440 H   0  0  0  0  0  0  0  0  0  0  0  0
   -2.9198   -1.4108    1.9632 H   0  0  0  0  0  0  0  0  0  0  0  0
   -3.0838    2.0456   -1.5355 H   0  0  0  0  0  0  0  0  0  0  0  0
    0.0919   -3.6038   -3.2112 H   0  0  0  0  0  0  0  0  0  0  0  0
   -0.2583   -5.0420   -2.3749 H   0  0  0  0  0  0  0  0  0  0  0  0
   -0.5480   -1.2366    2.8016 H   0  0  0  0  0  0  0  0  0  0  0  0
    1.3657   -0.2036    3.9197 H   0  0  0  0  0  0  0  0  0  0  0  0
    5.1644   -0.1677    1.3785 H   0  0  0  0  0  0  0  0  0  0  0  0
 30 29  1  0
 29 10  2  0
 29 27  1  0
 10 28  1  0
 27  7  2  0
 28  9  2  0
 23 22  1  0
  7  9  1  0
  7  6  1  0
 22 21  2  0
 22 24  1  0
  6  5  2  0
  6 11  1  0
 21 20  1  0
  5  2  1  0
 11 26  2  0
 24  3  1  0
 20  2  1  1
  2 25  2  0
 20  3  1  0
 20  1  1  0
  8  1  2  0
  8 19  1  0
 26 25  1  0
  1 18  1  0
 19  4  2  0
 18 16  2  0
  4 16  1  0
  4 15  1  0
 16 17  1  0
 15 13  1  0
 14 13  1  0
 12 13  1  0
  3 31  1  0
  3 32  1  0
  5 33  1  0
  8 34  1  0
  9 35  1  0
 10 36  1  0
 11 37  1  0
 13 38  1  1
 17 39  1  0
 17 40  1  0
 17 41  1  0
 18 42  1  0
 19 43  1  0
 23 44  1  0
 23 45  1  0
 25 46  1  0
 26 47  1  0
 27 48  1  0
M  END
