
     RDKit          3D

 58 62  0  0  0  0  0  0  0  0999 V2000
    8.2070   -1.0659    0.5977 C   0  0  0  0  0  0  0  0  0  0  0  0
    6.8107   -0.9142    0.5774 O   0  0  0  0  0  0  0  0  0  0  0  0
    6.2707   -1.0899   -0.7051 C   0  0  0  0  0  0  0  0  0  0  0  0
    4.7775   -0.9024   -0.6587 C   0  0  0  0  0  0  0  0  0  0  0  0
    4.5061    0.4396   -0.3025 O   0  0  0  0  0  0  0  0  0  0  0  0
    3.2234    0.8391   -0.1678 C   0  0  0  0  0  0  0  0  0  0  0  0
    3.0345    2.1353    0.2959 C   0  0  0  0  0  0  0  0  0  0  0  0
    1.7324    2.5902    0.4520 C   0  0  0  0  0  0  0  0  0  0  0  0
    0.6371    1.7659    0.1551 C   0  0  0  0  0  0  0  0  0  0  0  0
    0.8180    0.4742   -0.3141 C   0  0  0  0  0  0  0  0  0  0  0  0
    2.1204    0.0235   -0.4712 C   0  0  0  0  0  0  0  0  0  0  0  0
   -0.4776    2.5525    0.4186 N   0  0  0  0  0  0  0  0  0  0  0  0
    0.0060    3.7584    0.8536 C   0  0  0  0  0  0  0  0  0  0  0  0
    1.2976    3.8241    0.8895 N   0  0  0  0  0  0  0  0  0  0  0  0
   -1.8240    2.1942    0.2791 C   0  0  0  0  0  0  0  0  0  0  0  0
   -2.0687    0.9269    0.1450 N   0  0  0  0  0  0  0  0  0  0  0  0
   -3.3374    0.5044   -0.0325 C   0  0  0  0  0  0  0  0  0  0  0  0
   -4.4197    1.4149   -0.0755 C   0  0  0  0  0  0  0  0  0  0  0  0
   -5.7302    0.9576   -0.3234 C   0  0  0  0  0  0  0  0  0  0  0  0
   -5.9419   -0.3766   -0.5302 C   0  0  0  0  0  0  0  0  0  0  0  0
   -4.8759   -1.2938   -0.4676 C   0  0  0  0  0  0  0  0  0  0  0  0
   -3.5802   -0.8945   -0.2117 C   0  0  0  0  0  0  0  0  0  0  0  0
   -2.5011   -1.7866   -0.1673 N   0  0  0  0  0  0  0  0  0  0  0  0
   -1.9321   -1.9869    1.1657 C   0  0  0  0  0  0  0  0  0  0  0  0
   -0.6072   -2.7307    1.1069 C   0  0  0  0  0  0  0  0  0  0  0  0
   -0.7206   -4.0412    0.3412 C   0  0  1  0  0  0  0  0  0  0  0  0
   -1.3575   -3.7645   -1.0190 C   0  0  0  0  0  0  0  0  0  0  0  0
   -2.6887   -3.0465   -0.8655 C   0  0  0  0  0  0  0  0  0  0  0  0
    0.5755   -4.6996    0.2881 N   0  0  0  0  0  0  0  0  0  0  0  0
   -4.1143    2.7851    0.0934 C   0  0  0  0  0  0  0  0  0  0  0  0
   -2.8266    3.1931    0.2655 C   0  0  0  0  0  0  0  0  0  0  0  0
    8.5481   -0.9051    1.6196 H   0  0  0  0  0  0  0  0  0  0  0  0
    8.5179   -2.0692    0.2827 H   0  0  0  0  0  0  0  0  0  0  0  0
    8.7087   -0.3394   -0.0527 H   0  0  0  0  0  0  0  0  0  0  0  0
    6.7151   -0.3872   -1.4247 H   0  0  0  0  0  0  0  0  0  0  0  0
    6.4688   -2.1013   -1.0876 H   0  0  0  0  0  0  0  0  0  0  0  0
    4.3682   -1.1412   -1.6464 H   0  0  0  0  0  0  0  0  0  0  0  0
    4.3304   -1.5944    0.0648 H   0  0  0  0  0  0  0  0  0  0  0  0
    3.8799    2.7707    0.5282 H   0  0  0  0  0  0  0  0  0  0  0  0
   -0.0179   -0.1705   -0.5394 H   0  0  0  0  0  0  0  0  0  0  0  0
    2.2639   -0.9842   -0.8364 H   0  0  0  0  0  0  0  0  0  0  0  0
   -0.6531    4.5598    1.1501 H   0  0  0  0  0  0  0  0  0  0  0  0
   -6.5455    1.6690   -0.3607 H   0  0  0  0  0  0  0  0  0  0  0  0
   -6.9384   -0.7463   -0.7329 H   0  0  0  0  0  0  0  0  0  0  0  0
   -5.0987   -2.3411   -0.6199 H   0  0  0  0  0  0  0  0  0  0  0  0
   -1.7843   -1.0192    1.6415 H   0  0  0  0  0  0  0  0  0  0  0  0
   -2.6375   -2.5558    1.7930 H   0  0  0  0  0  0  0  0  0  0  0  0
    0.1429   -2.0957    0.6243 H   0  0  0  0  0  0  0  0  0  0  0  0
   -0.2598   -2.9166    2.1258 H   0  0  0  0  0  0  0  0  0  0  0  0
   -1.3981   -4.7003    0.8988 H   0  0  0  0  0  0  0  0  0  0  0  0
   -0.6796   -3.1492   -1.6212 H   0  0  0  0  0  0  0  0  0  0  0  0
   -1.5161   -4.7013   -1.5600 H   0  0  0  0  0  0  0  0  0  0  0  0
   -3.3915   -3.7108   -0.3356 H   0  0  0  0  0  0  0  0  0  0  0  0
   -3.1196   -2.8457   -1.8480 H   0  0  0  0  0  0  0  0  0  0  0  0
    0.4922   -5.5706   -0.2235 H   0  0  0  0  0  0  0  0  0  0  0  0
    1.2167   -4.1304   -0.2541 H   0  0  0  0  0  0  0  0  0  0  0  0
   -4.9135    3.5146    0.0642 H   0  0  0  0  0  0  0  0  0  0  0  0
   -2.5940    4.2436    0.3608 H   0  0  0  0  0  0  0  0  0  0  0  0
  1  2  1  0
  2  3  1  0
  3  4  1  0
  4  5  1  0
  5  6  1  0
  7  6  2  0
  7  8  1  0
  6 11  1  0
 14  8  1  0
 14 13  2  0
  8  9  2  0
 13 12  1  0
 11 10  2  0
  9 12  1  0
  9 10  1  0
 12 15  1  0
 29 26  1  0
 25 26  1  0
 25 24  1  0
 15 31  1  0
 15 16  2  0
 31 30  2  0
 26 27  1  0
 24 23  1  0
 16 17  1  0
 30 18  1  0
 23 22  1  0
 23 28  1  0
 27 28  1  0
 17 18  2  0
 17 22  1  0
 18 19  1  0
 22 21  2  0
 19 20  2  0
 21 20  1  0
  1 32  1  0
  1 33  1  0
  1 34  1  0
  3 35  1  0
  3 36  1  0
  4 37  1  0
  4 38  1  0
  7 39  1  0
 10 40  1  0
 11 41  1  0
 13 42  1  0
 19 43  1  0
 20 44  1  0
 21 45  1  0
 24 46  1  0
 24 47  1  0
 25 48  1  0
 25 49  1  0
 26 50  1  1
 27 51  1  0
 27 52  1  0
 28 53  1  0
 28 54  1  0
 29 55  1  0
 29 56  1  0
 30 57  1  0
 31 58  1  0
M  END
