
     RDKit          3D

 48 50  0  0  0  0  0  0  0  0999 V2000
   -2.5187   -3.3160   -0.2903 C   0  0  0  0  0  0  0  0  0  0  0  0
   -2.0754   -0.7595    0.6369 C   0  0  0  0  0  0  0  0  0  0  0  0
    0.2774   -0.9541    0.3447 N   0  0  0  0  0  0  0  0  0  0  0  0
    1.4649   -1.3914   -0.1345 C   0  0  0  0  0  0  0  0  0  0  0  0
    5.8521    2.0954    0.7265 C   0  0  0  0  0  0  0  0  0  0  0  0
    7.1715    1.8596    0.3721 C   0  0  0  0  0  0  0  0  0  0  0  0
    7.4726    0.6565   -0.2581 C   0  0  0  0  0  0  0  0  0  0  0  0
   -8.5521    2.4141   -0.1515 C   0  0  0  0  0  0  0  0  0  0  0  0
   -7.9350    2.0496   -1.3445 C   0  0  0  0  0  0  0  0  0  0  0  0
   -6.7828    1.2839   -1.3376 C   0  0  0  0  0  0  0  0  0  0  0  0
   -6.2255    0.8666   -0.1265 C   0  0  0  0  0  0  0  0  0  0  0  0
   -6.8348    1.2307    1.0718 C   0  0  0  0  0  0  0  0  0  0  0  0
   -7.9941    2.0003    1.0470 C   0  0  0  0  0  0  0  0  0  0  0  0
   -4.5248   -0.3815    0.9791 C   0  0  0  0  0  0  0  0  0  0  0  0
   -3.3698   -1.2491    0.5792 C   0  0  0  0  0  0  0  0  0  0  0  0
   -3.5934   -2.5398    0.1080 C   0  0  0  0  0  0  0  0  0  0  0  0
   -1.2170   -2.8337   -0.2318 C   0  0  0  0  0  0  0  0  0  0  0  0
   -0.9886   -1.5406    0.2356 C   0  0  0  0  0  0  0  0  0  0  0  0
    1.6357   -2.4365   -0.7326 O   0  0  0  0  0  0  0  0  0  0  0  0
    2.6025   -0.4305    0.1428 C   0  0  0  0  0  0  0  0  0  0  0  0
    4.1133   -1.1601   -0.5242 S   0  0  0  0  0  0  0  0  0  0  0  0
    5.2899    0.0846   -0.1341 C   0  0  0  0  0  0  0  0  0  0  0  0
    4.9034    1.1919    0.4682 N   0  0  0  0  0  0  0  0  0  0  0  0
    6.5193   -0.2351   -0.5122 N   0  0  0  0  0  0  0  0  0  0  0  0
    5.4211    3.3573    1.3976 C   0  0  0  0  0  0  0  0  0  0  0  0
   -2.6873   -4.3219   -0.6521 H   0  0  0  0  0  0  0  0  0  0  0  0
   -1.9027    0.2489    0.9987 H   0  0  0  0  0  0  0  0  0  0  0  0
    0.2890   -0.0546    0.8035 H   0  0  0  0  0  0  0  0  0  0  0  0
    7.9427    2.5883    0.5789 H   0  0  0  0  0  0  0  0  0  0  0  0
   -8.3567    2.3607   -2.2916 H   0  0  0  0  0  0  0  0  0  0  0  0
   -6.3047    1.0029   -2.2678 H   0  0  0  0  0  0  0  0  0  0  0  0
   -6.4278    0.9311    2.0279 H   0  0  0  0  0  0  0  0  0  0  0  0
   -8.4597    2.2721    1.9856 H   0  0  0  0  0  0  0  0  0  0  0  0
   -4.1890    0.4414    1.6186 H   0  0  0  0  0  0  0  0  0  0  0  0
   -5.2604   -0.9654    1.5419 H   0  0  0  0  0  0  0  0  0  0  0  0
   -4.6002   -2.9359    0.0594 H   0  0  0  0  0  0  0  0  0  0  0  0
   -0.4025   -3.4668   -0.5426 H   0  0  0  0  0  0  0  0  0  0  0  0
    2.4031    0.5347   -0.3259 H   0  0  0  0  0  0  0  0  0  0  0  0
    2.7029   -0.2568    1.2155 H   0  0  0  0  0  0  0  0  0  0  0  0
    4.7650    3.9276    0.7381 H   0  0  0  0  0  0  0  0  0  0  0  0
    4.8548    3.1342    2.3019 H   0  0  0  0  0  0  0  0  0  0  0  0
    6.2698    3.9845    1.6621 H   0  0  0  0  0  0  0  0  0  0  0  0
    8.8648    0.3031   -0.6661 C   0  0  0  0  0  0  0  0  0  0  0  0
   -5.1043    0.1208   -0.2164 O   0  0  0  0  0  0  0  0  0  0  0  0
   -9.4538    3.0118   -0.1605 H   0  0  0  0  0  0  0  0  0  0  0  0
    9.2240   -0.5429   -0.0782 H   0  0  0  0  0  0  0  0  0  0  0  0
    8.8922    0.0030   -1.7134 H   0  0  0  0  0  0  0  0  0  0  0  0
    9.5514    1.1343   -0.5221 H   0  0  0  0  0  0  0  0  0  0  0  0
  9 10  1  0
  9  8  2  0
 10 11  2  0
  8 13  1  0
 11 44  1  0
 11 12  1  0
  1 16  2  0
  1 17  1  0
 16 15  1  0
 44 14  1  0
 13 12  2  0
 17 18  2  0
 15 14  1  0
 15  2  2  0
 25  5  1  0
 18  2  1  0
 18  3  1  0
  5  6  2  0
  5 23  1  0
  6  7  1  0
  3  4  1  0
 23 22  2  0
  7 43  1  0
  7 24  2  0
  4 19  2  0
  4 20  1  0
 22 24  1  0
 22 21  1  0
 20 21  1  0
  1 26  1  0
  2 27  1  0
  3 28  1  0
  6 29  1  0
  8 45  1  0
  9 30  1  0
 10 31  1  0
 12 32  1  0
 13 33  1  0
 14 34  1  0
 14 35  1  0
 16 36  1  0
 17 37  1  0
 20 38  1  0
 20 39  1  0
 43 46  1  0
 43 47  1  0
 43 48  1  0
 25 40  1  0
 25 41  1  0
 25 42  1  0
M  END
