
     RDKit          3D

 79 83  0  0  0  0  0  0  0  0999 V2000
   -4.6260   -1.5253    2.5510 C   0  0  0  0  0  0  0  0  0  0  0  0
   -5.3388   -2.2932    1.4370 C   0  0  1  0  0  0  0  0  0  0  0  0
   -6.6221   -1.5571    1.0493 C   0  0  0  0  0  0  0  0  0  0  0  0
   -4.4195   -2.4016    0.2186 C   0  0  0  0  0  0  0  0  0  0  0  0
   -4.2698   -0.1246    2.0526 C   0  0  2  0  0  0  0  0  0  0  0  0
   -5.5492    0.6168    1.6564 C   0  0  0  0  0  0  0  0  0  0  0  0
   -3.3479   -0.2327    0.8358 C   0  0  0  0  0  0  0  0  0  0  0  0
   -6.2680   -0.1566    0.5486 C   0  0  1  0  0  0  0  0  0  0  0  0
   -4.0538   -1.0042   -0.2979 C   0  0  2  0  0  0  0  0  0  0  0  0
   -5.3536   -0.2640   -0.6729 C   0  0  0  0  0  0  0  0  0  0  0  0
    1.2451   -1.9945   -1.4656 C   0  0  0  0  0  0  0  0  0  0  0  0
    1.8831   -0.8504   -1.9699 C   0  0  0  0  0  0  0  0  0  0  0  0
    2.7710   -0.1342   -1.2177 C   0  0  0  0  0  0  0  0  0  0  0  0
    1.5015   -2.4316   -0.1879 C   0  0  0  0  0  0  0  0  0  0  0  0
    2.3597   -1.6492    0.6513 C   0  0  0  0  0  0  0  0  0  0  0  0
    3.0172   -0.4991    0.1274 C   0  0  0  0  0  0  0  0  0  0  0  0
    3.8517    0.2396    1.0187 C   0  0  0  0  0  0  0  0  0  0  0  0
    4.0122   -0.1276    2.3289 C   0  0  0  0  0  0  0  0  0  0  0  0
    3.3362   -1.2488    2.8334 C   0  0  0  0  0  0  0  0  0  0  0  0
    2.5239   -1.9812    2.0153 C   0  0  0  0  0  0  0  0  0  0  0  0
   -0.3078   -4.0397   -0.2494 C   0  0  0  0  0  0  0  0  0  0  0  0
    1.8781   -4.7095    0.4777 C   0  0  0  0  0  0  0  0  0  0  0  0
   -3.1508   -1.1182   -1.5238 C   0  0  0  0  0  0  0  0  0  0  0  0
   -2.7050    0.0430   -2.0322 N   0  0  0  0  0  0  0  0  0  0  0  0
   -1.7409    0.0938   -3.1085 C   0  0  0  0  0  0  0  0  0  0  0  0
   -1.3980    1.5239   -3.4578 C   0  0  0  0  0  0  0  0  0  0  0  0
   -0.9217    2.1695   -2.3048 O   0  0  0  0  0  0  0  0  0  0  0  0
   -0.4587    3.4718   -2.5487 C   0  0  0  0  0  0  0  0  0  0  0  0
   -0.1007    4.1370   -1.2444 C   0  0  0  0  0  0  0  0  0  0  0  0
    0.9213    3.4098   -0.6092 O   0  0  0  0  0  0  0  0  0  0  0  0
    1.4590    4.0549    0.5165 C   0  0  0  0  0  0  0  0  0  0  0  0
    2.4933    3.1356    1.1280 C   0  0  0  0  0  0  0  0  0  0  0  0
    3.4972    2.8134    0.1162 N   0  0  0  0  0  0  0  0  0  0  0  0
    4.6751    1.7320    0.4997 S   0  0  2  0  0  0  0  0  0  0  0  0
    5.4219    1.4782   -0.7221 O   0  0  0  0  0  0  0  0  0  0  0  0
   -2.8529   -2.1912   -2.0329 O   0  0  0  0  0  0  0  0  0  0  0  0
   -5.2672   -1.4593    3.4361 H   0  0  0  0  0  0  0  0  0  0  0  0
   -3.7202   -2.0594    2.8557 H   0  0  0  0  0  0  0  0  0  0  0  0
   -5.5851   -3.3007    1.7854 H   0  0  0  0  0  0  0  0  0  0  0  0
   -7.1580   -2.1131    0.2731 H   0  0  0  0  0  0  0  0  0  0  0  0
   -7.2933   -1.4907    1.9113 H   0  0  0  0  0  0  0  0  0  0  0  0
   -3.5124   -2.9509    0.4884 H   0  0  0  0  0  0  0  0  0  0  0  0
   -4.9148   -2.9763   -0.5691 H   0  0  0  0  0  0  0  0  0  0  0  0
   -3.7504    0.4293    2.8399 H   0  0  0  0  0  0  0  0  0  0  0  0
   -6.2055    0.7227    2.5261 H   0  0  0  0  0  0  0  0  0  0  0  0
   -5.3095    1.6291    1.3150 H   0  0  0  0  0  0  0  0  0  0  0  0
   -3.0641    0.7744    0.5144 H   0  0  0  0  0  0  0  0  0  0  0  0
   -2.4188   -0.7439    1.1089 H   0  0  0  0  0  0  0  0  0  0  0  0
   -7.1804    0.3748    0.2614 H   0  0  0  0  0  0  0  0  0  0  0  0
   -5.8628   -0.8027   -1.4790 H   0  0  0  0  0  0  0  0  0  0  0  0
   -5.1328    0.7377   -1.0553 H   0  0  0  0  0  0  0  0  0  0  0  0
    0.5768   -2.5458   -2.1129 H   0  0  0  0  0  0  0  0  0  0  0  0
    1.6932   -0.5503   -2.9921 H   0  0  0  0  0  0  0  0  0  0  0  0
    3.2875    0.6882   -1.6859 H   0  0  0  0  0  0  0  0  0  0  0  0
    4.6403    0.4504    2.9913 H   0  0  0  0  0  0  0  0  0  0  0  0
    3.4453   -1.5110    3.8765 H   0  0  0  0  0  0  0  0  0  0  0  0
    1.9708   -2.8167    2.4209 H   0  0  0  0  0  0  0  0  0  0  0  0
   -0.1999   -4.4523   -1.2614 H   0  0  0  0  0  0  0  0  0  0  0  0
   -0.7353   -4.8223    0.3778 H   0  0  0  0  0  0  0  0  0  0  0  0
   -1.0186   -3.2166   -0.2969 H   0  0  0  0  0  0  0  0  0  0  0  0
    2.8029   -4.3885    0.9525 H   0  0  0  0  0  0  0  0  0  0  0  0
    1.4360   -5.4869    1.1010 H   0  0  0  0  0  0  0  0  0  0  0  0
    2.1349   -5.1530   -0.4931 H   0  0  0  0  0  0  0  0  0  0  0  0
   -2.8967    0.8996   -1.5394 H   0  0  0  0  0  0  0  0  0  0  0  0
   -0.8314   -0.4436   -2.8259 H   0  0  0  0  0  0  0  0  0  0  0  0
   -2.1356   -0.3943   -4.0017 H   0  0  0  0  0  0  0  0  0  0  0  0
   -0.6424    1.5117   -4.2544 H   0  0  0  0  0  0  0  0  0  0  0  0
   -2.2801    2.0449   -3.8572 H   0  0  0  0  0  0  0  0  0  0  0  0
    0.4153    3.4572   -3.2148 H   0  0  0  0  0  0  0  0  0  0  0  0
   -1.2268    4.0851   -3.0403 H   0  0  0  0  0  0  0  0  0  0  0  0
    0.2206    5.1637   -1.4657 H   0  0  0  0  0  0  0  0  0  0  0  0
   -0.9851    4.2079   -0.5966 H   0  0  0  0  0  0  0  0  0  0  0  0
    1.9173    5.0136    0.2391 H   0  0  0  0  0  0  0  0  0  0  0  0
    0.6909    4.2614    1.2723 H   0  0  0  0  0  0  0  0  0  0  0  0
    2.9672    3.6473    1.9648 H   0  0  0  0  0  0  0  0  0  0  0  0
    1.9998    2.2374    1.5161 H   0  0  0  0  0  0  0  0  0  0  0  0
    3.0868    2.6322   -0.7942 H   0  0  0  0  0  0  0  0  0  0  0  0
    0.9398   -3.6032    0.3408 N   0  0  0  0  0  0  0  0  0  0  0  0
    5.3732    2.2679    1.6567 O   0  0  0  0  0  0  0  0  0  0  0  0
  1  2  1  0
  1  5  1  0
  2  3  1  0
  2  4  1  0
  3  8  1  0
  4  9  1  0
  5  6  1  0
  5  7  1  0
  6  8  1  0
  7  9  1  0
  8 10  1  0
  9 10  1  0
  9 23  1  6
 11 12  2  0
 11 14  1  0
 12 13  1  0
 13 16  2  0
 14 15  2  0
 14 78  1  0
 15 16  1  0
 15 20  1  0
 16 17  1  0
 17 18  2  0
 17 34  1  0
 18 19  1  0
 19 20  2  0
 78 21  1  0
 78 22  1  0
 23 24  1  0
 23 36  2  0
 24 25  1  0
 25 26  1  0
 26 27  1  0
 27 28  1  0
 28 29  1  0
 29 30  1  0
 30 31  1  0
 31 32  1  0
 32 33  1  0
 34 33  1  6
 79 34  2  0
 34 35  2  0
  1 37  1  0
  1 38  1  0
  2 39  1  1
  3 40  1  0
  3 41  1  0
  4 42  1  0
  4 43  1  0
  5 44  1  1
  6 45  1  0
  6 46  1  0
  7 47  1  0
  7 48  1  0
  8 49  1  6
 10 50  1  0
 10 51  1  0
 11 52  1  0
 12 53  1  0
 13 54  1  0
 18 55  1  0
 19 56  1  0
 20 57  1  0
 21 58  1  0
 21 59  1  0
 21 60  1  0
 22 61  1  0
 22 62  1  0
 22 63  1  0
 24 64  1  0
 25 65  1  0
 25 66  1  0
 26 67  1  0
 26 68  1  0
 28 69  1  0
 28 70  1  0
 29 71  1  0
 29 72  1  0
 31 73  1  0
 31 74  1  0
 32 75  1  0
 32 76  1  0
 33 77  1  0
M  END
