
     RDKit          3D

 45 46  0  0  0  0  0  0  0  0999 V2000
   -2.0179   -0.9530    0.0466 C   0  0  0  0  0  0  0  0  0  0  0  0
    0.2463   -1.5951    0.4194 C   0  0  0  0  0  0  0  0  0  0  0  0
    8.2472   -0.2739    0.1650 C   0  0  0  0  0  0  0  0  0  0  0  0
    6.9005   -0.3372   -0.2267 O   0  0  0  0  0  0  0  0  0  0  0  0
    6.4209    0.8936   -0.7031 C   0  0  0  0  0  0  0  0  0  0  0  0
    4.9791    0.7546   -1.1190 C   0  0  0  0  0  0  0  0  0  0  0  0
    4.1802    0.4949    0.0082 O   0  0  0  0  0  0  0  0  0  0  0  0
    2.8247    0.3187   -0.3154 C   0  0  0  0  0  0  0  0  0  0  0  0
    2.0408    0.0586    0.9631 C   0  0  0  0  0  0  0  0  0  0  0  0
    0.5933   -0.2052    0.6603 C   0  0  0  0  0  0  0  0  0  0  0  0
   -0.3590    0.7601    0.5523 C   0  0  0  0  0  0  0  0  0  0  0  0
   -0.0630    2.2131    0.7425 C   0  0  0  0  0  0  0  0  0  0  0  0
   -1.7209    0.3894    0.2395 C   0  0  0  0  0  0  0  0  0  0  0  0
   -2.7645    1.3229    0.1224 C   0  0  0  0  0  0  0  0  0  0  0  0
   -4.0396    0.9012   -0.1652 C   0  0  0  0  0  0  0  0  0  0  0  0
   -5.1213    1.6961   -0.2971 O   0  0  0  0  0  0  0  0  0  0  0  0
   -4.9600    3.0902   -0.1200 C   0  0  0  0  0  0  0  0  0  0  0  0
   -4.3085   -0.4735   -0.3506 C   0  0  0  0  0  0  0  0  0  0  0  0
   -5.5557   -0.8859   -0.6201 O   0  0  0  0  0  0  0  0  0  0  0  0
   -3.2994   -1.4190   -0.2579 C   0  0  0  0  0  0  0  0  0  0  0  0
   -3.5879   -2.8783   -0.4538 C   0  0  0  0  0  0  0  0  0  0  0  0
   -1.0448   -1.8864    0.1465 O   0  0  0  0  0  0  0  0  0  0  0  0
    1.0181   -2.5267    0.4419 O   0  0  0  0  0  0  0  0  0  0  0  0
    8.4063    0.4389    0.9834 H   0  0  0  0  0  0  0  0  0  0  0  0
    8.5464   -1.2636    0.5086 H   0  0  0  0  0  0  0  0  0  0  0  0
    8.9043    0.0183   -0.6633 H   0  0  0  0  0  0  0  0  0  0  0  0
    6.5168    1.6780    0.0617 H   0  0  0  0  0  0  0  0  0  0  0  0
    6.9963    1.2315   -1.5767 H   0  0  0  0  0  0  0  0  0  0  0  0
    4.6739    1.6877   -1.6127 H   0  0  0  0  0  0  0  0  0  0  0  0
    4.8797   -0.0478   -1.8639 H   0  0  0  0  0  0  0  0  0  0  0  0
    2.4247    1.2101   -0.8210 H   0  0  0  0  0  0  0  0  0  0  0  0
    2.6970   -0.5234   -1.0101 H   0  0  0  0  0  0  0  0  0  0  0  0
    2.4697   -0.8017    1.4786 H   0  0  0  0  0  0  0  0  0  0  0  0
    2.1479    0.9086    1.6375 H   0  0  0  0  0  0  0  0  0  0  0  0
    0.9805    2.4077    0.9655 H   0  0  0  0  0  0  0  0  0  0  0  0
   -0.3196    2.7742   -0.1574 H   0  0  0  0  0  0  0  0  0  0  0  0
   -0.6615    2.6238    1.5573 H   0  0  0  0  0  0  0  0  0  0  0  0
   -2.5581    2.3736    0.2652 H   0  0  0  0  0  0  0  0  0  0  0  0
   -5.9403    3.5361   -0.2641 H   0  0  0  0  0  0  0  0  0  0  0  0
   -4.6039    3.3288    0.8850 H   0  0  0  0  0  0  0  0  0  0  0  0
   -4.2675    3.5121   -0.8523 H   0  0  0  0  0  0  0  0  0  0  0  0
   -6.1500   -0.1275   -0.6897 H   0  0  0  0  0  0  0  0  0  0  0  0
   -3.8761   -3.3521    0.4870 H   0  0  0  0  0  0  0  0  0  0  0  0
   -4.4031   -3.0314   -1.1578 H   0  0  0  0  0  0  0  0  0  0  0  0
   -2.7217   -3.4143   -0.8350 H   0  0  0  0  0  0  0  0  0  0  0  0
  5  6  1  0
  5  4  1  0
  6  7  1  0
  3  4  1  0
  8  7  1  0
  8  9  1  0
  9 10  1  0
 23  2  2  0
 10  2  1  0
 10 11  2  0
  2 22  1  0
 12 11  1  0
 11 13  1  0
 22  1  1  0
 13  1  2  0
 13 14  1  0
  1 20  1  0
 14 15  2  0
 20 21  1  0
 20 18  2  0
 15 18  1  0
 15 16  1  0
 18 19  1  0
 17 16  1  0
  3 24  1  0
  3 25  1  0
  3 26  1  0
  5 27  1  0
  5 28  1  0
  6 29  1  0
  6 30  1  0
  8 31  1  0
  8 32  1  0
  9 33  1  0
  9 34  1  0
 12 35  1  0
 12 36  1  0
 12 37  1  0
 14 38  1  0
 17 39  1  0
 17 40  1  0
 17 41  1  0
 19 42  1  0
 21 43  1  0
 21 44  1  0
 21 45  1  0
M  END
