
     RDKit          3D

 73 76  0  0  0  0  0  0  0  0999 V2000
   -2.7633   -0.5511   -3.6798 C   0  0  0  0  0  0  0  0  0  0  0  0
   -2.9703   -0.2402   -1.4340 C   0  0  0  0  0  0  0  0  0  0  0  0
   -4.1715    0.8364    0.3274 C   0  0  0  0  0  0  0  0  0  0  0  0
   -2.7422    0.2620   -2.6329 N   0  0  0  0  0  0  0  0  0  0  0  0
   -4.7896    2.0803    0.2857 C   0  0  0  0  0  0  0  0  0  0  0  0
   -6.0131    2.2656    0.9058 C   0  0  0  0  0  0  0  0  0  0  0  0
   -2.9337    0.6292   -0.3254 N   0  0  0  0  0  0  0  0  0  0  0  0
   -6.6302    1.2075    1.5638 C   0  0  0  0  0  0  0  0  0  0  0  0
   -6.0141   -0.0295    1.6085 C   0  0  0  0  0  0  0  0  0  0  0  0
   -4.7822   -0.2295    0.9843 C   0  0  0  0  0  0  0  0  0  0  0  0
   -1.7960    1.2856    0.1264 C   0  0  0  0  0  0  0  0  0  0  0  0
   -0.6541    1.0220   -0.5327 N   0  0  0  0  0  0  0  0  0  0  0  0
    0.6121    1.5644   -0.0845 C   0  0  0  0  0  0  0  0  0  0  0  0
    1.7133    1.1257   -1.0440 C   0  0  0  0  0  0  0  0  0  0  0  0
    3.1938    2.9829   -0.9229 C   0  0  0  0  0  0  0  0  0  0  0  0
    3.0193    1.5720   -0.5955 N   0  0  0  0  0  0  0  0  0  0  0  0
   -3.4561   -2.0927    0.0720 N   0  0  0  0  0  0  0  0  0  0  0  0
   -4.1606   -1.5761    1.1180 C   0  0  0  0  0  0  0  0  0  0  0  0
   -4.3182   -2.2340    2.1312 O   0  0  0  0  0  0  0  0  0  0  0  0
   -3.2676   -1.5835   -1.2105 C   0  0  0  0  0  0  0  0  0  0  0  0
    4.4747    3.5601   -0.3525 C   0  0  0  0  0  0  0  0  0  0  0  0
    5.6676    2.7818   -0.8792 C   0  0  0  0  0  0  0  0  0  0  0  0
    5.4654    1.3061   -0.5791 C   0  0  0  0  0  0  0  0  0  0  0  0
    4.1357    0.7650   -1.1050 C   0  0  1  0  0  0  0  0  0  0  0  0
   -3.3026   -2.4282   -2.3148 C   0  0  0  0  0  0  0  0  0  0  0  0
    4.0676   -0.7390   -0.7948 C   0  0  0  0  0  0  0  0  0  0  0  0
    3.2092   -0.9039    1.4619 C   0  0  0  0  0  0  0  0  0  0  0  0
    3.5946   -0.7918    2.9306 C   0  0  0  0  0  0  0  0  0  0  0  0
    2.3785   -0.5217    3.8070 C   0  0  0  0  0  0  0  0  0  0  0  0
    4.8946   -2.4571    0.6634 C   0  0  0  0  0  0  0  0  0  0  0  0
    6.3891   -2.5016    0.3731 C   0  0  0  0  0  0  0  0  0  0  0  0
    6.9493   -3.9145    0.4619 C   0  0  0  0  0  0  0  0  0  0  0  0
   -3.0415   -1.9058   -3.5678 C   0  0  0  0  0  0  0  0  0  0  0  0
    4.3421   -1.1151    0.5786 N   0  0  0  0  0  0  0  0  0  0  0  0
   -1.8550    2.0387    1.0848 O   0  0  0  0  0  0  0  0  0  0  0  0
   -2.5501   -0.1073   -4.6443 H   0  0  0  0  0  0  0  0  0  0  0  0
   -4.3092    2.8977   -0.2342 H   0  0  0  0  0  0  0  0  0  0  0  0
   -6.4888    3.2368    0.8734 H   0  0  0  0  0  0  0  0  0  0  0  0
   -7.5891    1.3502    2.0432 H   0  0  0  0  0  0  0  0  0  0  0  0
   -6.4905   -0.8501    2.1273 H   0  0  0  0  0  0  0  0  0  0  0  0
   -0.6379    0.3578   -1.2883 H   0  0  0  0  0  0  0  0  0  0  0  0
    0.5427    2.6518   -0.0292 H   0  0  0  0  0  0  0  0  0  0  0  0
    0.8535    1.2054    0.9201 H   0  0  0  0  0  0  0  0  0  0  0  0
    1.6895    0.0369   -1.0869 H   0  0  0  0  0  0  0  0  0  0  0  0
    1.4848    1.4800   -2.0630 H   0  0  0  0  0  0  0  0  0  0  0  0
    3.1894    3.1299   -2.0186 H   0  0  0  0  0  0  0  0  0  0  0  0
    2.3413    3.5435   -0.5352 H   0  0  0  0  0  0  0  0  0  0  0  0
   -3.1714   -3.0545    0.2076 H   0  0  0  0  0  0  0  0  0  0  0  0
    4.5405    4.6186   -0.6142 H   0  0  0  0  0  0  0  0  0  0  0  0
    4.4446    3.4991    0.7395 H   0  0  0  0  0  0  0  0  0  0  0  0
    5.7597    2.9376   -1.9597 H   0  0  0  0  0  0  0  0  0  0  0  0
    6.5981    3.1372   -0.4304 H   0  0  0  0  0  0  0  0  0  0  0  0
    6.2745    0.7106   -1.0109 H   0  0  0  0  0  0  0  0  0  0  0  0
    5.4995    1.1392    0.4995 H   0  0  0  0  0  0  0  0  0  0  0  0
    4.1556    0.8348   -2.2103 H   0  0  0  0  0  0  0  0  0  0  0  0
   -3.5218   -3.4806   -2.1876 H   0  0  0  0  0  0  0  0  0  0  0  0
    3.1279   -1.1867   -1.1565 H   0  0  0  0  0  0  0  0  0  0  0  0
    4.8423   -1.1796   -1.4257 H   0  0  0  0  0  0  0  0  0  0  0  0
    2.4381   -1.6870    1.3392 H   0  0  0  0  0  0  0  0  0  0  0  0
    2.7476    0.0403    1.1782 H   0  0  0  0  0  0  0  0  0  0  0  0
    4.0902   -1.7024    3.2774 H   0  0  0  0  0  0  0  0  0  0  0  0
    4.3232    0.0162    3.0367 H   0  0  0  0  0  0  0  0  0  0  0  0
    1.8862    0.4122    3.5276 H   0  0  0  0  0  0  0  0  0  0  0  0
    1.6411   -1.3212    3.7159 H   0  0  0  0  0  0  0  0  0  0  0  0
    2.6541   -0.4453    4.8591 H   0  0  0  0  0  0  0  0  0  0  0  0
    4.3642   -3.1578   -0.0051 H   0  0  0  0  0  0  0  0  0  0  0  0
    4.7350   -2.8390    1.6742 H   0  0  0  0  0  0  0  0  0  0  0  0
    6.5963   -2.0918   -0.6199 H   0  0  0  0  0  0  0  0  0  0  0  0
    6.8978   -1.8470    1.0851 H   0  0  0  0  0  0  0  0  0  0  0  0
    6.7867   -4.3441    1.4524 H   0  0  0  0  0  0  0  0  0  0  0  0
    6.4752   -4.5769   -0.2650 H   0  0  0  0  0  0  0  0  0  0  0  0
    8.0222   -3.9307    0.2686 H   0  0  0  0  0  0  0  0  0  0  0  0
   -3.0584   -2.5371   -4.4448 H   0  0  0  0  0  0  0  0  0  0  0  0
 22 23  1  0
 22 21  1  0
 26 24  1  0
 26 34  1  0
 23 24  1  0
 21 15  1  0
 30 34  1  0
 30 31  1  0
 24 16  1  0
 34 27  1  0
 15 16  1  0
 32 31  1  0
 27 28  1  0
 16 14  1  0
 28 29  1  0
 14 13  1  0
 13 12  1  0
 35 11  2  0
 19 18  2  0
 12 11  1  0
 11  7  1  0
 17 18  1  0
 17 20  1  0
 18 10  1  0
 20 25  2  0
 20  2  1  0
  7  2  1  0
  7  3  1  0
 25 33  1  0
  2  4  2  0
 10  3  2  0
 10  9  1  0
  3  5  1  0
 33  1  2  0
  4  1  1  0
  9  8  2  0
  5  6  2  0
  8  6  1  0
  1 36  1  0
  5 37  1  0
  6 38  1  0
  8 39  1  0
  9 40  1  0
 12 41  1  0
 13 42  1  0
 13 43  1  0
 14 44  1  0
 14 45  1  0
 15 46  1  0
 15 47  1  0
 17 48  1  0
 21 49  1  0
 21 50  1  0
 22 51  1  0
 22 52  1  0
 23 53  1  0
 23 54  1  0
 24 55  1  6
 25 56  1  0
 26 57  1  0
 26 58  1  0
 27 59  1  0
 27 60  1  0
 28 61  1  0
 28 62  1  0
 29 63  1  0
 29 64  1  0
 29 65  1  0
 30 66  1  0
 30 67  1  0
 31 68  1  0
 31 69  1  0
 32 70  1  0
 32 71  1  0
 32 72  1  0
 33 73  1  0
M  END
