
     RDKit          3D

 78 81  0  0  0  0  0  0  0  0999 V2000
   -6.4041   -5.3349    0.9034 F   0  0  0  0  0  0  0  0  0  0  0  0
   -6.8860    5.5405    2.1697 O   0  0  0  0  0  0  0  0  0  0  0  0
   -4.0944   -5.5937    0.5489 C   0  0  0  0  0  0  0  0  0  0  0  0
    3.0179   -0.8670   -3.0718 O   0  0  0  0  0  0  0  0  0  0  0  0
   -5.1863   -4.7805    0.7483 C   0  0  0  0  0  0  0  0  0  0  0  0
   -5.2956    7.0903    2.3546 O   0  0  0  0  0  0  0  0  0  0  0  0
   -5.0678   -3.4039    0.7995 C   0  0  0  0  0  0  0  0  0  0  0  0
    2.2637   -1.0432   -5.1596 O   0  0  0  0  0  0  0  0  0  0  0  0
   -2.8442   -5.0055    0.3887 C   0  0  0  0  0  0  0  0  0  0  0  0
    6.9312    3.9408    1.6735 F   0  0  0  0  0  0  0  0  0  0  0  0
    6.0039    1.1480    0.1747 C   0  0  0  0  0  0  0  0  0  0  0  0
    6.2518    1.7067    1.4216 C   0  0  0  0  0  0  0  0  0  0  0  0
    7.3736    2.6737    1.6246 C   0  0  1  0  0  0  0  0  0  0  0  0
    4.9354    0.2823    0.0047 C   0  0  0  0  0  0  0  0  0  0  0  0
    8.2831    2.6205    0.6465 F   0  0  0  0  0  0  0  0  0  0  0  0
    4.3547    0.5325    2.3148 C   0  0  0  0  0  0  0  0  0  0  0  0
    8.0229    2.4548    2.7760 F   0  0  0  0  0  0  0  0  0  0  0  0
    1.7476   -0.7525    1.5314 C   0  0  0  0  0  0  0  0  0  0  0  0
    3.0822   -2.0880    0.0591 C   0  0  0  0  0  0  0  0  0  0  0  0
    0.6834   -1.6202    1.3588 C   0  0  0  0  0  0  0  0  0  0  0  0
    2.0133   -2.9532   -0.1175 C   0  0  0  0  0  0  0  0  0  0  0  0
   -1.5020    0.3462   -3.9116 C   0  0  0  0  0  0  0  0  0  0  0  0
   -0.6922    0.3332   -1.6571 C   0  0  0  0  0  0  0  0  0  0  0  0
   -0.2690   -0.0889   -4.3622 C   0  0  0  0  0  0  0  0  0  0  0  0
    0.5462   -0.1022   -2.1004 C   0  0  0  0  0  0  0  0  0  0  0  0
   -5.1483    3.6981    0.8769 C   0  0  0  0  0  0  0  0  0  0  0  0
   -4.0189    2.8961    0.2405 C   0  0  0  0  0  0  0  0  0  0  0  0
   -4.6723    5.0633    1.3438 C   0  0  0  0  0  0  0  0  0  0  0  0
   -4.4984    1.5282   -0.2249 C   0  0  0  0  0  0  0  0  0  0  0  0
   -3.7593   -0.7193   -0.7344 C   0  0  0  0  0  0  0  0  0  0  0  0
   -0.3253   -3.7089    0.3758 C   0  0  0  0  0  0  0  0  0  0  0  0
   -3.0589    1.1148   -2.1025 C   0  0  0  0  0  0  0  0  0  0  0  0
   -5.7470    5.8931    1.9890 C   0  0  0  0  0  0  0  0  0  0  0  0
    2.0710   -0.7762   -3.9960 C   0  0  0  0  0  0  0  0  0  0  0  0
    4.0962   -0.0429    1.0693 C   0  0  0  0  0  0  0  0  0  0  0  0
    2.9662   -0.9729    0.8861 C   0  0  0  0  0  0  0  0  0  0  0  0
    0.8045   -2.7335    0.5303 C   0  0  0  0  0  0  0  0  0  0  0  0
   -1.7289    0.5719   -2.5559 C   0  0  0  0  0  0  0  0  0  0  0  0
    0.7705   -0.3127   -3.4610 C   0  0  0  0  0  0  0  0  0  0  0  0
   -3.8258   -2.8037    0.6468 C   0  0  0  0  0  0  0  0  0  0  0  0
   -2.7063   -3.6225    0.4315 C   0  0  0  0  0  0  0  0  0  0  0  0
   -3.4356    0.6968   -0.7697 N   0  0  0  0  0  0  0  0  0  0  0  0
    5.4183    1.3988    2.4921 C   0  0  0  0  0  0  0  0  0  0  0  0
   -4.2017   -6.6699    0.5146 H   0  0  0  0  0  0  0  0  0  0  0  0
    3.8371   -1.1899   -3.4748 H   0  0  0  0  0  0  0  0  0  0  0  0
   -6.0085    7.5998    2.7677 H   0  0  0  0  0  0  0  0  0  0  0  0
   -5.9450   -2.7913    0.9706 H   0  0  0  0  0  0  0  0  0  0  0  0
   -1.9905   -5.6490    0.2241 H   0  0  0  0  0  0  0  0  0  0  0  0
    6.6292    1.3799   -0.6766 H   0  0  0  0  0  0  0  0  0  0  0  0
    4.7415   -0.1230   -0.9793 H   0  0  0  0  0  0  0  0  0  0  0  0
    3.7309    0.2871    3.1647 H   0  0  0  0  0  0  0  0  0  0  0  0
    1.6208    0.1168    2.1646 H   0  0  0  0  0  0  0  0  0  0  0  0
    4.0168   -2.2938   -0.4466 H   0  0  0  0  0  0  0  0  0  0  0  0
   -0.2493   -1.4161    1.8687 H   0  0  0  0  0  0  0  0  0  0  0  0
    2.1279   -3.8090   -0.7719 H   0  0  0  0  0  0  0  0  0  0  0  0
   -2.3017    0.5090   -4.6243 H   0  0  0  0  0  0  0  0  0  0  0  0
   -0.8641    0.4814   -0.5992 H   0  0  0  0  0  0  0  0  0  0  0  0
   -0.1156   -0.2573   -5.4197 H   0  0  0  0  0  0  0  0  0  0  0  0
    1.3305   -0.2809   -1.3772 H   0  0  0  0  0  0  0  0  0  0  0  0
   -5.9630    3.8152    0.1575 H   0  0  0  0  0  0  0  0  0  0  0  0
   -5.5584    3.1398    1.7226 H   0  0  0  0  0  0  0  0  0  0  0  0
   -3.6023    3.4682   -0.5943 H   0  0  0  0  0  0  0  0  0  0  0  0
   -3.2069    2.7579    0.9601 H   0  0  0  0  0  0  0  0  0  0  0  0
   -3.8514    4.9583    2.0605 H   0  0  0  0  0  0  0  0  0  0  0  0
   -4.2564    5.6336    0.5071 H   0  0  0  0  0  0  0  0  0  0  0  0
   -2.7487   -1.0091    1.1307 H   0  0  0  0  0  0  0  0  0  0  0  0
   -4.4914   -0.8995    1.3007 H   0  0  0  0  0  0  0  0  0  0  0  0
   -4.9263    1.0167    0.6390 H   0  0  0  0  0  0  0  0  0  0  0  0
   -5.3251    1.6461   -0.9457 H   0  0  0  0  0  0  0  0  0  0  0  0
   -3.0339   -1.2485   -1.3550 H   0  0  0  0  0  0  0  0  0  0  0  0
   -4.7506   -0.9265   -1.1705 H   0  0  0  0  0  0  0  0  0  0  0  0
   -0.3602   -4.3727    1.2488 H   0  0  0  0  0  0  0  0  0  0  0  0
   -0.1662   -4.3413   -0.5044 H   0  0  0  0  0  0  0  0  0  0  0  0
   -2.9826    2.2053   -2.1189 H   0  0  0  0  0  0  0  0  0  0  0  0
   -3.8278    0.8633   -2.8527 H   0  0  0  0  0  0  0  0  0  0  0  0
    5.5940    1.8191    3.4739 H   0  0  0  0  0  0  0  0  0  0  0  0
   -3.6944   -1.3081    0.6768 C   0  0  0  0  0  0  0  0  0  0  0  0
   -1.5303   -2.9807    0.2674 O   0  0  0  0  0  0  0  0  0  0  0  0
  1  5  1  0
  2 33  2  0
  3  5  2  0
  3  9  1  0
  4 34  1  0
  5  7  1  0
  6 33  1  0
  7 40  2  0
  8 34  2  0
  9 41  2  0
 13 10  1  1
 11 12  2  0
 11 14  1  0
 12 13  1  0
 12 43  1  0
 13 15  1  0
 13 17  1  0
 14 35  2  0
 16 35  1  0
 16 43  2  0
 18 20  2  0
 18 36  1  0
 19 21  1  0
 19 36  2  0
 20 37  1  0
 21 37  2  0
 22 24  2  0
 22 38  1  0
 23 25  1  0
 23 38  2  0
 24 39  1  0
 25 39  2  0
 26 27  1  0
 26 28  1  0
 27 29  1  0
 28 33  1  0
 77 30  1  0
 77 40  1  0
 29 42  1  0
 30 42  1  0
 31 78  1  0
 31 37  1  0
 32 38  1  0
 32 42  1  0
 78 41  1  0
 34 39  1  0
 35 36  1  0
 40 41  1  0
  3 44  1  0
  4 45  1  0
  6 46  1  0
  7 47  1  0
  9 48  1  0
 11 49  1  0
 14 50  1  0
 16 51  1  0
 18 52  1  0
 19 53  1  0
 20 54  1  0
 21 55  1  0
 22 56  1  0
 23 57  1  0
 24 58  1  0
 25 59  1  0
 26 60  1  0
 26 61  1  0
 27 62  1  0
 27 63  1  0
 28 64  1  0
 28 65  1  0
 77 66  1  0
 77 67  1  0
 29 68  1  0
 29 69  1  0
 30 70  1  0
 30 71  1  0
 31 72  1  0
 31 73  1  0
 32 74  1  0
 32 75  1  0
 43 76  1  0
M  END
