
     RDKit          3D

 30 31  0  0  0  0  0  0  0  0999 V2000
   -1.6616    0.8218    0.7046 C   0  0  0  0  0  0  0  0  0  0  0  0
   -4.7984   -0.5227   -0.6585 C   0  0  0  0  0  0  0  0  0  0  0  0
    4.1563   -2.0929    0.6296 C   0  0  0  0  0  0  0  0  0  0  0  0
    3.5146   -0.9065    0.1123 N   0  0  0  0  0  0  0  0  0  0  0  0
    4.0632    0.0460   -0.6680 C   0  0  0  0  0  0  0  0  0  0  0  0
    3.0781    0.9690   -0.9232 C   0  0  0  0  0  0  0  0  0  0  0  0
    1.9593    0.4687   -0.2395 C   0  0  0  0  0  0  0  0  0  0  0  0
    2.2456   -0.6678    0.3795 N   0  0  0  0  0  0  0  0  0  0  0  0
    0.6138    1.0815   -0.1743 C   0  0  0  0  0  0  0  0  0  0  0  0
    0.3796    2.1362   -0.7516 O   0  0  0  0  0  0  0  0  0  0  0  0
   -0.2872    0.4095    0.5568 N   0  0  0  0  0  0  0  0  0  0  0  0
   -2.5726    0.3003   -0.3965 C   0  0  2  0  0  0  0  0  0  0  0  0
   -4.0328    0.7100   -0.1910 C   0  0  0  0  0  0  0  0  0  0  0  0
   -3.8581   -1.6364   -0.2289 C   0  0  0  0  0  0  0  0  0  0  0  0
   -2.5500   -1.1232   -0.4245 O   0  0  0  0  0  0  0  0  0  0  0  0
   -2.0159    0.4659    1.6741 H   0  0  0  0  0  0  0  0  0  0  0  0
   -1.7141    1.9112    0.7245 H   0  0  0  0  0  0  0  0  0  0  0  0
   -5.7879   -0.6117   -0.2108 H   0  0  0  0  0  0  0  0  0  0  0  0
   -4.9183   -0.5161   -1.7441 H   0  0  0  0  0  0  0  0  0  0  0  0
    3.7089   -2.9855    0.1976 H   0  0  0  0  0  0  0  0  0  0  0  0
    5.2102   -2.0640    0.3705 H   0  0  0  0  0  0  0  0  0  0  0  0
    4.0578   -2.1280    1.7121 H   0  0  0  0  0  0  0  0  0  0  0  0
    3.1547    1.8674   -1.5113 H   0  0  0  0  0  0  0  0  0  0  0  0
   -0.0137   -0.4797    0.9442 H   0  0  0  0  0  0  0  0  0  0  0  0
   -2.2049    0.6671   -1.3626 H   0  0  0  0  0  0  0  0  0  0  0  0
   -4.2869    1.6148   -0.7420 H   0  0  0  0  0  0  0  0  0  0  0  0
   -4.2331    0.9020    0.8673 H   0  0  0  0  0  0  0  0  0  0  0  0
   -4.0228   -1.8942    0.8251 H   0  0  0  0  0  0  0  0  0  0  0  0
   -3.9710   -2.5494   -0.8172 H   0  0  0  0  0  0  0  0  0  0  0  0
    5.0945   -0.0013   -0.9772 H   0  0  0  0  0  0  0  0  0  0  0  0
  6  5  2  0
  6  7  1  0
  5  4  1  0
 10  9  2  0
  7  9  1  0
  7  8  2  0
  4  3  1  0
  4  8  1  0
  9 11  1  0
 11  1  1  0
  1 12  1  0
 12 13  1  0
 12 15  1  0
 13  2  1  0
 15 14  1  0
  2 14  1  0
  1 16  1  0
  1 17  1  0
  2 18  1  0
  2 19  1  0
  3 20  1  0
  3 21  1  0
  3 22  1  0
  5 30  1  0
  6 23  1  0
 11 24  1  0
 12 25  1  6
 13 26  1  0
 13 27  1  0
 14 28  1  0
 14 29  1  0
M  END
