
     RDKit          3D

 59 59  0  0  0  0  0  0  0  0999 V2000
    0.6519   -1.3412    1.1474 C   0  0  0  0  0  0  0  0  0  0  0  0
    2.4033    0.3215    0.8071 C   0  0  0  0  0  0  0  0  0  0  0  0
    4.2446    1.7174    0.3301 C   0  0  0  0  0  0  0  0  0  0  0  0
    5.6641    1.5539   -0.1206 C   0  0  0  0  0  0  0  0  0  0  0  0
    5.9774    1.5481   -1.4768 C   0  0  0  0  0  0  0  0  0  0  0  0
    7.2891    1.3767   -1.8977 C   0  0  0  0  0  0  0  0  0  0  0  0
    8.3018    1.2063   -0.9624 C   0  0  0  0  0  0  0  0  0  0  0  0
    0.5657   -2.7163   -1.1884 O   0  0  0  0  0  0  0  0  0  0  0  0
   -0.2657   -1.5653   -0.4141 P   0  0  1  0  0  0  0  0  0  0  0  0
   -1.7500   -2.2040   -0.0201 N   0  0  0  0  0  0  0  0  0  0  0  0
   -2.9623   -1.4757   -0.3256 C   0  0  1  0  0  0  0  0  0  0  0  0
   -4.1890   -2.3593   -0.0852 C   0  0  0  0  0  0  0  0  0  0  0  0
   -4.1645   -3.7043   -0.8146 C   0  0  1  0  0  0  0  0  0  0  0  0
   -5.4609   -4.4576   -0.5338 C   0  0  0  0  0  0  0  0  0  0  0  0
   -3.9425   -3.5418   -2.3136 C   0  0  0  0  0  0  0  0  0  0  0  0
   -3.0793   -0.2051    0.5203 C   0  0  0  0  0  0  0  0  0  0  0  0
   -3.8425    0.7598   -0.0040 N   0  0  0  0  0  0  0  0  0  0  0  0
   -4.1195    2.0031    0.6870 C   0  0  0  0  0  0  0  0  0  0  0  0
   -5.0074    2.9035   -0.1540 C   0  0  0  0  0  0  0  0  0  0  0  0
   -5.3210    4.2065    0.5662 C   0  0  0  0  0  0  0  0  0  0  0  0
   -6.1737    5.0534   -0.2544 N   0  0  0  0  0  0  0  0  0  0  0  0
   -2.5387   -0.1091    1.6133 O   0  0  0  0  0  0  0  0  0  0  0  0
   -0.3511   -0.3536   -1.2691 O   0  0  0  0  0  0  0  0  0  0  0  0
    2.0180   -0.9679    0.8990 N   0  0  0  0  0  0  0  0  0  0  0  0
    3.6808    0.4034    0.4220 O   0  0  0  0  0  0  0  0  0  0  0  0
    7.9974    1.2088    0.3929 C   0  0  0  0  0  0  0  0  0  0  0  0
    6.6847    1.3811    0.8098 C   0  0  0  0  0  0  0  0  0  0  0  0
    1.7042    1.2796    1.0580 O   0  0  0  0  0  0  0  0  0  0  0  0
    0.1466   -0.5738    1.7316 H   0  0  0  0  0  0  0  0  0  0  0  0
    0.6228   -2.2597    1.7368 H   0  0  0  0  0  0  0  0  0  0  0  0
    4.2021    2.2132    1.3022 H   0  0  0  0  0  0  0  0  0  0  0  0
    3.6793    2.3202   -0.3837 H   0  0  0  0  0  0  0  0  0  0  0  0
    5.1908    1.6828   -2.2099 H   0  0  0  0  0  0  0  0  0  0  0  0
    7.5198    1.3784   -2.9551 H   0  0  0  0  0  0  0  0  0  0  0  0
    9.3257    1.0756   -1.2879 H   0  0  0  0  0  0  0  0  0  0  0  0
    0.4313   -3.6140   -0.8602 H   0  0  0  0  0  0  0  0  0  0  0  0
   -1.7986   -2.7724    0.8157 H   0  0  0  0  0  0  0  0  0  0  0  0
   -2.9392   -1.1911   -1.3798 H   0  0  0  0  0  0  0  0  0  0  0  0
   -4.2981   -2.5355    0.9908 H   0  0  0  0  0  0  0  0  0  0  0  0
   -5.0774   -1.8014   -0.3966 H   0  0  0  0  0  0  0  0  0  0  0  0
   -3.3372   -4.2964   -0.4111 H   0  0  0  0  0  0  0  0  0  0  0  0
   -6.3199   -3.9359   -0.9621 H   0  0  0  0  0  0  0  0  0  0  0  0
   -5.4339   -5.4597   -0.9643 H   0  0  0  0  0  0  0  0  0  0  0  0
   -5.6375   -4.5617    0.5385 H   0  0  0  0  0  0  0  0  0  0  0  0
   -4.6903   -2.8765   -2.7529 H   0  0  0  0  0  0  0  0  0  0  0  0
   -2.9563   -3.1331   -2.5380 H   0  0  0  0  0  0  0  0  0  0  0  0
   -4.0161   -4.5034   -2.8241 H   0  0  0  0  0  0  0  0  0  0  0  0
   -4.2171    0.6362   -0.9314 H   0  0  0  0  0  0  0  0  0  0  0  0
   -4.6052    1.7904    1.6434 H   0  0  0  0  0  0  0  0  0  0  0  0
   -3.1812    2.5159    0.9168 H   0  0  0  0  0  0  0  0  0  0  0  0
   -4.5189    3.1274   -1.1066 H   0  0  0  0  0  0  0  0  0  0  0  0
   -5.9422    2.3826   -0.3870 H   0  0  0  0  0  0  0  0  0  0  0  0
   -5.7515    3.9739    1.5508 H   0  0  0  0  0  0  0  0  0  0  0  0
   -4.3874    4.7418    0.7586 H   0  0  0  0  0  0  0  0  0  0  0  0
   -7.0815    4.6146   -0.3502 H   0  0  0  0  0  0  0  0  0  0  0  0
   -6.3454    5.9254    0.2293 H   0  0  0  0  0  0  0  0  0  0  0  0
    2.6640   -1.6887    0.6187 H   0  0  0  0  0  0  0  0  0  0  0  0
    8.7830    1.0802    1.1260 H   0  0  0  0  0  0  0  0  0  0  0  0
    6.4545    1.3881    1.8688 H   0  0  0  0  0  0  0  0  0  0  0  0
 26 27  1  0
 26  7  2  0
 27  4  2  0
  7  6  1  0
  4  3  1  0
  4  5  1  0
  3 25  1  0
  6  5  2  0
 25  2  1  0
 28  2  2  0
  2 24  1  0
 24  1  1  0
  1  9  1  0
 23  9  2  0
  9  8  1  6
  9 10  1  0
 10 11  1  0
 18 17  1  0
 18 19  1  0
 17 16  1  0
 16 22  2  0
 16 11  1  0
 11 12  1  0
 19 20  1  0
 12 13  1  0
 20 21  1  0
 15 13  1  0
 13 14  1  0
  1 29  1  0
  1 30  1  0
  3 31  1  0
  3 32  1  0
  5 33  1  0
  6 34  1  0
  7 35  1  0
  8 36  1  0
 10 37  1  0
 11 38  1  6
 12 39  1  0
 12 40  1  0
 13 41  1  1
 14 42  1  0
 14 43  1  0
 14 44  1  0
 15 45  1  0
 15 46  1  0
 15 47  1  0
 17 48  1  0
 18 49  1  0
 18 50  1  0
 19 51  1  0
 19 52  1  0
 20 53  1  0
 20 54  1  0
 21 55  1  0
 21 56  1  0
 24 57  1  0
 26 58  1  0
 27 59  1  0
M  END
