
     RDKit          3D

 11 11  0  0  0  0  0  0  0  0999 V2000
    1.8535    0.5512    0.0273 C   0  0  0  0  0  0  0  0  0  0  0  0
    0.4977    0.0262    0.0335 C   0  0  0  0  0  0  0  0  0  0  0  0
    0.1079   -1.2901    0.0053 C   0  0  0  0  0  0  0  0  0  0  0  0
   -1.2934   -1.4409    0.0200 C   0  0  0  0  0  0  0  0  0  0  0  0
   -1.9455   -0.2380    0.0589 C   0  0  0  0  0  0  0  0  0  0  0  0
    2.8412   -0.1491   -0.0057 O   0  0  0  0  0  0  0  0  0  0  0  0
   -0.8676    1.0777    0.0779 S   0  0  0  0  0  0  0  0  0  0  0  0
    1.9346    1.6506    0.0542 H   0  0  0  0  0  0  0  0  0  0  0  0
    0.8078   -2.1129   -0.0243 H   0  0  0  0  0  0  0  0  0  0  0  0
   -1.8029   -2.3930    0.0028 H   0  0  0  0  0  0  0  0  0  0  0  0
   -3.0109   -0.0663    0.0771 H   0  0  0  0  0  0  0  0  0  0  0  0
  6  1  2  0
  1  2  1  0
  2  3  2  0
  2  7  1  0
  3  4  1  0
  7  5  1  0
  4  5  2  0
  1  8  1  0
  3  9  1  0
  4 10  1  0
  5 11  1  0
M  END
