
     RDKit          3D

 20 21  0  0  0  0  0  0  0  0999 V2000
   -1.6556    0.5394   -0.1247 C   0  0  0  0  0  0  0  0  0  0  0  0
   -1.8207   -1.9570   -0.0693 C   0  0  0  0  0  0  0  0  0  0  0  0
   -1.1024   -0.7060   -0.0645 N   0  0  0  0  0  0  0  0  0  0  0  0
    0.2626   -0.5222   -0.0031 C   0  0  0  0  0  0  0  0  0  0  0  0
    1.3214   -1.4103    0.0794 C   0  0  0  0  0  0  0  0  0  0  0  0
    2.5999   -0.8651    0.1203 C   0  0  0  0  0  0  0  0  0  0  0  0
    2.7997    0.5173    0.0812 C   0  0  0  0  0  0  0  0  0  0  0  0
    1.7296    1.3992   -0.0002 C   0  0  0  0  0  0  0  0  0  0  0  0
    0.4427    0.8724   -0.0423 C   0  0  0  0  0  0  0  0  0  0  0  0
   -0.7733    1.5084   -0.1149 N   0  0  0  0  0  0  0  0  0  0  0  0
   -2.9957    0.7062   -0.2504 N   0  0  0  0  0  0  0  0  0  0  0  0
   -2.4855   -2.0185   -0.9302 H   0  0  0  0  0  0  0  0  0  0  0  0
   -1.1123   -2.7777   -0.1334 H   0  0  0  0  0  0  0  0  0  0  0  0
   -2.4047   -2.0843    0.8425 H   0  0  0  0  0  0  0  0  0  0  0  0
    1.1754   -2.4827    0.1120 H   0  0  0  0  0  0  0  0  0  0  0  0
    3.4538   -1.5266    0.1850 H   0  0  0  0  0  0  0  0  0  0  0  0
    3.8090    0.9072    0.1160 H   0  0  0  0  0  0  0  0  0  0  0  0
    1.8890    2.4698   -0.0291 H   0  0  0  0  0  0  0  0  0  0  0  0
   -3.5985    0.0043    0.1488 H   0  0  0  0  0  0  0  0  0  0  0  0
   -3.3207    1.6445   -0.0811 H   0  0  0  0  0  0  0  0  0  0  0  0
  1  3  1  0
  1 10  2  0
  1 11  1  0
  2  3  1  0
  3  4  1  0
  4  5  2  0
  4  9  1  0
  5  6  1  0
  6  7  2  0
  7  8  1  0
  8  9  2  0
  9 10  1  0
  2 12  1  0
  2 13  1  0
  2 14  1  0
  5 15  1  0
  6 16  1  0
  7 17  1  0
  8 18  1  0
 11 19  1  0
 11 20  1  0
M  END
