
     RDKit          3D

 36 37  0  0  0  0  0  0  0  0999 V2000
    3.1688   -0.3633    0.3911 C   0  0  0  0  0  0  0  0  0  0  0  0
    2.5395   -1.5963   -0.2166 C   0  0  0  0  0  0  0  0  0  0  0  0
    1.2607   -1.2847   -0.8543 N   0  0  0  0  0  0  0  0  0  0  0  0
    0.5503   -0.2266   -0.7079 C   0  0  0  0  0  0  0  0  0  0  0  0
    0.9929    0.8997    0.1810 C   0  0  2  0  0  0  0  0  0  0  0  0
    2.1101    0.4426    1.1237 C   0  0  0  0  0  0  0  0  0  0  0  0
   -0.7179   -0.0938   -1.4789 C   0  0  0  0  0  0  0  0  0  0  0  0
   -1.9004    0.4120   -0.6348 C   0  0  2  0  0  0  0  0  0  0  0  0
   -1.4647    1.6416    0.1732 C   0  0  0  0  0  0  0  0  0  0  0  0
   -0.2131    1.4008    1.0020 C   0  0  0  0  0  0  0  0  0  0  0  0
    1.5014    2.0264   -0.7413 C   0  0  0  0  0  0  0  0  0  0  0  0
   -2.5510   -0.6631    0.2155 C   0  0  0  0  0  0  0  0  0  0  0  0
   -1.7142   -1.7517    0.8243 C   0  0  0  0  0  0  0  0  0  0  0  0
   -3.8679   -0.6271    0.4100 C   0  0  0  0  0  0  0  0  0  0  0  0
    3.9564   -0.6785    1.0749 H   0  0  0  0  0  0  0  0  0  0  0  0
    3.6481    0.2364   -0.3840 H   0  0  0  0  0  0  0  0  0  0  0  0
    3.1686   -2.0481   -0.9811 H   0  0  0  0  0  0  0  0  0  0  0  0
    2.3385   -2.3590    0.5379 H   0  0  0  0  0  0  0  0  0  0  0  0
    1.6833   -0.1628    1.9294 H   0  0  0  0  0  0  0  0  0  0  0  0
    2.5496    1.3231    1.5948 H   0  0  0  0  0  0  0  0  0  0  0  0
   -0.5229    0.6472   -2.2614 H   0  0  0  0  0  0  0  0  0  0  0  0
   -0.9602   -1.0259   -1.9919 H   0  0  0  0  0  0  0  0  0  0  0  0
   -2.6540    0.7508   -1.3479 H   0  0  0  0  0  0  0  0  0  0  0  0
   -1.2964    2.4675   -0.5233 H   0  0  0  0  0  0  0  0  0  0  0  0
   -2.2813    1.9551    0.8247 H   0  0  0  0  0  0  0  0  0  0  0  0
   -0.4222    0.6887    1.8038 H   0  0  0  0  0  0  0  0  0  0  0  0
    0.0923    2.3262    1.4959 H   0  0  0  0  0  0  0  0  0  0  0  0
    0.7141    2.4465   -1.3643 H   0  0  0  0  0  0  0  0  0  0  0  0
    1.8918    2.8289   -0.1148 H   0  0  0  0  0  0  0  0  0  0  0  0
    2.3041    1.6939   -1.3987 H   0  0  0  0  0  0  0  0  0  0  0  0
   -0.8895   -1.3692    1.4302 H   0  0  0  0  0  0  0  0  0  0  0  0
   -2.3176   -2.3905    1.4678 H   0  0  0  0  0  0  0  0  0  0  0  0
   -1.2754   -2.3963    0.0589 H   0  0  0  0  0  0  0  0  0  0  0  0
   -4.4902    0.1352   -0.0439 H   0  0  0  0  0  0  0  0  0  0  0  0
   -4.3717   -1.3547    1.0339 H   0  0  0  0  0  0  0  0  0  0  0  0
    0.9041   -2.0057   -1.4731 H   0  0  0  0  0  0  0  0  0  0  0  0
 10  9  1  0
 10  5  1  0
  6  5  1  0
  6  1  1  0
 14 12  2  0
  9  8  1  0
  5 11  1  6
  5  4  1  0
  1  2  1  0
 12  8  1  0
 12 13  1  0
  2  3  1  0
  8  7  1  0
  4  3  2  0
  4  7  1  0
  1 15  1  0
  1 16  1  0
  2 17  1  0
  2 18  1  0
  6 19  1  0
  6 20  1  0
  7 21  1  0
  7 22  1  0
  8 23  1  6
  9 24  1  0
  9 25  1  0
 10 26  1  0
 10 27  1  0
 11 28  1  0
 11 29  1  0
 11 30  1  0
 13 31  1  0
 13 32  1  0
 13 33  1  0
 14 34  1  0
 14 35  1  0
  3 36  1  0
M  CHG  1   3   1
M  END
