
     RDKit          3D

 36 38  0  0  0  0  0  0  0  0999 V2000
    3.3722   -2.6440   -0.0091 N   0  0  0  0  0  0  0  0  0  0  0  0
    2.2656   -1.8571    0.0269 C   0  0  0  0  0  0  0  0  0  0  0  0
    2.5348   -0.5818    0.0474 N   0  0  0  0  0  0  0  0  0  0  0  0
    3.9077   -0.5141    0.0232 C   0  0  0  0  0  0  0  0  0  0  0  0
    4.4562   -1.8057   -0.0127 C   0  0  0  0  0  0  0  0  0  0  0  0
    5.8235   -2.0334   -0.0442 C   0  0  0  0  0  0  0  0  0  0  0  0
    6.6490   -0.9211   -0.0376 C   0  0  0  0  0  0  0  0  0  0  0  0
    6.1022    0.3672    0.0002 C   0  0  0  0  0  0  0  0  0  0  0  0
    4.7397    0.6026    0.0308 C   0  0  0  0  0  0  0  0  0  0  0  0
    0.6853   -2.5855    0.0470 S   0  0  0  0  0  0  0  0  0  0  0  0
   -0.3016   -1.0713    0.0102 C   0  0  0  0  0  0  0  0  0  0  0  0
   -1.7536   -1.4686    0.0275 C   0  0  0  0  0  0  0  0  0  0  0  0
   -2.0776   -2.6334    0.0633 O   0  0  0  0  0  0  0  0  0  0  0  0
    7.2836    1.8468    0.0096 Br  0  0  0  0  0  0  0  0  0  0  0  0
   -2.7651   -0.3808   -0.0017 C   0  0  0  0  0  0  0  0  0  0  0  0
   -4.1137   -0.7277    0.0146 C   0  0  0  0  0  0  0  0  0  0  0  0
   -5.0913    0.2498   -0.0168 C   0  0  0  0  0  0  0  0  0  0  0  0
   -4.7201    1.5938   -0.0654 C   0  0  0  0  0  0  0  0  0  0  0  0
   -3.3821    1.9486   -0.0757 C   0  0  0  0  0  0  0  0  0  0  0  0
   -2.4103    0.9636   -0.0472 C   0  0  0  0  0  0  0  0  0  0  0  0
   -6.8028   -0.2709   -0.0371 S   0  0  1  0  0  0  0  0  0  0  0  0
   -7.4499    0.3803   -1.1581 O   0  0  0  0  0  0  0  0  0  0  0  0
   -5.8934    2.8507   -0.0895 Cl  0  0  0  0  0  0  0  0  0  0  0  0
   -6.7899   -1.7186    0.0556 O   0  0  0  0  0  0  0  0  0  0  0  0
   -7.5133    0.2794    1.3252 N   0  0  0  0  0  0  0  0  0  0  0  0
    6.2403   -3.0310   -0.0740 H   0  0  0  0  0  0  0  0  0  0  0  0
    7.7212   -1.0587   -0.0618 H   0  0  0  0  0  0  0  0  0  0  0  0
    4.3257    1.6016    0.0606 H   0  0  0  0  0  0  0  0  0  0  0  0
   -0.0670   -0.4441    0.8726 H   0  0  0  0  0  0  0  0  0  0  0  0
   -0.0722   -0.4945   -0.8881 H   0  0  0  0  0  0  0  0  0  0  0  0
   -4.3971   -1.7705    0.0508 H   0  0  0  0  0  0  0  0  0  0  0  0
   -3.0995    2.9914   -0.1092 H   0  0  0  0  0  0  0  0  0  0  0  0
   -1.3735    1.2721   -0.0604 H   0  0  0  0  0  0  0  0  0  0  0  0
   -7.1433   -0.1115    2.1837 H   0  0  0  0  0  0  0  0  0  0  0  0
   -7.6473    1.2819    1.3788 H   0  0  0  0  0  0  0  0  0  0  0  0
    3.3948   -3.6518   -0.0365 H   0  0  0  0  0  0  0  0  0  0  0  0
  1  2  1  0
  1  5  1  0
 10  2  1  0
  2  3  2  0
  3  4  1  0
  5  4  2  0
  4  9  1  0
  6  5  1  0
  6  7  2  0
  6 26  1  0
  7  8  1  0
  7 27  1  0
  8  9  2  0
  8 14  1  0
  9 28  1  0
 10 11  1  0
 11 12  1  0
 11 29  1  0
 11 30  1  0
 13 12  2  0
 12 15  1  0
 15 20  1  0
 15 16  2  0
 16 17  1  0
 16 31  1  0
 17 18  2  0
 17 21  1  0
 19 18  1  0
 18 23  1  0
 20 19  2  0
 19 32  1  0
 20 33  1  0
 21 25  1  1
 21 22  2  0
 21 24  2  0
 25 34  1  0
 25 35  1  0
  1 36  1  0
M  END
