
     RDKit          3D

 45 48  0  0  0  0  0  0  0  0999 V2000
   -3.3987    0.1826   -0.6643 C   0  0  0  0  0  0  0  0  0  0  0  0
   -2.5745   -0.6115    0.1661 C   0  0  0  0  0  0  0  0  0  0  0  0
   -3.0969    1.5210   -0.8788 C   0  0  0  0  0  0  0  0  0  0  0  0
   -1.4560   -0.0635    0.7824 C   0  0  0  0  0  0  0  0  0  0  0  0
   -1.1744    1.2749    0.5558 C   0  0  0  0  0  0  0  0  0  0  0  0
   -1.9783    2.0767   -0.2669 C   0  0  0  0  0  0  0  0  0  0  0  0
   -1.4753    3.3587   -0.3127 N   0  0  0  0  0  0  0  0  0  0  0  0
   -0.4197    3.3230    0.4488 C   0  0  0  0  0  0  0  0  0  0  0  0
   -0.1820    2.1087    1.0082 N   0  0  0  0  0  0  0  0  0  0  0  0
    0.9484    1.7389    1.8325 C   0  0  0  0  0  0  0  0  0  0  0  0
    1.9114    0.8343    1.1086 C   0  0  0  0  0  0  0  0  0  0  0  0
    2.1883   -0.4419    1.5899 C   0  0  0  0  0  0  0  0  0  0  0  0
    3.0616   -1.3059    0.9451 C   0  0  0  0  0  0  0  0  0  0  0  0
    3.6780   -0.8641   -0.2349 C   0  0  0  0  0  0  0  0  0  0  0  0
    3.4150    0.4105   -0.7302 C   0  0  0  0  0  0  0  0  0  0  0  0
    2.5372    1.2488   -0.0569 C   0  0  0  0  0  0  0  0  0  0  0  0
   -2.8631   -2.0797    0.3755 C   0  0  0  0  0  0  0  0  0  0  0  0
   -4.2940   -2.4680    0.0346 C   0  0  0  0  0  0  0  0  0  0  0  0
   -4.6706   -1.9125   -1.3303 C   0  0  0  0  0  0  0  0  0  0  0  0
   -4.6444   -0.3909   -1.3009 C   0  0  0  0  0  0  0  0  0  0  0  0
    4.5121   -1.7424   -0.8244 O   0  0  0  0  0  0  0  0  0  0  0  0
    5.1441   -1.3747   -2.0335 C   0  0  0  0  0  0  0  0  0  0  0  0
    3.3389   -2.6795    1.4793 C   0  0  0  0  0  0  0  0  0  0  0  0
   -3.7290    2.1286   -1.5169 H   0  0  0  0  0  0  0  0  0  0  0  0
   -0.8294   -0.6787    1.4174 H   0  0  0  0  0  0  0  0  0  0  0  0
    0.2340    4.1608    0.6483 H   0  0  0  0  0  0  0  0  0  0  0  0
    1.4369    2.6641    2.1415 H   0  0  0  0  0  0  0  0  0  0  0  0
    0.5844    1.2552    2.7406 H   0  0  0  0  0  0  0  0  0  0  0  0
    1.7044   -0.7780    2.5011 H   0  0  0  0  0  0  0  0  0  0  0  0
    3.8846    0.7657   -1.6374 H   0  0  0  0  0  0  0  0  0  0  0  0
    2.3467    2.2374   -0.4586 H   0  0  0  0  0  0  0  0  0  0  0  0
   -2.1809   -2.6630   -0.2527 H   0  0  0  0  0  0  0  0  0  0  0  0
   -2.6270   -2.3553    1.4063 H   0  0  0  0  0  0  0  0  0  0  0  0
   -4.3947   -3.5550    0.0556 H   0  0  0  0  0  0  0  0  0  0  0  0
   -4.9797   -2.0738    0.7915 H   0  0  0  0  0  0  0  0  0  0  0  0
   -3.9671   -2.2861   -2.0814 H   0  0  0  0  0  0  0  0  0  0  0  0
   -5.6622   -2.2551   -1.6321 H   0  0  0  0  0  0  0  0  0  0  0  0
   -5.5177   -0.0349   -0.7433 H   0  0  0  0  0  0  0  0  0  0  0  0
   -4.7566    0.0092   -2.3115 H   0  0  0  0  0  0  0  0  0  0  0  0
    5.7483   -2.2259   -2.3377 H   0  0  0  0  0  0  0  0  0  0  0  0
    4.4195   -1.1565   -2.8226 H   0  0  0  0  0  0  0  0  0  0  0  0
    5.7980   -0.5076   -1.9076 H   0  0  0  0  0  0  0  0  0  0  0  0
    4.3974   -2.8200    1.7048 H   0  0  0  0  0  0  0  0  0  0  0  0
    2.7782   -2.8600    2.3953 H   0  0  0  0  0  0  0  0  0  0  0  0
    3.0624   -3.4543    0.7621 H   0  0  0  0  0  0  0  0  0  0  0  0
 23 13  1  0
 21 22  1  0
 21 14  1  0
 13 14  1  0
 13 12  2  0
 14 15  2  0
 12 11  1  0
 15 16  1  0
 11 16  2  0
 11 10  1  0
 10  9  1  0
 17 18  1  0
 17  2  1  0
  4  2  2  0
  4  5  1  0
 18 19  1  0
  2  1  1  0
  9  5  1  0
  9  8  1  0
  5  6  2  0
 19 20  1  0
  8  7  2  0
  1 20  1  0
  1  3  2  0
  6  3  1  0
  6  7  1  0
  3 24  1  0
  4 25  1  0
  8 26  1  0
 10 27  1  0
 10 28  1  0
 12 29  1  0
 15 30  1  0
 16 31  1  0
 17 32  1  0
 17 33  1  0
 18 34  1  0
 18 35  1  0
 19 36  1  0
 19 37  1  0
 20 38  1  0
 20 39  1  0
 22 40  1  0
 22 41  1  0
 22 42  1  0
 23 43  1  0
 23 44  1  0
 23 45  1  0
M  END
