
     RDKit          3D

 50 53  0  0  0  0  0  0  0  0999 V2000
   -3.7167   -3.4516    2.0126 C   0  0  0  0  0  0  0  0  0  0  0  0
   -4.5459   -2.4307    0.8182 S   0  0  1  0  0  0  0  0  0  0  0  0
   -5.4020   -3.2794   -0.0058 O   0  0  0  0  0  0  0  0  0  0  0  0
   -5.1375   -1.2880    1.5084 O   0  0  0  0  0  0  0  0  0  0  0  0
   -3.2187   -1.8319   -0.2045 C   0  0  0  0  0  0  0  0  0  0  0  0
   -2.5343   -0.6914    0.1862 C   0  0  0  0  0  0  0  0  0  0  0  0
   -2.8875   -2.5221   -1.3610 C   0  0  0  0  0  0  0  0  0  0  0  0
   -1.8471   -2.0523   -2.1483 C   0  0  0  0  0  0  0  0  0  0  0  0
   -1.1546   -0.9089   -1.7815 C   0  0  0  0  0  0  0  0  0  0  0  0
   -1.4926   -0.2421   -0.6108 C   0  0  0  0  0  0  0  0  0  0  0  0
   -0.7764    0.9153   -0.2260 N   0  0  0  0  0  0  0  0  0  0  0  0
   -1.2608    2.2035   -0.2292 C   0  0  0  0  0  0  0  0  0  0  0  0
   -2.5021    2.7226   -0.5702 C   0  0  0  0  0  0  0  0  0  0  0  0
   -2.6092    4.0920   -0.4568 C   0  0  0  0  0  0  0  0  0  0  0  0
   -3.7838    4.6657   -0.7671 F   0  0  0  0  0  0  0  0  0  0  0  0
   -1.5681    4.9216   -0.0393 C   0  0  0  0  0  0  0  0  0  0  0  0
   -0.3398    4.3768    0.2877 C   0  0  0  0  0  0  0  0  0  0  0  0
   -0.1852    2.9971    0.1916 C   0  0  0  0  0  0  0  0  0  0  0  0
    0.9089    2.2013    0.4434 N   0  0  0  0  0  0  0  0  0  0  0  0
    0.5285    0.9887    0.1869 C   0  0  0  0  0  0  0  0  0  0  0  0
    1.3821   -0.2255    0.3971 C   0  0  2  0  0  0  0  0  0  0  0  0
    0.9759   -0.9613    1.6765 C   0  0  0  0  0  0  0  0  0  0  0  0
    2.7548    0.2250    0.4385 N   0  0  0  0  0  0  0  0  0  0  0  0
    3.7991   -0.5636    0.1764 C   0  0  0  0  0  0  0  0  0  0  0  0
    3.5615   -1.8287   -0.1838 N   0  0  0  0  0  0  0  0  0  0  0  0
    4.6188   -2.5760   -0.4460 C   0  0  0  0  0  0  0  0  0  0  0  0
    5.8920   -2.2444   -0.3940 N   0  0  0  0  0  0  0  0  0  0  0  0
    6.1678   -0.9822   -0.0321 C   0  0  0  0  0  0  0  0  0  0  0  0
    7.4499   -0.6315    0.0223 N   0  0  0  0  0  0  0  0  0  0  0  0
    5.1254   -0.0802    0.2690 C   0  0  0  0  0  0  0  0  0  0  0  0
    5.3930    1.2498    0.6457 C   0  0  0  0  0  0  0  0  0  0  0  0
    5.6079    2.3427    0.9556 N   0  0  0  0  0  0  0  0  0  0  0  0
   -3.0440   -2.8381    2.6079 H   0  0  0  0  0  0  0  0  0  0  0  0
   -4.4808   -3.8941    2.6511 H   0  0  0  0  0  0  0  0  0  0  0  0
   -3.1633   -4.2326    1.4965 H   0  0  0  0  0  0  0  0  0  0  0  0
   -2.7918   -0.1626    1.0954 H   0  0  0  0  0  0  0  0  0  0  0  0
   -3.4297   -3.4106   -1.6539 H   0  0  0  0  0  0  0  0  0  0  0  0
   -1.5817   -2.5722   -3.0580 H   0  0  0  0  0  0  0  0  0  0  0  0
   -0.3556   -0.5298   -2.4054 H   0  0  0  0  0  0  0  0  0  0  0  0
   -3.3324    2.1134   -0.9022 H   0  0  0  0  0  0  0  0  0  0  0  0
   -1.7330    5.9890    0.0235 H   0  0  0  0  0  0  0  0  0  0  0  0
    0.4783    5.0084    0.6075 H   0  0  0  0  0  0  0  0  0  0  0  0
    1.2682   -0.9062   -0.4491 H   0  0  0  0  0  0  0  0  0  0  0  0
   -0.0495   -1.3252    1.6133 H   0  0  0  0  0  0  0  0  0  0  0  0
    1.6261   -1.8216    1.8233 H   0  0  0  0  0  0  0  0  0  0  0  0
    1.0546   -0.3038    2.5417 H   0  0  0  0  0  0  0  0  0  0  0  0
    2.9023    1.1827    0.7247 H   0  0  0  0  0  0  0  0  0  0  0  0
    4.4086   -3.5991   -0.7408 H   0  0  0  0  0  0  0  0  0  0  0  0
    8.1570   -1.3150   -0.1892 H   0  0  0  0  0  0  0  0  0  0  0  0
    7.7540    0.2849    0.3018 H   0  0  0  0  0  0  0  0  0  0  0  0
 15 14  1  0
 16 14  1  0
 16 17  2  0
 14 13  2  0
 17 18  1  0
 13 12  1  0
 18 12  2  0
 18 19  1  0
 12 11  1  0
  3  2  2  0
 19 20  2  0
 11 20  1  0
 11 10  1  0
  2  1  1  1
  6 10  1  0
  6  5  2  0
 20 21  1  0
  2  5  1  0
  2  4  2  0
 10  9  2  0
  5  7  1  0
  9  8  1  0
 22 21  1  0
  7  8  2  0
 21 23  1  0
 23 24  1  0
 25 24  2  0
 25 26  1  0
 24 30  1  0
 26 27  2  0
 30 31  1  0
 30 28  2  0
 31 32  3  0
 27 28  1  0
 28 29  1  0
  1 33  1  0
  1 34  1  0
  1 35  1  0
  6 36  1  0
  7 37  1  0
  8 38  1  0
  9 39  1  0
 13 40  1  0
 16 41  1  0
 17 42  1  0
 21 43  1  6
 22 44  1  0
 22 45  1  0
 22 46  1  0
 23 47  1  0
 26 48  1  0
 29 49  1  0
 29 50  1  0
M  END
