
     RDKit          3D

 36 38  0  0  0  0  0  0  0  0999 V2000
    3.7104    1.1959   -0.2155 N   0  0  0  0  0  0  0  0  0  0  0  0
    4.7680    0.3264   -0.0077 C   0  0  0  0  0  0  0  0  0  0  0  0
    6.0179    0.6558   -0.5451 C   0  0  0  0  0  0  0  0  0  0  0  0
    7.1173   -0.1578   -0.3277 C   0  0  0  0  0  0  0  0  0  0  0  0
    6.9989   -1.3257    0.4158 C   0  0  0  0  0  0  0  0  0  0  0  0
    5.7616   -1.6539    0.9534 C   0  0  0  0  0  0  0  0  0  0  0  0
    4.6562   -0.8394    0.7570 C   0  0  0  0  0  0  0  0  0  0  0  0
    2.3542    0.9242   -0.1703 C   0  0  0  0  0  0  0  0  0  0  0  0
    1.4641    1.9667    0.1061 C   0  0  0  0  0  0  0  0  0  0  0  0
    0.0995    1.7522    0.1273 C   0  0  0  0  0  0  0  0  0  0  0  0
    1.8192   -0.3364   -0.4494 C   0  0  0  0  0  0  0  0  0  0  0  0
    0.4522   -0.5520   -0.4235 C   0  0  0  0  0  0  0  0  0  0  0  0
   -0.4227    0.4856   -0.1188 C   0  0  0  0  0  0  0  0  0  0  0  0
   -1.8142    0.3137   -0.0651 N   0  0  0  0  0  0  0  0  0  0  0  0
   -2.4475   -0.8416    0.0957 C   0  0  0  0  0  0  0  0  0  0  0  0
   -3.8100   -1.0160    0.1210 C   0  0  0  0  0  0  0  0  0  0  0  0
   -4.3131   -2.3197    0.3204 C   0  0  0  0  0  0  0  0  0  0  0  0
   -4.7326   -3.3844    0.4826 N   0  0  0  0  0  0  0  0  0  0  0  0
   -4.7632    0.0592   -0.0309 C   0  0  0  0  0  0  0  0  0  0  0  0
   -6.0769   -0.0849   -0.0123 N   0  0  0  0  0  0  0  0  0  0  0  0
   -6.4758    1.1496   -0.1799 N   0  0  0  0  0  0  0  0  0  0  0  0
   -5.5264    2.0174   -0.2968 N   0  0  0  0  0  0  0  0  0  0  0  0
   -4.4205    1.3518   -0.2058 N   0  0  0  0  0  0  0  0  0  0  0  0
    3.9607    2.1488   -0.4247 H   0  0  0  0  0  0  0  0  0  0  0  0
    6.1219    1.5568   -1.1386 H   0  0  0  0  0  0  0  0  0  0  0  0
    8.0727    0.1218   -0.7531 H   0  0  0  0  0  0  0  0  0  0  0  0
    7.8565   -1.9649    0.5779 H   0  0  0  0  0  0  0  0  0  0  0  0
    5.6513   -2.5507    1.5500 H   0  0  0  0  0  0  0  0  0  0  0  0
    3.7157   -1.1068    1.2195 H   0  0  0  0  0  0  0  0  0  0  0  0
    1.8472    2.9575    0.3174 H   0  0  0  0  0  0  0  0  0  0  0  0
   -0.5632    2.5780    0.3565 H   0  0  0  0  0  0  0  0  0  0  0  0
    2.4648   -1.1603   -0.7211 H   0  0  0  0  0  0  0  0  0  0  0  0
    0.0855   -1.5378   -0.6785 H   0  0  0  0  0  0  0  0  0  0  0  0
   -2.3861    1.1505   -0.1402 H   0  0  0  0  0  0  0  0  0  0  0  0
   -1.8232   -1.7156    0.2271 H   0  0  0  0  0  0  0  0  0  0  0  0
   -7.4527    1.4121   -0.2140 H   0  0  0  0  0  0  0  0  0  0  0  0
  1  2  1  0
  1  8  1  0
  1 24  1  0
  2  3  2  0
  2  7  1  0
  3  4  1  0
  3 25  1  0
  4  5  2  0
  4 26  1  0
  5  6  1  0
  5 27  1  0
  6  7  2  0
  6 28  1  0
  7 29  1  0
  8  9  2  0
  8 11  1  0
  9 10  1  0
  9 30  1  0
 10 13  2  0
 10 31  1  0
 11 12  2  0
 11 32  1  0
 12 13  1  0
 12 33  1  0
 13 14  1  0
 14 15  1  0
 14 34  1  0
 15 16  2  0
 15 35  1  0
 16 17  1  0
 16 19  1  0
 17 18  3  0
 19 20  2  0
 19 23  1  0
 20 21  1  0
 21 22  1  0
 21 36  1  0
 22 23  2  0
M  END
