
     RDKit          3D

 88 87  0  0  0  0  0  0  0  0999 V2000
   -0.1409    4.6476    2.9576 O   0  0  0  0  0  0  0  0  0  0  0  0
    1.8741    5.2266    1.4108 O   0  0  0  0  0  0  0  0  0  0  0  0
    0.8804    4.2397    1.9429 P   0  0  1  0  0  0  0  0  0  0  0  0
    1.6318    2.9219    2.5520 O   0  0  0  0  0  0  0  0  0  0  0  0
    0.1284    3.4941    0.6812 O   0  0  0  0  0  0  0  0  0  0  0  0
   -0.4670    4.2836   -0.3155 C   0  0  0  0  0  0  0  0  0  0  0  0
   -0.7451    3.4555   -1.5577 C   0  0  1  0  0  0  0  0  0  0  0  0
    0.4767    3.0051   -2.3250 C   0  0  0  0  0  0  0  0  0  0  0  0
    1.2724    2.1443   -1.5172 O   0  0  0  0  0  0  0  0  0  0  0  0
    2.4455    1.7548   -1.9988 C   0  0  0  0  0  0  0  0  0  0  0  0
    2.8486    2.0658   -3.0924 O   0  0  0  0  0  0  0  0  0  0  0  0
    3.1910    0.9035   -1.0071 C   0  0  0  0  0  0  0  0  0  0  0  0
    4.5313    0.4033   -1.5194 C   0  0  0  0  0  0  0  0  0  0  0  0
    5.2880   -0.3960   -0.4663 C   0  0  0  0  0  0  0  0  0  0  0  0
    6.6335   -0.9023   -0.9694 C   0  0  0  0  0  0  0  0  0  0  0  0
    7.4172   -1.6826    0.0782 C   0  0  0  0  0  0  0  0  0  0  0  0
    8.7654   -2.1780   -0.4297 C   0  0  0  0  0  0  0  0  0  0  0  0
    9.5611   -2.9481    0.6168 C   0  0  0  0  0  0  0  0  0  0  0  0
   10.9149   -3.4279    0.1090 C   0  0  0  0  0  0  0  0  0  0  0  0
   11.7160   -4.1942    1.1541 C   0  0  0  0  0  0  0  0  0  0  0  0
   13.0770   -4.6575    0.6493 C   0  0  0  0  0  0  0  0  0  0  0  0
   13.8676   -5.4318    1.6947 C   0  0  0  0  0  0  0  0  0  0  0  0
   -1.5042    2.2850   -1.2353 O   0  0  0  0  0  0  0  0  0  0  0  0
   -2.8275    2.3820   -1.1259 C   0  0  0  0  0  0  0  0  0  0  0  0
   -3.4404    3.4008   -1.3242 O   0  0  0  0  0  0  0  0  0  0  0  0
   -3.4385    1.0719   -0.7111 C   0  0  0  0  0  0  0  0  0  0  0  0
   -4.9561    1.0514   -0.7959 C   0  0  0  0  0  0  0  0  0  0  0  0
   -5.5335   -0.2817   -0.3369 C   0  0  0  0  0  0  0  0  0  0  0  0
   -7.0530   -0.3296   -0.4302 C   0  0  0  0  0  0  0  0  0  0  0  0
   -7.6423   -1.6516    0.0453 C   0  0  0  0  0  0  0  0  0  0  0  0
   -9.1613   -1.7041   -0.0575 C   0  0  0  0  0  0  0  0  0  0  0  0
   -9.7516   -3.0235    0.4245 C   0  0  0  0  0  0  0  0  0  0  0  0
  -11.2701   -3.0804    0.3159 C   0  0  0  0  0  0  0  0  0  0  0  0
  -11.8582   -4.4000    0.7998 C   0  0  0  0  0  0  0  0  0  0  0  0
  -13.3762   -4.4649    0.6839 C   0  0  0  0  0  0  0  0  0  0  0  0
  -13.9494   -5.7876    1.1738 C   0  0  0  0  0  0  0  0  0  0  0  0
    2.4380    2.6976    2.0753 H   0  0  0  0  0  0  0  0  0  0  0  0
    0.1732    5.1212   -0.6155 H   0  0  0  0  0  0  0  0  0  0  0  0
   -1.4088    4.7171    0.0396 H   0  0  0  0  0  0  0  0  0  0  0  0
   -1.3062    4.0944   -2.2471 H   0  0  0  0  0  0  0  0  0  0  0  0
    1.0418    3.8920   -2.6223 H   0  0  0  0  0  0  0  0  0  0  0  0
    0.1685    2.4881   -3.2376 H   0  0  0  0  0  0  0  0  0  0  0  0
    2.5505    0.0655   -0.7147 H   0  0  0  0  0  0  0  0  0  0  0  0
    3.3265    1.4953   -0.0954 H   0  0  0  0  0  0  0  0  0  0  0  0
    4.3806   -0.2177   -2.4066 H   0  0  0  0  0  0  0  0  0  0  0  0
    5.1438    1.2513   -1.8377 H   0  0  0  0  0  0  0  0  0  0  0  0
    4.6790   -1.2456   -0.1381 H   0  0  0  0  0  0  0  0  0  0  0  0
    5.4417    0.2269    0.4216 H   0  0  0  0  0  0  0  0  0  0  0  0
    7.2337   -0.0515   -1.3113 H   0  0  0  0  0  0  0  0  0  0  0  0
    6.4774   -1.5344   -1.8504 H   0  0  0  0  0  0  0  0  0  0  0  0
    6.8213   -2.5365    0.4195 H   0  0  0  0  0  0  0  0  0  0  0  0
    7.5710   -1.0505    0.9597 H   0  0  0  0  0  0  0  0  0  0  0  0
    9.3563   -1.3228   -0.7771 H   0  0  0  0  0  0  0  0  0  0  0  0
    8.6118   -2.8143   -1.3082 H   0  0  0  0  0  0  0  0  0  0  0  0
    8.9757   -3.8090    0.9591 H   0  0  0  0  0  0  0  0  0  0  0  0
    9.7078   -2.3140    1.4981 H   0  0  0  0  0  0  0  0  0  0  0  0
   11.4978   -2.5657   -0.2345 H   0  0  0  0  0  0  0  0  0  0  0  0
   10.7691   -4.0628   -0.7719 H   0  0  0  0  0  0  0  0  0  0  0  0
   11.1392   -5.0636    1.4898 H   0  0  0  0  0  0  0  0  0  0  0  0
   11.8529   -3.5639    2.0397 H   0  0  0  0  0  0  0  0  0  0  0  0
   13.6546   -3.7879    0.3201 H   0  0  0  0  0  0  0  0  0  0  0  0
   12.9393   -5.2814   -0.2393 H   0  0  0  0  0  0  0  0  0  0  0  0
   14.0359   -4.8303    2.5900 H   0  0  0  0  0  0  0  0  0  0  0  0
   13.3349   -6.3337    2.0021 H   0  0  0  0  0  0  0  0  0  0  0  0
   14.8426   -5.7385    1.3144 H   0  0  0  0  0  0  0  0  0  0  0  0
   -3.0051    0.2711   -1.3167 H   0  0  0  0  0  0  0  0  0  0  0  0
   -3.1117    0.8710    0.3156 H   0  0  0  0  0  0  0  0  0  0  0  0
   -5.3749    1.8550   -0.1850 H   0  0  0  0  0  0  0  0  0  0  0  0
   -5.2706    1.2490   -1.8246 H   0  0  0  0  0  0  0  0  0  0  0  0
   -5.1063   -1.0932   -0.9361 H   0  0  0  0  0  0  0  0  0  0  0  0
   -5.2261   -0.4743    0.6970 H   0  0  0  0  0  0  0  0  0  0  0  0
   -7.4794    0.4902    0.1586 H   0  0  0  0  0  0  0  0  0  0  0  0
   -7.3584   -0.1480   -1.4667 H   0  0  0  0  0  0  0  0  0  0  0  0
   -7.2101   -2.4725   -0.5378 H   0  0  0  0  0  0  0  0  0  0  0  0
   -7.3422   -1.8289    1.0843 H   0  0  0  0  0  0  0  0  0  0  0  0
   -9.5937   -0.8801    0.5213 H   0  0  0  0  0  0  0  0  0  0  0  0
   -9.4605   -1.5315   -1.0975 H   0  0  0  0  0  0  0  0  0  0  0  0
   -9.3154   -3.8476   -0.1513 H   0  0  0  0  0  0  0  0  0  0  0  0
   -9.4555   -3.1937    1.4658 H   0  0  0  0  0  0  0  0  0  0  0  0
  -11.7069   -2.2556    0.8902 H   0  0  0  0  0  0  0  0  0  0  0  0
  -11.5658   -2.9122   -0.7259 H   0  0  0  0  0  0  0  0  0  0  0  0
  -11.4162   -5.2250    0.2297 H   0  0  0  0  0  0  0  0  0  0  0  0
  -11.5678   -4.5661    1.8436 H   0  0  0  0  0  0  0  0  0  0  0  0
  -13.8177   -3.6398    1.2517 H   0  0  0  0  0  0  0  0  0  0  0  0
  -13.6666   -4.3030   -0.3590 H   0  0  0  0  0  0  0  0  0  0  0  0
  -15.0339   -5.8223    1.0638 H   0  0  0  0  0  0  0  0  0  0  0  0
  -13.5331   -6.6275    0.6141 H   0  0  0  0  0  0  0  0  0  0  0  0
  -13.7197   -5.9500    2.2285 H   0  0  0  0  0  0  0  0  0  0  0  0
  3  1  1  1
  2  3  2  0
  3  4  1  0
  3  5  1  0
  4 37  1  0
  5  6  1  0
  6  7  1  0
  6 38  1  0
  6 39  1  0
  7  8  1  0
  7 23  1  0
  7 40  1  6
  8  9  1  0
  8 41  1  0
  8 42  1  0
  9 10  1  0
 10 11  2  0
 10 12  1  0
 12 13  1  0
 12 43  1  0
 12 44  1  0
 13 14  1  0
 13 45  1  0
 13 46  1  0
 14 15  1  0
 14 47  1  0
 14 48  1  0
 15 16  1  0
 15 49  1  0
 15 50  1  0
 16 17  1  0
 16 51  1  0
 16 52  1  0
 17 18  1  0
 17 53  1  0
 17 54  1  0
 18 19  1  0
 18 55  1  0
 18 56  1  0
 19 20  1  0
 19 57  1  0
 19 58  1  0
 20 21  1  0
 20 59  1  0
 20 60  1  0
 21 22  1  0
 21 61  1  0
 21 62  1  0
 22 63  1  0
 22 64  1  0
 22 65  1  0
 23 24  1  0
 24 25  2  0
 24 26  1  0
 26 27  1  0
 26 66  1  0
 26 67  1  0
 27 28  1  0
 27 68  1  0
 27 69  1  0
 28 29  1  0
 28 70  1  0
 28 71  1  0
 29 30  1  0
 29 72  1  0
 29 73  1  0
 30 31  1  0
 30 74  1  0
 30 75  1  0
 31 32  1  0
 31 76  1  0
 31 77  1  0
 32 33  1  0
 32 78  1  0
 32 79  1  0
 33 34  1  0
 33 80  1  0
 33 81  1  0
 34 35  1  0
 34 82  1  0
 34 83  1  0
 35 36  1  0
 35 84  1  0
 35 85  1  0
 36 86  1  0
 36 87  1  0
 36 88  1  0
M  CHG  1   1  -1
M  END
