
     RDKit          3D

 58 61  0  0  0  0  0  0  0  0999 V2000
    5.7776   -0.4019    0.0334 C   0  0  0  0  0  0  0  0  0  0  0  0
    6.7236   -0.6247    1.0327 C   0  0  0  0  0  0  0  0  0  0  0  0
    8.0372   -0.2054    0.8655 C   0  0  0  0  0  0  0  0  0  0  0  0
    8.4185    0.4430   -0.3004 C   0  0  0  0  0  0  0  0  0  0  0  0
    7.4822    0.6669   -1.3033 C   0  0  0  0  0  0  0  0  0  0  0  0
    6.1717    0.2481   -1.1380 C   0  0  0  0  0  0  0  0  0  0  0  0
    2.4119   -2.4966    0.4897 S   0  0  0  0  0  0  0  0  0  0  0  0
    4.0996   -2.1805    0.4228 C   0  0  0  0  0  0  0  0  0  0  0  0
    4.3881   -0.8727    0.1997 C   0  0  0  0  0  0  0  0  0  0  0  0
    3.1993   -0.0685    0.0871 C   0  0  0  0  0  0  0  0  0  0  0  0
    3.1014    1.4042   -0.0453 C   0  0  0  0  0  0  0  0  0  0  0  0
    4.1436    2.1286    0.3704 N   0  0  0  0  0  0  0  0  0  0  0  0
    4.2027    3.5730    0.2552 C   0  0  0  0  0  0  0  0  0  0  0  0
    5.5716    4.0692    0.6818 C   0  0  0  0  0  0  0  0  0  0  0  0
    2.0805    1.9388   -0.4896 O   0  0  0  0  0  0  0  0  0  0  0  0
    2.0577   -0.8361    0.2034 C   0  0  0  0  0  0  0  0  0  0  0  0
    0.7709   -0.3658    0.1359 N   0  0  0  0  0  0  0  0  0  0  0  0
   -0.3454   -1.1113    0.3505 C   0  0  0  0  0  0  0  0  0  0  0  0
   -1.6308   -0.3206    0.2505 C   0  0  0  0  0  0  0  0  0  0  0  0
   -2.7866   -1.1551    0.4318 N   0  0  0  0  0  0  0  0  0  0  0  0
   -4.0214   -0.3950    0.4853 C   0  0  0  0  0  0  0  0  0  0  0  0
   -5.2114   -1.3202    0.7216 C   0  0  0  0  0  0  0  0  0  0  0  0
   -0.2860   -2.3011    0.5926 O   0  0  0  0  0  0  0  0  0  0  0  0
   -8.3939    0.5856    0.2096 C   0  0  0  0  0  0  0  0  0  0  0  0
   -7.2498   -0.0511   -0.3220 C   0  0  0  0  0  0  0  0  0  0  0  0
   -6.5087   -0.5849    0.7833 C   0  0  0  0  0  0  0  0  0  0  0  0
   -7.2170   -0.2542    1.9039 C   0  0  0  0  0  0  0  0  0  0  0  0
   -8.3419    0.4461    1.5648 N   0  0  0  0  0  0  0  0  0  0  0  0
   -7.0605   -0.0614   -1.7090 C   0  0  0  0  0  0  0  0  0  0  0  0
   -7.9975    0.5512   -2.5180 C   0  0  0  0  0  0  0  0  0  0  0  0
   -9.1278    1.1802   -1.9680 C   0  0  0  0  0  0  0  0  0  0  0  0
   -9.3423    1.2060   -0.6032 C   0  0  0  0  0  0  0  0  0  0  0  0
    6.4252   -1.1179    1.9494 H   0  0  0  0  0  0  0  0  0  0  0  0
    8.7613   -0.3823    1.6501 H   0  0  0  0  0  0  0  0  0  0  0  0
    9.4411    0.7728   -0.4296 H   0  0  0  0  0  0  0  0  0  0  0  0
    7.7759    1.1656   -2.2177 H   0  0  0  0  0  0  0  0  0  0  0  0
    5.4487    0.4171   -1.9262 H   0  0  0  0  0  0  0  0  0  0  0  0
    4.9425    1.6619    0.7671 H   0  0  0  0  0  0  0  0  0  0  0  0
    4.0017    3.8667   -0.7772 H   0  0  0  0  0  0  0  0  0  0  0  0
    3.4273    4.0313    0.8735 H   0  0  0  0  0  0  0  0  0  0  0  0
    6.3614    3.6335    0.0679 H   0  0  0  0  0  0  0  0  0  0  0  0
    5.6262    5.1515    0.5765 H   0  0  0  0  0  0  0  0  0  0  0  0
    5.7752    3.8258    1.7255 H   0  0  0  0  0  0  0  0  0  0  0  0
    0.7007    0.6187   -0.1076 H   0  0  0  0  0  0  0  0  0  0  0  0
   -1.6119    0.4390    1.0397 H   0  0  0  0  0  0  0  0  0  0  0  0
   -1.6181    0.2396   -0.6987 H   0  0  0  0  0  0  0  0  0  0  0  0
   -2.8428   -1.8275   -0.3237 H   0  0  0  0  0  0  0  0  0  0  0  0
   -3.9528    0.3160    1.3138 H   0  0  0  0  0  0  0  0  0  0  0  0
   -4.1927    0.2057   -0.4218 H   0  0  0  0  0  0  0  0  0  0  0  0
   -5.2472   -2.0673   -0.0791 H   0  0  0  0  0  0  0  0  0  0  0  0
   -5.0498   -1.8716    1.6509 H   0  0  0  0  0  0  0  0  0  0  0  0
   -6.9986   -0.4719    2.9380 H   0  0  0  0  0  0  0  0  0  0  0  0
   -9.0284    0.7849    2.2174 H   0  0  0  0  0  0  0  0  0  0  0  0
   -6.1936   -0.5449   -2.1434 H   0  0  0  0  0  0  0  0  0  0  0  0
   -7.8627    0.5493   -3.5921 H   0  0  0  0  0  0  0  0  0  0  0  0
   -9.8458    1.6519   -2.6266 H   0  0  0  0  0  0  0  0  0  0  0  0
  -10.2154    1.6881   -0.1820 H   0  0  0  0  0  0  0  0  0  0  0  0
    4.8027   -2.9945    0.5119 H   0  0  0  0  0  0  0  0  0  0  0  0
 14 13  1  0
 13 12  1  0
 12 11  1  0
  5  6  2  0
  5  4  1  0
  6  1  1  0
  4  3  2  0
  1  9  1  0
  1  2  2  0
  8  9  2  0
  8  7  1  0
  9 10  1  0
 10 16  2  0
 10 11  1  0
 16 17  1  0
 16  7  1  0
 17 18  1  0
 11 15  2  0
  3  2  1  0
 19 18  1  0
 19 20  1  0
 31 30  2  0
 31 32  1  0
 18 23  2  0
 30 29  1  0
 32 24  2  0
 21 20  1  0
 21 22  1  0
 29 25  2  0
 24 25  1  0
 24 28  1  0
 25 26  1  0
 28 27  1  0
 26 27  2  0
 26 22  1  0
  2 33  1  0
  3 34  1  0
  4 35  1  0
  5 36  1  0
  6 37  1  0
  8 58  1  0
 12 38  1  0
 13 39  1  0
 13 40  1  0
 14 41  1  0
 14 42  1  0
 14 43  1  0
 17 44  1  0
 19 45  1  0
 19 46  1  0
 20 47  1  0
 21 48  1  0
 21 49  1  0
 22 50  1  0
 22 51  1  0
 27 52  1  0
 28 53  1  0
 29 54  1  0
 30 55  1  0
 31 56  1  0
 32 57  1  0
M  END
