
     RDKit          3D

 32 34  0  0  0  0  0  0  0  0999 V2000
   -3.0223   -1.0682    1.6658 C   0  0  0  0  0  0  0  0  0  0  0  0
   -4.3455   -1.3010    1.3089 C   0  0  0  0  0  0  0  0  0  0  0  0
   -2.2724   -0.1158    0.9937 C   0  0  0  0  0  0  0  0  0  0  0  0
   -0.1547   -0.6587   -1.4924 C   0  0  0  0  0  0  0  0  0  0  0  0
   -4.9165   -0.5602    0.2830 C   0  0  0  0  0  0  0  0  0  0  0  0
    0.6905   -1.7709   -1.4481 C   0  0  0  0  0  0  0  0  0  0  0  0
   -2.8286    0.6240   -0.0535 C   0  0  0  0  0  0  0  0  0  0  0  0
    0.1725    0.5525   -0.9003 C   0  0  0  0  0  0  0  0  0  0  0  0
    1.4211    0.6997   -0.2392 C   0  0  0  0  0  0  0  0  0  0  0  0
   -4.1671    0.3987   -0.3841 C   0  0  0  0  0  0  0  0  0  0  0  0
    1.8854   -1.6139   -0.8003 C   0  0  0  0  0  0  0  0  0  0  0  0
    2.2515   -0.4087   -0.2154 C   0  0  0  0  0  0  0  0  0  0  0  0
   -2.0755    1.6579   -0.7757 C   0  0  0  0  0  0  0  0  0  0  0  0
   -0.7719    1.6734   -1.0682 C   0  0  0  0  0  0  0  0  0  0  0  0
    1.7725    1.9663    0.4372 C   0  0  0  0  0  0  0  0  0  0  0  0
    3.9333   -1.8513    0.0262 C   0  0  0  0  0  0  0  0  0  0  0  0
    3.0553    2.0410    0.7639 O   0  0  0  0  0  0  0  0  0  0  0  0
    0.9831    2.8482    0.6742 O   0  0  0  0  0  0  0  0  0  0  0  0
    2.8577   -2.5313   -0.6001 O   0  0  0  0  0  0  0  0  0  0  0  0
    3.4577   -0.5525    0.3643 O   0  0  0  0  0  0  0  0  0  0  0  0
   -2.5737   -1.6256    2.4783 H   0  0  0  0  0  0  0  0  0  0  0  0
   -4.9298   -2.0455    1.8338 H   0  0  0  0  0  0  0  0  0  0  0  0
   -1.2500    0.0648    1.2979 H   0  0  0  0  0  0  0  0  0  0  0  0
   -5.9494   -0.7242    0.0038 H   0  0  0  0  0  0  0  0  0  0  0  0
    0.4099   -2.7076   -1.9101 H   0  0  0  0  0  0  0  0  0  0  0  0
   -4.6240    0.9774   -1.1784 H   0  0  0  0  0  0  0  0  0  0  0  0
   -2.6581    2.5153   -1.0974 H   0  0  0  0  0  0  0  0  0  0  0  0
   -0.3832    2.5634   -1.5502 H   0  0  0  0  0  0  0  0  0  0  0  0
    3.2220    2.8793    1.2205 H   0  0  0  0  0  0  0  0  0  0  0  0
    4.2324   -2.3790    0.9323 H   0  0  0  0  0  0  0  0  0  0  0  0
    4.7765   -1.7639   -0.6649 H   0  0  0  0  0  0  0  0  0  0  0  0
   -1.0970   -0.7443   -2.0158 H   0  0  0  0  0  0  0  0  0  0  0  0
  1  2  2  0
  1  3  1  0
  2  5  1  0
  3  7  2  0
  4  6  2  0
  4  8  1  0
  5 10  2  0
  6 11  1  0
  7 10  1  0
  7 13  1  0
  8  9  2  0
  8 14  1  0
  9 12  1  0
  9 15  1  0
 11 12  2  0
 11 19  1  0
 12 20  1  0
 13 14  2  0
 15 17  1  0
 15 18  2  0
 16 19  1  0
 16 20  1  0
  1 21  1  0
  2 22  1  0
  3 23  1  0
  5 24  1  0
  4 32  1  0
  6 25  1  0
 10 26  1  0
 13 27  1  0
 14 28  1  0
 17 29  1  0
 16 30  1  0
 16 31  1  0
M  END
