
     RDKit          3D

 38 40  0  0  0  0  0  0  0  0999 V2000
   -3.1610   -1.0519   -0.4830 C   0  0  0  0  0  0  0  0  0  0  0  0
   -2.9400   -2.2526   -1.1525 C   0  0  0  0  0  0  0  0  0  0  0  0
   -0.6120   -1.7222   -1.3845 C   0  0  0  0  0  0  0  0  0  0  0  0
    1.4881    0.0718   -0.0885 C   0  0  0  0  0  0  0  0  0  0  0  0
   -4.7036    0.6834    0.3129 N   0  0  0  0  0  0  0  0  0  0  0  0
   -3.6657    1.1035    1.2322 C   0  0  0  0  0  0  0  0  0  0  0  0
   -2.3185    1.0895    0.5305 C   0  0  0  0  0  0  0  0  0  0  0  0
   -2.0971   -0.1898   -0.2275 C   0  0  0  0  0  0  0  0  0  0  0  0
   -4.5505   -0.7161   -0.0123 C   0  0  0  0  0  0  0  0  0  0  0  0
   -1.6726   -2.5902   -1.5949 C   0  0  0  0  0  0  0  0  0  0  0  0
   -0.8224   -0.5349   -0.6936 C   0  0  0  0  0  0  0  0  0  0  0  0
    0.2341    0.3735   -0.4892 N   0  0  0  0  0  0  0  0  0  0  0  0
    1.7988   -1.1856    0.5279 C   0  0  0  0  0  0  0  0  0  0  0  0
    2.9779   -1.4996    0.9392 N   0  0  0  0  0  0  0  0  0  0  0  0
    3.9732   -0.6454    0.8024 N   0  0  0  0  0  0  0  0  0  0  0  0
    5.2745   -1.0810    1.2810 C   0  0  0  0  0  0  0  0  0  0  0  0
    3.8589    0.6236    0.2618 C   0  0  0  0  0  0  0  0  0  0  0  0
    4.8322    1.3621    0.1862 O   0  0  0  0  0  0  0  0  0  0  0  0
    2.5382    0.9502   -0.1861 C   0  0  0  0  0  0  0  0  0  0  0  0
    2.3257    2.5123   -0.8727 Cl  0  0  0  0  0  0  0  0  0  0  0  0
   -3.7723   -2.9216   -1.3384 H   0  0  0  0  0  0  0  0  0  0  0  0
    0.3706   -1.9619   -1.7713 H   0  0  0  0  0  0  0  0  0  0  0  0
   -6.1454    2.0165    1.0202 H   0  0  0  0  0  0  0  0  0  0  0  0
   -6.7764    0.6685    0.0745 H   0  0  0  0  0  0  0  0  0  0  0  0
   -6.2620    0.4039    1.7462 H   0  0  0  0  0  0  0  0  0  0  0  0
   -3.8835    2.1160    1.5768 H   0  0  0  0  0  0  0  0  0  0  0  0
   -3.6322    0.4617    2.1298 H   0  0  0  0  0  0  0  0  0  0  0  0
   -2.2636    1.9428   -0.1543 H   0  0  0  0  0  0  0  0  0  0  0  0
   -1.5222    1.2325    1.2650 H   0  0  0  0  0  0  0  0  0  0  0  0
   -5.2678   -0.9795   -0.7950 H   0  0  0  0  0  0  0  0  0  0  0  0
   -4.7951   -1.3616    0.8520 H   0  0  0  0  0  0  0  0  0  0  0  0
   -1.5097   -3.5166   -2.1297 H   0  0  0  0  0  0  0  0  0  0  0  0
    0.0623    1.3328   -0.7529 H   0  0  0  0  0  0  0  0  0  0  0  0
    1.0322   -1.9296    0.6904 H   0  0  0  0  0  0  0  0  0  0  0  0
    5.1708   -2.0993    1.6395 H   0  0  0  0  0  0  0  0  0  0  0  0
    6.0081   -1.0546    0.4779 H   0  0  0  0  0  0  0  0  0  0  0  0
    5.6209   -0.4462    2.0947 H   0  0  0  0  0  0  0  0  0  0  0  0
   -6.0300    0.9509    0.8189 C   0  0  0  0  0  0  0  0  0  0  0  0
 38  5  1  0
  9  5  1  0
  9  1  1  0
  5  6  1  0
  6  7  1  0
  1  2  2  0
  1  8  1  0
  2 10  1  0
  7  8  1  0
  8 11  2  0
 10  3  2  0
 11  3  1  0
 11 12  1  0
 13 14  2  0
 13  4  1  0
 14 15  1  0
 12  4  1  0
  4 19  2  0
 15 16  1  0
 15 17  1  0
 19 17  1  0
 19 20  1  0
 17 18  2  0
  2 21  1  0
  3 22  1  0
 38 23  1  0
 38 24  1  0
 38 25  1  0
  6 26  1  0
  6 27  1  0
  7 28  1  0
  7 29  1  0
  9 30  1  0
  9 31  1  0
 10 32  1  0
 12 33  1  0
 13 34  1  0
 16 35  1  0
 16 36  1  0
 16 37  1  0
M  END
