
     RDKit          3D

 21 21  0  0  0  0  0  0  0  0999 V2000
   -1.0561    0.2262   -2.2076 S   0  0  0  0  0  0  0  0  0  0  0  0
    0.3564   -0.4360   -1.4672 C   0  0  0  0  0  0  0  0  0  0  0  0
    1.4364   -0.2798   -2.2842 C   0  0  0  0  0  0  0  0  0  0  0  0
    1.1271    0.3723   -3.5113 C   0  0  0  0  0  0  0  0  0  0  0  0
   -0.1878    0.7048   -3.6086 C   0  0  0  0  0  0  0  0  0  0  0  0
    0.3058   -1.0451   -0.1046 C   0  0  0  0  0  0  0  0  0  0  0  0
    0.0443   -0.0245    1.0042 C   0  0  0  0  0  0  0  0  0  0  0  0
    0.0654   -0.6892    2.3703 C   0  0  0  0  0  0  0  0  0  0  0  0
   -0.1788    0.2617    3.5083 C   0  0  0  0  0  0  0  0  0  0  0  0
   -0.0889   -0.3468    4.6875 O   0  0  0  0  0  0  0  0  0  0  0  0
   -0.4289    1.4358    3.3937 O   0  0  0  0  0  0  0  0  0  0  0  0
    2.4266   -0.6227   -2.0156 H   0  0  0  0  0  0  0  0  0  0  0  0
    1.8542    0.5817   -4.2830 H   0  0  0  0  0  0  0  0  0  0  0  0
   -0.6935    1.1996   -4.4233 H   0  0  0  0  0  0  0  0  0  0  0  0
    1.2624   -1.5419    0.0751 H   0  0  0  0  0  0  0  0  0  0  0  0
   -0.4583   -1.8273   -0.0689 H   0  0  0  0  0  0  0  0  0  0  0  0
   -0.9214    0.4586    0.8392 H   0  0  0  0  0  0  0  0  0  0  0  0
    0.8014    0.7611    0.9552 H   0  0  0  0  0  0  0  0  0  0  0  0
    1.0245   -1.1884    2.5406 H   0  0  0  0  0  0  0  0  0  0  0  0
   -0.6887   -1.4815    2.4245 H   0  0  0  0  0  0  0  0  0  0  0  0
   -0.2544    0.2886    5.3998 H   0  0  0  0  0  0  0  0  0  0  0  0
  1  2  1  0
  1  5  1  0
  2  3  2  0
  2  6  1  0
  3  4  1  0
  3 12  1  0
  4  5  2  0
  4 13  1  0
  5 14  1  0
  6  7  1  0
  6 15  1  0
  6 16  1  0
  7  8  1  0
  7 17  1  0
  7 18  1  0
  8  9  1  0
  8 19  1  0
  8 20  1  0
  9 10  1  0
  9 11  2  0
 10 21  1  0
M  END
