
     RDKit          3D

 33 34  0  0  0  0  0  0  0  0999 V2000
   -0.2339   -2.4210   -0.9117 C   0  0  0  0  0  0  0  0  0  0  0  0
   -1.6834   -3.1735    1.3401 C   0  0  0  0  0  0  0  0  0  0  0  0
   -0.8652   -2.0531    1.3897 C   0  0  0  0  0  0  0  0  0  0  0  0
   -1.6475    0.6366   -1.5766 N   0  0  0  0  0  0  0  0  0  0  0  0
   -1.6897    1.6977   -0.6073 C   0  0  2  0  0  0  0  0  0  0  0  0
   -1.0695    1.2293    0.7240 C   0  0  0  0  0  0  0  0  0  0  0  0
    0.3271    0.7552    0.5267 C   0  0  0  0  0  0  0  0  0  0  0  0
    1.4893    1.4823    0.4529 C   0  0  0  0  0  0  0  0  0  0  0  0
    2.4853    0.5360    0.1657 C   0  0  0  0  0  0  0  0  0  0  0  0
    1.9821   -0.6835    0.0750 N   0  0  0  0  0  0  0  0  0  0  0  0
    0.6864   -0.5376    0.2981 N   0  0  0  0  0  0  0  0  0  0  0  0
   -0.1524   -1.6809    0.2594 C   0  0  0  0  0  0  0  0  0  0  0  0
   -1.0416   -3.5469   -0.9476 C   0  0  0  0  0  0  0  0  0  0  0  0
   -1.7706   -3.9219    0.1746 C   0  0  0  0  0  0  0  0  0  0  0  0
    4.3873    1.9175    0.0799 O   0  0  0  0  0  0  0  0  0  0  0  0
    4.6260   -0.2802   -0.2636 O   0  0  0  0  0  0  0  0  0  0  0  0
   -3.0877    2.2446   -0.3396 C   0  0  0  0  0  0  0  0  0  0  0  0
   -4.1073    1.7227   -0.7123 O   0  0  0  0  0  0  0  0  0  0  0  0
   -3.0525    3.3716    0.3604 O   0  0  0  0  0  0  0  0  0  0  0  0
    0.3225   -2.1117   -1.7864 H   0  0  0  0  0  0  0  0  0  0  0  0
   -2.2435   -3.4653    2.2183 H   0  0  0  0  0  0  0  0  0  0  0  0
   -0.7758   -1.4819    2.3051 H   0  0  0  0  0  0  0  0  0  0  0  0
   -2.2408   -0.1344   -1.2963 H   0  0  0  0  0  0  0  0  0  0  0  0
   -1.9925    0.9574   -2.4718 H   0  0  0  0  0  0  0  0  0  0  0  0
   -1.0847    2.5295   -0.9814 H   0  0  0  0  0  0  0  0  0  0  0  0
   -1.0565    2.0522    1.4380 H   0  0  0  0  0  0  0  0  0  0  0  0
   -1.6955    0.4478    1.1587 H   0  0  0  0  0  0  0  0  0  0  0  0
    1.5985    2.5469    0.5791 H   0  0  0  0  0  0  0  0  0  0  0  0
   -1.1089   -4.1279   -1.8577 H   0  0  0  0  0  0  0  0  0  0  0  0
   -2.4045   -4.7979    0.1400 H   0  0  0  0  0  0  0  0  0  0  0  0
    5.5607   -0.0457   -0.3637 H   0  0  0  0  0  0  0  0  0  0  0  0
   -3.9515    3.6937    0.5263 H   0  0  0  0  0  0  0  0  0  0  0  0
    3.9175    0.8082   -0.0071 C   0  0  0  0  0  0  0  0  0  0  0  0
  2 14  2  0
  2  3  1  0
 14 13  1  0
  3 12  2  0
 13  1  2  0
 12  1  1  0
 12 11  1  0
  6  7  1  0
  6  5  1  0
  4  5  1  0
 11  7  1  0
 11 10  1  0
  7  8  2  0
  5 17  1  0
 18 17  2  0
 10  9  2  0
 17 19  1  0
  8  9  1  0
  9 33  1  0
 33 15  2  0
 33 16  1  0
  1 20  1  0
  2 21  1  0
  3 22  1  0
  4 23  1  0
  4 24  1  0
  5 25  1  6
  6 26  1  0
  6 27  1  0
  8 28  1  0
 13 29  1  0
 14 30  1  0
 16 31  1  0
 19 32  1  0
M  END
