
     RDKit          3D

 59 59  0  0  0  0  0  0  0  0999 V2000
   -1.4511    0.1623  -10.0176 S   0  0  0  0  0  0  0  0  0  0  0  0
   -0.5119   -0.7328   -8.7372 C   0  0  0  0  0  0  0  0  0  0  0  0
   -0.4418    0.1253   -7.4844 C   0  0  0  0  0  0  0  0  0  0  0  0
    0.3160   -0.5953   -6.3804 C   0  0  0  0  0  0  0  0  0  0  0  0
    0.3435    0.2151   -5.1793 N   0  0  0  0  0  0  0  0  0  0  0  0
    1.0060   -0.1479   -4.0786 C   0  0  0  0  0  0  0  0  0  0  0  0
    1.6516   -1.1836   -3.9904 O   0  0  0  0  0  0  0  0  0  0  0  0
    0.9569    0.8578   -2.9326 C   0  0  2  0  0  0  0  0  0  0  0  0
    2.0534    1.9083   -3.1182 C   0  0  0  0  0  0  0  0  0  0  0  0
    1.1104    0.1269   -1.6974 N   0  0  0  0  0  0  0  0  0  0  0  0
    0.6621    0.5709   -0.5181 C   0  0  0  0  0  0  0  0  0  0  0  0
    0.0559    1.6218   -0.3712 O   0  0  0  0  0  0  0  0  0  0  0  0
    0.9565   -0.3614    0.6451 C   0  0  0  0  0  0  0  0  0  0  0  0
    0.5110    0.2324    1.8724 N   0  0  0  0  0  0  0  0  0  0  0  0
    0.6696   -0.3757    3.0593 C   0  0  0  0  0  0  0  0  0  0  0  0
    1.2205   -1.4592    3.1687 O   0  0  0  0  0  0  0  0  0  0  0  0
    0.1269    0.4040    4.2609 C   0  0  2  0  0  0  0  0  0  0  0  0
    1.1833    0.6524    5.2196 N   0  0  0  0  0  0  0  0  0  0  0  0
    1.7359   -0.2588    6.0867 C   0  0  0  0  0  0  0  0  0  0  0  0
    2.9785    0.1476    6.5482 N   0  0  0  0  0  0  0  0  0  0  0  0
    1.1518   -1.3467    6.4150 N   0  0  0  0  0  0  0  0  0  0  0  0
   -1.1448   -0.2456    4.8197 C   0  0  1  0  0  0  0  0  0  0  0  0
   -1.6407    0.4880    6.0650 C   0  0  0  0  0  0  0  0  0  0  0  0
   -2.9414   -0.1107    6.5907 C   0  0  0  0  0  0  0  0  0  0  0  0
   -4.0248   -0.1303    5.5195 C   0  0  0  0  0  0  0  0  0  0  0  0
   -3.5390   -0.8612    4.2735 C   0  0  0  0  0  0  0  0  0  0  0  0
   -2.2382   -0.2644    3.7468 C   0  0  0  0  0  0  0  0  0  0  0  0
   -1.2666   -0.7082  -11.0154 H   0  0  0  0  0  0  0  0  0  0  0  0
    0.4898   -0.9461   -9.1101 H   0  0  0  0  0  0  0  0  0  0  0  0
   -1.0040   -1.6814   -8.5218 H   0  0  0  0  0  0  0  0  0  0  0  0
   -1.4534    0.3597   -7.1409 H   0  0  0  0  0  0  0  0  0  0  0  0
    0.0522    1.0731   -7.7128 H   0  0  0  0  0  0  0  0  0  0  0  0
    1.3373   -0.8054   -6.7057 H   0  0  0  0  0  0  0  0  0  0  0  0
   -0.1584   -1.5581   -6.1699 H   0  0  0  0  0  0  0  0  0  0  0  0
   -0.2268    1.0455   -5.1530 H   0  0  0  0  0  0  0  0  0  0  0  0
   -0.0150    1.3557   -2.9234 H   0  0  0  0  0  0  0  0  0  0  0  0
    3.0379    1.4409   -3.1410 H   0  0  0  0  0  0  0  0  0  0  0  0
    1.9141    2.4616   -4.0466 H   0  0  0  0  0  0  0  0  0  0  0  0
    2.0283    2.6212   -2.2957 H   0  0  0  0  0  0  0  0  0  0  0  0
    1.6387   -0.7330   -1.7393 H   0  0  0  0  0  0  0  0  0  0  0  0
    0.4605   -1.3202    0.4608 H   0  0  0  0  0  0  0  0  0  0  0  0
    2.0298   -0.5696    0.6782 H   0  0  0  0  0  0  0  0  0  0  0  0
    0.0450    1.1247    1.8102 H   0  0  0  0  0  0  0  0  0  0  0  0
   -0.1656    1.4014    3.9139 H   0  0  0  0  0  0  0  0  0  0  0  0
    1.8252    1.3591    4.8981 H   0  0  0  0  0  0  0  0  0  0  0  0
    3.2736   -0.3005    7.4010 H   0  0  0  0  0  0  0  0  0  0  0  0
    3.1434    1.1423    6.5863 H   0  0  0  0  0  0  0  0  0  0  0  0
    1.7015   -1.8454    7.1054 H   0  0  0  0  0  0  0  0  0  0  0  0
   -0.9087   -1.2728    5.1034 H   0  0  0  0  0  0  0  0  0  0  0  0
   -0.8773    0.4516    6.8424 H   0  0  0  0  0  0  0  0  0  0  0  0
   -1.8011    1.5466    5.8248 H   0  0  0  0  0  0  0  0  0  0  0  0
   -2.7536   -1.1336    6.9359 H   0  0  0  0  0  0  0  0  0  0  0  0
   -3.2803    0.4508    7.4653 H   0  0  0  0  0  0  0  0  0  0  0  0
   -4.9360   -0.5967    5.9022 H   0  0  0  0  0  0  0  0  0  0  0  0
   -4.2899    0.8990    5.2533 H   0  0  0  0  0  0  0  0  0  0  0  0
   -3.3819   -1.9186    4.5121 H   0  0  0  0  0  0  0  0  0  0  0  0
   -4.3021   -0.8312    3.4920 H   0  0  0  0  0  0  0  0  0  0  0  0
   -2.4295    0.7597    3.4015 H   0  0  0  0  0  0  0  0  0  0  0  0
   -1.9139   -0.8295    2.8685 H   0  0  0  0  0  0  0  0  0  0  0  0
  1  2  1  0
  1 28  1  0
  2  3  1  0
  2 29  1  0
  2 30  1  0
  3  4  1  0
  3 31  1  0
  3 32  1  0
  4  5  1  0
  4 33  1  0
  4 34  1  0
  5  6  1  0
  5 35  1  0
  6  7  2  0
  6  8  1  0
  8  9  1  0
  8 10  1  0
  8 36  1  1
  9 37  1  0
  9 38  1  0
  9 39  1  0
 10 11  1  0
 10 40  1  0
 11 12  2  0
 11 13  1  0
 13 14  1  0
 13 41  1  0
 13 42  1  0
 14 15  1  0
 14 43  1  0
 15 16  2  0
 15 17  1  0
 17 18  1  0
 17 22  1  0
 17 44  1  6
 18 19  1  0
 18 45  1  0
 19 20  1  0
 19 21  2  0
 20 46  1  0
 20 47  1  0
 21 48  1  0
 22 23  1  0
 22 27  1  0
 22 49  1  1
 23 24  1  0
 23 50  1  0
 23 51  1  0
 24 25  1  0
 24 52  1  0
 24 53  1  0
 25 26  1  0
 25 54  1  0
 25 55  1  0
 26 27  1  0
 26 56  1  0
 26 57  1  0
 27 58  1  0
 27 59  1  0
M  END
