
     RDKit          3D

 37 40  0  0  0  0  0  0  0  0999 V2000
   -3.3512   -1.6201   -1.0518 C   0  0  0  0  0  0  0  0  0  0  0  0
   -3.6254    0.2846    0.0681 C   0  0  0  0  0  0  0  0  0  0  0  0
   -1.3610   -0.5865    0.0230 C   0  0  0  0  0  0  0  0  0  0  0  0
    0.9023   -1.3909    0.0158 C   0  0  0  0  0  0  0  0  0  0  0  0
    1.3083   -0.3048    0.7931 C   0  0  0  0  0  0  0  0  0  0  0  0
    3.6602   -0.3084    0.1285 N   0  0  0  0  0  0  0  0  0  0  0  0
    5.0545   -0.3511    0.5319 C   0  0  0  0  0  0  0  0  0  0  0  0
    3.5862    0.7724   -0.8390 C   0  0  0  0  0  0  0  0  0  0  0  0
   -4.6829   -1.2795   -1.1285 C   0  0  0  0  0  0  0  0  0  0  0  0
   -2.7103   -0.6692   -0.3247 N   0  0  0  0  0  0  0  0  0  0  0  0
   -4.8597   -0.0756   -0.4218 C   0  0  0  0  0  0  0  0  0  0  0  0
   -0.9682    0.5082    0.7926 C   0  0  0  0  0  0  0  0  0  0  0  0
   -1.8995    1.4585    1.1732 N   0  0  0  0  0  0  0  0  0  0  0  0
   -3.2267    1.4282    0.8614 C   0  0  0  0  0  0  0  0  0  0  0  0
   -0.4176   -1.5326   -0.3640 C   0  0  0  0  0  0  0  0  0  0  0  0
    0.3675    0.6375    1.1681 C   0  0  0  0  0  0  0  0  0  0  0  0
   -4.0033    2.2980    1.2266 O   0  0  0  0  0  0  0  0  0  0  0  0
    2.7425   -0.1747    1.2318 C   0  0  0  0  0  0  0  0  0  0  0  0
    5.8153   -0.1919   -0.7847 C   0  0  0  0  0  0  0  0  0  0  0  0
    4.8377    0.5786   -1.6981 C   0  0  0  0  0  0  0  0  0  0  0  0
   -2.8317   -2.4681   -1.4642 H   0  0  0  0  0  0  0  0  0  0  0  0
    1.6298   -2.1279   -0.2968 H   0  0  0  0  0  0  0  0  0  0  0  0
    5.3025    0.4765    1.2180 H   0  0  0  0  0  0  0  0  0  0  0  0
    5.2833   -1.2840    1.0522 H   0  0  0  0  0  0  0  0  0  0  0  0
    2.6606    0.7261   -1.4156 H   0  0  0  0  0  0  0  0  0  0  0  0
    3.6115    1.7565   -0.3397 H   0  0  0  0  0  0  0  0  0  0  0  0
   -5.4418   -1.8466   -1.6429 H   0  0  0  0  0  0  0  0  0  0  0  0
   -5.7774    0.4720   -0.2811 H   0  0  0  0  0  0  0  0  0  0  0  0
   -1.5779    2.2428    1.7241 H   0  0  0  0  0  0  0  0  0  0  0  0
   -0.7110   -2.3851   -0.9621 H   0  0  0  0  0  0  0  0  0  0  0  0
    0.6657    1.4956    1.7601 H   0  0  0  0  0  0  0  0  0  0  0  0
    2.8748    0.7819    1.7666 H   0  0  0  0  0  0  0  0  0  0  0  0
    2.9616   -0.9646    1.9574 H   0  0  0  0  0  0  0  0  0  0  0  0
    6.7585    0.3338   -0.6390 H   0  0  0  0  0  0  0  0  0  0  0  0
    6.0526   -1.1665   -1.2118 H   0  0  0  0  0  0  0  0  0  0  0  0
    4.6068    0.0002   -2.5931 H   0  0  0  0  0  0  0  0  0  0  0  0
    5.2412    1.5349   -2.0284 H   0  0  0  0  0  0  0  0  0  0  0  0
  1  9  2  0
  1 10  1  0
  2 10  1  0
  2 11  2  0
  2 14  1  0
  3 10  1  0
  3 12  2  0
  3 15  1  0
  4  5  1  0
  4 15  2  0
  5 16  2  0
  5 18  1  0
  6  7  1  0
  6  8  1  0
  6 18  1  0
  7 19  1  0
  8 20  1  0
  9 11  1  0
 12 13  1  0
 12 16  1  0
 13 14  1  0
 14 17  2  0
 19 20  1  0
  1 21  1  0
  4 22  1  0
  7 23  1  0
  7 24  1  0
  8 25  1  0
  8 26  1  0
  9 27  1  0
 11 28  1  0
 13 29  1  0
 15 30  1  0
 16 31  1  0
 18 32  1  0
 18 33  1  0
 19 34  1  0
 19 35  1  0
 20 36  1  0
 20 37  1  0
M  END
