
     RDKit          3D

 54 58  0  0  0  0  0  0  0  0999 V2000
   -3.5997    4.7468   -0.8382 C   0  0  0  0  0  0  0  0  0  0  0  0
   -3.9396    3.2700   -0.9620 C   0  0  0  0  0  0  0  0  0  0  0  0
   -4.4682    2.6938    0.3563 C   0  0  0  0  0  0  0  0  0  0  0  0
   -4.8096    1.2474    0.2732 C   0  0  0  0  0  0  0  0  0  0  0  0
   -6.0540    0.8289    0.1551 N   0  0  0  0  0  0  0  0  0  0  0  0
   -6.0358   -0.5141    0.0309 C   0  0  0  0  0  0  0  0  0  0  0  0
   -4.7278   -0.9510    0.0727 C   0  0  0  0  0  0  0  0  0  0  0  0
   -3.9528    0.1952    0.2327 N   0  0  0  0  0  0  0  0  0  0  0  0
   -2.5599    0.0824    0.3204 C   0  0  0  0  0  0  0  0  0  0  0  0
   -1.6901    1.1428    0.5336 C   0  0  0  0  0  0  0  0  0  0  0  0
   -0.3203    0.9487    0.5850 C   0  0  0  0  0  0  0  0  0  0  0  0
    0.2106   -0.3293    0.4210 C   0  0  0  0  0  0  0  0  0  0  0  0
   -0.6499   -1.3983    0.2347 C   0  0  0  0  0  0  0  0  0  0  0  0
   -2.0296   -1.2174    0.1873 C   0  0  0  0  0  0  0  0  0  0  0  0
   -2.8030   -2.3463    0.0139 N   0  0  0  0  0  0  0  0  0  0  0  0
   -4.0860   -2.2219   -0.0318 C   0  0  0  0  0  0  0  0  0  0  0  0
   -4.9153   -3.4513   -0.2120 C   0  0  0  0  0  0  0  0  0  0  0  0
    1.5287   -0.6114    0.4375 O   0  0  0  0  0  0  0  0  0  0  0  0
    2.4486    0.4499    0.4691 C   0  0  0  0  0  0  0  0  0  0  0  0
    3.8331   -0.0744    0.2012 C   0  0  0  0  0  0  0  0  0  0  0  0
    4.0558   -1.3540   -0.3558 C   0  0  0  0  0  0  0  0  0  0  0  0
    5.3376   -1.7341   -0.6295 C   0  0  0  0  0  0  0  0  0  0  0  0
    6.4036   -0.8491   -0.3671 C   0  0  0  0  0  0  0  0  0  0  0  0
    7.7550   -1.1584   -0.6346 C   0  0  0  0  0  0  0  0  0  0  0  0
    8.7390   -0.2478   -0.3653 C   0  0  0  0  0  0  0  0  0  0  0  0
    8.4110    1.0096    0.1827 C   0  0  0  0  0  0  0  0  0  0  0  0
    7.1094    1.3337    0.4566 C   0  0  0  0  0  0  0  0  0  0  0  0
    6.0738    0.4098    0.1901 C   0  0  0  0  0  0  0  0  0  0  0  0
    4.7997    0.7632    0.4729 N   0  0  0  0  0  0  0  0  0  0  0  0
   -7.2975   -1.2912   -0.1276 C   0  0  0  0  0  0  0  0  0  0  0  0
   -3.2568    5.1524   -1.7892 H   0  0  0  0  0  0  0  0  0  0  0  0
   -4.4683    5.3282   -0.5253 H   0  0  0  0  0  0  0  0  0  0  0  0
   -2.8102    4.9158   -0.1040 H   0  0  0  0  0  0  0  0  0  0  0  0
   -4.7006    3.1261   -1.7318 H   0  0  0  0  0  0  0  0  0  0  0  0
   -3.0601    2.7160   -1.2990 H   0  0  0  0  0  0  0  0  0  0  0  0
   -3.7774    2.8982    1.1777 H   0  0  0  0  0  0  0  0  0  0  0  0
   -5.3939    3.2070    0.6197 H   0  0  0  0  0  0  0  0  0  0  0  0
   -2.0487    2.1477    0.6763 H   0  0  0  0  0  0  0  0  0  0  0  0
    0.3070    1.8116    0.7571 H   0  0  0  0  0  0  0  0  0  0  0  0
   -0.2608   -2.4015    0.1189 H   0  0  0  0  0  0  0  0  0  0  0  0
   -5.4795   -3.4123   -1.1448 H   0  0  0  0  0  0  0  0  0  0  0  0
   -4.2767   -4.3302   -0.2347 H   0  0  0  0  0  0  0  0  0  0  0  0
   -5.6359   -3.5678    0.5977 H   0  0  0  0  0  0  0  0  0  0  0  0
    2.2160    1.1969   -0.3007 H   0  0  0  0  0  0  0  0  0  0  0  0
    2.4381    0.9649    1.4359 H   0  0  0  0  0  0  0  0  0  0  0  0
    3.2311   -2.0183   -0.5636 H   0  0  0  0  0  0  0  0  0  0  0  0
    5.5408   -2.7096   -1.0528 H   0  0  0  0  0  0  0  0  0  0  0  0
    8.0050   -2.1242   -1.0546 H   0  0  0  0  0  0  0  0  0  0  0  0
    9.7729   -0.4876   -0.5703 H   0  0  0  0  0  0  0  0  0  0  0  0
    9.1997    1.7206    0.3902 H   0  0  0  0  0  0  0  0  0  0  0  0
    6.8490    2.2939    0.8831 H   0  0  0  0  0  0  0  0  0  0  0  0
   -7.3210   -1.8480   -1.0650 H   0  0  0  0  0  0  0  0  0  0  0  0
   -7.4415   -2.0124    0.6777 H   0  0  0  0  0  0  0  0  0  0  0  0
   -8.1461   -0.6105   -0.1215 H   0  0  0  0  0  0  0  0  0  0  0  0
 24 25  1  0
 24 23  2  0
 22 23  1  0
 22 21  2  0
 25 26  2  0
 23 28  1  0
 21 20  1  0
 26 27  1  0
 28 27  2  0
 28 29  1  0
 20 29  2  0
 20 19  1  0
 18 19  1  0
 18 12  1  0
 11 12  2  0
 11 10  1  0
 12 13  1  0
 10  9  2  0
  2  3  1  0
  2  1  1  0
 13 14  2  0
  3  4  1  0
  9 14  1  0
  9  8  1  0
 14 15  1  0
  8  4  1  0
  8  7  1  0
  4  5  2  0
 15 16  2  0
  5  6  1  0
  7 16  1  0
  7  6  2  0
 16 17  1  0
  6 30  1  0
  1 31  1  0
  1 32  1  0
  1 33  1  0
  2 34  1  0
  2 35  1  0
  3 36  1  0
  3 37  1  0
 10 38  1  0
 11 39  1  0
 13 40  1  0
 17 41  1  0
 17 42  1  0
 17 43  1  0
 19 44  1  0
 19 45  1  0
 21 46  1  0
 22 47  1  0
 24 48  1  0
 25 49  1  0
 26 50  1  0
 27 51  1  0
 30 52  1  0
 30 53  1  0
 30 54  1  0
M  END
