
     RDKit          3D

 39 42  0  0  0  0  0  0  0  0999 V2000
    0.7922    0.4266   -3.6130 C   0  0  0  0  0  0  0  0  0  0  0  0
    1.6115    0.3176   -2.3633 C   0  0  0  0  0  0  0  0  0  0  0  0
    0.6980    0.2521   -1.2752 O   0  0  0  0  0  0  0  0  0  0  0  0
    1.3868    0.2458   -0.0986 N   0  0  0  0  0  0  0  0  0  0  0  0
    0.6200    0.1131    0.9093 C   0  0  0  0  0  0  0  0  0  0  0  0
    0.3650   -0.7213   -4.2675 C   0  0  0  0  0  0  0  0  0  0  0  0
   -0.4137   -0.6314   -5.4108 C   0  0  0  0  0  0  0  0  0  0  0  0
   -0.9227   -2.0733   -6.2025 Cl  0  0  0  0  0  0  0  0  0  0  0  0
   -0.7761    0.6157   -5.9082 C   0  0  0  0  0  0  0  0  0  0  0  0
   -1.7347    0.7491   -7.3312 Cl  0  0  0  0  0  0  0  0  0  0  0  0
   -0.3579    1.7658   -5.2556 C   0  0  0  0  0  0  0  0  0  0  0  0
    0.4177    1.6688   -4.1130 C   0  0  0  0  0  0  0  0  0  0  0  0
    2.5166    0.0250    2.5140 N   0  0  0  0  0  0  0  0  0  0  0  0
    2.6320   -0.1008    3.8615 C   0  0  0  0  0  0  0  0  0  0  0  0
    1.4807   -0.1319    4.4757 N   0  0  0  0  0  0  0  0  0  0  0  0
    0.5568   -0.0148    3.4784 C   0  0  0  0  0  0  0  0  0  0  0  0
    1.1678    0.0721    2.2350 C   0  0  0  0  0  0  0  0  0  0  0  0
   -0.8709   -0.0062    3.7942 C   0  0  0  0  0  0  0  0  0  0  0  0
   -1.7807    0.7746    3.0809 C   0  0  0  0  0  0  0  0  0  0  0  0
   -3.1304    0.7663    3.3962 C   0  0  0  0  0  0  0  0  0  0  0  0
   -3.5750   -0.0211    4.4457 C   0  0  0  0  0  0  0  0  0  0  0  0
   -5.2584   -0.0358    4.8490 Cl  0  0  0  0  0  0  0  0  0  0  0  0
   -2.6891   -0.7910    5.1851 C   0  0  0  0  0  0  0  0  0  0  0  0
   -1.3448   -0.7776    4.8570 C   0  0  0  0  0  0  0  0  0  0  0  0
    3.7175    0.0497    1.8296 C   0  0  0  0  0  0  0  0  0  0  0  0
    4.2859   -0.1813    4.3375 S   0  0  0  0  0  0  0  0  0  0  0  0
    4.7616   -0.0515    2.6667 C   0  0  0  0  0  0  0  0  0  0  0  0
    2.2673    1.1859   -2.2558 H   0  0  0  0  0  0  0  0  0  0  0  0
    2.2376   -0.5791   -2.3876 H   0  0  0  0  0  0  0  0  0  0  0  0
   -0.4585    0.0104    0.8079 H   0  0  0  0  0  0  0  0  0  0  0  0
    0.6426   -1.6974   -3.8911 H   0  0  0  0  0  0  0  0  0  0  0  0
   -0.6373    2.7347   -5.6452 H   0  0  0  0  0  0  0  0  0  0  0  0
    0.7379    2.5749   -3.6150 H   0  0  0  0  0  0  0  0  0  0  0  0
   -1.4401    1.4273    2.2878 H   0  0  0  0  0  0  0  0  0  0  0  0
   -3.8214    1.3826    2.8378 H   0  0  0  0  0  0  0  0  0  0  0  0
   -3.0423   -1.3977    6.0079 H   0  0  0  0  0  0  0  0  0  0  0  0
   -0.6554   -1.3841    5.4290 H   0  0  0  0  0  0  0  0  0  0  0  0
    3.7386    0.1437    0.7579 H   0  0  0  0  0  0  0  0  0  0  0  0
    5.8052   -0.0538    2.3986 H   0  0  0  0  0  0  0  0  0  0  0  0
  1  2  1  0
  1  6  2  0
  1 12  1  0
  2  3  1  0
  2 28  1  0
  2 29  1  0
  3  4  1  0
  4  5  2  0
  5 17  1  0
  5 30  1  0
  6  7  1  0
  6 31  1  0
  7  8  1  0
  7  9  2  0
  9 10  1  0
  9 11  1  0
 11 12  2  0
 11 32  1  0
 12 33  1  0
 13 14  1  0
 13 17  1  0
 13 25  1  0
 14 15  2  0
 14 26  1  0
 15 16  1  0
 16 17  2  0
 16 18  1  0
 18 19  2  0
 18 24  1  0
 19 20  1  0
 19 34  1  0
 20 21  2  0
 20 35  1  0
 21 22  1  0
 21 23  1  0
 23 24  2  0
 23 36  1  0
 24 37  1  0
 25 27  2  0
 25 38  1  0
 26 27  1  0
 27 39  1  0
M  END
