
     RDKit          3D

 25 25  0  0  0  0  0  0  0  0999 V2000
   -2.5177    0.5194   -0.0205 C   0  0  0  0  0  0  0  0  0  0  0  0
   -1.2154   -0.2570    0.0109 C   0  0  0  0  0  0  0  0  0  0  0  0
    2.5233    0.7924    0.0244 C   0  0  0  0  0  0  0  0  0  0  0  0
    3.7639    0.1155    0.0277 C   0  0  0  0  0  0  0  0  0  0  0  0
    3.8322   -1.2556    0.0302 C   0  0  0  0  0  0  0  0  0  0  0  0
    2.6680   -2.0305    0.0300 C   0  0  0  0  0  0  0  0  0  0  0  0
    1.4512   -1.3899    0.0262 C   0  0  0  0  0  0  0  0  0  0  0  0
    1.3331    0.0115    0.0225 C   0  0  0  0  0  0  0  0  0  0  0  0
   -3.7224   -0.3806   -0.0118 C   0  0  0  0  0  0  0  0  0  0  0  0
   -3.6974   -1.5839    0.0620 O   0  0  0  0  0  0  0  0  0  0  0  0
   -4.8518    0.3161   -0.0932 O   0  0  0  0  0  0  0  0  0  0  0  0
    0.0052    0.6400    0.0148 C   0  0  0  0  0  0  0  0  0  0  0  0
   -0.1398    1.8550    0.0117 O   0  0  0  0  0  0  0  0  0  0  0  0
   -2.5963    1.1930    0.8369 H   0  0  0  0  0  0  0  0  0  0  0  0
   -2.5757    1.1603   -0.9036 H   0  0  0  0  0  0  0  0  0  0  0  0
   -1.1554   -0.9303   -0.8480 H   0  0  0  0  0  0  0  0  0  0  0  0
   -1.1797   -0.9014    0.8933 H   0  0  0  0  0  0  0  0  0  0  0  0
    4.6737    0.7046    0.0285 H   0  0  0  0  0  0  0  0  0  0  0  0
    4.8028   -1.7359    0.0325 H   0  0  0  0  0  0  0  0  0  0  0  0
    2.7219   -3.1101    0.0320 H   0  0  0  0  0  0  0  0  0  0  0  0
    0.5573   -1.9984    0.0258 H   0  0  0  0  0  0  0  0  0  0  0  0
   -5.6121   -0.2841   -0.0753 H   0  0  0  0  0  0  0  0  0  0  0  0
    3.3971    2.6378    0.0037 H   0  0  0  0  0  0  0  0  0  0  0  0
    1.6643    2.6510    0.0039 H   0  0  0  0  0  0  0  0  0  0  0  0
    2.5268    2.1376    0.0264 N   0  0  0  0  0  0  0  0  0  0  0  0
  1  2  1  0
  1  9  1  0
  1 14  1  0
  1 15  1  0
  2 12  1  0
  2 16  1  0
  2 17  1  0
  3  4  2  0
  3  8  1  0
  3 25  1  0
  4  5  1  0
  4 18  1  0
  5  6  2  0
  5 19  1  0
  6  7  1  0
  6 20  1  0
  7  8  2  0
  7 21  1  0
  8 12  1  0
  9 10  2  0
  9 11  1  0
 11 22  1  0
 12 13  2  0
 25 23  1  0
 25 24  1  0
M  END
