
     RDKit          3D

 17 18  0  0  0  0  0  0  0  0999 V2000
    1.6811    0.0361   -1.7276 C   0  0  0  0  0  0  0  0  0  0  0  0
    0.7217    0.0114   -2.7172 C   0  0  0  0  0  0  0  0  0  0  0  0
   -0.5080   -0.0087   -2.1596 N   0  0  0  0  0  0  0  0  0  0  0  0
   -0.3731    0.0029   -0.8006 C   0  0  0  0  0  0  0  0  0  0  0  0
   -1.3671   -0.0105    0.2123 C   0  0  0  0  0  0  0  0  0  0  0  0
   -2.5834   -0.0341    0.0810 O   0  0  0  0  0  0  0  0  0  0  0  0
   -0.7744    0.0109    1.4704 N   0  0  0  0  0  0  0  0  0  0  0  0
    0.5749    0.0332    1.7144 C   0  0  0  0  0  0  0  0  0  0  0  0
    0.9393    0.1017    3.0184 N   0  0  0  0  0  0  0  0  0  0  0  0
    1.4728    0.0401    0.7772 N   0  0  0  0  0  0  0  0  0  0  0  0
    0.9846    0.0304   -0.4952 C   0  0  0  0  0  0  0  0  0  0  0  0
    2.7488    0.0541   -1.8752 H   0  0  0  0  0  0  0  0  0  0  0  0
    0.8408    0.0073   -3.7883 H   0  0  0  0  0  0  0  0  0  0  0  0
   -1.3777   -0.0286   -2.6659 H   0  0  0  0  0  0  0  0  0  0  0  0
   -1.4098    0.0242    2.2574 H   0  0  0  0  0  0  0  0  0  0  0  0
    1.9119   -0.0803    3.2042 H   0  0  0  0  0  0  0  0  0  0  0  0
    0.3110   -0.2583    3.7179 H   0  0  0  0  0  0  0  0  0  0  0  0
  1  2  2  0
  1 11  1  0
  1 12  1  0
  2  3  1  0
  2 13  1  0
  3  4  1  0
  3 14  1  0
  4  5  1  0
  4 11  2  0
  5  6  2  0
  5  7  1  0
  7  8  1  0
  7 15  1  0
  8  9  1  0
  8 10  2  0
  9 16  1  0
  9 17  1  0
 10 11  1  0
M  END
