
     RDKit          3D

 28 27  0  0  0  0  0  0  0  0999 V2000
    2.8615    1.2095    0.1570 O   0  0  0  0  0  0  0  0  0  0  0  0
    2.8615    0.0143    0.0619 C   0  0  0  0  0  0  0  0  0  0  0  0
    4.0920   -0.8040    0.1498 C   0  0  0  0  0  0  0  0  0  0  0  0
    1.5672   -0.7568   -0.1216 C   0  0  0  0  0  0  0  0  0  0  0  0
    0.3496    0.1548   -0.0616 C   0  0  0  0  0  0  0  0  0  0  0  0
   -0.8938   -0.7052   -0.0664 C   0  0  0  0  0  0  0  0  0  0  0  0
   -2.2151    0.0352   -0.0018 N   0  0  1  0  0  0  0  0  0  0  0  0
   -2.4115    0.8677   -1.2190 C   0  0  0  0  0  0  0  0  0  0  0  0
   -3.3033   -0.9773    0.0666 C   0  0  0  0  0  0  0  0  0  0  0  0
   -2.2801    0.8972    1.2108 C   0  0  0  0  0  0  0  0  0  0  0  0
    4.9711   -0.1830    0.2779 H   0  0  0  0  0  0  0  0  0  0  0  0
    4.0246   -1.4640    1.0065 H   0  0  0  0  0  0  0  0  0  0  0  0
    4.2128   -1.4459   -0.7275 H   0  0  0  0  0  0  0  0  0  0  0  0
    1.6156   -1.2850   -1.0804 H   0  0  0  0  0  0  0  0  0  0  0  0
    1.5208   -1.5339    0.6464 H   0  0  0  0  0  0  0  0  0  0  0  0
    0.4161    0.7582    0.8451 H   0  0  0  0  0  0  0  0  0  0  0  0
    0.3864    0.8400   -0.9101 H   0  0  0  0  0  0  0  0  0  0  0  0
   -0.9406   -1.3234   -0.9653 H   0  0  0  0  0  0  0  0  0  0  0  0
   -0.8906   -1.3768    0.7953 H   0  0  0  0  0  0  0  0  0  0  0  0
   -2.3385    0.2368   -2.1017 H   0  0  0  0  0  0  0  0  0  0  0  0
   -3.3960    1.3232   -1.1856 H   0  0  0  0  0  0  0  0  0  0  0  0
   -1.6591    1.6464   -1.2649 H   0  0  0  0  0  0  0  0  0  0  0  0
   -3.1881   -1.5732    0.9646 H   0  0  0  0  0  0  0  0  0  0  0  0
   -4.2677   -0.4771    0.0890 H   0  0  0  0  0  0  0  0  0  0  0  0
   -3.2491   -1.6238   -0.8054 H   0  0  0  0  0  0  0  0  0  0  0  0
   -1.5436    1.6920    1.1425 H   0  0  0  0  0  0  0  0  0  0  0  0
   -3.2744    1.3320    1.2843 H   0  0  0  0  0  0  0  0  0  0  0  0
   -2.0820    0.2907    2.0959 H   0  0  0  0  0  0  0  0  0  0  0  0
  1  2  2  0
  2  3  1  0
  2  4  1  0
  3 11  1  0
  3 12  1  0
  3 13  1  0
  4  5  1  0
  4 14  1  0
  4 15  1  0
  5  6  1  0
  5 16  1  0
  5 17  1  0
  7  6  1  6
  6 18  1  0
  6 19  1  0
  7  8  1  0
  7  9  1  0
  7 10  1  0
  8 20  1  0
  8 21  1  0
  8 22  1  0
  9 23  1  0
  9 24  1  0
  9 25  1  0
 10 26  1  0
 10 27  1  0
 10 28  1  0
M  CHG  1   7   1
M  END
