
     RDKit          3D

 41 42  0  0  0  0  0  0  0  0999 V2000
   -5.7144   -0.7654    0.0109 C   0  0  0  0  0  0  0  0  0  0  0  0
   -5.3149    0.1490   -0.9595 C   0  0  0  0  0  0  0  0  0  0  0  0
   -4.0177    0.6351   -0.9574 C   0  0  0  0  0  0  0  0  0  0  0  0
   -3.0919    0.2391    0.0072 C   0  0  0  0  0  0  0  0  0  0  0  0
   -3.5084   -0.6754    0.9734 C   0  0  0  0  0  0  0  0  0  0  0  0
   -4.8002   -1.1749    0.9797 C   0  0  0  0  0  0  0  0  0  0  0  0
   -1.7321    0.8122    0.0145 C   0  0  0  0  0  0  0  0  0  0  0  0
   -1.5406    2.1582    0.0127 C   0  0  0  0  0  0  0  0  0  0  0  0
   -0.3188    2.7122   -0.0101 N   0  0  0  0  0  0  0  0  0  0  0  0
    0.8774    2.0138   -0.0236 C   0  0  0  0  0  0  0  0  0  0  0  0
    0.7308    0.5754   -0.0267 C   0  0  0  0  0  0  0  0  0  0  0  0
   -0.5597    0.0047   -0.0145 C   0  0  0  0  0  0  0  0  0  0  0  0
   -0.7331   -1.2893   -0.0402 O   0  0  0  0  0  0  0  0  0  0  0  0
   -6.9823   -1.2177   -0.0299 O   0  0  0  0  0  0  0  0  0  0  0  0
    1.9236    2.6499   -0.0335 O   0  0  0  0  0  0  0  0  0  0  0  0
    1.8786   -0.3254   -0.0518 C   0  0  0  0  0  0  0  0  0  0  0  0
    3.2928    0.1791   -0.0528 C   0  0  0  0  0  0  0  0  0  0  0  0
    1.6879   -1.5503   -0.0704 O   0  0  0  0  0  0  0  0  0  0  0  0
    4.3534   -0.9115   -0.0581 C   0  0  0  0  0  0  0  0  0  0  0  0
    5.7550   -0.3118   -0.0490 C   0  0  0  0  0  0  0  0  0  0  0  0
    6.8573   -1.3629   -0.0512 C   0  0  0  0  0  0  0  0  0  0  0  0
    8.2519   -0.7524   -0.0387 C   0  0  0  0  0  0  0  0  0  0  0  0
   -6.0160    0.4718   -1.7188 H   0  0  0  0  0  0  0  0  0  0  0  0
   -3.7220    1.3320   -1.7327 H   0  0  0  0  0  0  0  0  0  0  0  0
   -2.8260   -0.9966    1.7495 H   0  0  0  0  0  0  0  0  0  0  0  0
   -5.0969   -1.8788    1.7493 H   0  0  0  0  0  0  0  0  0  0  0  0
   -2.3679    2.8535    0.0366 H   0  0  0  0  0  0  0  0  0  0  0  0
   -0.2461    3.7203   -0.0025 H   0  0  0  0  0  0  0  0  0  0  0  0
    0.1933   -1.6959   -0.0600 H   0  0  0  0  0  0  0  0  0  0  0  0
   -7.1357   -1.8526    0.6787 H   0  0  0  0  0  0  0  0  0  0  0  0
    3.4204    0.8384   -0.9159 H   0  0  0  0  0  0  0  0  0  0  0  0
    3.4244    0.8344    0.8124 H   0  0  0  0  0  0  0  0  0  0  0  0
    4.2333   -1.5630    0.8120 H   0  0  0  0  0  0  0  0  0  0  0  0
    4.2390   -1.5501   -0.9385 H   0  0  0  0  0  0  0  0  0  0  0  0
    5.8774    0.3434   -0.9186 H   0  0  0  0  0  0  0  0  0  0  0  0
    5.8705    0.3321    0.8300 H   0  0  0  0  0  0  0  0  0  0  0  0
    6.7354   -2.0175    0.8173 H   0  0  0  0  0  0  0  0  0  0  0  0
    6.7450   -2.0041   -0.9309 H   0  0  0  0  0  0  0  0  0  0  0  0
    8.4121   -0.1183   -0.9131 H   0  0  0  0  0  0  0  0  0  0  0  0
    8.4017   -0.1318    0.8471 H   0  0  0  0  0  0  0  0  0  0  0  0
    9.0269   -1.5195   -0.0399 H   0  0  0  0  0  0  0  0  0  0  0  0
  9  8  1  0
  9 10  1  0
 15 10  2  0
  8  7  2  0
 10 11  1  0
  3  2  1  0
  3  4  2  0
  2  1  2  0
  7  4  1  0
  7 12  1  0
 11 12  2  0
 11 16  1  0
 22 21  1  0
 17 16  1  0
 17 19  1  0
  4  5  1  0
 12 13  1  0
 16 18  2  0
  1 14  1  0
  1  6  1  0
 20 19  1  0
 20 21  1  0
  5  6  2  0
  2 23  1  0
  3 24  1  0
  5 25  1  0
  6 26  1  0
  8 27  1  0
  9 28  1  0
 13 29  1  0
 14 30  1  0
 17 31  1  0
 17 32  1  0
 19 33  1  0
 19 34  1  0
 20 35  1  0
 20 36  1  0
 21 37  1  0
 21 38  1  0
 22 39  1  0
 22 40  1  0
 22 41  1  0
M  END
