
     RDKit          3D

 54 57  0  0  0  0  0  0  0  0999 V2000
   -2.6742    0.4268   -4.4522 Br  0  0  0  0  0  0  0  0  0  0  0  0
   -0.8646    0.7171   -4.0396 C   0  0  0  0  0  0  0  0  0  0  0  0
   -0.1768    1.7325   -4.7162 C   0  0  0  0  0  0  0  0  0  0  0  0
   -0.8486    2.4482   -5.6060 O   0  0  0  0  0  0  0  0  0  0  0  0
    1.1772    1.9117   -4.3977 C   0  0  0  0  0  0  0  0  0  0  0  0
    2.1569    3.2626   -5.2738 Br  0  0  0  0  0  0  0  0  0  0  0  0
    1.8107    1.1211   -3.4609 C   0  0  0  0  0  0  0  0  0  0  0  0
   -0.2449   -0.0655   -3.0871 C   0  0  0  0  0  0  0  0  0  0  0  0
    1.0994    0.1343   -2.7853 C   0  0  0  0  0  0  0  0  0  0  0  0
    1.8090   -0.7299   -1.8117 C   0  0  0  0  0  0  0  0  0  0  0  0
    3.0040   -0.9278   -1.9122 O   0  0  0  0  0  0  0  0  0  0  0  0
    1.0246   -1.3476   -0.7332 C   0  0  0  0  0  0  0  0  0  0  0  0
    1.2473   -2.5985   -0.2305 C   0  0  0  0  0  0  0  0  0  0  0  0
    2.2204   -3.6602   -0.5749 C   0  0  0  0  0  0  0  0  0  0  0  0
    3.3982   -3.6954    0.4020 C   0  0  0  0  0  0  0  0  0  0  0  0
   -0.0526   -0.7904    0.0436 C   0  0  0  0  0  0  0  0  0  0  0  0
   -0.7310    0.4298    0.0958 C   0  0  0  0  0  0  0  0  0  0  0  0
   -0.3881   -1.7857    0.9610 C   0  0  0  0  0  0  0  0  0  0  0  0
    0.3935   -2.8723    0.7744 O   0  0  0  0  0  0  0  0  0  0  0  0
   -1.3727   -1.6614    1.9175 C   0  0  0  0  0  0  0  0  0  0  0  0
   -2.0319   -0.4428    1.9311 C   0  0  0  0  0  0  0  0  0  0  0  0
   -1.7239    0.5926    1.0399 C   0  0  0  0  0  0  0  0  0  0  0  0
   -3.3092   -0.1664    3.1174 S   0  0  1  0  0  0  0  0  0  0  0  0
   -4.4458    0.4622    2.4730 O   0  0  0  0  0  0  0  0  0  0  0  0
   -3.4923   -1.3861    3.8809 O   0  0  0  0  0  0  0  0  0  0  0  0
   -2.7092    1.0122    4.1245 N   0  0  0  0  0  0  0  0  0  0  0  0
   -1.4791    0.9819    4.7768 C   0  0  0  0  0  0  0  0  0  0  0  0
   -0.8268   -0.2024    5.1183 C   0  0  0  0  0  0  0  0  0  0  0  0
   -0.8966    2.2082    5.1112 C   0  0  0  0  0  0  0  0  0  0  0  0
    0.3101    2.2538    5.7762 C   0  0  0  0  0  0  0  0  0  0  0  0
    0.9598    1.0675    6.0964 C   0  0  0  0  0  0  0  0  0  0  0  0
    0.3976   -0.1544    5.7634 C   0  0  0  0  0  0  0  0  0  0  0  0
    2.5076    1.1285    6.9379 S   0  0  1  0  0  0  0  0  0  0  0  0
    3.1924   -0.1370    6.7083 O   0  0  0  0  0  0  0  0  0  0  0  0
    3.2048    2.3600    6.5959 O   0  0  0  0  0  0  0  0  0  0  0  0
    2.0122    1.3153    8.5050 N   0  0  0  0  0  0  0  0  0  0  0  0
   -0.3046    3.1240   -6.0333 H   0  0  0  0  0  0  0  0  0  0  0  0
    2.8575    1.2773   -3.2368 H   0  0  0  0  0  0  0  0  0  0  0  0
   -0.8048   -0.8501   -2.5949 H   0  0  0  0  0  0  0  0  0  0  0  0
    2.5845   -3.4945   -1.5870 H   0  0  0  0  0  0  0  0  0  0  0  0
    1.7051   -4.6233   -0.5728 H   0  0  0  0  0  0  0  0  0  0  0  0
    4.0842   -4.4946    0.1249 H   0  0  0  0  0  0  0  0  0  0  0  0
    3.9474   -2.7551    0.3808 H   0  0  0  0  0  0  0  0  0  0  0  0
    3.0669   -3.8775    1.4237 H   0  0  0  0  0  0  0  0  0  0  0  0
   -0.4972    1.2408   -0.5790 H   0  0  0  0  0  0  0  0  0  0  0  0
   -1.6053   -2.4625    2.6058 H   0  0  0  0  0  0  0  0  0  0  0  0
   -2.2595    1.5317    1.0840 H   0  0  0  0  0  0  0  0  0  0  0  0
   -3.0852    1.9312    3.9218 H   0  0  0  0  0  0  0  0  0  0  0  0
   -1.2576   -1.1693    4.9086 H   0  0  0  0  0  0  0  0  0  0  0  0
   -1.3923    3.1327    4.8443 H   0  0  0  0  0  0  0  0  0  0  0  0
    0.7407    3.2137    6.0264 H   0  0  0  0  0  0  0  0  0  0  0  0
    0.8943   -1.0829    6.0091 H   0  0  0  0  0  0  0  0  0  0  0  0
    2.7794    1.6177    9.0995 H   0  0  0  0  0  0  0  0  0  0  0  0
    1.5961    0.4702    8.8836 H   0  0  0  0  0  0  0  0  0  0  0  0
  1  2  1  0
  2  3  2  0
  2  8  1  0
  3  4  1  0
  3  5  1  0
  4 37  1  0
  5  6  1  0
  5  7  2  0
  7  9  1  0
  7 38  1  0
  8  9  2  0
  8 39  1  0
  9 10  1  0
 10 11  2  0
 10 12  1  0
 12 13  2  0
 12 16  1  0
 13 14  1  0
 13 19  1  0
 14 15  1  0
 14 40  1  0
 14 41  1  0
 15 42  1  0
 15 43  1  0
 15 44  1  0
 16 17  2  0
 16 18  1  0
 17 22  1  0
 17 45  1  0
 18 19  1  0
 18 20  2  0
 20 21  1  0
 20 46  1  0
 21 22  2  0
 21 23  1  0
 22 47  1  0
 23 24  2  0
 23 25  2  0
 23 26  1  1
 26 27  1  0
 26 48  1  0
 27 28  2  0
 27 29  1  0
 28 32  1  0
 28 49  1  0
 29 30  2  0
 29 50  1  0
 30 31  1  0
 30 51  1  0
 31 32  2  0
 31 33  1  0
 32 52  1  0
 33 34  2  0
 33 35  2  0
 33 36  1  1
 36 53  1  0
 36 54  1  0
M  END
