
     RDKit          3D

 39 39  0  0  0  0  0  0  0  0999 V2000
   -7.5828   -0.9593   -0.2553 S   0  0  1  0  0  0  0  0  0  0  0  0
   -1.2250    1.0072    0.8579 N   0  0  0  0  0  0  0  0  0  0  0  0
   -1.7352    2.2489   -0.9672 O   0  0  0  0  0  0  0  0  0  0  0  0
   -3.4084    0.8065   -0.1171 C   0  0  0  0  0  0  0  0  0  0  0  0
   -4.8708   -1.0957    0.0939 C   0  0  0  0  0  0  0  0  0  0  0  0
   -3.5991   -0.5446    0.1488 C   0  0  0  0  0  0  0  0  0  0  0  0
   -5.9472   -0.2738   -0.1967 C   0  0  0  0  0  0  0  0  0  0  0  0
   -4.4986    1.6102   -0.4424 C   0  0  0  0  0  0  0  0  0  0  0  0
   -5.7751    1.0788   -0.4621 C   0  0  0  0  0  0  0  0  0  0  0  0
    1.1700   -0.5495    1.7601 F   0  0  0  0  0  0  0  0  0  0  0  0
    2.3918    1.4139   -0.8680 F   0  0  0  0  0  0  0  0  0  0  0  0
    3.6567   -1.1657    1.1430 F   0  0  0  0  0  0  0  0  0  0  0  0
    5.0104    1.1590   -1.0894 F   0  0  0  0  0  0  0  0  0  0  0  0
    5.6767   -1.2796   -2.0177 F   0  0  0  0  0  0  0  0  0  0  0  0
    0.6103   -0.5095   -0.3461 F   0  0  0  0  0  0  0  0  0  0  0  0
    2.9522    1.5417    1.2416 F   0  0  0  0  0  0  0  0  0  0  0  0
    3.1852   -1.1563   -0.9793 F   0  0  0  0  0  0  0  0  0  0  0  0
    5.5305    0.5723    0.9393 F   0  0  0  0  0  0  0  0  0  0  0  0
    6.0327   -2.0081   -0.0167 F   0  0  0  0  0  0  0  0  0  0  0  0
    7.2268   -0.4030   -0.8139 F   0  0  0  0  0  0  0  0  0  0  0  0
    0.1452    1.4175    0.9489 C   0  0  0  0  0  0  0  0  0  0  0  0
   -8.3926   -0.1854   -1.1833 O   0  0  0  0  0  0  0  0  0  0  0  0
    1.0868    0.2429    0.6677 C   0  0  1  0  0  0  0  0  0  0  0  0
   -7.4459   -2.3934   -0.4619 O   0  0  0  0  0  0  0  0  0  0  0  0
    2.5103    0.7135    0.2750 C   0  0  1  0  0  0  0  0  0  0  0  0
   -8.1408   -0.5913    1.2516 N   0  0  0  0  0  0  0  0  0  0  0  0
    3.5812   -0.3912    0.0485 C   0  0  1  0  0  0  0  0  0  0  0  0
    5.0237    0.1357   -0.2252 C   0  0  1  0  0  0  0  0  0  0  0  0
    6.0077   -0.9262   -0.7849 C   0  0  1  0  0  0  0  0  0  0  0  0
   -1.5777    0.3659    1.5525 H   0  0  0  0  0  0  0  0  0  0  0  0
   -5.0054   -2.1527    0.2763 H   0  0  0  0  0  0  0  0  0  0  0  0
   -2.7609   -1.1916    0.3719 H   0  0  0  0  0  0  0  0  0  0  0  0
   -4.3534    2.6578   -0.6680 H   0  0  0  0  0  0  0  0  0  0  0  0
   -6.6187    1.7147   -0.6932 H   0  0  0  0  0  0  0  0  0  0  0  0
    0.3149    2.2229    0.2372 H   0  0  0  0  0  0  0  0  0  0  0  0
    0.3588    1.8105    1.9433 H   0  0  0  0  0  0  0  0  0  0  0  0
   -7.8392   -1.2483    1.9638 H   0  0  0  0  0  0  0  0  0  0  0  0
   -9.1482   -0.4664    1.2687 H   0  0  0  0  0  0  0  0  0  0  0  0
   -2.0443    1.4176   -0.1317 C   0  0  0  0  0  0  0  0  0  0  0  0
  7  1  1  0
  1 26  1  1
 22  1  2  0
  1 24  2  0
 21  2  1  0
  2 39  1  0
  2 30  1  0
  3 39  2  0
 39  4  1  0
  4  8  2  0
  4  6  1  0
  6  5  2  0
  5  7  1  0
  5 31  1  0
  6 32  1  0
  9  7  2  0
  8  9  1  0
  8 33  1  0
  9 34  1  0
 23 10  1  1
 25 11  1  6
 27 12  1  1
 28 13  1  6
 29 14  1  6
 23 15  1  0
 16 25  1  0
 27 17  1  0
 28 18  1  0
 29 19  1  0
 20 29  1  0
 21 23  1  0
 21 35  1  0
 21 36  1  0
 25 23  1  0
 25 27  1  0
 26 37  1  0
 26 38  1  0
 28 27  1  0
 28 29  1  0
M  END
