
     RDKit          3D

 78 82  0  0  0  0  0  0  0  0999 V2000
   11.3153    0.5518   -0.4437 C   0  0  0  0  0  0  0  0  0  0  0  0
    9.9375    0.1546    1.5157 C   0  0  0  0  0  0  0  0  0  0  0  0
    8.6256    0.8300    1.1299 C   0  0  0  0  0  0  0  0  0  0  0  0
    6.4426    0.2734    0.2185 C   0  0  0  0  0  0  0  0  0  0  0  0
   -6.2057    2.8396   -1.1392 O   0  0  0  0  0  0  0  0  0  0  0  0
   -3.4402   -0.8210   -0.9149 O   0  0  0  0  0  0  0  0  0  0  0  0
    5.5296   -0.6110   -0.3727 C   0  0  0  0  0  0  0  0  0  0  0  0
    4.1933   -0.2930   -0.5388 C   0  0  0  0  0  0  0  0  0  0  0  0
    3.6987    0.9352   -0.0980 C   0  0  0  0  0  0  0  0  0  0  0  0
    1.2274    0.6627   -0.3503 C   0  0  0  0  0  0  0  0  0  0  0  0
    0.0957   -1.2749   -0.4227 C   0  0  0  0  0  0  0  0  0  0  0  0
   -1.1235   -0.6241   -0.4696 C   0  0  0  0  0  0  0  0  0  0  0  0
   -1.0416    0.8025   -0.5064 C   0  0  0  0  0  0  0  0  0  0  0  0
   -2.3948    2.8928   -0.4370 C   0  0  0  0  0  0  0  0  0  0  0  0
   -1.4610    3.8866   -0.7286 C   0  0  0  0  0  0  0  0  0  0  0  0
   -1.8031    5.2231   -0.5873 C   0  0  0  0  0  0  0  0  0  0  0  0
   -3.0697    5.5914   -0.1574 C   0  0  0  0  0  0  0  0  0  0  0  0
   -3.9995    4.6087    0.1461 C   0  0  0  0  0  0  0  0  0  0  0  0
   -3.6721    3.2676    0.0164 C   0  0  0  0  0  0  0  0  0  0  0  0
   -5.8054    2.0905   -0.2690 C   0  0  0  0  0  0  0  0  0  0  0  0
   -6.5707    0.8740    0.2035 C   0  0  0  0  0  0  0  0  0  0  0  0
   -8.0421    0.9028   -0.1686 C   0  0  0  0  0  0  0  0  0  0  0  0
   -2.4169   -1.3265   -0.4588 C   0  0  0  0  0  0  0  0  0  0  0  0
   -3.6614   -3.2588    0.2477 C   0  0  0  0  0  0  0  0  0  0  0  0
   -3.9096   -4.3805   -0.5454 C   0  0  0  0  0  0  0  0  0  0  0  0
   -5.1136   -5.0597   -0.3812 C   0  0  0  0  0  0  0  0  0  0  0  0
   -6.0581   -4.6290    0.5375 C   0  0  0  0  0  0  0  0  0  0  0  0
   -5.8141   -3.5160    1.3274 C   0  0  0  0  0  0  0  0  0  0  0  0
   -4.6122   -2.8450    1.1786 C   0  0  0  0  0  0  0  0  0  0  0  0
   -2.8994   -4.8327   -1.5566 C   0  0  0  0  0  0  0  0  0  0  0  0
    4.5948    1.8225    0.4903 C   0  0  0  0  0  0  0  0  0  0  0  0
    5.9364    1.5092    0.6362 C   0  0  0  0  0  0  0  0  0  0  0  0
    8.4574   -0.6901   -0.7471 C   0  0  0  0  0  0  0  0  0  0  0  0
    9.7756   -1.3245   -0.3189 C   0  0  0  0  0  0  0  0  0  0  0  0
   10.6576   -0.4257    0.4001 N   0  0  0  0  0  0  0  0  0  0  0  0
    7.7771   -0.0938    0.3995 N   0  0  0  0  0  0  0  0  0  0  0  0
    2.3743    1.3658   -0.2461 N   0  0  0  0  0  0  0  0  0  0  0  0
    1.2705   -0.6702   -0.3780 N   0  0  0  0  0  0  0  0  0  0  0  0
   -2.1754    1.5264   -0.5945 N   0  0  0  0  0  0  0  0  0  0  0  0
   -4.6034    2.2597    0.3471 N   0  0  0  0  0  0  0  0  0  0  0  0
    0.1253    1.4126   -0.4227 N   0  0  0  0  0  0  0  0  0  0  0  0
   -2.4472   -2.5527    0.1091 N   0  0  0  0  0  0  0  0  0  0  0  0
   -4.2792   -1.4831    2.1923 Cl  0  0  0  0  0  0  0  0  0  0  0  0
   11.9934    1.1547    0.1623 H   0  0  0  0  0  0  0  0  0  0  0  0
   11.9160    0.0373   -1.1960 H   0  0  0  0  0  0  0  0  0  0  0  0
   10.6491    1.2449   -0.9742 H   0  0  0  0  0  0  0  0  0  0  0  0
   10.5762    0.8805    2.0235 H   0  0  0  0  0  0  0  0  0  0  0  0
    9.7206   -0.6410    2.2363 H   0  0  0  0  0  0  0  0  0  0  0  0
    8.1224    1.1353    2.0488 H   0  0  0  0  0  0  0  0  0  0  0  0
    8.8239    1.7470    0.5533 H   0  0  0  0  0  0  0  0  0  0  0  0
    5.8569   -1.5866   -0.7073 H   0  0  0  0  0  0  0  0  0  0  0  0
    3.5387   -1.0152   -1.0003 H   0  0  0  0  0  0  0  0  0  0  0  0
    0.1382   -2.3601   -0.4410 H   0  0  0  0  0  0  0  0  0  0  0  0
   -0.4780    3.6152   -1.0773 H   0  0  0  0  0  0  0  0  0  0  0  0
   -1.0685    5.9818   -0.8234 H   0  0  0  0  0  0  0  0  0  0  0  0
   -3.3322    6.6351   -0.0500 H   0  0  0  0  0  0  0  0  0  0  0  0
   -4.9818    4.8814    0.5077 H   0  0  0  0  0  0  0  0  0  0  0  0
   -6.0856   -0.0035   -0.2356 H   0  0  0  0  0  0  0  0  0  0  0  0
   -6.4493    0.7634    1.2838 H   0  0  0  0  0  0  0  0  0  0  0  0
   -8.1826    0.9631   -1.2466 H   0  0  0  0  0  0  0  0  0  0  0  0
   -8.5318   -0.0063    0.1790 H   0  0  0  0  0  0  0  0  0  0  0  0
   -8.5549    1.7507    0.2853 H   0  0  0  0  0  0  0  0  0  0  0  0
   -5.3139   -5.9341   -0.9875 H   0  0  0  0  0  0  0  0  0  0  0  0
   -6.9921   -5.1640    0.6453 H   0  0  0  0  0  0  0  0  0  0  0  0
   -6.5434   -3.1800    2.0513 H   0  0  0  0  0  0  0  0  0  0  0  0
   -1.9275   -5.0278   -1.1019 H   0  0  0  0  0  0  0  0  0  0  0  0
   -3.2277   -5.7485   -2.0446 H   0  0  0  0  0  0  0  0  0  0  0  0
   -2.7480   -4.0770   -2.3288 H   0  0  0  0  0  0  0  0  0  0  0  0
    4.2460    2.7884    0.8370 H   0  0  0  0  0  0  0  0  0  0  0  0
    6.5778    2.2536    1.0866 H   0  0  0  0  0  0  0  0  0  0  0  0
    8.6258    0.0643   -1.5297 H   0  0  0  0  0  0  0  0  0  0  0  0
    7.8382   -1.4689   -1.1880 H   0  0  0  0  0  0  0  0  0  0  0  0
    9.5545   -2.1800    0.3281 H   0  0  0  0  0  0  0  0  0  0  0  0
   10.2899   -1.7122   -1.2009 H   0  0  0  0  0  0  0  0  0  0  0  0
    2.2309    2.3618   -0.1691 H   0  0  0  0  0  0  0  0  0  0  0  0
   -3.0067    0.9540   -0.7182 H   0  0  0  0  0  0  0  0  0  0  0  0
   -4.3410    1.5889    1.0549 H   0  0  0  0  0  0  0  0  0  0  0  0
   -1.6317   -2.9198    0.5752 H   0  0  0  0  0  0  0  0  0  0  0  0
 26 27  1  0
 26 25  2  0
 30 25  1  0
 27 28  2  0
 25 24  1  0
 28 29  1  0
 24 29  2  0
 24 42  1  0
 29 43  1  0
 42 23  1  0
 23  6  2  0
 23 12  1  0
 11 12  2  0
 11 38  1  0
 12 13  1  0
 38 10  2  0
 13 39  1  0
 13 41  2  0
 10 41  1  0
 10 37  1  0
 39 14  1  0
 37  9  1  0
 15 14  2  0
 15 16  1  0
  5 20  2  0
 14 19  1  0
  9  8  1  0
  9 31  2  0
 16 17  2  0
 20 21  1  0
 20 40  1  0
  8  7  2  0
 31 32  1  0
 21 22  1  0
 19 40  1  0
 19 18  2  0
  7  4  1  0
 17 18  1  0
 32  4  2  0
  4 36  1  0
  3 36  1  0
  3  2  1  0
 36 33  1  0
  2 35  1  0
 33 34  1  0
 35 34  1  0
 35  1  1  0
  1 44  1  0
  1 45  1  0
  1 46  1  0
  2 47  1  0
  2 48  1  0
  3 49  1  0
  3 50  1  0
  7 51  1  0
  8 52  1  0
 11 53  1  0
 15 54  1  0
 16 55  1  0
 17 56  1  0
 18 57  1  0
 21 58  1  0
 21 59  1  0
 22 60  1  0
 22 61  1  0
 22 62  1  0
 26 63  1  0
 27 64  1  0
 28 65  1  0
 30 66  1  0
 30 67  1  0
 30 68  1  0
 31 69  1  0
 32 70  1  0
 33 71  1  0
 33 72  1  0
 34 73  1  0
 34 74  1  0
 37 75  1  0
 39 76  1  0
 40 77  1  0
 42 78  1  0
M  END
