
     RDKit          3D

118120  0  0  0  0  0  0  0  0999 V2000
    0.8798   -2.8833   -3.5817 O   0  0  0  0  0  0  0  0  0  0  0  0
    0.8435   -2.4884   -2.4229 C   0  0  0  0  0  0  0  0  0  0  0  0
    1.9378   -2.8406   -1.4291 C   0  0  1  0  0  0  0  0  0  0  0  0
    1.9750   -4.3546   -1.2281 C   0  0  0  0  0  0  0  0  0  0  0  0
    3.2661   -2.2785   -1.9450 C   0  0  1  0  0  0  0  0  0  0  0  0
    3.1443   -0.9138   -2.2781 O   0  0  0  0  0  0  0  0  0  0  0  0
    4.3842   -2.5173   -0.9326 C   0  0  0  0  0  0  0  0  0  0  0  0
    5.5763   -1.8032   -1.3174 N   0  0  0  0  0  0  0  0  0  0  0  0
    6.7520   -1.9684   -0.6926 C   0  0  0  0  0  0  0  0  0  0  0  0
    6.9280   -2.8212    0.1670 O   0  0  0  0  0  0  0  0  0  0  0  0
    7.8540   -1.0224   -1.1154 C   0  0  0  0  0  0  0  0  0  0  0  0
    8.2706   -0.1620    0.0822 C   0  0  1  0  0  0  0  0  0  0  0  0
    9.3442    0.8859   -0.2289 C   0  0  1  0  0  0  0  0  0  0  0  0
   10.5588    0.2846   -0.9213 C   0  0  0  0  0  0  0  0  0  0  0  0
    8.7530    2.0640   -0.9978 C   0  0  0  0  0  0  0  0  0  0  0  0
    7.5326    2.6171   -0.2716 C   0  0  0  0  0  0  0  0  0  0  0  0
    7.1397    0.4319    0.6982 O   0  0  0  0  0  0  0  0  0  0  0  0
    6.5375    1.4985   -0.0086 C   0  0  1  0  0  0  0  0  0  0  0  0
    5.3472    1.9637    0.8285 C   0  0  0  0  0  0  0  0  0  0  0  0
    4.2785    0.8994    0.8908 C   0  0  0  0  0  0  0  0  0  0  0  0
    3.4596    0.8062   -0.0111 O   0  0  0  0  0  0  0  0  0  0  0  0
    4.2813   -0.0031    2.0500 C   0  0  0  0  0  0  0  0  0  0  0  0
    3.2891   -0.8686    2.2799 C   0  0  0  0  0  0  0  0  0  0  0  0
    3.2287   -1.8133    3.4229 C   0  0  0  0  0  0  0  0  0  0  0  0
   -0.1591   -1.7428   -1.9434 N   0  0  0  0  0  0  0  0  0  0  0  0
   -1.3172   -1.3734   -2.7311 C   0  0  0  0  0  0  0  0  0  0  0  0
   -2.2133   -0.4262   -1.9504 C   0  0  0  0  0  0  0  0  0  0  0  0
   -3.4760   -0.0797   -2.7303 C   0  0  0  0  0  0  0  0  0  0  0  0
   -4.4132    0.8419   -1.9674 C   0  0  2  0  0  0  0  0  0  0  0  0
   -5.7374    1.1193   -2.6807 C   0  0  1  0  0  0  0  0  0  0  0  0
   -6.5789   -0.1399   -2.8516 C   0  0  0  0  0  0  0  0  0  0  0  0
   -6.5163    2.1736   -1.8936 C   0  0  0  0  0  0  0  0  0  0  0  0
   -5.6704    3.4082   -1.6166 C   0  0  0  0  0  0  0  0  0  0  0  0
   -4.3373    3.0322   -0.9791 C   0  0  1  0  0  0  0  0  0  0  0  0
   -3.6948    2.0518   -1.7546 O   0  0  0  0  0  0  0  0  0  0  0  0
   -3.3840    4.2205   -0.8904 C   0  0  0  0  0  0  0  0  0  0  0  0
   -2.1610    3.9109   -0.0330 C   0  0  0  0  0  0  0  0  0  0  0  0
   -2.5880    3.3322    1.3124 C   0  0  0  0  0  0  0  0  0  0  0  0
   -3.5128    2.1462    1.0926 C   0  0  2  0  0  0  0  0  0  0  0  0
   -4.6298    2.5427    0.3056 O   0  0  0  0  0  0  0  0  0  0  0  0
   -4.0593    1.5344    2.3704 C   0  0  0  0  0  0  0  0  0  0  0  0
   -4.8943    0.2884    2.0952 C   0  0  0  0  0  0  0  0  0  0  0  0
   -5.5068   -0.3756    3.3355 C   0  0  2  0  0  0  0  0  0  0  0  0
   -4.4445   -0.8698    4.3157 C   0  0  0  0  0  0  0  0  0  0  0  0
   -6.3711   -1.5131    2.8766 C   0  0  0  0  0  0  0  0  0  0  0  0
   -7.6953   -1.5363    2.7178 C   0  0  0  0  0  0  0  0  0  0  0  0
   -8.6154   -0.4011    3.0585 C   0  0  0  0  0  0  0  0  0  0  0  0
   -8.3392   -2.7542    2.0876 C   0  0  2  0  0  0  0  0  0  0  0  0
   -8.8286   -2.4588    0.6735 C   0  0  0  0  0  0  0  0  0  0  0  0
   -9.3729   -3.2956    2.8922 O   0  0  0  0  0  0  0  0  0  0  0  0
    1.7197   -2.3706   -0.4617 H   0  0  0  0  0  0  0  0  0  0  0  0
    2.2714   -4.8662   -2.1441 H   0  0  0  0  0  0  0  0  0  0  0  0
    2.6782   -4.6333   -0.4446 H   0  0  0  0  0  0  0  0  0  0  0  0
    0.9963   -4.7318   -0.9314 H   0  0  0  0  0  0  0  0  0  0  0  0
    3.5221   -2.7881   -2.8787 H   0  0  0  0  0  0  0  0  0  0  0  0
    3.0405   -0.3910   -1.4686 H   0  0  0  0  0  0  0  0  0  0  0  0
    4.6008   -3.5840   -0.8691 H   0  0  0  0  0  0  0  0  0  0  0  0
    4.0580   -2.1999    0.0661 H   0  0  0  0  0  0  0  0  0  0  0  0
    5.4662   -1.0349   -1.9597 H   0  0  0  0  0  0  0  0  0  0  0  0
    7.5585   -0.4217   -1.9789 H   0  0  0  0  0  0  0  0  0  0  0  0
    8.7104   -1.6196   -1.4344 H   0  0  0  0  0  0  0  0  0  0  0  0
    8.6753   -0.8414    0.8379 H   0  0  0  0  0  0  0  0  0  0  0  0
    9.6735    1.2707    0.7442 H   0  0  0  0  0  0  0  0  0  0  0  0
   11.3635    1.0183   -0.9813 H   0  0  0  0  0  0  0  0  0  0  0  0
   10.9406   -0.5799   -0.3749 H   0  0  0  0  0  0  0  0  0  0  0  0
   10.3331   -0.0370   -1.9394 H   0  0  0  0  0  0  0  0  0  0  0  0
    8.4734    1.7576   -2.0114 H   0  0  0  0  0  0  0  0  0  0  0  0
    9.5101    2.8435   -1.1126 H   0  0  0  0  0  0  0  0  0  0  0  0
    7.0503    3.3972   -0.8647 H   0  0  0  0  0  0  0  0  0  0  0  0
    7.8356    3.0701    0.6785 H   0  0  0  0  0  0  0  0  0  0  0  0
    6.1554    1.1536   -0.9820 H   0  0  0  0  0  0  0  0  0  0  0  0
    4.9240    2.8551    0.3612 H   0  0  0  0  0  0  0  0  0  0  0  0
    5.6944    2.2345    1.8281 H   0  0  0  0  0  0  0  0  0  0  0  0
    5.1169    0.0683    2.7363 H   0  0  0  0  0  0  0  0  0  0  0  0
    2.4503   -0.8971    1.5893 H   0  0  0  0  0  0  0  0  0  0  0  0
    3.1720   -2.8412    3.0571 H   0  0  0  0  0  0  0  0  0  0  0  0
    4.0921   -1.7261    4.0794 H   0  0  0  0  0  0  0  0  0  0  0  0
    2.3220   -1.6494    4.0087 H   0  0  0  0  0  0  0  0  0  0  0  0
   -0.1543   -1.4943   -0.9674 H   0  0  0  0  0  0  0  0  0  0  0  0
   -0.9928   -0.8943   -3.6580 H   0  0  0  0  0  0  0  0  0  0  0  0
   -1.8777   -2.2693   -3.0171 H   0  0  0  0  0  0  0  0  0  0  0  0
   -2.4945   -0.8934   -0.9997 H   0  0  0  0  0  0  0  0  0  0  0  0
   -1.6563    0.4806   -1.7040 H   0  0  0  0  0  0  0  0  0  0  0  0
   -3.2165    0.3809   -3.6899 H   0  0  0  0  0  0  0  0  0  0  0  0
   -4.0074   -1.0051   -2.9658 H   0  0  0  0  0  0  0  0  0  0  0  0
   -4.6456    0.3683   -1.0009 H   0  0  0  0  0  0  0  0  0  0  0  0
   -5.5072    1.5275   -3.6741 H   0  0  0  0  0  0  0  0  0  0  0  0
   -7.5477    0.1067   -3.2892 H   0  0  0  0  0  0  0  0  0  0  0  0
   -6.1078   -0.8766   -3.5017 H   0  0  0  0  0  0  0  0  0  0  0  0
   -6.7691   -0.6179   -1.8869 H   0  0  0  0  0  0  0  0  0  0  0  0
   -6.8576    1.7352   -0.9505 H   0  0  0  0  0  0  0  0  0  0  0  0
   -7.4171    2.4541   -2.4453 H   0  0  0  0  0  0  0  0  0  0  0  0
   -6.2032    4.1121   -0.9731 H   0  0  0  0  0  0  0  0  0  0  0  0
   -5.4606    3.9310   -2.5548 H   0  0  0  0  0  0  0  0  0  0  0  0
   -3.0911    4.5317   -1.8956 H   0  0  0  0  0  0  0  0  0  0  0  0
   -3.9348    5.0568   -0.4492 H   0  0  0  0  0  0  0  0  0  0  0  0
   -1.5127    3.1964   -0.5476 H   0  0  0  0  0  0  0  0  0  0  0  0
   -1.5719    4.8190    0.1101 H   0  0  0  0  0  0  0  0  0  0  0  0
   -1.7166    3.0143    1.8904 H   0  0  0  0  0  0  0  0  0  0  0  0
   -3.1056    4.0952    1.9046 H   0  0  0  0  0  0  0  0  0  0  0  0
   -2.9451    1.3633    0.5666 H   0  0  0  0  0  0  0  0  0  0  0  0
   -3.2083    1.2877    3.0111 H   0  0  0  0  0  0  0  0  0  0  0  0
   -4.6538    2.2763    2.9159 H   0  0  0  0  0  0  0  0  0  0  0  0
   -5.7070    0.5444    1.4118 H   0  0  0  0  0  0  0  0  0  0  0  0
   -4.2757   -0.4477    1.5660 H   0  0  0  0  0  0  0  0  0  0  0  0
   -6.1192    0.3746    3.8456 H   0  0  0  0  0  0  0  0  0  0  0  0
   -3.8535   -0.0469    4.7183 H   0  0  0  0  0  0  0  0  0  0  0  0
   -4.8989   -1.3899    5.1601 H   0  0  0  0  0  0  0  0  0  0  0  0
   -3.7562   -1.5649    3.8282 H   0  0  0  0  0  0  0  0  0  0  0  0
   -5.8173   -2.4023    2.5752 H   0  0  0  0  0  0  0  0  0  0  0  0
   -8.1180    0.3917    3.6125 H   0  0  0  0  0  0  0  0  0  0  0  0
   -9.0395    0.0499    2.1581 H   0  0  0  0  0  0  0  0  0  0  0  0
   -9.4577   -0.7391    3.6663 H   0  0  0  0  0  0  0  0  0  0  0  0
   -7.5800   -3.5392    2.0245 H   0  0  0  0  0  0  0  0  0  0  0  0
   -8.0116   -2.0809    0.0577 H   0  0  0  0  0  0  0  0  0  0  0  0
   -9.2164   -3.3620    0.2004 H   0  0  0  0  0  0  0  0  0  0  0  0
   -9.6229   -1.7085    0.6641 H   0  0  0  0  0  0  0  0  0  0  0  0
  -10.1574   -2.7469    2.7923 H   0  0  0  0  0  0  0  0  0  0  0  0
  1  2  2  0
  2  3  1  0
  2 25  1  0
  3  4  1  0
  3  5  1  0
  3 51  1  1
  4 52  1  0
  4 53  1  0
  4 54  1  0
  5  6  1  0
  5  7  1  0
  5 55  1  6
  6 56  1  0
  7  8  1  0
  7 57  1  0
  7 58  1  0
  8  9  1  0
  8 59  1  0
  9 10  2  0
  9 11  1  0
 11 12  1  0
 11 60  1  0
 11 61  1  0
 12 13  1  0
 12 17  1  0
 12 62  1  1
 13 14  1  0
 13 15  1  0
 13 63  1  1
 14 64  1  0
 14 65  1  0
 14 66  1  0
 15 16  1  0
 15 67  1  0
 15 68  1  0
 16 18  1  0
 16 69  1  0
 16 70  1  0
 17 18  1  0
 18 19  1  0
 18 71  1  6
 19 20  1  0
 19 72  1  0
 19 73  1  0
 20 21  2  0
 20 22  1  0
 22 23  2  0
 22 74  1  0
 23 24  1  0
 23 75  1  0
 24 76  1  0
 24 77  1  0
 24 78  1  0
 25 26  1  0
 25 79  1  0
 26 27  1  0
 26 80  1  0
 26 81  1  0
 27 28  1  0
 27 82  1  0
 27 83  1  0
 28 29  1  0
 28 84  1  0
 28 85  1  0
 29 30  1  0
 29 35  1  0
 29 86  1  1
 30 31  1  0
 30 32  1  0
 30 87  1  6
 31 88  1  0
 31 89  1  0
 31 90  1  0
 32 33  1  0
 32 91  1  0
 32 92  1  0
 33 34  1  0
 33 93  1  0
 33 94  1  0
 34 35  1  6
 34 36  1  0
 34 40  1  0
 36 37  1  0
 36 95  1  0
 36 96  1  0
 37 38  1  0
 37 97  1  0
 37 98  1  0
 38 39  1  0
 38 99  1  0
 38100  1  0
 39 40  1  0
 39 41  1  0
 39101  1  6
 41 42  1  0
 41102  1  0
 41103  1  0
 42 43  1  0
 42104  1  0
 42105  1  0
 43 44  1  0
 43 45  1  0
 43106  1  1
 44107  1  0
 44108  1  0
 44109  1  0
 45 46  2  0
 45110  1  0
 46 47  1  0
 46 48  1  0
 47111  1  0
 47112  1  0
 47113  1  0
 48 49  1  0
 48 50  1  0
 48114  1  6
 49115  1  0
 49116  1  0
 49117  1  0
 50118  1  0
M  END
