
     RDKit          3D

 39 40  0  0  0  0  0  0  0  0999 V2000
    0.6770   -0.2436   -3.3806 C   0  0  0  0  0  0  0  0  0  0  0  0
   -0.2158    0.1783   -2.4737 N   0  0  0  0  0  0  0  0  0  0  0  0
   -1.3126    0.7047   -3.0380 N   0  0  0  0  0  0  0  0  0  0  0  0
   -1.1155    0.6201   -4.3311 C   0  0  0  0  0  0  0  0  0  0  0  0
    0.1336    0.0291   -4.6173 C   0  0  0  0  0  0  0  0  0  0  0  0
   -0.1071    0.1134   -1.0694 C   0  0  0  0  0  0  0  0  0  0  0  0
   -1.2456   -0.0519   -0.3008 C   0  0  0  0  0  0  0  0  0  0  0  0
   -1.1289   -0.1095    1.0827 C   0  0  0  0  0  0  0  0  0  0  0  0
    0.1223   -0.0167    1.7144 C   0  0  0  0  0  0  0  0  0  0  0  0
    1.2553    0.1472    0.9214 C   0  0  0  0  0  0  0  0  0  0  0  0
    1.1344    0.2211   -0.4552 C   0  0  0  0  0  0  0  0  0  0  0  0
   -2.2936   -0.2663    1.8868 C   0  0  0  0  0  0  0  0  0  0  0  0
   -3.2436   -0.3895    2.5269 N   0  0  0  0  0  0  0  0  0  0  0  0
    0.1149   -0.0904    3.0393 O   0  0  0  0  0  0  0  0  0  0  0  0
    1.3223    0.1150    3.7655 C   0  0  0  0  0  0  0  0  0  0  0  0
    1.0233    0.0461    5.2584 C   0  0  2  0  0  0  0  0  0  0  0  0
    2.3427    0.3223    5.9824 C   0  0  0  0  0  0  0  0  0  0  0  0
    0.5174   -1.3463    5.6376 C   0  0  0  0  0  0  0  0  0  0  0  0
   -0.0068    1.1067    5.6490 C   0  0  0  0  0  0  0  0  0  0  0  0
    0.7606   -0.2650   -5.9000 C   0  0  0  0  0  0  0  0  0  0  0  0
   -0.0002    0.1013   -6.9240 O   0  0  0  0  0  0  0  0  0  0  0  0
    1.8465   -0.7827   -6.0203 O   0  0  0  0  0  0  0  0  0  0  0  0
    1.6041   -0.7186   -3.1052 H   0  0  0  0  0  0  0  0  0  0  0  0
   -1.8610    0.9844   -5.0207 H   0  0  0  0  0  0  0  0  0  0  0  0
   -2.2194   -0.1348   -0.7627 H   0  0  0  0  0  0  0  0  0  0  0  0
    2.2386    0.2354    1.3613 H   0  0  0  0  0  0  0  0  0  0  0  0
    2.0270    0.3787   -1.0465 H   0  0  0  0  0  0  0  0  0  0  0  0
    1.7415    1.0944    3.5071 H   0  0  0  0  0  0  0  0  0  0  0  0
    2.0565   -0.6531    3.4951 H   0  0  0  0  0  0  0  0  0  0  0  0
    2.2002    0.2700    7.0627 H   0  0  0  0  0  0  0  0  0  0  0  0
    3.1084   -0.4093    5.7155 H   0  0  0  0  0  0  0  0  0  0  0  0
    2.7317    1.3157    5.7470 H   0  0  0  0  0  0  0  0  0  0  0  0
    1.2512   -2.1149    5.3834 H   0  0  0  0  0  0  0  0  0  0  0  0
    0.3366   -1.4057    6.7123 H   0  0  0  0  0  0  0  0  0  0  0  0
   -0.4173   -1.5946    5.1332 H   0  0  0  0  0  0  0  0  0  0  0  0
    0.3161    2.1054    5.3460 H   0  0  0  0  0  0  0  0  0  0  0  0
   -0.9808    0.9160    5.1968 H   0  0  0  0  0  0  0  0  0  0  0  0
   -0.1440    1.1179    6.7318 H   0  0  0  0  0  0  0  0  0  0  0  0
    0.4467   -0.1019   -7.7591 H   0  0  0  0  0  0  0  0  0  0  0  0
  1  2  1  0
  1  5  2  0
  1 23  1  0
  2  3  1  0
  2  6  1  0
  3  4  2  0
  4  5  1  0
  4 24  1  0
  5 20  1  0
  6  7  2  0
  6 11  1  0
  7  8  1  0
  7 25  1  0
  8  9  2  0
  8 12  1  0
  9 10  1  0
  9 14  1  0
 10 11  2  0
 10 26  1  0
 11 27  1  0
 12 13  3  0
 14 15  1  0
 16 15  1  6
 15 28  1  0
 15 29  1  0
 16 17  1  0
 16 18  1  0
 16 19  1  0
 17 30  1  0
 17 31  1  0
 17 32  1  0
 18 33  1  0
 18 34  1  0
 18 35  1  0
 19 36  1  0
 19 37  1  0
 19 38  1  0
 20 21  1  0
 20 22  2  0
 21 39  1  0
M  END
