
     RDKit          3D

 26 25  0  0  0  0  0  0  0  0999 V2000
    4.1642    0.2544   -0.0386 C   0  0  0  0  0  0  0  0  0  0  0  0
    2.8246   -0.4708   -0.0446 C   0  0  0  0  0  0  0  0  0  0  0  0
    1.6469    0.4903   -0.0862 C   0  0  0  0  0  0  0  0  0  0  0  0
    0.4006   -0.2298   -0.0827 N   0  0  0  0  0  0  0  0  0  0  0  0
   -0.8274    0.3536   -0.1679 C   0  0  0  0  0  0  0  0  0  0  0  0
   -1.0175    1.6336   -0.2559 N   0  0  0  0  0  0  0  0  0  0  0  0
   -1.8206   -0.5922   -0.1454 N   0  0  0  0  0  0  0  0  0  0  0  0
   -3.0866   -0.2635   -0.2300 C   0  0  0  0  0  0  0  0  0  0  0  0
   -3.5724    0.9802   -0.3014 N   0  0  0  0  0  0  0  0  0  0  0  0
   -3.9858   -1.2812   -0.2783 N   0  0  0  0  0  0  0  0  0  0  0  0
    4.2112    0.9248    0.8247 H   0  0  0  0  0  0  0  0  0  0  0  0
    2.7758   -1.1425   -0.9080 H   0  0  0  0  0  0  0  0  0  0  0  0
    2.7478   -1.1015    0.8476 H   0  0  0  0  0  0  0  0  0  0  0  0
    1.7072    1.1700    0.7731 H   0  0  0  0  0  0  0  0  0  0  0  0
    1.7276    1.1168   -0.9831 H   0  0  0  0  0  0  0  0  0  0  0  0
    0.4193   -1.2334   -0.0206 H   0  0  0  0  0  0  0  0  0  0  0  0
   -0.1494    2.1545   -0.2605 H   0  0  0  0  0  0  0  0  0  0  0  0
   -2.8764    1.7222   -0.3469 H   0  0  0  0  0  0  0  0  0  0  0  0
   -4.5503    1.1585   -0.4483 H   0  0  0  0  0  0  0  0  0  0  0  0
   -4.9435   -1.1001   -0.0277 H   0  0  0  0  0  0  0  0  0  0  0  0
   -3.6403   -2.1845   -0.0020 H   0  0  0  0  0  0  0  0  0  0  0  0
    5.3436   -0.7075   -0.0037 C   0  0  0  0  0  0  0  0  0  0  0  0
    5.3394   -1.3663   -0.8737 H   0  0  0  0  0  0  0  0  0  0  0  0
    4.2363    0.8926   -0.9243 H   0  0  0  0  0  0  0  0  0  0  0  0
    6.2942   -0.1734    0.0025 H   0  0  0  0  0  0  0  0  0  0  0  0
    5.3118   -1.3362    0.8878 H   0  0  0  0  0  0  0  0  0  0  0  0
 10  8  1  0
  8  9  1  0
  8  7  2  0
  7  5  1  0
  5  4  1  0
  5  6  2  0
  4  3  1  0
  2  3  1  0
  2  1  1  0
  1 11  1  0
  2 12  1  0
  2 13  1  0
  3 14  1  0
  3 15  1  0
  4 16  1  0
  6 17  1  0
  9 18  1  0
  9 19  1  0
 10 20  1  0
 10 21  1  0
  1 22  1  0
 22 23  1  0
  1 24  1  0
 22 25  1  0
 22 26  1  0
M  END
