
     RDKit          3D

 31 31  0  0  0  0  0  0  0  0999 V2000
   -0.9843   -1.9333    0.1356 C   0  0  0  0  0  0  0  0  0  0  0  0
   -4.4897   -0.5331    0.0676 C   0  0  0  0  0  0  0  0  0  0  0  0
   -2.8583    1.8362   -0.5190 C   0  0  0  0  0  0  0  0  0  0  0  0
   -0.8675    0.4353   -0.2750 C   0  0  0  0  0  0  0  0  0  0  0  0
    5.9785   -0.1840    0.0439 C   0  0  0  0  0  0  0  0  0  0  0  0
    4.5766    0.2955    0.2998 C   0  0  0  0  0  0  0  0  0  0  0  0
    3.5309   -0.5842   -0.3605 C   0  0  0  0  0  0  0  0  0  0  0  0
    2.1398   -0.0085   -0.2238 C   0  0  0  0  0  0  0  0  0  0  0  0
   -0.2168   -0.7878   -0.0950 C   0  0  0  0  0  0  0  0  0  0  0  0
   -2.3587   -1.8608    0.1850 C   0  0  0  0  0  0  0  0  0  0  0  0
   -3.0184   -0.6453    0.0033 C   0  0  0  0  0  0  0  0  0  0  0  0
   -2.2512    0.4959   -0.2297 C   0  0  0  0  0  0  0  0  0  0  0  0
    1.1599   -0.9541   -0.1471 N   0  0  0  0  0  0  0  0  0  0  0  0
    6.8719    0.5573    0.6887 O   0  0  0  0  0  0  0  0  0  0  0  0
    6.2761   -1.1184   -0.6574 O   0  0  0  0  0  0  0  0  0  0  0  0
    1.9231    1.1872   -0.2161 O   0  0  0  0  0  0  0  0  0  0  0  0
   -5.0976   -1.6991    0.2140 O   0  0  0  0  0  0  0  0  0  0  0  0
   -5.0781    0.5207   -0.0065 O   0  0  0  0  0  0  0  0  0  0  0  0
   -2.9419    2.5821    0.5674 O   0  0  0  0  0  0  0  0  0  0  0  0
   -3.1318    2.2046   -1.6309 O   0  0  0  0  0  0  0  0  0  0  0  0
   -0.4954   -2.8885    0.2822 H   0  0  0  0  0  0  0  0  0  0  0  0
   -0.3013    1.3337   -0.4603 H   0  0  0  0  0  0  0  0  0  0  0  0
    4.4186    0.3401    1.3807 H   0  0  0  0  0  0  0  0  0  0  0  0
    4.4995    1.3263   -0.0548 H   0  0  0  0  0  0  0  0  0  0  0  0
    3.7294   -0.6694   -1.4334 H   0  0  0  0  0  0  0  0  0  0  0  0
    3.5749   -1.5993    0.0380 H   0  0  0  0  0  0  0  0  0  0  0  0
   -2.9180   -2.7663    0.3742 H   0  0  0  0  0  0  0  0  0  0  0  0
    1.4735   -1.9130   -0.1074 H   0  0  0  0  0  0  0  0  0  0  0  0
    7.7674    0.2361    0.5040 H   0  0  0  0  0  0  0  0  0  0  0  0
   -6.0573   -1.5711    0.2544 H   0  0  0  0  0  0  0  0  0  0  0  0
   -3.2992    3.4572    0.3476 H   0  0  0  0  0  0  0  0  0  0  0  0
 15  5  2  0
 14  5  1  0
 20  3  2  0
  5  6  1  0
 18  2  2  0
  3 12  1  0
  3 19  1  0
 16  8  2  0
  2 11  1  0
  2 17  1  0
 12 11  2  0
 12  4  1  0
 11 10  1  0
  6  7  1  0
  4  9  2  0
 10  1  2  0
  8 13  1  0
  8  7  1  0
  9  1  1  0
  9 13  1  0
  1 21  1  0
  4 22  1  0
  6 23  1  0
  6 24  1  0
  7 25  1  0
  7 26  1  0
 10 27  1  0
 13 28  1  0
 14 29  1  0
 17 30  1  0
 19 31  1  0
M  END
