
     RDKit          3D

 70 75  0  0  0  0  0  0  0  0999 V2000
    0.0883    1.8745    1.9562 O   0  0  0  0  0  0  0  0  0  0  0  0
   -1.0959    1.2892    1.8756 C   0  0  0  0  0  0  0  0  0  0  0  0
   -2.1411    1.8615    2.0780 O   0  0  0  0  0  0  0  0  0  0  0  0
   -0.9913   -0.1350    1.5072 C   0  0  0  0  0  0  0  0  0  0  0  0
    0.2264   -0.6682    1.2047 N   0  0  0  0  0  0  0  0  0  0  0  0
   -2.0570   -0.9962    1.4458 C   0  0  0  0  0  0  0  0  0  0  0  0
   -3.5180   -0.7760    1.6561 C   0  0  0  0  0  0  0  0  0  0  0  0
   -4.1913   -0.2505    0.3846 C   0  0  0  0  0  0  0  0  0  0  0  0
   -5.6680   -0.0100    0.6196 C   0  0  0  0  0  0  0  0  0  0  0  0
   -6.2309    0.4373   -0.6008 O   0  0  0  0  0  0  0  0  0  0  0  0
   -7.5488    0.7226   -0.6487 C   0  0  0  0  0  0  0  0  0  0  0  0
   -8.0436    1.1611   -1.8758 C   0  0  0  0  0  0  0  0  0  0  0  0
   -9.3868    1.4714   -2.0129 C   0  0  0  0  0  0  0  0  0  0  0  0
  -10.2716    1.3621   -0.9436 C   0  0  0  0  0  0  0  0  0  0  0  0
  -11.7327    1.6889   -1.0963 C   0  0  0  0  0  0  0  0  0  0  0  0
  -12.5548    0.5059   -0.8777 N   0  0  0  0  0  0  0  0  0  0  0  0
   -9.7638    0.9173    0.2719 C   0  0  0  0  0  0  0  0  0  0  0  0
   -8.4212    0.6022    0.4326 C   0  0  0  0  0  0  0  0  0  0  0  0
   -1.4778   -2.5371    0.9683 S   0  0  0  0  0  0  0  0  0  0  0  0
    0.1437   -1.9201    0.8992 C   0  0  0  0  0  0  0  0  0  0  0  0
    1.2808   -2.7536    0.5121 C   0  0  0  0  0  0  0  0  0  0  0  0
    1.1913   -4.1469    0.4733 C   0  0  0  0  0  0  0  0  0  0  0  0
    2.2889   -4.8970    0.1008 C   0  0  0  0  0  0  0  0  0  0  0  0
    3.5008   -4.2972   -0.2353 C   0  0  0  0  0  0  0  0  0  0  0  0
    4.6789   -5.1392   -0.6307 C   0  0  0  0  0  0  0  0  0  0  0  0
    5.5965   -4.3891   -1.5795 C   0  0  0  0  0  0  0  0  0  0  0  0
    6.0350   -3.0629   -0.9743 C   0  0  0  0  0  0  0  0  0  0  0  0
    2.4832   -2.1468    0.1787 C   0  0  0  0  0  0  0  0  0  0  0  0
    3.5966   -2.9001   -0.1939 C   0  0  0  0  0  0  0  0  0  0  0  0
    4.8695   -2.2270   -0.5259 C   0  0  0  0  0  0  0  0  0  0  0  0
    4.8885   -0.9577   -0.3776 N   0  0  0  0  0  0  0  0  0  0  0  0
    6.0136   -0.2733   -0.6203 N   0  0  0  0  0  0  0  0  0  0  0  0
    6.0004    1.0758   -0.5127 C   0  0  0  0  0  0  0  0  0  0  0  0
    7.5083    1.9396   -0.7905 S   0  0  0  0  0  0  0  0  0  0  0  0
    6.6507    3.4220   -0.4833 C   0  0  0  0  0  0  0  0  0  0  0  0
    7.1346    4.7206   -0.5008 C   0  0  0  0  0  0  0  0  0  0  0  0
    6.2460    5.7485   -0.2215 C   0  0  0  0  0  0  0  0  0  0  0  0
    4.9719    1.7943   -0.2229 N   0  0  0  0  0  0  0  0  0  0  0  0
    5.3073    3.1262   -0.1968 C   0  0  0  0  0  0  0  0  0  0  0  0
    4.4312    4.1739    0.0817 C   0  0  0  0  0  0  0  0  0  0  0  0
    4.9080    5.4740    0.0671 C   0  0  0  0  0  0  0  0  0  0  0  0
   -0.0277    2.8072    2.1914 H   0  0  0  0  0  0  0  0  0  0  0  0
   -3.9883   -1.7142    1.9582 H   0  0  0  0  0  0  0  0  0  0  0  0
   -3.6621   -0.0722    2.4749 H   0  0  0  0  0  0  0  0  0  0  0  0
   -3.7084    0.6777    0.0742 H   0  0  0  0  0  0  0  0  0  0  0  0
   -4.0627   -0.9761   -0.4223 H   0  0  0  0  0  0  0  0  0  0  0  0
   -6.1550   -0.9353    0.9497 H   0  0  0  0  0  0  0  0  0  0  0  0
   -5.8118    0.7391    1.4072 H   0  0  0  0  0  0  0  0  0  0  0  0
   -7.3710    1.2530   -2.7197 H   0  0  0  0  0  0  0  0  0  0  0  0
   -8.0763    0.2669    1.4011 H   0  0  0  0  0  0  0  0  0  0  0  0
   -9.7508    1.8081   -2.9768 H   0  0  0  0  0  0  0  0  0  0  0  0
  -12.0182    2.4323   -0.3473 H   0  0  0  0  0  0  0  0  0  0  0  0
  -11.8886    2.1641   -2.0741 H   0  0  0  0  0  0  0  0  0  0  0  0
  -10.4289    0.8134    1.1210 H   0  0  0  0  0  0  0  0  0  0  0  0
  -13.5318    0.7622   -0.9479 H   0  0  0  0  0  0  0  0  0  0  0  0
  -12.3894   -0.1582   -1.6241 H   0  0  0  0  0  0  0  0  0  0  0  0
    0.2718   -4.6556    0.7384 H   0  0  0  0  0  0  0  0  0  0  0  0
    2.5601   -1.0684    0.2039 H   0  0  0  0  0  0  0  0  0  0  0  0
    2.2068   -5.9765    0.0698 H   0  0  0  0  0  0  0  0  0  0  0  0
    5.2341   -5.4306    0.2679 H   0  0  0  0  0  0  0  0  0  0  0  0
    4.3314   -6.0672   -1.0881 H   0  0  0  0  0  0  0  0  0  0  0  0
    6.4772   -4.9884   -1.8112 H   0  0  0  0  0  0  0  0  0  0  0  0
    5.0776   -4.2073   -2.5242 H   0  0  0  0  0  0  0  0  0  0  0  0
    6.6895   -3.2462   -0.1137 H   0  0  0  0  0  0  0  0  0  0  0  0
    6.6391   -2.5210   -1.7073 H   0  0  0  0  0  0  0  0  0  0  0  0
    6.8766   -0.7395   -0.8683 H   0  0  0  0  0  0  0  0  0  0  0  0
    8.1720    4.9298   -0.7257 H   0  0  0  0  0  0  0  0  0  0  0  0
    6.5959    6.7722   -0.2301 H   0  0  0  0  0  0  0  0  0  0  0  0
    4.2315    6.2910    0.2815 H   0  0  0  0  0  0  0  0  0  0  0  0
    3.3930    3.9623    0.3029 H   0  0  0  0  0  0  0  0  0  0  0  0
  1  2  1  0
  2  3  2  0
  2  4  1  0
  4  5  1  0
  4  6  2  0
  5 20  2  0
  6  7  1  0
  6 19  1  0
  7  8  1  0
  8  9  1  0
  9 10  1  0
 10 11  1  0
 11 12  2  0
 11 18  1  0
 12 13  1  0
 13 14  2  0
 14 15  1  0
 14 17  1  0
 15 16  1  0
 17 18  2  0
 19 20  1  0
 20 21  1  0
 21 22  2  0
 21 28  1  0
 22 23  1  0
 23 24  2  0
 24 25  1  0
 24 29  1  0
 25 26  1  0
 26 27  1  0
 27 30  1  0
 28 29  2  0
 29 30  1  0
 30 31  2  0
 31 32  1  0
 32 33  1  0
 33 34  1  0
 33 38  2  0
 34 35  1  0
 35 36  2  0
 35 39  1  0
 36 37  1  0
 37 41  2  0
 38 39  1  0
 39 40  2  0
 40 41  1  0
  1 42  1  0
  7 43  1  0
  7 44  1  0
  8 45  1  0
  8 46  1  0
  9 47  1  0
  9 48  1  0
 12 49  1  0
 18 50  1  0
 13 51  1  0
 15 52  1  0
 15 53  1  0
 17 54  1  0
 16 55  1  0
 16 56  1  0
 22 57  1  0
 28 58  1  0
 23 59  1  0
 25 60  1  0
 25 61  1  0
 26 62  1  0
 26 63  1  0
 27 64  1  0
 27 65  1  0
 32 66  1  0
 36 67  1  0
 37 68  1  0
 41 69  1  0
 40 70  1  0
M  END
