
     RDKit          3D

 69 73  0  0  0  0  0  0  0  0999 V2000
   -5.8834    0.2082    0.4929 C   0  0  0  0  0  0  0  0  0  0  0  0
   -6.7067    0.5129   -0.6106 C   0  0  0  0  0  0  0  0  0  0  0  0
   -7.9052   -0.1429   -0.8158 C   0  0  0  0  0  0  0  0  0  0  0  0
   -8.7476    0.1837   -1.8522 N   0  0  0  0  0  0  0  0  0  0  0  0
   -8.2916   -1.1529    0.1033 C   0  0  0  0  0  0  0  0  0  0  0  0
   -7.4934   -1.4796    1.1594 C   0  0  0  0  0  0  0  0  0  0  0  0
   -6.2648   -0.8180    1.3910 C   0  0  0  0  0  0  0  0  0  0  0  0
   -5.5170   -1.2082    2.4512 N   0  0  0  0  0  0  0  0  0  0  0  0
   -4.3853   -0.5824    2.6413 C   0  0  0  0  0  0  0  0  0  0  0  0
   -3.9064    0.4636    1.8400 C   0  0  0  0  0  0  0  0  0  0  0  0
   -4.6466    0.8843    0.7544 C   0  0  0  0  0  0  0  0  0  0  0  0
   -4.2750    1.9187   -0.0691 N   0  0  0  0  0  0  0  0  0  0  0  0
   -3.0473    2.5823   -0.0759 C   0  0  0  0  0  0  0  0  0  0  0  0
   -1.8492    1.8701   -0.0147 C   0  0  0  0  0  0  0  0  0  0  0  0
   -3.0341    3.9697   -0.2004 C   0  0  0  0  0  0  0  0  0  0  0  0
   -1.8201    4.6358   -0.2440 C   0  0  0  0  0  0  0  0  0  0  0  0
   -0.6253    3.9438   -0.1611 C   0  0  0  0  0  0  0  0  0  0  0  0
   -0.6356    2.5515   -0.0477 C   0  0  0  0  0  0  0  0  0  0  0  0
    0.6056    1.9185    0.0590 N   0  0  0  0  0  0  0  0  0  0  0  0
    0.9083    0.6248   -0.2580 C   0  0  0  0  0  0  0  0  0  0  0  0
    0.1159   -0.1836   -0.6999 O   0  0  0  0  0  0  0  0  0  0  0  0
    2.2278    0.3256   -0.0232 N   0  0  0  0  0  0  0  0  0  0  0  0
    2.8003   -0.9058   -0.2682 C   0  0  0  0  0  0  0  0  0  0  0  0
    2.2799   -2.1607   -0.4835 C   0  0  0  0  0  0  0  0  0  0  0  0
    3.4125   -3.0002   -0.5868 C   0  0  0  0  0  0  0  0  0  0  0  0
    3.4163   -4.4833   -0.8484 C   0  0  1  0  0  0  0  0  0  0  0  0
    2.9400   -4.7328   -2.2852 C   0  0  0  0  0  0  0  0  0  0  0  0
    4.8173   -5.0673   -0.6706 C   0  0  0  0  0  0  0  0  0  0  0  0
    2.4570   -5.1757    0.1263 C   0  0  0  0  0  0  0  0  0  0  0  0
    4.5262   -2.3172   -0.4482 N   0  0  0  0  0  0  0  0  0  0  0  0
    4.1517   -1.0368   -0.2711 N   0  0  0  0  0  0  0  0  0  0  0  0
    5.1313   -0.0362   -0.0944 C   0  0  0  0  0  0  0  0  0  0  0  0
    6.1457   -0.2250    0.8359 C   0  0  0  0  0  0  0  0  0  0  0  0
    7.1195    0.7478    0.9965 C   0  0  0  0  0  0  0  0  0  0  0  0
    7.0960    1.9268    0.2536 C   0  0  0  0  0  0  0  0  0  0  0  0
    8.1636    2.9679    0.4160 C   0  0  0  0  0  0  0  0  0  0  0  0
    6.0672    2.0982   -0.6695 C   0  0  0  0  0  0  0  0  0  0  0  0
    5.0984    1.1247   -0.8582 C   0  0  0  0  0  0  0  0  0  0  0  0
   -6.4033    1.2568   -1.3375 H   0  0  0  0  0  0  0  0  0  0  0  0
   -8.3348    0.6951   -2.6156 H   0  0  0  0  0  0  0  0  0  0  0  0
   -9.3599   -0.5487   -2.1734 H   0  0  0  0  0  0  0  0  0  0  0  0
   -9.2313   -1.6717   -0.0457 H   0  0  0  0  0  0  0  0  0  0  0  0
   -7.7915   -2.2598    1.8484 H   0  0  0  0  0  0  0  0  0  0  0  0
   -3.7899   -0.8964    3.4931 H   0  0  0  0  0  0  0  0  0  0  0  0
   -2.9734    0.9370    2.1087 H   0  0  0  0  0  0  0  0  0  0  0  0
   -5.0305    2.4337   -0.4925 H   0  0  0  0  0  0  0  0  0  0  0  0
   -1.8740    0.7945    0.0508 H   0  0  0  0  0  0  0  0  0  0  0  0
   -3.9641    4.5218   -0.2556 H   0  0  0  0  0  0  0  0  0  0  0  0
   -1.8048    5.7136   -0.3362 H   0  0  0  0  0  0  0  0  0  0  0  0
    0.3156    4.4794   -0.1906 H   0  0  0  0  0  0  0  0  0  0  0  0
    1.3744    2.5396    0.2620 H   0  0  0  0  0  0  0  0  0  0  0  0
    2.8063    1.0113    0.4406 H   0  0  0  0  0  0  0  0  0  0  0  0
    1.2440   -2.4404   -0.5419 H   0  0  0  0  0  0  0  0  0  0  0  0
    3.6068   -4.2633   -3.0106 H   0  0  0  0  0  0  0  0  0  0  0  0
    2.9138   -5.8041   -2.4957 H   0  0  0  0  0  0  0  0  0  0  0  0
    1.9363   -4.3367   -2.4484 H   0  0  0  0  0  0  0  0  0  0  0  0
    5.1823   -4.9317    0.3485 H   0  0  0  0  0  0  0  0  0  0  0  0
    4.7987   -6.1383   -0.8799 H   0  0  0  0  0  0  0  0  0  0  0  0
    5.5383   -4.6072   -1.3465 H   0  0  0  0  0  0  0  0  0  0  0  0
    1.4280   -4.8365   -0.0043 H   0  0  0  0  0  0  0  0  0  0  0  0
    2.4691   -6.2551   -0.0380 H   0  0  0  0  0  0  0  0  0  0  0  0
    2.7420   -4.9905    1.1634 H   0  0  0  0  0  0  0  0  0  0  0  0
    6.1710   -1.1284    1.4307 H   0  0  0  0  0  0  0  0  0  0  0  0
    7.9062    0.5896    1.7243 H   0  0  0  0  0  0  0  0  0  0  0  0
    8.9338    2.8547   -0.3495 H   0  0  0  0  0  0  0  0  0  0  0  0
    7.7581    3.9747    0.3191 H   0  0  0  0  0  0  0  0  0  0  0  0
    8.6541    2.8921    1.3856 H   0  0  0  0  0  0  0  0  0  0  0  0
    6.0278    3.0013   -1.2667 H   0  0  0  0  0  0  0  0  0  0  0  0
    4.3333    1.2676   -1.6107 H   0  0  0  0  0  0  0  0  0  0  0  0
  2  1  2  0
 11  1  1  0
  1  7  1  0
  2  3  1  0
  2 39  1  0
  4  3  1  0
  3  5  2  0
  4 40  1  0
  4 41  1  0
  5  6  1  0
  5 42  1  0
  7  6  2  0
  6 43  1  0
  7  8  1  0
  9  8  2  0
 10  9  1  0
  9 44  1  0
 11 10  2  0
 10 45  1  0
 12 11  1  0
 13 12  1  0
 12 46  1  0
 14 13  2  0
 13 15  1  0
 18 14  1  0
 14 47  1  0
 16 15  2  0
 15 48  1  0
 17 16  1  0
 16 49  1  0
 18 17  2  0
 17 50  1  0
 19 18  1  0
 19 20  1  0
 19 51  1  0
 22 20  1  0
 20 21  2  0
 22 23  1  0
 22 52  1  0
 31 23  1  0
 23 24  2  0
 25 24  1  0
 24 53  1  0
 30 25  2  0
 25 26  1  0
 26 29  1  1
 26 27  1  0
 26 28  1  0
 27 54  1  0
 27 55  1  0
 27 56  1  0
 28 57  1  0
 28 58  1  0
 28 59  1  0
 29 60  1  0
 29 61  1  0
 29 62  1  0
 31 30  1  0
 32 31  1  0
 38 32  1  0
 33 32  2  0
 34 33  1  0
 33 63  1  0
 35 34  2  0
 34 64  1  0
 36 35  1  0
 35 37  1  0
 36 65  1  0
 36 66  1  0
 36 67  1  0
 37 38  2  0
 37 68  1  0
 38 69  1  0
M  END
