
     RDKit          3D

 49 52  0  0  0  0  0  0  0  0999 V2000
   -5.0420    1.4282    0.1295 C   0  0  0  0  0  0  0  0  0  0  0  0
    2.3112    0.0287   -0.0719 C   0  0  0  0  0  0  0  0  0  0  0  0
   -6.4365   -2.9655    0.6717 C   0  0  0  0  0  0  0  0  0  0  0  0
    6.0762    0.1206    0.3013 C   0  0  0  0  0  0  0  0  0  0  0  0
    2.0809   -1.2300   -0.6227 C   0  0  0  0  0  0  0  0  0  0  0  0
    6.9321   -1.1134    0.0395 C   0  0  0  0  0  0  0  0  0  0  0  0
    9.0195   -2.1378    0.6099 C   0  0  0  0  0  0  0  0  0  0  0  0
   -1.0521    1.6341   -0.3754 C   0  0  0  0  0  0  0  0  0  0  0  0
   -3.0277    2.6319   -0.2026 C   0  0  0  0  0  0  0  0  0  0  0  0
   -4.2666    0.2306    0.1263 C   0  0  0  0  0  0  0  0  0  0  0  0
   -0.9601    3.0103   -0.4687 C   0  0  0  0  0  0  0  0  0  0  0  0
   -0.0125    0.6158   -0.4444 C   0  0  0  0  0  0  0  0  0  0  0  0
   -4.8796   -1.0813    0.3119 C   0  0  0  0  0  0  0  0  0  0  0  0
   -4.4217    2.6264   -0.0305 C   0  0  0  0  0  0  0  0  0  0  0  0
    1.2602    0.9316    0.0307 C   0  0  0  0  0  0  0  0  0  0  0  0
   -4.2502   -2.2975    0.3336 C   0  0  0  0  0  0  0  0  0  0  0  0
   -5.1430   -3.3756    0.5391 C   0  0  0  0  0  0  0  0  0  0  0  0
   -0.2264   -0.6483   -1.0017 C   0  0  0  0  0  0  0  0  0  0  0  0
    0.8139   -1.5601   -1.0797 C   0  0  0  0  0  0  0  0  0  0  0  0
    9.0153   -0.1089   -0.6322 C   0  0  0  0  0  0  0  0  0  0  0  0
   -2.3910    1.4056   -0.2062 N   0  0  0  0  0  0  0  0  0  0  0  0
   -2.9715    0.2277   -0.0360 N   0  0  0  0  0  0  0  0  0  0  0  0
   -2.1614    3.6126   -0.3654 N   0  0  0  0  0  0  0  0  0  0  0  0
    4.7105   -0.1431   -0.0972 N   0  0  0  0  0  0  0  0  0  0  0  0
    8.3241   -0.8900    0.3726 N   0  0  0  0  0  0  0  0  0  0  0  0
    3.7306    1.2558    1.3803 O   0  0  0  0  0  0  0  0  0  0  0  0
   -6.5783   -1.2685    0.5476 S   0  0  0  0  0  0  0  0  0  0  0  0
   -6.1144    1.3882    0.2606 H   0  0  0  0  0  0  0  0  0  0  0  0
   -7.3145   -3.5706    0.8371 H   0  0  0  0  0  0  0  0  0  0  0  0
    6.0985    0.3570    1.3639 H   0  0  0  0  0  0  0  0  0  0  0  0
    6.4628    0.9942   -0.2324 H   0  0  0  0  0  0  0  0  0  0  0  0
    2.8690   -1.9701   -0.6752 H   0  0  0  0  0  0  0  0  0  0  0  0
    6.5500   -1.9242    0.6638 H   0  0  0  0  0  0  0  0  0  0  0  0
    6.8065   -1.4413   -1.0078 H   0  0  0  0  0  0  0  0  0  0  0  0
    9.0443   -2.7958   -0.2725 H   0  0  0  0  0  0  0  0  0  0  0  0
   10.0517   -1.9377    0.9010 H   0  0  0  0  0  0  0  0  0  0  0  0
    8.5451   -2.6875    1.4241 H   0  0  0  0  0  0  0  0  0  0  0  0
   -0.0560    3.5790   -0.6293 H   0  0  0  0  0  0  0  0  0  0  0  0
   -4.9662    3.5600   -0.0264 H   0  0  0  0  0  0  0  0  0  0  0  0
    1.4349    1.8960    0.4904 H   0  0  0  0  0  0  0  0  0  0  0  0
   -3.1832   -2.4113    0.2088 H   0  0  0  0  0  0  0  0  0  0  0  0
   -4.8394   -4.4111    0.5867 H   0  0  0  0  0  0  0  0  0  0  0  0
   -1.1996   -0.9241   -1.3803 H   0  0  0  0  0  0  0  0  0  0  0  0
    0.6333   -2.5396   -1.5021 H   0  0  0  0  0  0  0  0  0  0  0  0
    8.5126    0.8416   -0.8063 H   0  0  0  0  0  0  0  0  0  0  0  0
   10.0277    0.1167   -0.2946 H   0  0  0  0  0  0  0  0  0  0  0  0
    9.0914   -0.6276   -1.6007 H   0  0  0  0  0  0  0  0  0  0  0  0
    4.5785   -0.6671   -0.9476 H   0  0  0  0  0  0  0  0  0  0  0  0
    3.6445    0.4396    0.4724 C   0  0  0  0  0  0  0  0  0  0  0  0
 17  3  2  0
 17 16  1  0
  3 27  1  0
 16 13  2  0
 13 27  1  0
 13 10  1  0
  6 25  1  0
  6  4  1  0
  1 10  1  0
  1 14  2  0
 10 22  2  0
 25  7  1  0
 25 20  1  0
  4 24  1  0
 14  9  1  0
 22 21  1  0
 24 49  1  0
 21  9  1  0
 21  8  1  0
  9 23  2  0
 49 26  2  0
 49  2  1  0
 15  2  2  0
 15 12  1  0
 23 11  1  0
  8 12  1  0
  8 11  2  0
  2  5  1  0
 12 18  2  0
  5 19  2  0
 18 19  1  0
  1 28  1  0
  3 29  1  0
  4 30  1  0
  4 31  1  0
  5 32  1  0
  6 33  1  0
  6 34  1  0
  7 35  1  0
  7 36  1  0
  7 37  1  0
 11 38  1  0
 14 39  1  0
 15 40  1  0
 16 41  1  0
 17 42  1  0
 18 43  1  0
 19 44  1  0
 20 45  1  0
 20 46  1  0
 20 47  1  0
 24 48  1  0
M  END
