
     RDKit          3D

 49 52  0  0  0  0  0  0  0  0999 V2000
    7.9929    1.6858    0.1693 N   0  0  0  0  0  0  0  0  0  0  0  0
    6.7087    1.2483    0.1185 C   0  0  0  0  0  0  0  0  0  0  0  0
    5.8083    1.9178    0.8343 N   0  0  0  0  0  0  0  0  0  0  0  0
    4.5533    1.4724    0.7430 C   0  0  0  0  0  0  0  0  0  0  0  0
    6.4645    0.2093   -0.6826 N   0  0  0  0  0  0  0  0  0  0  0  0
    5.2087   -0.2086   -0.7742 C   0  0  0  0  0  0  0  0  0  0  0  0
    4.9361   -1.2657   -1.5614 N   0  0  0  0  0  0  0  0  0  0  0  0
    4.1669    0.4125   -0.0405 C   0  0  0  0  0  0  0  0  0  0  0  0
    2.8539   -0.0906   -0.1670 N   0  0  0  0  0  0  0  0  0  0  0  0
    2.5412   -1.1613    0.7659 C   0  0  0  0  0  0  0  0  0  0  0  0
    1.2480   -1.8517    0.3768 C   0  0  0  0  0  0  0  0  0  0  0  0
    1.7847    0.8869   -0.1787 C   0  0  0  0  0  0  0  0  0  0  0  0
    0.4906    0.2213   -0.6045 C   0  0  0  0  0  0  0  0  0  0  0  0
    0.1609   -0.8985    0.2677 N   0  0  0  0  0  0  0  0  0  0  0  0
   -1.1383   -1.3947    0.2268 C   0  0  0  0  0  0  0  0  0  0  0  0
   -1.4163   -2.7680    0.2840 C   0  0  0  0  0  0  0  0  0  0  0  0
   -2.7252   -3.2281    0.2845 C   0  0  0  0  0  0  0  0  0  0  0  0
   -3.7958   -2.3549    0.2115 C   0  0  0  0  0  0  0  0  0  0  0  0
   -2.2331   -0.5206    0.1500 C   0  0  0  0  0  0  0  0  0  0  0  0
   -3.5435   -0.9840    0.1400 C   0  0  0  0  0  0  0  0  0  0  0  0
   -4.6581   -0.0265    0.0580 C   0  0  0  0  0  0  0  0  0  0  0  0
   -4.6462    1.2078    0.6996 C   0  0  0  0  0  0  0  0  0  0  0  0
   -5.6478    2.0695    0.6234 N   0  0  0  0  0  0  0  0  0  0  0  0
   -5.8155   -0.2881   -0.6690 C   0  0  0  0  0  0  0  0  0  0  0  0
   -6.8255    0.5629   -0.7479 N   0  0  0  0  0  0  0  0  0  0  0  0
   -6.7068    1.7184   -0.1001 C   0  0  0  0  0  0  0  0  0  0  0  0
   -7.8293    2.6981   -0.2137 C   0  0  0  0  0  0  0  0  0  0  0  0
    8.2424    2.2909    0.9329 H   0  0  0  0  0  0  0  0  0  0  0  0
    8.7107    1.0480   -0.1300 H   0  0  0  0  0  0  0  0  0  0  0  0
    3.8159    2.0122    1.3302 H   0  0  0  0  0  0  0  0  0  0  0  0
    3.9727   -1.4135   -1.8157 H   0  0  0  0  0  0  0  0  0  0  0  0
    5.6335   -1.5598   -2.2242 H   0  0  0  0  0  0  0  0  0  0  0  0
    3.3425   -1.9018    0.7573 H   0  0  0  0  0  0  0  0  0  0  0  0
    2.4587   -0.7799    1.7955 H   0  0  0  0  0  0  0  0  0  0  0  0
    1.3956   -2.4076   -0.5616 H   0  0  0  0  0  0  0  0  0  0  0  0
    1.0208   -2.5800    1.1558 H   0  0  0  0  0  0  0  0  0  0  0  0
    1.6356    1.3580    0.8050 H   0  0  0  0  0  0  0  0  0  0  0  0
    2.0226    1.6770   -0.8924 H   0  0  0  0  0  0  0  0  0  0  0  0
   -0.2938    0.9730   -0.5723 H   0  0  0  0  0  0  0  0  0  0  0  0
    0.5820   -0.1146   -1.6470 H   0  0  0  0  0  0  0  0  0  0  0  0
   -0.6202   -3.4973    0.3138 H   0  0  0  0  0  0  0  0  0  0  0  0
   -2.9040   -4.2945    0.3358 H   0  0  0  0  0  0  0  0  0  0  0  0
   -4.8105   -2.7311    0.2282 H   0  0  0  0  0  0  0  0  0  0  0  0
   -2.0685    0.5467    0.0901 H   0  0  0  0  0  0  0  0  0  0  0  0
   -3.8010    1.5033    1.3133 H   0  0  0  0  0  0  0  0  0  0  0  0
   -5.9220   -1.2193   -1.2167 H   0  0  0  0  0  0  0  0  0  0  0  0
   -7.6862    3.3316   -1.0922 H   0  0  0  0  0  0  0  0  0  0  0  0
   -8.7837    2.1890   -0.3311 H   0  0  0  0  0  0  0  0  0  0  0  0
   -7.8708    3.3482    0.6575 H   0  0  0  0  0  0  0  0  0  0  0  0
 17 16  2  0
 17 18  1  0
 16 15  1  0
 11 10  1  0
 11 14  1  0
 18 20  2  0
 15 14  1  0
 15 19  2  0
 10  9  1  0
 14 13  1  0
 20 19  1  0
 20 21  1  0
 13 12  1  0
  7  6  1  0
 22 21  2  0
 22 23  1  0
  9 12  1  0
  9  8  1  0
 21 24  1  0
  6  8  2  0
  6  5  1  0
  8  4  1  0
 23 26  2  0
 24 25  2  0
  5  2  2  0
  4  3  2  0
 26 25  1  0
 26 27  1  0
  2  3  1  0
  2  1  1  0
  1 28  1  0
  1 29  1  0
  4 30  1  0
  7 31  1  0
  7 32  1  0
 10 33  1  0
 10 34  1  0
 11 35  1  0
 11 36  1  0
 12 37  1  0
 12 38  1  0
 13 39  1  0
 13 40  1  0
 16 41  1  0
 17 42  1  0
 18 43  1  0
 19 44  1  0
 22 45  1  0
 24 46  1  0
 27 47  1  0
 27 48  1  0
 27 49  1  0
M  END
