
     RDKit          3D

 46 47  0  0  0  0  0  0  0  0999 V2000
   -1.5164    0.5136    0.0896 N   0  0  0  0  0  0  0  0  0  0  0  0
   -0.3350    0.0368   -0.3463 C   0  0  0  0  0  0  0  0  0  0  0  0
    0.6398   -0.3241    0.7624 C   0  0  0  0  0  0  0  0  0  0  0  0
    1.3764   -2.4682   -0.0430 C   0  0  0  0  0  0  0  0  0  0  0  0
    2.9111   -1.0207    1.1295 C   0  0  0  0  0  0  0  0  0  0  0  0
    3.5668    0.3323    1.0280 C   0  0  0  0  0  0  0  0  0  0  0  0
    3.7214    0.9438   -0.2149 C   0  0  0  0  0  0  0  0  0  0  0  0
    4.8412    2.8108    0.8169 C   0  0  0  0  0  0  0  0  0  0  0  0
    4.0484    0.9794    2.1606 C   0  0  0  0  0  0  0  0  0  0  0  0
    3.0839   -2.4398   -1.7598 O   0  0  0  0  0  0  0  0  0  0  0  0
   -2.0429    2.1768   -1.6067 C   0  0  0  0  0  0  0  0  0  0  0  0
   -2.7048    2.3065   -2.7469 O   0  0  0  0  0  0  0  0  0  0  0  0
   -2.5210    0.9576   -0.8313 C   0  0  2  0  0  0  0  0  0  0  0  0
   -3.8146    1.3179   -0.0780 C   0  0  0  0  0  0  0  0  0  0  0  0
   -4.3263    0.1935    0.7468 C   0  0  0  0  0  0  0  0  0  0  0  0
   -4.8325   -0.9666    0.2296 N   0  0  0  0  0  0  0  0  0  0  0  0
   -5.1691   -1.7668    1.2613 C   0  0  0  0  0  0  0  0  0  0  0  0
   -4.9127   -1.2009    2.4120 N   0  0  0  0  0  0  0  0  0  0  0  0
   -4.3853    0.0212    2.1028 C   0  0  0  0  0  0  0  0  0  0  0  0
   -0.0814   -0.0762   -1.5326 O   0  0  0  0  0  0  0  0  0  0  0  0
    1.7377   -1.1175    0.2856 N   0  0  0  0  0  0  0  0  0  0  0  0
    2.2259   -3.0316   -1.1597 C   0  0  0  0  0  0  0  0  0  0  0  0
    1.8930   -4.2951   -1.4095 O   0  0  0  0  0  0  0  0  0  0  0  0
    4.3546    2.1733   -0.3196 C   0  0  0  0  0  0  0  0  0  0  0  0
    4.6855    2.2109    2.0583 C   0  0  0  0  0  0  0  0  0  0  0  0
   -1.6847    0.6083    1.0793 H   0  0  0  0  0  0  0  0  0  0  0  0
    1.0303    0.6221    1.1500 H   0  0  0  0  0  0  0  0  0  0  0  0
    0.0917   -0.7874    1.5989 H   0  0  0  0  0  0  0  0  0  0  0  0
    1.4236   -3.1566    0.8151 H   0  0  0  0  0  0  0  0  0  0  0  0
    0.3405   -2.5090   -0.3883 H   0  0  0  0  0  0  0  0  0  0  0  0
    3.6299   -1.7774    0.8060 H   0  0  0  0  0  0  0  0  0  0  0  0
    2.6903   -1.2484    2.1845 H   0  0  0  0  0  0  0  0  0  0  0  0
    3.3288    0.4485   -1.0940 H   0  0  0  0  0  0  0  0  0  0  0  0
    5.3341    3.7710    0.7332 H   0  0  0  0  0  0  0  0  0  0  0  0
    3.9186    0.5208    3.1343 H   0  0  0  0  0  0  0  0  0  0  0  0
   -2.4295    3.1153   -3.2044 H   0  0  0  0  0  0  0  0  0  0  0  0
   -2.7399    0.1635   -1.5513 H   0  0  0  0  0  0  0  0  0  0  0  0
   -3.6286    2.1691    0.5803 H   0  0  0  0  0  0  0  0  0  0  0  0
   -4.5634    1.6368   -0.8054 H   0  0  0  0  0  0  0  0  0  0  0  0
   -4.9450   -1.1898   -0.7473 H   0  0  0  0  0  0  0  0  0  0  0  0
   -5.6000   -2.7451    1.1137 H   0  0  0  0  0  0  0  0  0  0  0  0
   -4.0767    0.7231    2.8637 H   0  0  0  0  0  0  0  0  0  0  0  0
    2.4305   -4.6430   -2.1366 H   0  0  0  0  0  0  0  0  0  0  0  0
    4.4699    2.6389   -1.2903 H   0  0  0  0  0  0  0  0  0  0  0  0
    5.0514    2.7028    2.9505 H   0  0  0  0  0  0  0  0  0  0  0  0
   -1.2069    2.9479   -1.2170 O   0  0  0  0  0  0  0  0  0  0  0  0
 24  7  2  0
 24  8  1  0
  7  6  1  0
 20  2  2  0
 17 16  1  0
 17 18  2  0
  8 25  2  0
  6  5  1  0
  6  9  2  0
  5 21  1  0
 16 15  1  0
 25  9  1  0
 46 11  2  0
  2  3  1  0
  2  1  1  0
 18 19  1  0
  3 21  1  0
 21  4  1  0
 13 11  1  0
 13  1  1  0
 13 14  1  0
 15 19  2  0
 15 14  1  0
 11 12  1  0
  4 22  1  0
 22 10  2  0
 22 23  1  0
  1 26  1  0
  3 27  1  0
  3 28  1  0
  4 29  1  0
  4 30  1  0
  5 31  1  0
  5 32  1  0
  7 33  1  0
  8 34  1  0
  9 35  1  0
 12 36  1  0
 13 37  1  6
 14 38  1  0
 14 39  1  0
 16 40  1  0
 17 41  1  0
 19 42  1  0
 23 43  1  0
 24 44  1  0
 25 45  1  0
M  END
