
     RDKit          3D

 45 49  0  0  0  0  0  0  0  0999 V2000
   -0.3711   -0.0032   -2.8479 C   0  0  0  0  0  0  0  0  0  0  0  0
   -1.2802    0.0065   -1.6530 C   0  0  0  0  0  0  0  0  0  0  0  0
   -2.6667    0.0141   -1.8266 C   0  0  0  0  0  0  0  0  0  0  0  0
   -3.4742    0.0222   -0.7074 C   0  0  0  0  0  0  0  0  0  0  0  0
   -4.8421    0.0303   -0.5666 N   0  0  0  0  0  0  0  0  0  0  0  0
   -5.7916    0.0312   -1.6494 C   0  0  0  0  0  0  0  0  0  0  0  0
   -5.1760    0.0358    0.7696 C   0  0  0  0  0  0  0  0  0  0  0  0
   -6.2988    0.0430    1.2416 O   0  0  0  0  0  0  0  0  0  0  0  0
   -3.9887    0.0316    1.4632 N   0  0  0  0  0  0  0  0  0  0  0  0
   -3.8733    0.0340    2.8985 C   0  0  0  0  0  0  0  0  0  0  0  0
   -2.9332    0.0230    0.5801 C   0  0  0  0  0  0  0  0  0  0  0  0
   -1.5701    0.0157    0.7774 C   0  0  0  0  0  0  0  0  0  0  0  0
   -0.7650    0.0077   -0.3569 C   0  0  0  0  0  0  0  0  0  0  0  0
    0.6546    0.0007   -0.1718 N   0  0  0  0  0  0  0  0  0  0  0  0
    1.2913    1.2355   -0.1025 C   0  0  0  0  0  0  0  0  0  0  0  0
    0.6485    2.2577   -0.1963 O   0  0  0  0  0  0  0  0  0  0  0  0
    2.7512    1.2170    0.0782 C   0  0  0  0  0  0  0  0  0  0  0  0
    3.4351   -0.0126    0.1659 C   0  0  0  0  0  0  0  0  0  0  0  0
    3.4467    2.4016    0.1538 C   0  0  0  0  0  0  0  0  0  0  0  0
    4.8403    2.3990    0.3187 C   0  0  0  0  0  0  0  0  0  0  0  0
    5.5237    1.2141    0.4031 C   0  0  0  0  0  0  0  0  0  0  0  0
    4.8397   -0.0192    0.3305 C   0  0  0  0  0  0  0  0  0  0  0  0
    5.5107   -1.2587    0.4149 C   0  0  0  0  0  0  0  0  0  0  0  0
    4.8150   -2.4372    0.3411 C   0  0  0  0  0  0  0  0  0  0  0  0
    3.4212   -2.4268    0.1757 C   0  0  0  0  0  0  0  0  0  0  0  0
    2.7383   -1.2355    0.0890 C   0  0  0  0  0  0  0  0  0  0  0  0
    1.2783   -1.2403   -0.0920 C   0  0  0  0  0  0  0  0  0  0  0  0
    0.6247   -2.2563   -0.1769 O   0  0  0  0  0  0  0  0  0  0  0  0
    0.2701   -0.8860   -2.8647 H   0  0  0  0  0  0  0  0  0  0  0  0
   -0.9484   -0.0047   -3.7711 H   0  0  0  0  0  0  0  0  0  0  0  0
    0.2785    0.8733   -2.8729 H   0  0  0  0  0  0  0  0  0  0  0  0
   -3.0877    0.0135   -2.8240 H   0  0  0  0  0  0  0  0  0  0  0  0
   -5.6718   -0.8579   -2.2679 H   0  0  0  0  0  0  0  0  0  0  0  0
   -6.7969    0.0370   -1.2395 H   0  0  0  0  0  0  0  0  0  0  0  0
   -5.6637    0.9150   -2.2736 H   0  0  0  0  0  0  0  0  0  0  0  0
   -4.8681    0.0417    3.3333 H   0  0  0  0  0  0  0  0  0  0  0  0
   -3.3477   -0.8558    3.2443 H   0  0  0  0  0  0  0  0  0  0  0  0
   -3.3357    0.9181    3.2403 H   0  0  0  0  0  0  0  0  0  0  0  0
   -1.1340    0.0163    1.7681 H   0  0  0  0  0  0  0  0  0  0  0  0
    2.9188    3.3433    0.0847 H   0  0  0  0  0  0  0  0  0  0  0  0
    5.3711    3.3391    0.3771 H   0  0  0  0  0  0  0  0  0  0  0  0
    6.5996    1.2115    0.5257 H   0  0  0  0  0  0  0  0  0  0  0  0
    6.5865   -1.2664    0.5379 H   0  0  0  0  0  0  0  0  0  0  0  0
    5.3363   -3.3820    0.4088 H   0  0  0  0  0  0  0  0  0  0  0  0
    2.8831   -3.3632    0.1148 H   0  0  0  0  0  0  0  0  0  0  0  0
  8  7  2  0
  7  9  1  0
  7  5  1  0
 10  9  1  0
  6  5  1  0
  9 11  1  0
  5  4  1  0
 16 15  2  0
 11  4  2  0
 11 12  1  0
  4  3  1  0
 19 20  1  0
 19 17  2  0
 12 13  2  0
  3  2  2  0
 15 17  1  0
 15 14  1  0
 20 21  2  0
  2 13  1  0
  2  1  1  0
 13 14  1  0
 17 18  1  0
 14 27  1  0
 21 22  1  0
 18 22  1  0
 18 26  2  0
 27 26  1  0
 27 28  2  0
 22 23  2  0
 26 25  1  0
 23 24  1  0
 25 24  2  0
  1 29  1  0
  1 30  1  0
  1 31  1  0
  3 32  1  0
  6 33  1  0
  6 34  1  0
  6 35  1  0
 10 36  1  0
 10 37  1  0
 10 38  1  0
 12 39  1  0
 19 40  1  0
 20 41  1  0
 21 42  1  0
 23 43  1  0
 24 44  1  0
 25 45  1  0
M  END
