
     RDKit          3D

 32 32  0  0  0  0  0  0  0  0999 V2000
   40.7851   38.8697  -11.1422 O   0  0  0  0  0  0  0  0  0  0  0  0
   39.6409   38.6878  -11.5009 C   0  0  0  0  0  0  0  0  0  0  0  0
   39.0932   39.1554  -12.6294 N   0  0  0  0  0  0  0  0  0  0  0  0
   39.8322   39.8791  -13.6421 C   0  0  2  0  0  0  0  0  0  0  0  0
   39.4563   41.3586  -13.6779 C   0  0  0  0  0  0  0  0  0  0  0  0
   38.1190   41.5887  -14.0758 O   0  0  0  0  0  0  0  0  0  0  0  0
   39.6389   39.1894  -15.0092 C   0  0  2  0  0  0  0  0  0  0  0  0
   38.2828   39.0518  -15.3397 O   0  0  0  0  0  0  0  0  0  0  0  0
   40.2858   37.8302  -14.9829 C   0  0  0  0  0  0  0  0  0  0  0  0
   39.5630   36.6746  -14.7064 C   0  0  0  0  0  0  0  0  0  0  0  0
   40.1999   35.4474  -14.6257 C   0  0  0  0  0  0  0  0  0  0  0  0
   41.5699   35.3852  -14.8259 C   0  0  0  0  0  0  0  0  0  0  0  0
   42.2434   34.1002  -14.7391 N   0  0  0  0  0  0  0  0  0  0  0  0
   43.4397   34.0719  -14.9115 O   0  0  0  0  0  0  0  0  0  0  0  0
   41.5756   33.1218  -14.4979 O   0  0  0  0  0  0  0  0  0  0  0  0
   42.3142   36.5226  -15.1084 C   0  0  0  0  0  0  0  0  0  0  0  0
   41.6610   37.7373  -15.1856 C   0  0  0  0  0  0  0  0  0  0  0  0
   38.6638   37.8490  -10.6763 C   0  0  1  0  0  0  0  0  0  0  0  0
   39.1742   35.9884  -10.8605 Br  0  0  0  0  0  0  0  0  0  0  0  0
   38.7306   38.3958   -8.8298 Br  0  0  0  0  0  0  0  0  0  0  0  0
   38.1295   38.9342  -12.8301 H   0  0  0  0  0  0  0  0  0  0  0  0
   37.6293   37.9381  -11.0110 H   0  0  0  0  0  0  0  0  0  0  0  0
   40.8915   39.8342  -13.3825 H   0  0  0  0  0  0  0  0  0  0  0  0
   39.6662   41.8043  -12.7012 H   0  0  0  0  0  0  0  0  0  0  0  0
   40.1005   41.8539  -14.4076 H   0  0  0  0  0  0  0  0  0  0  0  0
   40.1705   39.8053  -15.7494 H   0  0  0  0  0  0  0  0  0  0  0  0
   37.5449   41.5176  -13.3068 H   0  0  0  0  0  0  0  0  0  0  0  0
   37.8713   39.9224  -15.2468 H   0  0  0  0  0  0  0  0  0  0  0  0
   38.4947   36.7162  -14.5506 H   0  0  0  0  0  0  0  0  0  0  0  0
   42.2334   38.6288  -15.4103 H   0  0  0  0  0  0  0  0  0  0  0  0
   39.6256   34.5596  -14.4054 H   0  0  0  0  0  0  0  0  0  0  0  0
   43.3809   36.4726  -15.2699 H   0  0  0  0  0  0  0  0  0  0  0  0
  1  2  2  0
  2  3  1  0
  2 18  1  0
  3  4  1  0
  4  5  1  0
  4  7  1  0
  5  6  1  0
  7  8  1  0
  7  9  1  0
  9 10  2  0
  9 17  1  0
 10 11  1  0
 11 12  2  0
 12 13  1  0
 12 16  1  0
 13 14  1  0
 13 15  2  0
 16 17  2  0
 18 19  1  0
 18 20  1  0
  3 21  1  0
 18 22  1  6
  4 23  1  1
  5 24  1  0
  5 25  1  0
  7 26  1  6
  6 27  1  0
  8 28  1  0
 10 29  1  0
 17 30  1  0
 11 31  1  0
 16 32  1  0
M  CHG  2  13   1  14  -1
M  END
