
     RDKit          3D

 34 36  0  0  0  0  0  0  0  0999 V2000
    4.4491    0.9597   -0.2772 C   0  0  0  0  0  0  0  0  0  0  0  0
   -1.1984    2.1663    0.0975 C   0  0  0  0  0  0  0  0  0  0  0  0
   -2.0207    0.9803    0.0087 C   0  0  0  0  0  0  0  0  0  0  0  0
   -1.4251   -0.2807   -0.0779 C   0  0  0  0  0  0  0  0  0  0  0  0
   -0.0788   -0.3956   -0.0951 O   0  0  0  0  0  0  0  0  0  0  0  0
    0.7196    0.6764   -0.0031 C   0  0  0  0  0  0  0  0  0  0  0  0
    0.2188    1.9302    0.1017 C   0  0  0  0  0  0  0  0  0  0  0  0
    2.1395    0.3240   -0.0203 C   0  0  0  0  0  0  0  0  0  0  0  0
    3.1061    1.2952   -0.2719 C   0  0  0  0  0  0  0  0  0  0  0  0
    4.8509   -0.3455   -0.0353 C   0  0  0  0  0  0  0  0  0  0  0  0
    6.1321   -0.7522   -0.0242 O   0  0  0  0  0  0  0  0  0  0  0  0
    3.8860   -1.3331    0.2155 C   0  0  0  0  0  0  0  0  0  0  0  0
    4.2325   -2.6121    0.4582 O   0  0  0  0  0  0  0  0  0  0  0  0
    2.5467   -0.9937    0.2175 C   0  0  0  0  0  0  0  0  0  0  0  0
   -2.1540   -1.4472   -0.1552 C   0  0  0  0  0  0  0  0  0  0  0  0
   -3.5480   -1.3516   -0.1465 C   0  0  0  0  0  0  0  0  0  0  0  0
   -4.2033   -2.5117   -0.2258 O   0  0  0  0  0  0  0  0  0  0  0  0
   -5.6213   -2.5100   -0.2253 C   0  0  0  0  0  0  0  0  0  0  0  0
   -4.1878   -0.1129   -0.0619 C   0  0  0  0  0  0  0  0  0  0  0  0
   -3.4298    1.0463    0.0153 C   0  0  0  0  0  0  0  0  0  0  0  0
   -4.0476    2.2196    0.0965 O   0  0  0  0  0  0  0  0  0  0  0  0
    5.1926    1.7216   -0.4788 H   0  0  0  0  0  0  0  0  0  0  0  0
    0.8857    2.7738    0.2021 H   0  0  0  0  0  0  0  0  0  0  0  0
    2.8280    2.3170   -0.4881 H   0  0  0  0  0  0  0  0  0  0  0  0
    6.7329   -0.0229   -0.2158 H   0  0  0  0  0  0  0  0  0  0  0  0
    5.1906   -2.7191    0.4275 H   0  0  0  0  0  0  0  0  0  0  0  0
    1.8264   -1.7755    0.4191 H   0  0  0  0  0  0  0  0  0  0  0  0
   -1.6644   -2.4096   -0.2241 H   0  0  0  0  0  0  0  0  0  0  0  0
   -6.0254   -1.9623   -1.0794 H   0  0  0  0  0  0  0  0  0  0  0  0
   -5.9259   -3.5504   -0.2976 H   0  0  0  0  0  0  0  0  0  0  0  0
   -6.0258   -2.0857    0.6961 H   0  0  0  0  0  0  0  0  0  0  0  0
   -5.2655   -0.0269   -0.0558 H   0  0  0  0  0  0  0  0  0  0  0  0
   -3.3489    2.9179    0.1435 H   0  0  0  0  0  0  0  0  0  0  0  0
   -1.6946    3.3027    0.1749 O   0  0  0  0  0  0  0  0  0  0  0  0
 13 12  1  0
 12 14  2  0
 12 10  1  0
 34  2  2  0
 14  8  1  0
  7  2  1  0
  7  6  2  0
  2  3  1  0
 21 20  1  0
 11 10  1  0
 10  1  2  0
  8  6  1  0
  8  9  2  0
  6  5  1  0
  3 20  2  0
  3  4  1  0
 20 19  1  0
  5  4  1  0
  4 15  2  0
 19 16  2  0
  1  9  1  0
 15 16  1  0
 16 17  1  0
 18 17  1  0
  1 22  1  0
  7 23  1  0
  9 24  1  0
 11 25  1  0
 13 26  1  0
 14 27  1  0
 15 28  1  0
 18 29  1  0
 18 30  1  0
 18 31  1  0
 19 32  1  0
 21 33  1  0
M  END
