
     RDKit          3D

 17 16  0  0  0  0  0  0  0  0999 V2000
   -2.9883   -0.1503    0.0061 C   0  0  0  0  0  0  0  0  0  0  0  0
   -1.6063   -0.7775   -0.0158 C   0  0  0  0  0  0  0  0  0  0  0  0
   -0.4912    0.2345   -0.0093 C   0  0  0  0  0  0  0  0  0  0  0  0
   -0.6422    1.4312   -0.0205 O   0  0  0  0  0  0  0  0  0  0  0  0
    0.6994   -0.3519    0.0076 O   0  0  0  0  0  0  0  0  0  0  0  0
    1.8677    0.4831    0.0117 C   0  0  0  0  0  0  0  0  0  0  0  0
    3.0769   -0.4206    0.0302 C   0  0  0  0  0  0  0  0  0  0  0  0
   -3.7501   -0.9285   -0.0040 H   0  0  0  0  0  0  0  0  0  0  0  0
   -3.1414    0.4526    0.9006 H   0  0  0  0  0  0  0  0  0  0  0  0
   -3.1545    0.4878   -0.8610 H   0  0  0  0  0  0  0  0  0  0  0  0
   -1.4834   -1.4118   -0.8984 H   0  0  0  0  0  0  0  0  0  0  0  0
   -1.4697   -1.4434    0.8406 H   0  0  0  0  0  0  0  0  0  0  0  0
    1.8538    1.1327    0.8892 H   0  0  0  0  0  0  0  0  0  0  0  0
    1.8702    1.1186   -0.8763 H   0  0  0  0  0  0  0  0  0  0  0  0
    3.0933   -1.0491    0.9206 H   0  0  0  0  0  0  0  0  0  0  0  0
    3.1120   -1.0613   -0.8510 H   0  0  0  0  0  0  0  0  0  0  0  0
    3.9805    0.1883    0.0355 H   0  0  0  0  0  0  0  0  0  0  0  0
  1  2  1  0
  1  8  1  0
  1  9  1  0
  1 10  1  0
  2  3  1  0
  2 11  1  0
  2 12  1  0
  3  4  2  0
  3  5  1  0
  5  6  1  0
  6  7  1  0
  6 13  1  0
  6 14  1  0
  7 15  1  0
  7 16  1  0
  7 17  1  0
M  END
