
     RDKit          3D

 56 58  0  0  0  0  0  0  0  0999 V2000
   -1.5610    2.5734    9.0916 C   0  0  0  0  0  0  0  0  0  0  0  0
   -1.7664    1.9347   10.2419 N   0  0  0  0  0  0  0  0  0  0  0  0
   -3.0211    1.7439   10.6256 C   0  0  0  0  0  0  0  0  0  0  0  0
   -4.1148    2.0956    9.9530 N   0  0  0  0  0  0  0  0  0  0  0  0
   -3.9031    2.7160    8.8009 C   0  0  0  0  0  0  0  0  0  0  0  0
   -2.6439    2.9990    8.3151 C   0  0  0  0  0  0  0  0  0  0  0  0
   -3.2679    1.1579   11.8368 N   0  0  0  0  0  0  0  0  0  0  0  0
   -2.3774    0.6605   12.7717 C   0  0  0  0  0  0  0  0  0  0  0  0
   -1.1659    0.0501   12.4279 C   0  0  0  0  0  0  0  0  0  0  0  0
   -0.3453   -0.4613   13.4131 C   0  0  0  0  0  0  0  0  0  0  0  0
   -0.7109   -0.3583   14.7505 C   0  0  0  0  0  0  0  0  0  0  0  0
   -1.9176    0.2274   15.1056 C   0  0  0  0  0  0  0  0  0  0  0  0
   -2.7450    0.7279   14.1188 C   0  0  0  0  0  0  0  0  0  0  0  0
    0.3350   -1.0418   15.9922 S   0  0  1  0  0  0  0  0  0  0  0  0
    1.7869   -0.3742   15.5884 N   0  0  0  0  0  0  0  0  0  0  0  0
    1.9682    1.0600   15.7744 C   0  0  0  0  0  0  0  0  0  0  0  0
    3.1572    1.4984   14.9388 C   0  0  0  0  0  0  0  0  0  0  0  0
    3.2825    2.8896   15.0436 O   0  0  0  0  0  0  0  0  0  0  0  0
    4.4094    3.3797   14.3606 C   0  0  0  0  0  0  0  0  0  0  0  0
   -0.2094    2.8392    8.6239 C   0  0  0  0  0  0  0  0  0  0  0  0
    0.9759    2.8612    9.3412 N   0  0  0  0  0  0  0  0  0  0  0  0
    1.9550    3.1910    8.4645 C   0  0  0  0  0  0  0  0  0  0  0  0
    1.4791    3.3626    7.2469 N   0  0  0  0  0  0  0  0  0  0  0  0
    0.1508    3.1543    7.3354 C   0  0  0  0  0  0  0  0  0  0  0  0
    1.1430    2.5626   10.7733 C   0  0  1  0  0  0  0  0  0  0  0  0
    1.8637    1.2358   10.9672 C   0  0  0  0  0  0  0  0  0  0  0  0
    1.7886    3.7107   11.5365 C   0  0  0  0  0  0  0  0  0  0  0  0
    3.3918    3.4048    8.7853 C   0  0  0  0  0  0  0  0  0  0  0  0
   -0.1543   -0.5841   17.2875 O   0  0  0  0  0  0  0  0  0  0  0  0
    0.4945   -2.4754   15.7915 O   0  0  0  0  0  0  0  0  0  0  0  0
   -2.5175    3.5427    7.3916 H   0  0  0  0  0  0  0  0  0  0  0  0
   -4.2302    1.2309   12.1318 H   0  0  0  0  0  0  0  0  0  0  0  0
   -4.7840    3.0135    8.2434 H   0  0  0  0  0  0  0  0  0  0  0  0
   -0.8708   -0.0388   11.3946 H   0  0  0  0  0  0  0  0  0  0  0  0
   -3.6814    1.1938   14.3985 H   0  0  0  0  0  0  0  0  0  0  0  0
    0.5846   -0.9366   13.1295 H   0  0  0  0  0  0  0  0  0  0  0  0
   -2.2143    0.3136   16.1415 H   0  0  0  0  0  0  0  0  0  0  0  0
    2.5526   -0.9428   15.9384 H   0  0  0  0  0  0  0  0  0  0  0  0
    1.0724    1.5763   15.4209 H   0  0  0  0  0  0  0  0  0  0  0  0
    2.1150    1.3257   16.8245 H   0  0  0  0  0  0  0  0  0  0  0  0
    4.0691    0.9910   15.2868 H   0  0  0  0  0  0  0  0  0  0  0  0
    3.0007    1.1888   13.8963 H   0  0  0  0  0  0  0  0  0  0  0  0
    4.3773    3.1408   13.2910 H   0  0  0  0  0  0  0  0  0  0  0  0
    4.4238    4.4631   14.4697 H   0  0  0  0  0  0  0  0  0  0  0  0
    5.3424    2.9737   14.7682 H   0  0  0  0  0  0  0  0  0  0  0  0
   -0.4929    3.2156    6.4706 H   0  0  0  0  0  0  0  0  0  0  0  0
    0.1344    2.4401   11.1541 H   0  0  0  0  0  0  0  0  0  0  0  0
    3.9528    3.4069    7.8535 H   0  0  0  0  0  0  0  0  0  0  0  0
    3.5548    4.3695    9.2681 H   0  0  0  0  0  0  0  0  0  0  0  0
    3.8160    2.6383    9.4291 H   0  0  0  0  0  0  0  0  0  0  0  0
    2.9044    1.2684   10.6460 H   0  0  0  0  0  0  0  0  0  0  0  0
    1.8620    0.9751   12.0250 H   0  0  0  0  0  0  0  0  0  0  0  0
    1.3629    0.4331   10.4264 H   0  0  0  0  0  0  0  0  0  0  0  0
    1.6935    3.5224   12.6067 H   0  0  0  0  0  0  0  0  0  0  0  0
    2.8503    3.8241   11.3228 H   0  0  0  0  0  0  0  0  0  0  0  0
    1.2909    4.6562   11.3205 H   0  0  0  0  0  0  0  0  0  0  0  0
  1  2  2  0
  1  6  1  0
  1 20  1  0
  2  3  1  0
  3  4  2  0
  3  7  1  0
  4  5  1  0
  5  6  2  0
  7  8  1  0
  8  9  2  0
  8 13  1  0
  9 10  1  0
 10 11  2  0
 11 12  1  0
 11 14  1  0
 12 13  2  0
 14 15  1  6
 14 29  2  0
 14 30  2  0
 15 16  1  0
 16 17  1  0
 17 18  1  0
 18 19  1  0
 20 21  1  0
 20 24  2  0
 21 22  1  0
 21 25  1  0
 22 23  2  0
 22 28  1  0
 23 24  1  0
 25 26  1  0
 25 27  1  0
  6 31  1  0
  7 32  1  0
  5 33  1  0
  9 34  1  0
 13 35  1  0
 10 36  1  0
 12 37  1  0
 15 38  1  0
 16 39  1  0
 16 40  1  0
 17 41  1  0
 17 42  1  0
 19 43  1  0
 19 44  1  0
 19 45  1  0
 24 46  1  0
 25 47  1  1
 28 48  1  0
 28 49  1  0
 28 50  1  0
 26 51  1  0
 26 52  1  0
 26 53  1  0
 27 54  1  0
 27 55  1  0
 27 56  1  0
M  END
