
     RDKit          3D

 60 63  0  0  0  0  0  0  0  0999 V2000
    0.8741   -0.7899   -1.1053 C   0  0  0  0  0  0  0  0  0  0  0  0
    0.1025    0.3652   -1.1510 C   0  0  0  0  0  0  0  0  0  0  0  0
    3.0333    3.6791   -1.3852 C   0  0  1  0  0  0  0  0  0  0  0  0
    2.6282    2.9002   -0.3532 O   0  0  0  0  0  0  0  0  0  0  0  0
    2.0434    1.6856   -0.6487 C   0  0  0  0  0  0  0  0  0  0  0  0
    2.8441    0.5355   -0.6058 C   0  0  0  0  0  0  0  0  0  0  0  0
    4.1385    0.7190   -0.3366 O   0  0  0  0  0  0  0  0  0  0  0  0
    5.0052   -0.4144   -0.2179 C   0  0  2  0  0  0  0  0  0  0  0  0
    4.7855   -1.1603    1.1122 C   0  0  0  0  0  0  0  0  0  0  0  0
    5.9259   -0.7122    2.0518 C   0  0  0  0  0  0  0  0  0  0  0  0
    6.5854    0.4789    1.3520 C   0  0  0  0  0  0  0  0  0  0  0  0
    6.4209    0.1357   -0.1247 C   0  0  0  0  0  0  0  0  0  0  0  0
    2.2394   -0.6978   -0.8296 C   0  0  0  0  0  0  0  0  0  0  0  0
    0.6928    1.5996   -0.9184 C   0  0  0  0  0  0  0  0  0  0  0  0
    0.3113   -2.1227   -1.3492 C   0  0  0  0  0  0  0  0  0  0  0  0
   -0.7483   -2.6510   -0.6864 N   0  0  0  0  0  0  0  0  0  0  0  0
   -1.0125   -3.8962   -1.0728 N   0  0  0  0  0  0  0  0  0  0  0  0
   -1.5284   -2.0568    0.3747 C   0  0  0  0  0  0  0  0  0  0  0  0
   -2.8825   -1.5211   -0.0923 C   0  0  1  0  0  0  0  0  0  0  0  0
   -3.6885   -2.5150   -0.6626 O   0  0  0  0  0  0  0  0  0  0  0  0
   -3.5522   -0.8095    1.0826 C   0  0  0  0  0  0  0  0  0  0  0  0
   -4.8869   -0.3394    0.7877 N   0  0  0  0  0  0  0  0  0  0  0  0
   -5.5637    0.1081    1.9918 C   0  0  0  0  0  0  0  0  0  0  0  0
   -6.9802    0.5386    1.6644 C   0  0  0  0  0  0  0  0  0  0  0  0
   -6.9990    1.5602    0.6918 O   0  0  0  0  0  0  0  0  0  0  0  0
   -6.3397    1.1421   -0.4822 C   0  0  0  0  0  0  0  0  0  0  0  0
   -4.9097    0.7188   -0.2054 C   0  0  0  0  0  0  0  0  0  0  0  0
   -0.1218   -4.1776   -2.0044 C   0  0  0  0  0  0  0  0  0  0  0  0
    0.7459   -3.0996   -2.2208 C   0  0  0  0  0  0  0  0  0  0  0  0
    3.8104    2.9929   -2.2514 F   0  0  0  0  0  0  0  0  0  0  0  0
    1.9749    4.1117   -2.1155 F   0  0  0  0  0  0  0  0  0  0  0  0
   -0.9497    0.3211   -1.3957 H   0  0  0  0  0  0  0  0  0  0  0  0
    3.5763    4.5333   -0.9876 H   0  0  0  0  0  0  0  0  0  0  0  0
    4.8755   -1.0591   -1.0928 H   0  0  0  0  0  0  0  0  0  0  0  0
    3.8047   -0.9300    1.5318 H   0  0  0  0  0  0  0  0  0  0  0  0
    4.8049   -2.2385    0.9482 H   0  0  0  0  0  0  0  0  0  0  0  0
    5.5661   -0.4663    3.0508 H   0  0  0  0  0  0  0  0  0  0  0  0
    6.6542   -1.5180    2.1642 H   0  0  0  0  0  0  0  0  0  0  0  0
    6.0613    1.4079    1.5895 H   0  0  0  0  0  0  0  0  0  0  0  0
    7.6278    0.6142    1.6419 H   0  0  0  0  0  0  0  0  0  0  0  0
    7.1149   -0.6645   -0.3957 H   0  0  0  0  0  0  0  0  0  0  0  0
    6.5932    0.9653   -0.8115 H   0  0  0  0  0  0  0  0  0  0  0  0
    2.8174   -1.6103   -0.7809 H   0  0  0  0  0  0  0  0  0  0  0  0
    0.0876    2.4957   -0.9341 H   0  0  0  0  0  0  0  0  0  0  0  0
   -1.6695   -2.8142    1.1482 H   0  0  0  0  0  0  0  0  0  0  0  0
   -0.9419   -1.2523    0.8177 H   0  0  0  0  0  0  0  0  0  0  0  0
   -2.7035   -0.8030   -0.8977 H   0  0  0  0  0  0  0  0  0  0  0  0
   -3.9054   -3.1654    0.0139 H   0  0  0  0  0  0  0  0  0  0  0  0
   -3.6216   -1.5099    1.9226 H   0  0  0  0  0  0  0  0  0  0  0  0
   -2.8914    0.0097    1.4185 H   0  0  0  0  0  0  0  0  0  0  0  0
   -5.6023   -0.7114    2.7141 H   0  0  0  0  0  0  0  0  0  0  0  0
   -5.0283    0.9437    2.4762 H   0  0  0  0  0  0  0  0  0  0  0  0
   -7.5518   -0.3337    1.3160 H   0  0  0  0  0  0  0  0  0  0  0  0
   -7.4717    0.9267    2.5577 H   0  0  0  0  0  0  0  0  0  0  0  0
   -6.8785    0.3042   -0.9469 H   0  0  0  0  0  0  0  0  0  0  0  0
   -6.3530    1.9795   -1.1813 H   0  0  0  0  0  0  0  0  0  0  0  0
   -4.3198    1.5942    0.1207 H   0  0  0  0  0  0  0  0  0  0  0  0
   -4.4765    0.3699   -1.1445 H   0  0  0  0  0  0  0  0  0  0  0  0
   -0.1253   -5.1426   -2.4884 H   0  0  0  0  0  0  0  0  0  0  0  0
    1.5653   -3.0285   -2.9167 H   0  0  0  0  0  0  0  0  0  0  0  0
 10 11  1  0
 10  9  1  0
 24 23  1  0
 24 25  1  0
 23 22  1  0
 22 21  1  0
 22 27  1  0
 20 19  1  0
 26 25  1  0
 26 27  1  0
 11 12  1  0
  9  8  1  0
 21 19  1  0
 19 18  1  0
  8 12  1  0
  8  7  1  0
 17 28  2  0
 17 16  1  0
 28 29  1  0
 18 16  1  0
 16 15  1  0
  7  6  1  0
 29 15  2  0
 13  6  2  0
 13  1  1  0
 15  1  1  0
  6  5  1  0
  1  2  2  0
  5  4  1  0
  5 14  2  0
  4  3  1  0
  2 14  1  0
  3 30  1  0
  3 31  1  0
  2 32  1  0
  3 33  1  1
  8 34  1  6
  9 35  1  0
  9 36  1  0
 10 37  1  0
 10 38  1  0
 11 39  1  0
 11 40  1  0
 12 41  1  0
 12 42  1  0
 13 43  1  0
 14 44  1  0
 18 45  1  0
 18 46  1  0
 19 47  1  6
 20 48  1  0
 21 49  1  0
 21 50  1  0
 23 51  1  0
 23 52  1  0
 24 53  1  0
 24 54  1  0
 26 55  1  0
 26 56  1  0
 27 57  1  0
 27 58  1  0
 28 59  1  0
 29 60  1  0
M  END
