
     RDKit          3D

 48 49  0  0  0  0  0  0  0  0999 V2000
   -0.4150    0.5787   -0.6030 P   0  0  2  0  0  0  0  0  0  0  0  0
   -3.1855    1.0862   -0.3173 C   0  0  0  0  0  0  0  0  0  0  0  0
   -1.7932    1.6827   -0.1005 C   0  0  2  0  0  0  0  0  0  0  0  0
   -3.5470   -0.0270    0.6686 C   0  0  0  0  0  0  0  0  0  0  0  0
   -4.9584   -0.4973    0.4773 C   0  0  0  0  0  0  0  0  0  0  0  0
   -1.5508    2.9373   -0.8072 N   0  0  0  0  0  0  0  0  0  0  0  0
    1.0652    1.2495    0.2071 C   0  0  0  0  0  0  0  0  0  0  0  0
   -0.2157    0.8712   -2.1857 O   0  0  0  0  0  0  0  0  0  0  0  0
    2.3230    0.4485   -0.1300 C   0  0  2  0  0  0  0  0  0  0  0  0
   -0.5863   -0.8897   -0.3888 O   0  0  0  0  0  0  0  0  0  0  0  0
    2.2419   -0.9527    0.4388 C   0  0  0  0  0  0  0  0  0  0  0  0
    3.5636    1.1430    0.4655 C   0  0  0  0  0  0  0  0  0  0  0  0
   -5.2390   -1.6927   -0.1777 C   0  0  0  0  0  0  0  0  0  0  0  0
    4.8371    0.3886    0.2025 C   0  0  0  0  0  0  0  0  0  0  0  0
   -6.4640   -2.1525   -0.4036 N   0  0  0  0  0  0  0  0  0  0  0  0
   -7.4883   -1.4238    0.0220 C   0  0  0  0  0  0  0  0  0  0  0  0
   -7.3315   -0.2157    0.6865 C   0  0  0  0  0  0  0  0  0  0  0  0
   -6.0473    0.2502    0.9154 C   0  0  0  0  0  0  0  0  0  0  0  0
    2.0017   -1.1869    1.5975 O   0  0  0  0  0  0  0  0  0  0  0  0
    2.5324   -1.8877   -0.4519 O   0  0  0  0  0  0  0  0  0  0  0  0
    5.4418    0.4393   -1.0521 C   0  0  0  0  0  0  0  0  0  0  0  0
    6.5961   -0.2837   -1.3149 C   0  0  0  0  0  0  0  0  0  0  0  0
    7.1660   -1.0717   -0.3220 C   0  0  0  0  0  0  0  0  0  0  0  0
    6.5737   -1.1284    0.9317 C   0  0  0  0  0  0  0  0  0  0  0  0
    5.4176   -0.4026    1.1901 C   0  0  0  0  0  0  0  0  0  0  0  0
   -3.9038    1.9050   -0.2073 H   0  0  0  0  0  0  0  0  0  0  0  0
   -3.2880    0.7256   -1.3459 H   0  0  0  0  0  0  0  0  0  0  0  0
   -1.6532    1.8636    0.9700 H   0  0  0  0  0  0  0  0  0  0  0  0
   -2.8590   -0.8644    0.5537 H   0  0  0  0  0  0  0  0  0  0  0  0
   -3.4207    0.3469    1.6888 H   0  0  0  0  0  0  0  0  0  0  0  0
   -2.1137    2.9775   -1.6483 H   0  0  0  0  0  0  0  0  0  0  0  0
   -1.8384    3.7208   -0.2367 H   0  0  0  0  0  0  0  0  0  0  0  0
    1.1931    2.2921   -0.0933 H   0  0  0  0  0  0  0  0  0  0  0  0
    0.8939    1.2497    1.2865 H   0  0  0  0  0  0  0  0  0  0  0  0
   -0.1684    1.8188   -2.3788 H   0  0  0  0  0  0  0  0  0  0  0  0
    2.4470    0.3945   -1.2142 H   0  0  0  0  0  0  0  0  0  0  0  0
    3.6225    2.1435    0.0318 H   0  0  0  0  0  0  0  0  0  0  0  0
    3.4169    1.2729    1.5400 H   0  0  0  0  0  0  0  0  0  0  0  0
   -4.4203   -2.3118   -0.5341 H   0  0  0  0  0  0  0  0  0  0  0  0
   -8.4800   -1.8183   -0.1703 H   0  0  0  0  0  0  0  0  0  0  0  0
   -8.1976    0.3417    1.0164 H   0  0  0  0  0  0  0  0  0  0  0  0
   -5.8894    1.1879    1.4358 H   0  0  0  0  0  0  0  0  0  0  0  0
    2.5134   -2.7608   -0.0311 H   0  0  0  0  0  0  0  0  0  0  0  0
    5.0050    1.0533   -1.8315 H   0  0  0  0  0  0  0  0  0  0  0  0
    7.0530   -0.2315   -2.2949 H   0  0  0  0  0  0  0  0  0  0  0  0
    8.0683   -1.6343   -0.5241 H   0  0  0  0  0  0  0  0  0  0  0  0
    7.0120   -1.7375    1.7119 H   0  0  0  0  0  0  0  0  0  0  0  0
    4.9635   -0.4513    2.1729 H   0  0  0  0  0  0  0  0  0  0  0  0
  1  3  1  0
  1  7  1  0
  1  8  1  6
  1 10  2  0
  2  3  1  0
  2  4  1  0
  3  6  1  0
  4  5  1  0
  5 13  2  0
  5 18  1  0
  7  9  1  0
  9 11  1  0
  9 12  1  0
 11 19  2  0
 11 20  1  0
 12 14  1  0
 13 15  1  0
 14 21  2  0
 14 25  1  0
 15 16  2  0
 16 17  1  0
 17 18  2  0
 21 22  1  0
 22 23  2  0
 23 24  1  0
 24 25  2  0
  2 26  1  0
  2 27  1  0
  3 28  1  1
  4 29  1  0
  4 30  1  0
  6 31  1  0
  6 32  1  0
  7 33  1  0
  7 34  1  0
  8 35  1  0
  9 36  1  6
 12 37  1  0
 12 38  1  0
 13 39  1  0
 16 40  1  0
 17 41  1  0
 18 42  1  0
 20 43  1  0
 21 44  1  0
 22 45  1  0
 23 46  1  0
 24 47  1  0
 25 48  1  0
M  END
