
     RDKit          3D

 28 27  0  0  0  0  0  0  0  0999 V2000
    6.8145    0.3561   -0.0734 N   0  0  0  0  0  0  0  0  0  0  0  0
    5.6279   -0.4550    0.1604 C   0  0  0  0  0  0  0  0  0  0  0  0
    4.3592    0.3509   -0.0699 C   0  0  0  0  0  0  0  0  0  0  0  0
    3.0930   -0.4707    0.1315 C   0  0  0  0  0  0  0  0  0  0  0  0
    1.8205    0.3349   -0.0963 C   0  0  0  0  0  0  0  0  0  0  0  0
    0.5563   -0.4928    0.1037 C   0  0  0  0  0  0  0  0  0  0  0  0
   -0.6842    0.3352   -0.1455 C   0  0  0  0  0  0  0  0  0  0  0  0
   -1.8407   -0.4937    0.0652 O   0  0  0  0  0  0  0  0  0  0  0  0
   -3.2992    0.1210   -0.1201 P   0  0  1  0  0  0  0  0  0  0  0  0
   -4.1081   -1.2215    0.1729 O   0  0  0  0  0  0  0  0  0  0  0  0
   -3.5492    1.1197    1.1043 O   0  0  0  0  0  0  0  0  0  0  0  0
   -3.5698    0.8256   -1.3875 O   0  0  0  0  0  0  0  0  0  0  0  0
    6.8735    1.0760    0.6365 H   0  0  0  0  0  0  0  0  0  0  0  0
    7.6427   -0.2125    0.0488 H   0  0  0  0  0  0  0  0  0  0  0  0
    5.6480   -1.2953   -0.5396 H   0  0  0  0  0  0  0  0  0  0  0  0
    5.5895   -0.8970    1.1671 H   0  0  0  0  0  0  0  0  0  0  0  0
    4.3481    1.2087    0.6124 H   0  0  0  0  0  0  0  0  0  0  0  0
    4.3763    0.7624   -1.0840 H   0  0  0  0  0  0  0  0  0  0  0  0
    3.1039   -1.3280   -0.5502 H   0  0  0  0  0  0  0  0  0  0  0  0
    3.0825   -0.8872    1.1444 H   0  0  0  0  0  0  0  0  0  0  0  0
    1.8082    1.1927    0.5847 H   0  0  0  0  0  0  0  0  0  0  0  0
    1.8307    0.7491   -1.1098 H   0  0  0  0  0  0  0  0  0  0  0  0
    0.5648   -1.3492   -0.5767 H   0  0  0  0  0  0  0  0  0  0  0  0
    0.5329   -0.8901    1.1224 H   0  0  0  0  0  0  0  0  0  0  0  0
   -0.7117    1.1909    0.5355 H   0  0  0  0  0  0  0  0  0  0  0  0
   -0.6887    0.7185   -1.1692 H   0  0  0  0  0  0  0  0  0  0  0  0
   -5.0579   -1.1527    0.0080 H   0  0  0  0  0  0  0  0  0  0  0  0
   -3.4460    0.7362    1.9855 H   0  0  0  0  0  0  0  0  0  0  0  0
  1  2  1  0
  2  3  1  0
  3  4  1  0
  4  5  1  0
  5  6  1  0
  6  7  1  0
  7  8  1  0
  9  8  1  6
  9 10  1  0
  9 11  1  0
  9 12  2  0
  1 13  1  0
  1 14  1  0
  2 15  1  0
  2 16  1  0
  3 17  1  0
  3 18  1  0
  4 19  1  0
  4 20  1  0
  5 21  1  0
  5 22  1  0
  6 23  1  0
  6 24  1  0
  7 25  1  0
  7 26  1  0
 10 27  1  0
 11 28  1  0
M  END
