
     RDKit          3D

 57 60  0  0  0  0  0  0  0  0999 V2000
   -5.6158    3.3671    0.0277 C   0  0  0  0  0  0  0  0  0  0  0  0
   -5.7406    1.8449    2.0220 C   0  0  0  0  0  0  0  0  0  0  0  0
   -7.7751    2.3245    0.6813 C   0  0  0  0  0  0  0  0  0  0  0  0
    4.6465   -2.8666    0.6403 C   0  0  0  0  0  0  0  0  0  0  0  0
   -6.3571   -0.7072   -1.6257 C   0  0  0  0  0  0  0  0  0  0  0  0
    3.3031   -3.1885    0.5677 C   0  0  0  0  0  0  0  0  0  0  0  0
    5.1008   -1.6530    0.1429 C   0  0  0  0  0  0  0  0  0  0  0  0
    7.6980    2.6994   -0.8298 C   0  0  0  0  0  0  0  0  0  0  0  0
    7.1037    1.9747    1.3869 C   0  0  0  0  0  0  0  0  0  0  0  0
    6.6400    1.9751   -1.3523 C   0  0  0  0  0  0  0  0  0  0  0  0
    6.0579    1.2284    0.8634 C   0  0  0  0  0  0  0  0  0  0  0  0
    2.8565   -1.1094   -0.5445 C   0  0  0  0  0  0  0  0  0  0  0  0
    4.6665    0.4919   -1.0982 C   0  0  0  0  0  0  0  0  0  0  0  0
    7.9294    2.7024    0.5412 C   0  0  0  0  0  0  0  0  0  0  0  0
    2.3820   -2.3039   -0.0056 C   0  0  0  0  0  0  0  0  0  0  0  0
   -4.7418    0.3000   -0.5322 C   0  0  0  0  0  0  0  0  0  0  0  0
   -5.0397   -0.7407   -1.3850 N   0  0  0  0  0  0  0  0  0  0  0  0
   -6.9415    0.2655   -0.9707 N   0  0  0  0  0  0  0  0  0  0  0  0
   -0.0358   -0.5711    0.4597 N   0  0  0  0  0  0  0  0  0  0  0  0
   -2.4787   -1.6199   -0.0196 N   0  0  0  0  0  0  0  0  0  0  0  0
    4.1061    0.9160   -2.0889 O   0  0  0  0  0  0  0  0  0  0  0  0
    5.8197    1.2218   -0.5107 C   0  0  0  0  0  0  0  0  0  0  0  0
    4.2054   -0.7719   -0.4583 C   0  0  0  0  0  0  0  0  0  0  0  0
   -5.9617    0.9144   -0.2861 C   0  0  0  0  0  0  0  0  0  0  0  0
   -1.4547   -2.5069   -0.0303 C   0  0  0  0  0  0  0  0  0  0  0  0
   -1.0637    0.3147    0.4888 C   0  0  0  0  0  0  0  0  0  0  0  0
   -0.0995   -1.9117    0.1052 C   0  0  0  0  0  0  0  0  0  0  0  0
   -2.3817   -0.2367    0.1082 C   0  0  0  0  0  0  0  0  0  0  0  0
   -6.2642    2.0990    0.6025 C   0  0  1  0  0  0  0  0  0  0  0  0
   -4.5289    3.2951   -0.0265 H   0  0  0  0  0  0  0  0  0  0  0  0
   -5.9852    3.5744   -0.9778 H   0  0  0  0  0  0  0  0  0  0  0  0
   -5.8531    4.2281    0.6565 H   0  0  0  0  0  0  0  0  0  0  0  0
   -5.9691    2.6969    2.6652 H   0  0  0  0  0  0  0  0  0  0  0  0
   -6.2072    0.9599    2.4581 H   0  0  0  0  0  0  0  0  0  0  0  0
   -4.6608    1.6960    2.0487 H   0  0  0  0  0  0  0  0  0  0  0  0
   -8.2057    2.5415   -0.2963 H   0  0  0  0  0  0  0  0  0  0  0  0
   -8.2937    1.4551    1.0871 H   0  0  0  0  0  0  0  0  0  0  0  0
   -7.9816    3.1726    1.3368 H   0  0  0  0  0  0  0  0  0  0  0  0
    0.7765   -3.7486   -0.2250 H   0  0  0  0  0  0  0  0  0  0  0  0
   -3.2183    1.6390    0.1801 H   0  0  0  0  0  0  0  0  0  0  0  0
    5.3453   -3.5637    1.0829 H   0  0  0  0  0  0  0  0  0  0  0  0
   -6.8405   -1.4068   -2.2897 H   0  0  0  0  0  0  0  0  0  0  0  0
    2.9560   -4.1350    0.9630 H   0  0  0  0  0  0  0  0  0  0  0  0
    6.1548   -1.4150    0.1953 H   0  0  0  0  0  0  0  0  0  0  0  0
    7.2746    1.9854    2.4552 H   0  0  0  0  0  0  0  0  0  0  0  0
    6.4584    1.9804   -2.4192 H   0  0  0  0  0  0  0  0  0  0  0  0
    5.4166    0.6706    1.5333 H   0  0  0  0  0  0  0  0  0  0  0  0
    2.1831   -0.4370   -1.0618 H   0  0  0  0  0  0  0  0  0  0  0  0
    8.7531    3.2735    0.9496 H   0  0  0  0  0  0  0  0  0  0  0  0
   -4.3831   -1.3298   -1.8738 H   0  0  0  0  0  0  0  0  0  0  0  0
    0.8615   -0.2024    0.7484 H   0  0  0  0  0  0  0  0  0  0  0  0
   -3.4037   -2.0304   -0.0165 H   0  0  0  0  0  0  0  0  0  0  0  0
   -3.4171    0.6052   -0.0634 C   0  0  0  0  0  0  0  0  0  0  0  0
    0.9749   -2.6969   -0.0630 C   0  0  0  0  0  0  0  0  0  0  0  0
   -1.6403   -3.7036   -0.1459 O   0  0  0  0  0  0  0  0  0  0  0  0
   -0.8942    1.4808    0.7954 O   0  0  0  0  0  0  0  0  0  0  0  0
    8.3413    3.2663   -1.4896 H   0  0  0  0  0  0  0  0  0  0  0  0
 14  9  1  0
 14  8  2  0
  9 11  2  0
  8 10  1  0
 11 22  1  0
 10 22  2  0
 22 13  1  0
 13 21  2  0
 13 23  1  0
  7 23  1  0
  7  4  2  0
 23 12  2  0
  4  6  1  0
 12 15  1  0
  6 15  2  0
 15 54  1  0
 54 27  2  0
 19 27  1  0
 19 26  1  0
 27 25  1  0
 56 26  2  0
 26 28  1  0
 25 55  2  0
 25 20  1  0
 28 20  1  0
 28 53  2  0
 53 16  1  0
 16 17  1  0
 16 24  2  0
 29  2  1  1
 17  5  1  0
  1 29  1  0
 24 29  1  0
 24 18  1  0
 29  3  1  0
  5 18  2  0
  1 30  1  0
  1 31  1  0
  1 32  1  0
  2 33  1  0
  2 34  1  0
  2 35  1  0
  3 36  1  0
  3 37  1  0
  3 38  1  0
 54 39  1  0
 53 40  1  0
  4 41  1  0
  5 42  1  0
  6 43  1  0
  7 44  1  0
  8 57  1  0
  9 45  1  0
 10 46  1  0
 11 47  1  0
 12 48  1  0
 14 49  1  0
 17 50  1  0
 19 51  1  0
 20 52  1  0
M  END
