
     RDKit          3D

 23 23  0  0  0  0  0  0  0  0999 V2000
    0.2223   -0.6528   -0.1802 C   0  0  0  0  0  0  0  0  0  0  0  0
   -4.5409    0.4310   -0.0100 C   0  0  0  0  0  0  0  0  0  0  0  0
   -2.1318   -0.0695   -0.0980 C   0  0  0  0  0  0  0  0  0  0  0  0
   -1.7618    1.2774    0.0705 C   0  0  0  0  0  0  0  0  0  0  0  0
   -0.4312    1.6357    0.1025 C   0  0  0  0  0  0  0  0  0  0  0  0
    0.5908    0.6928   -0.0210 C   0  0  0  0  0  0  0  0  0  0  0  0
    2.0062    1.0705   -0.0726 C   0  0  0  0  0  0  0  0  0  0  0  0
    1.2250   -1.7598   -0.2859 C   0  0  0  0  0  0  0  0  0  0  0  0
   -1.1009   -1.0247   -0.2264 C   0  0  0  0  0  0  0  0  0  0  0  0
   -3.4186   -0.4601   -0.1394 N   0  0  0  0  0  0  0  0  0  0  0  0
    2.8935    0.3115   -0.3984 O   0  0  0  0  0  0  0  0  0  0  0  0
    2.2318    2.3369    0.2607 O   0  0  0  0  0  0  0  0  0  0  0  0
    1.7762   -2.0323    0.8848 O   0  0  0  0  0  0  0  0  0  0  0  0
    1.4199   -2.3871   -1.2949 O   0  0  0  0  0  0  0  0  0  0  0  0
   -4.5654    1.1800   -0.8052 H   0  0  0  0  0  0  0  0  0  0  0  0
   -5.4538   -0.1543   -0.0726 H   0  0  0  0  0  0  0  0  0  0  0  0
   -4.5417    0.9542    0.9493 H   0  0  0  0  0  0  0  0  0  0  0  0
   -2.5148    2.0473    0.1641 H   0  0  0  0  0  0  0  0  0  0  0  0
   -0.1900    2.6842    0.2136 H   0  0  0  0  0  0  0  0  0  0  0  0
   -1.3660   -2.0685   -0.3490 H   0  0  0  0  0  0  0  0  0  0  0  0
   -3.6100   -1.4394   -0.2621 H   0  0  0  0  0  0  0  0  0  0  0  0
    3.1769    2.5316    0.1792 H   0  0  0  0  0  0  0  0  0  0  0  0
    2.4075   -2.7630    0.7953 H   0  0  0  0  0  0  0  0  0  0  0  0
 14  8  2  0
  2 10  1  0
 11  7  2  0
  8  1  1  0
  8 13  1  0
  1  9  2  0
  1  6  1  0
  9  3  1  0
  7  6  1  0
  7 12  1  0
  6  5  2  0
  3 10  1  0
  3  4  2  0
  5  4  1  0
  2 15  1  0
  2 16  1  0
  2 17  1  0
  4 18  1  0
  5 19  1  0
  9 20  1  0
 10 21  1  0
 12 22  1  0
 13 23  1  0
M  END
