
     RDKit          3D

 50 52  0  0  0  0  0  0  0  0999 V2000
   -1.5821    1.2381    0.3813 C   0  0  0  0  0  0  0  0  0  0  0  0
   -2.7590    0.3997   -0.0900 C   0  0  0  0  0  0  0  0  0  0  0  0
   -4.0649    0.8562    0.5637 C   0  0  0  0  0  0  0  0  0  0  0  0
   -5.2338    0.0144    0.1347 C   0  0  0  0  0  0  0  0  0  0  0  0
   -5.4659   -1.2269    0.7256 C   0  0  0  0  0  0  0  0  0  0  0  0
   -6.0852    0.4300   -0.8866 C   0  0  0  0  0  0  0  0  0  0  0  0
   -6.5177   -2.0308    0.3086 C   0  0  0  0  0  0  0  0  0  0  0  0
   -7.1404   -0.3700   -1.3074 C   0  0  0  0  0  0  0  0  0  0  0  0
   -7.3595   -1.6049   -0.7117 C   0  0  0  0  0  0  0  0  0  0  0  0
   -0.2648    0.8387   -0.2435 C   0  0  0  0  0  0  0  0  0  0  0  0
   -0.1467   -0.1363   -0.9756 O   0  0  0  0  0  0  0  0  0  0  0  0
    0.7884    1.6265    0.0426 N   0  0  0  0  0  0  0  0  0  0  0  0
    2.0984    1.3091   -0.4731 C   0  0  2  0  0  0  0  0  0  0  0  0
    2.6557    0.0724    0.2244 C   0  0  0  0  0  0  0  0  0  0  0  0
    2.2120   -0.3253    1.2894 O   0  0  0  0  0  0  0  0  0  0  0  0
    2.9206    2.5576   -0.1213 C   0  0  0  0  0  0  0  0  0  0  0  0
    2.2794    3.0392    1.1759 C   0  0  0  0  0  0  0  0  0  0  0  0
    0.7952    2.7536    0.9694 C   0  0  0  0  0  0  0  0  0  0  0  0
    4.7986   -1.3811    1.6289 C   0  0  0  0  0  0  0  0  0  0  0  0
    5.2231   -1.1747    2.6776 N   0  0  0  0  0  0  0  0  0  0  0  0
    4.3179   -1.6888    0.2797 C   0  0  2  0  0  0  0  0  0  0  0  0
    5.4735   -2.0711   -0.6594 C   0  0  0  0  0  0  0  0  0  0  0  0
    4.9970   -1.5560   -2.0110 C   0  0  0  0  0  0  0  0  0  0  0  0
    4.3133   -0.2435   -1.6581 C   0  0  0  0  0  0  0  0  0  0  0  0
    3.7087   -0.5321   -0.3592 N   0  0  0  0  0  0  0  0  0  0  0  0
   -1.7661    2.2987    0.1791 H   0  0  0  0  0  0  0  0  0  0  0  0
   -1.4846    1.1643    1.4706 H   0  0  0  0  0  0  0  0  0  0  0  0
   -2.8576    0.4651   -1.1761 H   0  0  0  0  0  0  0  0  0  0  0  0
   -2.5875   -0.6534    0.1445 H   0  0  0  0  0  0  0  0  0  0  0  0
   -3.9572    0.8094    1.6513 H   0  0  0  0  0  0  0  0  0  0  0  0
   -4.2484    1.9042    0.3127 H   0  0  0  0  0  0  0  0  0  0  0  0
   -4.8168   -1.5682    1.5245 H   0  0  0  0  0  0  0  0  0  0  0  0
   -5.9237    1.3940   -1.3554 H   0  0  0  0  0  0  0  0  0  0  0  0
   -6.6817   -2.9911    0.7810 H   0  0  0  0  0  0  0  0  0  0  0  0
   -7.7922   -0.0264   -2.1009 H   0  0  0  0  0  0  0  0  0  0  0  0
   -8.1803   -2.2301   -1.0387 H   0  0  0  0  0  0  0  0  0  0  0  0
    2.0574    1.1533   -1.5523 H   0  0  0  0  0  0  0  0  0  0  0  0
    3.9876    2.3565   -0.0255 H   0  0  0  0  0  0  0  0  0  0  0  0
    2.7944    3.2984   -0.9122 H   0  0  0  0  0  0  0  0  0  0  0  0
    2.6598    2.4713    2.0259 H   0  0  0  0  0  0  0  0  0  0  0  0
    2.4681    4.0935    1.3714 H   0  0  0  0  0  0  0  0  0  0  0  0
    0.2824    3.6151    0.5326 H   0  0  0  0  0  0  0  0  0  0  0  0
    0.2925    2.5041    1.9044 H   0  0  0  0  0  0  0  0  0  0  0  0
    3.5967   -2.5070    0.3690 H   0  0  0  0  0  0  0  0  0  0  0  0
    5.6630   -3.1418   -0.6363 H   0  0  0  0  0  0  0  0  0  0  0  0
    5.8138   -1.4187   -2.7172 H   0  0  0  0  0  0  0  0  0  0  0  0
    4.2770   -2.2457   -2.4548 H   0  0  0  0  0  0  0  0  0  0  0  0
    5.0369    0.5718   -1.5787 H   0  0  0  0  0  0  0  0  0  0  0  0
    3.5594    0.0373   -2.3915 H   0  0  0  0  0  0  0  0  0  0  0  0
    6.3881   -1.5571   -0.3610 H   0  0  0  0  0  0  0  0  0  0  0  0
 19 20  3  0
 19 21  1  0
 21 22  1  0
 21 25  1  0
 22 23  1  0
 23 24  1  0
 24 25  1  0
 25 14  1  0
 14 15  2  0
 14 13  1  0
 13 16  1  0
 13 12  1  0
 16 17  1  0
 17 18  1  0
 18 12  1  0
 12 10  1  0
 10 11  2  0
 10  1  1  0
  1  2  1  0
  2  3  1  0
  3  4  1  0
  4  5  2  0
  4  6  1  0
  5  7  1  0
  7  9  2  0
  9  8  1  0
  8  6  2  0
 21 44  1  1
 22 50  1  0
 22 45  1  0
 23 46  1  0
 23 47  1  0
 24 48  1  0
 24 49  1  0
 13 37  1  6
 16 38  1  0
 16 39  1  0
 17 40  1  0
 17 41  1  0
 18 42  1  0
 18 43  1  0
  1 26  1  0
  1 27  1  0
  2 28  1  0
  2 29  1  0
  3 30  1  0
  3 31  1  0
  5 32  1  0
  7 34  1  0
  9 36  1  0
  8 35  1  0
  6 33  1  0
M  END
