
     RDKit          3D

 56 59  0  0  0  0  0  0  0  0999 V2000
   -0.0484   -0.8636    0.4678 C   0  0  0  0  0  0  0  0  0  0  0  0
   -1.2213   -0.2629    0.0553 C   0  0  0  0  0  0  0  0  0  0  0  0
   -1.1611    0.9694   -0.6347 C   0  0  0  0  0  0  0  0  0  0  0  0
    0.0296    1.6090   -0.9062 C   0  0  0  0  0  0  0  0  0  0  0  0
    1.1779   -0.2416    0.1971 C   0  0  0  0  0  0  0  0  0  0  0  0
    1.2066    0.9967   -0.4763 C   0  0  0  0  0  0  0  0  0  0  0  0
    2.5064    1.3880   -0.5867 N   0  0  0  0  0  0  0  0  0  0  0  0
    3.3368    0.4391   -0.0323 C   0  0  0  0  0  0  0  0  0  0  0  0
    2.5349   -0.5544    0.4546 C   0  0  0  0  0  0  0  0  0  0  0  0
    4.7825    0.6365    0.0343 C   0  0  0  0  0  0  0  0  0  0  0  0
   -2.5545   -0.9119    0.3329 C   0  0  2  0  0  0  0  0  0  0  0  0
   -3.2931   -1.3069   -0.9496 C   0  0  0  0  0  0  0  0  0  0  0  0
   -4.6520   -1.9222   -0.6168 C   0  0  0  0  0  0  0  0  0  0  0  0
   -5.5047   -1.0765    0.2010 N   0  0  0  0  0  0  0  0  0  0  0  0
   -4.8169   -0.7050    1.4286 C   0  0  0  0  0  0  0  0  0  0  0  0
   -3.4617   -0.0355    1.2015 C   0  0  0  0  0  0  0  0  0  0  0  0
   -6.0817    0.0481   -0.5170 C   0  0  0  0  0  0  0  0  0  0  0  0
   -7.4125    0.4832    0.0820 C   0  0  0  0  0  0  0  0  0  0  0  0
   -7.9511    1.6134   -0.6482 N   0  0  0  0  0  0  0  0  0  0  0  0
   -9.2275    2.0573   -0.1290 C   0  0  0  0  0  0  0  0  0  0  0  0
    5.6751   -0.3932   -0.3131 C   0  0  0  0  0  0  0  0  0  0  0  0
    7.0481   -0.1739   -0.2298 C   0  0  0  0  0  0  0  0  0  0  0  0
    7.5338    1.0631    0.1740 C   0  0  0  0  0  0  0  0  0  0  0  0
    6.6646    2.0931    0.4967 C   0  0  0  0  0  0  0  0  0  0  0  0
    5.2976    1.8701    0.4263 C   0  0  0  0  0  0  0  0  0  0  0  0
    5.1249   -1.5413   -0.7353 O   0  0  0  0  0  0  0  0  0  0  0  0
    5.9725   -2.6178   -1.0829 C   0  0  0  0  0  0  0  0  0  0  0  0
    2.9499   -1.6323    1.1269 F   0  0  0  0  0  0  0  0  0  0  0  0
   -0.0766   -1.8097    0.9965 H   0  0  0  0  0  0  0  0  0  0  0  0
   -2.0820    1.4355   -0.9638 H   0  0  0  0  0  0  0  0  0  0  0  0
   -2.3592   -1.8361    0.8919 H   0  0  0  0  0  0  0  0  0  0  0  0
    0.0476    2.5547   -1.4331 H   0  0  0  0  0  0  0  0  0  0  0  0
    2.8305    2.1928   -1.0975 H   0  0  0  0  0  0  0  0  0  0  0  0
    4.6117    2.6633    0.6978 H   0  0  0  0  0  0  0  0  0  0  0  0
   -3.4237   -0.4324   -1.5963 H   0  0  0  0  0  0  0  0  0  0  0  0
   -2.6957   -2.0248   -1.5184 H   0  0  0  0  0  0  0  0  0  0  0  0
   -2.9841    0.1603    2.1653 H   0  0  0  0  0  0  0  0  0  0  0  0
   -3.6056    0.9408    0.7275 H   0  0  0  0  0  0  0  0  0  0  0  0
   -5.1858   -2.1812   -1.5343 H   0  0  0  0  0  0  0  0  0  0  0  0
   -4.4890   -2.8620   -0.0758 H   0  0  0  0  0  0  0  0  0  0  0  0
   -5.4604   -0.0530    2.0225 H   0  0  0  0  0  0  0  0  0  0  0  0
   -4.6723   -1.6131    2.0251 H   0  0  0  0  0  0  0  0  0  0  0  0
   -5.4081    0.9183   -0.5718 H   0  0  0  0  0  0  0  0  0  0  0  0
   -6.2601   -0.2592   -1.5504 H   0  0  0  0  0  0  0  0  0  0  0  0
   -8.1194   -0.3489    0.0106 H   0  0  0  0  0  0  0  0  0  0  0  0
   -7.2981    0.6971    1.1573 H   0  0  0  0  0  0  0  0  0  0  0  0
   -7.2919    2.3803   -0.5938 H   0  0  0  0  0  0  0  0  0  0  0  0
   -9.9783    1.2779   -0.2743 H   0  0  0  0  0  0  0  0  0  0  0  0
   -9.2173    2.3054    0.9419 H   0  0  0  0  0  0  0  0  0  0  0  0
   -9.5632    2.9404   -0.6729 H   0  0  0  0  0  0  0  0  0  0  0  0
    7.7519   -0.9544   -0.4852 H   0  0  0  0  0  0  0  0  0  0  0  0
    8.6039    1.2147    0.2314 H   0  0  0  0  0  0  0  0  0  0  0  0
    7.0425    3.0559    0.8121 H   0  0  0  0  0  0  0  0  0  0  0  0
    6.6401   -2.3622   -1.9099 H   0  0  0  0  0  0  0  0  0  0  0  0
    6.5738   -2.9532   -0.2341 H   0  0  0  0  0  0  0  0  0  0  0  0
    5.3226   -3.4309   -1.3959 H   0  0  0  0  0  0  0  0  0  0  0  0
  1  2  2  0
  1  5  1  0
  2  3  1  0
  2 11  1  0
  3  4  2  0
  4  6  1  0
  5  6  2  0
  5  9  1  0
  6  7  1  0
  7  8  1  0
  8  9  2  0
  8 10  1  0
  9 28  1  0
 10 21  2  0
 10 25  1  0
 11 12  1  0
 11 16  1  0
 12 13  1  0
 13 14  1  0
 14 15  1  0
 14 17  1  0
 15 16  1  0
 17 18  1  0
 18 19  1  0
 19 20  1  0
 21 22  1  0
 21 26  1  0
 22 23  2  0
 23 24  1  0
 24 25  2  0
 26 27  1  0
  1 29  1  0
  3 30  1  0
 11 31  1  1
  4 32  1  0
  7 33  1  0
 25 34  1  0
 12 35  1  0
 12 36  1  0
 16 37  1  0
 16 38  1  0
 13 39  1  0
 13 40  1  0
 15 41  1  0
 15 42  1  0
 17 43  1  0
 17 44  1  0
 18 45  1  0
 18 46  1  0
 19 47  1  0
 20 48  1  0
 20 49  1  0
 20 50  1  0
 22 51  1  0
 23 52  1  0
 24 53  1  0
 27 54  1  0
 27 55  1  0
 27 56  1  0
M  END
