
     RDKit          3D

 50 50  0  0  0  0  0  0  0  0999 V2000
    0.5456   -3.6153   -2.0266 C   0  0  0  0  0  0  0  0  0  0  0  0
    0.1916   -3.3529   -0.5664 C   0  0  1  0  0  0  0  0  0  0  0  0
   -0.6260   -4.5088    0.0022 C   0  0  0  0  0  0  0  0  0  0  0  0
    1.4367   -3.1298    0.2951 C   0  0  0  0  0  0  0  0  0  0  0  0
    2.2907   -1.9097   -0.0490 C   0  0  2  0  0  0  0  0  0  0  0  0
    3.5818   -1.9212    0.7780 C   0  0  0  0  0  0  0  0  0  0  0  0
    4.4066   -0.7149    0.4233 C   0  0  0  0  0  0  0  0  0  0  0  0
    4.6540    0.0777    1.4598 O   0  0  0  0  0  0  0  0  0  0  0  0
    4.8192   -0.4874   -0.6881 O   0  0  0  0  0  0  0  0  0  0  0  0
    1.6268   -0.6313    0.1763 N   0  0  0  0  0  0  0  0  0  0  0  0
    1.0960    0.0432   -0.9916 C   0  0  0  0  0  0  0  0  0  0  0  0
    0.5632    1.3943   -0.5924 C   0  0  0  0  0  0  0  0  0  0  0  0
    1.4238    2.4803   -0.4639 C   0  0  0  0  0  0  0  0  0  0  0  0
    2.7260    2.2905   -0.7359 O   0  0  0  0  0  0  0  0  0  0  0  0
    0.9180    3.7262   -0.0671 C   0  0  0  0  0  0  0  0  0  0  0  0
    1.8270    4.9120    0.0650 C   0  0  0  0  0  0  0  0  0  0  0  0
   -0.3675    3.8882    0.2024 N   0  0  0  0  0  0  0  0  0  0  0  0
   -1.1971    2.8566    0.1024 C   0  0  0  0  0  0  0  0  0  0  0  0
   -0.7839    1.5902   -0.2828 C   0  0  0  0  0  0  0  0  0  0  0  0
   -1.7364    0.4314   -0.3788 C   0  0  0  0  0  0  0  0  0  0  0  0
   -2.9828    0.7812    0.2100 O   0  0  0  0  0  0  0  0  0  0  0  0
   -4.1597   -0.3037    0.2214 P   0  0  1  0  0  0  0  0  0  0  0  0
   -5.1491    0.5129    1.1642 O   0  0  0  0  0  0  0  0  0  0  0  0
   -4.7832   -0.3252   -1.2485 O   0  0  0  0  0  0  0  0  0  0  0  0
   -3.7766   -1.6699    0.6199 O   0  0  0  0  0  0  0  0  0  0  0  0
    1.0376   -2.7626   -2.4961 H   0  0  0  0  0  0  0  0  0  0  0  0
    1.2180   -4.4727   -2.1131 H   0  0  0  0  0  0  0  0  0  0  0  0
   -0.3490   -3.8347   -2.6112 H   0  0  0  0  0  0  0  0  0  0  0  0
   -0.4415   -2.4592   -0.5210 H   0  0  0  0  0  0  0  0  0  0  0  0
   -0.0423   -5.4328    0.0109 H   0  0  0  0  0  0  0  0  0  0  0  0
   -0.9424   -4.3060    1.0267 H   0  0  0  0  0  0  0  0  0  0  0  0
   -1.5239   -4.6891   -0.5909 H   0  0  0  0  0  0  0  0  0  0  0  0
    1.1357   -3.0534    1.3468 H   0  0  0  0  0  0  0  0  0  0  0  0
    2.0641   -4.0259    0.2283 H   0  0  0  0  0  0  0  0  0  0  0  0
    2.5783   -1.9600   -1.1030 H   0  0  0  0  0  0  0  0  0  0  0  0
    3.3419   -1.9313    1.8426 H   0  0  0  0  0  0  0  0  0  0  0  0
    4.1675   -2.8184    0.5607 H   0  0  0  0  0  0  0  0  0  0  0  0
    0.9256   -0.7158    0.9021 H   0  0  0  0  0  0  0  0  0  0  0  0
    5.1689    0.8446    1.1671 H   0  0  0  0  0  0  0  0  0  0  0  0
    1.9067    0.1688   -1.7107 H   0  0  0  0  0  0  0  0  0  0  0  0
    0.3168   -0.5218   -1.5220 H   0  0  0  0  0  0  0  0  0  0  0  0
    3.2242    3.1106   -0.6521 H   0  0  0  0  0  0  0  0  0  0  0  0
    2.3081    5.1686   -0.8827 H   0  0  0  0  0  0  0  0  0  0  0  0
    1.2586    5.7802    0.3900 H   0  0  0  0  0  0  0  0  0  0  0  0
    2.6189    4.7422    0.7990 H   0  0  0  0  0  0  0  0  0  0  0  0
   -2.2329    3.0567    0.3447 H   0  0  0  0  0  0  0  0  0  0  0  0
   -1.8794    0.1474   -1.4267 H   0  0  0  0  0  0  0  0  0  0  0  0
   -1.3214   -0.4365    0.1410 H   0  0  0  0  0  0  0  0  0  0  0  0
   -5.9436    0.0257    1.4213 H   0  0  0  0  0  0  0  0  0  0  0  0
   -5.1099    0.5223   -1.5797 H   0  0  0  0  0  0  0  0  0  0  0  0
  1  2  1  0
  2  3  1  0
  2  4  1  0
  4  5  1  0
  5  6  1  0
  5 10  1  0
  6  7  1  0
  7  8  1  0
  7  9  2  0
 10 11  1  0
 11 12  1  0
 12 13  2  0
 12 19  1  0
 13 14  1  0
 13 15  1  0
 15 16  1  0
 15 17  2  0
 17 18  1  0
 18 19  2  0
 19 20  1  0
 20 21  1  0
 22 21  1  6
 22 23  1  0
 22 24  1  0
 22 25  2  0
  1 26  1  0
  1 27  1  0
  1 28  1  0
  2 29  1  6
  3 30  1  0
  3 31  1  0
  3 32  1  0
  4 33  1  0
  4 34  1  0
  5 35  1  6
  6 36  1  0
  6 37  1  0
 10 38  1  0
  8 39  1  0
 11 40  1  0
 11 41  1  0
 14 42  1  0
 16 43  1  0
 16 44  1  0
 16 45  1  0
 18 46  1  0
 20 47  1  0
 20 48  1  0
 23 49  1  0
 24 50  1  0
M  END
