
     RDKit          3D

 49 52  0  0  0  0  0  0  0  0999 V2000
   -3.6727    0.4130    0.7090 C   0  0  0  0  0  0  0  0  0  0  0  0
   -4.9626    0.6178    1.1614 C   0  0  0  0  0  0  0  0  0  0  0  0
   -5.1753    1.3938    2.6986 Cl  0  0  0  0  0  0  0  0  0  0  0  0
   -6.0862    0.2413    0.4257 C   0  0  0  0  0  0  0  0  0  0  0  0
   -7.4797    0.4807    0.9145 C   0  0  0  0  0  0  0  0  0  0  0  0
   -5.8449   -0.3685   -0.8027 C   0  0  0  0  0  0  0  0  0  0  0  0
   -4.5624   -0.5949   -1.2729 C   0  0  0  0  0  0  0  0  0  0  0  0
   -3.4537   -0.2061   -0.5223 C   0  0  0  0  0  0  0  0  0  0  0  0
   -2.0876   -0.4304   -0.9875 C   0  0  0  0  0  0  0  0  0  0  0  0
   -1.7574   -0.5963   -2.6944 S   0  0  0  0  0  0  0  0  0  0  0  0
   -0.9556   -0.5206   -0.2395 C   0  0  0  0  0  0  0  0  0  0  0  0
    0.2092   -0.7292   -1.0311 C   0  0  0  0  0  0  0  0  0  0  0  0
   -0.0666   -0.7943   -2.3934 C   0  0  0  0  0  0  0  0  0  0  0  0
    0.8358   -0.9656   -3.3562 N   0  0  0  0  0  0  0  0  0  0  0  0
    2.0711   -1.0710   -2.9072 C   0  0  0  0  0  0  0  0  0  0  0  0
    2.4814   -1.0223   -1.6446 N   0  0  0  0  0  0  0  0  0  0  0  0
    1.5775   -0.8489   -0.6898 C   0  0  0  0  0  0  0  0  0  0  0  0
    1.9781   -0.7945    0.5973 N   0  0  0  0  0  0  0  0  0  0  0  0
    3.3501   -0.5794    0.9930 C   0  0  2  0  0  0  0  0  0  0  0  0
    3.6905   -1.7328    2.3622 P   0  0  1  0  0  0  0  0  0  0  0  0
    2.8461   -1.5040    3.5603 O   0  0  0  0  0  0  0  0  0  0  0  0
    3.5843   -3.2018    1.7212 O   0  0  0  0  0  0  0  0  0  0  0  0
    5.2696   -1.5611    2.5363 O   0  0  0  0  0  0  0  0  0  0  0  0
    3.6151    0.8883    1.3685 C   0  0  0  0  0  0  0  0  0  0  0  0
    3.2453    1.7840    0.2211 C   0  0  0  0  0  0  0  0  0  0  0  0
    1.9683    2.3306    0.1453 C   0  0  0  0  0  0  0  0  0  0  0  0
    1.6141    3.0667   -0.9688 C   0  0  0  0  0  0  0  0  0  0  0  0
    0.3740    3.5804   -1.0310 F   0  0  0  0  0  0  0  0  0  0  0  0
    2.4853    3.2932   -2.0152 C   0  0  0  0  0  0  0  0  0  0  0  0
    3.7629    2.7557   -1.9262 C   0  0  0  0  0  0  0  0  0  0  0  0
    4.1401    2.0072   -0.8220 C   0  0  0  0  0  0  0  0  0  0  0  0
   -2.8376    0.7518    1.3079 H   0  0  0  0  0  0  0  0  0  0  0  0
   -7.6617    1.5409    1.0959 H   0  0  0  0  0  0  0  0  0  0  0  0
   -8.2080    0.1347    0.1835 H   0  0  0  0  0  0  0  0  0  0  0  0
   -7.6708   -0.0417    1.8532 H   0  0  0  0  0  0  0  0  0  0  0  0
   -6.6889   -0.6796   -1.4057 H   0  0  0  0  0  0  0  0  0  0  0  0
   -4.4365   -1.0936   -2.2262 H   0  0  0  0  0  0  0  0  0  0  0  0
   -0.9631   -0.4635    0.8404 H   0  0  0  0  0  0  0  0  0  0  0  0
    2.8462   -1.2132   -3.6519 H   0  0  0  0  0  0  0  0  0  0  0  0
    1.2718   -0.5965    1.2895 H   0  0  0  0  0  0  0  0  0  0  0  0
    3.9852   -0.8584    0.1511 H   0  0  0  0  0  0  0  0  0  0  0  0
    2.6933   -3.5747    1.7347 H   0  0  0  0  0  0  0  0  0  0  0  0
    5.6231   -1.8948    3.3727 H   0  0  0  0  0  0  0  0  0  0  0  0
    3.0405    1.1541    2.2591 H   0  0  0  0  0  0  0  0  0  0  0  0
    4.6705    1.0047    1.6201 H   0  0  0  0  0  0  0  0  0  0  0  0
    1.2524    2.1841    0.9452 H   0  0  0  0  0  0  0  0  0  0  0  0
    2.1787    3.8763   -2.8735 H   0  0  0  0  0  0  0  0  0  0  0  0
    4.4670    2.9230   -2.7305 H   0  0  0  0  0  0  0  0  0  0  0  0
    5.1367    1.5857   -0.7741 H   0  0  0  0  0  0  0  0  0  0  0  0
 14 15  1  0
 14 13  2  0
 10 13  1  0
 10  9  1  0
 21 20  2  0
 15 16  2  0
 13 12  1  0
  7  6  2  0
  7  8  1  0
  9  8  1  0
  9 11  2  0
 16 17  1  0
  6  4  1  0
 12 11  1  0
 12 17  2  0
  8  1  2  0
 20 23  1  1
  4  5  1  0
  4  2  2  0
  1  2  1  0
 17 18  1  0
  2  3  1  0
 20 22  1  0
 20 19  1  0
 18 19  1  0
 19 24  1  0
 24 25  1  0
 31 25  1  0
 31 30  2  0
 25 26  2  0
 30 29  1  0
 26 27  1  0
 29 27  2  0
 27 28  1  0
  1 32  1  0
  5 33  1  0
  5 34  1  0
  5 35  1  0
  6 36  1  0
  7 37  1  0
 11 38  1  0
 15 39  1  0
 18 40  1  0
 19 41  1  6
 22 42  1  0
 23 43  1  0
 24 44  1  0
 24 45  1  0
 26 46  1  0
 29 47  1  0
 30 48  1  0
 31 49  1  0
M  END
