
     RDKit          3D

 45 44  0  0  0  0  0  0  0  0999 V2000
    7.3688   -0.4948   -0.0522 C   0  0  0  0  0  0  0  0  0  0  0  0
    7.6807   -0.4855    1.1168 O   0  0  0  0  0  0  0  0  0  0  0  0
    6.1004    0.0078   -0.6042 C   0  0  0  0  0  0  0  0  0  0  0  0
    5.1674    0.5500    0.1789 C   0  0  0  0  0  0  0  0  0  0  0  0
    3.8584    1.0694   -0.3013 C   0  0  0  0  0  0  0  0  0  0  0  0
    2.6757    0.3552    0.3574 C   0  0  0  0  0  0  0  0  0  0  0  0
    8.1598   -0.9755   -1.0084 O   0  0  0  0  0  0  0  0  0  0  0  0
    5.9482   -0.0746   -1.6746 H   0  0  0  0  0  0  0  0  0  0  0  0
    5.3490    0.6162    1.2485 H   0  0  0  0  0  0  0  0  0  0  0  0
    3.7977    2.1374   -0.0649 H   0  0  0  0  0  0  0  0  0  0  0  0
    3.7894    0.9801   -1.3883 H   0  0  0  0  0  0  0  0  0  0  0  0
    2.7401   -0.7173    0.1502 H   0  0  0  0  0  0  0  0  0  0  0  0
    2.7422    0.4633    1.4446 H   0  0  0  0  0  0  0  0  0  0  0  0
    8.9856   -1.3024   -0.6220 H   0  0  0  0  0  0  0  0  0  0  0  0
    1.3375    0.8911   -0.1335 C   0  0  0  0  0  0  0  0  0  0  0  0
    0.1376    0.1842    0.4836 C   0  0  0  0  0  0  0  0  0  0  0  0
   -1.1903    0.7147   -0.0415 C   0  0  0  0  0  0  0  0  0  0  0  0
   -2.4067   -0.0245    0.5014 C   0  0  0  0  0  0  0  0  0  0  0  0
   -3.7206    0.5249   -0.0403 C   0  0  0  0  0  0  0  0  0  0  0  0
   -4.9427   -0.2854    0.3743 C   0  0  0  0  0  0  0  0  0  0  0  0
   -6.2475    0.3233   -0.1262 C   0  0  0  0  0  0  0  0  0  0  0  0
   -7.4986   -0.5169    0.1393 C   0  0  1  0  0  0  0  0  0  0  0  0
   -8.7578    0.3159   -0.0813 C   0  0  0  0  0  0  0  0  0  0  0  0
   -7.5347   -1.7657   -0.7368 C   0  0  0  0  0  0  0  0  0  0  0  0
    1.2763    1.9645    0.0763 H   0  0  0  0  0  0  0  0  0  0  0  0
    1.2891    0.7935   -1.2236 H   0  0  0  0  0  0  0  0  0  0  0  0
    0.2062   -0.8901    0.2797 H   0  0  0  0  0  0  0  0  0  0  0  0
    0.1707    0.2880    1.5736 H   0  0  0  0  0  0  0  0  0  0  0  0
   -1.2755    1.7810    0.1950 H   0  0  0  0  0  0  0  0  0  0  0  0
   -1.1944    0.6491   -1.1354 H   0  0  0  0  0  0  0  0  0  0  0  0
   -2.3241   -1.0874    0.2481 H   0  0  0  0  0  0  0  0  0  0  0  0
   -2.4112    0.0256    1.5957 H   0  0  0  0  0  0  0  0  0  0  0  0
   -3.8415    1.5645    0.2840 H   0  0  0  0  0  0  0  0  0  0  0  0
   -3.6713    0.5558   -1.1345 H   0  0  0  0  0  0  0  0  0  0  0  0
   -4.8277   -1.3082    0.0016 H   0  0  0  0  0  0  0  0  0  0  0  0
   -4.9792   -0.3649    1.4663 H   0  0  0  0  0  0  0  0  0  0  0  0
   -6.3717    1.3070    0.3401 H   0  0  0  0  0  0  0  0  0  0  0  0
   -6.1747    0.5115   -1.2046 H   0  0  0  0  0  0  0  0  0  0  0  0
   -7.4814   -0.8335    1.1893 H   0  0  0  0  0  0  0  0  0  0  0  0
   -8.7985    0.6946   -1.1057 H   0  0  0  0  0  0  0  0  0  0  0  0
   -9.6616   -0.2726    0.0876 H   0  0  0  0  0  0  0  0  0  0  0  0
   -8.7911    1.1759    0.5901 H   0  0  0  0  0  0  0  0  0  0  0  0
   -7.5704   -1.4898   -1.7942 H   0  0  0  0  0  0  0  0  0  0  0  0
   -6.6600   -2.4014   -0.5931 H   0  0  0  0  0  0  0  0  0  0  0  0
   -8.4160   -2.3738   -0.5254 H   0  0  0  0  0  0  0  0  0  0  0  0
  6  5  1  0
  5  4  1  0
  4  3  2  0
  3  1  1  0
  1  2  2  0
  1  7  1  0
  3  8  1  0
  4  9  1  0
  5 10  1  0
  5 11  1  0
  6 12  1  0
  6 13  1  0
  7 14  1  0
  6 15  1  0
 15 16  1  0
 16 17  1  0
 17 18  1  0
 18 19  1  0
 19 20  1  0
 20 21  1  0
 21 22  1  0
 22 23  1  0
 22 24  1  0
 15 25  1  0
 15 26  1  0
 16 27  1  0
 16 28  1  0
 17 29  1  0
 17 30  1  0
 18 31  1  0
 18 32  1  0
 19 33  1  0
 19 34  1  0
 20 35  1  0
 20 36  1  0
 21 37  1  0
 21 38  1  0
 22 39  1  1
 23 40  1  0
 23 41  1  0
 23 42  1  0
 24 43  1  0
 24 44  1  0
 24 45  1  0
M  END
