
     RDKit          3D

 54 57  0  0  0  0  0  0  0  0999 V2000
   -3.5200    2.6908    0.5014 C   0  0  0  0  0  0  0  0  0  0  0  0
   -4.6356    2.9962    0.8982 O   0  0  0  0  0  0  0  0  0  0  0  0
   -2.5675    3.6634    0.2913 N   0  0  0  0  0  0  0  0  0  0  0  0
   -1.3025    3.4032   -0.1610 C   0  0  0  0  0  0  0  0  0  0  0  0
   -0.4791    4.4707   -0.2709 N   0  0  0  0  0  0  0  0  0  0  0  0
   -0.8809    2.2134   -0.4296 N   0  0  0  0  0  0  0  0  0  0  0  0
   -1.7390    1.1563   -0.2483 C   0  0  0  0  0  0  0  0  0  0  0  0
   -1.2623   -0.1355   -0.5424 C   0  0  0  0  0  0  0  0  0  0  0  0
    0.1404   -0.3653   -1.0144 C   0  0  0  0  0  0  0  0  0  0  0  0
    1.1282   -0.4708    0.1443 C   0  0  0  0  0  0  0  0  0  0  0  0
    2.4879   -0.5854   -0.3427 N   0  0  0  0  0  0  0  0  0  0  0  0
    3.4742   -0.6746    0.7151 C   0  0  0  0  0  0  0  0  0  0  0  0
    4.9000   -0.6465    0.1764 C   0  0  2  0  0  0  0  0  0  0  0  0
    5.9071   -0.8803    1.3025 C   0  0  0  0  0  0  0  0  0  0  0  0
    7.3462   -0.8427    0.7970 C   0  0  0  0  0  0  0  0  0  0  0  0
    7.6455    0.4646    0.0701 C   0  0  0  0  0  0  0  0  0  0  0  0
    6.6491    0.7019   -1.0606 C   0  0  0  0  0  0  0  0  0  0  0  0
    5.2123    0.6616   -0.5496 C   0  0  0  0  0  0  0  0  0  0  0  0
   -2.1390   -1.1954   -0.3512 C   0  0  0  0  0  0  0  0  0  0  0  0
   -1.9259   -2.5306   -0.5566 N   0  0  0  0  0  0  0  0  0  0  0  0
   -3.0668   -3.1137   -0.2405 C   0  0  0  0  0  0  0  0  0  0  0  0
   -3.2943   -4.4282   -0.3082 N   0  0  0  0  0  0  0  0  0  0  0  0
   -4.5329   -5.0533    0.0845 C   0  0  0  0  0  0  0  0  0  0  0  0
   -4.0226   -2.2340    0.1662 N   0  0  0  0  0  0  0  0  0  0  0  0
   -3.4614   -0.9750    0.1098 C   0  0  0  0  0  0  0  0  0  0  0  0
   -3.9461    0.2700    0.3963 C   0  0  0  0  0  0  0  0  0  0  0  0
   -3.0646    1.3459    0.2132 C   0  0  0  0  0  0  0  0  0  0  0  0
   -2.8400    4.6173    0.4892 H   0  0  0  0  0  0  0  0  0  0  0  0
   -0.8752    5.3910   -0.3694 H   0  0  0  0  0  0  0  0  0  0  0  0
    0.3696    4.3182   -0.7901 H   0  0  0  0  0  0  0  0  0  0  0  0
    0.1779   -1.2853   -1.6039 H   0  0  0  0  0  0  0  0  0  0  0  0
    0.4559    0.4505   -1.6660 H   0  0  0  0  0  0  0  0  0  0  0  0
    1.0605    0.4344    0.7546 H   0  0  0  0  0  0  0  0  0  0  0  0
    0.8325   -1.3075    0.7975 H   0  0  0  0  0  0  0  0  0  0  0  0
    2.5618   -1.4102   -0.9281 H   0  0  0  0  0  0  0  0  0  0  0  0
    3.3323    0.1812    1.3855 H   0  0  0  0  0  0  0  0  0  0  0  0
    3.3425   -1.5731    1.3418 H   0  0  0  0  0  0  0  0  0  0  0  0
    5.0102   -1.4716   -0.5427 H   0  0  0  0  0  0  0  0  0  0  0  0
    5.7717   -0.1056    2.0673 H   0  0  0  0  0  0  0  0  0  0  0  0
    5.7045   -1.8378    1.7910 H   0  0  0  0  0  0  0  0  0  0  0  0
    8.0412   -0.9831    1.6286 H   0  0  0  0  0  0  0  0  0  0  0  0
    7.5089   -1.6809    0.1101 H   0  0  0  0  0  0  0  0  0  0  0  0
    7.5868    1.2958    0.7815 H   0  0  0  0  0  0  0  0  0  0  0  0
    8.6677    0.4590   -0.3169 H   0  0  0  0  0  0  0  0  0  0  0  0
    6.8478    1.6611   -1.5455 H   0  0  0  0  0  0  0  0  0  0  0  0
    6.7844   -0.0678   -1.8288 H   0  0  0  0  0  0  0  0  0  0  0  0
    4.5056    0.8078   -1.3683 H   0  0  0  0  0  0  0  0  0  0  0  0
    5.0570    1.4934    0.1497 H   0  0  0  0  0  0  0  0  0  0  0  0
   -2.5157   -5.0054   -0.5754 H   0  0  0  0  0  0  0  0  0  0  0  0
   -5.3759   -4.6934   -0.5090 H   0  0  0  0  0  0  0  0  0  0  0  0
   -4.4442   -6.1222   -0.0827 H   0  0  0  0  0  0  0  0  0  0  0  0
   -4.7596   -4.8960    1.1417 H   0  0  0  0  0  0  0  0  0  0  0  0
   -4.9598   -2.4544    0.4612 H   0  0  0  0  0  0  0  0  0  0  0  0
   -4.9564    0.4346    0.7468 H   0  0  0  0  0  0  0  0  0  0  0  0
  1  2  2  0
  1  3  1  0
  1 27  1  0
  3  4  1  0
  4  5  1  0
  4  6  2  0
  6  7  1  0
  7  8  1  0
  7 27  2  0
  8  9  1  0
  8 19  2  0
  9 10  1  0
 10 11  1  0
 11 12  1  0
 12 13  1  0
 13 14  1  0
 13 18  1  0
 14 15  1  0
 15 16  1  0
 16 17  1  0
 17 18  1  0
 19 20  1  0
 19 25  1  0
 20 21  2  0
 21 22  1  0
 21 24  1  0
 22 23  1  0
 24 25  1  0
 25 26  2  0
 26 27  1  0
  3 28  1  0
  5 29  1  0
  5 30  1  0
  9 31  1  0
  9 32  1  0
 10 33  1  0
 10 34  1  0
 11 35  1  0
 12 36  1  0
 12 37  1  0
 13 38  1  6
 14 39  1  0
 14 40  1  0
 15 41  1  0
 15 42  1  0
 16 43  1  0
 16 44  1  0
 17 45  1  0
 17 46  1  0
 18 47  1  0
 18 48  1  0
 22 49  1  0
 23 50  1  0
 23 51  1  0
 23 52  1  0
 24 53  1  0
 26 54  1  0
M  END
