
     RDKit          3D

 17 17  0  0  0  0  0  0  0  0999 V2000
    0.9664   -0.4342    0.0481 C   0  0  0  0  0  0  0  0  0  0  0  0
    1.2701    0.8478   -0.0822 O   0  0  0  0  0  0  0  0  0  0  0  0
    2.0666   -1.1761    0.1329 N   0  0  0  0  0  0  0  0  0  0  0  0
   -0.2365   -0.9067    0.1012 N   0  0  0  0  0  0  0  0  0  0  0  0
    3.2539   -0.3975   -0.1488 C   0  0  0  0  0  0  0  0  0  0  0  0
    2.6973    1.0107    0.0510 C   0  0  0  0  0  0  0  0  0  0  0  0
   -1.4943    0.1167    0.0006 S   0  0  1  0  0  0  0  0  0  0  0  0
   -2.6894   -0.9982    0.2700 N   0  0  0  0  0  0  0  0  0  0  0  0
   -1.5696    1.0525    1.1145 O   0  0  0  0  0  0  0  0  0  0  0  0
   -1.5702    0.6984   -1.3360 O   0  0  0  0  0  0  0  0  0  0  0  0
    2.0331   -2.1816    0.0881 H   0  0  0  0  0  0  0  0  0  0  0  0
    4.0582   -0.6216    0.5485 H   0  0  0  0  0  0  0  0  0  0  0  0
    3.6113   -0.5678   -1.1663 H   0  0  0  0  0  0  0  0  0  0  0  0
    3.0351    1.7249   -0.6946 H   0  0  0  0  0  0  0  0  0  0  0  0
    2.9041    1.3980    1.0487 H   0  0  0  0  0  0  0  0  0  0  0  0
   -2.7278   -1.7002   -0.4617 H   0  0  0  0  0  0  0  0  0  0  0  0
   -3.5905   -0.5351    0.3359 H   0  0  0  0  0  0  0  0  0  0  0  0
  5  6  1  0
  5  3  1  0
  6  2  1  0
  3  1  1  0
  2  1  1  0
  1  4  2  0
  7  4  1  6
  8  7  1  0
  9  7  2  0
  7 10  2  0
  3 11  1  0
  5 12  1  0
  5 13  1  0
  6 14  1  0
  6 15  1  0
  8 16  1  0
  8 17  1  0
M  END
