
     RDKit          3D

 47 49  0  0  0  0  0  0  0  0999 V2000
   -3.5411   -6.2158    2.7774 P   0  0  2  0  0  0  0  0  0  0  0  0
   -2.3610   -7.7646    2.6828 S   0  0  0  0  0  0  0  0  0  0  0  0
   -3.9902   -5.9940    4.2512 O   0  0  0  0  0  0  0  0  0  0  0  0
   -4.7965   -6.4706    1.8913 O   0  0  0  0  0  0  0  0  0  0  0  0
   -1.3105   -4.6483    2.7468 P   0  0  1  0  0  0  0  0  0  0  0  0
   -1.2917   -4.2861    4.1829 O   0  0  0  0  0  0  0  0  0  0  0  0
   -0.4890   -5.9003    2.4267 O   0  0  0  0  0  0  0  0  0  0  0  0
   -2.7929   -4.9484    2.2643 O   0  0  0  0  0  0  0  0  0  0  0  0
   -0.2520   -2.1206    2.5781 P   0  0  2  0  0  0  0  0  0  0  0  0
    0.9154   -2.3384    3.4643 O   0  0  0  0  0  0  0  0  0  0  0  0
   -1.4861   -1.5729    3.3028 O   0  0  0  0  0  0  0  0  0  0  0  0
   -0.6920   -3.4744    1.8762 O   0  0  0  0  0  0  0  0  0  0  0  0
    0.1940   -1.1698    1.3900 O   0  0  0  0  0  0  0  0  0  0  0  0
    1.1412   -0.0993    1.5871 C   0  0  0  0  0  0  0  0  0  0  0  0
    1.7078    0.3106    0.2504 C   0  0  1  0  0  0  0  0  0  0  0  0
    0.7185    1.0421   -0.4886 O   0  0  0  0  0  0  0  0  0  0  0  0
    2.9070    1.2510    0.3153 C   0  0  1  0  0  0  0  0  0  0  0  0
    4.1238    0.5154    0.3693 O   0  0  0  0  0  0  0  0  0  0  0  0
    2.7919    2.0799   -0.9783 C   0  0  1  0  0  0  0  0  0  0  0  0
    3.7834    1.7186   -1.9332 O   0  0  0  0  0  0  0  0  0  0  0  0
    1.3880    1.7504   -1.5079 C   0  0  2  0  0  0  0  0  0  0  0  0
    0.5917    2.9216   -1.8603 N   0  0  0  0  0  0  0  0  0  0  0  0
    0.0016    3.8153   -1.0049 C   0  0  0  0  0  0  0  0  0  0  0  0
   -0.6552    4.7772   -1.6082 N   0  0  0  0  0  0  0  0  0  0  0  0
   -0.4834    4.4971   -2.9555 C   0  0  0  0  0  0  0  0  0  0  0  0
   -0.9335    5.1425   -4.1237 C   0  0  0  0  0  0  0  0  0  0  0  0
   -1.6791    6.2498   -4.1205 N   0  0  0  0  0  0  0  0  0  0  0  0
   -0.5839    4.6021   -5.3136 N   0  0  0  0  0  0  0  0  0  0  0  0
    0.1628    3.4939   -5.3242 C   0  0  0  0  0  0  0  0  0  0  0  0
    0.6432    2.8008   -4.2887 N   0  0  0  0  0  0  0  0  0  0  0  0
    0.2827    3.3574   -3.1258 C   0  0  0  0  0  0  0  0  0  0  0  0
   -4.5975   -6.5998    4.4693 H   0  0  0  0  0  0  0  0  0  0  0  0
   -5.1390   -7.2631    2.0854 H   0  0  0  0  0  0  0  0  0  0  0  0
    0.0422   -6.0876    3.1092 H   0  0  0  0  0  0  0  0  0  0  0  0
   -1.2300   -1.0197    3.9445 H   0  0  0  0  0  0  0  0  0  0  0  0
    0.6969    0.6620    1.9992 H   0  0  0  0  0  0  0  0  0  0  0  0
    1.8632   -0.4059    2.1625 H   0  0  0  0  0  0  0  0  0  0  0  0
    1.9536   -0.4850   -0.2489 H   0  0  0  0  0  0  0  0  0  0  0  0
    2.8295    1.8315    1.0895 H   0  0  0  0  0  0  0  0  0  0  0  0
    4.6312    0.8314    1.0246 H   0  0  0  0  0  0  0  0  0  0  0  0
    2.8549    3.0261   -0.7709 H   0  0  0  0  0  0  0  0  0  0  0  0
    4.0225    0.8734   -1.8102 H   0  0  0  0  0  0  0  0  0  0  0  0
    1.4738    1.1773   -2.2894 H   0  0  0  0  0  0  0  0  0  0  0  0
    0.0622    3.7426   -0.0405 H   0  0  0  0  0  0  0  0  0  0  0  0
   -1.8863    6.6586   -4.9055 H   0  0  0  0  0  0  0  0  0  0  0  0
   -1.9787    6.5954   -3.3349 H   0  0  0  0  0  0  0  0  0  0  0  0
    0.3866    3.1455   -6.2045 H   0  0  0  0  0  0  0  0  0  0  0  0
  1  2  2  0
  1  3  1  1
  1  4  1  0
  1  8  1  0
  5  6  2  0
  5  7  1  1
  5  8  1  0
  5 12  1  0
  9 10  2  0
  9 11  1  1
  9 12  1  0
  9 13  1  0
 13 14  1  0
 14 15  1  0
 15 16  1  0
 15 17  1  0
 16 21  1  0
 17 18  1  0
 17 19  1  0
 19 20  1  0
 19 21  1  0
 21 22  1  0
 22 23  1  0
 22 31  1  0
 23 24  2  0
 24 25  1  0
 25 26  1  0
 25 31  2  0
 26 27  1  0
 26 28  2  0
 28 29  1  0
 29 30  2  0
 30 31  1  0
  3 32  1  0
  4 33  1  0
  7 34  1  0
 11 35  1  0
 14 36  1  0
 14 37  1  0
 15 38  1  6
 17 39  1  1
 18 40  1  0
 19 41  1  1
 20 42  1  0
 21 43  1  6
 23 44  1  0
 27 45  1  0
 27 46  1  0
 29 47  1  0
M  END
