
     RDKit          3D

 47 49  0  0  0  0  0  0  0  0999 V2000
   -2.2926   -1.5841   -1.6283 C   0  0  0  0  0  0  0  0  0  0  0  0
   -3.0718    0.6505   -1.4827 C   0  0  2  0  0  0  0  0  0  0  0  0
   -2.0219    1.3949   -0.6483 C   0  0  0  0  0  0  0  0  0  0  0  0
   -0.6883    1.0090   -0.6614 C   0  0  0  0  0  0  0  0  0  0  0  0
    0.3004    1.6734    0.0666 C   0  0  0  0  0  0  0  0  0  0  0  0
    2.7379    1.6076    0.5163 C   0  0  0  0  0  0  0  0  0  0  0  0
    3.9319    0.7806    0.1669 C   0  0  0  0  0  0  0  0  0  0  0  0
   -1.6580   -2.6062   -2.2590 N   0  0  0  0  0  0  0  0  0  0  0  0
   -2.4736   -0.4624   -2.1883 N   0  0  0  0  0  0  0  0  0  0  0  0
    2.8421    2.5819    1.2424 O   0  0  0  0  0  0  0  0  0  0  0  0
    4.8163   -1.0047   -0.9277 C   0  0  0  0  0  0  0  0  0  0  0  0
    1.5953    1.1608   -0.0421 N   0  0  0  0  0  0  0  0  0  0  0  0
    6.0777   -0.6628   -0.4113 C   0  0  0  0  0  0  0  0  0  0  0  0
    8.3813   -1.1294   -0.2854 C   0  0  0  0  0  0  0  0  0  0  0  0
    5.1813    1.1045    0.6637 C   0  0  0  0  0  0  0  0  0  0  0  0
   -0.0502    2.7751    0.8418 C   0  0  0  0  0  0  0  0  0  0  0  0
   -1.3747    3.1831    0.8647 C   0  0  0  0  0  0  0  0  0  0  0  0
   -2.3262    2.5053    0.1341 C   0  0  0  0  0  0  0  0  0  0  0  0
   -3.6203    1.5868   -2.5649 C   0  0  0  0  0  0  0  0  0  0  0  0
    3.7694   -0.2789   -0.6276 N   0  0  0  0  0  0  0  0  0  0  0  0
    8.4851   -1.5037    1.0299 F   0  0  0  0  0  0  0  0  0  0  0  0
    6.2512    0.3715    0.3726 N   0  0  0  0  0  0  0  0  0  0  0  0
   -3.5938    2.9591    0.2004 F   0  0  0  0  0  0  0  0  0  0  0  0
   -4.2407    0.1533   -0.6150 C   0  0  0  0  0  0  0  0  0  0  0  0
   -3.7810   -0.6896    0.5600 C   0  0  2  0  0  0  0  0  0  0  0  0
   -2.6481   -2.0273    0.0598 S   0  0  0  0  0  0  0  0  0  0  0  0
   -4.9397   -1.3329    1.2950 C   0  0  1  0  0  0  0  0  0  0  0  0
   -4.5068   -2.1018    2.3026 F   0  0  0  0  0  0  0  0  0  0  0  0
   -5.7485   -0.4068    1.8225 F   0  0  0  0  0  0  0  0  0  0  0  0
   -5.6877   -2.1074    0.5053 F   0  0  0  0  0  0  0  0  0  0  0  0
   -0.3954    0.1633   -1.2689 H   0  0  0  0  0  0  0  0  0  0  0  0
   -1.5068   -2.4795   -3.2481 H   0  0  0  0  0  0  0  0  0  0  0  0
   -1.8750   -3.5521   -1.9891 H   0  0  0  0  0  0  0  0  0  0  0  0
    4.6871   -1.8640   -1.5745 H   0  0  0  0  0  0  0  0  0  0  0  0
    1.6987    0.3370   -0.6216 H   0  0  0  0  0  0  0  0  0  0  0  0
    9.0724   -1.7246   -0.8758 H   0  0  0  0  0  0  0  0  0  0  0  0
    8.5970   -0.0648   -0.3633 H   0  0  0  0  0  0  0  0  0  0  0  0
    5.3309    1.9605    1.3082 H   0  0  0  0  0  0  0  0  0  0  0  0
    0.6769    3.3153    1.4241 H   0  0  0  0  0  0  0  0  0  0  0  0
   -1.6671    4.0388    1.4596 H   0  0  0  0  0  0  0  0  0  0  0  0
   -2.8076    1.9417   -3.1985 H   0  0  0  0  0  0  0  0  0  0  0  0
   -4.3273    1.0454   -3.1953 H   0  0  0  0  0  0  0  0  0  0  0  0
   -4.1354    2.4492   -2.1470 H   0  0  0  0  0  0  0  0  0  0  0  0
   -4.8174    0.9942   -0.2338 H   0  0  0  0  0  0  0  0  0  0  0  0
   -4.9047   -0.4176   -1.2677 H   0  0  0  0  0  0  0  0  0  0  0  0
   -3.2494   -0.0667    1.2842 H   0  0  0  0  0  0  0  0  0  0  0  0
    7.1074   -1.4421   -0.7568 O   0  0  0  0  0  0  0  0  0  0  0  0
 27 29  1  1
 28 27  1  0
 27 30  1  0
 27 25  1  0
 23 18  1  0
 24 25  1  0
 24  2  1  0
 25 26  1  0
  2 19  1  6
 18 17  2  0
 18  3  1  0
 17 16  1  0
  2  3  1  0
  2  9  1  0
  3  4  2  0
 26  1  1  0
 16  5  2  0
  9  1  2  0
  1  8  1  0
  4  5  1  0
  5 12  1  0
 10  6  2  0
 12  6  1  0
  6  7  1  0
  7 15  2  0
  7 20  1  0
 15 22  1  0
 20 11  2  0
 22 13  2  0
 11 13  1  0
 13 47  1  0
 47 14  1  0
 14 21  1  0
  4 31  1  0
  8 32  1  0
  8 33  1  0
 11 34  1  0
 12 35  1  0
 14 36  1  0
 14 37  1  0
 15 38  1  0
 16 39  1  0
 17 40  1  0
 19 41  1  0
 19 42  1  0
 19 43  1  0
 24 44  1  0
 24 45  1  0
 25 46  1  1
M  END
