
     RDKit          3D

 22 23  0  0  0  0  0  0  0  0999 V2000
    3.5054   -1.1116    0.0226 N   0  0  0  0  0  0  0  0  0  0  0  0
    1.2991   -0.1907    0.0011 C   0  0  0  0  0  0  0  0  0  0  0  0
   -1.2880   -0.8502   -0.0107 C   0  0  0  0  0  0  0  0  0  0  0  0
   -2.6341   -1.2708   -0.0162 C   0  0  0  0  0  0  0  0  0  0  0  0
   -3.3465    1.0278   -0.0364 C   0  0  0  0  0  0  0  0  0  0  0  0
    0.3971    0.8907   -0.0149 C   0  0  0  0  0  0  0  0  0  0  0  0
    2.7733    0.0057    0.0093 C   0  0  0  0  0  0  0  0  0  0  0  0
    3.2759    1.1309    0.0033 O   0  0  0  0  0  0  0  0  0  0  0  0
    0.8937   -1.4680    0.0092 N   0  0  0  0  0  0  0  0  0  0  0  0
   -0.3330   -1.8215    0.0033 N   0  0  0  0  0  0  0  0  0  0  0  0
   -3.6443   -0.3482   -0.0292 C   0  0  0  0  0  0  0  0  0  0  0  0
   -2.0454    1.4571   -0.0315 C   0  0  0  0  0  0  0  0  0  0  0  0
   -0.9878    0.5249   -0.0195 C   0  0  0  0  0  0  0  0  0  0  0  0
    0.7846    2.1606   -0.0242 N   0  0  0  0  0  0  0  0  0  0  0  0
    3.0636   -2.0155    0.0293 H   0  0  0  0  0  0  0  0  0  0  0  0
    4.5099   -1.0567    0.0307 H   0  0  0  0  0  0  0  0  0  0  0  0
   -2.8395   -2.3334   -0.0096 H   0  0  0  0  0  0  0  0  0  0  0  0
   -4.1502    1.7512   -0.0456 H   0  0  0  0  0  0  0  0  0  0  0  0
   -4.6766   -0.6721   -0.0337 H   0  0  0  0  0  0  0  0  0  0  0  0
   -1.8528    2.5215   -0.0367 H   0  0  0  0  0  0  0  0  0  0  0  0
    0.1299    2.9219   -0.0450 H   0  0  0  0  0  0  0  0  0  0  0  0
    1.7733    2.3638   -0.0240 H   0  0  0  0  0  0  0  0  0  0  0  0
 14  6  1  0
 12  5  1  0
 12 13  2  0
  5 11  2  0
  8  7  2  0
  6 13  1  0
  6  2  2  0
 13  3  1  0
  7  2  1  0
  7  1  1  0
 11  4  1  0
  2  9  1  0
  3  4  2  0
  3 10  1  0
  9 10  2  0
  1 15  1  0
  1 16  1  0
  4 17  1  0
  5 18  1  0
 11 19  1  0
 12 20  1  0
 14 21  1  0
 14 22  1  0
M  END
