
     RDKit          3D

 21 21  0  0  0  0  0  0  0  0999 V2000
    0.5120   -0.0374    2.0820 C   0  0  0  0  0  0  0  0  0  0  0  0
   -0.3535    0.0060    1.0570 C   0  0  0  0  0  0  0  0  0  0  0  0
   -0.0298   -0.0558   -0.3551 C   0  0  0  0  0  0  0  0  0  0  0  0
   -1.0331   -0.1845   -1.3357 C   0  0  0  0  0  0  0  0  0  0  0  0
   -0.7068   -0.2035   -2.6893 C   0  0  0  0  0  0  0  0  0  0  0  0
    1.2968    0.0355   -0.8078 C   0  0  0  0  0  0  0  0  0  0  0  0
    1.6328    0.0139   -2.1388 C   0  0  0  0  0  0  0  0  0  0  0  0
    0.6152   -0.1033   -3.0939 C   0  0  0  0  0  0  0  0  0  0  0  0
    0.9765   -0.1171   -4.3833 O   0  0  0  0  0  0  0  0  0  0  0  0
   -2.3415   -0.2977   -1.0588 O   0  0  0  0  0  0  0  0  0  0  0  0
    0.0317    0.0609    3.4635 C   0  0  0  0  0  0  0  0  0  0  0  0
   -1.1226    0.2083    3.8016 O   0  0  0  0  0  0  0  0  0  0  0  0
    1.0328   -0.0345    4.3363 O   0  0  0  0  0  0  0  0  0  0  0  0
    1.5783   -0.1520    1.9351 H   0  0  0  0  0  0  0  0  0  0  0  0
   -1.3982    0.1174    1.3341 H   0  0  0  0  0  0  0  0  0  0  0  0
   -1.5030   -0.3040   -3.4186 H   0  0  0  0  0  0  0  0  0  0  0  0
    2.0931    0.1408   -0.0829 H   0  0  0  0  0  0  0  0  0  0  0  0
    2.6655    0.0949   -2.4512 H   0  0  0  0  0  0  0  0  0  0  0  0
    0.2053   -0.2017   -4.9564 H   0  0  0  0  0  0  0  0  0  0  0  0
   -2.5109   -0.4111   -0.1183 H   0  0  0  0  0  0  0  0  0  0  0  0
    0.6893    0.0271    5.2396 H   0  0  0  0  0  0  0  0  0  0  0  0
  1  2  2  0
  1 11  1  0
  1 14  1  0
  2  3  1  0
  2 15  1  0
  3  4  2  0
  3  6  1  0
  4  5  1  0
  4 10  1  0
  5  8  2  0
  5 16  1  0
  6  7  2  0
  6 17  1  0
  7  8  1  0
  7 18  1  0
  8  9  1  0
  9 19  1  0
 10 20  1  0
 11 12  2  0
 11 13  1  0
 13 21  1  0
M  END
