
     RDKit          3D

 21 21  0  0  0  0  0  0  0  0999 V2000
    1.1841    1.4729    0.2187 C   0  0  0  0  0  0  0  0  0  0  0  0
    0.2137    0.3005    0.0103 C   0  0  1  0  0  0  0  0  0  0  0  0
   -0.9282    0.7158   -0.9376 C   0  0  0  0  0  0  0  0  0  0  0  0
    0.9322   -0.8776   -0.7252 C   0  0  0  0  0  0  0  0  0  0  0  0
   -0.4616    0.2695   -2.3187 C   0  0  0  0  0  0  0  0  0  0  0  0
    0.1599   -1.0923   -2.0304 C   0  0  0  0  0  0  0  0  0  0  0  0
   -0.3071   -0.1261    1.3663 C   0  0  0  0  0  0  0  0  0  0  0  0
   -1.4586   -0.0830    1.7258 O   0  0  0  0  0  0  0  0  0  0  0  0
    0.6688   -0.5536    2.1632 O   0  0  0  0  0  0  0  0  0  0  0  0
    0.7119    2.2932    0.7620 H   0  0  0  0  0  0  0  0  0  0  0  0
    2.0787    1.1705    0.7622 H   0  0  0  0  0  0  0  0  0  0  0  0
    1.5047    1.8587   -0.7497 H   0  0  0  0  0  0  0  0  0  0  0  0
   -1.8490    0.1867   -0.6853 H   0  0  0  0  0  0  0  0  0  0  0  0
   -1.1456    1.7836   -0.8731 H   0  0  0  0  0  0  0  0  0  0  0  0
    1.9642   -0.5902   -0.9369 H   0  0  0  0  0  0  0  0  0  0  0  0
    0.9838   -1.7883   -0.1281 H   0  0  0  0  0  0  0  0  0  0  0  0
   -1.2755    0.2280   -3.0436 H   0  0  0  0  0  0  0  0  0  0  0  0
    0.2925    0.9534   -2.7181 H   0  0  0  0  0  0  0  0  0  0  0  0
   -0.6325   -1.8308   -1.8833 H   0  0  0  0  0  0  0  0  0  0  0  0
    0.7981   -1.4592   -2.8354 H   0  0  0  0  0  0  0  0  0  0  0  0
    0.3041   -0.8122    3.0226 H   0  0  0  0  0  0  0  0  0  0  0  0
  1  2  1  0
  1 10  1  0
  1 11  1  0
  1 12  1  0
  2  3  1  0
  2  4  1  0
  2  7  1  1
  3  5  1  0
  3 13  1  0
  3 14  1  0
  4  6  1  0
  4 15  1  0
  4 16  1  0
  5  6  1  0
  5 17  1  0
  5 18  1  0
  6 19  1  0
  6 20  1  0
  7  8  2  0
  7  9  1  0
  9 21  1  0
M  END
