
     RDKit          3D

 24 24  0  0  0  0  0  0  0  0999 V2000
   -1.5990    0.2730   -0.2280 C   0  0  2  0  0  0  0  0  0  0  0  0
   -1.0320   -1.0690    0.2440 C   0  0  2  0  0  0  0  0  0  0  0  0
    0.4060   -1.2100   -0.2650 C   0  0  1  0  0  0  0  0  0  0  0  0
    1.2340   -0.0220    0.2320 C   0  0  1  0  0  0  0  0  0  0  0  0
    2.6570   -0.1240   -0.3220 C   0  0  0  0  0  0  0  0  0  0  0  0
   -0.6940    1.4040    0.2690 C   0  0  2  0  0  0  0  0  0  0  0  0
   -1.1860    2.6550   -0.2140 O   0  0  0  0  0  0  0  0  0  0  0  0
   -2.9150    0.4480    0.3020 O   0  0  0  0  0  0  0  0  0  0  0  0
   -1.8290   -2.1350   -0.2760 O   0  0  0  0  0  0  0  0  0  0  0  0
    0.9710   -2.4260    0.2290 O   0  0  0  0  0  0  0  0  0  0  0  0
    0.6350    1.1950   -0.2150 O   0  0  0  0  0  0  0  0  0  0  0  0
    3.4600    0.9180    0.2350 O   0  0  0  0  0  0  0  0  0  0  0  0
   -1.6390    0.2900   -1.3170 H   0  0  0  0  0  0  0  0  0  0  0  0
   -1.0380   -1.1050    1.3330 H   0  0  0  0  0  0  0  0  0  0  0  0
    0.4070   -1.2230   -1.3550 H   0  0  0  0  0  0  0  0  0  0  0  0
    1.2660   -0.0330    1.3220 H   0  0  0  0  0  0  0  0  0  0  0  0
    3.0820   -1.0920   -0.0560 H   0  0  0  0  0  0  0  0  0  0  0  0
    2.6320   -0.0240   -1.4070 H   0  0  0  0  0  0  0  0  0  0  0  0
   -0.6870    1.4120    1.3590 H   0  0  0  0  0  0  0  0  0  0  0  0
   -0.6600    3.4180    0.0620 H   0  0  0  0  0  0  0  0  0  0  0  0
   -3.3360    1.2790    0.0430 H   0  0  0  0  0  0  0  0  0  0  0  0
   -2.7550   -2.1040    0.0010 H   0  0  0  0  0  0  0  0  0  0  0  0
    0.4930   -3.2210   -0.0440 H   0  0  0  0  0  0  0  0  0  0  0  0
    4.3770    0.9150   -0.0720 H   0  0  0  0  0  0  0  0  0  0  0  0
  1  2  1  0
  1  6  1  0
  1  8  1  0
  1 13  1  6
  2  3  1  0
  2  9  1  0
  2 14  1  1
  3  4  1  0
  3 10  1  0
  3 15  1  6
  4  5  1  0
  4 11  1  0
  4 16  1  1
  5 12  1  0
  5 17  1  0
  5 18  1  0
  6  7  1  0
  6 11  1  0
  6 19  1  1
  7 20  1  0
  8 21  1  0
  9 22  1  0
 10 23  1  0
 12 24  1  0
M  END
