
     RDKit          3D

 75 74  0  0  0  0  0  0  0  0999 V2000
   -1.9250   -3.5583   -8.7137 O   0  0  0  0  0  0  0  0  0  0  0  0
   -1.6474   -2.4030   -8.5158 C   0  0  0  0  0  0  0  0  0  0  0  0
   -2.5850   -1.3646   -7.9654 C   0  0  0  0  0  0  0  0  0  0  0  0
   -3.9590   -1.9058   -7.6053 C   0  0  0  0  0  0  0  0  0  0  0  0
   -4.8635   -0.8166   -7.0424 C   0  0  0  0  0  0  0  0  0  0  0  0
   -6.2457   -1.3282   -6.6577 C   0  0  0  0  0  0  0  0  0  0  0  0
   -7.1426   -0.2412   -6.0780 C   0  0  0  0  0  0  0  0  0  0  0  0
   -8.5287   -0.7412   -5.6911 C   0  0  0  0  0  0  0  0  0  0  0  0
   -9.4140    0.3461   -5.0934 C   0  0  0  0  0  0  0  0  0  0  0  0
  -10.7967   -0.1597   -4.7056 C   0  0  0  0  0  0  0  0  0  0  0  0
    2.6825   -4.3014   -6.1377 O   0  0  0  0  0  0  0  0  0  0  0  0
    2.4778   -3.1209   -6.2665 C   0  0  0  0  0  0  0  0  0  0  0  0
    2.9230   -2.0479   -5.3112 C   0  0  0  0  0  0  0  0  0  0  0  0
    3.8486   -2.5528   -4.2167 C   0  0  0  0  0  0  0  0  0  0  0  0
    4.2560   -1.4435   -3.2543 C   0  0  0  0  0  0  0  0  0  0  0  0
    5.2031   -1.9296   -2.1652 C   0  0  0  0  0  0  0  0  0  0  0  0
    5.6051   -0.8376   -1.1811 C   0  0  0  0  0  0  0  0  0  0  0  0
    6.5623   -1.3286   -0.1026 C   0  0  0  0  0  0  0  0  0  0  0  0
    6.9676   -0.2438    0.8882 C   0  0  0  0  0  0  0  0  0  0  0  0
    7.9264   -0.7410    1.9623 C   0  0  0  0  0  0  0  0  0  0  0  0
    8.3349    0.3396    2.9563 C   0  0  0  0  0  0  0  0  0  0  0  0
    9.2840   -0.1630    4.0370 C   0  0  0  0  0  0  0  0  0  0  0  0
    9.6892    0.9246    5.0225 C   0  0  0  0  0  0  0  0  0  0  0  0
    1.2799   -3.5177   -8.2618 C   0  0  0  0  0  0  0  0  0  0  0  0
    1.8042   -2.6098   -7.2942 O   0  0  0  0  0  0  0  0  0  0  0  0
    0.5762   -2.7120   -9.3326 C   0  0  1  0  0  0  0  0  0  0  0  0
   -0.4460   -1.8827   -8.7667 O   0  0  0  0  0  0  0  0  0  0  0  0
    1.5120   -1.7839  -10.0934 C   0  0  0  0  0  0  0  0  0  0  0  0
    0.8687   -1.1376  -11.1628 O   0  0  0  0  0  0  0  0  0  0  0  0
   -2.6710   -0.5607   -8.7035 H   0  0  0  0  0  0  0  0  0  0  0  0
   -2.1115   -0.9071   -7.0910 H   0  0  0  0  0  0  0  0  0  0  0  0
   -4.4279   -2.3472   -8.4889 H   0  0  0  0  0  0  0  0  0  0  0  0
   -3.8598   -2.7105   -6.8718 H   0  0  0  0  0  0  0  0  0  0  0  0
   -4.9662   -0.0113   -7.7779 H   0  0  0  0  0  0  0  0  0  0  0  0
   -4.3878   -0.3661   -6.1644 H   0  0  0  0  0  0  0  0  0  0  0  0
   -6.7289   -1.7690   -7.5365 H   0  0  0  0  0  0  0  0  0  0  0  0
   -6.1421   -2.1395   -5.9289 H   0  0  0  0  0  0  0  0  0  0  0  0
   -6.6571    0.1951   -5.1981 H   0  0  0  0  0  0  0  0  0  0  0  0
   -7.2407    0.5733   -6.8041 H   0  0  0  0  0  0  0  0  0  0  0  0
   -8.4315   -1.5630   -4.9729 H   0  0  0  0  0  0  0  0  0  0  0  0
   -9.0218   -1.1661   -6.5726 H   0  0  0  0  0  0  0  0  0  0  0  0
   -9.5110    1.1676   -5.8100 H   0  0  0  0  0  0  0  0  0  0  0  0
   -8.9193    0.7689   -4.2134 H   0  0  0  0  0  0  0  0  0  0  0  0
  -10.7296   -0.9581   -3.9646 H   0  0  0  0  0  0  0  0  0  0  0  0
  -11.3288   -0.5594   -5.5711 H   0  0  0  0  0  0  0  0  0  0  0  0
  -11.4105    0.6352   -4.2801 H   0  0  0  0  0  0  0  0  0  0  0  0
    3.3991   -1.2467   -5.8844 H   0  0  0  0  0  0  0  0  0  0  0  0
    2.0242   -1.5996   -4.8738 H   0  0  0  0  0  0  0  0  0  0  0  0
    3.3588   -3.3534   -3.6565 H   0  0  0  0  0  0  0  0  0  0  0  0
    4.7446   -2.9918   -4.6644 H   0  0  0  0  0  0  0  0  0  0  0  0
    3.3605   -1.0127   -2.7933 H   0  0  0  0  0  0  0  0  0  0  0  0
    4.7311   -0.6303   -3.8138 H   0  0  0  0  0  0  0  0  0  0  0  0
    4.7340   -2.7540   -1.6169 H   0  0  0  0  0  0  0  0  0  0  0  0
    6.1029   -2.3481   -2.6295 H   0  0  0  0  0  0  0  0  0  0  0  0
    4.7066   -0.4247   -0.7094 H   0  0  0  0  0  0  0  0  0  0  0  0
    6.0680   -0.0091   -1.7287 H   0  0  0  0  0  0  0  0  0  0  0  0
    7.4603   -1.7405   -0.5763 H   0  0  0  0  0  0  0  0  0  0  0  0
    6.1000   -2.1595    0.4419 H   0  0  0  0  0  0  0  0  0  0  0  0
    7.4291    0.5884    0.3449 H   0  0  0  0  0  0  0  0  0  0  0  0
    6.0704    0.1667    1.3647 H   0  0  0  0  0  0  0  0  0  0  0  0
    7.4634   -1.5730    2.5047 H   0  0  0  0  0  0  0  0  0  0  0  0
    8.8228   -1.1529    1.4855 H   0  0  0  0  0  0  0  0  0  0  0  0
    7.4382    0.7565    3.4285 H   0  0  0  0  0  0  0  0  0  0  0  0
    8.8055    1.1694    2.4169 H   0  0  0  0  0  0  0  0  0  0  0  0
   10.1784   -0.5828    3.5664 H   0  0  0  0  0  0  0  0  0  0  0  0
    8.8106   -0.9884    4.5782 H   0  0  0  0  0  0  0  0  0  0  0  0
   10.2139    1.7381    4.5182 H   0  0  0  0  0  0  0  0  0  0  0  0
   10.3500    0.5374    5.7992 H   0  0  0  0  0  0  0  0  0  0  0  0
    8.8155    1.3542    5.5164 H   0  0  0  0  0  0  0  0  0  0  0  0
    2.0813   -4.0984   -8.7269 H   0  0  0  0  0  0  0  0  0  0  0  0
    0.5925   -4.2212   -7.7887 H   0  0  0  0  0  0  0  0  0  0  0  0
    0.1349   -3.4236  -10.0365 H   0  0  0  0  0  0  0  0  0  0  0  0
    2.3118   -2.3945  -10.5171 H   0  0  0  0  0  0  0  0  0  0  0  0
    1.9800   -1.0685   -9.4081 H   0  0  0  0  0  0  0  0  0  0  0  0
    0.2973   -0.4527  -10.8035 H   0  0  0  0  0  0  0  0  0  0  0  0
  1  2  2  0
  2  3  1  0
  2 27  1  0
  3  4  1  0
  3 30  1  0
  3 31  1  0
  4  5  1  0
  4 32  1  0
  4 33  1  0
  5  6  1  0
  5 34  1  0
  5 35  1  0
  6  7  1  0
  6 36  1  0
  6 37  1  0
  7  8  1  0
  7 38  1  0
  7 39  1  0
  8  9  1  0
  8 40  1  0
  8 41  1  0
  9 10  1  0
  9 42  1  0
  9 43  1  0
 10 44  1  0
 10 45  1  0
 10 46  1  0
 11 12  2  0
 12 13  1  0
 12 25  1  0
 13 14  1  0
 13 47  1  0
 13 48  1  0
 14 15  1  0
 14 49  1  0
 14 50  1  0
 15 16  1  0
 15 51  1  0
 15 52  1  0
 16 17  1  0
 16 53  1  0
 16 54  1  0
 17 18  1  0
 17 55  1  0
 17 56  1  0
 18 19  1  0
 18 57  1  0
 18 58  1  0
 19 20  1  0
 19 59  1  0
 19 60  1  0
 20 21  1  0
 20 61  1  0
 20 62  1  0
 21 22  1  0
 21 63  1  0
 21 64  1  0
 22 23  1  0
 22 65  1  0
 22 66  1  0
 23 67  1  0
 23 68  1  0
 23 69  1  0
 24 25  1  0
 24 26  1  0
 24 70  1  0
 24 71  1  0
 26 27  1  0
 26 28  1  0
 26 72  1  6
 28 29  1  0
 28 73  1  0
 28 74  1  0
 29 75  1  0
M  END
