
     RDKit          3D

 24 24  0  0  0  0  0  0  0  0999 V2000
    1.4062    1.0595    1.7853 N   0  0  0  0  0  0  0  0  0  0  0  0
    0.1267    0.3941    1.6798 C   0  0  1  0  0  0  0  0  0  0  0  0
    0.0901   -0.8841    0.8127 C   0  0  0  0  0  0  0  0  0  0  0  0
    0.2331   -0.5590   -0.6313 C   0  0  0  0  0  0  0  0  0  0  0  0
    1.5051   -0.5062   -1.2187 C   0  0  0  0  0  0  0  0  0  0  0  0
    1.6433   -0.2020   -2.5711 C   0  0  0  0  0  0  0  0  0  0  0  0
   -0.9017   -0.3058   -1.4039 C   0  0  0  0  0  0  0  0  0  0  0  0
   -0.7486   -0.0004   -2.7658 C   0  0  0  0  0  0  0  0  0  0  0  0
    0.5217    0.0534   -3.3569 C   0  0  0  0  0  0  0  0  0  0  0  0
   -1.9063    0.2385   -3.4701 O   0  0  0  0  0  0  0  0  0  0  0  0
   -0.3790   -0.0021    3.0574 C   0  0  0  0  0  0  0  0  0  0  0  0
    0.2442   -0.4958    3.9999 O   0  0  0  0  0  0  0  0  0  0  0  0
   -1.7058    0.2354    3.2383 O   0  0  0  0  0  0  0  0  0  0  0  0
    1.4213    1.8615    1.1849 H   0  0  0  0  0  0  0  0  0  0  0  0
    2.1554    0.4411    1.5398 H   0  0  0  0  0  0  0  0  0  0  0  0
   -0.6006    1.1411    1.2364 H   0  0  0  0  0  0  0  0  0  0  0  0
    0.9105   -1.5797    1.1353 H   0  0  0  0  0  0  0  0  0  0  0  0
   -0.8888   -1.4031    0.9956 H   0  0  0  0  0  0  0  0  0  0  0  0
    2.3978   -0.7061   -0.6079 H   0  0  0  0  0  0  0  0  0  0  0  0
    2.6457   -0.1625   -3.0248 H   0  0  0  0  0  0  0  0  0  0  0  0
   -1.9092   -0.3412   -0.9663 H   0  0  0  0  0  0  0  0  0  0  0  0
    0.6290    0.2935   -4.4239 H   0  0  0  0  0  0  0  0  0  0  0  0
   -1.8495   -0.2404   -4.3094 H   0  0  0  0  0  0  0  0  0  0  0  0
   -1.9675   -0.0375    4.1337 H   0  0  0  0  0  0  0  0  0  0  0  0
  1  2  1  0
  1 14  1  0
  1 15  1  0
  2  3  1  0
  2 11  1  0
  2 16  1  6
  3  4  1  0
  3 17  1  0
  3 18  1  0
  4  5  2  0
  4  7  1  0
  5  6  1  0
  5 19  1  0
  6  9  2  0
  6 20  1  0
  7  8  2  0
  7 21  1  0
  8  9  1  0
  8 10  1  0
  9 22  1  0
 10 23  1  0
 11 12  2  0
 11 13  1  0
 13 24  1  0
M  END
