
     RDKit          3D

 26 27  0  0  0  0  0  0  0  0999 V2000
    2.1178   -0.0474    0.1382 C   0  0  0  0  0  0  0  0  0  0  0  0
    1.2052   -0.9219   -0.4270 C   0  0  0  0  0  0  0  0  0  0  0  0
    2.6614   -2.5610   -0.4702 C   0  0  0  0  0  0  0  0  0  0  0  0
    3.4043   -0.5591    0.3897 C   0  0  0  0  0  0  0  0  0  0  0  0
    0.3382    1.0382   -0.0832 C   0  0  0  0  0  0  0  0  0  0  0  0
   -5.0007   -2.6872    1.4310 C   0  0  0  0  0  0  0  0  0  0  0  0
   -4.2910   -2.2745    0.5525 C   0  0  0  0  0  0  0  0  0  0  0  0
   -3.4205   -1.7589   -0.4953 C   0  0  0  0  0  0  0  0  0  0  0  0
   -2.0901   -1.2459    0.0575 C   0  0  0  0  0  0  0  0  0  0  0  0
    3.6386   -1.8363    0.0677 N   0  0  0  0  0  0  0  0  0  0  0  0
    1.4231   -2.1927   -0.7518 N   0  0  0  0  0  0  0  0  0  0  0  0
    1.5500    1.1827    0.3460 N   0  0  0  0  0  0  0  0  0  0  0  0
    0.0512   -0.2040   -0.5763 N   0  0  0  0  0  0  0  0  0  0  0  0
   -0.9281    2.3917   -0.0524 Br  0  0  0  0  0  0  0  0  0  0  0  0
    2.9188   -3.5882   -0.7043 H   0  0  0  0  0  0  0  0  0  0  0  0
    5.2843   -0.2346    1.0957 H   0  0  0  0  0  0  0  0  0  0  0  0
    4.2305    1.1293    1.1907 H   0  0  0  0  0  0  0  0  0  0  0  0
   -5.6307   -3.0553    2.2076 H   0  0  0  0  0  0  0  0  0  0  0  0
   -3.2407   -2.5458   -1.2328 H   0  0  0  0  0  0  0  0  0  0  0  0
   -3.9397   -0.9547   -1.0239 H   0  0  0  0  0  0  0  0  0  0  0  0
   -2.2767   -0.4538    0.7854 H   0  0  0  0  0  0  0  0  0  0  0  0
   -1.5730   -2.0511    0.5832 H   0  0  0  0  0  0  0  0  0  0  0  0
   -0.9723   -1.5234   -1.7720 H   0  0  0  0  0  0  0  0  0  0  0  0
   -1.7140    0.0572   -1.6379 H   0  0  0  0  0  0  0  0  0  0  0  0
    4.3795    0.1707    0.9290 N   0  0  0  0  0  0  0  0  0  0  0  0
   -1.2089   -0.7247   -1.0693 C   0  0  0  0  0  0  0  0  0  0  0  0
 25  4  1  0
  4 10  1  0
  4  1  2  0
 10  3  2  0
 12  1  1  0
 12  5  2  0
  1  2  1  0
  3 11  1  0
  5 14  1  0
  5 13  1  0
  2 11  2  0
  2 13  1  0
  9  8  1  0
  9 26  1  0
 13 26  1  0
  8  7  1  0
  7  6  3  0
  3 15  1  0
 25 16  1  0
 25 17  1  0
  6 18  1  0
  8 19  1  0
  8 20  1  0
  9 21  1  0
  9 22  1  0
 26 23  1  0
 26 24  1  0
M  END
