
     RDKit          3D

 38 40  0  0  0  0  0  0  0  0999 V2000
    2.7768   -0.3227   -0.0687 C   0  0  0  0  0  0  0  0  0  0  0  0
    1.5161   -0.9259    0.3009 C   0  0  0  0  0  0  0  0  0  0  0  0
    4.9444   -0.0012   -0.7751 N   0  0  0  0  0  0  0  0  0  0  0  0
    3.9366   -0.8903   -0.5255 C   0  0  0  0  0  0  0  0  0  0  0  0
    0.4974   -0.4494    1.1047 C   0  0  0  0  0  0  0  0  0  0  0  0
   -0.4753   -1.4637    1.1009 C   0  0  0  0  0  0  0  0  0  0  0  0
   -1.8103   -1.4541    1.7751 C   0  0  0  0  0  0  0  0  0  0  0  0
   -4.7117    0.6974   -0.5939 C   0  0  0  0  0  0  0  0  0  0  0  0
   -3.1882    0.6042    1.2673 C   0  0  0  0  0  0  0  0  0  0  0  0
   -3.4494   -1.3029   -0.1359 C   0  0  0  0  0  0  0  0  0  0  0  0
   -4.3721   -0.6216   -0.9064 C   0  0  0  0  0  0  0  0  0  0  0  0
   -4.1130    1.3099    0.5025 C   0  0  0  0  0  0  0  0  0  0  0  0
   -5.9849    2.6257   -1.1296 C   0  0  0  0  0  0  0  0  0  0  0  0
    2.9814    1.3886    0.0408 S   0  0  0  0  0  0  0  0  0  0  0  0
    1.1071   -2.1437   -0.1160 N   0  0  0  0  0  0  0  0  0  0  0  0
   -0.0876   -2.4839    0.3561 N   0  0  0  0  0  0  0  0  0  0  0  0
    4.6036    1.2219   -0.5239 C   0  0  0  0  0  0  0  0  0  0  0  0
   -2.8398   -0.7038    0.9670 C   0  0  0  0  0  0  0  0  0  0  0  0
    4.1776   -2.3461   -0.7564 C   0  0  0  0  0  0  0  0  0  0  0  0
    0.4684    0.4897    1.6344 H   0  0  0  0  0  0  0  0  0  0  0  0
   -2.1379   -2.4843    1.9292 H   0  0  0  0  0  0  0  0  0  0  0  0
   -1.7139   -1.0009    2.7632 H   0  0  0  0  0  0  0  0  0  0  0  0
   -2.7350    1.1000    2.1182 H   0  0  0  0  0  0  0  0  0  0  0  0
   -3.1974   -2.3244   -0.3966 H   0  0  0  0  0  0  0  0  0  0  0  0
   -4.8385   -1.1052   -1.7561 H   0  0  0  0  0  0  0  0  0  0  0  0
   -4.3506    2.3275    0.7813 H   0  0  0  0  0  0  0  0  0  0  0  0
    5.0342    3.1775   -1.2854 H   0  0  0  0  0  0  0  0  0  0  0  0
    5.7311    2.8427    0.2943 H   0  0  0  0  0  0  0  0  0  0  0  0
    6.4262    2.0951   -1.1492 H   0  0  0  0  0  0  0  0  0  0  0  0
   -5.1299    3.3044   -1.1891 H   0  0  0  0  0  0  0  0  0  0  0  0
   -6.7091    2.9079   -1.8900 H   0  0  0  0  0  0  0  0  0  0  0  0
   -6.4505    2.7327   -0.1462 H   0  0  0  0  0  0  0  0  0  0  0  0
    1.5792   -2.7671   -0.7504 H   0  0  0  0  0  0  0  0  0  0  0  0
    5.2458   -2.5410   -0.8245 H   0  0  0  0  0  0  0  0  0  0  0  0
    3.7766   -2.9581    0.0522 H   0  0  0  0  0  0  0  0  0  0  0  0
    3.7260   -2.6876   -1.6908 H   0  0  0  0  0  0  0  0  0  0  0  0
    5.4965    2.4018   -0.6754 C   0  0  0  0  0  0  0  0  0  0  0  0
   -5.6176    1.2884   -1.3991 O   0  0  0  0  0  0  0  0  0  0  0  0
 19  4  1  0
  4  3  1  0
  4  1  2  0
 15 16  1  0
 15  2  1  0
  3 17  2  0
 16  6  2  0
  1  2  1  0
  1 14  1  0
  2  5  2  0
 17 37  1  0
 17 14  1  0
  6  5  1  0
  6  7  1  0
  7 18  1  0
 18 10  2  0
 18  9  1  0
 10 11  1  0
  9 12  2  0
 11  8  2  0
 12  8  1  0
  8 38  1  0
 38 13  1  0
  5 20  1  0
  7 21  1  0
  7 22  1  0
  9 23  1  0
 10 24  1  0
 11 25  1  0
 12 26  1  0
 37 27  1  0
 37 28  1  0
 37 29  1  0
 13 30  1  0
 13 31  1  0
 13 32  1  0
 15 33  1  0
 19 34  1  0
 19 35  1  0
 19 36  1  0
M  END
