
     RDKit          3D

 81 85  0  0  0  0  0  0  0  0999 V2000
    3.3989    1.8627    1.3094 O   0  0  0  0  0  0  0  0  0  0  0  0
    3.7307    1.8512    0.1329 C   0  0  0  0  0  0  0  0  0  0  0  0
    2.7992    2.3775   -0.9173 C   0  0  0  0  0  0  0  0  0  0  0  0
    1.8975    3.3763   -0.5708 C   0  0  0  0  0  0  0  0  0  0  0  0
    1.0049    3.8296   -1.5282 C   0  0  0  0  0  0  0  0  0  0  0  0
    0.9454    3.3435   -2.7631 N   0  0  0  0  0  0  0  0  0  0  0  0
    1.7959    2.3782   -3.0844 C   0  0  0  0  0  0  0  0  0  0  0  0
    2.7419    1.8664   -2.2079 C   0  0  0  0  0  0  0  0  0  0  0  0
    4.9107    1.3846   -0.3055 N   0  0  0  0  0  0  0  0  0  0  0  0
    5.8487    0.6900    0.5444 C   0  0  2  0  0  0  0  0  0  0  0  0
    7.2639    1.0812    0.1110 C   0  0  0  0  0  0  0  0  0  0  0  0
    8.2706    0.1596    0.5833 N   0  0  0  0  0  0  0  0  0  0  0  0
    8.2469   -0.1446    2.0058 C   0  0  0  0  0  0  0  0  0  0  0  0
    7.4880   -1.4395    2.2679 C   0  0  0  0  0  0  0  0  0  0  0  0
    5.9964   -1.4167    1.9500 C   0  0  0  0  0  0  0  0  0  0  0  0
    5.6187   -0.8532    0.5775 C   0  0  1  0  0  0  0  0  0  0  0  0
    4.2329   -1.1758    0.3152 N   0  0  0  0  0  0  0  0  0  0  0  0
    3.7407   -1.3286   -0.9236 C   0  0  0  0  0  0  0  0  0  0  0  0
    4.4484   -1.3645   -1.9232 O   0  0  0  0  0  0  0  0  0  0  0  0
    2.2533   -1.4479   -1.0432 C   0  0  0  0  0  0  0  0  0  0  0  0
    1.7356   -2.0801   -2.1719 C   0  0  0  0  0  0  0  0  0  0  0  0
    0.3695   -2.1676   -2.3614 C   0  0  0  0  0  0  0  0  0  0  0  0
    1.3770   -0.8889   -0.1170 C   0  0  0  0  0  0  0  0  0  0  0  0
    0.0079   -0.9910   -0.2982 C   0  0  0  0  0  0  0  0  0  0  0  0
   -0.5073   -1.6333   -1.4190 C   0  0  0  0  0  0  0  0  0  0  0  0
   -1.9726   -1.6887   -1.6654 C   0  0  0  0  0  0  0  0  0  0  0  0
   -2.4059   -1.7291   -2.7985 O   0  0  0  0  0  0  0  0  0  0  0  0
   -2.8986   -1.6320   -0.5019 C   0  0  0  0  0  0  0  0  0  0  0  0
   -2.7502   -2.4856    0.5969 C   0  0  0  0  0  0  0  0  0  0  0  0
   -1.7539   -3.3926    0.5721 O   0  0  0  0  0  0  0  0  0  0  0  0
   -3.6564   -2.3873    1.6423 C   0  0  0  0  0  0  0  0  0  0  0  0
   -4.6999   -1.4742    1.5959 C   0  0  0  0  0  0  0  0  0  0  0  0
   -4.8741   -0.6193    0.5043 C   0  0  0  0  0  0  0  0  0  0  0  0
   -3.9551   -0.7303   -0.5411 C   0  0  0  0  0  0  0  0  0  0  0  0
   -5.8972    0.3378    0.4374 N   0  0  0  0  0  0  0  0  0  0  0  0
   -6.6318    0.5876    1.6639 C   0  0  0  0  0  0  0  0  0  0  0  0
   -7.4683    1.8528    1.5481 C   0  0  0  0  0  0  0  0  0  0  0  0
   -8.4314    1.8384    0.3566 C   0  0  1  0  0  0  0  0  0  0  0  0
   -9.5461    0.8116    0.5646 C   0  0  0  0  0  0  0  0  0  0  0  0
   -9.0578    3.2209    0.1901 C   0  0  0  0  0  0  0  0  0  0  0  0
   -7.6077    1.5002   -0.8910 C   0  0  0  0  0  0  0  0  0  0  0  0
   -6.7700    0.2428   -0.7303 C   0  0  0  0  0  0  0  0  0  0  0  0
    1.8879    3.8016    0.4231 H   0  0  0  0  0  0  0  0  0  0  0  0
    0.3026    4.6182   -1.2828 H   0  0  0  0  0  0  0  0  0  0  0  0
    1.7261    1.9820   -4.0909 H   0  0  0  0  0  0  0  0  0  0  0  0
    3.3839    1.0635   -2.5456 H   0  0  0  0  0  0  0  0  0  0  0  0
    5.1123    1.4230   -1.2926 H   0  0  0  0  0  0  0  0  0  0  0  0
    5.6741    1.0609    1.5563 H   0  0  0  0  0  0  0  0  0  0  0  0
    7.4290    2.1179    0.4397 H   0  0  0  0  0  0  0  0  0  0  0  0
    7.3124    1.0864   -0.9832 H   0  0  0  0  0  0  0  0  0  0  0  0
    9.1789    0.5058    0.3122 H   0  0  0  0  0  0  0  0  0  0  0  0
    7.8392    0.6779    2.6122 H   0  0  0  0  0  0  0  0  0  0  0  0
    9.2760   -0.2824    2.3418 H   0  0  0  0  0  0  0  0  0  0  0  0
    7.6061   -1.7202    3.3178 H   0  0  0  0  0  0  0  0  0  0  0  0
    7.9675   -2.2262    1.6795 H   0  0  0  0  0  0  0  0  0  0  0  0
    5.4662   -0.8377    2.7149 H   0  0  0  0  0  0  0  0  0  0  0  0
    5.6210   -2.4403    2.0223 H   0  0  0  0  0  0  0  0  0  0  0  0
    6.2213   -1.3238   -0.2007 H   0  0  0  0  0  0  0  0  0  0  0  0
    3.6037   -1.1938    1.1022 H   0  0  0  0  0  0  0  0  0  0  0  0
    2.4055   -2.5058   -2.9067 H   0  0  0  0  0  0  0  0  0  0  0  0
   -0.0168   -2.6637   -3.2419 H   0  0  0  0  0  0  0  0  0  0  0  0
    1.7395   -0.3416    0.7434 H   0  0  0  0  0  0  0  0  0  0  0  0
   -0.6538   -0.5375    0.4286 H   0  0  0  0  0  0  0  0  0  0  0  0
   -1.7422   -3.8985    1.3924 H   0  0  0  0  0  0  0  0  0  0  0  0
   -3.5680   -3.0453    2.4996 H   0  0  0  0  0  0  0  0  0  0  0  0
   -5.3853   -1.4536    2.4318 H   0  0  0  0  0  0  0  0  0  0  0  0
   -4.0333   -0.0685   -1.3949 H   0  0  0  0  0  0  0  0  0  0  0  0
   -5.9169    0.7159    2.4791 H   0  0  0  0  0  0  0  0  0  0  0  0
   -7.2717   -0.2650    1.9420 H   0  0  0  0  0  0  0  0  0  0  0  0
   -6.7923    2.7079    1.4461 H   0  0  0  0  0  0  0  0  0  0  0  0
   -8.0211    1.9928    2.4814 H   0  0  0  0  0  0  0  0  0  0  0  0
  -10.2295    0.8111   -0.2872 H   0  0  0  0  0  0  0  0  0  0  0  0
   -9.1694   -0.2054    0.6794 H   0  0  0  0  0  0  0  0  0  0  0  0
  -10.1292    1.0449    1.4581 H   0  0  0  0  0  0  0  0  0  0  0  0
   -9.6364    3.5032    1.0726 H   0  0  0  0  0  0  0  0  0  0  0  0
   -8.2920    3.9850    0.0362 H   0  0  0  0  0  0  0  0  0  0  0  0
   -9.7310    3.2470   -0.6700 H   0  0  0  0  0  0  0  0  0  0  0  0
   -8.2653    1.3819   -1.7576 H   0  0  0  0  0  0  0  0  0  0  0  0
   -6.9372    2.3371   -1.1122 H   0  0  0  0  0  0  0  0  0  0  0  0
   -6.1640    0.1109   -1.6261 H   0  0  0  0  0  0  0  0  0  0  0  0
   -7.4161   -0.6453   -0.6590 H   0  0  0  0  0  0  0  0  0  0  0  0
  1  2  2  0
  2  3  1  0
  2  9  1  0
  3  4  2  0
  3  8  1  0
  4  5  1  0
  4 43  1  0
  5  6  2  0
  5 44  1  0
  6  7  1  0
  7  8  2  0
  7 45  1  0
  8 46  1  0
  9 10  1  0
  9 47  1  0
 10 11  1  0
 10 16  1  0
 10 48  1  1
 11 12  1  0
 11 49  1  0
 11 50  1  0
 12 13  1  0
 12 51  1  0
 13 14  1  0
 13 52  1  0
 13 53  1  0
 14 15  1  0
 14 54  1  0
 14 55  1  0
 15 16  1  0
 15 56  1  0
 15 57  1  0
 16 17  1  0
 16 58  1  6
 17 18  1  0
 17 59  1  0
 18 19  2  0
 18 20  1  0
 20 21  2  0
 20 23  1  0
 21 22  1  0
 21 60  1  0
 22 25  2  0
 22 61  1  0
 23 24  2  0
 23 62  1  0
 24 25  1  0
 24 63  1  0
 25 26  1  0
 26 27  2  0
 26 28  1  0
 28 29  2  0
 28 34  1  0
 29 30  1  0
 29 31  1  0
 30 64  1  0
 31 32  2  0
 31 65  1  0
 32 33  1  0
 32 66  1  0
 33 34  2  0
 33 35  1  0
 34 67  1  0
 35 36  1  0
 35 42  1  0
 36 37  1  0
 36 68  1  0
 36 69  1  0
 37 38  1  0
 37 70  1  0
 37 71  1  0
 38 39  1  1
 38 40  1  0
 38 41  1  0
 39 72  1  0
 39 73  1  0
 39 74  1  0
 40 75  1  0
 40 76  1  0
 40 77  1  0
 41 42  1  0
 41 78  1  0
 41 79  1  0
 42 80  1  0
 42 81  1  0
M  END
