
     RDKit          3D

 25 25  0  0  0  0  0  0  0  0999 V2000
    4.0387   -0.4671    0.5078 O   0  0  0  0  0  0  0  0  0  0  0  0
    3.1768    0.2072   -0.0603 C   0  0  0  0  0  0  0  0  0  0  0  0
    1.6875   -1.5173   -0.9262 N   0  0  0  0  0  0  0  0  0  0  0  0
    3.5195    1.4685   -0.4398 O   0  0  0  0  0  0  0  0  0  0  0  0
    1.7471   -0.1658   -0.4125 C   0  0  1  0  0  0  0  0  0  0  0  0
    0.8899    0.1250    0.8395 C   0  0  0  0  0  0  0  0  0  0  0  0
   -0.5586    0.1222    0.5122 C   0  0  0  0  0  0  0  0  0  0  0  0
   -3.3150    0.1196   -0.1115 C   0  0  0  0  0  0  0  0  0  0  0  0
   -4.6765    0.1191   -0.4198 N   0  0  0  0  0  0  0  0  0  0  0  0
   -1.1871    1.2881    0.0614 C   0  0  0  0  0  0  0  0  0  0  0  0
   -1.3182   -1.0448    0.6488 C   0  0  0  0  0  0  0  0  0  0  0  0
   -2.5404    1.2971   -0.2475 C   0  0  0  0  0  0  0  0  0  0  0  0
   -2.6736   -1.0564    0.3448 C   0  0  0  0  0  0  0  0  0  0  0  0
    1.4096   -2.1609   -0.2102 H   0  0  0  0  0  0  0  0  0  0  0  0
    1.0334   -1.5587   -1.6854 H   0  0  0  0  0  0  0  0  0  0  0  0
    4.4413    1.6459   -0.1877 H   0  0  0  0  0  0  0  0  0  0  0  0
    1.3970    0.5193   -1.2443 H   0  0  0  0  0  0  0  0  0  0  0  0
    1.1115   -0.6401    1.6298 H   0  0  0  0  0  0  0  0  0  0  0  0
    1.1916    1.1284    1.2435 H   0  0  0  0  0  0  0  0  0  0  0  0
   -5.2165   -0.7096   -0.3112 H   0  0  0  0  0  0  0  0  0  0  0  0
   -5.1174    0.9475   -0.7504 H   0  0  0  0  0  0  0  0  0  0  0  0
   -0.6005    2.2130   -0.0503 H   0  0  0  0  0  0  0  0  0  0  0  0
   -0.8374   -1.9700    1.0024 H   0  0  0  0  0  0  0  0  0  0  0  0
   -3.0084    2.2282   -0.5998 H   0  0  0  0  0  0  0  0  0  0  0  0
   -3.2462   -1.9883    0.4616 H   0  0  0  0  0  0  0  0  0  0  0  0
  1  2  2  0
  5  2  1  0
  2  4  1  0
  3  5  1  0
  3 14  1  0
  3 15  1  0
  4 16  1  0
  5  6  1  0
  5 17  1  6
  6  7  1  0
  6 18  1  0
  6 19  1  0
 10  7  2  0
  7 11  1  0
 12  8  2  0
  8 13  1  0
  8  9  1  0
  9 20  1  0
  9 21  1  0
 10 12  1  0
 10 22  1  0
 11 13  2  0
 11 23  1  0
 12 24  1  0
 13 25  1  0
M  END
