
     RDKit          3D

 45 44  0  0  0  0  0  0  0  0999 V2000
   -2.7376   -2.8669    0.8053 O   0  0  0  0  0  0  0  0  0  0  0  0
   -0.9242   -1.0755    1.7868 O   0  0  0  0  0  0  0  0  0  0  0  0
   -2.7960   -1.0619   -0.8712 C   0  0  1  0  0  0  0  0  0  0  0  0
   -3.4692   -0.1178    0.1237 C   0  0  0  0  0  0  0  0  0  0  0  0
   -5.1577    1.8826    0.1820 P   0  0  1  0  0  0  0  0  0  0  0  0
   -5.7717    2.6097   -1.0966 O   0  0  0  0  0  0  0  0  0  0  0  0
   -6.0999    1.3525    1.1852 O   0  0  0  0  0  0  0  0  0  0  0  0
   -4.2685    0.8227   -0.6075 O   0  0  0  0  0  0  0  0  0  0  0  0
   -3.8520   -1.8119   -1.6893 C   0  0  0  0  0  0  0  0  0  0  0  0
   -1.8875   -0.2762   -1.8186 C   0  0  0  0  0  0  0  0  0  0  0  0
   -1.9632   -2.1236   -0.0972 C   0  0  1  0  0  0  0  0  0  0  0  0
   -0.7747   -1.5266    0.6562 C   0  0  0  0  0  0  0  0  0  0  0  0
    0.3994   -1.5423    0.0236 N   0  0  0  0  0  0  0  0  0  0  0  0
    1.6077   -0.9902    0.6030 C   0  0  0  0  0  0  0  0  0  0  0  0
    2.7257   -1.0174   -0.4253 C   0  0  0  0  0  0  0  0  0  0  0  0
    4.0065   -0.4265    0.1252 C   0  0  0  0  0  0  0  0  0  0  0  0
    4.0047    0.4607    0.9664 O   0  0  0  0  0  0  0  0  0  0  0  0
    5.1353   -0.9425   -0.3893 N   0  0  0  0  0  0  0  0  0  0  0  0
    6.4507   -0.4491   -0.0598 C   0  0  0  0  0  0  0  0  0  0  0  0
    6.8330    0.7594   -0.9075 C   0  0  0  0  0  0  0  0  0  0  0  0
    8.4940    1.3162   -0.3995 S   0  0  0  0  0  0  0  0  0  0  0  0
   -2.7238   -2.4096    1.6557 H   0  0  0  0  0  0  0  0  0  0  0  0
   -4.1107   -0.6772    0.8099 H   0  0  0  0  0  0  0  0  0  0  0  0
   -2.7253    0.4255    0.7111 H   0  0  0  0  0  0  0  0  0  0  0  0
   -6.5139    3.1955   -0.8964 H   0  0  0  0  0  0  0  0  0  0  0  0
   -4.4566   -1.1231   -2.2779 H   0  0  0  0  0  0  0  0  0  0  0  0
   -3.3717   -2.5007   -2.3874 H   0  0  0  0  0  0  0  0  0  0  0  0
   -4.5223   -2.3898   -1.0534 H   0  0  0  0  0  0  0  0  0  0  0  0
   -2.4760    0.3532   -2.4852 H   0  0  0  0  0  0  0  0  0  0  0  0
   -1.1894    0.3734   -1.2884 H   0  0  0  0  0  0  0  0  0  0  0  0
   -1.3048   -0.9511   -2.4483 H   0  0  0  0  0  0  0  0  0  0  0  0
   -1.5870   -2.8251   -0.8500 H   0  0  0  0  0  0  0  0  0  0  0  0
    0.4620   -2.0032   -0.8704 H   0  0  0  0  0  0  0  0  0  0  0  0
    1.4201    0.0335    0.9265 H   0  0  0  0  0  0  0  0  0  0  0  0
    1.8960   -1.5637    1.4878 H   0  0  0  0  0  0  0  0  0  0  0  0
    2.8969   -2.0384   -0.7751 H   0  0  0  0  0  0  0  0  0  0  0  0
    2.4362   -0.4299   -1.3029 H   0  0  0  0  0  0  0  0  0  0  0  0
    5.0669   -1.6522   -1.1002 H   0  0  0  0  0  0  0  0  0  0  0  0
    6.4851   -0.1939    1.0000 H   0  0  0  0  0  0  0  0  0  0  0  0
    7.1624   -1.2584   -0.2216 H   0  0  0  0  0  0  0  0  0  0  0  0
    6.8460    0.4879   -1.9625 H   0  0  0  0  0  0  0  0  0  0  0  0
    6.1146    1.5653   -0.7624 H   0  0  0  0  0  0  0  0  0  0  0  0
    8.6484    2.2644   -1.3286 H   0  0  0  0  0  0  0  0  0  0  0  0
   -4.1482    2.9032    0.8878 O   0  0  0  0  0  0  0  0  0  0  0  0
   -3.5271    3.3558    0.3017 H   0  0  0  0  0  0  0  0  0  0  0  0
  1 11  1  0
 11 12  1  0
 11  3  1  0
  2 12  2  0
  3 10  1  6
 12 13  1  0
  4  3  1  0
  4  8  1  0
 13 14  1  0
  3  9  1  0
 14 15  1  0
  7  5  2  0
  5  6  1  6
 15 16  1  0
  5  8  1  0
 17 16  2  0
 16 18  1  0
 18 19  1  0
 21 20  1  0
 19 20  1  0
  1 22  1  0
  4 23  1  0
  4 24  1  0
  6 25  1  0
  9 26  1  0
  9 27  1  0
  9 28  1  0
 10 29  1  0
 10 30  1  0
 10 31  1  0
 11 32  1  6
 13 33  1  0
 14 34  1  0
 14 35  1  0
 15 36  1  0
 15 37  1  0
 18 38  1  0
 19 39  1  0
 19 40  1  0
 20 41  1  0
 20 42  1  0
 21 43  1  0
  5 44  1  0
 44 45  1  0
M  END
