
     RDKit          3D

 18 19  0  0  0  0  0  0  0  0999 V2000
    0.2699    0.0219   -2.1754 C   0  0  0  0  0  0  0  0  0  0  0  0
    1.1358   -0.0195   -1.0909 C   0  0  0  0  0  0  0  0  0  0  0  0
    0.5870   -0.0431    0.1868 C   0  0  0  0  0  0  0  0  0  0  0  0
   -0.8088   -0.0204    0.3450 C   0  0  0  0  0  0  0  0  0  0  0  0
   -1.6770    0.0290   -0.7291 C   0  0  0  0  0  0  0  0  0  0  0  0
   -1.1154    0.0532   -1.9997 C   0  0  0  0  0  0  0  0  0  0  0  0
    1.2087   -0.0792    1.4125 N   0  0  0  0  0  0  0  0  0  0  0  0
    0.2329   -0.0864    2.2844 C   0  0  0  0  0  0  0  0  0  0  0  0
   -1.0006   -0.0443    1.7104 N   0  0  0  0  0  0  0  0  0  0  0  0
    0.3934   -0.1805    3.6282 N   0  0  0  0  0  0  0  0  0  0  0  0
    0.7835    0.0028   -3.4478 O   0  0  0  0  0  0  0  0  0  0  0  0
    2.2079   -0.0386   -1.2401 H   0  0  0  0  0  0  0  0  0  0  0  0
   -2.7505    0.0474   -0.5975 H   0  0  0  0  0  0  0  0  0  0  0  0
   -1.7592    0.0811   -2.8688 H   0  0  0  0  0  0  0  0  0  0  0  0
   -1.8824   -0.1267    2.1849 H   0  0  0  0  0  0  0  0  0  0  0  0
    1.3253    0.0111    3.9529 H   0  0  0  0  0  0  0  0  0  0  0  0
   -0.3143    0.2223    4.2173 H   0  0  0  0  0  0  0  0  0  0  0  0
    0.8204    0.9035   -3.7813 H   0  0  0  0  0  0  0  0  0  0  0  0
  1  2  2  0
  1  6  1  0
  1 11  1  0
  2  3  1  0
  2 12  1  0
  3  4  2  0
  3  7  1  0
  4  5  1  0
  4  9  1  0
  5  6  2  0
  5 13  1  0
  6 14  1  0
  7  8  2  0
  8  9  1  0
  8 10  1  0
  9 15  1  0
 10 16  1  0
 10 17  1  0
 11 18  1  0
M  END
