
     RDKit          3D

 93 99  0  0  0  0  0  0  0  0999 V2000
    2.3402    5.7717    1.9288 C   0  0  0  0  0  0  0  0  0  0  0  0
    1.5968   -3.7016    0.4170 C   0  0  0  0  0  0  0  0  0  0  0  0
  -10.1709   -0.0178   -2.2290 O   0  0  0  0  0  0  0  0  0  0  0  0
    6.0129    0.5477   -2.5097 O   0  0  0  0  0  0  0  0  0  0  0  0
   -2.6112    0.6597    1.9898 O   0  0  0  0  0  0  0  0  0  0  0  0
   -4.0552    2.1052    0.5595 O   0  0  0  0  0  0  0  0  0  0  0  0
   10.6399    1.2930    1.0450 C   0  0  0  0  0  0  0  0  0  0  0  0
   10.9901    0.0028    0.6724 C   0  0  0  0  0  0  0  0  0  0  0  0
    9.6320    1.9584    0.3567 C   0  0  0  0  0  0  0  0  0  0  0  0
   10.3331   -0.6181   -0.3830 C   0  0  0  0  0  0  0  0  0  0  0  0
    8.9781    1.3355   -0.6966 C   0  0  0  0  0  0  0  0  0  0  0  0
    1.7638   -0.6098   -2.6548 C   0  0  0  0  0  0  0  0  0  0  0  0
    2.1116    0.7215   -0.6984 C   0  0  0  0  0  0  0  0  0  0  0  0
   -9.6401   -3.0068   -0.2128 C   0  0  0  0  0  0  0  0  0  0  0  0
    3.0595   -1.0982   -2.5610 C   0  0  0  0  0  0  0  0  0  0  0  0
    3.4075    0.2428   -0.5918 C   0  0  0  0  0  0  0  0  0  0  0  0
   -0.5521    4.7519   -0.0200 C   0  0  0  0  0  0  0  0  0  0  0  0
    0.4028    3.7393    1.9566 C   0  0  0  0  0  0  0  0  0  0  0  0
   -5.3073   -3.2352    0.5902 C   0  0  0  0  0  0  0  0  0  0  0  0
   -1.5147    3.7697   -0.0650 C   0  0  0  0  0  0  0  0  0  0  0  0
   -0.5732    2.7543    1.9095 C   0  0  0  0  0  0  0  0  0  0  0  0
   -8.3602   -3.3975    0.2215 C   0  0  0  0  0  0  0  0  0  0  0  0
   -3.9402   -3.1115    0.7065 C   0  0  0  0  0  0  0  0  0  0  0  0
    0.3861   -1.0741    2.5423 C   0  0  0  0  0  0  0  0  0  0  0  0
    2.2614   -1.8134    1.8861 C   0  0  0  0  0  0  0  0  0  0  0  0
   -5.3530   -1.2770   -0.7705 C   0  0  0  0  0  0  0  0  0  0  0  0
    8.5919   -0.6521   -2.2011 C   0  0  0  0  0  0  0  0  0  0  0  0
   -0.1534    0.7830   -1.7823 C   0  0  0  0  0  0  0  0  0  0  0  0
   -3.3737    0.0829   -1.3444 C   0  0  0  0  0  0  0  0  0  0  0  0
   -1.0756   -1.3590   -0.7996 C   0  0  0  0  0  0  0  0  0  0  0  0
    1.7310   -0.8911    2.6478 N   0  0  0  0  0  0  0  0  0  0  0  0
    7.3087   -1.1833   -1.7908 N   0  0  0  0  0  0  0  0  0  0  0  0
    1.3200    5.7297    0.9457 O   0  0  0  0  0  0  0  0  0  0  0  0
   -8.1562   -1.5318   -0.9642 O   0  0  0  0  0  0  0  0  0  0  0  0
    6.1597   -0.5142   -1.9481 C   0  0  0  0  0  0  0  0  0  0  0  0
    9.3223    0.0395   -1.0767 C   0  0  0  0  0  0  0  0  0  0  0  0
    1.2706    0.3032   -1.7275 C   0  0  0  0  0  0  0  0  0  0  0  0
   -9.4722   -1.8584   -0.9360 C   0  0  0  0  0  0  0  0  0  0  0  0
    0.4205    4.7436    0.9897 C   0  0  0  0  0  0  0  0  0  0  0  0
    3.8697   -0.6706   -1.5243 C   0  0  0  0  0  0  0  0  0  0  0  0
   -6.0489   -2.3214   -0.1575 C   0  0  0  0  0  0  0  0  0  0  0  0
   -1.5215    2.7645    0.9013 C   0  0  0  0  0  0  0  0  0  0  0  0
   -3.9813   -1.1297   -0.6707 C   0  0  0  0  0  0  0  0  0  0  0  0
    0.1013   -2.1196    1.7050 C   0  0  0  0  0  0  0  0  0  0  0  0
   -7.4842   -2.4574   -0.2676 C   0  0  0  0  0  0  0  0  0  0  0  0
   -3.2332   -2.0644    0.0872 C   0  0  0  0  0  0  0  0  0  0  0  0
   -0.9814    0.1552   -0.6566 C   0  0  2  0  0  0  0  0  0  0  0  0
   -1.8742   -1.9633    0.2376 N   0  0  0  0  0  0  0  0  0  0  0  0
   -2.3196    0.7428   -0.5920 N   0  0  0  0  0  0  0  0  0  0  0  0
    1.3278   -2.5859    1.2951 N   0  0  0  0  0  0  0  0  0  0  0  0
   -2.7510    1.5068    0.8119 S   0  0  1  0  0  0  0  0  0  0  0  0
    1.9292    5.8931    2.9334 H   0  0  0  0  0  0  0  0  0  0  0  0
    2.9629    4.8748    1.9037 H   0  0  0  0  0  0  0  0  0  0  0  0
    2.9561    6.6355    1.6938 H   0  0  0  0  0  0  0  0  0  0  0  0
    1.1135   -4.6064    0.7799 H   0  0  0  0  0  0  0  0  0  0  0  0
    1.2539   -3.5027   -0.5972 H   0  0  0  0  0  0  0  0  0  0  0  0
    2.6693   -3.8718    0.3861 H   0  0  0  0  0  0  0  0  0  0  0  0
  -11.4648   -1.4031   -1.5084 H   0  0  0  0  0  0  0  0  0  0  0  0
   11.7753   -0.5224    1.2008 H   0  0  0  0  0  0  0  0  0  0  0  0
    9.3585    2.9672    0.6381 H   0  0  0  0  0  0  0  0  0  0  0  0
   10.6114   -1.6256   -0.6699 H   0  0  0  0  0  0  0  0  0  0  0  0
    8.1982    1.8644   -1.2309 H   0  0  0  0  0  0  0  0  0  0  0  0
    1.1273   -0.9528   -3.4619 H   0  0  0  0  0  0  0  0  0  0  0  0
    1.7497    1.4277    0.0403 H   0  0  0  0  0  0  0  0  0  0  0  0
  -10.5781   -3.5044   -0.0223 H   0  0  0  0  0  0  0  0  0  0  0  0
    3.4308   -1.8121   -3.2854 H   0  0  0  0  0  0  0  0  0  0  0  0
    4.0462    0.5707    0.2185 H   0  0  0  0  0  0  0  0  0  0  0  0
   -0.5365    5.5344   -0.7674 H   0  0  0  0  0  0  0  0  0  0  0  0
    1.1340    3.6997    2.7515 H   0  0  0  0  0  0  0  0  0  0  0  0
   -5.7948   -4.0673    1.0821 H   0  0  0  0  0  0  0  0  0  0  0  0
   -2.2496    3.7832   -0.8592 H   0  0  0  0  0  0  0  0  0  0  0  0
   -0.5727    1.9812    2.6651 H   0  0  0  0  0  0  0  0  0  0  0  0
   -8.1129   -4.2619    0.8155 H   0  0  0  0  0  0  0  0  0  0  0  0
   -3.4100   -3.8654    1.2706 H   0  0  0  0  0  0  0  0  0  0  0  0
   -0.3233   -0.4580    3.0733 H   0  0  0  0  0  0  0  0  0  0  0  0
    3.3168   -1.9784    1.7280 H   0  0  0  0  0  0  0  0  0  0  0  0
   -5.8972   -0.5281   -1.3335 H   0  0  0  0  0  0  0  0  0  0  0  0
    9.1893   -1.4813   -2.5801 H   0  0  0  0  0  0  0  0  0  0  0  0
    8.4332    0.0322   -3.0332 H   0  0  0  0  0  0  0  0  0  0  0  0
   -0.1920    1.8696   -1.6777 H   0  0  0  0  0  0  0  0  0  0  0  0
   -0.5957    0.5399   -2.7522 H   0  0  0  0  0  0  0  0  0  0  0  0
   -2.9524   -0.1676   -2.3197 H   0  0  0  0  0  0  0  0  0  0  0  0
   -4.1629    0.8027   -1.5547 H   0  0  0  0  0  0  0  0  0  0  0  0
   -1.4591   -1.6364   -1.7859 H   0  0  0  0  0  0  0  0  0  0  0  0
   -0.0661   -1.7623   -0.7677 H   0  0  0  0  0  0  0  0  0  0  0  0
    7.3030   -2.0342   -1.2501 H   0  0  0  0  0  0  0  0  0  0  0  0
   -0.4707    0.3545    0.2888 H   0  0  0  0  0  0  0  0  0  0  0  0
   -1.2086   -2.7049    1.3016 C   0  0  0  0  0  0  0  0  0  0  0  0
  -10.4325   -1.0292   -1.6081 C   0  0  0  0  0  0  0  0  0  0  0  0
    5.1344   -1.2062   -1.3939 O   0  0  0  0  0  0  0  0  0  0  0  0
   11.1514    1.7812    1.8644 H   0  0  0  0  0  0  0  0  0  0  0  0
   -1.0810   -3.7616    1.0351 H   0  0  0  0  0  0  0  0  0  0  0  0
   -1.8542   -2.6842    2.1803 H   0  0  0  0  0  0  0  0  0  0  0  0
  1 33  1  0
  1 52  1  0
  1 53  1  0
  1 54  1  0
 50  2  1  0
  2 55  1  0
  2 56  1  0
  2 57  1  0
  3 89  2  0
  4 35  2  0
  5 51  2  0
 51  6  2  0
 38 89  1  0
 89 58  1  0
  8  7  2  0
  7  9  1  0
  7 91  1  0
  8 10  1  0
  8 59  1  0
  9 11  2  0
  9 60  1  0
 10 36  2  0
 10 61  1  0
 36 11  1  0
 11 62  1  0
 15 12  2  0
 12 37  1  0
 12 63  1  0
 16 13  1  0
 13 37  2  0
 13 64  1  0
 38 14  2  0
 22 14  1  0
 14 65  1  0
 40 15  1  0
 15 66  1  0
 40 16  2  0
 16 67  1  0
 20 17  2  0
 17 39  1  0
 17 68  1  0
 21 18  1  0
 18 39  2  0
 18 69  1  0
 23 19  2  0
 41 19  1  0
 19 70  1  0
 42 20  1  0
 20 71  1  0
 42 21  2  0
 21 72  1  0
 45 22  2  0
 22 73  1  0
 46 23  1  0
 23 74  1  0
 31 24  1  0
 24 44  2  0
 24 75  1  0
 31 25  2  0
 25 50  1  0
 25 76  1  0
 43 26  1  0
 26 41  2  0
 26 77  1  0
 36 27  1  0
 27 32  1  0
 27 78  1  0
 27 79  1  0
 37 28  1  0
 28 47  1  0
 28 80  1  0
 28 81  1  0
 44 88  1  0
 48 88  1  0
 88 92  1  0
 88 93  1  0
 49 29  1  0
 29 43  1  0
 29 82  1  0
 29 83  1  0
 30 47  1  0
 30 48  1  0
 30 84  1  0
 30 85  1  0
 32 35  1  0
 32 86  1  0
 39 33  1  0
 35 90  1  0
 90 40  1  0
 34 45  1  0
 34 38  1  0
 41 45  1  0
 51 42  1  1
 43 46  2  0
 50 44  1  0
 48 46  1  0
 47 49  1  0
 47 87  1  1
 49 51  1  0
M  END
