
     RDKit          3D

 48 51  0  0  0  0  0  0  0  0999 V2000
    4.3914   -2.0880   -2.1793 O   0  0  0  0  0  0  0  0  0  0  0  0
    3.8125   -1.2931   -1.4498 C   0  0  0  0  0  0  0  0  0  0  0  0
    4.4851   -0.3529   -0.5538 C   0  0  0  0  0  0  0  0  0  0  0  0
    5.8827   -0.3510   -0.5020 C   0  0  0  0  0  0  0  0  0  0  0  0
    2.4454   -1.2250   -1.4381 N   0  0  0  0  0  0  0  0  0  0  0  0
    1.6910   -0.3720   -0.6728 C   0  0  0  0  0  0  0  0  0  0  0  0
    2.3072    0.5006    0.1578 C   0  0  0  0  0  0  0  0  0  0  0  0
    3.7359    0.5396    0.2362 C   0  0  0  0  0  0  0  0  0  0  0  0
    4.4122    1.4433    1.0908 C   0  0  0  0  0  0  0  0  0  0  0  0
    3.6488    2.4105    1.9465 C   0  0  0  0  0  0  0  0  0  0  0  0
    5.7925    1.4180    1.1183 C   0  0  0  0  0  0  0  0  0  0  0  0
    6.5322    0.5298    0.3305 C   0  0  0  0  0  0  0  0  0  0  0  0
    0.2298   -0.4831   -0.7943 C   0  0  0  0  0  0  0  0  0  0  0  0
   -0.3899   -1.7198   -0.9693 C   0  0  0  0  0  0  0  0  0  0  0  0
   -1.7714   -1.8084   -1.0608 C   0  0  0  0  0  0  0  0  0  0  0  0
   -2.5687   -0.6722   -0.9910 C   0  0  0  0  0  0  0  0  0  0  0  0
   -1.9471    0.5632   -0.8172 C   0  0  0  0  0  0  0  0  0  0  0  0
   -0.5707    0.6587   -0.7213 C   0  0  0  0  0  0  0  0  0  0  0  0
   -4.0651   -0.7635   -1.1421 C   0  0  0  0  0  0  0  0  0  0  0  0
   -4.7658    0.1389   -0.2582 N   0  0  0  0  0  0  0  0  0  0  0  0
   -6.1502    0.3322   -0.6454 C   0  0  0  0  0  0  0  0  0  0  0  0
   -6.8019    1.3748    0.2444 C   0  0  0  0  0  0  0  0  0  0  0  0
   -6.7110    0.9548    1.6300 N   0  0  0  0  0  0  0  0  0  0  0  0
   -5.3259    0.7816    2.0243 C   0  0  0  0  0  0  0  0  0  0  0  0
   -4.6689   -0.2571    1.1344 C   0  0  0  0  0  0  0  0  0  0  0  0
    1.9718   -1.8319   -2.0945 H   0  0  0  0  0  0  0  0  0  0  0  0
    6.4440   -1.0423   -1.1157 H   0  0  0  0  0  0  0  0  0  0  0  0
    7.6130    0.5394    0.3803 H   0  0  0  0  0  0  0  0  0  0  0  0
    1.7042    1.1411    0.7829 H   0  0  0  0  0  0  0  0  0  0  0  0
    2.9842    1.8976    2.6445 H   0  0  0  0  0  0  0  0  0  0  0  0
    4.3269    3.0280    2.5327 H   0  0  0  0  0  0  0  0  0  0  0  0
    3.0288    3.0797    1.3471 H   0  0  0  0  0  0  0  0  0  0  0  0
    6.3193    2.1066    1.7681 H   0  0  0  0  0  0  0  0  0  0  0  0
    0.1960   -2.6305   -1.0008 H   0  0  0  0  0  0  0  0  0  0  0  0
   -0.1121    1.6331   -0.6087 H   0  0  0  0  0  0  0  0  0  0  0  0
   -2.2315   -2.7822   -1.1797 H   0  0  0  0  0  0  0  0  0  0  0  0
   -2.5542    1.4573   -0.7555 H   0  0  0  0  0  0  0  0  0  0  0  0
   -4.3234   -0.4927   -2.1713 H   0  0  0  0  0  0  0  0  0  0  0  0
   -4.3826   -1.8123   -1.0156 H   0  0  0  0  0  0  0  0  0  0  0  0
   -6.1851    0.6700   -1.6838 H   0  0  0  0  0  0  0  0  0  0  0  0
   -6.7306   -0.6047   -0.5889 H   0  0  0  0  0  0  0  0  0  0  0  0
   -5.1413   -1.2394    1.3094 H   0  0  0  0  0  0  0  0  0  0  0  0
   -3.6174   -0.3519    1.4134 H   0  0  0  0  0  0  0  0  0  0  0  0
   -6.3154    2.3456    0.0588 H   0  0  0  0  0  0  0  0  0  0  0  0
   -7.8524    1.4797   -0.0338 H   0  0  0  0  0  0  0  0  0  0  0  0
   -7.1513    1.6445    2.2245 H   0  0  0  0  0  0  0  0  0  0  0  0
   -4.7425    1.7140    1.9611 H   0  0  0  0  0  0  0  0  0  0  0  0
   -5.2848    0.4438    3.0618 H   0  0  0  0  0  0  0  0  0  0  0  0
  1  2  2  0
  2  3  1  0
  2  5  1  0
  3  4  1  0
  3  8  2  0
  4 12  2  0
  5  6  1  0
  6  7  2  0
  6 13  1  0
  7  8  1  0
  8  9  1  0
  9 10  1  0
  9 11  2  0
 11 12  1  0
 13 14  2  0
 13 18  1  0
 14 15  1  0
 15 16  2  0
 16 17  1  0
 16 19  1  0
 17 18  2  0
 19 20  1  0
 20 21  1  0
 20 25  1  0
 21 22  1  0
 22 23  1  0
 23 24  1  0
 24 25  1  0
  5 26  1  0
  4 27  1  0
 12 28  1  0
  7 29  1  0
 10 30  1  0
 10 31  1  0
 10 32  1  0
 11 33  1  0
 14 34  1  0
 18 35  1  0
 15 36  1  0
 17 37  1  0
 19 38  1  0
 19 39  1  0
 21 40  1  0
 21 41  1  0
 25 42  1  0
 25 43  1  0
 22 44  1  0
 22 45  1  0
 23 46  1  0
 24 47  1  0
 24 48  1  0
M  END
