
     RDKit          3D

 36 37  0  0  0  0  0  0  0  0999 V2000
    2.5636    2.7094    0.2700 C   0  0  0  0  0  0  0  0  0  0  0  0
    1.3164    0.5867    0.2338 C   0  0  2  0  0  0  0  0  0  0  0  0
    2.8025    0.3546   -0.0634 C   0  0  2  0  0  0  0  0  0  0  0  0
   -1.9885   -0.4606   -1.4273 C   0  0  0  0  0  0  0  0  0  0  0  0
   -3.3462   -0.4892   -1.1757 C   0  0  0  0  0  0  0  0  0  0  0  0
   -3.8370   -0.1216    0.0760 C   0  0  0  0  0  0  0  0  0  0  0  0
   -2.9481    0.2789    1.0693 C   0  0  0  0  0  0  0  0  0  0  0  0
   -1.5869    0.3123    0.8107 C   0  0  0  0  0  0  0  0  0  0  0  0
   -5.3060   -0.1771    0.3009 C   0  0  0  0  0  0  0  0  0  0  0  0
   -5.6550    0.1758    1.5278 O   0  0  0  0  0  0  0  0  0  0  0  0
    0.3721   -0.0453   -0.7561 C   0  0  0  0  0  0  0  0  0  0  0  0
    3.2783   -1.0123    0.3968 C   0  0  0  0  0  0  0  0  0  0  0  0
    5.3355   -0.7535   -0.8329 O   0  0  0  0  0  0  0  0  0  0  0  0
   -6.0970   -0.5125   -0.5467 O   0  0  0  0  0  0  0  0  0  0  0  0
   -1.0911   -0.0568   -0.4376 C   0  0  0  0  0  0  0  0  0  0  0  0
    1.1368    2.1332    0.2866 C   0  0  0  0  0  0  0  0  0  0  0  0
    3.4669    1.5372    0.6379 C   0  0  0  0  0  0  0  0  0  0  0  0
    4.7037   -1.3179    0.0257 C   0  0  0  0  0  0  0  0  0  0  0  0
    0.7594   -0.5103   -1.8065 O   0  0  0  0  0  0  0  0  0  0  0  0
    5.1966   -2.3258    0.7392 O   0  0  0  0  0  0  0  0  0  0  0  0
    2.8134    3.0631   -0.7325 H   0  0  0  0  0  0  0  0  0  0  0  0
    2.6712    3.5584    0.9455 H   0  0  0  0  0  0  0  0  0  0  0  0
    1.0971    0.1802    1.2269 H   0  0  0  0  0  0  0  0  0  0  0  0
    2.9690    0.4533   -1.1397 H   0  0  0  0  0  0  0  0  0  0  0  0
   -1.6222   -0.7529   -2.4017 H   0  0  0  0  0  0  0  0  0  0  0  0
   -4.0275   -0.8005   -1.9559 H   0  0  0  0  0  0  0  0  0  0  0  0
   -3.3002    0.5696    2.0487 H   0  0  0  0  0  0  0  0  0  0  0  0
   -0.9232    0.6222    1.6061 H   0  0  0  0  0  0  0  0  0  0  0  0
   -6.6168    0.1167    1.6305 H   0  0  0  0  0  0  0  0  0  0  0  0
    3.1523   -1.1180    1.4781 H   0  0  0  0  0  0  0  0  0  0  0  0
    2.6685   -1.8046   -0.0523 H   0  0  0  0  0  0  0  0  0  0  0  0
    0.6044    2.4199    1.1932 H   0  0  0  0  0  0  0  0  0  0  0  0
    0.5485    2.5090   -0.5525 H   0  0  0  0  0  0  0  0  0  0  0  0
    4.5031    1.6879    0.3341 H   0  0  0  0  0  0  0  0  0  0  0  0
    3.4616    1.3761    1.7214 H   0  0  0  0  0  0  0  0  0  0  0  0
    6.0984   -2.5273    0.4475 H   0  0  0  0  0  0  0  0  0  0  0  0
 13 18  2  0
 19 11  2  0
 18 12  1  0
 18 20  1  0
  3 12  1  0
  3 17  1  0
  3  2  1  0
 11  2  1  0
 11 15  1  0
 17  1  1  0
  4 15  2  0
  4  5  1  0
  2 16  1  0
 16  1  1  0
 15  8  1  0
  5  6  2  0
  8  7  2  0
  6  7  1  0
  6  9  1  0
 14  9  2  0
  9 10  1  0
  1 21  1  0
  1 22  1  0
  2 23  1  1
  3 24  1  6
  4 25  1  0
  5 26  1  0
  7 27  1  0
  8 28  1  0
 10 29  1  0
 12 30  1  0
 12 31  1  0
 16 32  1  0
 16 33  1  0
 17 34  1  0
 17 35  1  0
 20 36  1  0
M  END
