
     RDKit          3D

 30 31  0  0  0  0  0  0  0  0999 V2000
    4.0441    1.3663    0.4337 C   0  0  0  0  0  0  0  0  0  0  0  0
    2.7627    1.1374   -0.0457 C   0  0  0  0  0  0  0  0  0  0  0  0
    4.8997    0.2973    0.6732 C   0  0  0  0  0  0  0  0  0  0  0  0
    4.4761   -1.0033    0.4330 C   0  0  0  0  0  0  0  0  0  0  0  0
    3.1941   -1.2442   -0.0433 C   0  0  0  0  0  0  0  0  0  0  0  0
    2.3485   -0.1696   -0.2664 C   0  0  0  0  0  0  0  0  0  0  0  0
   -0.1660   -0.3631    0.7128 C   0  0  0  0  0  0  0  0  0  0  0  0
   -3.5227   -2.0420    0.4551 C   0  0  0  0  0  0  0  0  0  0  0  0
   -2.1728   -1.7961    0.6505 C   0  0  0  0  0  0  0  0  0  0  0  0
   -1.6345   -0.5230    0.4867 C   0  0  0  0  0  0  0  0  0  0  0  0
   -4.3656   -1.0051    0.0869 C   0  0  0  0  0  0  0  0  0  0  0  0
   -3.8500    0.2690   -0.0814 C   0  0  0  0  0  0  0  0  0  0  0  0
   -2.4901    0.5245    0.1030 C   0  0  0  0  0  0  0  0  0  0  0  0
    0.6224   -1.9092   -1.3092 O   0  0  0  0  0  0  0  0  0  0  0  0
    0.6987   -0.4600   -0.9054 S   0  0  0  0  0  0  0  0  0  0  0  0
   -1.9678    1.8950   -0.1375 C   0  0  0  0  0  0  0  0  0  0  0  0
   -0.8056    2.1619   -0.3366 O   0  0  0  0  0  0  0  0  0  0  0  0
   -2.9201    2.8164   -0.1226 O   0  0  0  0  0  0  0  0  0  0  0  0
    4.3769    2.3798    0.6130 H   0  0  0  0  0  0  0  0  0  0  0  0
    2.0963    1.9693   -0.2403 H   0  0  0  0  0  0  0  0  0  0  0  0
    5.8998    0.4808    1.0432 H   0  0  0  0  0  0  0  0  0  0  0  0
    5.1450   -1.8342    0.6140 H   0  0  0  0  0  0  0  0  0  0  0  0
    2.8596   -2.2544   -0.2390 H   0  0  0  0  0  0  0  0  0  0  0  0
    0.1124    0.5741    1.1876 H   0  0  0  0  0  0  0  0  0  0  0  0
    0.2306   -1.1888    1.3059 H   0  0  0  0  0  0  0  0  0  0  0  0
   -1.5223   -2.6075    0.9499 H   0  0  0  0  0  0  0  0  0  0  0  0
   -5.4209   -1.1836   -0.0684 H   0  0  0  0  0  0  0  0  0  0  0  0
   -4.5187    1.0670   -0.3716 H   0  0  0  0  0  0  0  0  0  0  0  0
   -2.5396    3.6861   -0.3168 H   0  0  0  0  0  0  0  0  0  0  0  0
   -3.9124   -3.0422    0.5910 H   0  0  0  0  0  0  0  0  0  0  0  0
 14 15  2  0
  4  5  2  0
  4  3  1  0
  5  6  1  0
  3  1  2  0
  6 15  1  0
  6  2  2  0
 15  7  1  1
  1  2  1  0
 17 16  2  0
 18 16  1  0
 16 13  1  0
 13 12  2  0
 13 10  1  0
 12 11  1  0
  7 10  1  0
 10  9  2  0
 11  8  2  0
  9  8  1  0
  1 19  1  0
  2 20  1  0
  3 21  1  0
  4 22  1  0
  5 23  1  0
  7 24  1  0
  7 25  1  0
  8 30  1  0
  9 26  1  0
 11 27  1  0
 12 28  1  0
 18 29  1  0
M  END
