
     RDKit          3D

 22 23  0  0  0  0  0  0  0  0999 V2000
    4.1015    2.0798    5.1389 O   0  0  0  0  0  0  0  0  0  0  0  0
    3.2877    1.2349    5.7315 C   0  0  0  0  0  0  0  0  0  0  0  0
    2.8160    1.3688    6.8288 O   0  0  0  0  0  0  0  0  0  0  0  0
    2.9758    0.0236    4.8354 C   0  0  1  0  0  0  0  0  0  0  0  0
    2.3110   -0.9466    5.5464 O   0  0  0  0  0  0  0  0  0  0  0  0
    2.1473    0.5940    3.8335 O   0  0  0  0  0  0  0  0  0  0  0  0
    2.0330   -0.0235    2.6333 C   0  0  0  0  0  0  0  0  0  0  0  0
    3.0540   -0.8475    2.1570 C   0  0  0  0  0  0  0  0  0  0  0  0
    4.2170   -1.0347    3.0029 C   0  0  0  0  0  0  0  0  0  0  0  0
    4.2150   -0.5943    4.2590 C   0  0  0  0  0  0  0  0  0  0  0  0
    0.9024    0.2266    1.8700 C   0  0  0  0  0  0  0  0  0  0  0  0
    0.7899   -0.3548    0.6151 C   0  0  0  0  0  0  0  0  0  0  0  0
    1.7940   -1.1833    0.1247 C   0  0  0  0  0  0  0  0  0  0  0  0
    2.9207   -1.4221    0.8941 C   0  0  0  0  0  0  0  0  0  0  0  0
    4.2748    2.8451    5.7090 H   0  0  0  0  0  0  0  0  0  0  0  0
    1.7153   -0.5372    6.1903 H   0  0  0  0  0  0  0  0  0  0  0  0
    5.0839   -1.5384    2.5935 H   0  0  0  0  0  0  0  0  0  0  0  0
    5.0637   -0.7271    4.9172 H   0  0  0  0  0  0  0  0  0  0  0  0
    0.1238    0.8742    2.2526 H   0  0  0  0  0  0  0  0  0  0  0  0
   -0.0917   -0.1612    0.0181 H   0  0  0  0  0  0  0  0  0  0  0  0
    1.6983   -1.6344   -0.8535 H   0  0  0  0  0  0  0  0  0  0  0  0
    3.7131   -2.0590    0.5200 H   0  0  0  0  0  0  0  0  0  0  0  0
  1  2  1  0
  1 15  1  0
  2  3  2  0
  2  4  1  0
  4  5  1  1
  4  6  1  0
  4 10  1  0
  5 16  1  0
  6  7  1  0
  7 11  1  0
  7  8  2  0
  8  9  1  0
  8 14  1  0
  9 10  2  0
  9 17  1  0
 10 18  1  0
 11 12  2  0
 11 19  1  0
 12 13  1  0
 12 20  1  0
 13 14  2  0
 13 21  1  0
 14 22  1  0
M  END
