
     RDKit          3D

 92 95  0  0  0  0  0  0  0  0999 V2000
   -5.8883    0.3674   -1.0198 C   0  0  0  0  0  0  0  0  0  0  0  0
   -5.8646    1.7481   -4.6421 C   0  0  0  0  0  0  0  0  0  0  0  0
   -4.6973    0.3260   -0.2981 C   0  0  0  0  0  0  0  0  0  0  0  0
   -5.9155    1.8323   -3.1102 C   0  0  2  0  0  0  0  0  0  0  0  0
   -4.7037    0.3213    1.0902 C   0  0  0  0  0  0  0  0  0  0  0  0
   -5.9083    0.3557    1.7800 C   0  0  0  0  0  0  0  0  0  0  0  0
   -7.1028    0.3905    1.0715 C   0  0  0  0  0  0  0  0  0  0  0  0
   -7.0902    0.3982   -0.3166 C   0  0  0  0  0  0  0  0  0  0  0  0
   -3.2480    4.0786   -8.5164 C   0  0  0  0  0  0  0  0  0  0  0  0
   -2.6697    4.8978   -7.5486 C   0  0  0  0  0  0  0  0  0  0  0  0
   -1.3046    4.8621   -7.3075 C   0  0  0  0  0  0  0  0  0  0  0  0
   -0.5097    3.9924   -8.0445 C   0  0  0  0  0  0  0  0  0  0  0  0
   -1.0619    3.1639   -9.0073 C   0  0  0  0  0  0  0  0  0  0  0  0
   -2.4324    3.2139   -9.2339 C   0  0  0  0  0  0  0  0  0  0  0  0
   -4.7302    4.1572   -8.7776 C   0  0  0  0  0  0  0  0  0  0  0  0
   -9.4749    5.5817   -2.5772 C   0  0  0  0  0  0  0  0  0  0  0  0
   -5.5327    2.9292   -6.8254 C   0  0  0  0  0  0  0  0  0  0  0  0
   -9.1735    4.7622   -5.0956 O   0  0  0  0  0  0  0  0  0  0  0  0
   -8.8134    6.8960   -5.7889 N   0  0  0  0  0  0  0  0  0  0  0  0
   -5.8749    0.4005   -2.5200 C   0  0  0  0  0  0  0  0  0  0  0  0
   -7.0619    2.5173   -2.6839 O   0  0  0  0  0  0  0  0  0  0  0  0
   -9.2351    6.4867   -3.6515 O   0  0  0  0  0  0  0  0  0  0  0  0
   -4.7322    2.6304   -2.5394 C   0  0  0  0  0  0  0  0  0  0  0  0
   -4.8754    3.4974   -1.6991 O   0  0  0  0  0  0  0  0  0  0  0  0
   -3.5195    2.2619   -2.9952 N   0  0  0  0  0  0  0  0  0  0  0  0
   -2.3017    2.9016   -2.5714 C   0  0  1  0  0  0  0  0  0  0  0  0
   -1.0851    2.2344   -3.1587 C   0  0  0  0  0  0  0  0  0  0  0  0
   -0.1169    3.1881   -3.4583 C   0  0  0  0  0  0  0  0  0  0  0  0
   -0.8573    0.8891   -3.3992 C   0  0  0  0  0  0  0  0  0  0  0  0
    0.3561    0.5074   -3.9630 C   0  0  0  0  0  0  0  0  0  0  0  0
    1.3201    1.4599   -4.2736 C   0  0  0  0  0  0  0  0  0  0  0  0
   -2.1307    4.3831   -3.0152 C   0  0  2  0  0  0  0  0  0  0  0  0
   -2.7480    4.6452   -4.2482 O   0  0  0  0  0  0  0  0  0  0  0  0
   -9.0773    5.9488   -4.8611 C   0  0  0  0  0  0  0  0  0  0  0  0
    1.0908    2.8080   -4.0193 C   0  0  0  0  0  0  0  0  0  0  0  0
   -0.6045    4.5559   -3.0736 C   0  0  0  0  0  0  0  0  0  0  0  0
   -8.3403    6.5072   -7.0959 C   0  0  1  0  0  0  0  0  0  0  0  0
   -8.4805    7.6571   -8.1237 C   0  0  1  0  0  0  0  0  0  0  0  0
   -9.9679    7.9923   -8.2626 C   0  0  0  0  0  0  0  0  0  0  0  0
   -7.7132    8.9185   -7.7213 C   0  0  0  0  0  0  0  0  0  0  0  0
   -6.9053    5.9856   -6.9643 C   0  0  0  0  0  0  0  0  0  0  0  0
   -5.4594    4.1992   -7.5242 N   0  0  0  0  0  0  0  0  0  0  0  0
   -6.0657    6.5807   -6.3158 O   0  0  0  0  0  0  0  0  0  0  0  0
   -6.6781    4.8241   -7.6096 N   0  0  0  0  0  0  0  0  0  0  0  0
    1.3509    3.9400   -7.7256 Br  0  0  0  0  0  0  0  0  0  0  0  0
   -7.9631    7.1704   -9.4793 C   0  0  0  0  0  0  0  0  0  0  0  0
   -5.0710    3.7468   -4.9188 H   0  0  0  0  0  0  0  0  0  0  0  0
   -6.7978    3.5992   -5.2080 H   0  0  0  0  0  0  0  0  0  0  0  0
   -6.7356    1.1736   -4.9763 H   0  0  0  0  0  0  0  0  0  0  0  0
   -5.0050    1.1473   -4.9549 H   0  0  0  0  0  0  0  0  0  0  0  0
   -4.5547    2.4529   -6.9304 H   0  0  0  0  0  0  0  0  0  0  0  0
   -6.2606    2.2505   -7.2996 H   0  0  0  0  0  0  0  0  0  0  0  0
   -6.7409   -0.1400   -2.9142 H   0  0  0  0  0  0  0  0  0  0  0  0
   -4.9920   -0.1218   -2.8964 H   0  0  0  0  0  0  0  0  0  0  0  0
   -7.8242    2.1225   -3.1200 H   0  0  0  0  0  0  0  0  0  0  0  0
   -3.7521    0.2927   -0.8283 H   0  0  0  0  0  0  0  0  0  0  0  0
   -8.0271    0.4149   -0.8603 H   0  0  0  0  0  0  0  0  0  0  0  0
   -3.7679    0.2854    1.6333 H   0  0  0  0  0  0  0  0  0  0  0  0
   -5.9170    0.3481    2.8623 H   0  0  0  0  0  0  0  0  0  0  0  0
   -8.0465    0.4101    1.6018 H   0  0  0  0  0  0  0  0  0  0  0  0
   -3.4569    1.6207   -3.7683 H   0  0  0  0  0  0  0  0  0  0  0  0
   -2.2417    2.8736   -1.4772 H   0  0  0  0  0  0  0  0  0  0  0  0
   -4.9482    5.0806   -9.3184 H   0  0  0  0  0  0  0  0  0  0  0  0
   -5.0430    3.3281   -9.4289 H   0  0  0  0  0  0  0  0  0  0  0  0
   -7.4433    4.3508   -8.0771 H   0  0  0  0  0  0  0  0  0  0  0  0
   -2.5922    5.0606   -2.2985 H   0  0  0  0  0  0  0  0  0  0  0  0
   -1.6014    0.1382   -3.1592 H   0  0  0  0  0  0  0  0  0  0  0  0
    0.5498   -0.5383   -4.1639 H   0  0  0  0  0  0  0  0  0  0  0  0
    2.2556    1.1485   -4.7199 H   0  0  0  0  0  0  0  0  0  0  0  0
    1.8424    3.5471   -4.2665 H   0  0  0  0  0  0  0  0  0  0  0  0
   -0.2197    4.8281   -2.0860 H   0  0  0  0  0  0  0  0  0  0  0  0
   -0.3042    5.3483   -3.7617 H   0  0  0  0  0  0  0  0  0  0  0  0
   -2.3606    4.0868   -4.9314 H   0  0  0  0  0  0  0  0  0  0  0  0
   -3.3025    5.5611   -6.9717 H   0  0  0  0  0  0  0  0  0  0  0  0
   -2.8647    2.5597   -9.9818 H   0  0  0  0  0  0  0  0  0  0  0  0
   -0.8686    5.5172   -6.5641 H   0  0  0  0  0  0  0  0  0  0  0  0
   -0.4461    2.4799   -9.5754 H   0  0  0  0  0  0  0  0  0  0  0  0
   -8.9826    5.6962   -7.4520 H   0  0  0  0  0  0  0  0  0  0  0  0
  -10.5420    7.1187   -8.5796 H   0  0  0  0  0  0  0  0  0  0  0  0
  -10.1089    8.7708   -9.0145 H   0  0  0  0  0  0  0  0  0  0  0  0
  -10.3966    8.3539   -7.3277 H   0  0  0  0  0  0  0  0  0  0  0  0
   -8.0607    9.3442   -6.7770 H   0  0  0  0  0  0  0  0  0  0  0  0
   -6.6418    8.7443   -7.6356 H   0  0  0  0  0  0  0  0  0  0  0  0
   -7.8625    9.6870   -8.4816 H   0  0  0  0  0  0  0  0  0  0  0  0
   -8.1459    7.9309  -10.2395 H   0  0  0  0  0  0  0  0  0  0  0  0
   -8.4714    6.2574   -9.7964 H   0  0  0  0  0  0  0  0  0  0  0  0
   -6.8900    6.9734   -9.4717 H   0  0  0  0  0  0  0  0  0  0  0  0
  -10.4261    5.0619   -2.6928 H   0  0  0  0  0  0  0  0  0  0  0  0
   -9.5093    6.1904   -1.6780 H   0  0  0  0  0  0  0  0  0  0  0  0
   -8.6742    4.8473   -2.4856 H   0  0  0  0  0  0  0  0  0  0  0  0
   -8.5797    7.8188   -5.4554 H   0  0  0  0  0  0  0  0  0  0  0  0
   -5.8384    3.0991   -5.3466 C   0  0  0  0  0  0  0  0  0  0  0  0
 20  1  1  0
 92  2  1  0
  1  3  2  0
  2  4  1  0
  3  5  1  0
  5  6  2  0
  6  7  1  0
  1  8  1  0
  7  8  2  0
 15  9  1  0
  9 10  2  0
 10 11  1  0
 11 12  2  0
 12 13  1  0
  9 14  1  0
 13 14  2  0
 42 15  1  0
 92 17  1  0
 34 18  2  0
 34 19  1  0
  4 20  1  0
  4 21  1  6
 16 22  1  0
  4 23  1  0
 25 23  1  0
 23 24  2  0
 25 26  1  0
 26 27  1  0
 27 28  1  0
 35 28  2  0
 27 29  2  0
 29 30  1  0
 30 31  2  0
 26 32  1  0
 36 32  1  0
 32 33  1  0
 22 34  1  0
 31 35  1  0
 28 36  1  0
 38 37  1  0
 19 37  1  0
 38 39  1  6
 41 43  2  0
 42 44  1  0
 41 44  1  0
 12 45  1  0
 38 46  1  0
 92 47  1  0
 92 48  1  0
  2 49  1  0
  2 50  1  0
 17 51  1  0
 17 52  1  0
 20 53  1  0
 20 54  1  0
 21 55  1  0
  3 56  1  0
  8 57  1  0
  5 58  1  0
  6 59  1  0
  7 60  1  0
 25 61  1  0
 26 62  1  1
 15 63  1  0
 15 64  1  0
 44 65  1  0
 32 66  1  1
 29 67  1  0
 30 68  1  0
 31 69  1  0
 35 70  1  0
 36 71  1  0
 36 72  1  0
 33 73  1  0
 10 74  1  0
 14 75  1  0
 11 76  1  0
 13 77  1  0
 37 78  1  6
 39 79  1  0
 39 80  1  0
 39 81  1  0
 40 82  1  0
 40 83  1  0
 40 84  1  0
 46 85  1  0
 46 86  1  0
 46 87  1  0
 16 88  1  0
 16 89  1  0
 16 90  1  0
 19 91  1  0
 38 40  1  0
 37 41  1  0
 17 42  1  0
M  END
