
     RDKit          3D

 58 61  0  0  0  0  0  0  0  0999 V2000
   -5.0019    0.6318   -0.2843 C   0  0  0  0  0  0  0  0  0  0  0  0
   -4.4100   -0.5575    0.0030 N   0  0  0  0  0  0  0  0  0  0  0  0
   -4.4085    1.6821   -0.4598 O   0  0  0  0  0  0  0  0  0  0  0  0
   -6.4647    0.5902   -0.3827 C   0  0  0  0  0  0  0  0  0  0  0  0
    1.9259   -1.2374    0.9693 N   0  0  0  0  0  0  0  0  0  0  0  0
   -7.1272   -0.5707   -0.1800 O   0  0  0  0  0  0  0  0  0  0  0  0
   -8.4369   -0.3203   -0.3375 C   0  0  0  0  0  0  0  0  0  0  0  0
    1.3186   -3.2928    0.2427 O   0  0  0  0  0  0  0  0  0  0  0  0
   -8.6356    0.9872   -0.6405 C   0  0  0  0  0  0  0  0  0  0  0  0
    2.6799    4.7997    0.6559 O   0  0  0  0  0  0  0  0  0  0  0  0
   -7.3467    1.5839   -0.6696 C   0  0  0  0  0  0  0  0  0  0  0  0
    5.6415   -2.6263   -1.6682 O   0  0  0  0  0  0  0  0  0  0  0  0
   -3.0552   -0.8502    0.1345 C   0  0  0  0  0  0  0  0  0  0  0  0
   -2.7287   -2.1874    0.3862 C   0  0  0  0  0  0  0  0  0  0  0  0
   -1.4142   -2.5822    0.5160 C   0  0  0  0  0  0  0  0  0  0  0  0
   -0.3783   -1.6543    0.4242 C   0  0  0  0  0  0  0  0  0  0  0  0
   -0.7080   -0.3265    0.1707 C   0  0  0  0  0  0  0  0  0  0  0  0
   -2.0240    0.0841    0.0235 C   0  0  0  0  0  0  0  0  0  0  0  0
    1.0283   -2.1388    0.5338 C   0  0  0  0  0  0  0  0  0  0  0  0
    3.3532   -1.4404    0.9782 C   0  0  0  0  0  0  0  0  0  0  0  0
    4.0696   -0.6615   -0.1513 C   0  0  2  0  0  0  0  0  0  0  0  0
    3.6987    0.8080    0.0030 C   0  0  0  0  0  0  0  0  0  0  0  0
    4.2099    1.5588    1.0671 C   0  0  0  0  0  0  0  0  0  0  0  0
    3.8599    2.8804    1.2637 C   0  0  0  0  0  0  0  0  0  0  0  0
    2.9648    3.5089    0.3954 C   0  0  0  0  0  0  0  0  0  0  0  0
    1.7884    5.4764   -0.2072 C   0  0  0  0  0  0  0  0  0  0  0  0
    2.4321    2.7803   -0.6612 C   0  0  0  0  0  0  0  0  0  0  0  0
    2.8013    1.4498   -0.8418 C   0  0  0  0  0  0  0  0  0  0  0  0
    3.6739   -1.2036   -1.5319 C   0  0  0  0  0  0  0  0  0  0  0  0
    4.2380   -2.5887   -1.8056 C   0  0  0  0  0  0  0  0  0  0  0  0
    6.0438   -2.2582   -0.3688 C   0  0  0  0  0  0  0  0  0  0  0  0
    5.5914   -0.8510   -0.0068 C   0  0  0  0  0  0  0  0  0  0  0  0
   -5.0212   -1.3528    0.1199 H   0  0  0  0  0  0  0  0  0  0  0  0
    1.5981   -0.3354    1.2734 H   0  0  0  0  0  0  0  0  0  0  0  0
   -9.1081   -1.1534   -0.2061 H   0  0  0  0  0  0  0  0  0  0  0  0
   -9.5839    1.4652   -0.8216 H   0  0  0  0  0  0  0  0  0  0  0  0
   -7.1057    2.6134   -0.8771 H   0  0  0  0  0  0  0  0  0  0  0  0
   -3.5167   -2.9260    0.4701 H   0  0  0  0  0  0  0  0  0  0  0  0
   -1.1928   -3.6255    0.6967 H   0  0  0  0  0  0  0  0  0  0  0  0
    0.0629    0.4257    0.0495 H   0  0  0  0  0  0  0  0  0  0  0  0
   -2.2279    1.1207   -0.1840 H   0  0  0  0  0  0  0  0  0  0  0  0
    3.7475   -1.1110    1.9427 H   0  0  0  0  0  0  0  0  0  0  0  0
    3.5460   -2.5096    0.9131 H   0  0  0  0  0  0  0  0  0  0  0  0
    4.9003    1.1078    1.7699 H   0  0  0  0  0  0  0  0  0  0  0  0
    4.2784    3.4365    2.0935 H   0  0  0  0  0  0  0  0  0  0  0  0
    2.1616    5.5107   -1.2343 H   0  0  0  0  0  0  0  0  0  0  0  0
    0.7952    5.0189   -0.2099 H   0  0  0  0  0  0  0  0  0  0  0  0
    1.7038    6.4931    0.1685 H   0  0  0  0  0  0  0  0  0  0  0  0
    1.7304    3.2228   -1.3556 H   0  0  0  0  0  0  0  0  0  0  0  0
    2.3611    0.9224   -1.6773 H   0  0  0  0  0  0  0  0  0  0  0  0
    2.5883   -1.2406   -1.6524 H   0  0  0  0  0  0  0  0  0  0  0  0
    4.0467   -0.5194   -2.3006 H   0  0  0  0  0  0  0  0  0  0  0  0
    4.0108   -2.8800   -2.8326 H   0  0  0  0  0  0  0  0  0  0  0  0
    3.7665   -3.3334   -1.1503 H   0  0  0  0  0  0  0  0  0  0  0  0
    5.6680   -2.9832    0.3674 H   0  0  0  0  0  0  0  0  0  0  0  0
    7.1335   -2.3140   -0.3422 H   0  0  0  0  0  0  0  0  0  0  0  0
    6.0982   -0.1344   -0.6593 H   0  0  0  0  0  0  0  0  0  0  0  0
    5.9216   -0.6355    1.0127 H   0  0  0  0  0  0  0  0  0  0  0  0
  1  2  1  0
  1  3  2  0
  1  4  1  0
  2 13  1  0
  4  6  1  0
  4 11  2  0
  5 19  1  0
  5 20  1  0
  6  7  1  0
  7  9  2  0
  8 19  2  0
  9 11  1  0
 10 25  1  0
 10 26  1  0
 12 30  1  0
 12 31  1  0
 13 14  2  0
 13 18  1  0
 14 15  1  0
 15 16  2  0
 16 17  1  0
 16 19  1  0
 17 18  2  0
 21 20  1  1
 21 22  1  0
 21 29  1  0
 21 32  1  0
 22 23  2  0
 22 28  1  0
 23 24  1  0
 24 25  2  0
 25 27  1  0
 27 28  2  0
 29 30  1  0
 31 32  1  0
  2 33  1  0
  5 34  1  0
  7 35  1  0
  9 36  1  0
 11 37  1  0
 14 38  1  0
 15 39  1  0
 17 40  1  0
 18 41  1  0
 20 42  1  0
 20 43  1  0
 23 44  1  0
 24 45  1  0
 26 46  1  0
 26 47  1  0
 26 48  1  0
 27 49  1  0
 28 50  1  0
 29 51  1  0
 29 52  1  0
 30 53  1  0
 30 54  1  0
 31 55  1  0
 31 56  1  0
 32 57  1  0
 32 58  1  0
M  END
