
     RDKit          3D

 42 43  0  0  0  0  0  0  0  0999 V2000
   -5.2850    2.6219   -0.6287 F   0  0  0  0  0  0  0  0  0  0  0  0
   -5.9367    1.4951   -0.3259 C   0  0  1  0  0  0  0  0  0  0  0  0
   -6.6748    1.7634    0.7543 F   0  0  0  0  0  0  0  0  0  0  0  0
   -6.7603    1.2482   -1.3445 F   0  0  0  0  0  0  0  0  0  0  0  0
   -4.9710    0.3607   -0.0779 C   0  0  0  0  0  0  0  0  0  0  0  0
   -3.6755    0.5068   -0.5304 C   0  0  0  0  0  0  0  0  0  0  0  0
   -5.2914   -0.8007    0.6321 C   0  0  0  0  0  0  0  0  0  0  0  0
   -6.6342   -1.0891    1.1038 N   0  0  0  0  0  0  0  0  0  0  0  0
   -6.7439   -1.6500    2.1675 O   0  0  0  0  0  0  0  0  0  0  0  0
   -7.5610   -0.7835    0.3928 O   0  0  0  0  0  0  0  0  0  0  0  0
   -4.3269   -1.7593    0.8834 C   0  0  0  0  0  0  0  0  0  0  0  0
   -3.0368   -1.6154    0.4083 C   0  0  0  0  0  0  0  0  0  0  0  0
   -2.6998   -0.4737   -0.3150 C   0  0  0  0  0  0  0  0  0  0  0  0
   -1.4444   -0.2132   -0.8366 N   0  0  0  0  0  0  0  0  0  0  0  0
   -0.3202   -0.9693   -0.7756 C   0  0  0  0  0  0  0  0  0  0  0  0
   -0.2381   -2.0519   -0.2310 O   0  0  0  0  0  0  0  0  0  0  0  0
    0.8843   -0.3493   -1.5086 C   0  0  2  0  0  0  0  0  0  0  0  0
    0.6636    1.0034   -1.8237 O   0  0  0  0  0  0  0  0  0  0  0  0
    1.0552   -1.0986   -2.8283 C   0  0  0  0  0  0  0  0  0  0  0  0
    2.0981   -0.5139   -0.5947 C   0  0  0  0  0  0  0  0  0  0  0  0
    3.2193    0.0577   -1.2657 O   0  0  0  0  0  0  0  0  0  0  0  0
    4.3346    0.1606   -0.5194 C   0  0  0  0  0  0  0  0  0  0  0  0
    5.2817   -0.8545   -0.5014 C   0  0  0  0  0  0  0  0  0  0  0  0
    5.0660   -1.9628   -1.1996 F   0  0  0  0  0  0  0  0  0  0  0  0
    6.4490   -0.7274    0.2276 C   0  0  0  0  0  0  0  0  0  0  0  0
    7.3487   -1.7035    0.2289 F   0  0  0  0  0  0  0  0  0  0  0  0
    6.6809    0.4230    0.9588 C   0  0  0  0  0  0  0  0  0  0  0  0
    7.7999    0.5503    1.6594 F   0  0  0  0  0  0  0  0  0  0  0  0
    5.7470    1.4425    0.9581 C   0  0  0  0  0  0  0  0  0  0  0  0
    5.9722    2.5469    1.6595 F   0  0  0  0  0  0  0  0  0  0  0  0
    4.5840    1.3060    0.2251 C   0  0  0  0  0  0  0  0  0  0  0  0
    3.6899    2.2879    0.2294 F   0  0  0  0  0  0  0  0  0  0  0  0
   -3.3884    1.4041   -1.0609 H   0  0  0  0  0  0  0  0  0  0  0  0
   -4.5812   -2.6511    1.4382 H   0  0  0  0  0  0  0  0  0  0  0  0
   -2.3163   -2.3902    0.6075 H   0  0  0  0  0  0  0  0  0  0  0  0
   -1.3427    0.6615   -1.3359 H   0  0  0  0  0  0  0  0  0  0  0  0
    0.8012    1.5545   -1.0437 H   0  0  0  0  0  0  0  0  0  0  0  0
    0.1627   -0.9967   -3.4465 H   0  0  0  0  0  0  0  0  0  0  0  0
    1.9011   -0.7013   -3.3872 H   0  0  0  0  0  0  0  0  0  0  0  0
    1.2275   -2.1592   -2.6530 H   0  0  0  0  0  0  0  0  0  0  0  0
    1.9217   -0.0012    0.3592 H   0  0  0  0  0  0  0  0  0  0  0  0
    2.2755   -1.5689   -0.3792 H   0  0  0  0  0  0  0  0  0  0  0  0
  2  1  1  6
  2  3  1  0
  2  4  1  0
  2  5  1  0
  5  6  2  0
  5  7  1  0
  6 13  1  0
  6 33  1  0
  7  8  1  0
  7 11  2  0
  8  9  2  0
 10  8  1  0
 11 12  1  0
 11 34  1  0
 12 13  2  0
 12 35  1  0
 13 14  1  0
 14 15  1  0
 14 36  1  0
 15 16  2  0
 15 17  1  0
 17 18  1  6
 17 19  1  0
 17 20  1  0
 18 37  1  0
 19 38  1  0
 19 39  1  0
 19 40  1  0
 20 21  1  0
 20 41  1  0
 20 42  1  0
 21 22  1  0
 22 23  2  0
 22 31  1  0
 23 24  1  0
 23 25  1  0
 25 26  1  0
 25 27  2  0
 27 28  1  0
 27 29  1  0
 29 30  1  0
 29 31  2  0
 31 32  1  0
M  CHG  2   8   1  10  -1
M  END
