
     RDKit          3D

 19 20  0  0  0  0  0  0  0  0999 V2000
   -1.9319   -1.4229    0.0020 C   0  0  0  0  0  0  0  0  0  0  0  0
    1.7147   -0.7534    0.0312 C   0  0  0  0  0  0  0  0  0  0  0  0
   -1.9003    1.3613    0.0150 C   0  0  0  0  0  0  0  0  0  0  0  0
    1.7276    0.7123    0.0393 C   0  0  0  0  0  0  0  0  0  0  0  0
   -3.1178   -0.7196   -0.0045 C   0  0  0  0  0  0  0  0  0  0  0  0
    0.5096    1.3052    0.0337 N   0  0  0  0  0  0  0  0  0  0  0  0
   -0.7004   -0.7544    0.0146 C   0  0  0  0  0  0  0  0  0  0  0  0
   -0.7010    0.6480    0.0213 C   0  0  0  0  0  0  0  0  0  0  0  0
    0.5560   -1.4431    0.0208 C   0  0  0  0  0  0  0  0  0  0  0  0
   -3.0990    0.6777    0.0025 C   0  0  0  0  0  0  0  0  0  0  0  0
    2.9125   -1.3472    0.0364 O   0  0  0  0  0  0  0  0  0  0  0  0
    2.7833    1.3388    0.0506 O   0  0  0  0  0  0  0  0  0  0  0  0
   -1.9402   -2.5059   -0.0033 H   0  0  0  0  0  0  0  0  0  0  0  0
   -1.8840    2.4442    0.0200 H   0  0  0  0  0  0  0  0  0  0  0  0
   -4.0611   -1.2490   -0.0139 H   0  0  0  0  0  0  0  0  0  0  0  0
    0.5019    2.3171    0.0347 H   0  0  0  0  0  0  0  0  0  0  0  0
    0.5641   -2.5267    0.0156 H   0  0  0  0  0  0  0  0  0  0  0  0
   -4.0277    1.2326   -0.0030 H   0  0  0  0  0  0  0  0  0  0  0  0
    3.5943   -0.6583    0.0446 H   0  0  0  0  0  0  0  0  0  0  0  0
  1  5  2  0
  1  7  1  0
  2  4  1  0
  2  9  2  0
  2 11  1  0
  3  8  1  0
  3 10  2  0
  4  6  1  0
  4 12  2  0
  5 10  1  0
  6  8  1  0
  7  8  2  0
  7  9  1  0
  1 13  1  0
  3 14  1  0
  5 15  1  0
  6 16  1  0
  9 17  1  0
 10 18  1  0
 11 19  1  0
M  END
