
     RDKit          3D

 29 31  0  0  0  0  0  0  0  0999 V2000
    4.8198    0.5343   -0.0144 C   0  0  0  0  0  0  0  0  0  0  0  0
    3.3818    0.8642    0.2887 C   0  0  0  0  0  0  0  0  0  0  0  0
    3.0557    1.6802    1.1294 O   0  0  0  0  0  0  0  0  0  0  0  0
    2.4802    0.1414   -0.4326 N   0  0  0  0  0  0  0  0  0  0  0  0
    1.0864    0.2049   -0.2826 C   0  0  0  0  0  0  0  0  0  0  0  0
    0.3646   -1.0283   -0.1040 C   0  0  0  0  0  0  0  0  0  0  0  0
    1.0075   -2.2747   -0.0071 C   0  0  0  0  0  0  0  0  0  0  0  0
    0.2572   -3.4120    0.1450 C   0  0  0  0  0  0  0  0  0  0  0  0
   -1.1363   -3.2883    0.2010 C   0  0  0  0  0  0  0  0  0  0  0  0
   -1.7635   -2.1379    0.1357 N   0  0  0  0  0  0  0  0  0  0  0  0
   -1.0434   -1.0162   -0.0058 C   0  0  0  0  0  0  0  0  0  0  0  0
   -1.7458    0.2489   -0.0357 C   0  0  0  0  0  0  0  0  0  0  0  0
   -3.0821    0.2508    0.0702 N   0  0  0  0  0  0  0  0  0  0  0  0
   -3.7103    1.4030    0.0464 C   0  0  0  0  0  0  0  0  0  0  0  0
   -3.0628    2.6402   -0.0842 C   0  0  0  0  0  0  0  0  0  0  0  0
   -1.6968    2.6511   -0.1943 C   0  0  0  0  0  0  0  0  0  0  0  0
   -0.9963    1.4325   -0.1706 C   0  0  0  0  0  0  0  0  0  0  0  0
    0.4215    1.3854   -0.3065 C   0  0  0  0  0  0  0  0  0  0  0  0
    5.1810   -0.1897    0.7182 H   0  0  0  0  0  0  0  0  0  0  0  0
    4.9615    0.1062   -1.0053 H   0  0  0  0  0  0  0  0  0  0  0  0
    5.4321    1.4288    0.0751 H   0  0  0  0  0  0  0  0  0  0  0  0
    2.8442   -0.5295   -1.0917 H   0  0  0  0  0  0  0  0  0  0  0  0
    2.0862   -2.3443   -0.0383 H   0  0  0  0  0  0  0  0  0  0  0  0
    0.7222   -4.3844    0.2268 H   0  0  0  0  0  0  0  0  0  0  0  0
   -1.7531   -4.1734    0.3127 H   0  0  0  0  0  0  0  0  0  0  0  0
   -4.7910    1.3693    0.1325 H   0  0  0  0  0  0  0  0  0  0  0  0
   -3.6389    3.5548   -0.0982 H   0  0  0  0  0  0  0  0  0  0  0  0
   -1.1519    3.5808   -0.3027 H   0  0  0  0  0  0  0  0  0  0  0  0
    0.9551    2.3142   -0.4569 H   0  0  0  0  0  0  0  0  0  0  0  0
  1  2  1  0
  2  3  2  0
  2  4  1  0
  4  5  1  0
  5  6  2  0
  5 18  1  0
  6  7  1  0
  6 11  1  0
  7  8  2  0
  8  9  1  0
  9 10  2  0
 10 11  1  0
 11 12  2  0
 12 13  1  0
 12 17  1  0
 13 14  2  0
 14 15  1  0
 15 16  2  0
 16 17  1  0
 17 18  2  0
  1 19  1  0
  1 20  1  0
  1 21  1  0
  4 22  1  0
  7 23  1  0
  8 24  1  0
  9 25  1  0
 14 26  1  0
 15 27  1  0
 16 28  1  0
 18 29  1  0
M  END
