
     RDKit          3D

 34 36  0  0  0  0  0  0  0  0999 V2000
   -0.6093   -0.1195    2.3071 C   0  0  0  0  0  0  0  0  0  0  0  0
    0.0777    0.1120    3.5067 C   0  0  0  0  0  0  0  0  0  0  0  0
   -0.6239    0.1180    4.7100 C   0  0  0  0  0  0  0  0  0  0  0  0
   -1.9935   -0.0907    4.7277 C   0  0  0  0  0  0  0  0  0  0  0  0
   -2.6711   -0.3274    3.5379 C   0  0  0  0  0  0  0  0  0  0  0  0
   -1.9844   -0.3485    2.3370 C   0  0  0  0  0  0  0  0  0  0  0  0
    0.2259   -0.0781   -1.1039 C   0  0  0  0  0  0  0  0  0  0  0  0
    1.5917   -0.2626   -1.1711 C   0  0  0  0  0  0  0  0  0  0  0  0
    2.2498   -0.3543   -2.3960 C   0  0  0  0  0  0  0  0  0  0  0  0
    1.5397   -0.2708   -3.5756 C   0  0  0  0  0  0  0  0  0  0  0  0
    0.1302   -0.0738   -3.5579 C   0  0  0  0  0  0  0  0  0  0  0  0
   -0.6167    0.0219   -4.7555 C   0  0  0  0  0  0  0  0  0  0  0  0
   -1.9700    0.2174   -4.7163 C   0  0  0  0  0  0  0  0  0  0  0  0
   -2.6307    0.3244   -3.4780 C   0  0  0  0  0  0  0  0  0  0  0  0
   -1.9326    0.2349   -2.3044 C   0  0  0  0  0  0  0  0  0  0  0  0
   -0.5324    0.0322   -2.3073 C   0  0  0  0  0  0  0  0  0  0  0  0
    1.5318    0.4239    3.4976 C   0  0  0  0  0  0  0  0  0  0  0  0
    0.1436   -0.2218    1.1264 N   0  0  0  0  0  0  0  0  0  0  0  0
   -0.4840    0.0430    0.0904 N   0  0  0  0  0  0  0  0  0  0  0  0
    2.0881    1.0667    2.6440 O   0  0  0  0  0  0  0  0  0  0  0  0
    2.1504   -0.0719    4.5623 O   0  0  0  0  0  0  0  0  0  0  0  0
    2.1189   -0.3586   -4.7758 O   0  0  0  0  0  0  0  0  0  0  0  0
   -0.1046    0.3087    5.6392 H   0  0  0  0  0  0  0  0  0  0  0  0
   -2.5287   -0.0771    5.6673 H   0  0  0  0  0  0  0  0  0  0  0  0
   -3.7381   -0.5064    3.5476 H   0  0  0  0  0  0  0  0  0  0  0  0
   -2.5053   -0.5672    1.4147 H   0  0  0  0  0  0  0  0  0  0  0  0
    2.1681   -0.3233   -0.2577 H   0  0  0  0  0  0  0  0  0  0  0  0
    3.3251   -0.4866   -2.4166 H   0  0  0  0  0  0  0  0  0  0  0  0
   -0.1158   -0.0592   -5.7102 H   0  0  0  0  0  0  0  0  0  0  0  0
   -2.5344    0.2922   -5.6362 H   0  0  0  0  0  0  0  0  0  0  0  0
   -3.7016    0.4783   -3.4543 H   0  0  0  0  0  0  0  0  0  0  0  0
   -2.4522    0.3202   -1.3607 H   0  0  0  0  0  0  0  0  0  0  0  0
    3.0813    0.1983    4.5588 H   0  0  0  0  0  0  0  0  0  0  0  0
    3.0710   -0.4883   -4.6881 H   0  0  0  0  0  0  0  0  0  0  0  0
  1  2  2  0
  1  6  1  0
  1 18  1  0
  2  3  1  0
  2 17  1  0
  3  4  2  0
  3 23  1  0
  4  5  1  0
  4 24  1  0
  5  6  2  0
  5 25  1  0
  6 26  1  0
  7  8  2  0
  7 16  1  0
  7 19  1  0
  8  9  1  0
  8 27  1  0
  9 10  2  0
  9 28  1  0
 10 11  1  0
 10 22  1  0
 11 12  1  0
 11 16  2  0
 12 13  2  0
 12 29  1  0
 13 14  1  0
 13 30  1  0
 14 15  2  0
 14 31  1  0
 15 16  1  0
 15 32  1  0
 17 20  2  0
 17 21  1  0
 18 19  2  0
 21 33  1  0
 22 34  1  0
M  END
