
     RDKit          3D

 29 29  0  0  0  0  0  0  0  0999 V2000
    2.3449   -0.1453    0.0182 S   0  0  1  0  0  0  0  0  0  0  0  0
    2.9170    0.4992    1.1889 O   0  0  0  0  0  0  0  0  0  0  0  0
    2.8621   -1.4519   -0.3305 O   0  0  0  0  0  0  0  0  0  0  0  0
    0.5749   -0.1401    0.0660 C   0  0  0  0  0  0  0  0  0  0  0  0
   -0.0957    1.1043    0.0980 C   0  0  0  0  0  0  0  0  0  0  0  0
   -1.4870    1.1347    0.0206 C   0  0  0  0  0  0  0  0  0  0  0  0
   -2.1921   -0.0771   -0.0071 C   0  0  0  0  0  0  0  0  0  0  0  0
   -1.5151   -1.2876    0.0323 C   0  0  0  0  0  0  0  0  0  0  0  0
   -0.1279   -1.3539    0.0608 C   0  0  0  0  0  0  0  0  0  0  0  0
    0.6033    2.4349    0.2073 C   0  0  0  0  0  0  0  0  0  0  0  0
   -2.2334    2.4392   -0.0219 C   0  0  0  0  0  0  0  0  0  0  0  0
    0.4643   -2.7376    0.1140 C   0  0  0  0  0  0  0  0  0  0  0  0
   -3.5268    0.0090   -0.0551 O   0  0  0  0  0  0  0  0  0  0  0  0
   -4.2987   -1.1749   -0.1444 C   0  0  0  0  0  0  0  0  0  0  0  0
   -2.0656   -2.2183    0.0403 H   0  0  0  0  0  0  0  0  0  0  0  0
    0.6872    2.9143   -0.7697 H   0  0  0  0  0  0  0  0  0  0  0  0
    0.0268    3.1039    0.8434 H   0  0  0  0  0  0  0  0  0  0  0  0
    1.5955    2.3818    0.6386 H   0  0  0  0  0  0  0  0  0  0  0  0
   -1.7362    3.1620   -0.6673 H   0  0  0  0  0  0  0  0  0  0  0  0
   -3.2454    2.3138   -0.3966 H   0  0  0  0  0  0  0  0  0  0  0  0
   -2.3095    2.8911    0.9702 H   0  0  0  0  0  0  0  0  0  0  0  0
    1.1736   -2.8593    0.9295 H   0  0  0  0  0  0  0  0  0  0  0  0
   -0.3361   -3.4590    0.2645 H   0  0  0  0  0  0  0  0  0  0  0  0
    0.9749   -3.0017   -0.8100 H   0  0  0  0  0  0  0  0  0  0  0  0
   -4.0514   -1.7537   -1.0371 H   0  0  0  0  0  0  0  0  0  0  0  0
   -4.1759   -1.8097    0.7360 H   0  0  0  0  0  0  0  0  0  0  0  0
   -5.3361   -0.8576   -0.2060 H   0  0  0  0  0  0  0  0  0  0  0  0
    2.5560    0.8060   -1.2588 O   0  0  0  0  0  0  0  0  0  0  0  0
    3.3853    1.3094   -1.1910 H   0  0  0  0  0  0  0  0  0  0  0  0
  1  2  2  0
  1  3  2  0
  1  4  1  0
  4  5  2  0
  4  9  1  0
  5  6  1  0
  5 10  1  0
  6  7  2  0
  6 11  1  0
  7  8  1  0
  7 13  1  0
  8  9  2  0
  8 15  1  0
  9 12  1  0
 10 16  1  0
 10 17  1  0
 10 18  1  0
 11 19  1  0
 11 20  1  0
 11 21  1  0
 12 22  1  0
 12 23  1  0
 12 24  1  0
 13 14  1  0
 14 25  1  0
 14 26  1  0
 14 27  1  0
  1 28  1  6
 28 29  1  0
M  END
