
     RDKit          3D

100 99  0  0  0  0  0  0  0  0999 V2000
  -14.2982   -4.0945    0.0144 C   0  0  0  0  0  0  0  0  0  0  0  0
  -15.0714   -2.8085   -0.2618 C   0  0  1  0  0  0  0  0  0  0  0  0
  -16.5732   -3.0748   -0.2263 C   0  0  0  0  0  0  0  0  0  0  0  0
  -14.7088   -1.6906    0.7175 C   0  0  0  0  0  0  0  0  0  0  0  0
  -13.2528   -1.2431    0.6708 C   0  0  0  0  0  0  0  0  0  0  0  0
  -12.9880   -0.0496    1.5914 C   0  0  0  0  0  0  0  0  0  0  0  0
  -11.5571    0.4173    1.5770 C   0  0  0  0  0  0  0  0  0  0  0  0
  -10.5574   -0.5505    2.1404 C   0  0  0  0  0  0  0  0  0  0  0  0
  -11.2365    1.6093    1.0665 C   0  0  0  0  0  0  0  0  0  0  0  0
   -9.8667    2.2002    0.9338 C   0  0  0  0  0  0  0  0  0  0  0  0
   -9.2657    1.9392   -0.4598 C   0  0  0  0  0  0  0  0  0  0  0  0
   -7.9189    2.5799   -0.6387 C   0  0  0  0  0  0  0  0  0  0  0  0
   -7.9259    4.0722   -0.7678 C   0  0  0  0  0  0  0  0  0  0  0  0
   -6.8081    1.8195   -0.6408 C   0  0  0  0  0  0  0  0  0  0  0  0
   -5.4426    2.2755   -0.7524 C   0  0  0  0  0  0  0  0  0  0  0  0
   -4.3863    1.4370   -0.7139 C   0  0  0  0  0  0  0  0  0  0  0  0
   -2.9944    1.8232   -0.8035 C   0  0  0  0  0  0  0  0  0  0  0  0
   -2.6706    3.2782   -0.9644 C   0  0  0  0  0  0  0  0  0  0  0  0
   -2.0538    0.8451   -0.7289 C   0  0  0  0  0  0  0  0  0  0  0  0
   -0.6300    1.0012   -0.7714 C   0  0  0  0  0  0  0  0  0  0  0  0
    0.2287   -0.0447   -0.6962 C   0  0  0  0  0  0  0  0  0  0  0  0
    1.6521    0.1114   -0.7200 C   0  0  0  0  0  0  0  0  0  0  0  0
    2.5921   -0.8704   -0.6685 C   0  0  0  0  0  0  0  0  0  0  0  0
    2.2638   -2.3317   -0.5915 C   0  0  0  0  0  0  0  0  0  0  0  0
    3.9818   -0.4791   -0.6892 C   0  0  0  0  0  0  0  0  0  0  0  0
    5.0414   -1.3199   -0.6667 C   0  0  0  0  0  0  0  0  0  0  0  0
    6.3988   -0.8530   -0.6643 C   0  0  0  0  0  0  0  0  0  0  0  0
    7.5277   -1.6081   -0.6675 C   0  0  0  0  0  0  0  0  0  0  0  0
    7.5245   -3.1074   -0.7022 C   0  0  0  0  0  0  0  0  0  0  0  0
    8.8059   -0.9285   -0.6300 C   0  0  0  0  0  0  0  0  0  0  0  0
   10.0155   -1.5256   -0.6374 C   0  0  0  0  0  0  0  0  0  0  0  0
   11.2565   -0.7902   -0.5649 C   0  0  0  0  0  0  0  0  0  0  0  0
   12.5008   -1.3012   -0.6063 C   0  0  0  0  0  0  0  0  0  0  0  0
   12.8152   -2.7542   -0.7880 C   0  0  0  0  0  0  0  0  0  0  0  0
   13.6935   -0.3997   -0.4604 C   0  0  0  0  0  0  0  0  0  0  0  0
   14.3114   -0.4684    0.9484 C   0  0  0  0  0  0  0  0  0  0  0  0
   15.5868    0.3102    1.0259 C   0  0  0  0  0  0  0  0  0  0  0  0
   15.8126    1.4612    1.6646 C   0  0  0  0  0  0  0  0  0  0  0  0
   14.7919    2.2053    2.4732 C   0  0  0  0  0  0  0  0  0  0  0  0
   17.1588    2.1237    1.6093 C   0  0  0  0  0  0  0  0  0  0  0  0
  -14.5914   -4.8841   -0.6802 H   0  0  0  0  0  0  0  0  0  0  0  0
  -13.2206   -3.9587   -0.0840 H   0  0  0  0  0  0  0  0  0  0  0  0
  -14.4968   -4.4571    1.0267 H   0  0  0  0  0  0  0  0  0  0  0  0
  -14.8120   -2.4661   -1.2713 H   0  0  0  0  0  0  0  0  0  0  0  0
  -16.8831   -3.4140    0.7652 H   0  0  0  0  0  0  0  0  0  0  0  0
  -17.1440   -2.1745   -0.4617 H   0  0  0  0  0  0  0  0  0  0  0  0
  -16.8584   -3.8471   -0.9430 H   0  0  0  0  0  0  0  0  0  0  0  0
  -15.3503   -0.8259    0.5126 H   0  0  0  0  0  0  0  0  0  0  0  0
  -14.9551   -2.0139    1.7366 H   0  0  0  0  0  0  0  0  0  0  0  0
  -12.5999   -2.0742    0.9503 H   0  0  0  0  0  0  0  0  0  0  0  0
  -12.9832   -0.9711   -0.3554 H   0  0  0  0  0  0  0  0  0  0  0  0
  -13.6472    0.7757    1.3064 H   0  0  0  0  0  0  0  0  0  0  0  0
  -13.2650   -0.3315    2.6145 H   0  0  0  0  0  0  0  0  0  0  0  0
  -10.9002   -0.9486    3.0985 H   0  0  0  0  0  0  0  0  0  0  0  0
  -10.4256   -1.4075    1.4759 H   0  0  0  0  0  0  0  0  0  0  0  0
   -9.5742   -0.1103    2.2960 H   0  0  0  0  0  0  0  0  0  0  0  0
  -12.0441    2.2149    0.6609 H   0  0  0  0  0  0  0  0  0  0  0  0
   -9.9243    3.2777    1.1090 H   0  0  0  0  0  0  0  0  0  0  0  0
   -9.1826    1.8015    1.6854 H   0  0  0  0  0  0  0  0  0  0  0  0
   -9.1931    0.8591   -0.6091 H   0  0  0  0  0  0  0  0  0  0  0  0
   -8.2380    4.5462    0.1665 H   0  0  0  0  0  0  0  0  0  0  0  0
   -6.9609    4.4939   -1.0399 H   0  0  0  0  0  0  0  0  0  0  0  0
   -8.6499    4.3815   -1.5251 H   0  0  0  0  0  0  0  0  0  0  0  0
   -6.9371    0.7444   -0.5386 H   0  0  0  0  0  0  0  0  0  0  0  0
   -5.2702    3.3400   -0.8651 H   0  0  0  0  0  0  0  0  0  0  0  0
   -4.5785    0.3731   -0.5956 H   0  0  0  0  0  0  0  0  0  0  0  0
   -3.0132    3.8518   -0.1005 H   0  0  0  0  0  0  0  0  0  0  0  0
   -1.6067    3.4640   -1.0837 H   0  0  0  0  0  0  0  0  0  0  0  0
   -3.1756    3.6932   -1.8389 H   0  0  0  0  0  0  0  0  0  0  0  0
   -2.4105   -0.1758   -0.6157 H   0  0  0  0  0  0  0  0  0  0  0  0
   -0.2152    2.0000   -0.8627 H   0  0  0  0  0  0  0  0  0  0  0  0
   -0.1870   -1.0434   -0.6089 H   0  0  0  0  0  0  0  0  0  0  0  0
    2.0112    1.1358   -0.7842 H   0  0  0  0  0  0  0  0  0  0  0  0
    2.6435   -2.8638   -1.4666 H   0  0  0  0  0  0  0  0  0  0  0  0
    2.7278   -2.7911    0.2836 H   0  0  0  0  0  0  0  0  0  0  0  0
    1.1953   -2.5206   -0.5317 H   0  0  0  0  0  0  0  0  0  0  0  0
    4.1756    0.5905   -0.7225 H   0  0  0  0  0  0  0  0  0  0  0  0
    4.8678   -2.3896   -0.6404 H   0  0  0  0  0  0  0  0  0  0  0  0
    6.5234    0.2272   -0.6511 H   0  0  0  0  0  0  0  0  0  0  0  0
    8.0554   -3.4760   -1.5826 H   0  0  0  0  0  0  0  0  0  0  0  0
    8.0360   -3.5196    0.1700 H   0  0  0  0  0  0  0  0  0  0  0  0
    6.5230   -3.5282   -0.7265 H   0  0  0  0  0  0  0  0  0  0  0  0
    8.7687    0.1575   -0.5853 H   0  0  0  0  0  0  0  0  0  0  0  0
   10.0690   -2.6074   -0.6905 H   0  0  0  0  0  0  0  0  0  0  0  0
   11.1596    0.2884   -0.4623 H   0  0  0  0  0  0  0  0  0  0  0  0
   13.2283   -2.9255   -1.7859 H   0  0  0  0  0  0  0  0  0  0  0  0
   13.5781   -3.0841   -0.0806 H   0  0  0  0  0  0  0  0  0  0  0  0
   11.9554   -3.4097   -0.6728 H   0  0  0  0  0  0  0  0  0  0  0  0
   14.4581   -0.6754   -1.1950 H   0  0  0  0  0  0  0  0  0  0  0  0
   13.4169    0.6363   -0.6683 H   0  0  0  0  0  0  0  0  0  0  0  0
   13.5738   -0.1189    1.6725 H   0  0  0  0  0  0  0  0  0  0  0  0
   14.5191   -1.5129    1.2017 H   0  0  0  0  0  0  0  0  0  0  0  0
   16.4116   -0.1177    0.4599 H   0  0  0  0  0  0  0  0  0  0  0  0
   15.1558    2.3747    3.4897 H   0  0  0  0  0  0  0  0  0  0  0  0
   14.6117    3.1936    2.0425 H   0  0  0  0  0  0  0  0  0  0  0  0
   13.8333    1.6957    2.5422 H   0  0  0  0  0  0  0  0  0  0  0  0
   17.8674    1.5675    0.9961 H   0  0  0  0  0  0  0  0  0  0  0  0
   17.0792    3.1350    1.2015 H   0  0  0  0  0  0  0  0  0  0  0  0
   17.5857    2.2288    2.6104 H   0  0  0  0  0  0  0  0  0  0  0  0
   -9.9578    2.3200   -1.2187 H   0  0  0  0  0  0  0  0  0  0  0  0
 40 38  1  0
 37 38  2  0
 37 36  1  0
 39 38  1  0
 35 36  1  0
 35 33  1  0
 33 34  1  0
 33 32  2  0
 32 31  1  0
 30 31  2  0
 30 28  1  0
 29 28  1  0
 28 27  2  0
 27 26  1  0
 26 25  2  0
 25 23  1  0
 24 23  1  0
 23 22  2  0
 22 21  1  0
 21 20  2  0
 20 19  1  0
 19 17  2  0
 17 18  1  0
 17 16  1  0
 16 15  2  0
 15 14  1  0
 14 12  2  0
 12 11  1  0
 12 13  1  0
 11 10  1  0
 10  9  1  0
  9  7  2  0
  4  5  1  0
  4  2  1  0
  7  6  1  0
  7  8  1  0
  5  6  1  0
  3  2  1  0
  2  1  1  0
  1 41  1  0
  1 42  1  0
  1 43  1  0
  2 44  1  6
  3 45  1  0
  3 46  1  0
  3 47  1  0
  4 48  1  0
  4 49  1  0
  5 50  1  0
  5 51  1  0
  6 52  1  0
  6 53  1  0
  8 54  1  0
  8 55  1  0
  8 56  1  0
  9 57  1  0
 10 58  1  0
 10 59  1  0
 11 60  1  0
 13 61  1  0
 13 62  1  0
 13 63  1  0
 14 64  1  0
 15 65  1  0
 16 66  1  0
 18 67  1  0
 18 68  1  0
 18 69  1  0
 19 70  1  0
 20 71  1  0
 21 72  1  0
 22 73  1  0
 24 74  1  0
 24 75  1  0
 24 76  1  0
 25 77  1  0
 26 78  1  0
 27 79  1  0
 29 80  1  0
 29 81  1  0
 29 82  1  0
 30 83  1  0
 31 84  1  0
 32 85  1  0
 34 86  1  0
 34 87  1  0
 34 88  1  0
 35 89  1  0
 35 90  1  0
 36 91  1  0
 36 92  1  0
 37 93  1  0
 39 94  1  0
 39 95  1  0
 39 96  1  0
 40 97  1  0
 40 98  1  0
 40 99  1  0
 11100  1  0
M  END
