
     RDKit          3D

 68 71  0  0  0  0  0  0  0  0999 V2000
   -0.4365   -3.1071   -0.3441 C   0  0  0  0  0  0  0  0  0  0  0  0
   -1.7182   -3.5637   -0.0952 C   0  0  0  0  0  0  0  0  0  0  0  0
   -2.5326   -2.8851    0.8065 C   0  0  0  0  0  0  0  0  0  0  0  0
   -3.9167   -3.3949    1.0476 C   0  0  1  0  0  0  0  0  0  0  0  0
   -3.9087   -4.6269    1.5774 F   0  0  0  0  0  0  0  0  0  0  0  0
   -4.6212   -2.6172    1.8742 F   0  0  0  0  0  0  0  0  0  0  0  0
   -4.6173   -3.4824   -0.0956 F   0  0  0  0  0  0  0  0  0  0  0  0
   -2.0491   -1.7604    1.4589 C   0  0  0  0  0  0  0  0  0  0  0  0
   -0.7585   -1.3161    1.2098 C   0  0  0  0  0  0  0  0  0  0  0  0
    0.0584   -1.9767    0.3014 C   0  0  0  0  0  0  0  0  0  0  0  0
    1.4708   -1.5198    0.0206 C   0  0  0  0  0  0  0  0  0  0  0  0
    1.6194   -0.0750    0.0666 N   0  0  0  0  0  0  0  0  0  0  0  0
    2.3838    0.6534    1.3291 S   0  0  1  0  0  0  0  0  0  0  0  0
    4.0181    1.0029    0.7354 C   0  0  0  0  0  0  0  0  0  0  0  0
    4.3672    2.2978    0.3832 C   0  0  0  0  0  0  0  0  0  0  0  0
    5.6276    2.5349   -0.1410 C   0  0  0  0  0  0  0  0  0  0  0  0
    6.5224    1.4880   -0.3332 C   0  0  0  0  0  0  0  0  0  0  0  0
    7.8720    1.8087   -0.9045 C   0  0  0  0  0  0  0  0  0  0  0  0
    8.3529    2.9246   -0.7759 O   0  0  0  0  0  0  0  0  0  0  0  0
    8.4920    0.8082   -1.5432 N   0  0  0  0  0  0  0  0  0  0  0  0
    6.1585    0.1962    0.0422 C   0  0  0  0  0  0  0  0  0  0  0  0
    4.9088   -0.0513    0.5820 C   0  0  0  0  0  0  0  0  0  0  0  0
    1.7273    1.9241    1.5850 O   0  0  0  0  0  0  0  0  0  0  0  0
    2.4747   -0.3306    2.3950 O   0  0  0  0  0  0  0  0  0  0  0  0
    1.4377    0.6976   -1.1587 C   0  0  2  0  0  0  0  0  0  0  0  0
    0.1058    0.4271   -1.8535 C   0  0  1  0  0  0  0  0  0  0  0  0
   -0.9948    1.0662   -1.1752 N   0  0  0  0  0  0  0  0  0  0  0  0
   -2.2835    0.5190   -1.5544 C   0  0  0  0  0  0  0  0  0  0  0  0
   -3.3997    1.1216   -0.7469 C   0  0  0  0  0  0  0  0  0  0  0  0
   -3.4069    2.4761   -0.4198 C   0  0  0  0  0  0  0  0  0  0  0  0
   -4.4469    3.0199    0.3146 C   0  0  0  0  0  0  0  0  0  0  0  0
   -5.4982    2.2211    0.7597 C   0  0  0  0  0  0  0  0  0  0  0  0
   -6.5967    2.8666    1.5416 C   0  0  0  0  0  0  0  0  0  0  0  0
   -7.3333    2.0568    2.3181 N   0  0  0  0  0  0  0  0  0  0  0  0
   -6.8029    4.0706    1.4620 O   0  0  0  0  0  0  0  0  0  0  0  0
   -5.4966    0.8682    0.4289 C   0  0  0  0  0  0  0  0  0  0  0  0
   -4.4586    0.3300   -0.3158 C   0  0  0  0  0  0  0  0  0  0  0  0
    0.4189    0.9508   -3.2545 C   0  0  0  0  0  0  0  0  0  0  0  0
    1.7672    0.4764   -3.5442 N   0  0  0  0  0  0  0  0  0  0  0  0
    2.4922    0.4761   -2.2699 C   0  0  0  0  0  0  0  0  0  0  0  0
    0.1840   -3.6322   -1.0598 H   0  0  0  0  0  0  0  0  0  0  0  0
   -2.0760   -4.4420   -0.6174 H   0  0  0  0  0  0  0  0  0  0  0  0
   -2.6644   -1.2135    2.1595 H   0  0  0  0  0  0  0  0  0  0  0  0
   -0.4044   -0.4383    1.7344 H   0  0  0  0  0  0  0  0  0  0  0  0
    2.1426   -1.9939    0.7368 H   0  0  0  0  0  0  0  0  0  0  0  0
    1.7883   -1.8814   -0.9604 H   0  0  0  0  0  0  0  0  0  0  0  0
    3.6745    3.1179    0.5104 H   0  0  0  0  0  0  0  0  0  0  0  0
    5.9087    3.5434   -0.4106 H   0  0  0  0  0  0  0  0  0  0  0  0
    8.0342   -0.0576   -1.7703 H   0  0  0  0  0  0  0  0  0  0  0  0
    9.3903    0.9712   -1.9691 H   0  0  0  0  0  0  0  0  0  0  0  0
    6.8497   -0.6301   -0.0573 H   0  0  0  0  0  0  0  0  0  0  0  0
    4.6458   -1.0586    0.8765 H   0  0  0  0  0  0  0  0  0  0  0  0
    1.4292    1.7538   -0.8778 H   0  0  0  0  0  0  0  0  0  0  0  0
   -0.0434   -0.6627   -1.9431 H   0  0  0  0  0  0  0  0  0  0  0  0
   -0.8819    0.9454   -0.1748 H   0  0  0  0  0  0  0  0  0  0  0  0
   -2.4532    0.7290   -2.6156 H   0  0  0  0  0  0  0  0  0  0  0  0
   -2.3189   -0.5765   -1.4507 H   0  0  0  0  0  0  0  0  0  0  0  0
   -2.5897    3.1088   -0.7412 H   0  0  0  0  0  0  0  0  0  0  0  0
   -4.4362    4.0750    0.5537 H   0  0  0  0  0  0  0  0  0  0  0  0
   -7.0785    1.1030    2.5044 H   0  0  0  0  0  0  0  0  0  0  0  0
   -8.0739    2.4460    2.8789 H   0  0  0  0  0  0  0  0  0  0  0  0
   -6.3094    0.2178    0.7265 H   0  0  0  0  0  0  0  0  0  0  0  0
   -4.4771   -0.7219   -0.5708 H   0  0  0  0  0  0  0  0  0  0  0  0
   -0.2807    0.6047   -4.0149 H   0  0  0  0  0  0  0  0  0  0  0  0
    0.3895    2.0458   -3.2472 H   0  0  0  0  0  0  0  0  0  0  0  0
    1.7076   -0.4722   -3.8889 H   0  0  0  0  0  0  0  0  0  0  0  0
    3.2341    1.2769   -2.2411 H   0  0  0  0  0  0  0  0  0  0  0  0
    3.0369   -0.4607   -2.1361 H   0  0  0  0  0  0  0  0  0  0  0  0
  1  2  2  0
  1 10  1  0
  2  3  1  0
  3  4  1  0
  3  8  2  0
  4  5  1  1
  4  6  1  0
  4  7  1  0
  8  9  1  0
  9 10  2  0
 10 11  1  0
 11 12  1  0
 13 12  1  6
 12 25  1  0
 13 14  1  0
 13 23  2  0
 13 24  2  0
 14 15  2  0
 14 22  1  0
 15 16  1  0
 16 17  2  0
 17 18  1  0
 17 21  1  0
 18 19  2  0
 18 20  1  0
 21 22  2  0
 25 26  1  0
 25 40  1  0
 26 27  1  0
 26 38  1  0
 27 28  1  0
 28 29  1  0
 29 30  2  0
 29 37  1  0
 30 31  1  0
 31 32  2  0
 32 33  1  0
 32 36  1  0
 33 34  1  0
 33 35  2  0
 36 37  2  0
 38 39  1  0
 39 40  1  0
  1 41  1  0
  2 42  1  0
  8 43  1  0
  9 44  1  0
 11 45  1  0
 11 46  1  0
 15 47  1  0
 16 48  1  0
 20 49  1  0
 20 50  1  0
 21 51  1  0
 22 52  1  0
 25 53  1  1
 26 54  1  6
 27 55  1  0
 28 56  1  0
 28 57  1  0
 30 58  1  0
 31 59  1  0
 34 60  1  0
 34 61  1  0
 36 62  1  0
 37 63  1  0
 38 64  1  0
 38 65  1  0
 39 66  1  0
 40 67  1  0
 40 68  1  0
M  END
