
     RDKit          3D

 39 40  0  0  0  0  0  0  0  0999 V2000
   -6.8118   -0.1301   -0.2903 C   0  0  0  0  0  0  0  0  0  0  0  0
   -5.4924   -0.2711    0.4622 C   0  0  1  0  0  0  0  0  0  0  0  0
   -5.3357   -1.6884    1.0058 C   0  0  0  0  0  0  0  0  0  0  0  0
   -4.3230    0.1329   -0.4366 C   0  0  0  0  0  0  0  0  0  0  0  0
   -2.9710    0.1303    0.2612 C   0  0  0  0  0  0  0  0  0  0  0  0
   -0.6263    0.6633    0.0262 C   0  0  0  0  0  0  0  0  0  0  0  0
    0.4262    1.2936   -0.8832 C   0  0  0  0  0  0  0  0  0  0  0  0
    1.8030    1.1930   -0.3155 C   0  0  0  0  0  0  0  0  0  0  0  0
    2.5292    2.1801    0.2887 C   0  0  0  0  0  0  0  0  0  0  0  0
    3.8210    0.3681    0.3926 C   0  0  0  0  0  0  0  0  0  0  0  0
    4.8456   -0.5527    0.6095 C   0  0  0  0  0  0  0  0  0  0  0  0
    4.6480   -1.8443    0.1600 C   0  0  0  0  0  0  0  0  0  0  0  0
   -1.9334    0.6666   -0.5999 N   0  0  0  0  0  0  0  0  0  0  0  0
    3.7341    1.6903    0.7134 N   0  0  0  0  0  0  0  0  0  0  0  0
    3.4603   -2.2167   -0.4924 C   0  0  0  0  0  0  0  0  0  0  0  0
    2.4473   -1.3018   -0.7035 C   0  0  0  0  0  0  0  0  0  0  0  0
    2.6177    0.0145   -0.2587 C   0  0  0  0  0  0  0  0  0  0  0  0
   -7.6633   -0.3554    0.3542 H   0  0  0  0  0  0  0  0  0  0  0  0
   -6.9465    0.8827   -0.6743 H   0  0  0  0  0  0  0  0  0  0  0  0
   -6.8509   -0.8149   -1.1411 H   0  0  0  0  0  0  0  0  0  0  0  0
   -5.5139    0.4195    1.3141 H   0  0  0  0  0  0  0  0  0  0  0  0
   -5.2480   -2.4092    0.1887 H   0  0  0  0  0  0  0  0  0  0  0  0
   -4.4524   -1.7931    1.6371 H   0  0  0  0  0  0  0  0  0  0  0  0
   -6.1991   -1.9756    1.6086 H   0  0  0  0  0  0  0  0  0  0  0  0
   -4.2851   -0.5331   -1.3060 H   0  0  0  0  0  0  0  0  0  0  0  0
   -4.5159    1.1391   -0.8262 H   0  0  0  0  0  0  0  0  0  0  0  0
   -3.0519    0.6823    1.2132 H   0  0  0  0  0  0  0  0  0  0  0  0
   -2.6872   -0.8919    0.5282 H   0  0  0  0  0  0  0  0  0  0  0  0
   -0.3507   -0.3746    0.2396 H   0  0  0  0  0  0  0  0  0  0  0  0
   -0.6157    1.1875    0.9954 H   0  0  0  0  0  0  0  0  0  0  0  0
    0.3834    0.8045   -1.8609 H   0  0  0  0  0  0  0  0  0  0  0  0
    0.1721    2.3442   -1.0515 H   0  0  0  0  0  0  0  0  0  0  0  0
    2.2712    3.2151    0.4516 H   0  0  0  0  0  0  0  0  0  0  0  0
    5.7615   -0.2673    1.1119 H   0  0  0  0  0  0  0  0  0  0  0  0
    5.4225   -2.5847    0.3138 H   0  0  0  0  0  0  0  0  0  0  0  0
   -2.1768    1.6215   -0.8408 H   0  0  0  0  0  0  0  0  0  0  0  0
    4.4447    2.2298    1.1778 H   0  0  0  0  0  0  0  0  0  0  0  0
    3.3416   -3.2375   -0.8326 H   0  0  0  0  0  0  0  0  0  0  0  0
    1.5351   -1.6012   -1.2057 H   0  0  0  0  0  0  0  0  0  0  0  0
 11 12  2  0
 11 10  1  0
 12 15  1  0
 10 14  1  0
 10 17  2  0
 14  9  1  0
 15 16  2  0
  9  8  2  0
 17 16  1  0
 17  8  1  0
  8  7  1  0
  7  6  1  0
  6 13  1  0
 13  5  1  0
  5  4  1  0
  4  2  1  0
  3  2  1  0
  2  1  1  0
  1 18  1  0
  1 19  1  0
  1 20  1  0
  2 21  1  1
  3 22  1  0
  3 23  1  0
  3 24  1  0
  4 25  1  0
  4 26  1  0
  5 27  1  0
  5 28  1  0
  6 29  1  0
  6 30  1  0
  7 31  1  0
  7 32  1  0
  9 33  1  0
 11 34  1  0
 12 35  1  0
 13 36  1  0
 14 37  1  0
 15 38  1  0
 16 39  1  0
M  END
