
     RDKit          3D

 15 14  0  0  0  0  0  0  0  0999 V2000
   -2.6588   -0.0017   -0.0102 C   0  0  0  0  0  0  0  0  0  0  0  0
   -1.3506    0.7401    0.0101 C   0  0  0  0  0  0  0  0  0  0  0  0
    1.3539    0.7360    0.0237 C   0  0  0  0  0  0  0  0  0  0  0  0
    2.6599   -0.0099    0.0257 C   0  0  0  0  0  0  0  0  0  0  0  0
   -0.0001   -0.4610    0.0057 S   0  0  0  0  0  0  0  0  0  0  0  0
   -2.7558   -1.2017   -0.0235 O   0  0  0  0  0  0  0  0  0  0  0  0
   -3.6877    0.8303   -0.0115 O   0  0  0  0  0  0  0  0  0  0  0  0
    3.6913    0.8188    0.0256 O   0  0  0  0  0  0  0  0  0  0  0  0
    2.7531   -1.2103    0.0269 O   0  0  0  0  0  0  0  0  0  0  0  0
   -4.5206    0.3344   -0.0213 H   0  0  0  0  0  0  0  0  0  0  0  0
   -1.2908    1.3986   -0.8602 H   0  0  0  0  0  0  0  0  0  0  0  0
   -1.3065    1.3745    0.8990 H   0  0  0  0  0  0  0  0  0  0  0  0
    1.2992    1.3744    0.9094 H   0  0  0  0  0  0  0  0  0  0  0  0
    1.3090    1.3912   -0.8500 H   0  0  0  0  0  0  0  0  0  0  0  0
    4.5228    0.3203    0.0265 H   0  0  0  0  0  0  0  0  0  0  0  0
  6  1  2  0
  1  7  1  0
  1  2  1  0
  2  5  1  0
  5  3  1  0
  3  4  1  0
  4  9  2  0
  4  8  1  0
  7 10  1  0
  2 11  1  0
  2 12  1  0
  3 13  1  0
  3 14  1  0
  8 15  1  0
M  END
