
     RDKit          3D

 54 55  0  0  0  0  0  0  0  0999 V2000
   13.1042    2.6312   -0.2451 C   0  0  0  0  0  0  0  0  0  0  0  0
   -4.4674    1.6582    3.2556 O   0  0  0  0  0  0  0  0  0  0  0  0
   -2.5600    0.5407    2.9795 O   0  0  0  0  0  0  0  0  0  0  0  0
    1.7480   -3.6800    0.4687 C   0  0  0  0  0  0  0  0  0  0  0  0
    0.4760   -3.2453    0.1390 C   0  0  0  0  0  0  0  0  0  0  0  0
   -5.0294    0.1145   -1.3920 C   0  0  0  0  0  0  0  0  0  0  0  0
    2.8604   -2.8710    0.2655 C   0  0  0  0  0  0  0  0  0  0  0  0
   -3.7846   -0.3390   -0.9984 C   0  0  0  0  0  0  0  0  0  0  0  0
    1.4081   -1.1594   -0.6106 C   0  0  0  0  0  0  0  0  0  0  0  0
   -5.3460    1.0971    0.7713 C   0  0  0  0  0  0  0  0  0  0  0  0
   12.1676    1.4648    0.0379 C   0  0  0  0  0  0  0  0  0  0  0  0
   10.7223    1.7587   -0.3441 C   0  0  0  0  0  0  0  0  0  0  0  0
    9.7749    0.6011   -0.0548 C   0  0  0  0  0  0  0  0  0  0  0  0
    8.3292    0.9002   -0.4292 C   0  0  0  0  0  0  0  0  0  0  0  0
    7.3827   -0.2549   -0.1275 C   0  0  0  0  0  0  0  0  0  0  0  0
    5.9367    0.0567   -0.4936 C   0  0  0  0  0  0  0  0  0  0  0  0
    5.0188   -1.1019   -0.1661 C   0  0  0  0  0  0  0  0  0  0  0  0
    3.6927   -0.7336   -0.5136 O   0  0  0  0  0  0  0  0  0  0  0  0
   -1.6900   -0.6699    0.7591 S   0  0  0  0  0  0  0  0  0  0  0  0
   -5.8101    0.8354   -0.5014 C   0  0  0  0  0  0  0  0  0  0  0  0
    0.3059   -1.9764   -0.4130 C   0  0  0  0  0  0  0  0  0  0  0  0
    2.6906   -1.5994   -0.2773 C   0  0  0  0  0  0  0  0  0  0  0  0
   -3.2809   -0.0915    0.2813 C   0  0  0  0  0  0  0  0  0  0  0  0
   -4.0897    0.6410    1.1743 C   0  0  0  0  0  0  0  0  0  0  0  0
   14.1292    2.4043    0.0505 H   0  0  0  0  0  0  0  0  0  0  0  0
   13.1138    2.8812   -1.3076 H   0  0  0  0  0  0  0  0  0  0  0  0
   12.7937    3.5257    0.2986 H   0  0  0  0  0  0  0  0  0  0  0  0
    1.8880   -4.6665    0.8915 H   0  0  0  0  0  0  0  0  0  0  0  0
   -0.3813   -3.8866    0.3005 H   0  0  0  0  0  0  0  0  0  0  0  0
   -5.3751   -0.1025   -2.3937 H   0  0  0  0  0  0  0  0  0  0  0  0
    3.8384   -3.2471    0.5318 H   0  0  0  0  0  0  0  0  0  0  0  0
   -3.2138   -0.8998   -1.7219 H   0  0  0  0  0  0  0  0  0  0  0  0
    1.2834   -0.1686   -1.0329 H   0  0  0  0  0  0  0  0  0  0  0  0
   -5.9565    1.6597    1.4628 H   0  0  0  0  0  0  0  0  0  0  0  0
   12.5119    0.5780   -0.5034 H   0  0  0  0  0  0  0  0  0  0  0  0
   12.2153    1.2072    1.1006 H   0  0  0  0  0  0  0  0  0  0  0  0
   10.3798    2.6503    0.1934 H   0  0  0  0  0  0  0  0  0  0  0  0
   10.6725    2.0116   -1.4090 H   0  0  0  0  0  0  0  0  0  0  0  0
   10.1143   -0.2898   -0.5950 H   0  0  0  0  0  0  0  0  0  0  0  0
    9.8288    0.3472    1.0096 H   0  0  0  0  0  0  0  0  0  0  0  0
    7.9919    1.7937    0.1076 H   0  0  0  0  0  0  0  0  0  0  0  0
    8.2719    1.1476   -1.4947 H   0  0  0  0  0  0  0  0  0  0  0  0
    7.7160   -1.1472   -0.6683 H   0  0  0  0  0  0  0  0  0  0  0  0
    7.4454   -0.5038    0.9373 H   0  0  0  0  0  0  0  0  0  0  0  0
    5.6044    0.9471    0.0486 H   0  0  0  0  0  0  0  0  0  0  0  0
    5.8677    0.2883   -1.5605 H   0  0  0  0  0  0  0  0  0  0  0  0
    5.3240   -1.9973   -0.7208 H   0  0  0  0  0  0  0  0  0  0  0  0
    5.0801   -1.3404    0.9024 H   0  0  0  0  0  0  0  0  0  0  0  0
   -1.7177   -2.3034   -1.0381 H   0  0  0  0  0  0  0  0  0  0  0  0
   -1.0271   -0.7587   -1.5743 H   0  0  0  0  0  0  0  0  0  0  0  0
   -4.1114    1.8094    4.1438 H   0  0  0  0  0  0  0  0  0  0  0  0
   -1.0672   -1.4755   -0.7535 C   0  0  0  0  0  0  0  0  0  0  0  0
   -7.5082    1.4573   -1.0295 Br  0  0  0  0  0  0  0  0  0  0  0  0
   -3.6186    0.9305    2.5459 C   0  0  0  0  0  0  0  0  0  0  0  0
  1 11  1  0
  1 25  1  0
  1 26  1  0
  1 27  1  0
  2 54  1  0
  3 54  2  0
 53 20  1  0
  4  5  2  0
  4  7  1  0
  4 28  1  0
  5 21  1  0
  5 29  1  0
  6  8  2  0
  6 20  1  0
  6 30  1  0
  7 22  2  0
  7 31  1  0
  8 23  1  0
  8 32  1  0
  9 21  2  0
  9 22  1  0
  9 33  1  0
 10 20  2  0
 10 24  1  0
 10 34  1  0
 11 12  1  0
 11 35  1  0
 11 36  1  0
 12 13  1  0
 12 37  1  0
 12 38  1  0
 13 14  1  0
 13 39  1  0
 13 40  1  0
 14 15  1  0
 14 41  1  0
 14 42  1  0
 15 16  1  0
 15 43  1  0
 15 44  1  0
 16 17  1  0
 16 45  1  0
 16 46  1  0
 17 18  1  0
 17 47  1  0
 17 48  1  0
 52 19  1  0
 52 21  1  0
 52 49  1  0
 52 50  1  0
 18 22  1  0
 19 23  1  0
 54 24  1  0
 23 24  2  0
  2 51  1  0
M  END
