
     RDKit          3D

 24 25  0  0  0  0  0  0  0  0999 V2000
   -2.1923   -2.9511    0.1617 C   0  0  0  0  0  0  0  0  0  0  0  0
   -3.1739   -2.4869    0.6913 O   0  0  0  0  0  0  0  0  0  0  0  0
   -0.9377   -2.2153   -0.0897 C   0  0  0  0  0  0  0  0  0  0  0  0
   -0.8273   -0.9345    0.2666 C   0  0  0  0  0  0  0  0  0  0  0  0
    0.3831   -0.1296    0.1015 C   0  0  0  0  0  0  0  0  0  0  0  0
    1.6433   -0.7268    0.0952 C   0  0  0  0  0  0  0  0  0  0  0  0
    2.7851    0.0462   -0.0112 C   0  0  0  0  0  0  0  0  0  0  0  0
    2.7152    1.4273   -0.1144 C   0  0  0  0  0  0  0  0  0  0  0  0
    1.4710    2.0319   -0.1242 C   0  0  0  0  0  0  0  0  0  0  0  0
    0.3250    1.2620   -0.0138 C   0  0  0  0  0  0  0  0  0  0  0  0
   -0.9264    1.9208   -0.0333 N   0  0  0  0  0  0  0  0  0  0  0  0
   -1.3701    2.9246    0.7313 C   0  0  0  0  0  0  0  0  0  0  0  0
   -2.5684    3.2427    0.3245 N   0  0  0  0  0  0  0  0  0  0  0  0
   -2.8411    2.4231   -0.6943 N   0  0  0  0  0  0  0  0  0  0  0  0
   -1.8736    1.6320   -0.9242 N   0  0  0  0  0  0  0  0  0  0  0  0
    4.3285   -0.7262   -0.0002 Cl  0  0  0  0  0  0  0  0  0  0  0  0
   -0.1325   -2.7482   -0.5803 H   0  0  0  0  0  0  0  0  0  0  0  0
   -1.6832   -0.4521    0.7250 H   0  0  0  0  0  0  0  0  0  0  0  0
    1.7320   -1.7983    0.2089 H   0  0  0  0  0  0  0  0  0  0  0  0
    3.6110    2.0263   -0.1960 H   0  0  0  0  0  0  0  0  0  0  0  0
    1.3961    3.1057   -0.2306 H   0  0  0  0  0  0  0  0  0  0  0  0
   -0.8150    3.3624    1.5440 H   0  0  0  0  0  0  0  0  0  0  0  0
   -2.1130   -4.2029   -0.2709 O   0  0  0  0  0  0  0  0  0  0  0  0
   -2.9422   -4.6704   -0.0905 H   0  0  0  0  0  0  0  0  0  0  0  0
  1  2  2  0
  1  3  1  0
  3  4  2  0
  4  5  1  0
  5  6  2  0
  5 10  1  0
  6  7  1  0
  7  8  2  0
  7 16  1  0
  8  9  1  0
  9 10  2  0
 10 11  1  0
 11 12  1  0
 11 15  1  0
 12 13  2  0
 13 14  1  0
 14 15  2  0
  3 17  1  0
  4 18  1  0
  6 19  1  0
  8 20  1  0
  9 21  1  0
 12 22  1  0
  1 23  1  0
 23 24  1  0
M  END
