
     RDKit          3D

 45 48  0  0  0  0  0  0  0  0999 V2000
    1.5680   -3.4926   -1.3267 C   0  0  0  0  0  0  0  0  0  0  0  0
    1.9767   -3.0083    0.0646 C   0  0  1  0  0  0  0  0  0  0  0  0
    3.2106   -3.5454    0.4621 O   0  0  0  0  0  0  0  0  0  0  0  0
    2.0545   -1.5049    0.0915 C   0  0  0  0  0  0  0  0  0  0  0  0
    0.9765   -0.6616    0.1301 N   0  0  0  0  0  0  0  0  0  0  0  0
    1.4810    0.6143    0.0640 C   0  0  0  0  0  0  0  0  0  0  0  0
    2.8711    0.4514   -0.0142 C   0  0  0  0  0  0  0  0  0  0  0  0
    3.1906   -0.8827    0.0057 N   0  0  0  0  0  0  0  0  0  0  0  0
    3.7245    1.5582   -0.0994 C   0  0  0  0  0  0  0  0  0  0  0  0
    3.2627    2.7906   -0.1111 N   0  0  0  0  0  0  0  0  0  0  0  0
    1.9384    2.9263   -0.0337 C   0  0  0  0  0  0  0  0  0  0  0  0
    0.9505    1.9151    0.0603 C   0  0  0  0  0  0  0  0  0  0  0  0
   -0.3095    2.5835    0.1189 C   0  0  0  0  0  0  0  0  0  0  0  0
   -0.0469    3.9240    0.0590 C   0  0  0  0  0  0  0  0  0  0  0  0
    1.2948    4.1269   -0.0323 N   0  0  0  0  0  0  0  0  0  0  0  0
   -0.4184   -1.0738    0.2380 C   0  0  1  0  0  0  0  0  0  0  0  0
   -1.0445   -0.5973    1.5454 C   0  0  0  0  0  0  0  0  0  0  0  0
   -2.5074   -1.0153    1.6312 C   0  0  0  0  0  0  0  0  0  0  0  0
   -3.2992   -0.5411    0.4156 C   0  0  1  0  0  0  0  0  0  0  0  0
   -2.6768   -1.0893   -0.8655 C   0  0  0  0  0  0  0  0  0  0  0  0
   -1.2176   -0.6689   -0.9975 C   0  0  0  0  0  0  0  0  0  0  0  0
   -4.7662   -0.9593    0.5692 C   0  0  0  0  0  0  0  0  0  0  0  0
   -5.6076   -0.4624   -0.5085 C   0  0  0  0  0  0  0  0  0  0  0  0
   -6.2660   -0.0613   -1.3629 N   0  0  0  0  0  0  0  0  0  0  0  0
    2.2896   -3.1637   -2.0763 H   0  0  0  0  0  0  0  0  0  0  0  0
    1.5194   -4.5813   -1.3454 H   0  0  0  0  0  0  0  0  0  0  0  0
    0.5874   -3.1121   -1.6161 H   0  0  0  0  0  0  0  0  0  0  0  0
    1.2351   -3.3532    0.7923 H   0  0  0  0  0  0  0  0  0  0  0  0
    3.9058   -2.9630    0.1289 H   0  0  0  0  0  0  0  0  0  0  0  0
    4.7986    1.4196   -0.1600 H   0  0  0  0  0  0  0  0  0  0  0  0
   -1.2945    2.1551    0.1967 H   0  0  0  0  0  0  0  0  0  0  0  0
   -0.7323    4.7551    0.0759 H   0  0  0  0  0  0  0  0  0  0  0  0
   -0.4116   -2.1658    0.2691 H   0  0  0  0  0  0  0  0  0  0  0  0
   -0.4859   -1.0180    2.3842 H   0  0  0  0  0  0  0  0  0  0  0  0
   -0.9711    0.4883    1.6364 H   0  0  0  0  0  0  0  0  0  0  0  0
   -2.5782   -2.1065    1.7049 H   0  0  0  0  0  0  0  0  0  0  0  0
   -2.9441   -0.6120    2.5475 H   0  0  0  0  0  0  0  0  0  0  0  0
   -3.2591    0.5541    0.3822 H   0  0  0  0  0  0  0  0  0  0  0  0
   -2.7520   -2.1826   -0.8641 H   0  0  0  0  0  0  0  0  0  0  0  0
   -3.2249   -0.7399   -1.7437 H   0  0  0  0  0  0  0  0  0  0  0  0
   -1.1646    0.4105   -1.1538 H   0  0  0  0  0  0  0  0  0  0  0  0
   -0.7724   -1.1305   -1.8821 H   0  0  0  0  0  0  0  0  0  0  0  0
   -4.8557   -2.0483    0.5942 H   0  0  0  0  0  0  0  0  0  0  0  0
   -5.1761   -0.5830    1.5093 H   0  0  0  0  0  0  0  0  0  0  0  0
    1.7480    5.0243   -0.0957 H   0  0  0  0  0  0  0  0  0  0  0  0
  1  2  1  0
  8  4  2  0
  8  7  1  0
  2  4  1  0
  2  3  1  0
  9  7  2  0
  9 10  1  0
  4  5  1  0
  7  6  1  0
 21 20  1  0
 21 16  1  0
 10 11  2  0
  5  6  1  0
  5 16  1  0
  6 12  2  0
 20 19  1  0
 11 12  1  0
 11 15  1  0
 16 17  1  0
 12 13  1  0
 15 14  1  0
 24 23  3  0
 13 14  2  0
 23 22  1  0
 19 22  1  0
 19 18  1  0
 17 18  1  0
  1 25  1  0
  1 26  1  0
  1 27  1  0
  2 28  1  1
  3 29  1  0
  9 30  1  0
 13 31  1  0
 14 32  1  0
 16 33  1  1
 17 34  1  0
 17 35  1  0
 18 36  1  0
 18 37  1  0
 19 38  1  6
 20 39  1  0
 20 40  1  0
 21 41  1  0
 21 42  1  0
 22 43  1  0
 22 44  1  0
 15 45  1  0
M  END
