
     RDKit          3D

 48 47  0  0  0  0  0  0  0  0999 V2000
    2.0124    0.3029   -0.4136 C   0  0  0  0  0  0  0  0  0  0  0  0
    3.1747    0.2271    0.2549 N   0  0  0  0  0  0  0  0  0  0  0  0
    0.9795   -0.7422    0.0099 C   0  0  1  0  0  0  0  0  0  0  0  0
    4.2972    1.0723   -0.0340 C   0  0  2  0  0  0  0  0  0  0  0  0
    5.6046    0.3529    0.2910 C   0  0  0  0  0  0  0  0  0  0  0  0
    1.8045    1.0856   -1.3226 O   0  0  0  0  0  0  0  0  0  0  0  0
   -0.3179   -0.3547   -0.4627 N   0  0  0  0  0  0  0  0  0  0  0  0
   -1.4466   -0.4609    0.2671 C   0  0  0  0  0  0  0  0  0  0  0  0
   -2.7047   -0.1008   -0.4941 C   0  0  0  0  0  0  0  0  0  0  0  0
   -3.9320    0.0344    0.3919 C   0  0  0  0  0  0  0  0  0  0  0  0
   -5.1653    0.3229   -0.4568 C   0  0  0  0  0  0  0  0  0  0  0  0
   -6.4267    0.5713    0.3654 C   0  0  2  0  0  0  0  0  0  0  0  0
   -6.7722   -0.6227    1.1771 N   0  0  0  0  0  0  0  0  0  0  0  0
   -7.6293    0.9048   -0.4983 C   0  0  0  0  0  0  0  0  0  0  0  0
   -7.4296    2.0154   -1.1725 O   0  0  0  0  0  0  0  0  0  0  0  0
   -8.6215    0.2272   -0.5429 O   0  0  0  0  0  0  0  0  0  0  0  0
    4.1862    2.3916    0.7233 C   0  0  0  0  0  0  0  0  0  0  0  0
    5.2023    3.1906    0.4415 O   0  0  0  0  0  0  0  0  0  0  0  0
    3.2871    2.6704    1.4695 O   0  0  0  0  0  0  0  0  0  0  0  0
   -1.4566   -0.8337    1.4292 O   0  0  0  0  0  0  0  0  0  0  0  0
    1.4205   -2.1045   -0.5415 C   0  0  0  0  0  0  0  0  0  0  0  0
    0.2232   -3.3813   -0.0361 S   0  0  0  0  0  0  0  0  0  0  0  0
    5.6623   -1.2122   -0.6273 S   0  0  0  0  0  0  0  0  0  0  0  0
    7.3775   -1.6700   -0.2947 C   0  0  0  0  0  0  0  0  0  0  0  0
    3.2338   -0.3692    1.0666 H   0  0  0  0  0  0  0  0  0  0  0  0
    0.9457   -0.7918    1.1006 H   0  0  0  0  0  0  0  0  0  0  0  0
    4.2896    1.3081   -1.1022 H   0  0  0  0  0  0  0  0  0  0  0  0
    6.4492    0.9721   -0.0083 H   0  0  0  0  0  0  0  0  0  0  0  0
    5.6881    0.1582    1.3633 H   0  0  0  0  0  0  0  0  0  0  0  0
   -0.3864   -0.0426   -1.4194 H   0  0  0  0  0  0  0  0  0  0  0  0
   -2.8701   -0.8841   -1.2414 H   0  0  0  0  0  0  0  0  0  0  0  0
   -2.5384    0.8204   -1.0595 H   0  0  0  0  0  0  0  0  0  0  0  0
   -3.7887    0.8407    1.1158 H   0  0  0  0  0  0  0  0  0  0  0  0
   -4.0535   -0.8885    0.9632 H   0  0  0  0  0  0  0  0  0  0  0  0
   -5.3441   -0.4952   -1.1612 H   0  0  0  0  0  0  0  0  0  0  0  0
   -4.9876    1.2171   -1.0551 H   0  0  0  0  0  0  0  0  0  0  0  0
   -6.2618    1.3860    1.0740 H   0  0  0  0  0  0  0  0  0  0  0  0
   -6.8891   -1.4630    0.6086 H   0  0  0  0  0  0  0  0  0  0  0  0
   -7.6370   -0.4985    1.7054 H   0  0  0  0  0  0  0  0  0  0  0  0
   -6.0447   -0.8238    1.8635 H   0  0  0  0  0  0  0  0  0  0  0  0
   -8.1930    2.2190   -1.7354 H   0  0  0  0  0  0  0  0  0  0  0  0
    5.1220    4.0251    0.9283 H   0  0  0  0  0  0  0  0  0  0  0  0
    2.4074   -2.3599   -0.1577 H   0  0  0  0  0  0  0  0  0  0  0  0
    1.4745   -2.0655   -1.6303 H   0  0  0  0  0  0  0  0  0  0  0  0
    0.8126   -4.3984   -0.6736 H   0  0  0  0  0  0  0  0  0  0  0  0
    7.5639   -2.6195   -0.7928 H   0  0  0  0  0  0  0  0  0  0  0  0
    7.5510   -1.7969    0.7728 H   0  0  0  0  0  0  0  0  0  0  0  0
    8.0677   -0.9258   -0.6896 H   0  0  0  0  0  0  0  0  0  0  0  0
  1  2  1  0
  1  3  1  0
  1  6  2  0
  2  4  1  0
  2 25  1  0
  3  7  1  0
  3 21  1  0
  3 26  1  1
  4  5  1  0
  4 17  1  0
  4 27  1  6
  5 23  1  0
  5 28  1  0
  5 29  1  0
  7  8  1  0
  7 30  1  0
  8  9  1  0
  8 20  2  0
  9 10  1  0
  9 31  1  0
  9 32  1  0
 10 11  1  0
 10 33  1  0
 10 34  1  0
 11 12  1  0
 11 35  1  0
 11 36  1  0
 12 13  1  0
 12 14  1  0
 12 37  1  1
 13 38  1  0
 13 39  1  0
 13 40  1  0
 14 15  1  0
 14 16  2  0
 15 41  1  0
 17 18  1  0
 17 19  2  0
 18 42  1  0
 21 22  1  0
 21 43  1  0
 21 44  1  0
 22 45  1  0
 23 24  1  0
 24 46  1  0
 24 47  1  0
 24 48  1  0
M  CHG  1  13   1
M  END
