
     RDKit          3D

 81 86  0  0  0  0  0  0  0  0999 V2000
    6.8518   -1.0681   -3.1052 C   0  0  0  0  0  0  0  0  0  0  0  0
    6.1947   -1.3133   -4.3034 C   0  0  0  0  0  0  0  0  0  0  0  0
    4.8407   -1.6176   -4.3056 C   0  0  0  0  0  0  0  0  0  0  0  0
    4.1486   -1.6782   -3.1019 C   0  0  0  0  0  0  0  0  0  0  0  0
    4.8039   -1.4306   -1.9064 C   0  0  0  0  0  0  0  0  0  0  0  0
    6.1638   -1.1187   -1.8945 C   0  0  0  0  0  0  0  0  0  0  0  0
    6.8799   -0.8876   -0.6224 C   0  0  0  0  0  0  0  0  0  0  0  0
    8.0282   -1.6016   -0.3446 C   0  0  0  0  0  0  0  0  0  0  0  0
    8.6711   -1.4538    0.8814 C   0  0  0  0  0  0  0  0  0  0  0  0
    9.8814   -2.2166    1.1812 C   0  0  0  0  0  0  0  0  0  0  0  0
   10.4220   -2.9887    0.4027 O   0  0  0  0  0  0  0  0  0  0  0  0
   10.3810   -1.9999    2.4386 N   0  0  0  0  0  0  0  0  0  0  0  0
    9.8370   -1.1577    3.3640 C   0  0  0  0  0  0  0  0  0  0  0  0
    8.7260   -0.4418    3.1061 C   0  0  0  0  0  0  0  0  0  0  0  0
    8.1077   -0.5794    1.8239 C   0  0  0  0  0  0  0  0  0  0  0  0
    7.0106    0.1362    1.5479 N   0  0  0  0  0  0  0  0  0  0  0  0
    6.4236    0.0137    0.3720 C   0  0  0  0  0  0  0  0  0  0  0  0
    5.2480    0.8852    0.1531 C   0  0  0  0  0  0  0  0  0  0  0  0
    4.2671    0.9887    1.1389 C   0  0  0  0  0  0  0  0  0  0  0  0
    3.1502    1.7816    0.9397 C   0  0  0  0  0  0  0  0  0  0  0  0
    5.1050    1.6284   -1.0140 C   0  0  0  0  0  0  0  0  0  0  0  0
    3.9942    2.4373   -1.1999 C   0  0  0  0  0  0  0  0  0  0  0  0
    2.9966    2.5143   -0.2358 C   0  0  0  0  0  0  0  0  0  0  0  0
    1.7737    3.3656   -0.4502 C   0  0  0  0  0  0  0  0  0  0  0  0
    0.5477    2.6319   -0.2089 N   0  0  0  0  0  0  0  0  0  0  0  0
   -0.6031    3.5169   -0.1909 C   0  0  0  0  0  0  0  0  0  0  0  0
   -1.8692    2.7633    0.1856 C   0  0  0  0  0  0  0  0  0  0  0  0
    0.3648    1.5514   -1.1620 C   0  0  0  0  0  0  0  0  0  0  0  0
   -0.8625    0.7202   -0.8272 C   0  0  0  0  0  0  0  0  0  0  0  0
   -2.1077    1.5946   -0.7669 C   0  0  1  0  0  0  0  0  0  0  0  0
   -3.2520    0.7908   -0.3906 N   0  0  0  0  0  0  0  0  0  0  0  0
   -4.5226    1.1349   -0.7070 C   0  0  0  0  0  0  0  0  0  0  0  0
   -4.8008    2.0806   -1.4291 O   0  0  0  0  0  0  0  0  0  0  0  0
   -5.4650    0.2990   -0.1512 N   0  0  0  0  0  0  0  0  0  0  0  0
   -6.8478    0.3449   -0.2731 C   0  0  0  0  0  0  0  0  0  0  0  0
   -7.5485   -0.6917    0.3498 C   0  0  0  0  0  0  0  0  0  0  0  0
   -7.5553    1.3347   -0.9563 C   0  0  0  0  0  0  0  0  0  0  0  0
   -8.9374    1.2612   -1.0044 C   0  0  0  0  0  0  0  0  0  0  0  0
   -9.6253    0.2389   -0.3818 C   0  0  0  0  0  0  0  0  0  0  0  0
  -11.3597    0.2085   -0.4728 Cl  0  0  0  0  0  0  0  0  0  0  0  0
   -8.9369   -0.7614    0.3165 C   0  0  0  0  0  0  0  0  0  0  0  0
   -9.6628   -1.7865    0.9163 N   0  0  0  0  0  0  0  0  0  0  0  0
   -9.2784   -2.6356    1.9141 C   0  0  0  0  0  0  0  0  0  0  0  0
   -8.1787   -2.6157    2.4306 O   0  0  0  0  0  0  0  0  0  0  0  0
  -10.3560   -3.6238    2.3033 C   0  0  0  0  0  0  0  0  0  0  0  0
  -10.0580   -4.3652    3.5934 C   0  0  0  0  0  0  0  0  0  0  0  0
    7.9060   -0.8188   -3.1149 H   0  0  0  0  0  0  0  0  0  0  0  0
    6.7429   -1.2606   -5.2351 H   0  0  0  0  0  0  0  0  0  0  0  0
    4.3272   -1.8093   -5.2387 H   0  0  0  0  0  0  0  0  0  0  0  0
    3.0941   -1.9209   -3.0934 H   0  0  0  0  0  0  0  0  0  0  0  0
    4.2542   -1.4876   -0.9754 H   0  0  0  0  0  0  0  0  0  0  0  0
    8.4182   -2.3061   -1.0688 H   0  0  0  0  0  0  0  0  0  0  0  0
   10.3596   -1.1098    4.3074 H   0  0  0  0  0  0  0  0  0  0  0  0
    8.3083    0.2228    3.8470 H   0  0  0  0  0  0  0  0  0  0  0  0
    4.3692    0.4249    2.0576 H   0  0  0  0  0  0  0  0  0  0  0  0
    2.3789    1.8233    1.6986 H   0  0  0  0  0  0  0  0  0  0  0  0
    5.8606    1.5805   -1.7872 H   0  0  0  0  0  0  0  0  0  0  0  0
    3.9010    3.0066   -2.1171 H   0  0  0  0  0  0  0  0  0  0  0  0
    1.8006    4.2098    0.2461 H   0  0  0  0  0  0  0  0  0  0  0  0
    1.8049    3.8018   -1.4633 H   0  0  0  0  0  0  0  0  0  0  0  0
   -0.4235    4.3109    0.5375 H   0  0  0  0  0  0  0  0  0  0  0  0
   -0.7486    4.0113   -1.1683 H   0  0  0  0  0  0  0  0  0  0  0  0
   -1.7799    2.3838    1.2081 H   0  0  0  0  0  0  0  0  0  0  0  0
   -2.7198    3.4472    0.1629 H   0  0  0  0  0  0  0  0  0  0  0  0
    0.2776    1.9384   -2.1935 H   0  0  0  0  0  0  0  0  0  0  0  0
    1.2457    0.9078   -1.1436 H   0  0  0  0  0  0  0  0  0  0  0  0
   -0.9858   -0.0624   -1.5786 H   0  0  0  0  0  0  0  0  0  0  0  0
   -0.7082    0.2263    0.1381 H   0  0  0  0  0  0  0  0  0  0  0  0
   -2.2954    1.9922   -1.7682 H   0  0  0  0  0  0  0  0  0  0  0  0
   -3.0956    0.0886    0.3156 H   0  0  0  0  0  0  0  0  0  0  0  0
   -5.1186   -0.4791    0.3888 H   0  0  0  0  0  0  0  0  0  0  0  0
   -6.9942   -1.4618    0.8634 H   0  0  0  0  0  0  0  0  0  0  0  0
   -7.0535    2.1510   -1.4457 H   0  0  0  0  0  0  0  0  0  0  0  0
   -9.4871    2.0270   -1.5348 H   0  0  0  0  0  0  0  0  0  0  0  0
  -10.6238   -1.8688    0.6194 H   0  0  0  0  0  0  0  0  0  0  0  0
  -11.3160   -3.1061    2.3733 H   0  0  0  0  0  0  0  0  0  0  0  0
  -10.4639   -4.3334    1.4765 H   0  0  0  0  0  0  0  0  0  0  0  0
   -9.1294   -4.9302    3.5294 H   0  0  0  0  0  0  0  0  0  0  0  0
   -9.9815   -3.6843    4.4406 H   0  0  0  0  0  0  0  0  0  0  0  0
  -10.8603   -5.0705    3.8063 H   0  0  0  0  0  0  0  0  0  0  0  0
   11.2191   -2.5057    2.6885 H   0  0  0  0  0  0  0  0  0  0  0  0
 40 39  1  0
 45 46  1  0
 45 43  1  0
 42 41  1  0
 42 43  1  0
 39 41  1  0
 39 38  2  0
 41 36  2  0
 43 44  2  0
 38 37  1  0
 36 35  1  0
 37 35  2  0
 35 34  1  0
 34 32  1  0
 32 33  2  0
 32 31  1  0
 31 30  1  0
 29 30  1  0
 29 28  1  0
 30 27  1  0
 28 25  1  0
 27 26  1  0
 25 26  1  0
 25 24  1  0
 24 23  1  0
 22 23  2  0
 22 21  1  0
 23 20  1  0
 21 18  2  0
 20 19  2  0
 18 19  1  0
 18 17  1  0
  1  2  2  0
  1  6  1  0
  2  3  1  0
 17 16  2  0
 17  7  1  0
 16 15  1  0
  7  6  1  0
  7  8  2  0
  6  5  2  0
 15 14  1  0
 15  9  2  0
 14 13  2  0
  3  4  2  0
  8  9  1  0
  9 10  1  0
 13 12  1  0
  5  4  1  0
 12 10  1  0
 10 11  2  0
  1 47  1  0
  2 48  1  0
  3 49  1  0
  4 50  1  0
  5 51  1  0
  8 52  1  0
 13 53  1  0
 14 54  1  0
 19 55  1  0
 20 56  1  0
 21 57  1  0
 22 58  1  0
 24 59  1  0
 24 60  1  0
 26 61  1  0
 26 62  1  0
 27 63  1  0
 27 64  1  0
 28 65  1  0
 28 66  1  0
 29 67  1  0
 29 68  1  0
 30 69  1  6
 31 70  1  0
 34 71  1  0
 36 72  1  0
 37 73  1  0
 38 74  1  0
 42 75  1  0
 45 76  1  0
 45 77  1  0
 46 78  1  0
 46 79  1  0
 46 80  1  0
 12 81  1  0
M  END
