
     RDKit          3D

 92 92  0  0  0  0  0  0  0  0999 V2000
    6.2419   -1.6343   -0.6468 C   0  0  0  0  0  0  0  0  0  0  0  0
    3.8714   -0.9174   -0.3620 C   0  0  0  0  0  0  0  0  0  0  0  0
    2.8552   -0.0546    0.3769 C   0  0  0  0  0  0  0  0  0  0  0  0
    1.4276   -0.4230   -0.0054 C   0  0  0  0  0  0  0  0  0  0  0  0
    0.4098    0.4121    0.7533 C   0  0  0  0  0  0  0  0  0  0  0  0
   -2.0456    0.5771    0.8490 C   0  0  0  0  0  0  0  0  0  0  0  0
    7.6992    0.6284    0.5889 O   0  0  0  0  0  0  0  0  0  0  0  0
    6.4783   -2.7250    0.1195 N   0  0  0  0  0  0  0  0  0  0  0  0
    5.3204   -0.6117    0.0236 C   0  0  2  0  0  0  0  0  0  0  0  0
    6.6558   -1.4741   -1.7779 O   0  0  0  0  0  0  0  0  0  0  0  0
   -7.1582    0.3958    0.6098 C   0  0  0  0  0  0  0  0  0  0  0  0
   -8.3421   -0.2754   -0.0744 C   0  0  0  0  0  0  0  0  0  0  0  0
   -9.6947    0.2240    0.4170 C   0  0  0  0  0  0  0  0  0  0  0  0
  -10.8683   -0.4566   -0.2757 C   0  0  0  0  0  0  0  0  0  0  0  0
  -12.2279    0.0325    0.2066 C   0  0  0  0  0  0  0  0  0  0  0  0
  -13.3932   -0.6569   -0.4913 C   0  0  0  0  0  0  0  0  0  0  0  0
  -14.7579   -0.1752   -0.0154 C   0  0  0  0  0  0  0  0  0  0  0  0
  -15.9174   -0.8700   -0.7175 C   0  0  0  0  0  0  0  0  0  0  0  0
  -17.2855   -0.3932   -0.2456 C   0  0  0  0  0  0  0  0  0  0  0  0
  -18.4347   -1.0959   -0.9546 C   0  0  0  0  0  0  0  0  0  0  0  0
    7.1854   -3.8929   -0.1868 C   0  0  0  0  0  0  0  0  0  0  0  0
    7.3397   -4.8202    0.8472 C   0  0  0  0  0  0  0  0  0  0  0  0
    8.0184   -6.0077    0.6358 C   0  0  0  0  0  0  0  0  0  0  0  0
    8.5579   -6.2958   -0.6116 C   0  0  0  0  0  0  0  0  0  0  0  0
    8.4041   -5.3760   -1.6378 C   0  0  0  0  0  0  0  0  0  0  0  0
    7.7257   -4.1796   -1.4414 C   0  0  0  0  0  0  0  0  0  0  0  0
    7.1782    2.5878   -0.7021 C   0  0  0  0  0  0  0  0  0  0  0  0
    8.0320    3.4445    0.2137 C   0  0  0  0  0  0  0  0  0  0  0  0
   -3.3109    0.0033    0.2549 C   0  0  0  0  0  0  0  0  0  0  0  0
   -4.6242    0.5479    0.7869 C   0  0  0  0  0  0  0  0  0  0  0  0
   -5.8152   -0.1171    0.1071 C   0  0  0  0  0  0  0  0  0  0  0  0
   -0.9362    0.0439    0.3665 N   0  0  0  0  0  0  0  0  0  0  0  0
    5.6784    0.7208   -0.3800 N   0  0  0  0  0  0  0  0  0  0  0  0
    3.6755   -1.9689   -0.1374 H   0  0  0  0  0  0  0  0  0  0  0  0
    3.7532   -0.8021   -1.4441 H   0  0  0  0  0  0  0  0  0  0  0  0
    2.9920   -0.1799    1.4553 H   0  0  0  0  0  0  0  0  0  0  0  0
    3.0222    1.0045    0.1625 H   0  0  0  0  0  0  0  0  0  0  0  0
    1.2915   -0.2809   -1.0819 H   0  0  0  0  0  0  0  0  0  0  0  0
    1.2578   -1.4842    0.1998 H   0  0  0  0  0  0  0  0  0  0  0  0
    0.5252    0.2720    1.8315 H   0  0  0  0  0  0  0  0  0  0  0  0
    0.5617    1.4771    0.5582 H   0  0  0  0  0  0  0  0  0  0  0  0
    6.1093   -2.6920    1.0585 H   0  0  0  0  0  0  0  0  0  0  0  0
    5.4123   -0.6958    1.1119 H   0  0  0  0  0  0  0  0  0  0  0  0
   -7.2156    1.4791    0.4570 H   0  0  0  0  0  0  0  0  0  0  0  0
   -7.2263    0.2393    1.6921 H   0  0  0  0  0  0  0  0  0  0  0  0
   -8.2701   -0.1191   -1.1565 H   0  0  0  0  0  0  0  0  0  0  0  0
   -8.2796   -1.3589    0.0770 H   0  0  0  0  0  0  0  0  0  0  0  0
   -9.7700    0.0668    1.4988 H   0  0  0  0  0  0  0  0  0  0  0  0
   -9.7607    1.3070    0.2646 H   0  0  0  0  0  0  0  0  0  0  0  0
  -10.7899   -0.2997   -1.3574 H   0  0  0  0  0  0  0  0  0  0  0  0
  -10.7985   -1.5397   -0.1239 H   0  0  0  0  0  0  0  0  0  0  0  0
  -12.3081   -0.1238    1.2882 H   0  0  0  0  0  0  0  0  0  0  0  0
  -12.3011    1.1149    0.0525 H   0  0  0  0  0  0  0  0  0  0  0  0
  -13.3109   -0.5006   -1.5728 H   0  0  0  0  0  0  0  0  0  0  0  0
  -13.3175   -1.7393   -0.3378 H   0  0  0  0  0  0  0  0  0  0  0  0
  -14.8416   -0.3317    1.0659 H   0  0  0  0  0  0  0  0  0  0  0  0
  -14.8356    0.9069   -0.1698 H   0  0  0  0  0  0  0  0  0  0  0  0
  -15.8329   -0.7136   -1.7988 H   0  0  0  0  0  0  0  0  0  0  0  0
  -15.8384   -1.9521   -0.5636 H   0  0  0  0  0  0  0  0  0  0  0  0
  -17.3697   -0.5498    0.8344 H   0  0  0  0  0  0  0  0  0  0  0  0
  -17.3646    0.6874   -0.4005 H   0  0  0  0  0  0  0  0  0  0  0  0
  -18.3991   -2.1745   -0.7894 H   0  0  0  0  0  0  0  0  0  0  0  0
  -19.4031   -0.7397   -0.6018 H   0  0  0  0  0  0  0  0  0  0  0  0
  -18.3937   -0.9289   -2.0327 H   0  0  0  0  0  0  0  0  0  0  0  0
    6.9255   -4.6059    1.8257 H   0  0  0  0  0  0  0  0  0  0  0  0
    8.1261   -6.7086    1.4532 H   0  0  0  0  0  0  0  0  0  0  0  0
    9.0900   -7.2226   -0.7799 H   0  0  0  0  0  0  0  0  0  0  0  0
    8.8177   -5.5845   -2.6163 H   0  0  0  0  0  0  0  0  0  0  0  0
    7.6254   -3.4875   -2.2605 H   0  0  0  0  0  0  0  0  0  0  0  0
    7.7075    2.4198   -1.6459 H   0  0  0  0  0  0  0  0  0  0  0  0
    6.2495    3.1070   -0.9488 H   0  0  0  0  0  0  0  0  0  0  0  0
    7.5054    3.6264    1.1613 H   0  0  0  0  0  0  0  0  0  0  0  0
    8.9632    2.9210    0.4636 H   0  0  0  0  0  0  0  0  0  0  0  0
   -3.2635    0.1561   -0.8290 H   0  0  0  0  0  0  0  0  0  0  0  0
   -3.2805   -1.0826    0.3975 H   0  0  0  0  0  0  0  0  0  0  0  0
   -4.6798    0.3913    1.8668 H   0  0  0  0  0  0  0  0  0  0  0  0
   -4.6664    1.6287    0.6332 H   0  0  0  0  0  0  0  0  0  0  0  0
   -5.7623   -1.2011    0.2583 H   0  0  0  0  0  0  0  0  0  0  0  0
   -5.7506    0.0384   -0.9756 H   0  0  0  0  0  0  0  0  0  0  0  0
   -1.0297   -0.6787   -0.3340 H   0  0  0  0  0  0  0  0  0  0  0  0
    5.0732    1.2121   -1.0180 H   0  0  0  0  0  0  0  0  0  0  0  0
    8.3033    4.6565   -0.4440 O   0  0  0  0  0  0  0  0  0  0  0  0
    9.1039    5.5172    0.3281 C   0  0  0  0  0  0  0  0  0  0  0  0
    9.4036    6.7767   -0.4430 C   0  0  0  0  0  0  0  0  0  0  0  0
   -2.0283    1.7753    2.0040 S   0  0  0  0  0  0  0  0  0  0  0  0
    8.2126    7.5002   -0.6518 O   0  0  0  0  0  0  0  0  0  0  0  0
    8.6077    5.7659    1.2776 H   0  0  0  0  0  0  0  0  0  0  0  0
   10.0591    5.0385    0.5853 H   0  0  0  0  0  0  0  0  0  0  0  0
   10.1334    7.3501    0.1426 H   0  0  0  0  0  0  0  0  0  0  0  0
    9.8929    6.5133   -1.3901 H   0  0  0  0  0  0  0  0  0  0  0  0
    8.4330    8.3004   -1.1365 H   0  0  0  0  0  0  0  0  0  0  0  0
    6.8887    1.2335   -0.0988 C   0  0  0  0  0  0  0  0  0  0  0  0
 20 19  1  0
 19 18  1  0
 18 17  1  0
 17 16  1  0
 16 15  1  0
 15 14  1  0
 14 13  1  0
 11 31  1  0
 11 12  1  0
 13 12  1  0
 32  6  1  0
 32  5  1  0
 30 31  1  0
 30 29  1  0
  3  4  1  0
  3  2  1  0
  7 92  2  0
  6 29  1  0
 28 27  1  0
  4  5  1  0
 92 33  1  0
 92 27  1  0
 33  9  1  0
  2  9  1  0
  9  1  1  0
  1  8  1  0
  1 10  2  0
  8 21  1  0
 21 22  2  0
 21 26  1  0
 22 23  1  0
 26 25  2  0
 23 24  2  0
 25 24  1  0
  2 34  1  0
  2 35  1  0
  3 36  1  0
  3 37  1  0
  4 38  1  0
  4 39  1  0
  5 40  1  0
  5 41  1  0
  8 42  1  0
  9 43  1  1
 11 44  1  0
 11 45  1  0
 12 46  1  0
 12 47  1  0
 13 48  1  0
 13 49  1  0
 14 50  1  0
 14 51  1  0
 15 52  1  0
 15 53  1  0
 16 54  1  0
 16 55  1  0
 17 56  1  0
 17 57  1  0
 18 58  1  0
 18 59  1  0
 19 60  1  0
 19 61  1  0
 20 62  1  0
 20 63  1  0
 20 64  1  0
 22 65  1  0
 23 66  1  0
 24 67  1  0
 25 68  1  0
 26 69  1  0
 27 70  1  0
 27 71  1  0
 28 72  1  0
 28 73  1  0
 29 74  1  0
 29 75  1  0
 30 76  1  0
 30 77  1  0
 31 78  1  0
 31 79  1  0
 32 80  1  0
 33 81  1  0
 28 82  1  0
 82 83  1  0
 83 84  1  0
  6 85  2  0
 84 86  1  0
 83 87  1  0
 83 88  1  0
 84 89  1  0
 84 90  1  0
 86 91  1  0
M  END
