
     RDKit          3D

 44 47  0  0  0  0  0  0  0  0999 V2000
   -2.2005    0.4071   -0.4179 C   0  0  0  0  0  0  0  0  0  0  0  0
   -2.2326   -0.9692   -0.1221 C   0  0  0  0  0  0  0  0  0  0  0  0
   -1.0142   -1.5178    0.2256 C   0  0  0  0  0  0  0  0  0  0  0  0
    0.1365   -0.8540    0.2047 N   0  0  0  0  0  0  0  0  0  0  0  0
   -1.0590    1.0594   -0.4783 N   0  0  0  0  0  0  0  0  0  0  0  0
   -3.3572   -1.7991   -0.3132 N   0  0  0  0  0  0  0  0  0  0  0  0
   -4.5522   -1.5980    0.3158 C   0  0  0  0  0  0  0  0  0  0  0  0
   -5.3482   -2.5082    0.4837 O   0  0  0  0  0  0  0  0  0  0  0  0
   -4.8729   -0.2381    0.7231 C   0  0  0  0  0  0  0  0  0  0  0  0
   -6.2265   -0.0248    1.7681 S   0  0  0  0  0  0  0  0  0  0  0  0
   -6.1787    1.6606    1.5590 C   0  0  0  0  0  0  0  0  0  0  0  0
   -5.1868    2.0606    0.7177 C   0  0  0  0  0  0  0  0  0  0  0  0
   -4.4278    0.9664    0.2243 C   0  0  0  0  0  0  0  0  0  0  0  0
   -3.3512    1.1327   -0.6446 N   0  0  0  0  0  0  0  0  0  0  0  0
   -3.2211    2.4164   -1.3131 C   0  0  0  0  0  0  0  0  0  0  0  0
    0.0642    0.4025   -0.1953 C   0  0  0  0  0  0  0  0  0  0  0  0
    1.1942    1.1585   -0.3366 N   0  0  0  0  0  0  0  0  0  0  0  0
    2.5309    0.8621   -0.1571 C   0  0  0  0  0  0  0  0  0  0  0  0
    3.4401    1.8891   -0.4415 C   0  0  0  0  0  0  0  0  0  0  0  0
    4.7984    1.6992   -0.2978 C   0  0  0  0  0  0  0  0  0  0  0  0
    5.2734    0.4716    0.1417 C   0  0  0  0  0  0  0  0  0  0  0  0
    7.0061    0.2069    0.3282 S   0  0  1  0  0  0  0  0  0  0  0  0
    7.3390   -1.1528   -0.0571 O   0  0  0  0  0  0  0  0  0  0  0  0
    7.6895    1.3259   -0.2997 O   0  0  0  0  0  0  0  0  0  0  0  0
    7.1697    0.2421    1.9835 N   0  0  0  0  0  0  0  0  0  0  0  0
    4.3866   -0.5578    0.4242 C   0  0  0  0  0  0  0  0  0  0  0  0
    3.0249   -0.3735    0.2793 C   0  0  0  0  0  0  0  0  0  0  0  0
   -0.9499   -2.5632    0.5070 H   0  0  0  0  0  0  0  0  0  0  0  0
   -2.9135   -3.8788   -0.1785 H   0  0  0  0  0  0  0  0  0  0  0  0
   -4.0214   -3.4123   -1.4689 H   0  0  0  0  0  0  0  0  0  0  0  0
   -2.3054   -3.0304   -1.6119 H   0  0  0  0  0  0  0  0  0  0  0  0
   -6.8781    2.2936    2.0807 H   0  0  0  0  0  0  0  0  0  0  0  0
   -5.0035    3.0973    0.4838 H   0  0  0  0  0  0  0  0  0  0  0  0
   -2.5302    2.3209   -2.1454 H   0  0  0  0  0  0  0  0  0  0  0  0
   -4.1927    2.6998   -1.7110 H   0  0  0  0  0  0  0  0  0  0  0  0
   -2.8596    3.2087   -0.6549 H   0  0  0  0  0  0  0  0  0  0  0  0
    0.9942    2.0997   -0.6372 H   0  0  0  0  0  0  0  0  0  0  0  0
    3.0765    2.8486   -0.7891 H   0  0  0  0  0  0  0  0  0  0  0  0
    5.4787    2.5051   -0.5352 H   0  0  0  0  0  0  0  0  0  0  0  0
    7.2190    1.1841    2.3535 H   0  0  0  0  0  0  0  0  0  0  0  0
    7.9700   -0.3032    2.2842 H   0  0  0  0  0  0  0  0  0  0  0  0
    4.7518   -1.5191    0.7605 H   0  0  0  0  0  0  0  0  0  0  0  0
    2.3486   -1.1823    0.4988 H   0  0  0  0  0  0  0  0  0  0  0  0
   -3.1371   -3.1053   -0.9158 C   0  0  0  0  0  0  0  0  0  0  0  0
  1  2  1  0
  1  5  2  0
  1 14  1  0
  2  3  2  0
  2  6  1  0
  3  4  1  0
  4 16  2  0
  5 16  1  0
 44  6  1  0
  6  7  1  0
  7  8  2  0
  7  9  1  0
  9 10  1  0
  9 13  2  0
 10 11  1  0
 11 12  2  0
 12 13  1  0
 13 14  1  0
 14 15  1  0
 16 17  1  0
 17 18  1  0
 18 19  2  0
 18 27  1  0
 19 20  1  0
 20 21  2  0
 21 22  1  0
 21 26  1  0
 22 23  2  0
 22 24  2  0
 22 25  1  1
 26 27  2  0
  3 28  1  0
 44 29  1  0
 44 30  1  0
 44 31  1  0
 11 32  1  0
 12 33  1  0
 15 34  1  0
 15 35  1  0
 15 36  1  0
 17 37  1  0
 19 38  1  0
 20 39  1  0
 25 40  1  0
 25 41  1  0
 26 42  1  0
 27 43  1  0
M  END
