
     RDKit          3D

 14 13  0  0  0  0  0  0  0  0999 V2000
    2.3808   -0.3722   -0.0253 O   0  0  0  0  0  0  0  0  0  0  0  0
   -2.4565   -0.3856   -0.0530 N   0  0  0  0  0  0  0  0  0  0  0  0
   -1.2702    0.4548    0.0291 C   0  0  0  0  0  0  0  0  0  0  0  0
   -0.0055   -0.3891   -0.0318 C   0  0  0  0  0  0  0  0  0  0  0  0
    1.2450    0.4632    0.0559 C   0  0  0  0  0  0  0  0  0  0  0  0
   -2.5224   -0.9473    0.7873 H   0  0  0  0  0  0  0  0  0  0  0  0
   -1.2816    1.1441   -0.8197 H   0  0  0  0  0  0  0  0  0  0  0  0
   -1.2405    1.0815    0.9324 H   0  0  0  0  0  0  0  0  0  0  0  0
    1.2332    1.0295    0.9970 H   0  0  0  0  0  0  0  0  0  0  0  0
    1.2356    1.2033   -0.7558 H   0  0  0  0  0  0  0  0  0  0  0  0
   -0.0102   -1.1122    0.7908 H   0  0  0  0  0  0  0  0  0  0  0  0
    0.0000   -0.9620   -0.9638 H   0  0  0  0  0  0  0  0  0  0  0  0
    3.1636    0.1825    0.0321 H   0  0  0  0  0  0  0  0  0  0  0  0
   -3.2827    0.1986   -0.0526 H   0  0  0  0  0  0  0  0  0  0  0  0
  2  3  1  0
  2  6  1  0
  3  4  1  0
  3  7  1  0
  3  8  1  0
  5  9  1  0
  5 10  1  0
  4  5  1  0
  4 11  1  0
  4 12  1  0
  1  5  1  0
  1 13  1  0
  2 14  1  0
M  END
