
     RDKit          3D

 88 92  0  0  0  0  0  0  0  0999 V2000
   -3.2403   -0.8933    0.2439 C   0  0  1  0  0  0  0  0  0  0  0  0
   -3.0932   -0.8990    1.6769 N   0  0  0  0  0  0  0  0  0  0  0  0
   -1.8988    0.4848   -1.2626 O   0  0  0  0  0  0  0  0  0  0  0  0
   -2.2013    0.0036    2.1440 C   0  0  0  0  0  0  0  0  0  0  0  0
   -1.6559    0.6278    1.0109 N   0  0  0  0  0  0  0  0  0  0  0  0
    5.6878   -0.8339   -2.3270 O   0  0  0  0  0  0  0  0  0  0  0  0
   -2.1904    0.1351   -0.1413 C   0  0  0  0  0  0  0  0  0  0  0  0
   -1.9443    0.2119    3.3716 N   0  0  0  0  0  0  0  0  0  0  0  0
   -2.9860   -2.2698   -0.3944 C   0  0  0  0  0  0  0  0  0  0  0  0
    5.5652   -0.4643   -0.0531 N   0  0  0  0  0  0  0  0  0  0  0  0
   -4.6248   -0.3921   -0.2060 C   0  0  0  0  0  0  0  0  0  0  0  0
    6.8641    0.8439   -1.2618 N   0  0  0  0  0  0  0  0  0  0  0  0
   -1.7834   -3.0847    0.0837 C   0  0  1  0  0  0  0  0  0  0  0  0
   -0.5573    1.5735    1.0343 C   0  0  0  0  0  0  0  0  0  0  0  0
    0.7679    0.8811    0.8517 C   0  0  0  0  0  0  0  0  0  0  0  0
    1.3962    0.8788   -0.3903 C   0  0  0  0  0  0  0  0  0  0  0  0
    2.5764    0.1787   -0.5847 C   0  0  0  0  0  0  0  0  0  0  0  0
    3.1559   -0.5363    0.4596 C   0  0  0  0  0  0  0  0  0  0  0  0
    2.5368   -0.5198    1.7032 C   0  0  0  0  0  0  0  0  0  0  0  0
    1.3541    0.1784    1.8988 C   0  0  0  0  0  0  0  0  0  0  0  0
   -1.9777   -4.5448   -0.3382 C   0  0  0  0  0  0  0  0  0  0  0  0
   -0.8177   -5.4359    0.0896 C   0  0  0  0  0  0  0  0  0  0  0  0
    0.5093   -4.9104   -0.4437 C   0  0  0  0  0  0  0  0  0  0  0  0
    0.7251   -3.4642   -0.0164 C   0  0  0  0  0  0  0  0  0  0  0  0
   -0.4383   -2.5672   -0.4310 C   0  0  0  0  0  0  0  0  0  0  0  0
   -5.0043    1.0076    0.2611 C   0  0  0  0  0  0  0  0  0  0  0  0
    4.4371   -1.3059    0.2494 C   0  0  0  0  0  0  0  0  0  0  0  0
    6.0085    0.5682    0.8567 C   0  0  0  0  0  0  0  0  0  0  0  0
    7.2068    1.1676    0.1145 C   0  0  2  0  0  0  0  0  0  0  0  0
    6.0064   -0.2196   -1.3202 C   0  0  0  0  0  0  0  0  0  0  0  0
    7.3871    2.6546    0.3586 C   0  0  0  0  0  0  0  0  0  0  0  0
    8.5876    3.2530   -0.3645 C   0  0  0  0  0  0  0  0  0  0  0  0
    8.7573    4.7383   -0.0777 C   0  0  0  0  0  0  0  0  0  0  0  0
   -6.4634    1.3634   -0.0291 C   0  0  1  0  0  0  0  0  0  0  0  0
   -6.8233    2.7257    0.5656 C   0  0  0  0  0  0  0  0  0  0  0  0
   -8.2736    3.1096    0.2879 C   0  0  0  0  0  0  0  0  0  0  0  0
   -8.5793    3.0857   -1.2057 C   0  0  0  0  0  0  0  0  0  0  0  0
   -8.2306    1.7308   -1.8112 C   0  0  0  0  0  0  0  0  0  0  0  0
   -6.7820    1.3475   -1.5251 C   0  0  0  0  0  0  0  0  0  0  0  0
   -3.7002   -1.4077    2.2970 H   0  0  0  0  0  0  0  0  0  0  0  0
   -1.2520    0.9369    3.5062 H   0  0  0  0  0  0  0  0  0  0  0  0
   -3.8912   -2.8603   -0.2162 H   0  0  0  0  0  0  0  0  0  0  0  0
   -2.9306   -2.1326   -1.4787 H   0  0  0  0  0  0  0  0  0  0  0  0
   -4.6551   -0.4522   -1.2961 H   0  0  0  0  0  0  0  0  0  0  0  0
   -5.3641   -1.1114    0.1613 H   0  0  0  0  0  0  0  0  0  0  0  0
    7.5586    0.9241   -1.9879 H   0  0  0  0  0  0  0  0  0  0  0  0
   -1.7593   -3.0599    1.1804 H   0  0  0  0  0  0  0  0  0  0  0  0
   -0.7244    2.3020    0.2421 H   0  0  0  0  0  0  0  0  0  0  0  0
   -0.5944    2.1253    1.9745 H   0  0  0  0  0  0  0  0  0  0  0  0
    0.9481    1.4182   -1.2157 H   0  0  0  0  0  0  0  0  0  0  0  0
    3.0399    0.1775   -1.5644 H   0  0  0  0  0  0  0  0  0  0  0  0
    2.9826   -1.0602    2.5303 H   0  0  0  0  0  0  0  0  0  0  0  0
    0.8901    0.1693    2.8778 H   0  0  0  0  0  0  0  0  0  0  0  0
   -2.9132   -4.9250    0.0823 H   0  0  0  0  0  0  0  0  0  0  0  0
   -2.0892   -4.5915   -1.4288 H   0  0  0  0  0  0  0  0  0  0  0  0
   -0.7776   -5.4733    1.1840 H   0  0  0  0  0  0  0  0  0  0  0  0
   -0.9890   -6.4609   -0.2489 H   0  0  0  0  0  0  0  0  0  0  0  0
    1.3351   -5.5371   -0.0972 H   0  0  0  0  0  0  0  0  0  0  0  0
    0.5093   -4.9714   -1.5380 H   0  0  0  0  0  0  0  0  0  0  0  0
    0.8436   -3.4205    1.0718 H   0  0  0  0  0  0  0  0  0  0  0  0
    1.6551   -3.0716   -0.4360 H   0  0  0  0  0  0  0  0  0  0  0  0
   -0.4756   -2.5049   -1.5253 H   0  0  0  0  0  0  0  0  0  0  0  0
   -0.2382   -1.5572   -0.0710 H   0  0  0  0  0  0  0  0  0  0  0  0
   -4.8349    1.0919    1.3393 H   0  0  0  0  0  0  0  0  0  0  0  0
   -4.3615    1.7555   -0.2168 H   0  0  0  0  0  0  0  0  0  0  0  0
    4.3199   -2.0185   -0.5681 H   0  0  0  0  0  0  0  0  0  0  0  0
    4.6638   -1.8881    1.1456 H   0  0  0  0  0  0  0  0  0  0  0  0
    5.2272    1.3230    1.0138 H   0  0  0  0  0  0  0  0  0  0  0  0
    6.2850    0.1592    1.8288 H   0  0  0  0  0  0  0  0  0  0  0  0
    8.1229    0.6403    0.4111 H   0  0  0  0  0  0  0  0  0  0  0  0
    6.4715    3.1748    0.0594 H   0  0  0  0  0  0  0  0  0  0  0  0
    7.4995    2.8115    1.4364 H   0  0  0  0  0  0  0  0  0  0  0  0
    9.4939    2.7167   -0.0671 H   0  0  0  0  0  0  0  0  0  0  0  0
    8.4835    3.1042   -1.4435 H   0  0  0  0  0  0  0  0  0  0  0  0
    8.9144    4.9188    0.9871 H   0  0  0  0  0  0  0  0  0  0  0  0
    9.6126    5.1512   -0.6131 H   0  0  0  0  0  0  0  0  0  0  0  0
    7.8734    5.3024   -0.3806 H   0  0  0  0  0  0  0  0  0  0  0  0
   -7.0965    0.6084    0.4585 H   0  0  0  0  0  0  0  0  0  0  0  0
   -6.6348    2.7214    1.6434 H   0  0  0  0  0  0  0  0  0  0  0  0
   -6.1602    3.4876    0.1374 H   0  0  0  0  0  0  0  0  0  0  0  0
   -8.9391    2.4082    0.8031 H   0  0  0  0  0  0  0  0  0  0  0  0
   -8.4867    4.0980    0.7033 H   0  0  0  0  0  0  0  0  0  0  0  0
   -9.6316    3.3224   -1.3819 H   0  0  0  0  0  0  0  0  0  0  0  0
   -7.9967    3.8669   -1.7065 H   0  0  0  0  0  0  0  0  0  0  0  0
   -8.8947    0.9658   -1.3932 H   0  0  0  0  0  0  0  0  0  0  0  0
   -8.4083    1.7391   -2.8895 H   0  0  0  0  0  0  0  0  0  0  0  0
   -6.1113    2.0504   -2.0350 H   0  0  0  0  0  0  0  0  0  0  0  0
   -6.5747    0.3626   -1.9502 H   0  0  0  0  0  0  0  0  0  0  0  0
  1  2  1  0
  1  7  1  0
  1  9  1  6
  1 11  1  0
  2  4  1  0
  3  7  2  0
  4  5  1  0
  4  8  2  0
  5  7  1  0
  5 14  1  0
  6 30  2  0
  9 13  1  0
 10 27  1  0
 10 28  1  0
 10 30  1  0
 11 26  1  0
 12 29  1  0
 12 30  1  0
 13 21  1  0
 13 25  1  0
 14 15  1  0
 15 16  2  0
 15 20  1  0
 16 17  1  0
 17 18  2  0
 18 19  1  0
 18 27  1  0
 19 20  2  0
 21 22  1  0
 22 23  1  0
 23 24  1  0
 24 25  1  0
 26 34  1  0
 28 29  1  0
 29 31  1  0
 31 32  1  0
 32 33  1  0
 34 35  1  0
 34 39  1  0
 35 36  1  0
 36 37  1  0
 37 38  1  0
 38 39  1  0
  2 40  1  0
  8 41  1  0
  9 42  1  0
  9 43  1  0
 11 44  1  0
 11 45  1  0
 12 46  1  0
 13 47  1  1
 14 48  1  0
 14 49  1  0
 16 50  1  0
 17 51  1  0
 19 52  1  0
 20 53  1  0
 21 54  1  0
 21 55  1  0
 22 56  1  0
 22 57  1  0
 23 58  1  0
 23 59  1  0
 24 60  1  0
 24 61  1  0
 25 62  1  0
 25 63  1  0
 26 64  1  0
 26 65  1  0
 27 66  1  0
 27 67  1  0
 28 68  1  0
 28 69  1  0
 29 70  1  1
 31 71  1  0
 31 72  1  0
 32 73  1  0
 32 74  1  0
 33 75  1  0
 33 76  1  0
 33 77  1  0
 34 78  1  1
 35 79  1  0
 35 80  1  0
 36 81  1  0
 36 82  1  0
 37 83  1  0
 37 84  1  0
 38 85  1  0
 38 86  1  0
 39 87  1  0
 39 88  1  0
M  END
