
     RDKit          3D

 37 39  0  0  0  0  0  0  0  0999 V2000
   10.7739   65.3512   61.6987 C   0  0  0  0  0  0  0  0  0  0  0  0
   10.3164   66.0427   60.5872 C   0  0  0  0  0  0  0  0  0  0  0  0
    9.0436   65.7913   60.0976 C   0  0  0  0  0  0  0  0  0  0  0  0
    8.3392   66.8615   58.4325 I   0  0  0  0  0  0  0  0  0  0  0  0
    8.2239   64.8510   60.7032 C   0  0  0  0  0  0  0  0  0  0  0  0
    8.6946   64.1484   61.8013 C   0  0  0  0  0  0  0  0  0  0  0  0
    9.9694   64.3915   62.3013 C   0  0  0  0  0  0  0  0  0  0  0  0
   10.3802   63.6792   63.4487 N   0  0  0  0  0  0  0  0  0  0  0  0
   11.5060   62.9681   63.6090 C   0  0  0  0  0  0  0  0  0  0  0  0
   11.7768   62.0274   64.9509 S   0  0  0  0  0  0  0  0  0  0  0  0
   12.3370   63.1029   62.6006 O   0  0  0  0  0  0  0  0  0  0  0  0
   13.4941   62.2750   62.5085 C   0  0  0  0  0  0  0  0  0  0  0  0
   14.2441   62.6947   61.2579 C   0  0  0  0  0  0  0  0  0  0  0  0
   13.3833   62.8307   60.1056 N   0  0  0  0  0  0  0  0  0  0  0  0
   13.0689   64.0489   59.5162 C   0  0  0  0  0  0  0  0  0  0  0  0
   13.5336   65.1163   59.8246 O   0  0  0  0  0  0  0  0  0  0  0  0
   12.0853   63.7443   58.4528 C   0  0  0  0  0  0  0  0  0  0  0  0
   11.4463   64.5823   57.5659 C   0  0  0  0  0  0  0  0  0  0  0  0
   10.5598   63.9971   56.6638 C   0  0  0  0  0  0  0  0  0  0  0  0
   10.3356   62.6235   56.6635 C   0  0  0  0  0  0  0  0  0  0  0  0
   10.9900   61.7858   57.5653 C   0  0  0  0  0  0  0  0  0  0  0  0
   11.8633   62.3773   58.4521 C   0  0  0  0  0  0  0  0  0  0  0  0
   12.6991   61.7790   59.5180 C   0  0  0  0  0  0  0  0  0  0  0  0
   12.7961   60.6215   59.8407 O   0  0  0  0  0  0  0  0  0  0  0  0
   11.7536   65.5809   62.0915 H   0  0  0  0  0  0  0  0  0  0  0  0
   10.9578   66.7819   60.1280 H   0  0  0  0  0  0  0  0  0  0  0  0
    7.2288   64.6486   60.3319 H   0  0  0  0  0  0  0  0  0  0  0  0
    8.0613   63.4045   62.2682 H   0  0  0  0  0  0  0  0  0  0  0  0
    9.6861   63.5364   64.1675 H   0  0  0  0  0  0  0  0  0  0  0  0
   14.1370   62.4050   63.3800 H   0  0  0  0  0  0  0  0  0  0  0  0
   13.1874   61.2302   62.4649 H   0  0  0  0  0  0  0  0  0  0  0  0
   14.7353   63.6539   61.4102 H   0  0  0  0  0  0  0  0  0  0  0  0
   15.0236   61.9580   61.0621 H   0  0  0  0  0  0  0  0  0  0  0  0
   10.8148   60.7183   57.5642 H   0  0  0  0  0  0  0  0  0  0  0  0
    9.6421   62.1995   55.9496 H   0  0  0  0  0  0  0  0  0  0  0  0
   10.0353   64.6201   55.9522 H   0  0  0  0  0  0  0  0  0  0  0  0
   11.6203   65.6501   57.5650 H   0  0  0  0  0  0  0  0  0  0  0  0
  1  2  2  0
  1  7  1  0
  2  3  1  0
  3  4  1  0
  3  5  2  0
  5  6  1  0
  6  7  2  0
  7  8  1  0
  8  9  1  0
  9 10  2  0
  9 11  1  0
 11 12  1  0
 12 13  1  0
 13 14  1  0
 14 23  1  0
 14 15  1  0
 23 24  2  0
 23 22  1  0
 22 21  2  0
 22 17  1  0
 21 20  1  0
 20 19  2  0
 19 18  1  0
 18 17  2  0
 17 15  1  0
 15 16  2  0
  1 25  1  0
  2 26  1  0
  5 27  1  0
  6 28  1  0
  8 29  1  0
 12 30  1  0
 12 31  1  0
 13 32  1  0
 13 33  1  0
 21 34  1  0
 20 35  1  0
 19 36  1  0
 18 37  1  0
M  END
