
     RDKit          3D

 59 62  0  0  0  0  0  0  0  0999 V2000
    2.0042    1.4367   -4.1661 C   0  0  0  0  0  0  0  0  0  0  0  0
    2.3211    2.4340   -3.2533 C   0  0  0  0  0  0  0  0  0  0  0  0
    3.1075    2.1412   -2.1489 C   0  0  0  0  0  0  0  0  0  0  0  0
    3.5539    0.8410   -1.9325 C   0  0  0  0  0  0  0  0  0  0  0  0
    3.2406   -0.1548   -2.8531 C   0  0  0  0  0  0  0  0  0  0  0  0
    2.4754    0.1453   -3.9698 C   0  0  0  0  0  0  0  0  0  0  0  0
    4.4401    0.5798   -0.7547 C   0  0  0  0  0  0  0  0  0  0  0  0
    5.4019    1.3027   -0.5517 O   0  0  0  0  0  0  0  0  0  0  0  0
    4.1388   -0.4882    0.0315 N   0  0  0  0  0  0  0  0  0  0  0  0
    2.8630   -1.1066   -0.0254 C   0  0  0  0  0  0  0  0  0  0  0  0
    2.7632   -2.4692   -0.2825 C   0  0  0  0  0  0  0  0  0  0  0  0
    1.5176   -3.0739   -0.3373 C   0  0  0  0  0  0  0  0  0  0  0  0
    0.3652   -2.3269   -0.1483 C   0  0  0  0  0  0  0  0  0  0  0  0
    0.4604   -0.9629    0.1183 C   0  0  0  0  0  0  0  0  0  0  0  0
    1.7137   -0.3611    0.1969 C   0  0  0  0  0  0  0  0  0  0  0  0
   -0.7443   -0.1611    0.3457 C   0  0  0  0  0  0  0  0  0  0  0  0
   -1.8514   -0.0088   -0.4421 C   0  0  0  0  0  0  0  0  0  0  0  0
   -2.8211    0.8727    0.1064 C   0  0  0  0  0  0  0  0  0  0  0  0
   -2.4339    1.3737    1.3239 C   0  0  0  0  0  0  0  0  0  0  0  0
   -0.8891    0.7712    1.7784 S   0  0  0  0  0  0  0  0  0  0  0  0
   -3.1639    2.3146    2.1723 C   0  0  0  0  0  0  0  0  0  0  0  0
   -4.2633    2.7456    1.9270 O   0  0  0  0  0  0  0  0  0  0  0  0
   -2.4569    2.6300    3.2496 O   0  0  0  0  0  0  0  0  0  0  0  0
   -3.9469    1.1904   -0.5481 O   0  0  0  0  0  0  0  0  0  0  0  0
   -5.0847    0.4298   -0.1925 C   0  0  0  0  0  0  0  0  0  0  0  0
   -6.2327    0.9046   -1.0458 C   0  0  0  0  0  0  0  0  0  0  0  0
   -6.1654    1.7846   -1.8595 O   0  0  0  0  0  0  0  0  0  0  0  0
   -7.3254    0.2104   -0.7690 O   0  0  0  0  0  0  0  0  0  0  0  0
   -2.0811   -0.7777   -2.1228 Br  0  0  0  0  0  0  0  0  0  0  0  0
    5.0244   -0.9140    1.1320 C   0  0  2  0  0  0  0  0  0  0  0  0
    5.0709    0.0864    2.2867 C   0  0  0  0  0  0  0  0  0  0  0  0
    5.8573   -0.5061    3.4538 C   0  0  0  0  0  0  0  0  0  0  0  0
    7.2570   -0.9301    3.0190 C   0  0  0  0  0  0  0  0  0  0  0  0
    7.1961   -1.9121    1.8529 C   0  0  0  0  0  0  0  0  0  0  0  0
    6.4216   -1.3258    0.6736 C   0  0  0  0  0  0  0  0  0  0  0  0
    1.3965    1.6668   -5.0317 H   0  0  0  0  0  0  0  0  0  0  0  0
    1.9601    3.4430   -3.4038 H   0  0  0  0  0  0  0  0  0  0  0  0
    3.3609    2.9242   -1.4452 H   0  0  0  0  0  0  0  0  0  0  0  0
    3.5997   -1.1662   -2.7123 H   0  0  0  0  0  0  0  0  0  0  0  0
    2.2441   -0.6324   -4.6857 H   0  0  0  0  0  0  0  0  0  0  0  0
    3.6598   -3.0511   -0.4562 H   0  0  0  0  0  0  0  0  0  0  0  0
    1.4431   -4.1347   -0.5351 H   0  0  0  0  0  0  0  0  0  0  0  0
   -0.6021   -2.8096   -0.1852 H   0  0  0  0  0  0  0  0  0  0  0  0
    1.7931    0.6984    0.4070 H   0  0  0  0  0  0  0  0  0  0  0  0
   -2.9496    3.2464    3.8123 H   0  0  0  0  0  0  0  0  0  0  0  0
   -4.9238   -0.6396   -0.3681 H   0  0  0  0  0  0  0  0  0  0  0  0
   -5.3408    0.5581    0.8637 H   0  0  0  0  0  0  0  0  0  0  0  0
   -8.0652    0.5120   -1.3179 H   0  0  0  0  0  0  0  0  0  0  0  0
    4.5524   -1.8200    1.5248 H   0  0  0  0  0  0  0  0  0  0  0  0
    5.5426    1.0153    1.9623 H   0  0  0  0  0  0  0  0  0  0  0  0
    4.0531    0.3325    2.6013 H   0  0  0  0  0  0  0  0  0  0  0  0
    5.9140    0.2206    4.2671 H   0  0  0  0  0  0  0  0  0  0  0  0
    5.3203   -1.3755    3.8484 H   0  0  0  0  0  0  0  0  0  0  0  0
    7.8251   -0.0443    2.7144 H   0  0  0  0  0  0  0  0  0  0  0  0
    7.7965   -1.3736    3.8590 H   0  0  0  0  0  0  0  0  0  0  0  0
    8.2032   -2.1850    1.5305 H   0  0  0  0  0  0  0  0  0  0  0  0
    6.7131   -2.8387    2.1814 H   0  0  0  0  0  0  0  0  0  0  0  0
    6.3388   -2.0616   -0.1306 H   0  0  0  0  0  0  0  0  0  0  0  0
    6.9649   -0.4682    0.2746 H   0  0  0  0  0  0  0  0  0  0  0  0
  2  1  2  0
  1  6  1  0
  1 36  1  0
  2  3  1  0
  2 37  1  0
  3  4  2  0
  3 38  1  0
  4  5  1  0
  4  7  1  0
  6  5  2  0
  5 39  1  0
  6 40  1  0
  7  8  2  0
  7  9  1  0
 10  9  1  0
  9 30  1  0
 11 10  2  0
 10 15  1  0
 11 12  1  0
 11 41  1  0
 12 13  2  0
 12 42  1  0
 13 14  1  0
 13 43  1  0
 15 14  2  0
 14 16  1  0
 15 44  1  0
 20 16  1  0
 16 17  2  0
 17 18  1  0
 17 29  1  0
 19 18  2  0
 18 24  1  0
 20 19  1  0
 21 19  1  0
 22 21  2  0
 21 23  1  0
 23 45  1  0
 25 24  1  0
 25 26  1  0
 25 46  1  0
 25 47  1  0
 26 27  2  0
 26 28  1  0
 28 48  1  0
 31 30  1  0
 30 35  1  0
 30 49  1  1
 31 32  1  0
 31 50  1  0
 31 51  1  0
 32 33  1  0
 32 52  1  0
 32 53  1  0
 33 34  1  0
 33 54  1  0
 33 55  1  0
 35 34  1  0
 34 56  1  0
 34 57  1  0
 35 58  1  0
 35 59  1  0
M  END
